
     RDKit          3D

 17 17  0  0  0  0  0  0  0  0999 V2000
    3.3886   -0.6124   -0.7082 C   0  0  0  0  0  0  0  0  0  0  0  0
    1.9792   -0.2199   -0.7631 C   0  0  0  0  0  0  0  0  0  0  0  0
    0.8149    0.0990   -0.7880 C   0  0  0  0  0  0  0  0  0  0  0  0
   -0.5838    0.5077   -0.8236 C   0  0  0  0  0  0  0  0  0  0  0  0
   -1.5425   -0.6631   -0.7201 C   0  0  0  0  0  0  0  0  0  0  0  0
   -2.4080    0.2436    0.1310 C   0  0  0  0  0  0  0  0  0  0  0  0
   -1.1335    0.9713    0.5114 C   0  0  0  0  0  0  0  0  0  0  0  0
    3.8724   -0.3407    0.2449 H   0  0  0  0  0  0  0  0  0  0  0  0
    3.9924   -0.1169   -1.5106 H   0  0  0  0  0  0  0  0  0  0  0  0
    3.4160   -1.7156   -0.8400 H   0  0  0  0  0  0  0  0  0  0  0  0
   -0.8344    1.2071   -1.6475 H   0  0  0  0  0  0  0  0  0  0  0  0
   -1.1039   -1.4671   -0.0929 H   0  0  0  0  0  0  0  0  0  0  0  0
   -1.9903   -0.9809   -1.6775 H   0  0  0  0  0  0  0  0  0  0  0  0
   -2.8936   -0.2731    0.9934 H   0  0  0  0  0  0  0  0  0  0  0  0
   -3.1074    0.8409   -0.4832 H   0  0  0  0  0  0  0  0  0  0  0  0
   -1.2396    2.0671    0.6187 H   0  0  0  0  0  0  0  0  0  0  0  0
   -0.6263    0.4530    1.3225 H   0  0  0  0  0  0  0  0  0  0  0  0
  1  2  1  0
  2  3  3  0
  3  4  1  0
  4  5  1  0
  5  6  1  0
  6  7  1  0
  7  4  1  0
  1  8  1  0
  1  9  1  0
  1 10  1  0
  4 11  1  0
  5 12  1  0
  5 13  1  0
  6 14  1  0
  6 15  1  0
  7 16  1  0
  7 17  1  0
M  END
