
     RDKit          3D

 19 20  0  0  0  0  0  0  0  0999 V2000
    3.9260    0.4853    0.0432 C   0  0  0  0  0  0  0  0  0  0  0  0
    2.4889    0.4919    0.3374 C   0  0  0  0  0  0  0  0  0  0  0  0
    1.2936    0.4769    0.5777 C   0  0  0  0  0  0  0  0  0  0  0  0
   -0.1496    0.4798    0.8528 C   0  0  0  0  0  0  0  0  0  0  0  0
   -1.0120    0.5279   -0.3473 C   0  0  0  0  0  0  0  0  0  0  0  0
   -2.4939    0.5898   -0.0890 C   0  0  0  0  0  0  0  0  0  0  0  0
   -2.3935   -0.7513    0.6046 C   0  0  0  0  0  0  0  0  0  0  0  0
   -0.8919   -0.7201    0.4451 C   0  0  0  0  0  0  0  0  0  0  0  0
   -0.2527   -1.8190   -0.1259 O   0  0  0  0  0  0  0  0  0  0  0  0
    4.1396   -0.3504   -0.6545 H   0  0  0  0  0  0  0  0  0  0  0  0
    4.1590    1.4717   -0.3980 H   0  0  0  0  0  0  0  0  0  0  0  0
    4.5305    0.4053    0.9792 H   0  0  0  0  0  0  0  0  0  0  0  0
   -0.5250    1.0377    1.7337 H   0  0  0  0  0  0  0  0  0  0  0  0
   -0.6144    0.5628   -1.3679 H   0  0  0  0  0  0  0  0  0  0  0  0
   -3.1445    0.5711   -0.9679 H   0  0  0  0  0  0  0  0  0  0  0  0
   -2.7377    1.4241    0.6094 H   0  0  0  0  0  0  0  0  0  0  0  0
   -2.6551   -0.6833    1.6891 H   0  0  0  0  0  0  0  0  0  0  0  0
   -2.8359   -1.5850    0.0544 H   0  0  0  0  0  0  0  0  0  0  0  0
   -0.8315   -2.6153    0.0941 H   0  0  0  0  0  0  0  0  0  0  0  0
  1  2  1  0
  2  3  3  0
  3  4  1  0
  4  5  1  0
  5  6  1  0
  6  7  1  0
  7  8  1  0
  8  9  1  0
  8  4  1  0
  8  5  1  0
  1 10  1  0
  1 11  1  0
  1 12  1  0
  4 13  1  0
  5 14  1  0
  6 15  1  0
  6 16  1  0
  7 17  1  0
  7 18  1  0
  9 19  1  0
M  END
