
     RDKit          3D

 21 21  0  0  0  0  0  0  0  0999 V2000
    3.1617    0.9362    0.1036 C   0  0  0  0  0  0  0  0  0  0  0  0
    1.8415    0.3071   -0.1043 C   0  0  0  0  0  0  0  0  0  0  0  0
    0.7703   -0.2233   -0.2726 C   0  0  0  0  0  0  0  0  0  0  0  0
   -0.5403   -0.8476   -0.4640 C   0  0  0  0  0  0  0  0  0  0  0  0
   -0.5788   -2.2066    0.2192 C   0  0  0  0  0  0  0  0  0  0  0  0
   -0.6990   -1.0590   -1.8290 O   0  0  0  0  0  0  0  0  0  0  0  0
   -1.5867    0.0467    0.1237 C   0  0  0  0  0  0  0  0  0  0  0  0
   -1.8073    1.4208   -0.3340 C   0  0  0  0  0  0  0  0  0  0  0  0
   -1.1284    1.2496    0.9695 C   0  0  0  0  0  0  0  0  0  0  0  0
    3.9832    0.1850   -0.0100 H   0  0  0  0  0  0  0  0  0  0  0  0
    3.3200    1.7095   -0.6518 H   0  0  0  0  0  0  0  0  0  0  0  0
    3.1852    1.2814    1.1368 H   0  0  0  0  0  0  0  0  0  0  0  0
   -0.1141   -2.0406    1.2329 H   0  0  0  0  0  0  0  0  0  0  0  0
   -1.6398   -2.4402    0.4018 H   0  0  0  0  0  0  0  0  0  0  0  0
   -0.0423   -2.9804   -0.3542 H   0  0  0  0  0  0  0  0  0  0  0  0
    0.1650   -1.4073   -2.1629 H   0  0  0  0  0  0  0  0  0  0  0  0
   -2.4898   -0.5072    0.5028 H   0  0  0  0  0  0  0  0  0  0  0  0
   -2.8466    1.8475   -0.2585 H   0  0  0  0  0  0  0  0  0  0  0  0
   -1.2307    1.8890   -1.1592 H   0  0  0  0  0  0  0  0  0  0  0  0
   -1.6813    1.3656    1.9252 H   0  0  0  0  0  0  0  0  0  0  0  0
   -0.0420    1.4741    0.9851 H   0  0  0  0  0  0  0  0  0  0  0  0
  1  2  1  0
  2  3  3  0
  3  4  1  0
  4  5  1  0
  4  6  1  0
  4  7  1  0
  7  8  1  0
  8  9  1  0
  9  7  1  0
  1 10  1  0
  1 11  1  0
  1 12  1  0
  5 13  1  0
  5 14  1  0
  5 15  1  0
  6 16  1  0
  7 17  1  0
  8 18  1  0
  8 19  1  0
  9 20  1  0
  9 21  1  0
M  END
