
     RDKit          3D

 23 22  0  0  0  0  0  0  0  0999 V2000
    2.3256    0.9286    4.3655 C   0  0  0  0  0  0  0  0  0  0  0  0
    1.9174    0.7419    3.1269 C   0  0  0  0  0  0  0  0  0  0  0  0
    1.4897    0.5482    1.7602 C   0  0  0  0  0  0  0  0  0  0  0  0
    1.1125    0.3573    0.5718 C   0  0  0  0  0  0  0  0  0  0  0  0
   -0.3762   -0.1896    0.3693 C   0  0  0  0  0  0  0  0  0  0  0  0
   -0.4155   -0.2898   -1.1325 C   0  0  0  0  0  0  0  0  0  0  0  0
   -1.7019   -0.7931   -1.6494 C   0  0  0  0  0  0  0  0  0  0  0  0
   -1.6015   -0.8599   -3.1781 C   0  0  0  0  0  0  0  0  0  0  0  0
   -2.7568    0.0572   -1.2767 O   0  0  0  0  0  0  0  0  0  0  0  0
    1.6446    1.6395    5.0144 H   0  0  0  0  0  0  0  0  0  0  0  0
    2.3306    0.0426    5.0920 H   0  0  0  0  0  0  0  0  0  0  0  0
    3.3198    1.4863    4.4415 H   0  0  0  0  0  0  0  0  0  0  0  0
    1.0211    1.3253   -0.0978 H   0  0  0  0  0  0  0  0  0  0  0  0
    1.6873   -0.4043   -0.0419 H   0  0  0  0  0  0  0  0  0  0  0  0
   -1.0323    0.5551    0.7890 H   0  0  0  0  0  0  0  0  0  0  0  0
   -0.3748   -1.1467    0.8778 H   0  0  0  0  0  0  0  0  0  0  0  0
   -0.0544    0.6780   -1.5626 H   0  0  0  0  0  0  0  0  0  0  0  0
    0.3757   -1.0625   -1.4783 H   0  0  0  0  0  0  0  0  0  0  0  0
   -1.8201   -1.8203   -1.1912 H   0  0  0  0  0  0  0  0  0  0  0  0
   -1.8913    0.1230   -3.5785 H   0  0  0  0  0  0  0  0  0  0  0  0
   -2.0979   -1.7368   -3.6065 H   0  0  0  0  0  0  0  0  0  0  0  0
   -0.4928   -1.0773   -3.3753 H   0  0  0  0  0  0  0  0  0  0  0  0
   -2.6088    0.8973   -1.8331 H   0  0  0  0  0  0  0  0  0  0  0  0
  1  2  1  0
  2  3  3  0
  3  4  1  0
  4  5  1  0
  5  6  1  0
  6  7  1  0
  7  8  1  0
  7  9  1  0
  1 10  1  0
  1 11  1  0
  1 12  1  0
  4 13  1  0
  4 14  1  0
  5 15  1  0
  5 16  1  0
  6 17  1  0
  6 18  1  0
  7 19  1  0
  8 20  1  0
  8 21  1  0
  8 22  1  0
  9 23  1  0
M  END
