
     RDKit          3D

 18 17  0  0  0  0  0  0  0  0999 V2000
    2.6109   -2.1537   -0.4141 C   0  0  0  0  0  0  0  0  0  0  0  0
    1.3417   -1.4723   -0.6520 C   0  0  0  0  0  0  0  0  0  0  0  0
    0.1965   -0.8318   -0.8703 C   0  0  0  0  0  0  0  0  0  0  0  0
   -0.9776   -0.1994   -1.1012 C   0  0  0  0  0  0  0  0  0  0  0  0
   -1.8161   -0.4139   -1.9923 O   0  0  0  0  0  0  0  0  0  0  0  0
   -1.3199    0.9476   -0.1262 C   0  0  0  0  0  0  0  0  0  0  0  0
   -0.2346    1.9560   -0.1993 C   0  0  0  0  0  0  0  0  0  0  0  0
   -1.5647    0.3446    1.2120 C   0  0  0  0  0  0  0  0  0  0  0  0
    2.8531   -2.9534   -1.1098 H   0  0  0  0  0  0  0  0  0  0  0  0
    3.4679   -1.4011   -0.4635 H   0  0  0  0  0  0  0  0  0  0  0  0
    2.6143   -2.4555    0.6626 H   0  0  0  0  0  0  0  0  0  0  0  0
   -2.2467    1.4023   -0.5076 H   0  0  0  0  0  0  0  0  0  0  0  0
   -0.2085    2.4536   -1.2184 H   0  0  0  0  0  0  0  0  0  0  0  0
    0.7823    1.5986    0.0077 H   0  0  0  0  0  0  0  0  0  0  0  0
   -0.4821    2.8061    0.5018 H   0  0  0  0  0  0  0  0  0  0  0  0
   -1.1404    0.8800    2.0846 H   0  0  0  0  0  0  0  0  0  0  0  0
   -2.6687    0.2158    1.3702 H   0  0  0  0  0  0  0  0  0  0  0  0
   -1.2075   -0.7236    1.1432 H   0  0  0  0  0  0  0  0  0  0  0  0
  1  2  1  0
  2  3  3  0
  3  4  1  0
  4  5  2  0
  4  6  1  0
  6  7  1  0
  6  8  1  0
  1  9  1  0
  1 10  1  0
  1 11  1  0
  6 12  1  0
  7 13  1  0
  7 14  1  0
  7 15  1  0
  8 16  1  0
  8 17  1  0
  8 18  1  0
M  END
