
     RDKit          3D

 19 18  0  0  0  0  0  0  0  0999 V2000
    3.8766    0.9004    0.0910 C   0  0  0  0  0  0  0  0  0  0  0  0
    2.8122   -0.0777   -0.1519 C   0  0  0  0  0  0  0  0  0  0  0  0
    1.9390   -0.9088   -0.3561 C   0  0  0  0  0  0  0  0  0  0  0  0
    0.8764   -1.8863   -0.5935 C   0  0  0  0  0  0  0  0  0  0  0  0
   -0.3836   -1.2211   -0.2555 C   0  0  0  0  0  0  0  0  0  0  0  0
   -1.4217   -0.6846    0.0405 C   0  0  0  0  0  0  0  0  0  0  0  0
   -2.7001   -0.0470    0.4135 C   0  0  0  0  0  0  0  0  0  0  0  0
   -2.4837    0.7771    1.6529 C   0  0  0  0  0  0  0  0  0  0  0  0
   -3.1571    0.7874   -0.6129 O   0  0  0  0  0  0  0  0  0  0  0  0
    4.5409    0.9829   -0.7930 H   0  0  0  0  0  0  0  0  0  0  0  0
    3.4180    1.8965    0.2647 H   0  0  0  0  0  0  0  0  0  0  0  0
    4.4977    0.5702    0.9486 H   0  0  0  0  0  0  0  0  0  0  0  0
    1.0225   -2.8075    0.0327 H   0  0  0  0  0  0  0  0  0  0  0  0
    0.8804   -2.2525   -1.6508 H   0  0  0  0  0  0  0  0  0  0  0  0
   -3.4770   -0.8005    0.5867 H   0  0  0  0  0  0  0  0  0  0  0  0
   -1.6287    1.4634    1.5439 H   0  0  0  0  0  0  0  0  0  0  0  0
   -2.4437    0.1783    2.5736 H   0  0  0  0  0  0  0  0  0  0  0  0
   -3.3911    1.4423    1.7494 H   0  0  0  0  0  0  0  0  0  0  0  0
   -2.7769    1.6877   -0.4209 H   0  0  0  0  0  0  0  0  0  0  0  0
  1  2  1  0
  2  3  3  0
  3  4  1  0
  4  5  1  0
  5  6  3  0
  6  7  1  0
  7  8  1  0
  7  9  1  0
  1 10  1  0
  1 11  1  0
  1 12  1  0
  4 13  1  0
  4 14  1  0
  7 15  1  0
  8 16  1  0
  8 17  1  0
  8 18  1  0
  9 19  1  0
M  END
