
     RDKit          3D

 21 21  0  0  0  0  0  0  0  0999 V2000
    3.6339    1.3898    0.4624 C   0  0  0  0  0  0  0  0  0  0  0  0
    2.3497    0.8056    0.0570 C   0  0  0  0  0  0  0  0  0  0  0  0
    1.2930    0.3038   -0.2822 C   0  0  0  0  0  0  0  0  0  0  0  0
    0.0167   -0.2797   -0.6916 C   0  0  0  0  0  0  0  0  0  0  0  0
    0.1900   -1.7347   -1.0728 C   0  0  0  0  0  0  0  0  0  0  0  0
   -1.0170   -0.1028    0.3803 C   0  0  0  0  0  0  0  0  0  0  0  0
   -2.3846   -0.6870    0.0301 C   0  0  0  0  0  0  0  0  0  0  0  0
   -2.1899    0.7859    0.1854 C   0  0  0  0  0  0  0  0  0  0  0  0
   -2.7850    1.3731    1.3029 O   0  0  0  0  0  0  0  0  0  0  0  0
    4.1736    1.8331   -0.4132 H   0  0  0  0  0  0  0  0  0  0  0  0
    3.4304    2.2560    1.1498 H   0  0  0  0  0  0  0  0  0  0  0  0
    4.2240    0.6002    0.9370 H   0  0  0  0  0  0  0  0  0  0  0  0
   -0.3683    0.2356   -1.6118 H   0  0  0  0  0  0  0  0  0  0  0  0
    0.3533   -2.3840   -0.1857 H   0  0  0  0  0  0  0  0  0  0  0  0
   -0.7660   -2.0374   -1.5694 H   0  0  0  0  0  0  0  0  0  0  0  0
    0.9759   -1.8256   -1.8308 H   0  0  0  0  0  0  0  0  0  0  0  0
   -0.6583   -0.2551    1.4316 H   0  0  0  0  0  0  0  0  0  0  0  0
   -2.8614   -1.2770    0.8351 H   0  0  0  0  0  0  0  0  0  0  0  0
   -2.5386   -1.0543   -1.0112 H   0  0  0  0  0  0  0  0  0  0  0  0
   -2.2263    1.3999   -0.7575 H   0  0  0  0  0  0  0  0  0  0  0  0
   -2.8447    0.6548    1.9980 H   0  0  0  0  0  0  0  0  0  0  0  0
  1  2  1  0
  2  3  3  0
  3  4  1  0
  4  5  1  0
  4  6  1  0
  6  7  1  0
  7  8  1  0
  8  9  1  0
  8  6  1  0
  1 10  1  0
  1 11  1  0
  1 12  1  0
  4 13  1  0
  5 14  1  0
  5 15  1  0
  5 16  1  0
  6 17  1  0
  7 18  1  0
  7 19  1  0
  8 20  1  0
  9 21  1  0
M  END
