
     RDKit          3D

 21 21  0  0  0  0  0  0  0  0999 V2000
    3.6986    1.7082    0.9493 C   0  0  0  0  0  0  0  0  0  0  0  0
    2.7078    0.6869    0.5518 C   0  0  0  0  0  0  0  0  0  0  0  0
    1.8944   -0.1583    0.2039 C   0  0  0  0  0  0  0  0  0  0  0  0
    0.9074   -1.1614   -0.1924 C   0  0  0  0  0  0  0  0  0  0  0  0
   -0.0858   -0.5693   -1.1637 C   0  0  0  0  0  0  0  0  0  0  0  0
   -0.8514   -0.2817    0.0999 C   0  0  0  0  0  0  0  0  0  0  0  0
   -2.2901   -0.6895    0.1240 C   0  0  0  0  0  0  0  0  0  0  0  0
   -3.1061   -0.0119   -0.9510 C   0  0  0  0  0  0  0  0  0  0  0  0
   -0.0808   -1.2370    0.8059 O   0  0  0  0  0  0  0  0  0  0  0  0
    3.2559    2.4896    1.5669 H   0  0  0  0  0  0  0  0  0  0  0  0
    4.5013    1.2337    1.5879 H   0  0  0  0  0  0  0  0  0  0  0  0
    4.2257    2.0820    0.0484 H   0  0  0  0  0  0  0  0  0  0  0  0
    1.3283   -2.1202   -0.5137 H   0  0  0  0  0  0  0  0  0  0  0  0
    0.2574    0.2960   -1.7422 H   0  0  0  0  0  0  0  0  0  0  0  0
   -0.5514   -1.3484   -1.8197 H   0  0  0  0  0  0  0  0  0  0  0  0
   -0.6652    0.7315    0.4380 H   0  0  0  0  0  0  0  0  0  0  0  0
   -2.4349   -1.7844    0.0340 H   0  0  0  0  0  0  0  0  0  0  0  0
   -2.6969   -0.3538    1.1124 H   0  0  0  0  0  0  0  0  0  0  0  0
   -2.7814    1.0577   -1.0310 H   0  0  0  0  0  0  0  0  0  0  0  0
   -3.0455   -0.5152   -1.9158 H   0  0  0  0  0  0  0  0  0  0  0  0
   -4.1873   -0.0545   -0.6362 H   0  0  0  0  0  0  0  0  0  0  0  0
  1  2  1  0
  2  3  3  0
  3  4  1  0
  4  5  1  0
  5  6  1  0
  6  7  1  0
  7  8  1  0
  6  9  1  0
  9  4  1  0
  1 10  1  0
  1 11  1  0
  1 12  1  0
  4 13  1  0
  5 14  1  0
  5 15  1  0
  6 16  1  0
  7 17  1  0
  7 18  1  0
  8 19  1  0
  8 20  1  0
  8 21  1  0
M  END
