
     RDKit          3D

 15 16  0  0  0  0  0  0  0  0999 V2000
    2.8015    1.0326    0.0122 C   0  0  0  0  0  0  0  0  0  0  0  0
    1.5321    0.3701   -0.3245 C   0  0  0  0  0  0  0  0  0  0  0  0
    0.4859   -0.1622   -0.6086 C   0  0  0  0  0  0  0  0  0  0  0  0
   -0.7886   -0.8135   -0.9415 C   0  0  0  0  0  0  0  0  0  0  0  0
   -1.9217    0.1156   -0.7068 C   0  0  0  0  0  0  0  0  0  0  0  0
   -2.6907   -1.0218   -0.4488 O   0  0  0  0  0  0  0  0  0  0  0  0
   -1.5351   -1.2894    0.2713 C   0  0  0  0  0  0  0  0  0  0  0  0
   -1.5800    0.0951    0.7099 C   0  0  0  0  0  0  0  0  0  0  0  0
   -1.4255    0.7928    1.6701 O   0  0  0  0  0  0  0  0  0  0  0  0
    2.8065    2.0796   -0.3494 H   0  0  0  0  0  0  0  0  0  0  0  0
    3.6683    0.5214   -0.4917 H   0  0  0  0  0  0  0  0  0  0  0  0
    2.9955    0.9486    1.0988 H   0  0  0  0  0  0  0  0  0  0  0  0
   -0.7939   -1.4474   -1.8228 H   0  0  0  0  0  0  0  0  0  0  0  0
   -2.2138    0.8992   -1.2707 H   0  0  0  0  0  0  0  0  0  0  0  0
   -1.3406   -2.1207    0.8046 H   0  0  0  0  0  0  0  0  0  0  0  0
  1  2  1  0
  2  3  3  0
  3  4  1  0
  4  5  1  0
  5  6  1  0
  6  7  1  0
  7  8  1  0
  8  9  2  0
  7  4  1  0
  8  5  1  0
  1 10  1  0
  1 11  1  0
  1 12  1  0
  4 13  1  0
  5 14  1  0
  7 15  1  0
M  END
