
     RDKit          3D

 15 14  0  0  0  0  0  0  0  0999 V2000
    3.0438    0.5030    0.7770 C   0  0  0  0  0  0  0  0  0  0  0  0
    1.6750    0.1666    0.3677 C   0  0  0  0  0  0  0  0  0  0  0  0
    0.5437   -0.0978    0.0397 C   0  0  0  0  0  0  0  0  0  0  0  0
   -0.8515   -0.4229   -0.3380 C   0  0  0  0  0  0  0  0  0  0  0  0
   -1.1326   -1.7864    0.1187 C   0  0  0  0  0  0  0  0  0  0  0  0
   -2.0887   -1.9668    0.8521 O   0  0  0  0  0  0  0  0  0  0  0  0
   -1.7338    0.5428    0.1303 O   0  0  0  0  0  0  0  0  0  0  0  0
   -2.5490    1.3212   -0.7067 C   0  0  0  0  0  0  0  0  0  0  0  0
   -2.4483    1.1057   -1.9310 O   0  0  0  0  0  0  0  0  0  0  0  0
    3.7953    0.1017    0.0605 H   0  0  0  0  0  0  0  0  0  0  0  0
    3.1849    1.5863    0.8586 H   0  0  0  0  0  0  0  0  0  0  0  0
    3.2435   -0.0069    1.7609 H   0  0  0  0  0  0  0  0  0  0  0  0
   -0.9455   -0.4258   -1.4649 H   0  0  0  0  0  0  0  0  0  0  0  0
   -0.5483   -2.6535   -0.1496 H   0  0  0  0  0  0  0  0  0  0  0  0
   -3.1885    2.0328   -0.2375 H   0  0  0  0  0  0  0  0  0  0  0  0
  1  2  1  0
  2  3  3  0
  3  4  1  0
  4  5  1  0
  5  6  2  0
  4  7  1  0
  7  8  1  0
  8  9  2  0
  1 10  1  0
  1 11  1  0
  1 12  1  0
  4 13  1  0
  5 14  1  0
  8 15  1  0
M  END
