
     RDKit          3D

 19 19  0  0  0  0  0  0  0  0999 V2000
    3.5593    0.1124    1.1708 C   0  0  0  0  0  0  0  0  0  0  0  0
    2.2134    0.0899    0.5803 C   0  0  0  0  0  0  0  0  0  0  0  0
    1.1336    0.0685    0.0959 C   0  0  0  0  0  0  0  0  0  0  0  0
   -0.1950    0.0446   -0.5105 C   0  0  0  0  0  0  0  0  0  0  0  0
   -0.8391    1.3700   -0.5120 C   0  0  0  0  0  0  0  0  0  0  0  0
   -2.1217    1.2469   -0.2403 C   0  0  0  0  0  0  0  0  0  0  0  0
   -2.4678   -0.1800   -0.0274 C   0  0  0  0  0  0  0  0  0  0  0  0
   -1.1130   -0.8301    0.2650 C   0  0  0  0  0  0  0  0  0  0  0  0
   -1.1940   -2.1304   -0.2038 O   0  0  0  0  0  0  0  0  0  0  0  0
    3.5172   -0.2430    2.2277 H   0  0  0  0  0  0  0  0  0  0  0  0
    3.9766    1.1448    1.1882 H   0  0  0  0  0  0  0  0  0  0  0  0
    4.2823   -0.4959    0.5865 H   0  0  0  0  0  0  0  0  0  0  0  0
   -0.1740   -0.3182   -1.5550 H   0  0  0  0  0  0  0  0  0  0  0  0
   -0.3864    2.3501   -0.7012 H   0  0  0  0  0  0  0  0  0  0  0  0
   -2.8790    2.0532   -0.1678 H   0  0  0  0  0  0  0  0  0  0  0  0
   -2.9764   -0.6313   -0.8787 H   0  0  0  0  0  0  0  0  0  0  0  0
   -3.0963   -0.2364    0.8845 H   0  0  0  0  0  0  0  0  0  0  0  0
   -0.8995   -0.8436    1.3563 H   0  0  0  0  0  0  0  0  0  0  0  0
   -0.3403   -2.5716   -0.3387 H   0  0  0  0  0  0  0  0  0  0  0  0
  1  2  1  0
  2  3  3  0
  3  4  1  0
  4  5  1  0
  5  6  2  0
  6  7  1  0
  7  8  1  0
  8  9  1  0
  8  4  1  0
  1 10  1  0
  1 11  1  0
  1 12  1  0
  4 13  1  0
  5 14  1  0
  6 15  1  0
  7 16  1  0
  7 17  1  0
  8 18  1  0
  9 19  1  0
M  END
