
     RDKit          3D

 17 17  0  0  0  0  0  0  0  0999 V2000
    2.9321    1.0227   -0.6579 C   0  0  0  0  0  0  0  0  0  0  0  0
    1.7897    0.2092   -0.2002 C   0  0  0  0  0  0  0  0  0  0  0  0
    0.8552   -0.4584    0.1715 C   0  0  0  0  0  0  0  0  0  0  0  0
   -0.2753   -1.2418    0.6062 C   0  0  0  0  0  0  0  0  0  0  0  0
   -0.6252   -0.9352    1.9655 O   0  0  0  0  0  0  0  0  0  0  0  0
   -1.3247    0.1470    1.4556 C   0  0  0  0  0  0  0  0  0  0  0  0
   -1.5309    1.2962    1.9076 O   0  0  0  0  0  0  0  0  0  0  0  0
   -1.6420   -0.6595    0.2825 C   0  0  0  0  0  0  0  0  0  0  0  0
   -1.7491    0.0411   -1.0337 C   0  0  0  0  0  0  0  0  0  0  0  0
    3.1588    0.7931   -1.7200 H   0  0  0  0  0  0  0  0  0  0  0  0
    2.6562    2.1015   -0.5770 H   0  0  0  0  0  0  0  0  0  0  0  0
    3.8158    0.8728    0.0001 H   0  0  0  0  0  0  0  0  0  0  0  0
   -0.2116   -2.3316    0.5042 H   0  0  0  0  0  0  0  0  0  0  0  0
   -2.4124   -1.4353    0.3771 H   0  0  0  0  0  0  0  0  0  0  0  0
   -1.8928   -0.7458   -1.8162 H   0  0  0  0  0  0  0  0  0  0  0  0
   -2.6652    0.6507   -1.0247 H   0  0  0  0  0  0  0  0  0  0  0  0
   -0.8785    0.6732   -1.2855 H   0  0  0  0  0  0  0  0  0  0  0  0
  1  2  1  0
  2  3  3  0
  3  4  1  0
  4  5  1  0
  5  6  1  0
  6  7  2  0
  6  8  1  0
  8  9  1  0
  8  4  1  0
  1 10  1  0
  1 11  1  0
  1 12  1  0
  4 13  1  0
  8 14  1  0
  9 15  1  0
  9 16  1  0
  9 17  1  0
M  END
