
     RDKit          3D

 17 18  0  0  0  0  0  0  0  0999 V2000
    2.8748    1.4439   -0.0468 C   0  0  0  0  0  0  0  0  0  0  0  0
    1.8169    0.4557    0.0218 C   0  0  0  0  0  0  0  0  0  0  0  0
    0.9079   -0.3668    0.0890 C   0  0  0  0  0  0  0  0  0  0  0  0
   -0.2000   -1.3650    0.1449 C   0  0  0  0  0  0  0  0  0  0  0  0
   -1.0038   -0.9722    1.2224 O   0  0  0  0  0  0  0  0  0  0  0  0
   -1.6863    0.1693    0.7371 C   0  0  0  0  0  0  0  0  0  0  0  0
   -2.2206   -0.2657   -0.6046 C   0  0  0  0  0  0  0  0  0  0  0  0
   -2.4024   -1.6072   -0.8765 O   0  0  0  0  0  0  0  0  0  0  0  0
   -1.0972   -1.2209   -1.0339 C   0  0  0  0  0  0  0  0  0  0  0  0
    2.4898    2.4349   -0.4348 H   0  0  0  0  0  0  0  0  0  0  0  0
    3.2644    1.5745    0.9788 H   0  0  0  0  0  0  0  0  0  0  0  0
    3.7122    1.0869   -0.7193 H   0  0  0  0  0  0  0  0  0  0  0  0
    0.2222   -2.3813    0.2609 H   0  0  0  0  0  0  0  0  0  0  0  0
   -2.4144    0.5335    1.4482 H   0  0  0  0  0  0  0  0  0  0  0  0
   -0.9272    0.9661    0.5268 H   0  0  0  0  0  0  0  0  0  0  0  0
   -2.6467    0.4322   -1.3176 H   0  0  0  0  0  0  0  0  0  0  0  0
   -0.6897   -0.9178   -2.0197 H   0  0  0  0  0  0  0  0  0  0  0  0
  1  2  1  0
  2  3  3  0
  3  4  1  0
  4  5  1  0
  5  6  1  0
  6  7  1  0
  7  8  1  0
  8  9  1  0
  9  4  1  0
  9  7  1  0
  1 10  1  0
  1 11  1  0
  1 12  1  0
  4 13  1  0
  6 14  1  0
  6 15  1  0
  7 16  1  0
  9 17  1  0
M  END
