
     RDKit          3D

 19 20  0  0  0  0  0  0  0  0999 V2000
    3.9992   -0.0482    0.0427 C   0  0  0  0  0  0  0  0  0  0  0  0
    2.5835   -0.3431   -0.1947 C   0  0  0  0  0  0  0  0  0  0  0  0
    1.4149   -0.5849   -0.3997 C   0  0  0  0  0  0  0  0  0  0  0  0
    0.0202   -0.8594   -0.6227 C   0  0  0  0  0  0  0  0  0  0  0  0
   -0.6384    0.1732   -1.2401 O   0  0  0  0  0  0  0  0  0  0  0  0
   -1.7098    0.2622   -0.3856 C   0  0  0  0  0  0  0  0  0  0  0  0
   -2.1976    1.5983    0.0887 C   0  0  0  0  0  0  0  0  0  0  0  0
   -2.2985   -0.9178    0.2875 C   0  0  0  0  0  0  0  0  0  0  0  0
   -0.8950   -0.6085    0.5769 C   0  0  0  0  0  0  0  0  0  0  0  0
    4.5802   -0.3183   -0.8667 H   0  0  0  0  0  0  0  0  0  0  0  0
    4.1610    1.0267    0.2584 H   0  0  0  0  0  0  0  0  0  0  0  0
    4.4235   -0.6631    0.8651 H   0  0  0  0  0  0  0  0  0  0  0  0
   -0.2163   -1.8360   -1.1172 H   0  0  0  0  0  0  0  0  0  0  0  0
   -2.1021    1.7346    1.1895 H   0  0  0  0  0  0  0  0  0  0  0  0
   -3.3103    1.6148   -0.1096 H   0  0  0  0  0  0  0  0  0  0  0  0
   -1.7859    2.4477   -0.4846 H   0  0  0  0  0  0  0  0  0  0  0  0
   -3.0264   -0.7574    1.0766 H   0  0  0  0  0  0  0  0  0  0  0  0
   -2.4715   -1.8592   -0.3001 H   0  0  0  0  0  0  0  0  0  0  0  0
   -0.5307   -0.0614    1.4357 H   0  0  0  0  0  0  0  0  0  0  0  0
  1  2  1  0
  2  3  3  0
  3  4  1  0
  4  5  1  0
  5  6  1  0
  6  7  1  0
  6  8  1  0
  8  9  1  0
  9  4  1  0
  9  6  1  0
  1 10  1  0
  1 11  1  0
  1 12  1  0
  4 13  1  0
  7 14  1  0
  7 15  1  0
  7 16  1  0
  8 17  1  0
  8 18  1  0
  9 19  1  0
M  END
