
     RDKit          3D

 19 19  0  0  0  0  0  0  0  0999 V2000
    3.9336    0.0854   -0.7043 C   0  0  0  0  0  0  0  0  0  0  0  0
    2.5210    0.0618   -0.3098 C   0  0  0  0  0  0  0  0  0  0  0  0
    1.3603    0.0475    0.0187 C   0  0  0  0  0  0  0  0  0  0  0  0
   -0.0620    0.0487    0.4398 C   0  0  0  0  0  0  0  0  0  0  0  0
   -0.8390    1.1107   -0.2985 C   0  0  0  0  0  0  0  0  0  0  0  0
   -1.7559    0.4069   -1.0993 O   0  0  0  0  0  0  0  0  0  0  0  0
   -1.8980   -0.7647   -0.3685 C   0  0  0  0  0  0  0  0  0  0  0  0
   -2.6939   -0.5985    0.8871 C   0  0  0  0  0  0  0  0  0  0  0  0
   -0.6078   -1.1380   -0.0408 O   0  0  0  0  0  0  0  0  0  0  0  0
    4.5094    0.5483    0.1139 H   0  0  0  0  0  0  0  0  0  0  0  0
    4.0939    0.7337   -1.6096 H   0  0  0  0  0  0  0  0  0  0  0  0
    4.2812   -0.9245   -0.9852 H   0  0  0  0  0  0  0  0  0  0  0  0
   -0.1146    0.1447    1.5351 H   0  0  0  0  0  0  0  0  0  0  0  0
   -0.1915    1.7677   -0.9020 H   0  0  0  0  0  0  0  0  0  0  0  0
   -1.3944    1.7747    0.4110 H   0  0  0  0  0  0  0  0  0  0  0  0
   -2.3355   -1.5870   -0.9674 H   0  0  0  0  0  0  0  0  0  0  0  0
   -2.1254   -0.1411    1.7219 H   0  0  0  0  0  0  0  0  0  0  0  0
   -3.5964    0.0344    0.7497 H   0  0  0  0  0  0  0  0  0  0  0  0
   -3.0852   -1.6107    1.1693 H   0  0  0  0  0  0  0  0  0  0  0  0
  1  2  1  0
  2  3  3  0
  3  4  1  0
  4  5  1  0
  5  6  1  0
  6  7  1  0
  7  8  1  0
  7  9  1  0
  9  4  1  0
  1 10  1  0
  1 11  1  0
  1 12  1  0
  4 13  1  0
  5 14  1  0
  5 15  1  0
  7 16  1  0
  8 17  1  0
  8 18  1  0
  8 19  1  0
M  END
