
     RDKit          3D

 21 21  0  0  0  0  0  0  0  0999 V2000
    4.5407   -0.1915   -0.8528 C   0  0  0  0  0  0  0  0  0  0  0  0
    3.0584   -0.1155   -0.8240 C   0  0  0  0  0  0  0  0  0  0  0  0
    1.8351   -0.0525   -0.7793 C   0  0  0  0  0  0  0  0  0  0  0  0
    0.3518    0.0448   -0.7407 C   0  0  0  0  0  0  0  0  0  0  0  0
   -0.0817   -0.1966    0.5236 O   0  0  0  0  0  0  0  0  0  0  0  0
   -1.4504   -0.1294    0.6372 C   0  0  0  0  0  0  0  0  0  0  0  0
   -2.0289   -0.4857    2.0300 C   0  0  0  0  0  0  0  0  0  0  0  0
   -2.1811    1.1119    0.0410 C   0  0  0  0  0  0  0  0  0  0  0  0
   -2.3725   -0.2528   -0.4983 C   0  0  0  0  0  0  0  0  0  0  0  0
    4.8717   -0.9313   -1.6253 H   0  0  0  0  0  0  0  0  0  0  0  0
    4.8303   -0.5704    0.1446 H   0  0  0  0  0  0  0  0  0  0  0  0
    4.9939    0.7804   -1.0262 H   0  0  0  0  0  0  0  0  0  0  0  0
   -0.0419   -0.7209   -1.4614 H   0  0  0  0  0  0  0  0  0  0  0  0
    0.0437    1.0433   -1.0766 H   0  0  0  0  0  0  0  0  0  0  0  0
   -2.1211   -1.5548    2.1821 H   0  0  0  0  0  0  0  0  0  0  0  0
   -1.2493   -0.0993    2.7348 H   0  0  0  0  0  0  0  0  0  0  0  0
   -2.9847    0.0530    2.2038 H   0  0  0  0  0  0  0  0  0  0  0  0
   -1.6204    1.8501   -0.5102 H   0  0  0  0  0  0  0  0  0  0  0  0
   -2.9522    1.5770    0.7169 H   0  0  0  0  0  0  0  0  0  0  0  0
   -3.3908   -0.7010   -0.2957 H   0  0  0  0  0  0  0  0  0  0  0  0
   -2.0507   -0.4589   -1.5234 H   0  0  0  0  0  0  0  0  0  0  0  0
  1  2  1  0
  2  3  3  0
  3  4  1  0
  4  5  1  0
  5  6  1  0
  6  7  1  0
  6  8  1  0
  8  9  1  0
  9  6  1  0
  1 10  1  0
  1 11  1  0
  1 12  1  0
  4 13  1  0
  4 14  1  0
  7 15  1  0
  7 16  1  0
  7 17  1  0
  8 18  1  0
  8 19  1  0
  9 20  1  0
  9 21  1  0
M  END
