
     RDKit          3D

 25 24  0  0  0  0  0  0  0  0999 V2000
    3.5103   -1.2415    0.3622 C   0  0  0  0  0  0  0  0  0  0  0  0
    2.2886   -0.4690    0.1197 C   0  0  0  0  0  0  0  0  0  0  0  0
    1.2817    0.1612   -0.0896 C   0  0  0  0  0  0  0  0  0  0  0  0
    0.0513    0.9083   -0.3511 C   0  0  0  0  0  0  0  0  0  0  0  0
   -0.2666    0.8959   -1.8338 C   0  0  0  0  0  0  0  0  0  0  0  0
    0.2802    2.3162    0.1311 C   0  0  0  0  0  0  0  0  0  0  0  0
   -1.1099    0.3409    0.4350 C   0  0  0  0  0  0  0  0  0  0  0  0
   -1.3983   -1.0914    0.1060 C   0  0  0  0  0  0  0  0  0  0  0  0
   -2.5557   -1.5541    0.9311 C   0  0  0  0  0  0  0  0  0  0  0  0
    3.5697   -2.1363   -0.3153 H   0  0  0  0  0  0  0  0  0  0  0  0
    4.4169   -0.6434    0.1265 H   0  0  0  0  0  0  0  0  0  0  0  0
    3.4989   -1.6349    1.3904 H   0  0  0  0  0  0  0  0  0  0  0  0
    0.3882    1.6507   -2.3108 H   0  0  0  0  0  0  0  0  0  0  0  0
   -1.3410    1.1133   -1.9390 H   0  0  0  0  0  0  0  0  0  0  0  0
    0.0352   -0.0896   -2.2361 H   0  0  0  0  0  0  0  0  0  0  0  0
   -0.1747    2.4637    1.1247 H   0  0  0  0  0  0  0  0  0  0  0  0
    1.3389    2.6112    0.1467 H   0  0  0  0  0  0  0  0  0  0  0  0
   -0.2609    3.0059   -0.5619 H   0  0  0  0  0  0  0  0  0  0  0  0
   -0.8066    0.3689    1.5195 H   0  0  0  0  0  0  0  0  0  0  0  0
   -1.9855    0.9827    0.3361 H   0  0  0  0  0  0  0  0  0  0  0  0
   -0.5171   -1.7212    0.3726 H   0  0  0  0  0  0  0  0  0  0  0  0
   -1.6277   -1.2703   -0.9489 H   0  0  0  0  0  0  0  0  0  0  0  0
   -2.8316   -0.7905    1.7037 H   0  0  0  0  0  0  0  0  0  0  0  0
   -3.4675   -1.6974    0.2819 H   0  0  0  0  0  0  0  0  0  0  0  0
   -2.3168   -2.4789    1.4993 H   0  0  0  0  0  0  0  0  0  0  0  0
  1  2  1  0
  2  3  3  0
  3  4  1  0
  4  5  1  0
  4  6  1  0
  4  7  1  0
  7  8  1  0
  8  9  1  0
  1 10  1  0
  1 11  1  0
  1 12  1  0
  5 13  1  0
  5 14  1  0
  5 15  1  0
  6 16  1  0
  6 17  1  0
  6 18  1  0
  7 19  1  0
  7 20  1  0
  8 21  1  0
  8 22  1  0
  9 23  1  0
  9 24  1  0
  9 25  1  0
M  END
