
     RDKit          3D

 19 18  0  0  0  0  0  0  0  0999 V2000
    3.6523    0.8985    0.7696 C   0  0  0  0  0  0  0  0  0  0  0  0
    2.3875    0.4064    0.2181 C   0  0  0  0  0  0  0  0  0  0  0  0
    1.3326    0.0172   -0.2409 C   0  0  0  0  0  0  0  0  0  0  0  0
    0.0456   -0.4309   -0.8035 C   0  0  0  0  0  0  0  0  0  0  0  0
   -0.1598   -1.9100   -0.5525 C   0  0  0  0  0  0  0  0  0  0  0  0
   -1.0142    0.2862   -0.0412 C   0  0  0  0  0  0  0  0  0  0  0  0
   -0.7745    1.0962    0.8834 O   0  0  0  0  0  0  0  0  0  0  0  0
   -2.3517    0.0633   -0.3519 O   0  0  0  0  0  0  0  0  0  0  0  0
   -3.4145    0.7154    0.3370 C   0  0  0  0  0  0  0  0  0  0  0  0
    4.3538    1.2203   -0.0468 H   0  0  0  0  0  0  0  0  0  0  0  0
    4.1698    0.0995    1.3402 H   0  0  0  0  0  0  0  0  0  0  0  0
    3.3970    1.7772    1.3983 H   0  0  0  0  0  0  0  0  0  0  0  0
   -0.0534   -0.1613   -1.8664 H   0  0  0  0  0  0  0  0  0  0  0  0
   -0.6437   -2.4215   -1.4100 H   0  0  0  0  0  0  0  0  0  0  0  0
    0.8741   -2.3325   -0.3909 H   0  0  0  0  0  0  0  0  0  0  0  0
   -0.7713   -2.1018    0.3611 H   0  0  0  0  0  0  0  0  0  0  0  0
   -4.2544    0.0421    0.5405 H   0  0  0  0  0  0  0  0  0  0  0  0
   -3.0040    1.2144    1.2374 H   0  0  0  0  0  0  0  0  0  0  0  0
   -3.7712    1.5213   -0.3382 H   0  0  0  0  0  0  0  0  0  0  0  0
  1  2  1  0
  2  3  3  0
  3  4  1  0
  4  5  1  0
  4  6  1  0
  6  7  2  0
  6  8  1  0
  8  9  1  0
  1 10  1  0
  1 11  1  0
  1 12  1  0
  4 13  1  0
  5 14  1  0
  5 15  1  0
  5 16  1  0
  9 17  1  0
  9 18  1  0
  9 19  1  0
M  END
