
     RDKit          3D

 18 18  0  0  0  0  0  0  0  0999 V2000
   -3.1995    1.0062   -1.7385 C   0  0  0  0  0  0  0  0  0  0  0  0
   -2.1699    0.4839   -0.8144 C   0  0  0  0  0  0  0  0  0  0  0  0
   -1.3272    0.0646   -0.0600 C   0  0  0  0  0  0  0  0  0  0  0  0
   -0.2838   -0.4395    0.8457 C   0  0  0  0  0  0  0  0  0  0  0  0
    1.0181   -0.6719    0.0759 C   0  0  0  0  0  0  0  0  0  0  0  0
    2.1439   -1.1910    0.9341 C   0  0  0  0  0  0  0  0  0  0  0  0
    2.1831    0.2139    0.3497 C   0  0  0  0  0  0  0  0  0  0  0  0
    2.0492    1.2986    1.1858 O   0  0  0  0  0  0  0  0  0  0  0  0
   -2.8222    1.9035   -2.2497 H   0  0  0  0  0  0  0  0  0  0  0  0
   -4.1096    1.1966   -1.1318 H   0  0  0  0  0  0  0  0  0  0  0  0
   -3.4839    0.2456   -2.4903 H   0  0  0  0  0  0  0  0  0  0  0  0
   -0.1357    0.3308    1.6410 H   0  0  0  0  0  0  0  0  0  0  0  0
   -0.5587   -1.4215    1.2846 H   0  0  0  0  0  0  0  0  0  0  0  0
    0.8752   -1.1373   -0.9008 H   0  0  0  0  0  0  0  0  0  0  0  0
    1.9929   -1.2973    2.0296 H   0  0  0  0  0  0  0  0  0  0  0  0
    2.8487   -1.9442    0.4850 H   0  0  0  0  0  0  0  0  0  0  0  0
    2.8749    0.3328   -0.5247 H   0  0  0  0  0  0  0  0  0  0  0  0
    2.1046    1.0263    2.1193 H   0  0  0  0  0  0  0  0  0  0  0  0
  1  2  1  0
  2  3  3  0
  3  4  1  0
  4  5  1  0
  5  6  1  0
  6  7  1  0
  7  8  1  0
  7  5  1  0
  1  9  1  0
  1 10  1  0
  1 11  1  0
  4 12  1  0
  4 13  1  0
  5 14  1  0
  6 15  1  0
  6 16  1  0
  7 17  1  0
  8 18  1  0
M  END
