
     RDKit          3D

 19 18  0  0  0  0  0  0  0  0999 V2000
    4.2330   -0.4063   -0.2032 C   0  0  0  0  0  0  0  0  0  0  0  0
    2.8340   -0.0177   -0.0179 C   0  0  0  0  0  0  0  0  0  0  0  0
    1.6761    0.2828    0.1294 C   0  0  0  0  0  0  0  0  0  0  0  0
    0.2356    0.6462    0.2884 C   0  0  0  0  0  0  0  0  0  0  0  0
   -0.5276   -0.0562   -0.7831 C   0  0  0  0  0  0  0  0  0  0  0  0
   -1.8683    0.2287   -0.7527 O   0  0  0  0  0  0  0  0  0  0  0  0
   -2.4730   -0.1395    0.4094 C   0  0  0  0  0  0  0  0  0  0  0  0
   -3.9496    0.1428    0.3921 C   0  0  0  0  0  0  0  0  0  0  0  0
   -4.4565    0.6372   -0.5743 O   0  0  0  0  0  0  0  0  0  0  0  0
    4.5406   -1.2232    0.4893 H   0  0  0  0  0  0  0  0  0  0  0  0
    4.3604   -0.6794   -1.2718 H   0  0  0  0  0  0  0  0  0  0  0  0
    4.8910    0.4776   -0.0377 H   0  0  0  0  0  0  0  0  0  0  0  0
    0.0833    1.7367    0.2665 H   0  0  0  0  0  0  0  0  0  0  0  0
   -0.1077    0.2656    1.2915 H   0  0  0  0  0  0  0  0  0  0  0  0
   -0.1601    0.2281   -1.8034 H   0  0  0  0  0  0  0  0  0  0  0  0
   -0.3609   -1.1682   -0.7332 H   0  0  0  0  0  0  0  0  0  0  0  0
   -2.3666   -1.2290    0.5865 H   0  0  0  0  0  0  0  0  0  0  0  0
   -2.0387    0.3772    1.3170 H   0  0  0  0  0  0  0  0  0  0  0  0
   -4.5449   -0.1035    1.2555 H   0  0  0  0  0  0  0  0  0  0  0  0
  1  2  1  0
  2  3  3  0
  3  4  1  0
  4  5  1  0
  5  6  1  0
  6  7  1  0
  7  8  1  0
  8  9  2  0
  1 10  1  0
  1 11  1  0
  1 12  1  0
  4 13  1  0
  4 14  1  0
  5 15  1  0
  5 16  1  0
  7 17  1  0
  7 18  1  0
  8 19  1  0
M  END
