
     RDKit          3D

 20 19  0  0  0  0  0  0  0  0999 V2000
    3.5514    0.6906   -0.8648 C   0  0  0  0  0  0  0  0  0  0  0  0
    2.4458    0.0651   -0.6422 C   0  0  0  0  0  0  0  0  0  0  0  0
    1.0335   -0.7295   -0.3828 C   0  0  0  0  0  0  0  0  0  0  0  0
   -0.2260   -1.4110   -0.1441 C   0  0  0  0  0  0  0  0  0  0  0  0
   -1.3510   -0.0605   -0.3489 C   0  0  0  0  0  0  0  0  0  0  0  0
   -1.0699    0.3935   -1.6252 O   0  0  0  0  0  0  0  0  0  0  0  0
   -1.4818    0.9443    0.6647 C   0  0  0  0  0  0  0  0  0  0  0  0
   -1.8013    0.3824    2.0391 C   0  0  0  0  0  0  0  0  0  0  0  0
    3.1661   -0.1742   -2.1955 H   0  0  0  0  0  0  0  0  0  0  0  0
    4.1070    1.0012   -1.7443 H   0  0  0  0  0  0  0  0  0  0  0  0
    4.2492   -0.6382   -0.9486 H   0  0  0  0  0  0  0  0  0  0  0  0
   -0.2912   -1.3412    1.0974 H   0  0  0  0  0  0  0  0  0  0  0  0
   -0.6384   -2.0104   -0.7095 H   0  0  0  0  0  0  0  0  0  0  0  0
   -2.1784   -0.7672   -0.2963 H   0  0  0  0  0  0  0  0  0  0  0  0
   -0.8993   -0.5391   -2.1310 H   0  0  0  0  0  0  0  0  0  0  0  0
   -0.5736    1.6214    0.7441 H   0  0  0  0  0  0  0  0  0  0  0  0
   -2.2963    1.7504    0.3547 H   0  0  0  0  0  0  0  0  0  0  0  0
   -1.0005    0.7102    2.7292 H   0  0  0  0  0  0  0  0  0  0  0  0
   -2.7862    0.8262    2.4245 H   0  0  0  0  0  0  0  0  0  0  0  0
   -1.9589   -0.7138    1.9794 H   0  0  0  0  0  0  0  0  0  0  0  0
  1  2  1  0
  2  3  3  0
  3  4  1  0
  4  5  1  0
  5  6  1  0
  5  7  1  0
  7  8  1  0
  1  9  1  0
  1 10  1  0
  1 11  1  0
  4 12  1  0
  4 13  1  0
  5 14  1  0
  6 15  1  0
  7 16  1  0
  7 17  1  0
  8 18  1  0
  8 19  1  0
  8 20  1  0
M  END
