
     RDKit          3D

 21 20  0  0  0  0  0  0  0  0999 V2000
    3.5808   -0.7066    0.6586 C   0  0  0  0  0  0  0  0  0  0  0  0
    2.2014   -0.6310    0.2049 C   0  0  0  0  0  0  0  0  0  0  0  0
    1.0592   -0.5490   -0.1695 C   0  0  0  0  0  0  0  0  0  0  0  0
   -0.3274   -0.4351   -0.6266 C   0  0  0  0  0  0  0  0  0  0  0  0
   -0.6562    0.9813   -1.0306 C   0  0  0  0  0  0  0  0  0  0  0  0
   -0.4873    1.9612    0.0990 C   0  0  0  0  0  0  0  0  0  0  0  0
   -1.2198   -0.9771    0.3983 C   0  0  0  0  0  0  0  0  0  0  0  0
   -2.6827   -0.9824    0.1851 C   0  0  0  0  0  0  0  0  0  0  0  0
   -0.7805   -1.4258    1.4275 O   0  0  0  0  0  0  0  0  0  0  0  0
    4.2398    0.0511    0.1864 H   0  0  0  0  0  0  0  0  0  0  0  0
    3.9556   -1.7259    0.3683 H   0  0  0  0  0  0  0  0  0  0  0  0
    3.6006   -0.5602    1.7616 H   0  0  0  0  0  0  0  0  0  0  0  0
   -0.3622   -1.0307   -1.5873 H   0  0  0  0  0  0  0  0  0  0  0  0
   -1.6598    1.0376   -1.4459 H   0  0  0  0  0  0  0  0  0  0  0  0
    0.0826    1.2627   -1.8212 H   0  0  0  0  0  0  0  0  0  0  0  0
   -0.2857    2.9514   -0.3723 H   0  0  0  0  0  0  0  0  0  0  0  0
    0.3899    1.7077    0.7424 H   0  0  0  0  0  0  0  0  0  0  0  0
   -1.4078    2.0957    0.7003 H   0  0  0  0  0  0  0  0  0  0  0  0
   -2.9452   -0.4573   -0.7590 H   0  0  0  0  0  0  0  0  0  0  0  0
   -3.2307   -0.5339    1.0331 H   0  0  0  0  0  0  0  0  0  0  0  0
   -3.0648   -2.0336    0.0469 H   0  0  0  0  0  0  0  0  0  0  0  0
  1  2  1  0
  2  3  3  0
  3  4  1  0
  4  5  1  0
  5  6  1  0
  4  7  1  0
  7  8  1  0
  7  9  2  0
  1 10  1  0
  1 11  1  0
  1 12  1  0
  4 13  1  0
  5 14  1  0
  5 15  1  0
  6 16  1  0
  6 17  1  0
  6 18  1  0
  8 19  1  0
  8 20  1  0
  8 21  1  0
M  END
