
     RDKit          3D

 19 18  0  0  0  0  0  0  0  0999 V2000
    2.3231   -2.2763    2.2007 C   0  0  0  0  0  0  0  0  0  0  0  0
    1.4073   -1.6837    1.1966 C   0  0  0  0  0  0  0  0  0  0  0  0
    0.6531   -1.1918    0.3960 C   0  0  0  0  0  0  0  0  0  0  0  0
   -0.2531   -0.6143   -0.5541 C   0  0  0  0  0  0  0  0  0  0  0  0
   -0.8223   -1.2978   -1.4435 O   0  0  0  0  0  0  0  0  0  0  0  0
   -0.5409    0.8279   -0.5040 C   0  0  0  0  0  0  0  0  0  0  0  0
   -2.0241    0.9771   -0.1412 C   0  0  0  0  0  0  0  0  0  0  0  0
   -0.3251    1.5282   -1.8140 C   0  0  0  0  0  0  0  0  0  0  0  0
    0.1646    1.4411    0.5326 O   0  0  0  0  0  0  0  0  0  0  0  0
    3.3518   -2.2839    1.7834 H   0  0  0  0  0  0  0  0  0  0  0  0
    2.2551   -1.6328    3.1039 H   0  0  0  0  0  0  0  0  0  0  0  0
    2.0557   -3.3322    2.4042 H   0  0  0  0  0  0  0  0  0  0  0  0
   -2.3419    0.2164    0.5877 H   0  0  0  0  0  0  0  0  0  0  0  0
   -2.5693    0.8474   -1.1079 H   0  0  0  0  0  0  0  0  0  0  0  0
   -2.2148    2.0142    0.1808 H   0  0  0  0  0  0  0  0  0  0  0  0
    0.6589    2.0399   -1.8856 H   0  0  0  0  0  0  0  0  0  0  0  0
   -0.4523    0.7637   -2.6179 H   0  0  0  0  0  0  0  0  0  0  0  0
   -1.0941    2.3335   -1.9251 H   0  0  0  0  0  0  0  0  0  0  0  0
   -0.2318    1.3235    1.4100 H   0  0  0  0  0  0  0  0  0  0  0  0
  1  2  1  0
  2  3  3  0
  3  4  1  0
  4  5  2  0
  4  6  1  0
  6  7  1  0
  6  8  1  0
  6  9  1  0
  1 10  1  0
  1 11  1  0
  1 12  1  0
  7 13  1  0
  7 14  1  0
  7 15  1  0
  8 16  1  0
  8 17  1  0
  8 18  1  0
  9 19  1  0
M  END
