
     RDKit          3D

 19 18  0  0  0  0  0  0  0  0999 V2000
    2.9319    1.7429   -1.1351 C   0  0  0  0  0  0  0  0  0  0  0  0
    2.1404    0.5572   -1.0238 C   0  0  0  0  0  0  0  0  0  0  0  0
    1.4599   -0.4731   -0.9341 C   0  0  0  0  0  0  0  0  0  0  0  0
    0.6773   -1.6732   -0.8240 C   0  0  0  0  0  0  0  0  0  0  0  0
   -0.7922   -1.5324   -0.9742 C   0  0  0  0  0  0  0  0  0  0  0  0
   -1.4389   -0.8384    0.0733 C   0  0  0  0  0  0  0  0  0  0  0  0
   -1.9604   -0.2790    0.9110 C   0  0  0  0  0  0  0  0  0  0  0  0
   -2.6790    0.5173    2.0656 C   0  0  0  0  0  0  0  0  0  0  0  0
   -1.6289    0.8684    2.8495 O   0  0  0  0  0  0  0  0  0  0  0  0
    4.0085    1.4750   -0.8763 H   0  0  0  0  0  0  0  0  0  0  0  0
    2.5966    2.5909   -0.4579 H   0  0  0  0  0  0  0  0  0  0  0  0
    2.9785    2.1547   -2.1819 H   0  0  0  0  0  0  0  0  0  0  0  0
    0.9564   -2.1686    0.1417 H   0  0  0  0  0  0  0  0  0  0  0  0
    1.0207   -2.4308   -1.6261 H   0  0  0  0  0  0  0  0  0  0  0  0
   -1.0027   -0.9835   -1.9664 H   0  0  0  0  0  0  0  0  0  0  0  0
   -1.1875   -2.6030   -1.0623 H   0  0  0  0  0  0  0  0  0  0  0  0
   -3.2984   -0.1894    2.5716 H   0  0  0  0  0  0  0  0  0  0  0  0
   -3.1898    1.3701    1.5760 H   0  0  0  0  0  0  0  0  0  0  0  0
   -1.5924    1.8949    2.9023 H   0  0  0  0  0  0  0  0  0  0  0  0
  1  2  1  0
  2  3  3  0
  3  4  1  0
  4  5  1  0
  5  6  1  0
  6  7  3  0
  7  8  1  0
  8  9  1  0
  1 10  1  0
  1 11  1  0
  1 12  1  0
  4 13  1  0
  4 14  1  0
  5 15  1  0
  5 16  1  0
  8 17  1  0
  8 18  1  0
  9 19  1  0
M  END
