
     RDKit          3D

 19 19  0  0  0  0  0  0  0  0999 V2000
    3.8042    1.1609   -0.6954 C   0  0  0  0  0  0  0  0  0  0  0  0
    2.6026    0.3945   -0.3335 C   0  0  0  0  0  0  0  0  0  0  0  0
    1.6115   -0.2595   -0.0212 C   0  0  0  0  0  0  0  0  0  0  0  0
    0.4415   -1.0034    0.3348 C   0  0  0  0  0  0  0  0  0  0  0  0
    0.5282   -1.9628    1.1450 O   0  0  0  0  0  0  0  0  0  0  0  0
   -0.8676   -0.6677   -0.2301 C   0  0  0  0  0  0  0  0  0  0  0  0
   -1.3877    0.7179    0.0434 C   0  0  0  0  0  0  0  0  0  0  0  0
   -2.7530    0.0920    0.2970 C   0  0  0  0  0  0  0  0  0  0  0  0
   -2.0063   -1.2031    0.6180 C   0  0  0  0  0  0  0  0  0  0  0  0
    3.9817    1.1102   -1.8038 H   0  0  0  0  0  0  0  0  0  0  0  0
    4.7024    0.7876   -0.2061 H   0  0  0  0  0  0  0  0  0  0  0  0
    3.5782    2.2254   -0.4813 H   0  0  0  0  0  0  0  0  0  0  0  0
   -1.0306   -1.0076   -1.2821 H   0  0  0  0  0  0  0  0  0  0  0  0
   -0.9876    1.1347    0.9678 H   0  0  0  0  0  0  0  0  0  0  0  0
   -1.3986    1.3879   -0.8386 H   0  0  0  0  0  0  0  0  0  0  0  0
   -3.3456   -0.0518   -0.6320 H   0  0  0  0  0  0  0  0  0  0  0  0
   -3.2869    0.4634    1.1739 H   0  0  0  0  0  0  0  0  0  0  0  0
   -2.4795   -2.1166    0.2555 H   0  0  0  0  0  0  0  0  0  0  0  0
   -1.7069   -1.2020    1.6889 H   0  0  0  0  0  0  0  0  0  0  0  0
  1  2  1  0
  2  3  3  0
  3  4  1  0
  4  5  2  0
  4  6  1  0
  6  7  1  0
  7  8  1  0
  8  9  1  0
  9  6  1  0
  1 10  1  0
  1 11  1  0
  1 12  1  0
  6 13  1  0
  7 14  1  0
  7 15  1  0
  8 16  1  0
  8 17  1  0
  9 18  1  0
  9 19  1  0
M  END
