
     RDKit          3D

 17 16  0  0  0  0  0  0  0  0999 V2000
    2.4352   -1.9935   -3.6047 C   0  0  0  0  0  0  0  0  0  0  0  0
    1.5933   -1.5332   -2.5389 C   0  0  0  0  0  0  0  0  0  0  0  0
    0.7858   -1.1076   -1.5001 C   0  0  0  0  0  0  0  0  0  0  0  0
    0.1164   -0.7571   -0.6697 C   0  0  0  0  0  0  0  0  0  0  0  0
   -0.6934   -0.3445    0.3312 C   0  0  0  0  0  0  0  0  0  0  0  0
   -1.6054    0.1414    1.4456 C   0  0  0  0  0  0  0  0  0  0  0  0
   -0.8026    1.1891    2.1066 C   0  0  0  0  0  0  0  0  0  0  0  0
   -1.3668    2.2481    2.9774 C   0  0  0  0  0  0  0  0  0  0  0  0
    0.3986    1.1865    1.9087 O   0  0  0  0  0  0  0  0  0  0  0  0
    2.8885   -2.9691   -3.3037 H   0  0  0  0  0  0  0  0  0  0  0  0
    1.8349   -2.0941   -4.5707 H   0  0  0  0  0  0  0  0  0  0  0  0
    3.1962   -1.1963   -3.7663 H   0  0  0  0  0  0  0  0  0  0  0  0
   -1.6827   -0.7235    2.1754 H   0  0  0  0  0  0  0  0  0  0  0  0
   -2.5623    0.4319    1.0716 H   0  0  0  0  0  0  0  0  0  0  0  0
   -0.5714    2.5577    3.6850 H   0  0  0  0  0  0  0  0  0  0  0  0
   -1.7732    3.1198    2.3503 H   0  0  0  0  0  0  0  0  0  0  0  0
   -2.1912    1.8445    3.5713 H   0  0  0  0  0  0  0  0  0  0  0  0
  1  2  1  0
  2  3  3  0
  3  4  1  0
  4  5  3  0
  5  6  1  0
  6  7  1  0
  7  8  1  0
  7  9  2  0
  1 10  1  0
  1 11  1  0
  1 12  1  0
  6 13  1  0
  6 14  1  0
  8 15  1  0
  8 16  1  0
  8 17  1  0
M  END
