
     RDKit          3D

 22 21  0  0  0  0  0  0  0  0999 V2000
    3.4870   -0.0017   -1.1372 C   0  0  0  0  0  0  0  0  0  0  0  0
    2.0695   -0.3508   -1.2427 C   0  0  0  0  0  0  0  0  0  0  0  0
    0.8721   -0.6307   -1.3292 C   0  0  0  0  0  0  0  0  0  0  0  0
   -0.5272   -0.9832   -1.4356 C   0  0  0  0  0  0  0  0  0  0  0  0
   -1.2621   -0.8865   -0.1354 C   0  0  0  0  0  0  0  0  0  0  0  0
   -1.3082    0.4592    0.4923 C   0  0  0  0  0  0  0  0  0  0  0  0
    0.0049    1.0670    0.8431 C   0  0  0  0  0  0  0  0  0  0  0  0
   -2.1471    0.3604    1.7556 C   0  0  0  0  0  0  0  0  0  0  0  0
    3.6220    0.6632   -0.2343 H   0  0  0  0  0  0  0  0  0  0  0  0
    4.1213   -0.9050   -0.9896 H   0  0  0  0  0  0  0  0  0  0  0  0
    3.7689    0.5366   -2.0661 H   0  0  0  0  0  0  0  0  0  0  0  0
   -1.0328   -0.3003   -2.1621 H   0  0  0  0  0  0  0  0  0  0  0  0
   -0.6580   -2.0379   -1.8279 H   0  0  0  0  0  0  0  0  0  0  0  0
   -2.3298   -1.1970   -0.3328 H   0  0  0  0  0  0  0  0  0  0  0  0
   -0.9102   -1.6789    0.5902 H   0  0  0  0  0  0  0  0  0  0  0  0
   -1.8095    1.1458   -0.2406 H   0  0  0  0  0  0  0  0  0  0  0  0
   -0.1380    1.7726    1.7203 H   0  0  0  0  0  0  0  0  0  0  0  0
    0.4325    1.6617    0.0241 H   0  0  0  0  0  0  0  0  0  0  0  0
    0.7530    0.3269    1.1937 H   0  0  0  0  0  0  0  0  0  0  0  0
   -2.6112   -0.6448    1.8024 H   0  0  0  0  0  0  0  0  0  0  0  0
   -1.4598    0.4747    2.6135 H   0  0  0  0  0  0  0  0  0  0  0  0
   -2.9373    1.1485    1.7095 H   0  0  0  0  0  0  0  0  0  0  0  0
  1  2  1  0
  2  3  3  0
  3  4  1  0
  4  5  1  0
  5  6  1  0
  6  7  1  0
  6  8  1  0
  1  9  1  0
  1 10  1  0
  1 11  1  0
  4 12  1  0
  4 13  1  0
  5 14  1  0
  5 15  1  0
  6 16  1  0
  7 17  1  0
  7 18  1  0
  7 19  1  0
  8 20  1  0
  8 21  1  0
  8 22  1  0
M  END
