
     RDKit          3D

 21 21  0  0  0  0  0  0  0  0999 V2000
    3.6254    0.1598   -0.5146 C   0  0  0  0  0  0  0  0  0  0  0  0
    2.2057   -0.0190   -0.1764 C   0  0  0  0  0  0  0  0  0  0  0  0
    1.0462   -0.1822    0.1121 C   0  0  0  0  0  0  0  0  0  0  0  0
   -0.3762   -0.3585    0.4560 C   0  0  0  0  0  0  0  0  0  0  0  0
   -1.0728   -1.3503   -0.4405 C   0  0  0  0  0  0  0  0  0  0  0  0
   -0.6538   -0.5780    1.9067 C   0  0  0  0  0  0  0  0  0  0  0  0
   -1.6701    0.3412    1.8318 O   0  0  0  0  0  0  0  0  0  0  0  0
   -1.1147    0.9097    0.7151 C   0  0  0  0  0  0  0  0  0  0  0  0
   -2.0664    1.2520   -0.4065 C   0  0  0  0  0  0  0  0  0  0  0  0
    3.6788    0.2016   -1.6187 H   0  0  0  0  0  0  0  0  0  0  0  0
    4.0180    1.1284   -0.1372 H   0  0  0  0  0  0  0  0  0  0  0  0
    4.2324   -0.6342   -0.0631 H   0  0  0  0  0  0  0  0  0  0  0  0
   -2.0220   -1.6420    0.0713 H   0  0  0  0  0  0  0  0  0  0  0  0
   -0.4827   -2.2716   -0.5524 H   0  0  0  0  0  0  0  0  0  0  0  0
   -1.3787   -0.9063   -1.4066 H   0  0  0  0  0  0  0  0  0  0  0  0
   -0.9310   -1.6170    2.1567 H   0  0  0  0  0  0  0  0  0  0  0  0
    0.2197   -0.2380    2.5361 H   0  0  0  0  0  0  0  0  0  0  0  0
   -0.4154    1.7508    0.8737 H   0  0  0  0  0  0  0  0  0  0  0  0
   -2.8940    0.5237   -0.4829 H   0  0  0  0  0  0  0  0  0  0  0  0
   -2.4613    2.2723   -0.1873 H   0  0  0  0  0  0  0  0  0  0  0  0
   -1.4873    1.2577   -1.3496 H   0  0  0  0  0  0  0  0  0  0  0  0
  1  2  1  0
  2  3  3  0
  3  4  1  0
  4  5  1  0
  4  6  1  0
  6  7  1  0
  7  8  1  0
  8  9  1  0
  8  4  1  0
  1 10  1  0
  1 11  1  0
  1 12  1  0
  5 13  1  0
  5 14  1  0
  5 15  1  0
  6 16  1  0
  6 17  1  0
  8 18  1  0
  9 19  1  0
  9 20  1  0
  9 21  1  0
M  END
