
     RDKit          3D

 19 20  0  0  0  0  0  0  0  0999 V2000
    3.0726   -1.5111    2.3022 C   0  0  0  0  0  0  0  0  0  0  0  0
    2.1468   -0.6610    1.5514 C   0  0  0  0  0  0  0  0  0  0  0  0
    1.3807    0.0427    0.9052 C   0  0  0  0  0  0  0  0  0  0  0  0
    0.4545    0.8622    0.1245 C   0  0  0  0  0  0  0  0  0  0  0  0
   -0.8302    1.2160    0.7884 C   0  0  0  0  0  0  0  0  0  0  0  0
   -0.7653    0.1904   -0.3385 C   0  0  0  0  0  0  0  0  0  0  0  0
   -1.3831    0.5767   -1.6695 C   0  0  0  0  0  0  0  0  0  0  0  0
   -2.6126   -0.1043   -2.1303 C   0  0  0  0  0  0  0  0  0  0  0  0
   -1.3644   -0.4704   -2.5981 O   0  0  0  0  0  0  0  0  0  0  0  0
    3.9704   -1.7743    1.7059 H   0  0  0  0  0  0  0  0  0  0  0  0
    2.5754   -2.4423    2.6675 H   0  0  0  0  0  0  0  0  0  0  0  0
    3.3397   -0.9259    3.2232 H   0  0  0  0  0  0  0  0  0  0  0  0
    0.8909    1.6675   -0.5316 H   0  0  0  0  0  0  0  0  0  0  0  0
   -1.0902    0.8311    1.7918 H   0  0  0  0  0  0  0  0  0  0  0  0
   -1.3304    2.1790    0.5490 H   0  0  0  0  0  0  0  0  0  0  0  0
   -0.9590   -0.8782   -0.0359 H   0  0  0  0  0  0  0  0  0  0  0  0
   -1.1014    1.5616   -2.0815 H   0  0  0  0  0  0  0  0  0  0  0  0
   -3.1111   -0.8235   -1.4274 H   0  0  0  0  0  0  0  0  0  0  0  0
   -3.2833    0.4636   -2.8247 H   0  0  0  0  0  0  0  0  0  0  0  0
  1  2  1  0
  2  3  3  0
  3  4  1  0
  4  5  1  0
  5  6  1  0
  6  7  1  0
  7  8  1  0
  8  9  1  0
  6  4  1  0
  9  7  1  0
  1 10  1  0
  1 11  1  0
  1 12  1  0
  4 13  1  0
  5 14  1  0
  5 15  1  0
  6 16  1  0
  7 17  1  0
  8 18  1  0
  8 19  1  0
M  END
