
     RDKit          3D

 19 20  0  0  0  0  0  0  0  0999 V2000
    3.5035    0.8378   -0.7458 C   0  0  0  0  0  0  0  0  0  0  0  0
    2.0963    0.4384   -0.4581 C   0  0  0  0  0  0  0  0  0  0  0  0
    0.9668    0.1174   -0.2414 C   0  0  0  0  0  0  0  0  0  0  0  0
   -0.2965   -0.2187   -0.0075 C   0  0  0  0  0  0  0  0  0  0  0  0
   -0.7756   -1.5761    0.4520 C   0  0  0  0  0  0  0  0  0  0  0  0
   -2.0250   -0.7399    0.3541 C   0  0  0  0  0  0  0  0  0  0  0  0
   -1.4425   -0.2100   -0.9369 C   0  0  0  0  0  0  0  0  0  0  0  0
   -1.2072    0.3406    1.0335 C   0  0  0  0  0  0  0  0  0  0  0  0
   -1.6901    1.6182    0.8110 O   0  0  0  0  0  0  0  0  0  0  0  0
    3.6952    0.6919   -1.8477 H   0  0  0  0  0  0  0  0  0  0  0  0
    4.2180    0.2721   -0.1510 H   0  0  0  0  0  0  0  0  0  0  0  0
    3.6241    1.9366   -0.5437 H   0  0  0  0  0  0  0  0  0  0  0  0
   -0.4727   -1.8619    1.4841 H   0  0  0  0  0  0  0  0  0  0  0  0
   -0.6992   -2.3579   -0.3029 H   0  0  0  0  0  0  0  0  0  0  0  0
   -2.9643   -0.9994    0.5427 H   0  0  0  0  0  0  0  0  0  0  0  0
   -1.8332    0.7627   -1.2743 H   0  0  0  0  0  0  0  0  0  0  0  0
   -1.4631   -0.9507   -1.7559 H   0  0  0  0  0  0  0  0  0  0  0  0
   -0.8821    0.0963    2.0477 H   0  0  0  0  0  0  0  0  0  0  0  0
   -2.3525    1.8027    1.5401 H   0  0  0  0  0  0  0  0  0  0  0  0
  1  2  1  0
  2  3  3  0
  3  4  1  0
  4  5  1  0
  5  6  1  0
  6  7  1  0
  6  8  1  0
  8  9  1  0
  7  4  1  0
  8  4  1  0
  1 10  1  0
  1 11  1  0
  1 12  1  0
  5 13  1  0
  5 14  1  0
  6 15  1  0
  7 16  1  0
  7 17  1  0
  8 18  1  0
  9 19  1  0
M  END
