
     RDKit          3D

 19 19  0  0  0  0  0  0  0  0999 V2000
    2.9055    1.3323   -1.3245 C   0  0  0  0  0  0  0  0  0  0  0  0
    1.7105    0.6667   -0.8334 C   0  0  0  0  0  0  0  0  0  0  0  0
    0.6925    0.1032   -0.4221 C   0  0  0  0  0  0  0  0  0  0  0  0
   -0.5129   -0.5654    0.0920 C   0  0  0  0  0  0  0  0  0  0  0  0
   -1.1945    0.1797    1.1816 C   0  0  0  0  0  0  0  0  0  0  0  0
   -1.6535    1.5212    0.8096 C   0  0  0  0  0  0  0  0  0  0  0  0
   -1.4063    1.8549   -0.3649 O   0  0  0  0  0  0  0  0  0  0  0  0
   -0.4417   -2.1083    0.1597 C   0  0  0  0  0  0  0  0  0  0  0  0
   -1.3099   -1.4210   -0.8617 C   0  0  0  0  0  0  0  0  0  0  0  0
    2.6172    2.1563   -2.0110 H   0  0  0  0  0  0  0  0  0  0  0  0
    3.4750    1.6910   -0.4444 H   0  0  0  0  0  0  0  0  0  0  0  0
    3.5771    0.6525   -1.8922 H   0  0  0  0  0  0  0  0  0  0  0  0
   -2.0846   -0.4188    1.5290 H   0  0  0  0  0  0  0  0  0  0  0  0
   -0.5203    0.2442    2.0699 H   0  0  0  0  0  0  0  0  0  0  0  0
   -2.1658    2.2369    1.4057 H   0  0  0  0  0  0  0  0  0  0  0  0
    0.5367   -2.5319   -0.1785 H   0  0  0  0  0  0  0  0  0  0  0  0
   -0.9152   -2.6261    0.9944 H   0  0  0  0  0  0  0  0  0  0  0  0
   -0.9324   -1.3860   -1.9065 H   0  0  0  0  0  0  0  0  0  0  0  0
   -2.3774   -1.5813   -0.7349 H   0  0  0  0  0  0  0  0  0  0  0  0
  1  2  1  0
  2  3  3  0
  3  4  1  0
  4  5  1  0
  5  6  1  0
  6  7  2  0
  4  8  1  0
  8  9  1  0
  9  4  1  0
  1 10  1  0
  1 11  1  0
  1 12  1  0
  5 13  1  0
  5 14  1  0
  6 15  1  0
  8 16  1  0
  8 17  1  0
  9 18  1  0
  9 19  1  0
M  END
