
     RDKit          3D

 18 17  0  0  0  0  0  0  0  0999 V2000
    3.2625    1.4527    0.0311 C   0  0  0  0  0  0  0  0  0  0  0  0
    2.2635    0.3747    0.0925 C   0  0  0  0  0  0  0  0  0  0  0  0
    1.4486   -0.5213    0.1518 C   0  0  0  0  0  0  0  0  0  0  0  0
    0.4901   -1.5877    0.2199 C   0  0  0  0  0  0  0  0  0  0  0  0
    0.8385   -2.7903    0.3466 O   0  0  0  0  0  0  0  0  0  0  0  0
   -0.9612   -1.3024    0.1421 C   0  0  0  0  0  0  0  0  0  0  0  0
   -1.2495    0.1652   -0.0079 C   0  0  0  0  0  0  0  0  0  0  0  0
   -2.7611    0.3170   -0.0751 C   0  0  0  0  0  0  0  0  0  0  0  0
    4.2993    1.0563    0.0242 H   0  0  0  0  0  0  0  0  0  0  0  0
    3.0296    2.0372   -0.8823 H   0  0  0  0  0  0  0  0  0  0  0  0
    3.1499    2.0814    0.9417 H   0  0  0  0  0  0  0  0  0  0  0  0
   -1.3932   -1.6095    1.1338 H   0  0  0  0  0  0  0  0  0  0  0  0
   -1.4873   -1.9230   -0.6103 H   0  0  0  0  0  0  0  0  0  0  0  0
   -0.8532    0.6614    0.9188 H   0  0  0  0  0  0  0  0  0  0  0  0
   -0.7524    0.5645   -0.9088 H   0  0  0  0  0  0  0  0  0  0  0  0
   -3.1035    0.4782    0.9669 H   0  0  0  0  0  0  0  0  0  0  0  0
   -3.2105   -0.6291   -0.4452 H   0  0  0  0  0  0  0  0  0  0  0  0
   -3.0102    1.1747   -0.7394 H   0  0  0  0  0  0  0  0  0  0  0  0
  1  2  1  0
  2  3  3  0
  3  4  1  0
  4  5  2  0
  4  6  1  0
  6  7  1  0
  7  8  1  0
  1  9  1  0
  1 10  1  0
  1 11  1  0
  6 12  1  0
  6 13  1  0
  7 14  1  0
  7 15  1  0
  8 16  1  0
  8 17  1  0
  8 18  1  0
M  END
