
     RDKit          3D

 17 18  0  0  0  0  0  0  0  0999 V2000
   -2.0121    0.5177   -2.8491 C   0  0  0  0  0  0  0  0  0  0  0  0
   -1.2804    0.3151   -1.5733 C   0  0  0  0  0  0  0  0  0  0  0  0
   -0.6750    0.1646   -0.5504 C   0  0  0  0  0  0  0  0  0  0  0  0
    0.0522   -0.0390    0.7120 C   0  0  0  0  0  0  0  0  0  0  0  0
    0.9540    1.0531    1.1567 C   0  0  0  0  0  0  0  0  0  0  0  0
    2.0709    0.0876    1.4442 C   0  0  0  0  0  0  0  0  0  0  0  0
    3.1266    0.1205    2.0509 O   0  0  0  0  0  0  0  0  0  0  0  0
    1.2916   -0.9185    0.6486 C   0  0  0  0  0  0  0  0  0  0  0  0
    0.0599   -1.3943    1.3004 C   0  0  0  0  0  0  0  0  0  0  0  0
   -2.8209   -0.2389   -2.9394 H   0  0  0  0  0  0  0  0  0  0  0  0
   -1.3558    0.4100   -3.7125 H   0  0  0  0  0  0  0  0  0  0  0  0
   -2.5064    1.5292   -2.8296 H   0  0  0  0  0  0  0  0  0  0  0  0
    1.2582    1.6897    0.2976 H   0  0  0  0  0  0  0  0  0  0  0  0
    0.6322    1.6391    2.0376 H   0  0  0  0  0  0  0  0  0  0  0  0
    1.6340   -1.2232   -0.3338 H   0  0  0  0  0  0  0  0  0  0  0  0
   -0.5506   -2.1477    0.7614 H   0  0  0  0  0  0  0  0  0  0  0  0
    0.1217   -1.5648    2.3927 H   0  0  0  0  0  0  0  0  0  0  0  0
  1  2  1  0
  2  3  3  0
  3  4  1  0
  4  5  1  0
  5  6  1  0
  6  7  2  0
  6  8  1  0
  8  9  1  0
  8  4  1  0
  9  4  1  0
  1 10  1  0
  1 11  1  0
  1 12  1  0
  5 13  1  0
  5 14  1  0
  8 15  1  0
  9 16  1  0
  9 17  1  0
M  END
