
     RDKit          3D

 21 21  0  0  0  0  0  0  0  0999 V2000
    4.6760    0.1326    1.2097 C   0  0  0  0  0  0  0  0  0  0  0  0
    3.3686    0.2622    0.5615 C   0  0  0  0  0  0  0  0  0  0  0  0
    2.2919    0.3731    0.0043 C   0  0  0  0  0  0  0  0  0  0  0  0
    0.9994    0.4908   -0.6870 C   0  0  0  0  0  0  0  0  0  0  0  0
    0.0922   -0.3094   -0.0083 O   0  0  0  0  0  0  0  0  0  0  0  0
   -1.1530   -0.2156   -0.6480 C   0  0  0  0  0  0  0  0  0  0  0  0
   -2.0077   -1.4359   -0.7089 C   0  0  0  0  0  0  0  0  0  0  0  0
   -2.3899   -0.3542    0.2211 C   0  0  0  0  0  0  0  0  0  0  0  0
   -3.5272    0.5686   -0.1581 C   0  0  0  0  0  0  0  0  0  0  0  0
    5.3094   -0.6088    0.6884 H   0  0  0  0  0  0  0  0  0  0  0  0
    5.1884    1.1279    1.1136 H   0  0  0  0  0  0  0  0  0  0  0  0
    4.4823   -0.1282    2.2742 H   0  0  0  0  0  0  0  0  0  0  0  0
    1.0918    0.1512   -1.7598 H   0  0  0  0  0  0  0  0  0  0  0  0
    0.6691    1.5631   -0.6588 H   0  0  0  0  0  0  0  0  0  0  0  0
   -1.2202    0.4506   -1.5536 H   0  0  0  0  0  0  0  0  0  0  0  0
   -2.6948   -1.5781   -1.5909 H   0  0  0  0  0  0  0  0  0  0  0  0
   -1.6010   -2.3863   -0.2805 H   0  0  0  0  0  0  0  0  0  0  0  0
   -2.2287   -0.5234    1.3001 H   0  0  0  0  0  0  0  0  0  0  0  0
   -4.0368    0.9113    0.7579 H   0  0  0  0  0  0  0  0  0  0  0  0
   -4.2039    0.0563   -0.8543 H   0  0  0  0  0  0  0  0  0  0  0  0
   -3.1057    1.4523   -0.6866 H   0  0  0  0  0  0  0  0  0  0  0  0
  1  2  1  0
  2  3  3  0
  3  4  1  0
  4  5  1  0
  5  6  1  0
  6  7  1  0
  7  8  1  0
  8  9  1  0
  8  6  1  0
  1 10  1  0
  1 11  1  0
  1 12  1  0
  4 13  1  0
  4 14  1  0
  6 15  1  0
  7 16  1  0
  7 17  1  0
  8 18  1  0
  9 19  1  0
  9 20  1  0
  9 21  1  0
M  END
