
     RDKit          3D

 21 22  0  0  0  0  0  0  0  0999 V2000
    4.2145    0.7729   -0.3929 C   0  0  0  0  0  0  0  0  0  0  0  0
    2.8359    0.3909   -0.0789 C   0  0  0  0  0  0  0  0  0  0  0  0
    1.6858    0.0911    0.1786 C   0  0  0  0  0  0  0  0  0  0  0  0
    0.3008   -0.2448    0.4952 C   0  0  0  0  0  0  0  0  0  0  0  0
   -0.1016   -1.6334    0.1111 C   0  0  0  0  0  0  0  0  0  0  0  0
   -0.6401   -0.3890   -0.6253 C   0  0  0  0  0  0  0  0  0  0  0  0
   -2.1149   -0.1892   -0.4688 C   0  0  0  0  0  0  0  0  0  0  0  0
   -2.6791    1.1065   -0.0097 C   0  0  0  0  0  0  0  0  0  0  0  0
   -2.7271   -0.0798    0.8826 C   0  0  0  0  0  0  0  0  0  0  0  0
    4.5973    0.1541   -1.2331 H   0  0  0  0  0  0  0  0  0  0  0  0
    4.2813    1.8336   -0.7255 H   0  0  0  0  0  0  0  0  0  0  0  0
    4.8811    0.6678    0.4724 H   0  0  0  0  0  0  0  0  0  0  0  0
   -0.0673    0.1616    1.4516 H   0  0  0  0  0  0  0  0  0  0  0  0
    0.5652   -2.2615   -0.5195 H   0  0  0  0  0  0  0  0  0  0  0  0
   -0.7716   -2.1513    0.8072 H   0  0  0  0  0  0  0  0  0  0  0  0
   -0.2425   -0.1863   -1.6348 H   0  0  0  0  0  0  0  0  0  0  0  0
   -2.7126   -0.7433   -1.2467 H   0  0  0  0  0  0  0  0  0  0  0  0
   -1.9982    1.9346    0.3200 H   0  0  0  0  0  0  0  0  0  0  0  0
   -3.5641    1.4850   -0.5411 H   0  0  0  0  0  0  0  0  0  0  0  0
   -3.6689   -0.6431    1.0465 H   0  0  0  0  0  0  0  0  0  0  0  0
   -2.0738   -0.0763    1.7813 H   0  0  0  0  0  0  0  0  0  0  0  0
  1  2  1  0
  2  3  3  0
  3  4  1  0
  4  5  1  0
  5  6  1  0
  6  7  1  0
  7  8  1  0
  8  9  1  0
  6  4  1  0
  9  7  1  0
  1 10  1  0
  1 11  1  0
  1 12  1  0
  4 13  1  0
  5 14  1  0
  5 15  1  0
  6 16  1  0
  7 17  1  0
  8 18  1  0
  8 19  1  0
  9 20  1  0
  9 21  1  0
M  END
