
     RDKit          3D

 17 17  0  0  0  0  0  0  0  0999 V2000
    2.1541    2.1918    0.6335 C   0  0  0  0  0  0  0  0  0  0  0  0
    0.8113    1.4860    0.0263 C   0  0  0  0  0  0  0  0  0  0  0  0
   -0.3200    0.8718   -0.5073 C   0  0  0  0  0  0  0  0  0  0  0  0
   -1.4438    0.2559   -1.0430 C   0  0  0  0  0  0  0  0  0  0  0  0
   -1.4586   -1.0681   -0.1557 C   0  0  0  0  0  0  0  0  0  0  0  0
   -0.0420   -1.7725   -0.5004 C   0  0  0  0  0  0  0  0  0  0  0  0
   -0.2904   -2.3411    0.7980 O   0  0  0  0  0  0  0  0  0  0  0  0
   -0.7908   -0.9935    1.0784 C   0  0  0  0  0  0  0  0  0  0  0  0
   -0.4238   -0.4487    2.1963 O   0  0  0  0  0  0  0  0  0  0  0  0
    2.0563    3.1293    0.1386 H   0  0  0  0  0  0  0  0  0  0  0  0
    2.0135    2.0190    1.6471 H   0  0  0  0  0  0  0  0  0  0  0  0
    2.8680    1.4144    0.1914 H   0  0  0  0  0  0  0  0  0  0  0  0
   -1.1602   -0.1657   -2.0587 H   0  0  0  0  0  0  0  0  0  0  0  0
   -2.3405    0.7587   -0.9565 H   0  0  0  0  0  0  0  0  0  0  0  0
   -2.1833   -1.8051   -0.4545 H   0  0  0  0  0  0  0  0  0  0  0  0
    0.7285   -1.0345   -0.5365 H   0  0  0  0  0  0  0  0  0  0  0  0
   -0.1785   -2.4977   -1.2965 H   0  0  0  0  0  0  0  0  0  0  0  0
  1  2  1  0
  2  3  3  0
  3  4  1  0
  4  5  1  0
  5  6  1  0
  6  7  1  0
  7  8  1  0
  8  9  2  0
  8  5  1  0
  1 10  1  0
  1 11  1  0
  1 12  1  0
  4 13  1  0
  4 14  1  0
  5 15  1  0
  6 16  1  0
  6 17  1  0
M  END
