
     RDKit          3D

 21 20  0  0  0  0  0  0  0  0999 V2000
   -2.9645    2.6133   -0.2926 C   0  0  0  0  0  0  0  0  0  0  0  0
   -2.0298    1.7426    0.0254 C   0  0  0  0  0  0  0  0  0  0  0  0
   -1.0721    0.8263    0.3710 C   0  0  0  0  0  0  0  0  0  0  0  0
   -0.1033   -0.1245    0.7431 C   0  0  0  0  0  0  0  0  0  0  0  0
    1.3100    0.0326    0.1281 C   0  0  0  0  0  0  0  0  0  0  0  0
    2.2805    0.1556   -0.2919 C   0  0  0  0  0  0  0  0  0  0  0  0
    3.7059    0.3154   -0.9277 C   0  0  0  0  0  0  0  0  0  0  0  0
   -0.6303   -1.4238   -0.0962 C   0  0  0  0  0  0  0  0  0  0  0  0
   -0.0847   -2.6307    0.5154 C   0  0  0  0  0  0  0  0  0  0  0  0
   -3.4368    2.6100   -1.3281 H   0  0  0  0  0  0  0  0  0  0  0  0
   -3.8056    2.6785    0.5324 H   0  0  0  0  0  0  0  0  0  0  0  0
   -2.5739    3.7264   -0.1636 H   0  0  0  0  0  0  0  0  0  0  0  0
   -0.0409   -0.4276    1.7502 H   0  0  0  0  0  0  0  0  0  0  0  0
    3.6106    0.5621   -1.9626 H   0  0  0  0  0  0  0  0  0  0  0  0
    4.2887   -0.4789   -0.5431 H   0  0  0  0  0  0  0  0  0  0  0  0
    3.9961    1.3738   -0.4100 H   0  0  0  0  0  0  0  0  0  0  0  0
   -0.2445   -1.2540   -1.1354 H   0  0  0  0  0  0  0  0  0  0  0  0
   -1.6980   -1.3798   -0.1468 H   0  0  0  0  0  0  0  0  0  0  0  0
   -0.2485   -3.5329   -0.0585 H   0  0  0  0  0  0  0  0  0  0  0  0
   -1.0142   -2.7935    1.3818 H   0  0  0  0  0  0  0  0  0  0  0  0
    0.7553   -2.5909    1.1653 H   0  0  0  0  0  0  0  0  0  0  0  0
  1  2  1  0
  2  3  3  0
  3  4  1  0
  4  5  1  0
  5  6  3  0
  6  7  1  0
  4  8  1  0
  8  9  1  0
  1 10  1  0
  1 11  1  0
  1 12  1  0
  4 13  1  0
  7 14  1  0
  7 15  1  0
  7 16  1  0
  8 17  1  0
  8 18  1  0
  9 19  1  0
  9 20  1  0
  9 21  1  0
M  END
