
     RDKit          3D

 21 20  0  0  0  0  0  0  0  0999 V2000
    3.5902    0.7460    0.2032 C   0  0  0  0  0  0  0  0  0  0  0  0
    2.3098    0.1385   -0.1639 C   0  0  0  0  0  0  0  0  0  0  0  0
    1.2570   -0.3780   -0.4527 C   0  0  0  0  0  0  0  0  0  0  0  0
   -0.0333   -1.0150   -0.7812 C   0  0  0  0  0  0  0  0  0  0  0  0
    0.0450   -2.3637   -0.4390 O   0  0  0  0  0  0  0  0  0  0  0  0
   -1.1565   -0.3218   -0.0286 C   0  0  0  0  0  0  0  0  0  0  0  0
   -2.4523   -0.9997   -0.4714 C   0  0  0  0  0  0  0  0  0  0  0  0
   -1.1908    1.0035   -0.4014 O   0  0  0  0  0  0  0  0  0  0  0  0
   -1.0821    1.8810    0.6581 C   0  0  0  0  0  0  0  0  0  0  0  0
    3.7911    0.5857    1.2875 H   0  0  0  0  0  0  0  0  0  0  0  0
    3.5683    1.8589    0.0593 H   0  0  0  0  0  0  0  0  0  0  0  0
    4.4344    0.3382   -0.4097 H   0  0  0  0  0  0  0  0  0  0  0  0
   -0.2530   -0.9690   -1.8655 H   0  0  0  0  0  0  0  0  0  0  0  0
   -0.3498   -2.9362   -1.1444 H   0  0  0  0  0  0  0  0  0  0  0  0
   -1.0472   -0.4501    1.0601 H   0  0  0  0  0  0  0  0  0  0  0  0
   -3.2862   -0.5625    0.0835 H   0  0  0  0  0  0  0  0  0  0  0  0
   -2.5638   -0.9557   -1.5640 H   0  0  0  0  0  0  0  0  0  0  0  0
   -2.3964   -2.0949   -0.2110 H   0  0  0  0  0  0  0  0  0  0  0  0
   -1.1229    2.9133    0.2264 H   0  0  0  0  0  0  0  0  0  0  0  0
   -0.1197    1.7858    1.2136 H   0  0  0  0  0  0  0  0  0  0  0  0
   -1.9419    1.7960    1.3603 H   0  0  0  0  0  0  0  0  0  0  0  0
  1  2  1  0
  2  3  3  0
  3  4  1  0
  4  5  1  0
  4  6  1  0
  6  7  1  0
  6  8  1  0
  8  9  1  0
  1 10  1  0
  1 11  1  0
  1 12  1  0
  4 13  1  0
  5 14  1  0
  6 15  1  0
  7 16  1  0
  7 17  1  0
  7 18  1  0
  9 19  1  0
  9 20  1  0
  9 21  1  0
M  END
