
     RDKit          3D

 21 20  0  0  0  0  0  0  0  0999 V2000
    3.5155    0.9353   -1.1590 C   0  0  0  0  0  0  0  0  0  0  0  0
    2.1527    0.3944   -1.2739 C   0  0  0  0  0  0  0  0  0  0  0  0
    1.0345   -0.0585   -1.3503 C   0  0  0  0  0  0  0  0  0  0  0  0
   -0.3223   -0.5815   -1.4488 C   0  0  0  0  0  0  0  0  0  0  0  0
   -1.0428   -0.3161   -0.1701 C   0  0  0  0  0  0  0  0  0  0  0  0
   -1.1275    1.1645    0.1466 C   0  0  0  0  0  0  0  0  0  0  0  0
   -1.8854    1.3572    1.2997 O   0  0  0  0  0  0  0  0  0  0  0  0
   -0.4474   -0.9932    0.8778 O   0  0  0  0  0  0  0  0  0  0  0  0
   -1.3980   -1.8826    1.4066 C   0  0  0  0  0  0  0  0  0  0  0  0
    3.7687    1.2280   -0.1297 H   0  0  0  0  0  0  0  0  0  0  0  0
    4.2487    0.1640   -1.4716 H   0  0  0  0  0  0  0  0  0  0  0  0
    3.6262    1.8607   -1.7841 H   0  0  0  0  0  0  0  0  0  0  0  0
   -0.2912   -1.6845   -1.5938 H   0  0  0  0  0  0  0  0  0  0  0  0
   -0.8703   -0.1784   -2.3246 H   0  0  0  0  0  0  0  0  0  0  0  0
   -2.1124   -0.6458   -0.3252 H   0  0  0  0  0  0  0  0  0  0  0  0
   -0.0901    1.5038    0.3481 H   0  0  0  0  0  0  0  0  0  0  0  0
   -1.6134    1.7136   -0.6719 H   0  0  0  0  0  0  0  0  0  0  0  0
   -2.0669    2.3458    1.3364 H   0  0  0  0  0  0  0  0  0  0  0  0
   -1.0151   -2.4665    2.2465 H   0  0  0  0  0  0  0  0  0  0  0  0
   -1.7743   -2.5706    0.5978 H   0  0  0  0  0  0  0  0  0  0  0  0
   -2.2892   -1.2893    1.7232 H   0  0  0  0  0  0  0  0  0  0  0  0
  1  2  1  0
  2  3  3  0
  3  4  1  0
  4  5  1  0
  5  6  1  0
  6  7  1  0
  5  8  1  0
  8  9  1  0
  1 10  1  0
  1 11  1  0
  1 12  1  0
  4 13  1  0
  4 14  1  0
  5 15  1  0
  6 16  1  0
  6 17  1  0
  7 18  1  0
  9 19  1  0
  9 20  1  0
  9 21  1  0
M  END
