
     RDKit          3D

 20 20  0  0  0  0  0  0  0  0999 V2000
    3.2172    0.9330   -0.7837 C   0  0  0  0  0  0  0  0  0  0  0  0
    1.9167    0.3413   -0.4529 C   0  0  0  0  0  0  0  0  0  0  0  0
    0.8424   -0.1614   -0.1607 C   0  0  0  0  0  0  0  0  0  0  0  0
   -0.4551   -0.7431    0.1985 C   0  0  0  0  0  0  0  0  0  0  0  0
   -0.6249   -2.2427    0.0266 C   0  0  0  0  0  0  0  0  0  0  0  0
   -1.0869   -0.1588    1.5021 C   0  0  0  0  0  0  0  0  0  0  0  0
   -1.6222    0.1309    0.1404 C   0  0  0  0  0  0  0  0  0  0  0  0
   -1.5391    1.5127   -0.4273 C   0  0  0  0  0  0  0  0  0  0  0  0
    3.9708    0.7224    0.0054 H   0  0  0  0  0  0  0  0  0  0  0  0
    3.6252    0.5110   -1.7414 H   0  0  0  0  0  0  0  0  0  0  0  0
    3.0739    2.0310   -0.8480 H   0  0  0  0  0  0  0  0  0  0  0  0
    0.3872   -2.6705   -0.1104 H   0  0  0  0  0  0  0  0  0  0  0  0
   -1.0659   -2.7043    0.9504 H   0  0  0  0  0  0  0  0  0  0  0  0
   -1.3250   -2.4762   -0.7877 H   0  0  0  0  0  0  0  0  0  0  0  0
   -0.4563    0.5591    2.0469 H   0  0  0  0  0  0  0  0  0  0  0  0
   -1.5887   -0.8937    2.1649 H   0  0  0  0  0  0  0  0  0  0  0  0
   -2.6101   -0.3816   -0.0587 H   0  0  0  0  0  0  0  0  0  0  0  0
   -0.5669    1.7513   -0.8987 H   0  0  0  0  0  0  0  0  0  0  0  0
   -2.3064    1.6505   -1.2413 H   0  0  0  0  0  0  0  0  0  0  0  0
   -1.7858    2.2891    0.3274 H   0  0  0  0  0  0  0  0  0  0  0  0
  1  2  1  0
  2  3  3  0
  3  4  1  0
  4  5  1  0
  4  6  1  0
  6  7  1  0
  7  8  1  0
  7  4  1  0
  1  9  1  0
  1 10  1  0
  1 11  1  0
  5 12  1  0
  5 13  1  0
  5 14  1  0
  6 15  1  0
  6 16  1  0
  7 17  1  0
  8 18  1  0
  8 19  1  0
  8 20  1  0
M  END
