
     RDKit          3D

 16 15  0  0  0  0  0  0  0  0999 V2000
    3.1094    0.3761   -0.5023 C   0  0  0  0  0  0  0  0  0  0  0  0
    1.6672    0.3051   -0.2862 C   0  0  0  0  0  0  0  0  0  0  0  0
    0.4627    0.2378   -0.0996 C   0  0  0  0  0  0  0  0  0  0  0  0
   -0.9869    0.1814    0.1241 C   0  0  0  0  0  0  0  0  0  0  0  0
   -1.3704   -1.1440    0.7228 C   0  0  0  0  0  0  0  0  0  0  0  0
   -1.3440    1.2570    0.9500 O   0  0  0  0  0  0  0  0  0  0  0  0
   -1.6398    0.3112   -1.2107 C   0  0  0  0  0  0  0  0  0  0  0  0
   -2.3619    1.2380   -1.4739 O   0  0  0  0  0  0  0  0  0  0  0  0
    3.4201    1.4036   -0.1838 H   0  0  0  0  0  0  0  0  0  0  0  0
    3.3651    0.1878   -1.5730 H   0  0  0  0  0  0  0  0  0  0  0  0
    3.5706   -0.4075    0.1493 H   0  0  0  0  0  0  0  0  0  0  0  0
   -2.0669   -1.6939    0.0559 H   0  0  0  0  0  0  0  0  0  0  0  0
   -0.4619   -1.7746    0.8204 H   0  0  0  0  0  0  0  0  0  0  0  0
   -1.8432   -1.0591    1.7127 H   0  0  0  0  0  0  0  0  0  0  0  0
   -2.0857    1.0450    1.5501 H   0  0  0  0  0  0  0  0  0  0  0  0
   -1.4344   -0.4638   -1.9283 H   0  0  0  0  0  0  0  0  0  0  0  0
  1  2  1  0
  2  3  3  0
  3  4  1  0
  4  5  1  0
  4  6  1  0
  4  7  1  0
  7  8  2  0
  1  9  1  0
  1 10  1  0
  1 11  1  0
  5 12  1  0
  5 13  1  0
  5 14  1  0
  6 15  1  0
  7 16  1  0
M  END
