
     RDKit          3D

 17 18  0  0  0  0  0  0  0  0999 V2000
    4.0432    0.0625    0.3808 C   0  0  0  0  0  0  0  0  0  0  0  0
    2.6363    0.0200   -0.0729 C   0  0  0  0  0  0  0  0  0  0  0  0
    1.4830   -0.0294   -0.4294 C   0  0  0  0  0  0  0  0  0  0  0  0
    0.0856   -0.0923   -0.8591 C   0  0  0  0  0  0  0  0  0  0  0  0
   -0.5994    1.2390   -0.7780 O   0  0  0  0  0  0  0  0  0  0  0  0
   -0.9360    0.1059    0.1173 C   0  0  0  0  0  0  0  0  0  0  0  0
   -2.3875   -0.2591   -0.1360 C   0  0  0  0  0  0  0  0  0  0  0  0
   -3.4388    0.0085    0.8436 C   0  0  0  0  0  0  0  0  0  0  0  0
   -2.9028   -1.3219    0.6240 O   0  0  0  0  0  0  0  0  0  0  0  0
    4.2325    0.9817    0.9857 H   0  0  0  0  0  0  0  0  0  0  0  0
    4.7414    0.1104   -0.4752 H   0  0  0  0  0  0  0  0  0  0  0  0
    4.2169   -0.8578    0.9531 H   0  0  0  0  0  0  0  0  0  0  0  0
   -0.0571   -0.5712   -1.8302 H   0  0  0  0  0  0  0  0  0  0  0  0
   -0.6917    0.3025    1.1653 H   0  0  0  0  0  0  0  0  0  0  0  0
   -2.7085   -0.2535   -1.2188 H   0  0  0  0  0  0  0  0  0  0  0  0
   -4.4728    0.1684    0.5014 H   0  0  0  0  0  0  0  0  0  0  0  0
   -3.2444    0.3862    1.8582 H   0  0  0  0  0  0  0  0  0  0  0  0
  1  2  1  0
  2  3  3  0
  3  4  1  0
  4  5  1  0
  5  6  1  0
  6  7  1  0
  7  8  1  0
  8  9  1  0
  6  4  1  0
  9  7  1  0
  1 10  1  0
  1 11  1  0
  1 12  1  0
  4 13  1  0
  6 14  1  0
  7 15  1  0
  8 16  1  0
  8 17  1  0
M  END
