
     RDKit          3D

 18 17  0  0  0  0  0  0  0  0999 V2000
    3.4244   -1.2630    0.2883 C   0  0  0  0  0  0  0  0  0  0  0  0
    2.0767   -0.8161   -0.1253 C   0  0  0  0  0  0  0  0  0  0  0  0
    0.9722   -0.4472   -0.4474 C   0  0  0  0  0  0  0  0  0  0  0  0
   -0.3699   -0.0156   -0.8235 C   0  0  0  0  0  0  0  0  0  0  0  0
   -0.4111    1.3247   -1.1729 O   0  0  0  0  0  0  0  0  0  0  0  0
   -1.2918   -0.2816    0.3671 C   0  0  0  0  0  0  0  0  0  0  0  0
   -2.6843    0.1513   -0.0717 C   0  0  0  0  0  0  0  0  0  0  0  0
   -0.8911    0.4785    1.4633 O   0  0  0  0  0  0  0  0  0  0  0  0
    4.2074   -0.8393   -0.3618 H   0  0  0  0  0  0  0  0  0  0  0  0
    3.5168   -2.3755    0.2204 H   0  0  0  0  0  0  0  0  0  0  0  0
    3.6115   -0.9539    1.3262 H   0  0  0  0  0  0  0  0  0  0  0  0
   -0.6843   -0.6130   -1.7018 H   0  0  0  0  0  0  0  0  0  0  0  0
    0.2866    1.8241   -0.6624 H   0  0  0  0  0  0  0  0  0  0  0  0
   -1.2598   -1.3330    0.6743 H   0  0  0  0  0  0  0  0  0  0  0  0
   -3.0932   -0.6009   -0.7837 H   0  0  0  0  0  0  0  0  0  0  0  0
   -3.3039    0.2568    0.8389 H   0  0  0  0  0  0  0  0  0  0  0  0
   -2.5901    1.1314   -0.5792 H   0  0  0  0  0  0  0  0  0  0  0  0
   -1.5161    1.2546    1.5512 H   0  0  0  0  0  0  0  0  0  0  0  0
  1  2  1  0
  2  3  3  0
  3  4  1  0
  4  5  1  0
  4  6  1  0
  6  7  1  0
  6  8  1  0
  1  9  1  0
  1 10  1  0
  1 11  1  0
  4 12  1  0
  5 13  1  0
  6 14  1  0
  7 15  1  0
  7 16  1  0
  7 17  1  0
  8 18  1  0
M  END
