
     RDKit          3D

 23 22  0  0  0  0  0  0  0  0999 V2000
    3.5312   -1.0016    0.2364 C   0  0  0  0  0  0  0  0  0  0  0  0
    2.2757   -0.2545    0.1809 C   0  0  0  0  0  0  0  0  0  0  0  0
    1.2411    0.3442    0.1503 C   0  0  0  0  0  0  0  0  0  0  0  0
    0.0014    1.0781    0.1185 C   0  0  0  0  0  0  0  0  0  0  0  0
   -0.4782    1.3926    1.5103 C   0  0  0  0  0  0  0  0  0  0  0  0
   -1.0526    0.2641   -0.6438 C   0  0  0  0  0  0  0  0  0  0  0  0
   -2.3177    1.1172   -0.6229 C   0  0  0  0  0  0  0  0  0  0  0  0
   -1.2036   -0.9269    0.0142 O   0  0  0  0  0  0  0  0  0  0  0  0
   -0.9102   -2.0418   -0.7662 C   0  0  0  0  0  0  0  0  0  0  0  0
    4.3457   -0.3464   -0.1400 H   0  0  0  0  0  0  0  0  0  0  0  0
    3.4807   -1.9541   -0.3171 H   0  0  0  0  0  0  0  0  0  0  0  0
    3.7986   -1.2074    1.3117 H   0  0  0  0  0  0  0  0  0  0  0  0
    0.1910    2.0430   -0.4017 H   0  0  0  0  0  0  0  0  0  0  0  0
    0.3199    1.1641    2.2603 H   0  0  0  0  0  0  0  0  0  0  0  0
   -0.8147    2.4653    1.6057 H   0  0  0  0  0  0  0  0  0  0  0  0
   -1.3543    0.7757    1.8161 H   0  0  0  0  0  0  0  0  0  0  0  0
   -0.7199    0.1557   -1.6956 H   0  0  0  0  0  0  0  0  0  0  0  0
   -2.8974    0.9978   -1.5648 H   0  0  0  0  0  0  0  0  0  0  0  0
   -2.9266    0.9148    0.2827 H   0  0  0  0  0  0  0  0  0  0  0  0
   -2.0407    2.1962   -0.5724 H   0  0  0  0  0  0  0  0  0  0  0  0
    0.1411   -2.0261   -1.1317 H   0  0  0  0  0  0  0  0  0  0  0  0
   -1.6475   -2.2236   -1.5567 H   0  0  0  0  0  0  0  0  0  0  0  0
   -0.9633   -2.9264   -0.0744 H   0  0  0  0  0  0  0  0  0  0  0  0
  1  2  1  0
  2  3  3  0
  3  4  1  0
  4  5  1  0
  4  6  1  0
  6  7  1  0
  6  8  1  0
  8  9  1  0
  1 10  1  0
  1 11  1  0
  1 12  1  0
  4 13  1  0
  5 14  1  0
  5 15  1  0
  5 16  1  0
  6 17  1  0
  7 18  1  0
  7 19  1  0
  7 20  1  0
  9 21  1  0
  9 22  1  0
  9 23  1  0
M  END
