
     RDKit          3D

 23 22  0  0  0  0  0  0  0  0999 V2000
    3.8532    0.0401   -0.1368 C   0  0  0  0  0  0  0  0  0  0  0  0
    2.4456   -0.2234   -0.5165 C   0  0  0  0  0  0  0  0  0  0  0  0
    1.3037   -0.4250   -0.8419 C   0  0  0  0  0  0  0  0  0  0  0  0
   -0.0833   -0.6467   -1.2476 C   0  0  0  0  0  0  0  0  0  0  0  0
   -0.9659   -0.1529   -0.1500 C   0  0  0  0  0  0  0  0  0  0  0  0
   -2.4080   -0.4001   -0.6075 C   0  0  0  0  0  0  0  0  0  0  0  0
   -0.6989   -0.8817    1.1520 C   0  0  0  0  0  0  0  0  0  0  0  0
   -0.7930    1.3318    0.0864 C   0  0  0  0  0  0  0  0  0  0  0  0
   -1.6494    1.7209    1.1256 O   0  0  0  0  0  0  0  0  0  0  0  0
    4.0944   -0.6244    0.7396 H   0  0  0  0  0  0  0  0  0  0  0  0
    4.5503   -0.2952   -0.9487 H   0  0  0  0  0  0  0  0  0  0  0  0
    4.0003    1.1024    0.1237 H   0  0  0  0  0  0  0  0  0  0  0  0
   -0.3388   -0.1210   -2.1809 H   0  0  0  0  0  0  0  0  0  0  0  0
   -0.2864   -1.7470   -1.3617 H   0  0  0  0  0  0  0  0  0  0  0  0
   -2.4687   -1.3894   -1.1435 H   0  0  0  0  0  0  0  0  0  0  0  0
   -2.6462    0.3596   -1.3784 H   0  0  0  0  0  0  0  0  0  0  0  0
   -3.0985   -0.4225    0.2361 H   0  0  0  0  0  0  0  0  0  0  0  0
   -1.5596   -0.7007    1.8545 H   0  0  0  0  0  0  0  0  0  0  0  0
   -0.6441   -1.9661    0.9158 H   0  0  0  0  0  0  0  0  0  0  0  0
    0.2545   -0.5215    1.5613 H   0  0  0  0  0  0  0  0  0  0  0  0
    0.2657    1.4927    0.3877 H   0  0  0  0  0  0  0  0  0  0  0  0
   -1.0598    1.8914   -0.8181 H   0  0  0  0  0  0  0  0  0  0  0  0
   -2.0672    2.5788    0.9022 H   0  0  0  0  0  0  0  0  0  0  0  0
  1  2  1  0
  2  3  3  0
  3  4  1  0
  4  5  1  0
  5  6  1  0
  5  7  1  0
  5  8  1  0
  8  9  1  0
  1 10  1  0
  1 11  1  0
  1 12  1  0
  4 13  1  0
  4 14  1  0
  6 15  1  0
  6 16  1  0
  6 17  1  0
  7 18  1  0
  7 19  1  0
  7 20  1  0
  8 21  1  0
  8 22  1  0
  9 23  1  0
M  END
