
     RDKit          3D

 21 20  0  0  0  0  0  0  0  0999 V2000
    3.9799   -0.7045    0.1053 C   0  0  0  0  0  0  0  0  0  0  0  0
    2.4040   -0.5688    0.0250 C   0  0  0  0  0  0  0  0  0  0  0  0
    1.1663   -0.4505   -0.0553 C   0  0  0  0  0  0  0  0  0  0  0  0
   -0.1549   -0.3180   -0.1192 C   0  0  0  0  0  0  0  0  0  0  0  0
   -0.9108   -0.8362   -1.3050 C   0  0  0  0  0  0  0  0  0  0  0  0
   -0.3171    1.2041   -0.5233 O   0  0  0  0  0  0  0  0  0  0  0  0
   -0.9531   -0.3205    1.1578 C   0  0  0  0  0  0  0  0  0  0  0  0
   -2.2745    0.0001    0.9660 O   0  0  0  0  0  0  0  0  0  0  0  0
   -2.6447    1.2404    0.6324 C   0  0  0  0  0  0  0  0  0  0  0  0
    4.1799   -0.4655    1.1332 H   0  0  0  0  0  0  0  0  0  0  0  0
    4.2181   -1.7153   -0.1960 H   0  0  0  0  0  0  0  0  0  0  0  0
    4.4199   -0.0170   -0.6121 H   0  0  0  0  0  0  0  0  0  0  0  0
   -0.4593   -0.4486   -2.2652 H   0  0  0  0  0  0  0  0  0  0  0  0
   -1.0925   -1.8972   -1.2830 H   0  0  0  0  0  0  0  0  0  0  0  0
   -1.9709   -0.3696   -1.1846 H   0  0  0  0  0  0  0  0  0  0  0  0
    0.4997    1.5248   -0.0630 H   0  0  0  0  0  0  0  0  0  0  0  0
   -0.9005   -1.2472    1.7514 H   0  0  0  0  0  0  0  0  0  0  0  0
   -0.5283    0.5087    1.8407 H   0  0  0  0  0  0  0  0  0  0  0  0
   -3.8082    1.1937    0.5791 H   0  0  0  0  0  0  0  0  0  0  0  0
   -2.3378    1.7243   -0.3010 H   0  0  0  0  0  0  0  0  0  0  0  0
   -2.5151    1.9625    1.5020 H   0  0  0  0  0  0  0  0  0  0  0  0
  1  2  1  0
  2  3  3  0
  3  4  1  0
  4  5  1  0
  4  6  1  0
  4  7  1  0
  7  8  1  0
  8  9  1  0
  1 10  1  0
  1 11  1  0
  1 12  1  0
  5 13  1  0
  5 14  1  0
  5 15  1  0
  6 16  1  0
  7 17  1  0
  7 18  1  0
  9 19  1  0
  9 20  1  0
  9 21  1  0
M  END
