
     RDKit          3D

 19 18  0  0  0  0  0  0  0  0999 V2000
    3.0412   -0.6843    0.9102 C   0  0  0  0  0  0  0  0  0  0  0  0
    1.7326   -0.7704    0.2142 C   0  0  0  0  0  0  0  0  0  0  0  0
    0.6817   -0.8383   -0.3685 C   0  0  0  0  0  0  0  0  0  0  0  0
   -0.5936   -0.9408   -1.0830 C   0  0  0  0  0  0  0  0  0  0  0  0
   -1.5229    0.0756   -0.4754 C   0  0  0  0  0  0  0  0  0  0  0  0
   -1.7622   -0.1439    0.9647 C   0  0  0  0  0  0  0  0  0  0  0  0
   -0.8914    0.1478    1.7477 O   0  0  0  0  0  0  0  0  0  0  0  0
   -1.0623    1.4934   -0.6981 C   0  0  0  0  0  0  0  0  0  0  0  0
   -0.9895    1.7434   -2.0626 O   0  0  0  0  0  0  0  0  0  0  0  0
    3.2379    0.3484    1.2591 H   0  0  0  0  0  0  0  0  0  0  0  0
    3.8309   -0.9144    0.1605 H   0  0  0  0  0  0  0  0  0  0  0  0
    3.0870   -1.3693    1.7682 H   0  0  0  0  0  0  0  0  0  0  0  0
   -1.0587   -1.9384   -0.9243 H   0  0  0  0  0  0  0  0  0  0  0  0
   -0.4956   -0.7096   -2.1534 H   0  0  0  0  0  0  0  0  0  0  0  0
   -2.4972   -0.0311   -0.9979 H   0  0  0  0  0  0  0  0  0  0  0  0
   -2.6937   -0.5579    1.3385 H   0  0  0  0  0  0  0  0  0  0  0  0
   -1.7938    2.1535   -0.1828 H   0  0  0  0  0  0  0  0  0  0  0  0
   -0.0738    1.6434   -0.1953 H   0  0  0  0  0  0  0  0  0  0  0  0
   -0.1766    1.2929   -2.4013 H   0  0  0  0  0  0  0  0  0  0  0  0
  1  2  1  0
  2  3  3  0
  3  4  1  0
  4  5  1  0
  5  6  1  0
  6  7  2  0
  5  8  1  0
  8  9  1  0
  1 10  1  0
  1 11  1  0
  1 12  1  0
  4 13  1  0
  4 14  1  0
  5 15  1  0
  6 16  1  0
  8 17  1  0
  8 18  1  0
  9 19  1  0
M  END
