
     RDKit          3D

 19 20  0  0  0  0  0  0  0  0999 V2000
    3.5157   -1.3403   -0.2891 C   0  0  0  0  0  0  0  0  0  0  0  0
    2.2480   -0.6036   -0.5215 C   0  0  0  0  0  0  0  0  0  0  0  0
    1.2370    0.0065   -0.7161 C   0  0  0  0  0  0  0  0  0  0  0  0
   -0.0055    0.7677   -0.9801 C   0  0  0  0  0  0  0  0  0  0  0  0
   -0.7911    0.7914    0.2841 C   0  0  0  0  0  0  0  0  0  0  0  0
   -2.1107    1.5185    0.2577 C   0  0  0  0  0  0  0  0  0  0  0  0
   -2.1528    0.0557    0.3028 C   0  0  0  0  0  0  0  0  0  0  0  0
   -1.6761   -0.5662    1.6182 C   0  0  0  0  0  0  0  0  0  0  0  0
   -0.4410    0.0331    1.3759 O   0  0  0  0  0  0  0  0  0  0  0  0
    3.7027   -1.4063    0.8112 H   0  0  0  0  0  0  0  0  0  0  0  0
    3.4116   -2.3395   -0.7193 H   0  0  0  0  0  0  0  0  0  0  0  0
    4.3669   -0.7560   -0.6974 H   0  0  0  0  0  0  0  0  0  0  0  0
   -0.5791    0.2726   -1.8146 H   0  0  0  0  0  0  0  0  0  0  0  0
    0.2062    1.7985   -1.3027 H   0  0  0  0  0  0  0  0  0  0  0  0
   -2.3016    2.1246   -0.6249 H   0  0  0  0  0  0  0  0  0  0  0  0
   -2.4072    2.0356    1.2166 H   0  0  0  0  0  0  0  0  0  0  0  0
   -2.2857   -0.5945   -0.5658 H   0  0  0  0  0  0  0  0  0  0  0  0
   -1.6739   -1.6775    1.5972 H   0  0  0  0  0  0  0  0  0  0  0  0
   -2.2634   -0.1202    2.4505 H   0  0  0  0  0  0  0  0  0  0  0  0
  1  2  1  0
  2  3  3  0
  3  4  1  0
  4  5  1  0
  5  6  1  0
  6  7  1  0
  7  8  1  0
  8  9  1  0
  7  5  1  0
  9  5  1  0
  1 10  1  0
  1 11  1  0
  1 12  1  0
  4 13  1  0
  4 14  1  0
  6 15  1  0
  6 16  1  0
  7 17  1  0
  8 18  1  0
  8 19  1  0
M  END
