
     RDKit          3D

 21 21  0  0  0  0  0  0  0  0999 V2000
    3.3178   -1.5927    1.6248 C   0  0  0  0  0  0  0  0  0  0  0  0
    1.9912   -1.0014    1.3578 C   0  0  0  0  0  0  0  0  0  0  0  0
    0.8897   -0.5033    1.1497 C   0  0  0  0  0  0  0  0  0  0  0  0
   -0.4274    0.0784    0.8951 C   0  0  0  0  0  0  0  0  0  0  0  0
   -0.3414    0.7995   -0.4362 C   0  0  0  0  0  0  0  0  0  0  0  0
    0.0158   -0.2174   -1.4801 C   0  0  0  0  0  0  0  0  0  0  0  0
   -1.6417    1.4846   -0.6856 C   0  0  0  0  0  0  0  0  0  0  0  0
   -2.9041    0.7760   -0.7788 C   0  0  0  0  0  0  0  0  0  0  0  0
   -2.4967    1.6222    0.3939 O   0  0  0  0  0  0  0  0  0  0  0  0
    3.2415   -2.4659    2.3177 H   0  0  0  0  0  0  0  0  0  0  0  0
    3.9574   -0.8434    2.1839 H   0  0  0  0  0  0  0  0  0  0  0  0
    3.7586   -1.8322    0.6448 H   0  0  0  0  0  0  0  0  0  0  0  0
   -1.2092   -0.6919    0.8671 H   0  0  0  0  0  0  0  0  0  0  0  0
   -0.6828    0.8554    1.6435 H   0  0  0  0  0  0  0  0  0  0  0  0
    0.5156    1.5086   -0.3637 H   0  0  0  0  0  0  0  0  0  0  0  0
    1.0103   -0.6385   -1.2071 H   0  0  0  0  0  0  0  0  0  0  0  0
   -0.7098   -1.0700   -1.5033 H   0  0  0  0  0  0  0  0  0  0  0  0
    0.0932    0.2323   -2.4908 H   0  0  0  0  0  0  0  0  0  0  0  0
   -1.5435    2.4178   -1.2979 H   0  0  0  0  0  0  0  0  0  0  0  0
   -3.0632   -0.2331   -0.3851 H   0  0  0  0  0  0  0  0  0  0  0  0
   -3.7712    1.3149   -1.2255 H   0  0  0  0  0  0  0  0  0  0  0  0
  1  2  1  0
  2  3  3  0
  3  4  1  0
  4  5  1  0
  5  6  1  0
  5  7  1  0
  7  8  1  0
  8  9  1  0
  9  7  1  0
  1 10  1  0
  1 11  1  0
  1 12  1  0
  4 13  1  0
  4 14  1  0
  5 15  1  0
  6 16  1  0
  6 17  1  0
  6 18  1  0
  7 19  1  0
  8 20  1  0
  8 21  1  0
M  END
