
     RDKit          3D

 25 24  0  0  0  0  0  0  0  0999 V2000
    3.8605   -0.2633    1.2981 C   0  0  0  0  0  0  0  0  0  0  0  0
    2.6102   -0.0320    0.5357 C   0  0  0  0  0  0  0  0  0  0  0  0
    1.6023    0.1494   -0.1022 C   0  0  0  0  0  0  0  0  0  0  0  0
    0.3891    0.3701   -0.8463 C   0  0  0  0  0  0  0  0  0  0  0  0
   -0.8473    0.4491    0.0030 C   0  0  0  0  0  0  0  0  0  0  0  0
   -0.6791    1.5991    0.9677 C   0  0  0  0  0  0  0  0  0  0  0  0
   -2.0183    0.7923   -0.8946 C   0  0  0  0  0  0  0  0  0  0  0  0
   -1.1325   -0.7969    0.7665 C   0  0  0  0  0  0  0  0  0  0  0  0
   -1.3334   -1.9886   -0.1468 C   0  0  0  0  0  0  0  0  0  0  0  0
    4.5807    0.5484    1.1693 H   0  0  0  0  0  0  0  0  0  0  0  0
    4.2930   -1.2215    0.9443 H   0  0  0  0  0  0  0  0  0  0  0  0
    3.5791   -0.3751    2.3571 H   0  0  0  0  0  0  0  0  0  0  0  0
    0.4579    1.3288   -1.4212 H   0  0  0  0  0  0  0  0  0  0  0  0
    0.3121   -0.4248   -1.6299 H   0  0  0  0  0  0  0  0  0  0  0  0
   -0.4739    1.2471    1.9846 H   0  0  0  0  0  0  0  0  0  0  0  0
   -1.6298    2.2044    1.0415 H   0  0  0  0  0  0  0  0  0  0  0  0
    0.0765    2.3059    0.5762 H   0  0  0  0  0  0  0  0  0  0  0  0
   -2.9605    0.8757   -0.3040 H   0  0  0  0  0  0  0  0  0  0  0  0
   -1.8673    1.7932   -1.3722 H   0  0  0  0  0  0  0  0  0  0  0  0
   -2.1475    0.0201   -1.6525 H   0  0  0  0  0  0  0  0  0  0  0  0
   -2.1041   -0.6500    1.2967 H   0  0  0  0  0  0  0  0  0  0  0  0
   -0.3658   -1.0376    1.5059 H   0  0  0  0  0  0  0  0  0  0  0  0
   -2.2029   -1.8411   -0.8209 H   0  0  0  0  0  0  0  0  0  0  0  0
   -1.5512   -2.9055    0.4361 H   0  0  0  0  0  0  0  0  0  0  0  0
   -0.4478   -2.1471   -0.8091 H   0  0  0  0  0  0  0  0  0  0  0  0
  1  2  1  0
  2  3  3  0
  3  4  1  0
  4  5  1  0
  5  6  1  0
  5  7  1  0
  5  8  1  0
  8  9  1  0
  1 10  1  0
  1 11  1  0
  1 12  1  0
  4 13  1  0
  4 14  1  0
  6 15  1  0
  6 16  1  0
  6 17  1  0
  7 18  1  0
  7 19  1  0
  7 20  1  0
  8 21  1  0
  8 22  1  0
  9 23  1  0
  9 24  1  0
  9 25  1  0
M  END
