
     RDKit          3D

 17 17  0  0  0  0  0  0  0  0999 V2000
    3.9513    0.3289    0.3648 C   0  0  0  0  0  0  0  0  0  0  0  0
    2.5966    0.3007    0.4002 C   0  0  0  0  0  0  0  0  0  0  0  0
    1.3353    0.2626    0.4211 C   0  0  0  0  0  0  0  0  0  0  0  0
    0.1024    0.2450    0.4507 C   0  0  0  0  0  0  0  0  0  0  0  0
   -0.6040    0.7211    1.4717 O   0  0  0  0  0  0  0  0  0  0  0  0
   -0.8839   -0.2638   -0.6063 C   0  0  0  0  0  0  0  0  0  0  0  0
   -2.3186    0.0155   -0.4928 C   0  0  0  0  0  0  0  0  0  0  0  0
   -3.2897   -0.4391    0.4612 C   0  0  0  0  0  0  0  0  0  0  0  0
   -2.5731    0.7372    0.8300 O   0  0  0  0  0  0  0  0  0  0  0  0
    4.2331    0.2694    1.5871 H   0  0  0  0  0  0  0  0  0  0  0  0
    4.3472   -0.7652    0.1084 H   0  0  0  0  0  0  0  0  0  0  0  0
    4.5568    1.0711   -0.0452 H   0  0  0  0  0  0  0  0  0  0  0  0
   -0.4763   -0.1829   -1.6104 H   0  0  0  0  0  0  0  0  0  0  0  0
   -0.7609   -1.4495   -0.3281 H   0  0  0  0  0  0  0  0  0  0  0  0
   -2.7157    0.7046   -1.2838 H   0  0  0  0  0  0  0  0  0  0  0  0
   -3.1312   -1.3351    1.1257 H   0  0  0  0  0  0  0  0  0  0  0  0
   -4.3693   -0.2205    0.2416 H   0  0  0  0  0  0  0  0  0  0  0  0
  1  2  1  0
  2  3  3  0
  3  4  1  0
  4  5  2  0
  4  6  1  0
  6  7  1  0
  7  8  1  0
  8  9  1  0
  9  7  1  0
  1 10  1  0
  1 11  1  0
  1 12  1  0
  6 13  1  0
  6 14  1  0
  7 15  1  0
  8 16  1  0
  8 17  1  0
M  END
