
     RDKit          3D

 17 17  0  0  0  0  0  0  0  0999 V2000
    3.4607    1.3745   -0.3076 C   0  0  0  0  0  0  0  0  0  0  0  0
    2.0305    0.9636   -0.1597 C   0  0  0  0  0  0  0  0  0  0  0  0
    0.8695    0.6502   -0.0319 C   0  0  0  0  0  0  0  0  0  0  0  0
   -0.4903    0.2825    0.1425 C   0  0  0  0  0  0  0  0  0  0  0  0
   -0.9651   -0.4282   -1.0109 O   0  0  0  0  0  0  0  0  0  0  0  0
   -2.2758   -0.6596   -0.5004 C   0  0  0  0  0  0  0  0  0  0  0  0
   -1.9687   -1.4532    0.7869 C   0  0  0  0  0  0  0  0  0  0  0  0
   -0.6931   -0.7463    1.1775 C   0  0  0  0  0  0  0  0  0  0  0  0
   -0.0309   -1.0248    2.1540 O   0  0  0  0  0  0  0  0  0  0  0  0
    3.8520    0.8399   -1.2010 H   0  0  0  0  0  0  0  0  0  0  0  0
    4.0489    1.1127    0.5840 H   0  0  0  0  0  0  0  0  0  0  0  0
    3.5536    2.4583   -0.4813 H   0  0  0  0  0  0  0  0  0  0  0  0
   -1.1778    1.1404    0.3330 H   0  0  0  0  0  0  0  0  0  0  0  0
   -2.6284    0.3689   -0.1812 H   0  0  0  0  0  0  0  0  0  0  0  0
   -2.9248   -1.1698   -1.1847 H   0  0  0  0  0  0  0  0  0  0  0  0
   -2.7994   -1.1975    1.4775 H   0  0  0  0  0  0  0  0  0  0  0  0
   -1.8608   -2.5117    0.6083 H   0  0  0  0  0  0  0  0  0  0  0  0
  1  2  1  0
  2  3  3  0
  3  4  1  0
  4  5  1  0
  5  6  1  0
  6  7  1  0
  7  8  1  0
  8  9  2  0
  8  4  1  0
  1 10  1  0
  1 11  1  0
  1 12  1  0
  4 13  1  0
  6 14  1  0
  6 15  1  0
  7 16  1  0
  7 17  1  0
M  END
