
     RDKit          3D

 19 20  0  0  0  0  0  0  0  0999 V2000
    0.6906   -3.5319    1.4604 C   0  0  0  0  0  0  0  0  0  0  0  0
    0.7522   -2.1079    1.1905 C   0  0  0  0  0  0  0  0  0  0  0  0
    0.8229   -0.9331    0.9741 C   0  0  0  0  0  0  0  0  0  0  0  0
    0.9367    0.5369    0.7097 C   0  0  0  0  0  0  0  0  0  0  0  0
   -0.1105    1.2274    1.2644 O   0  0  0  0  0  0  0  0  0  0  0  0
   -0.3447    1.8316    0.0628 C   0  0  0  0  0  0  0  0  0  0  0  0
   -0.9278    0.9649   -1.0316 C   0  0  0  0  0  0  0  0  0  0  0  0
   -1.3791    1.7281   -2.2434 C   0  0  0  0  0  0  0  0  0  0  0  0
    0.5139    0.8613   -0.6997 C   0  0  0  0  0  0  0  0  0  0  0  0
    0.2472   -3.7147    2.4623 H   0  0  0  0  0  0  0  0  0  0  0  0
    0.0444   -4.0621    0.6985 H   0  0  0  0  0  0  0  0  0  0  0  0
    1.7326   -3.9272    1.4514 H   0  0  0  0  0  0  0  0  0  0  0  0
    1.9072    0.9499    1.0423 H   0  0  0  0  0  0  0  0  0  0  0  0
   -0.1268    2.8914   -0.1296 H   0  0  0  0  0  0  0  0  0  0  0  0
   -1.6279    0.1957   -0.6403 H   0  0  0  0  0  0  0  0  0  0  0  0
   -1.8244    2.6806   -1.8959 H   0  0  0  0  0  0  0  0  0  0  0  0
   -2.1164    1.1644   -2.8605 H   0  0  0  0  0  0  0  0  0  0  0  0
   -0.4860    2.0397   -2.8605 H   0  0  0  0  0  0  0  0  0  0  0  0
    1.2959    1.2050   -1.3668 H   0  0  0  0  0  0  0  0  0  0  0  0
  1  2  1  0
  2  3  3  0
  3  4  1  0
  4  5  1  0
  5  6  1  0
  6  7  1  0
  7  8  1  0
  7  9  1  0
  9  4  1  0
  9  6  1  0
  1 10  1  0
  1 11  1  0
  1 12  1  0
  4 13  1  0
  6 14  1  0
  7 15  1  0
  8 16  1  0
  8 17  1  0
  8 18  1  0
  9 19  1  0
M  END
