
     RDKit          3D

 19 19  0  0  0  0  0  0  0  0999 V2000
    4.2966   -0.1863   -0.8109 C   0  0  0  0  0  0  0  0  0  0  0  0
    2.8968   -0.2677   -0.3299 C   0  0  0  0  0  0  0  0  0  0  0  0
    1.7612   -0.3375    0.0706 C   0  0  0  0  0  0  0  0  0  0  0  0
    0.3828   -0.4232    0.5829 C   0  0  0  0  0  0  0  0  0  0  0  0
   -0.4827    0.1320   -0.3702 O   0  0  0  0  0  0  0  0  0  0  0  0
   -1.7805    0.0679    0.0774 C   0  0  0  0  0  0  0  0  0  0  0  0
   -2.5642    1.3077   -0.2430 C   0  0  0  0  0  0  0  0  0  0  0  0
   -3.6678    0.5229   -0.4885 O   0  0  0  0  0  0  0  0  0  0  0  0
   -2.7909   -0.4914   -0.9066 C   0  0  0  0  0  0  0  0  0  0  0  0
    4.8794   -1.0698   -0.4742 H   0  0  0  0  0  0  0  0  0  0  0  0
    4.7807    0.7473   -0.4624 H   0  0  0  0  0  0  0  0  0  0  0  0
    4.2181   -0.1765   -1.9244 H   0  0  0  0  0  0  0  0  0  0  0  0
    0.3155    0.1173    1.5513 H   0  0  0  0  0  0  0  0  0  0  0  0
    0.1117   -1.4945    0.8009 H   0  0  0  0  0  0  0  0  0  0  0  0
   -1.9489   -0.3843    1.0650 H   0  0  0  0  0  0  0  0  0  0  0  0
   -2.1951    1.7655   -1.1816 H   0  0  0  0  0  0  0  0  0  0  0  0
   -2.6419    2.0659    0.5398 H   0  0  0  0  0  0  0  0  0  0  0  0
   -3.1618   -1.5045   -0.6388 H   0  0  0  0  0  0  0  0  0  0  0  0
   -2.4087   -0.3909   -1.9261 H   0  0  0  0  0  0  0  0  0  0  0  0
  1  2  1  0
  2  3  3  0
  3  4  1  0
  4  5  1  0
  5  6  1  0
  6  7  1  0
  7  8  1  0
  8  9  1  0
  9  6  1  0
  1 10  1  0
  1 11  1  0
  1 12  1  0
  4 13  1  0
  4 14  1  0
  6 15  1  0
  7 16  1  0
  7 17  1  0
  9 18  1  0
  9 19  1  0
M  END
