
     RDKit          3D

 25 24  0  0  0  0  0  0  0  0999 V2000
    4.0093    1.8429   -1.1295 C   0  0  0  0  0  0  0  0  0  0  0  0
    2.6484    1.3483   -0.9329 C   0  0  0  0  0  0  0  0  0  0  0  0
    1.5256    0.9433   -0.7917 C   0  0  0  0  0  0  0  0  0  0  0  0
    0.1070    0.4233   -0.6043 C   0  0  0  0  0  0  0  0  0  0  0  0
   -0.4445    1.3229    0.5217 C   0  0  0  0  0  0  0  0  0  0  0  0
    0.2709   -0.9654   -0.1113 C   0  0  0  0  0  0  0  0  0  0  0  0
   -0.8438   -1.8710    0.1166 C   0  0  0  0  0  0  0  0  0  0  0  0
   -1.9673   -1.6039    1.0077 C   0  0  0  0  0  0  0  0  0  0  0  0
   -2.8795   -0.5091    0.6031 C   0  0  0  0  0  0  0  0  0  0  0  0
    4.0142    2.4961   -2.0270 H   0  0  0  0  0  0  0  0  0  0  0  0
    4.6941    0.9805   -1.2529 H   0  0  0  0  0  0  0  0  0  0  0  0
    4.3816    2.4372   -0.2926 H   0  0  0  0  0  0  0  0  0  0  0  0
   -0.4336    0.5415   -1.5346 H   0  0  0  0  0  0  0  0  0  0  0  0
   -1.3581    1.8229    0.1709 H   0  0  0  0  0  0  0  0  0  0  0  0
    0.3087    2.1599    0.6272 H   0  0  0  0  0  0  0  0  0  0  0  0
   -0.5142    0.8025    1.4693 H   0  0  0  0  0  0  0  0  0  0  0  0
    0.9468   -0.9375    0.8230 H   0  0  0  0  0  0  0  0  0  0  0  0
    1.0133   -1.4747   -0.8434 H   0  0  0  0  0  0  0  0  0  0  0  0
   -0.4390   -2.9215    0.4204 H   0  0  0  0  0  0  0  0  0  0  0  0
   -1.3257   -2.1362   -0.9064 H   0  0  0  0  0  0  0  0  0  0  0  0
   -2.5757   -2.5479    1.1163 H   0  0  0  0  0  0  0  0  0  0  0  0
   -1.6253   -1.4213    2.0861 H   0  0  0  0  0  0  0  0  0  0  0  0
   -3.9264   -0.9526    0.5290 H   0  0  0  0  0  0  0  0  0  0  0  0
   -2.6599   -0.1089   -0.4076 H   0  0  0  0  0  0  0  0  0  0  0  0
   -2.9267    0.3288    1.3428 H   0  0  0  0  0  0  0  0  0  0  0  0
  1  2  1  0
  2  3  3  0
  3  4  1  0
  4  5  1  0
  4  6  1  0
  6  7  1  0
  7  8  1  0
  8  9  1  0
  1 10  1  0
  1 11  1  0
  1 12  1  0
  4 13  1  0
  5 14  1  0
  5 15  1  0
  5 16  1  0
  6 17  1  0
  6 18  1  0
  7 19  1  0
  7 20  1  0
  8 21  1  0
  8 22  1  0
  9 23  1  0
  9 24  1  0
  9 25  1  0
M  END
