
     RDKit          3D

 21 20  0  0  0  0  0  0  0  0999 V2000
    2.3121    0.1833   -2.6994 C   0  0  0  0  0  0  0  0  0  0  0  0
    1.3330    0.2968   -1.6233 C   0  0  0  0  0  0  0  0  0  0  0  0
    0.4942    0.3741   -0.7167 C   0  0  0  0  0  0  0  0  0  0  0  0
   -0.4733    0.4684    0.3616 C   0  0  0  0  0  0  0  0  0  0  0  0
    0.2329    0.5172    1.5552 O   0  0  0  0  0  0  0  0  0  0  0  0
   -0.1123    1.6814    2.2314 C   0  0  0  0  0  0  0  0  0  0  0  0
   -1.4247   -0.7134    0.3229 C   0  0  0  0  0  0  0  0  0  0  0  0
   -0.6833   -2.0242    0.4270 C   0  0  0  0  0  0  0  0  0  0  0  0
   -2.1115   -0.7142   -0.8955 O   0  0  0  0  0  0  0  0  0  0  0  0
    3.0926   -0.5163   -2.3488 H   0  0  0  0  0  0  0  0  0  0  0  0
    2.7337    1.1947   -2.9564 H   0  0  0  0  0  0  0  0  0  0  0  0
    1.8565   -0.2698   -3.6107 H   0  0  0  0  0  0  0  0  0  0  0  0
   -1.1083    1.3707    0.2908 H   0  0  0  0  0  0  0  0  0  0  0  0
   -1.2226    1.6358    2.4258 H   0  0  0  0  0  0  0  0  0  0  0  0
    0.0333    2.5974    1.6064 H   0  0  0  0  0  0  0  0  0  0  0  0
    0.4211    1.7892    3.1900 H   0  0  0  0  0  0  0  0  0  0  0  0
   -2.1713   -0.6325    1.1089 H   0  0  0  0  0  0  0  0  0  0  0  0
   -0.8267   -2.4533    1.4305 H   0  0  0  0  0  0  0  0  0  0  0  0
   -1.1007   -2.7537   -0.2980 H   0  0  0  0  0  0  0  0  0  0  0  0
    0.4008   -1.9073    0.1796 H   0  0  0  0  0  0  0  0  0  0  0  0
   -1.6756   -0.1241   -1.5639 H   0  0  0  0  0  0  0  0  0  0  0  0
  1  2  1  0
  2  3  3  0
  3  4  1  0
  4  5  1  0
  5  6  1  0
  4  7  1  0
  7  8  1  0
  7  9  1  0
  1 10  1  0
  1 11  1  0
  1 12  1  0
  4 13  1  0
  6 14  1  0
  6 15  1  0
  6 16  1  0
  7 17  1  0
  8 18  1  0
  8 19  1  0
  8 20  1  0
  9 21  1  0
M  END
