
     RDKit          3D

 18 17  0  0  0  0  0  0  0  0999 V2000
    3.1578    0.3114    0.6448 C   0  0  0  0  0  0  0  0  0  0  0  0
    1.7991   -0.0963    0.2233 C   0  0  0  0  0  0  0  0  0  0  0  0
    0.6838   -0.4094   -0.1181 C   0  0  0  0  0  0  0  0  0  0  0  0
   -0.6703   -0.7909   -0.5271 C   0  0  0  0  0  0  0  0  0  0  0  0
   -1.0456   -2.1220    0.0636 C   0  0  0  0  0  0  0  0  0  0  0  0
   -0.4151   -2.6117    0.9937 O   0  0  0  0  0  0  0  0  0  0  0  0
   -1.6193    0.2192   -0.0072 C   0  0  0  0  0  0  0  0  0  0  0  0
   -1.3871    1.6113   -0.4926 C   0  0  0  0  0  0  0  0  0  0  0  0
    3.3053   -0.0348    1.6646 H   0  0  0  0  0  0  0  0  0  0  0  0
    3.9321   -0.1025   -0.0473 H   0  0  0  0  0  0  0  0  0  0  0  0
    3.2487    1.4171    0.6168 H   0  0  0  0  0  0  0  0  0  0  0  0
   -0.7730   -0.8240   -1.6446 H   0  0  0  0  0  0  0  0  0  0  0  0
   -1.8883   -2.6785   -0.3253 H   0  0  0  0  0  0  0  0  0  0  0  0
   -1.5687    0.2496    1.1179 H   0  0  0  0  0  0  0  0  0  0  0  0
   -2.6645   -0.0752   -0.3168 H   0  0  0  0  0  0  0  0  0  0  0  0
   -2.3520    2.1558   -0.4024 H   0  0  0  0  0  0  0  0  0  0  0  0
   -0.6266    2.1309    0.1226 H   0  0  0  0  0  0  0  0  0  0  0  0
   -1.1161    1.6500   -1.5657 H   0  0  0  0  0  0  0  0  0  0  0  0
  1  2  1  0
  2  3  3  0
  3  4  1  0
  4  5  1  0
  5  6  2  0
  4  7  1  0
  7  8  1  0
  1  9  1  0
  1 10  1  0
  1 11  1  0
  4 12  1  0
  5 13  1  0
  7 14  1  0
  7 15  1  0
  8 16  1  0
  8 17  1  0
  8 18  1  0
M  END
