
     RDKit          3D

 21 22  0  0  0  0  0  0  0  0999 V2000
    4.3237   -0.3838   -0.1215 C   0  0  0  0  0  0  0  0  0  0  0  0
    2.9101   -0.2985    0.2517 C   0  0  0  0  0  0  0  0  0  0  0  0
    1.7413   -0.2070    0.5598 C   0  0  0  0  0  0  0  0  0  0  0  0
    0.3295   -0.0844    0.9289 C   0  0  0  0  0  0  0  0  0  0  0  0
   -0.4168    0.8176   -0.0310 C   0  0  0  0  0  0  0  0  0  0  0  0
   -1.8364    1.1031    0.1163 C   0  0  0  0  0  0  0  0  0  0  0  0
   -2.9039    0.0823    0.2556 C   0  0  0  0  0  0  0  0  0  0  0  0
   -2.2152   -0.8760   -0.6999 C   0  0  0  0  0  0  0  0  0  0  0  0
   -1.2965    0.2476   -1.0766 C   0  0  0  0  0  0  0  0  0  0  0  0
    4.9734    0.0585    0.6588 H   0  0  0  0  0  0  0  0  0  0  0  0
    4.4597    0.1414   -1.1078 H   0  0  0  0  0  0  0  0  0  0  0  0
    4.6422   -1.4318   -0.2885 H   0  0  0  0  0  0  0  0  0  0  0  0
   -0.0965   -1.1072    0.8899 H   0  0  0  0  0  0  0  0  0  0  0  0
    0.3241    0.3289    1.9705 H   0  0  0  0  0  0  0  0  0  0  0  0
    0.2221    1.6653   -0.3838 H   0  0  0  0  0  0  0  0  0  0  0  0
   -2.2148    2.1215   -0.1696 H   0  0  0  0  0  0  0  0  0  0  0  0
   -3.0933   -0.3216    1.2613 H   0  0  0  0  0  0  0  0  0  0  0  0
   -3.8941    0.3814   -0.1960 H   0  0  0  0  0  0  0  0  0  0  0  0
   -1.7598   -1.7104   -0.1253 H   0  0  0  0  0  0  0  0  0  0  0  0
   -2.8552   -1.2413   -1.5328 H   0  0  0  0  0  0  0  0  0  0  0  0
   -1.3438    0.7143   -2.0697 H   0  0  0  0  0  0  0  0  0  0  0  0
  1  2  1  0
  2  3  3  0
  3  4  1  0
  4  5  1  0
  5  6  1  0
  6  7  1  0
  7  8  1  0
  8  9  1  0
  9  5  1  0
  9  6  1  0
  1 10  1  0
  1 11  1  0
  1 12  1  0
  4 13  1  0
  4 14  1  0
  5 15  1  0
  6 16  1  0
  7 17  1  0
  7 18  1  0
  8 19  1  0
  8 20  1  0
  9 21  1  0
M  END
