
     RDKit          3D

 18 18  0  0  0  0  0  0  0  0999 V2000
    3.4710   -0.0648   -0.2487 C   0  0  0  0  0  0  0  0  0  0  0  0
    2.0363   -0.4115   -0.1206 C   0  0  0  0  0  0  0  0  0  0  0  0
    0.8856   -0.6842   -0.0062 C   0  0  0  0  0  0  0  0  0  0  0  0
   -0.5115   -1.0046    0.1350 C   0  0  0  0  0  0  0  0  0  0  0  0
   -1.2827   -0.9675   -1.0164 O   0  0  0  0  0  0  0  0  0  0  0  0
   -2.3745   -0.6121   -0.1887 C   0  0  0  0  0  0  0  0  0  0  0  0
   -1.3493    0.1348    0.6721 C   0  0  0  0  0  0  0  0  0  0  0  0
   -1.0746    1.4756    0.0696 C   0  0  0  0  0  0  0  0  0  0  0  0
    4.1055   -0.9788   -0.2439 H   0  0  0  0  0  0  0  0  0  0  0  0
    3.6474    0.4553   -1.2177 H   0  0  0  0  0  0  0  0  0  0  0  0
    3.7663    0.6348    0.5516 H   0  0  0  0  0  0  0  0  0  0  0  0
   -0.7437   -1.9304    0.7117 H   0  0  0  0  0  0  0  0  0  0  0  0
   -3.1293    0.0142   -0.6605 H   0  0  0  0  0  0  0  0  0  0  0  0
   -2.7405   -1.5474    0.3102 H   0  0  0  0  0  0  0  0  0  0  0  0
   -1.5104    0.0740    1.7442 H   0  0  0  0  0  0  0  0  0  0  0  0
   -2.0649    1.8769   -0.2931 H   0  0  0  0  0  0  0  0  0  0  0  0
   -0.6558    2.2160    0.7500 H   0  0  0  0  0  0  0  0  0  0  0  0
   -0.4750    1.3197   -0.8499 H   0  0  0  0  0  0  0  0  0  0  0  0
  1  2  1  0
  2  3  3  0
  3  4  1  0
  4  5  1  0
  5  6  1  0
  6  7  1  0
  7  8  1  0
  7  4  1  0
  1  9  1  0
  1 10  1  0
  1 11  1  0
  4 12  1  0
  6 13  1  0
  6 14  1  0
  7 15  1  0
  8 16  1  0
  8 17  1  0
  8 18  1  0
M  END
