
     RDKit          3D

 21 21  0  0  0  0  0  0  0  0999 V2000
    2.7482   -1.7449   -1.8672 C   0  0  0  0  0  0  0  0  0  0  0  0
    1.8170   -0.6402   -0.9423 C   0  0  0  0  0  0  0  0  0  0  0  0
    1.1161    0.1966   -0.2473 C   0  0  0  0  0  0  0  0  0  0  0  0
    0.3775    1.1054    0.5188 C   0  0  0  0  0  0  0  0  0  0  0  0
    0.2955    2.4389    0.0117 C   0  0  0  0  0  0  0  0  0  0  0  0
   -0.9612    0.4439    0.5890 C   0  0  0  0  0  0  0  0  0  0  0  0
   -1.1360   -0.9003    1.1669 C   0  0  0  0  0  0  0  0  0  0  0  0
   -2.6519   -1.2976    0.9209 C   0  0  0  0  0  0  0  0  0  0  0  0
   -1.5509   -2.0413    0.4900 O   0  0  0  0  0  0  0  0  0  0  0  0
    2.0443   -2.2936   -2.3406 H   0  0  0  0  0  0  0  0  0  0  0  0
    3.2094   -0.8597   -2.5684 H   0  0  0  0  0  0  0  0  0  0  0  0
    3.4930   -2.0321   -1.2206 H   0  0  0  0  0  0  0  0  0  0  0  0
    0.8578    1.0167    1.5974 H   0  0  0  0  0  0  0  0  0  0  0  0
    0.6681    3.3180    0.6124 H   0  0  0  0  0  0  0  0  0  0  0  0
    0.7601    2.5316   -1.0503 H   0  0  0  0  0  0  0  0  0  0  0  0
   -0.8188    2.6636   -0.2714 H   0  0  0  0  0  0  0  0  0  0  0  0
   -1.7139    1.1882    1.0721 H   0  0  0  0  0  0  0  0  0  0  0  0
   -1.2943    0.4388   -0.5389 H   0  0  0  0  0  0  0  0  0  0  0  0
   -0.8374   -1.1690    2.2280 H   0  0  0  0  0  0  0  0  0  0  0  0
   -3.2616   -1.5241    1.7856 H   0  0  0  0  0  0  0  0  0  0  0  0
   -3.1608   -0.8390    0.0540 H   0  0  0  0  0  0  0  0  0  0  0  0
  1  2  1  0
  2  3  3  0
  3  4  1  0
  4  5  1  0
  4  6  1  0
  6  7  1  0
  7  8  1  0
  8  9  1  0
  9  7  1  0
  1 10  1  0
  1 11  1  0
  1 12  1  0
  4 13  1  0
  5 14  1  0
  5 15  1  0
  5 16  1  0
  6 17  1  0
  6 18  1  0
  7 19  1  0
  8 20  1  0
  8 21  1  0
M  END
