
     RDKit          3D

 16 15  0  0  0  0  0  0  0  0999 V2000
   -3.4687    0.6458   -0.2883 C   0  0  0  0  0  0  0  0  0  0  0  0
   -2.2042   -0.0805   -0.1661 C   0  0  0  0  0  0  0  0  0  0  0  0
   -1.1519   -0.6950   -0.0459 C   0  0  0  0  0  0  0  0  0  0  0  0
    0.1083   -1.4211    0.1218 C   0  0  0  0  0  0  0  0  0  0  0  0
    0.2804   -2.3592   -0.9193 O   0  0  0  0  0  0  0  0  0  0  0  0
    1.1902   -0.4455    0.1333 C   0  0  0  0  0  0  0  0  0  0  0  0
    2.0879    0.3853    0.1570 C   0  0  0  0  0  0  0  0  0  0  0  0
    3.1600    1.3771    0.1598 C   0  0  0  0  0  0  0  0  0  0  0  0
   -4.3225   -0.0540   -0.5261 H   0  0  0  0  0  0  0  0  0  0  0  0
   -3.4125    1.4379   -1.0747 H   0  0  0  0  0  0  0  0  0  0  0  0
   -3.7162    1.0781    0.6953 H   0  0  0  0  0  0  0  0  0  0  0  0
    0.0374   -1.9921    1.0822 H   0  0  0  0  0  0  0  0  0  0  0  0
    1.0927   -2.8734   -0.7229 H   0  0  0  0  0  0  0  0  0  0  0  0
    4.1549    0.9173   -0.0643 H   0  0  0  0  0  0  0  0  0  0  0  0
    3.2452    1.8919    1.1444 H   0  0  0  0  0  0  0  0  0  0  0  0
    2.9191    2.1875   -0.5805 H   0  0  0  0  0  0  0  0  0  0  0  0
  1  2  1  0
  2  3  3  0
  3  4  1  0
  4  5  1  0
  4  6  1  0
  6  7  3  0
  7  8  1  0
  1  9  1  0
  1 10  1  0
  1 11  1  0
  4 12  1  0
  5 13  1  0
  8 14  1  0
  8 15  1  0
  8 16  1  0
M  END
