
     RDKit          3D

 19 20  0  0  0  0  0  0  0  0999 V2000
    0.5347    3.1850   -0.9675 C   0  0  0  0  0  0  0  0  0  0  0  0
    0.0173    1.7720   -0.6831 C   0  0  0  0  0  0  0  0  0  0  0  0
   -0.3865    0.6277   -0.4699 C   0  0  0  0  0  0  0  0  0  0  0  0
   -0.8815   -0.7166   -0.2032 C   0  0  0  0  0  0  0  0  0  0  0  0
   -0.2103   -1.6467   -1.2162 C   0  0  0  0  0  0  0  0  0  0  0  0
    1.0412   -1.1930   -0.4044 C   0  0  0  0  0  0  0  0  0  0  0  0
    0.1104   -1.6263    0.6704 C   0  0  0  0  0  0  0  0  0  0  0  0
   -0.9717   -0.9211    1.2465 C   0  0  0  0  0  0  0  0  0  0  0  0
   -0.5670    0.0176    2.2144 O   0  0  0  0  0  0  0  0  0  0  0  0
    1.2498    3.4961   -0.2235 H   0  0  0  0  0  0  0  0  0  0  0  0
    1.0274    3.1694   -1.9710 H   0  0  0  0  0  0  0  0  0  0  0  0
   -0.3679    3.8109   -0.9881 H   0  0  0  0  0  0  0  0  0  0  0  0
   -0.2396   -1.2863   -2.2214 H   0  0  0  0  0  0  0  0  0  0  0  0
   -0.3106   -2.7298   -1.0032 H   0  0  0  0  0  0  0  0  0  0  0  0
    1.3612   -0.1909   -0.4695 H   0  0  0  0  0  0  0  0  0  0  0  0
    1.8883   -1.8912   -0.5958 H   0  0  0  0  0  0  0  0  0  0  0  0
   -0.0708   -2.7120    0.5816 H   0  0  0  0  0  0  0  0  0  0  0  0
   -1.9496   -1.3849    1.5563 H   0  0  0  0  0  0  0  0  0  0  0  0
   -1.2745    0.2201    2.8620 H   0  0  0  0  0  0  0  0  0  0  0  0
  1  2  1  0
  2  3  3  0
  3  4  1  0
  4  5  1  0
  5  6  1  0
  6  7  1  0
  7  8  1  0
  8  9  1  0
  7  4  1  0
  8  4  1  0
  1 10  1  0
  1 11  1  0
  1 12  1  0
  5 13  1  0
  5 14  1  0
  6 15  1  0
  6 16  1  0
  7 17  1  0
  8 18  1  0
  9 19  1  0
M  END
