
     RDKit          3D

 17 16  0  0  0  0  0  0  0  0999 V2000
   -3.4908    0.5702    0.4397 C   0  0  0  0  0  0  0  0  0  0  0  0
   -2.2094   -0.0422    0.0790 C   0  0  0  0  0  0  0  0  0  0  0  0
   -1.1514   -0.5641   -0.2364 C   0  0  0  0  0  0  0  0  0  0  0  0
    0.1205   -1.1869   -0.6171 C   0  0  0  0  0  0  0  0  0  0  0  0
    1.1934   -0.1711   -0.6148 C   0  0  0  0  0  0  0  0  0  0  0  0
    2.0546    0.6682   -0.6068 C   0  0  0  0  0  0  0  0  0  0  0  0
    3.0870    1.7078   -0.6053 C   0  0  0  0  0  0  0  0  0  0  0  0
    0.4926   -2.2656    0.3674 C   0  0  0  0  0  0  0  0  0  0  0  0
    0.2767   -2.0541    1.5584 O   0  0  0  0  0  0  0  0  0  0  0  0
   -3.3563    1.3516    1.2314 H   0  0  0  0  0  0  0  0  0  0  0  0
   -4.1039   -0.2248    0.9100 H   0  0  0  0  0  0  0  0  0  0  0  0
   -3.9604    1.0507   -0.4239 H   0  0  0  0  0  0  0  0  0  0  0  0
    0.0030   -1.6218   -1.6063 H   0  0  0  0  0  0  0  0  0  0  0  0
    3.4887    1.8859   -1.6440 H   0  0  0  0  0  0  0  0  0  0  0  0
    3.9327    1.4169    0.0141 H   0  0  0  0  0  0  0  0  0  0  0  0
    2.6861    2.6834   -0.2355 H   0  0  0  0  0  0  0  0  0  0  0  0
    0.9370   -3.2042    0.0555 H   0  0  0  0  0  0  0  0  0  0  0  0
  1  2  1  0
  2  3  3  0
  3  4  1  0
  4  5  1  0
  5  6  3  0
  6  7  1  0
  4  8  1  0
  8  9  2  0
  1 10  1  0
  1 11  1  0
  1 12  1  0
  4 13  1  0
  7 14  1  0
  7 15  1  0
  7 16  1  0
  8 17  1  0
M  END
