
     RDKit          3D

 19 19  0  0  0  0  0  0  0  0999 V2000
    2.8951    0.7526    2.1832 C   0  0  0  0  0  0  0  0  0  0  0  0
    1.8225    0.2516    1.3186 C   0  0  0  0  0  0  0  0  0  0  0  0
    0.9322   -0.1850    0.6067 C   0  0  0  0  0  0  0  0  0  0  0  0
   -0.1515   -0.7157   -0.2282 C   0  0  0  0  0  0  0  0  0  0  0  0
   -1.4806   -0.8224    0.5136 C   0  0  0  0  0  0  0  0  0  0  0  0
   -2.1885   -0.0722   -0.6122 C   0  0  0  0  0  0  0  0  0  0  0  0
   -0.8247    0.3544   -1.1009 C   0  0  0  0  0  0  0  0  0  0  0  0
   -0.5507    0.1366   -2.5248 C   0  0  0  0  0  0  0  0  0  0  0  0
   -0.2454    1.0665   -3.2500 O   0  0  0  0  0  0  0  0  0  0  0  0
    2.6212    0.7320    3.2562 H   0  0  0  0  0  0  0  0  0  0  0  0
    3.7421    0.0272    2.0630 H   0  0  0  0  0  0  0  0  0  0  0  0
    3.2326    1.7702    1.8707 H   0  0  0  0  0  0  0  0  0  0  0  0
    0.1292   -1.6291   -0.7793 H   0  0  0  0  0  0  0  0  0  0  0  0
   -1.4828   -0.3111    1.4799 H   0  0  0  0  0  0  0  0  0  0  0  0
   -1.8415   -1.8713    0.5236 H   0  0  0  0  0  0  0  0  0  0  0  0
   -2.6764   -0.7291   -1.3603 H   0  0  0  0  0  0  0  0  0  0  0  0
   -2.8255    0.7208   -0.2042 H   0  0  0  0  0  0  0  0  0  0  0  0
   -0.5015    1.3646   -0.7655 H   0  0  0  0  0  0  0  0  0  0  0  0
   -0.6056   -0.8407   -2.9901 H   0  0  0  0  0  0  0  0  0  0  0  0
  1  2  1  0
  2  3  3  0
  3  4  1  0
  4  5  1  0
  5  6  1  0
  6  7  1  0
  7  8  1  0
  8  9  2  0
  7  4  1  0
  1 10  1  0
  1 11  1  0
  1 12  1  0
  4 13  1  0
  5 14  1  0
  5 15  1  0
  6 16  1  0
  6 17  1  0
  7 18  1  0
  8 19  1  0
M  END
