
     RDKit          3D

 23 22  0  0  0  0  0  0  0  0999 V2000
   -3.4315   -2.4816    0.0071 C   0  0  0  0  0  0  0  0  0  0  0  0
   -2.2543   -1.6251   -0.2105 C   0  0  0  0  0  0  0  0  0  0  0  0
   -1.2841   -0.9138   -0.3897 C   0  0  0  0  0  0  0  0  0  0  0  0
   -0.1027   -0.0542   -0.5821 C   0  0  0  0  0  0  0  0  0  0  0  0
   -0.4640    1.2706   -1.1754 C   0  0  0  0  0  0  0  0  0  0  0  0
    0.6978   -0.7205   -1.5200 O   0  0  0  0  0  0  0  0  0  0  0  0
    0.6252    0.0804    0.7430 C   0  0  0  0  0  0  0  0  0  0  0  0
    1.8218    0.9610    0.5151 C   0  0  0  0  0  0  0  0  0  0  0  0
    2.6195    1.1622    1.7727 C   0  0  0  0  0  0  0  0  0  0  0  0
   -4.3159   -1.8172   -0.1682 H   0  0  0  0  0  0  0  0  0  0  0  0
   -3.4465   -2.9161    1.0154 H   0  0  0  0  0  0  0  0  0  0  0  0
   -3.4368   -3.2976   -0.7542 H   0  0  0  0  0  0  0  0  0  0  0  0
   -1.5264    1.1870   -1.5496 H   0  0  0  0  0  0  0  0  0  0  0  0
   -0.4567    2.1078   -0.4723 H   0  0  0  0  0  0  0  0  0  0  0  0
    0.1340    1.5138   -2.0768 H   0  0  0  0  0  0  0  0  0  0  0  0
    1.3075   -0.0350   -1.8933 H   0  0  0  0  0  0  0  0  0  0  0  0
   -0.0216    0.3980    1.5543 H   0  0  0  0  0  0  0  0  0  0  0  0
    1.0247   -0.9292    1.0226 H   0  0  0  0  0  0  0  0  0  0  0  0
    1.5066    1.9147    0.0520 H   0  0  0  0  0  0  0  0  0  0  0  0
    2.4564    0.4564   -0.2720 H   0  0  0  0  0  0  0  0  0  0  0  0
    2.4831    2.2099    2.1233 H   0  0  0  0  0  0  0  0  0  0  0  0
    3.7146    1.0414    1.5825 H   0  0  0  0  0  0  0  0  0  0  0  0
    2.3495    0.4872    2.5959 H   0  0  0  0  0  0  0  0  0  0  0  0
  1  2  1  0
  2  3  3  0
  3  4  1  0
  4  5  1  0
  4  6  1  0
  4  7  1  0
  7  8  1  0
  8  9  1  0
  1 10  1  0
  1 11  1  0
  1 12  1  0
  5 13  1  0
  5 14  1  0
  5 15  1  0
  6 16  1  0
  7 17  1  0
  7 18  1  0
  8 19  1  0
  8 20  1  0
  9 21  1  0
  9 22  1  0
  9 23  1  0
M  END
