
     RDKit          3D

 23 23  0  0  0  0  0  0  0  0999 V2000
    4.0706    0.6528    0.1158 C   0  0  0  0  0  0  0  0  0  0  0  0
    2.6510    0.3239    0.2691 C   0  0  0  0  0  0  0  0  0  0  0  0
    1.4842    0.0363    0.3829 C   0  0  0  0  0  0  0  0  0  0  0  0
    0.0831   -0.3342    0.5132 C   0  0  0  0  0  0  0  0  0  0  0  0
   -0.1108   -1.8503    0.3644 C   0  0  0  0  0  0  0  0  0  0  0  0
   -1.4699   -1.4598   -0.2411 C   0  0  0  0  0  0  0  0  0  0  0  0
   -0.7269   -0.2586   -0.7636 C   0  0  0  0  0  0  0  0  0  0  0  0
   -1.5064    0.9826   -0.9758 C   0  0  0  0  0  0  0  0  0  0  0  0
   -2.5252    1.2746    0.0732 C   0  0  0  0  0  0  0  0  0  0  0  0
    4.6088    0.0393    0.8953 H   0  0  0  0  0  0  0  0  0  0  0  0
    4.4300    0.4282   -0.8960 H   0  0  0  0  0  0  0  0  0  0  0  0
    4.2614    1.7318    0.3785 H   0  0  0  0  0  0  0  0  0  0  0  0
   -0.4194    0.0049    1.4171 H   0  0  0  0  0  0  0  0  0  0  0  0
    0.5360   -2.2081   -0.4400 H   0  0  0  0  0  0  0  0  0  0  0  0
   -0.1607   -2.4033    1.2929 H   0  0  0  0  0  0  0  0  0  0  0  0
   -1.8451   -2.1655   -0.9961 H   0  0  0  0  0  0  0  0  0  0  0  0
   -2.1617   -1.2376    0.5982 H   0  0  0  0  0  0  0  0  0  0  0  0
   -0.1102   -0.5315   -1.6198 H   0  0  0  0  0  0  0  0  0  0  0  0
   -0.7679    1.8379   -0.9661 H   0  0  0  0  0  0  0  0  0  0  0  0
   -1.9399    0.9752   -1.9788 H   0  0  0  0  0  0  0  0  0  0  0  0
   -3.0985    2.1839   -0.2740 H   0  0  0  0  0  0  0  0  0  0  0  0
   -2.0476    1.5334    1.0416 H   0  0  0  0  0  0  0  0  0  0  0  0
   -3.2350    0.4441    0.1728 H   0  0  0  0  0  0  0  0  0  0  0  0
  1  2  1  0
  2  3  3  0
  3  4  1  0
  4  5  1  0
  5  6  1  0
  6  7  1  0
  7  8  1  0
  8  9  1  0
  7  4  1  0
  1 10  1  0
  1 11  1  0
  1 12  1  0
  4 13  1  0
  5 14  1  0
  5 15  1  0
  6 16  1  0
  6 17  1  0
  7 18  1  0
  8 19  1  0
  8 20  1  0
  9 21  1  0
  9 22  1  0
  9 23  1  0
M  END
