
     RDKit          3D

 21 21  0  0  0  0  0  0  0  0999 V2000
    3.8875   -0.9471    0.0620 C   0  0  0  0  0  0  0  0  0  0  0  0
    2.4409   -0.7517   -0.0927 C   0  0  0  0  0  0  0  0  0  0  0  0
    1.2426   -0.5696   -0.2143 C   0  0  0  0  0  0  0  0  0  0  0  0
   -0.1848   -0.3270   -0.3599 C   0  0  0  0  0  0  0  0  0  0  0  0
   -0.8436   -0.2870    0.9996 C   0  0  0  0  0  0  0  0  0  0  0  0
   -2.3548   -0.3101    0.7323 C   0  0  0  0  0  0  0  0  0  0  0  0
   -2.6176    0.1092   -0.5756 O   0  0  0  0  0  0  0  0  0  0  0  0
   -1.9439    1.2611   -0.9069 C   0  0  0  0  0  0  0  0  0  0  0  0
   -0.4833    1.0021   -1.0224 C   0  0  0  0  0  0  0  0  0  0  0  0
    4.2791   -0.3442    0.9220 H   0  0  0  0  0  0  0  0  0  0  0  0
    4.1288   -2.0131    0.2935 H   0  0  0  0  0  0  0  0  0  0  0  0
    4.3491   -0.6506   -0.9044 H   0  0  0  0  0  0  0  0  0  0  0  0
   -0.6660   -1.1283   -0.9700 H   0  0  0  0  0  0  0  0  0  0  0  0
   -0.5449   -1.1387    1.6384 H   0  0  0  0  0  0  0  0  0  0  0  0
   -0.5335    0.6394    1.4883 H   0  0  0  0  0  0  0  0  0  0  0  0
   -2.7147   -1.3564    0.8135 H   0  0  0  0  0  0  0  0  0  0  0  0
   -2.8976    0.2985    1.4743 H   0  0  0  0  0  0  0  0  0  0  0  0
   -2.3096    1.5634   -1.9237 H   0  0  0  0  0  0  0  0  0  0  0  0
   -2.1965    2.1194   -0.2452 H   0  0  0  0  0  0  0  0  0  0  0  0
    0.0456    1.7804   -0.4144 H   0  0  0  0  0  0  0  0  0  0  0  0
   -0.0830    1.0502   -2.0507 H   0  0  0  0  0  0  0  0  0  0  0  0
  1  2  1  0
  2  3  3  0
  3  4  1  0
  4  5  1  0
  5  6  1  0
  6  7  1  0
  7  8  1  0
  8  9  1  0
  9  4  1  0
  1 10  1  0
  1 11  1  0
  1 12  1  0
  4 13  1  0
  5 14  1  0
  5 15  1  0
  6 16  1  0
  6 17  1  0
  8 18  1  0
  8 19  1  0
  9 20  1  0
  9 21  1  0
M  END
