
     RDKit          3D

 19 19  0  0  0  0  0  0  0  0999 V2000
    3.1799   -1.5500   -0.9946 C   0  0  0  0  0  0  0  0  0  0  0  0
    1.9036   -0.9231   -0.6461 C   0  0  0  0  0  0  0  0  0  0  0  0
    0.8351   -0.3964   -0.3657 C   0  0  0  0  0  0  0  0  0  0  0  0
   -0.4440    0.2313   -0.0307 C   0  0  0  0  0  0  0  0  0  0  0  0
   -1.2596   -0.7414    0.7585 C   0  0  0  0  0  0  0  0  0  0  0  0
   -2.0438   -0.1435    1.7364 O   0  0  0  0  0  0  0  0  0  0  0  0
   -2.3673    1.1436    1.2554 C   0  0  0  0  0  0  0  0  0  0  0  0
   -1.2406    1.9194    1.5028 O   0  0  0  0  0  0  0  0  0  0  0  0
   -0.2687    1.5682    0.6066 C   0  0  0  0  0  0  0  0  0  0  0  0
    3.0258   -2.5818   -1.4096 H   0  0  0  0  0  0  0  0  0  0  0  0
    3.7375   -0.9910   -1.7465 H   0  0  0  0  0  0  0  0  0  0  0  0
    3.7327   -1.6943   -0.0448 H   0  0  0  0  0  0  0  0  0  0  0  0
   -0.9669    0.3977   -1.0133 H   0  0  0  0  0  0  0  0  0  0  0  0
   -1.9619   -1.2988    0.0911 H   0  0  0  0  0  0  0  0  0  0  0  0
   -0.6481   -1.5242    1.2595 H   0  0  0  0  0  0  0  0  0  0  0  0
   -2.5074    1.1233    0.1457 H   0  0  0  0  0  0  0  0  0  0  0  0
   -3.2817    1.5353    1.7231 H   0  0  0  0  0  0  0  0  0  0  0  0
   -0.1353    2.3735   -0.1653 H   0  0  0  0  0  0  0  0  0  0  0  0
    0.7106    1.5522    1.1605 H   0  0  0  0  0  0  0  0  0  0  0  0
  1  2  1  0
  2  3  3  0
  3  4  1  0
  4  5  1  0
  5  6  1  0
  6  7  1  0
  7  8  1  0
  8  9  1  0
  9  4  1  0
  1 10  1  0
  1 11  1  0
  1 12  1  0
  4 13  1  0
  5 14  1  0
  5 15  1  0
  7 16  1  0
  7 17  1  0
  9 18  1  0
  9 19  1  0
M  END
