
     RDKit          3D

 17 17  0  0  0  0  0  0  0  0999 V2000
    3.7830    0.8942    0.7159 C   0  0  0  0  0  0  0  0  0  0  0  0
    2.4454    0.5505    0.2158 C   0  0  0  0  0  0  0  0  0  0  0  0
    1.3409    0.2536   -0.1850 C   0  0  0  0  0  0  0  0  0  0  0  0
    0.0288   -0.1138   -0.6406 C   0  0  0  0  0  0  0  0  0  0  0  0
   -0.1437   -0.6239   -1.7781 O   0  0  0  0  0  0  0  0  0  0  0  0
   -1.1782    0.0868    0.1973 C   0  0  0  0  0  0  0  0  0  0  0  0
   -2.4931    0.3745   -0.4159 C   0  0  0  0  0  0  0  0  0  0  0  0
   -2.2025   -1.0085    0.1217 C   0  0  0  0  0  0  0  0  0  0  0  0
   -2.8055   -1.4212    1.3030 O   0  0  0  0  0  0  0  0  0  0  0  0
    3.6825    1.7581    1.4041 H   0  0  0  0  0  0  0  0  0  0  0  0
    4.4697    1.1538   -0.1218 H   0  0  0  0  0  0  0  0  0  0  0  0
    4.2163    0.0467    1.3159 H   0  0  0  0  0  0  0  0  0  0  0  0
   -0.9746    0.5400    1.1925 H   0  0  0  0  0  0  0  0  0  0  0  0
   -2.6264    0.4591   -1.5055 H   0  0  0  0  0  0  0  0  0  0  0  0
   -3.2174    0.9392    0.1960 H   0  0  0  0  0  0  0  0  0  0  0  0
   -2.0800   -1.8170   -0.6433 H   0  0  0  0  0  0  0  0  0  0  0  0
   -2.2454   -2.0720    1.8020 H   0  0  0  0  0  0  0  0  0  0  0  0
  1  2  1  0
  2  3  3  0
  3  4  1  0
  4  5  2  0
  4  6  1  0
  6  7  1  0
  7  8  1  0
  8  9  1  0
  8  6  1  0
  1 10  1  0
  1 11  1  0
  1 12  1  0
  6 13  1  0
  7 14  1  0
  7 15  1  0
  8 16  1  0
  9 17  1  0
M  END
