
     RDKit          3D

 19 20  0  0  0  0  0  0  0  0999 V2000
    3.5744   -1.0356    0.4472 C   0  0  0  0  0  0  0  0  0  0  0  0
    2.1468   -0.9744    0.0748 C   0  0  0  0  0  0  0  0  0  0  0  0
    0.9835   -0.9053   -0.2227 C   0  0  0  0  0  0  0  0  0  0  0  0
   -0.4409   -0.7993   -0.5746 C   0  0  0  0  0  0  0  0  0  0  0  0
   -0.7131    0.2492   -1.6548 C   0  0  0  0  0  0  0  0  0  0  0  0
   -1.8023    0.7897   -0.7643 C   0  0  0  0  0  0  0  0  0  0  0  0
   -1.4081    1.3512    0.5369 C   0  0  0  0  0  0  0  0  0  0  0  0
   -2.4414    1.8498    1.3224 O   0  0  0  0  0  0  0  0  0  0  0  0
   -1.3061   -0.1077    0.4136 C   0  0  0  0  0  0  0  0  0  0  0  0
    3.7070   -1.7490    1.3022 H   0  0  0  0  0  0  0  0  0  0  0  0
    4.2042   -1.3299   -0.4176 H   0  0  0  0  0  0  0  0  0  0  0  0
    3.8686   -0.0173    0.7737 H   0  0  0  0  0  0  0  0  0  0  0  0
   -0.7981   -1.8200   -0.8747 H   0  0  0  0  0  0  0  0  0  0  0  0
   -1.0295   -0.1873   -2.6083 H   0  0  0  0  0  0  0  0  0  0  0  0
    0.1519    0.9405   -1.6886 H   0  0  0  0  0  0  0  0  0  0  0  0
   -2.8253    0.6383   -1.0938 H   0  0  0  0  0  0  0  0  0  0  0  0
   -0.4725    1.9341    0.6220 H   0  0  0  0  0  0  0  0  0  0  0  0
   -3.2879    1.9292    0.7804 H   0  0  0  0  0  0  0  0  0  0  0  0
   -2.1112   -0.7565    0.8568 H   0  0  0  0  0  0  0  0  0  0  0  0
  1  2  1  0
  2  3  3  0
  3  4  1  0
  4  5  1  0
  5  6  1  0
  6  7  1  0
  7  8  1  0
  7  9  1  0
  9  4  1  0
  9  6  1  0
  1 10  1  0
  1 11  1  0
  1 12  1  0
  4 13  1  0
  5 14  1  0
  5 15  1  0
  6 16  1  0
  7 17  1  0
  8 18  1  0
  9 19  1  0
M  END
