
     RDKit          3D

 21 21  0  0  0  0  0  0  0  0999 V2000
    3.5467    0.5409    0.3130 C   0  0  0  0  0  0  0  0  0  0  0  0
    2.2147   -0.0232    0.5686 C   0  0  0  0  0  0  0  0  0  0  0  0
    1.1102   -0.4799    0.7983 C   0  0  0  0  0  0  0  0  0  0  0  0
   -0.2313   -1.0177    1.0553 C   0  0  0  0  0  0  0  0  0  0  0  0
   -1.1797   -0.2087    0.1660 C   0  0  0  0  0  0  0  0  0  0  0  0
   -2.5876   -0.6938    0.3644 C   0  0  0  0  0  0  0  0  0  0  0  0
   -0.7047   -0.0903   -1.2453 C   0  0  0  0  0  0  0  0  0  0  0  0
   -0.7380    1.4171   -0.9718 C   0  0  0  0  0  0  0  0  0  0  0  0
   -0.9942    1.1565    0.3748 O   0  0  0  0  0  0  0  0  0  0  0  0
    3.9838    0.8309    1.3037 H   0  0  0  0  0  0  0  0  0  0  0  0
    3.4034    1.4348   -0.3340 H   0  0  0  0  0  0  0  0  0  0  0  0
    4.2100   -0.1854   -0.1991 H   0  0  0  0  0  0  0  0  0  0  0  0
   -0.5284   -0.9040    2.0996 H   0  0  0  0  0  0  0  0  0  0  0  0
   -0.2819   -2.0931    0.7186 H   0  0  0  0  0  0  0  0  0  0  0  0
   -3.3535   -0.0334   -0.0538 H   0  0  0  0  0  0  0  0  0  0  0  0
   -2.7342   -0.9462    1.4302 H   0  0  0  0  0  0  0  0  0  0  0  0
   -2.6733   -1.6623   -0.2075 H   0  0  0  0  0  0  0  0  0  0  0  0
   -1.4121   -0.3978   -2.0383 H   0  0  0  0  0  0  0  0  0  0  0  0
    0.3353   -0.4643   -1.4321 H   0  0  0  0  0  0  0  0  0  0  0  0
    0.2073    1.9359   -1.1898 H   0  0  0  0  0  0  0  0  0  0  0  0
   -1.5924    1.8840   -1.5208 H   0  0  0  0  0  0  0  0  0  0  0  0
  1  2  1  0
  2  3  3  0
  3  4  1  0
  4  5  1  0
  5  6  1  0
  5  7  1  0
  7  8  1  0
  8  9  1  0
  9  5  1  0
  1 10  1  0
  1 11  1  0
  1 12  1  0
  4 13  1  0
  4 14  1  0
  6 15  1  0
  6 16  1  0
  6 17  1  0
  7 18  1  0
  7 19  1  0
  8 20  1  0
  8 21  1  0
M  END
