
     RDKit          3D

 18 17  0  0  0  0  0  0  0  0999 V2000
    3.2283   -0.2097    0.1950 C   0  0  0  0  0  0  0  0  0  0  0  0
    1.7660   -0.0062    0.1918 C   0  0  0  0  0  0  0  0  0  0  0  0
    0.5596    0.1457    0.2033 C   0  0  0  0  0  0  0  0  0  0  0  0
   -0.8927    0.3212    0.2007 C   0  0  0  0  0  0  0  0  0  0  0  0
   -1.2844    1.6354   -0.4705 C   0  0  0  0  0  0  0  0  0  0  0  0
   -1.3221    0.3486    1.5243 O   0  0  0  0  0  0  0  0  0  0  0  0
   -1.4895   -0.8444   -0.5568 C   0  0  0  0  0  0  0  0  0  0  0  0
   -1.0895   -2.0122    0.0758 O   0  0  0  0  0  0  0  0  0  0  0  0
    3.3986   -1.2926   -0.0018 H   0  0  0  0  0  0  0  0  0  0  0  0
    3.7329    0.4579   -0.5080 H   0  0  0  0  0  0  0  0  0  0  0  0
    3.6195    0.0539    1.2124 H   0  0  0  0  0  0  0  0  0  0  0  0
   -2.2554    1.5350   -1.0035 H   0  0  0  0  0  0  0  0  0  0  0  0
   -0.5325    1.8936   -1.2648 H   0  0  0  0  0  0  0  0  0  0  0  0
   -1.2664    2.4801    0.2449 H   0  0  0  0  0  0  0  0  0  0  0  0
   -0.6874   -0.2030    2.0458 H   0  0  0  0  0  0  0  0  0  0  0  0
   -2.5925   -0.7572   -0.6546 H   0  0  0  0  0  0  0  0  0  0  0  0
   -1.0926   -0.8690   -1.5906 H   0  0  0  0  0  0  0  0  0  0  0  0
   -1.7999   -2.6770    0.1566 H   0  0  0  0  0  0  0  0  0  0  0  0
  1  2  1  0
  2  3  3  0
  3  4  1  0
  4  5  1  0
  4  6  1  0
  4  7  1  0
  7  8  1  0
  1  9  1  0
  1 10  1  0
  1 11  1  0
  5 12  1  0
  5 13  1  0
  5 14  1  0
  6 15  1  0
  7 16  1  0
  7 17  1  0
  8 18  1  0
M  END
