
     RDKit          3D

 16 15  0  0  0  0  0  0  0  0999 V2000
   -3.7799    0.2824    0.9027 C   0  0  0  0  0  0  0  0  0  0  0  0
   -2.3886    0.5825    0.5381 C   0  0  0  0  0  0  0  0  0  0  0  0
   -1.2494    0.8290    0.2202 C   0  0  0  0  0  0  0  0  0  0  0  0
    0.1105    1.1241   -0.1755 C   0  0  0  0  0  0  0  0  0  0  0  0
    0.4921    2.2670   -0.4654 O   0  0  0  0  0  0  0  0  0  0  0  0
    1.0703   -0.0034   -0.2296 C   0  0  0  0  0  0  0  0  0  0  0  0
    2.2948    0.4669   -0.6206 O   0  0  0  0  0  0  0  0  0  0  0  0
    3.2729   -0.5023   -0.7061 C   0  0  0  0  0  0  0  0  0  0  0  0
   -4.4843    0.8236    0.2358 H   0  0  0  0  0  0  0  0  0  0  0  0
   -3.9963    0.6546    1.9394 H   0  0  0  0  0  0  0  0  0  0  0  0
   -3.8984   -0.8114    0.8116 H   0  0  0  0  0  0  0  0  0  0  0  0
    0.6389   -0.7515   -0.9328 H   0  0  0  0  0  0  0  0  0  0  0  0
    1.1404   -0.5240    0.7679 H   0  0  0  0  0  0  0  0  0  0  0  0
    3.0179   -1.3040   -1.4391 H   0  0  0  0  0  0  0  0  0  0  0  0
    4.1896   -0.0073   -1.1238 H   0  0  0  0  0  0  0  0  0  0  0  0
    3.5697   -0.9041    0.2773 H   0  0  0  0  0  0  0  0  0  0  0  0
  1  2  1  0
  2  3  3  0
  3  4  1  0
  4  5  2  0
  4  6  1  0
  6  7  1  0
  7  8  1  0
  1  9  1  0
  1 10  1  0
  1 11  1  0
  6 12  1  0
  6 13  1  0
  8 14  1  0
  8 15  1  0
  8 16  1  0
M  END
