
     RDKit          3D

 15 14  0  0  0  0  0  0  0  0999 V2000
    2.0913    0.9481   -0.2715 C   0  0  0  0  0  0  0  0  0  0  0  0
    1.8674    0.8118   -0.2232 C   0  0  0  0  0  0  0  0  0  0  0  0
    1.6546    0.6835   -0.1806 C   0  0  0  0  0  0  0  0  0  0  0  0
    0.3179   -0.1216    0.1156 C   0  0  0  0  0  0  0  0  0  0  0  0
   -0.2644   -0.4642    0.2544 C   0  0  0  0  0  0  0  0  0  0  0  0
   -2.1347   -1.5610    0.6695 C   0  0  0  0  0  0  0  0  0  0  0  0
   -2.1701   -0.6952    1.5969 O   0  0  0  0  0  0  0  0  0  0  0  0
   -2.4369   -0.4443   -0.8072 C   0  0  0  0  0  0  0  0  0  0  0  0
   -3.5464   -0.7587   -0.6957 O   0  0  0  0  0  0  0  0  0  0  0  0
    2.9331    2.2117   -0.7303 H   0  0  0  0  0  0  0  0  0  0  0  0
    3.5333    1.0552    0.4622 H   0  0  0  0  0  0  0  0  0  0  0  0
    3.3182    0.5035   -1.2322 H   0  0  0  0  0  0  0  0  0  0  0  0
   -1.4568   -2.1689    0.1528 H   0  0  0  0  0  0  0  0  0  0  0  0
   -2.2764    0.2646    1.5215 H   0  0  0  0  0  0  0  0  0  0  0  0
   -1.4302   -0.2645   -0.7690 H   0  0  0  0  0  0  0  0  0  0  0  0
  1  2  1  0
  2  3  3  0
  3  4  1  0
  4  5  3  0
  5  6  1  0
  6  7  1  0
  6  8  1  0
  8  9  2  0
  1 10  1  0
  1 11  1  0
  1 12  1  0
  6 13  1  0
  7 14  1  0
  8 15  1  0
M  END
