
     RDKit          3D

 19 19  0  0  0  0  0  0  0  0999 V2000
    3.8330    0.3760   -0.0576 C   0  0  0  0  0  0  0  0  0  0  0  0
    2.3985    0.1079    0.1124 C   0  0  0  0  0  0  0  0  0  0  0  0
    1.2291   -0.1052    0.2612 C   0  0  0  0  0  0  0  0  0  0  0  0
   -0.1660   -0.3748    0.4478 C   0  0  0  0  0  0  0  0  0  0  0  0
   -0.6033   -1.5251   -0.2246 O   0  0  0  0  0  0  0  0  0  0  0  0
   -1.9729   -1.4945   -0.1966 C   0  0  0  0  0  0  0  0  0  0  0  0
   -2.4053   -0.0582   -0.0295 C   0  0  0  0  0  0  0  0  0  0  0  0
   -1.0664    0.6671   -0.2195 C   0  0  0  0  0  0  0  0  0  0  0  0
   -1.0347    1.8776    0.4134 O   0  0  0  0  0  0  0  0  0  0  0  0
    4.2891    0.7204    0.9001 H   0  0  0  0  0  0  0  0  0  0  0  0
    3.9737    1.1762   -0.8373 H   0  0  0  0  0  0  0  0  0  0  0  0
    4.3670   -0.5465   -0.3710 H   0  0  0  0  0  0  0  0  0  0  0  0
   -0.4822   -0.4838    1.4997 H   0  0  0  0  0  0  0  0  0  0  0  0
   -2.4501   -1.9606   -1.0904 H   0  0  0  0  0  0  0  0  0  0  0  0
   -2.3140   -2.0805    0.7004 H   0  0  0  0  0  0  0  0  0  0  0  0
   -3.1578    0.2705   -0.7448 H   0  0  0  0  0  0  0  0  0  0  0  0
   -2.6977    0.1429    1.0425 H   0  0  0  0  0  0  0  0  0  0  0  0
   -0.8006    0.7081   -1.3035 H   0  0  0  0  0  0  0  0  0  0  0  0
   -0.9395    2.5824   -0.3027 H   0  0  0  0  0  0  0  0  0  0  0  0
  1  2  1  0
  2  3  3  0
  3  4  1  0
  4  5  1  0
  5  6  1  0
  6  7  1  0
  7  8  1  0
  8  9  1  0
  8  4  1  0
  1 10  1  0
  1 11  1  0
  1 12  1  0
  4 13  1  0
  6 14  1  0
  6 15  1  0
  7 16  1  0
  7 17  1  0
  8 18  1  0
  9 19  1  0
M  END
