
     RDKit          3D

 17 18  0  0  0  0  0  0  0  0999 V2000
    3.2852   -0.9830    0.2449 C   0  0  0  0  0  0  0  0  0  0  0  0
    1.9874   -0.3152    0.0960 C   0  0  0  0  0  0  0  0  0  0  0  0
    0.9132    0.2218   -0.0110 C   0  0  0  0  0  0  0  0  0  0  0  0
   -0.3775    0.8534   -0.1384 C   0  0  0  0  0  0  0  0  0  0  0  0
   -1.5026   -0.0516   -0.5862 C   0  0  0  0  0  0  0  0  0  0  0  0
   -2.4025    0.8853    0.1713 C   0  0  0  0  0  0  0  0  0  0  0  0
   -1.2238    0.6563    1.0829 C   0  0  0  0  0  0  0  0  0  0  0  0
   -1.3160   -0.7549    0.6721 C   0  0  0  0  0  0  0  0  0  0  0  0
   -1.2449   -1.8165    1.2470 O   0  0  0  0  0  0  0  0  0  0  0  0
    3.4419   -1.3409    1.2825 H   0  0  0  0  0  0  0  0  0  0  0  0
    4.1259   -0.3012   -0.0371 H   0  0  0  0  0  0  0  0  0  0  0  0
    3.3099   -1.8236   -0.4794 H   0  0  0  0  0  0  0  0  0  0  0  0
   -0.3984    1.8656   -0.5627 H   0  0  0  0  0  0  0  0  0  0  0  0
   -1.6417   -0.4069   -1.5101 H   0  0  0  0  0  0  0  0  0  0  0  0
   -3.3480    0.3918    0.4764 H   0  0  0  0  0  0  0  0  0  0  0  0
   -2.5222    1.8892   -0.2295 H   0  0  0  0  0  0  0  0  0  0  0  0
   -1.0860    1.0304    1.9972 H   0  0  0  0  0  0  0  0  0  0  0  0
  1  2  1  0
  2  3  3  0
  3  4  1  0
  4  5  1  0
  5  6  1  0
  6  7  1  0
  7  8  1  0
  8  9  2  0
  7  4  1  0
  8  5  1  0
  1 10  1  0
  1 11  1  0
  1 12  1  0
  4 13  1  0
  5 14  1  0
  6 15  1  0
  6 16  1  0
  7 17  1  0
M  END
