
     RDKit          3D

 23 23  0  0  0  0  0  0  0  0999 V2000
    4.5888   -0.8622    0.0970 C   0  0  0  0  0  0  0  0  0  0  0  0
    3.2299   -0.3689   -0.0872 C   0  0  0  0  0  0  0  0  0  0  0  0
    2.0897    0.0305   -0.2575 C   0  0  0  0  0  0  0  0  0  0  0  0
    0.7316    0.5195   -0.4731 C   0  0  0  0  0  0  0  0  0  0  0  0
   -0.2471   -0.3067    0.3096 C   0  0  0  0  0  0  0  0  0  0  0  0
   -1.6546    0.2011    0.0854 C   0  0  0  0  0  0  0  0  0  0  0  0
   -1.8944    1.6317    0.4935 C   0  0  0  0  0  0  0  0  0  0  0  0
   -2.4429   -0.4486   -0.9704 C   0  0  0  0  0  0  0  0  0  0  0  0
   -2.8088   -0.7314    0.4337 C   0  0  0  0  0  0  0  0  0  0  0  0
    4.9070   -1.3789   -0.8237 H   0  0  0  0  0  0  0  0  0  0  0  0
    5.2900   -0.0493    0.3281 H   0  0  0  0  0  0  0  0  0  0  0  0
    4.5390   -1.5969    0.9466 H   0  0  0  0  0  0  0  0  0  0  0  0
    0.4485    0.4903   -1.5619 H   0  0  0  0  0  0  0  0  0  0  0  0
    0.7149    1.5752   -0.0902 H   0  0  0  0  0  0  0  0  0  0  0  0
   -0.1727   -1.3661   -0.0680 H   0  0  0  0  0  0  0  0  0  0  0  0
   -0.0208   -0.2422    1.3883 H   0  0  0  0  0  0  0  0  0  0  0  0
   -1.1658    2.3399    0.1089 H   0  0  0  0  0  0  0  0  0  0  0  0
   -1.8793    1.6763    1.6007 H   0  0  0  0  0  0  0  0  0  0  0  0
   -2.9138    1.9348    0.1803 H   0  0  0  0  0  0  0  0  0  0  0  0
   -3.1187    0.1541   -1.5913 H   0  0  0  0  0  0  0  0  0  0  0  0
   -1.9566   -1.2995   -1.5209 H   0  0  0  0  0  0  0  0  0  0  0  0
   -2.4927   -1.6295    0.9714 H   0  0  0  0  0  0  0  0  0  0  0  0
   -3.7713   -0.2731    0.7706 H   0  0  0  0  0  0  0  0  0  0  0  0
  1  2  1  0
  2  3  3  0
  3  4  1  0
  4  5  1  0
  5  6  1  0
  6  7  1  0
  6  8  1  0
  8  9  1  0
  9  6  1  0
  1 10  1  0
  1 11  1  0
  1 12  1  0
  4 13  1  0
  4 14  1  0
  5 15  1  0
  5 16  1  0
  7 17  1  0
  7 18  1  0
  7 19  1  0
  8 20  1  0
  8 21  1  0
  9 22  1  0
  9 23  1  0
M  END
