
     RDKit          3D

 21 20  0  0  0  0  0  0  0  0999 V2000
    3.7852   -0.3077   -3.2851 C   0  0  0  0  0  0  0  0  0  0  0  0
    2.7601   -0.2183   -2.4387 C   0  0  0  0  0  0  0  0  0  0  0  0
    1.7358   -0.1235   -1.5656 C   0  0  0  0  0  0  0  0  0  0  0  0
    0.8510   -0.0599   -0.8013 C   0  0  0  0  0  0  0  0  0  0  0  0
   -0.2054    0.0343    0.1345 C   0  0  0  0  0  0  0  0  0  0  0  0
   -1.1935    0.1152    0.9935 C   0  0  0  0  0  0  0  0  0  0  0  0
   -2.2987   -0.9238    0.7501 C   0  0  0  0  0  0  0  0  0  0  0  0
   -0.6495   -0.2144    2.4500 C   0  0  0  0  0  0  0  0  0  0  0  0
   -1.8079    1.5181    1.0996 C   0  0  0  0  0  0  0  0  0  0  0  0
    4.8319   -0.1902   -2.8126 H   0  0  0  0  0  0  0  0  0  0  0  0
    3.7399    0.4975   -4.1007 H   0  0  0  0  0  0  0  0  0  0  0  0
    3.8847   -1.2497   -3.9262 H   0  0  0  0  0  0  0  0  0  0  0  0
   -1.8583   -1.9585    0.9097 H   0  0  0  0  0  0  0  0  0  0  0  0
   -2.6558   -0.8469   -0.2897 H   0  0  0  0  0  0  0  0  0  0  0  0
   -3.1804   -0.7662    1.3827 H   0  0  0  0  0  0  0  0  0  0  0  0
   -1.5559   -0.3770    3.0362 H   0  0  0  0  0  0  0  0  0  0  0  0
   -0.1679    0.7182    2.7602 H   0  0  0  0  0  0  0  0  0  0  0  0
    0.0150   -1.0943    2.3409 H   0  0  0  0  0  0  0  0  0  0  0  0
   -1.5379    1.9605    2.0525 H   0  0  0  0  0  0  0  0  0  0  0  0
   -2.9251    1.3418    1.1108 H   0  0  0  0  0  0  0  0  0  0  0  0
   -1.5672    2.1450    0.1993 H   0  0  0  0  0  0  0  0  0  0  0  0
  1  2  1  0
  2  3  3  0
  3  4  1  0
  4  5  3  0
  5  6  1  0
  6  7  1  0
  6  8  1  0
  6  9  1  0
  1 10  1  0
  1 11  1  0
  1 12  1  0
  7 13  1  0
  7 14  1  0
  7 15  1  0
  8 16  1  0
  8 17  1  0
  8 18  1  0
  9 19  1  0
  9 20  1  0
  9 21  1  0
M  END
