
     RDKit          3D

 21 21  0  0  0  0  0  0  0  0999 V2000
    3.9648    0.8153    0.3151 C   0  0  0  0  0  0  0  0  0  0  0  0
    2.5257    0.4653    0.3346 C   0  0  0  0  0  0  0  0  0  0  0  0
    1.3492    0.2001    0.3449 C   0  0  0  0  0  0  0  0  0  0  0  0
   -0.0926   -0.1067    0.3410 C   0  0  0  0  0  0  0  0  0  0  0  0
   -0.4981   -0.9494    1.5276 C   0  0  0  0  0  0  0  0  0  0  0  0
   -0.5780   -0.6380   -0.9912 C   0  0  0  0  0  0  0  0  0  0  0  0
   -1.5505    0.5165   -0.9999 C   0  0  0  0  0  0  0  0  0  0  0  0
   -2.9810    0.1781   -0.7369 C   0  0  0  0  0  0  0  0  0  0  0  0
   -0.8551    1.0211    0.1223 O   0  0  0  0  0  0  0  0  0  0  0  0
    4.3406    1.0227    1.3286 H   0  0  0  0  0  0  0  0  0  0  0  0
    4.4940   -0.0777   -0.0801 H   0  0  0  0  0  0  0  0  0  0  0  0
    4.0833    1.7048   -0.3057 H   0  0  0  0  0  0  0  0  0  0  0  0
   -1.4085   -0.5385    1.9871 H   0  0  0  0  0  0  0  0  0  0  0  0
   -0.6657   -1.9907    1.1319 H   0  0  0  0  0  0  0  0  0  0  0  0
    0.3381   -1.0092    2.2253 H   0  0  0  0  0  0  0  0  0  0  0  0
   -1.1138   -1.5940   -0.8717 H   0  0  0  0  0  0  0  0  0  0  0  0
    0.1753   -0.6102   -1.8106 H   0  0  0  0  0  0  0  0  0  0  0  0
   -1.4621    1.1798   -1.8931 H   0  0  0  0  0  0  0  0  0  0  0  0
   -3.1480    0.2855    0.3739 H   0  0  0  0  0  0  0  0  0  0  0  0
   -3.2765   -0.8375   -1.0684 H   0  0  0  0  0  0  0  0  0  0  0  0
   -3.6410    0.9626   -1.1897 H   0  0  0  0  0  0  0  0  0  0  0  0
  1  2  1  0
  2  3  3  0
  3  4  1  0
  4  5  1  0
  4  6  1  0
  6  7  1  0
  7  8  1  0
  7  9  1  0
  9  4  1  0
  1 10  1  0
  1 11  1  0
  1 12  1  0
  5 13  1  0
  5 14  1  0
  5 15  1  0
  6 16  1  0
  6 17  1  0
  7 18  1  0
  8 19  1  0
  8 20  1  0
  8 21  1  0
M  END
