
     RDKit          3D

 16 17  0  0  0  0  0  0  0  0999 V2000
    3.4986    0.0659   -0.7945 C   0  0  0  0  0  0  0  0  0  0  0  0
    2.0875    0.2804   -0.4608 C   0  0  0  0  0  0  0  0  0  0  0  0
    0.9086    0.4478   -0.1919 C   0  0  0  0  0  0  0  0  0  0  0  0
   -0.5105    0.6612    0.1112 C   0  0  0  0  0  0  0  0  0  0  0  0
   -1.4670   -0.1999   -0.6032 C   0  0  0  0  0  0  0  0  0  0  0  0
   -2.9119   -0.0859   -0.1433 C   0  0  0  0  0  0  0  0  0  0  0  0
   -2.5114   -0.3357    1.1843 O   0  0  0  0  0  0  0  0  0  0  0  0
   -1.1934   -0.4513    0.8228 C   0  0  0  0  0  0  0  0  0  0  0  0
    4.1086   -0.1070    0.1303 H   0  0  0  0  0  0  0  0  0  0  0  0
    3.9091    1.0005   -1.2439 H   0  0  0  0  0  0  0  0  0  0  0  0
    3.6345   -0.7874   -1.4970 H   0  0  0  0  0  0  0  0  0  0  0  0
   -0.8515    1.6946    0.3428 H   0  0  0  0  0  0  0  0  0  0  0  0
   -1.2040   -0.8743   -1.4116 H   0  0  0  0  0  0  0  0  0  0  0  0
   -3.5661   -0.8892   -0.4986 H   0  0  0  0  0  0  0  0  0  0  0  0
   -3.3075    0.9469   -0.1947 H   0  0  0  0  0  0  0  0  0  0  0  0
   -0.6238   -1.3666    1.1325 H   0  0  0  0  0  0  0  0  0  0  0  0
  1  2  1  0
  2  3  3  0
  3  4  1  0
  4  5  1  0
  5  6  1  0
  6  7  1  0
  7  8  1  0
  8  4  1  0
  8  5  1  0
  1  9  1  0
  1 10  1  0
  1 11  1  0
  4 12  1  0
  5 13  1  0
  6 14  1  0
  6 15  1  0
  8 16  1  0
M  END
