
     RDKit          3D

 19 20  0  0  0  0  0  0  0  0999 V2000
    2.3245    2.7679    0.9655 C   0  0  0  0  0  0  0  0  0  0  0  0
    1.5254    1.7697    0.4689 C   0  0  0  0  0  0  0  0  0  0  0  0
    0.7323    0.7710   -0.0469 C   0  0  0  0  0  0  0  0  0  0  0  0
   -0.0113   -0.1741   -0.5485 C   0  0  0  0  0  0  0  0  0  0  0  0
    0.7260   -1.6149   -0.6652 C   0  0  0  0  0  0  0  0  0  0  0  0
   -0.5900   -2.0942   -0.1851 C   0  0  0  0  0  0  0  0  0  0  0  0
   -1.2611   -0.8534   -0.6254 C   0  0  0  0  0  0  0  0  0  0  0  0
   -2.5362   -0.3931   -0.0262 C   0  0  0  0  0  0  0  0  0  0  0  0
   -0.7976   -0.1044   -1.6962 O   0  0  0  0  0  0  0  0  0  0  0  0
    3.1858    2.4329    1.5734 H   0  0  0  0  0  0  0  0  0  0  0  0
    1.7208    3.4438    1.7059 H   0  0  0  0  0  0  0  0  0  0  0  0
    2.6584    3.4684    0.1260 H   0  0  0  0  0  0  0  0  0  0  0  0
    0.9415   -1.8262   -1.7102 H   0  0  0  0  0  0  0  0  0  0  0  0
    1.5689   -1.6123    0.0282 H   0  0  0  0  0  0  0  0  0  0  0  0
   -0.5906   -2.0633    0.9575 H   0  0  0  0  0  0  0  0  0  0  0  0
   -0.9050   -3.0770   -0.5340 H   0  0  0  0  0  0  0  0  0  0  0  0
   -2.4327    0.3425    0.7724 H   0  0  0  0  0  0  0  0  0  0  0  0
   -3.1346   -1.2624    0.3086 H   0  0  0  0  0  0  0  0  0  0  0  0
   -3.1247    0.0789   -0.8686 H   0  0  0  0  0  0  0  0  0  0  0  0
  1  2  1  0
  2  3  3  0
  3  4  1  0
  4  5  1  0
  5  6  1  0
  6  7  1  0
  7  8  1  0
  7  9  1  0
  7  4  1  0
  9  4  1  0
  1 10  1  0
  1 11  1  0
  1 12  1  0
  5 13  1  0
  5 14  1  0
  6 15  1  0
  6 16  1  0
  8 17  1  0
  8 18  1  0
  8 19  1  0
M  END
