
     RDKit          3D

 21 20  0  0  0  0  0  0  0  0999 V2000
    4.3022    0.5234   -0.6659 C   0  0  0  0  0  0  0  0  0  0  0  0
    2.9586    0.1904   -0.1901 C   0  0  0  0  0  0  0  0  0  0  0  0
    1.8611   -0.1016    0.2087 C   0  0  0  0  0  0  0  0  0  0  0  0
    0.4881   -0.4803    0.7033 C   0  0  0  0  0  0  0  0  0  0  0  0
   -0.2043   -0.8369   -0.4181 O   0  0  0  0  0  0  0  0  0  0  0  0
   -1.4655   -1.2983   -0.2486 C   0  0  0  0  0  0  0  0  0  0  0  0
   -2.3661   -0.2899    0.3931 C   0  0  0  0  0  0  0  0  0  0  0  0
   -2.3272    0.9739   -0.4497 C   0  0  0  0  0  0  0  0  0  0  0  0
   -2.0024    0.0616    1.6666 O   0  0  0  0  0  0  0  0  0  0  0  0
    4.3089    1.4861   -1.2001 H   0  0  0  0  0  0  0  0  0  0  0  0
    5.0285    0.5938    0.1885 H   0  0  0  0  0  0  0  0  0  0  0  0
    4.6379   -0.3263   -1.2856 H   0  0  0  0  0  0  0  0  0  0  0  0
    0.6376   -1.2792    1.4439 H   0  0  0  0  0  0  0  0  0  0  0  0
    0.0855    0.4421    1.2279 H   0  0  0  0  0  0  0  0  0  0  0  0
   -1.8640   -1.5068   -1.2927 H   0  0  0  0  0  0  0  0  0  0  0  0
   -1.4914   -2.2791    0.3283 H   0  0  0  0  0  0  0  0  0  0  0  0
   -3.4032   -0.6950    0.4182 H   0  0  0  0  0  0  0  0  0  0  0  0
   -1.3158    1.1630   -0.8268 H   0  0  0  0  0  0  0  0  0  0  0  0
   -3.0154    0.7968   -1.3110 H   0  0  0  0  0  0  0  0  0  0  0  0
   -2.6323    1.8683    0.1418 H   0  0  0  0  0  0  0  0  0  0  0  0
   -2.2207    0.9940    1.9056 H   0  0  0  0  0  0  0  0  0  0  0  0
  1  2  1  0
  2  3  3  0
  3  4  1  0
  4  5  1  0
  5  6  1  0
  6  7  1  0
  7  8  1  0
  7  9  1  0
  1 10  1  0
  1 11  1  0
  1 12  1  0
  4 13  1  0
  4 14  1  0
  6 15  1  0
  6 16  1  0
  7 17  1  0
  8 18  1  0
  8 19  1  0
  8 20  1  0
  9 21  1  0
M  END
