
     RDKit          3D

 16 15  0  0  0  0  0  0  0  0999 V2000
    2.9410   -0.4558    0.7315 C   0  0  0  0  0  0  0  0  0  0  0  0
    1.5066   -0.1102    0.5831 C   0  0  0  0  0  0  0  0  0  0  0  0
    0.3429    0.1763    0.4424 C   0  0  0  0  0  0  0  0  0  0  0  0
   -1.0775    0.5225    0.2467 C   0  0  0  0  0  0  0  0  0  0  0  0
   -1.9763   -0.4785    0.8353 C   0  0  0  0  0  0  0  0  0  0  0  0
   -2.8134   -0.9922    0.1214 O   0  0  0  0  0  0  0  0  0  0  0  0
   -1.2753    0.6783   -1.2476 C   0  0  0  0  0  0  0  0  0  0  0  0
   -0.9673   -0.5052   -1.9109 O   0  0  0  0  0  0  0  0  0  0  0  0
    3.5364    0.4602    0.9744 H   0  0  0  0  0  0  0  0  0  0  0  0
    3.0766   -1.2114    1.5399 H   0  0  0  0  0  0  0  0  0  0  0  0
    3.2446   -0.9306   -0.2176 H   0  0  0  0  0  0  0  0  0  0  0  0
   -1.2081    1.5163    0.7320 H   0  0  0  0  0  0  0  0  0  0  0  0
   -1.9394   -0.7871    1.8654 H   0  0  0  0  0  0  0  0  0  0  0  0
   -2.3051    1.0117   -1.4796 H   0  0  0  0  0  0  0  0  0  0  0  0
   -0.5302    1.4672   -1.5625 H   0  0  0  0  0  0  0  0  0  0  0  0
   -0.5555   -0.3615   -2.7789 H   0  0  0  0  0  0  0  0  0  0  0  0
  1  2  1  0
  2  3  3  0
  3  4  1  0
  4  5  1  0
  5  6  2  0
  4  7  1  0
  7  8  1  0
  1  9  1  0
  1 10  1  0
  1 11  1  0
  4 12  1  0
  5 13  1  0
  7 14  1  0
  7 15  1  0
  8 16  1  0
M  END
