
     RDKit          3D

 14 14  0  0  0  0  0  0  0  0999 V2000
    3.3489    2.1548    0.6371 C   0  0  0  0  0  0  0  0  0  0  0  0
    2.2028    1.3149    0.2653 C   0  0  0  0  0  0  0  0  0  0  0  0
    1.2800    0.6558   -0.0323 C   0  0  0  0  0  0  0  0  0  0  0  0
    0.1173   -0.1615   -0.3815 C   0  0  0  0  0  0  0  0  0  0  0  0
   -0.8123   -0.7938   -0.6684 C   0  0  0  0  0  0  0  0  0  0  0  0
   -2.0149   -1.6110   -1.0125 C   0  0  0  0  0  0  0  0  0  0  0  0
   -3.1692   -1.6353   -0.0344 C   0  0  0  0  0  0  0  0  0  0  0  0
   -3.1794   -0.9072   -1.2534 O   0  0  0  0  0  0  0  0  0  0  0  0
    4.1487    1.5199    1.0689 H   0  0  0  0  0  0  0  0  0  0  0  0
    3.0168    2.8876    1.4267 H   0  0  0  0  0  0  0  0  0  0  0  0
    3.6802    2.7327   -0.2288 H   0  0  0  0  0  0  0  0  0  0  0  0
   -1.8085   -2.5800   -1.4737 H   0  0  0  0  0  0  0  0  0  0  0  0
   -3.8327   -2.5193   -0.0025 H   0  0  0  0  0  0  0  0  0  0  0  0
   -2.9776   -1.0575    0.8835 H   0  0  0  0  0  0  0  0  0  0  0  0
  1  2  1  0
  2  3  3  0
  3  4  1  0
  4  5  3  0
  5  6  1  0
  6  7  1  0
  7  8  1  0
  8  6  1  0
  1  9  1  0
  1 10  1  0
  1 11  1  0
  6 12  1  0
  7 13  1  0
  7 14  1  0
M  END
