
     RDKit          3D

 21 21  0  0  0  0  0  0  0  0999 V2000
    4.0862    0.5763    1.0941 C   0  0  0  0  0  0  0  0  0  0  0  0
    2.7558    0.3435    0.4901 C   0  0  0  0  0  0  0  0  0  0  0  0
    1.6852    0.1663   -0.0018 C   0  0  0  0  0  0  0  0  0  0  0  0
    0.3771   -0.0680   -0.5988 C   0  0  0  0  0  0  0  0  0  0  0  0
   -0.2179   -1.3292    0.0416 C   0  0  0  0  0  0  0  0  0  0  0  0
   -1.6851   -1.1592   -0.3442 C   0  0  0  0  0  0  0  0  0  0  0  0
   -1.7475    0.3063   -0.6567 C   0  0  0  0  0  0  0  0  0  0  0  0
   -2.9215    0.9915    0.0023 C   0  0  0  0  0  0  0  0  0  0  0  0
   -0.5626    0.8800   -0.1962 O   0  0  0  0  0  0  0  0  0  0  0  0
    4.3380    1.6384    0.8774 H   0  0  0  0  0  0  0  0  0  0  0  0
    4.8617   -0.0302    0.5614 H   0  0  0  0  0  0  0  0  0  0  0  0
    4.0653    0.3305    2.1588 H   0  0  0  0  0  0  0  0  0  0  0  0
    0.3983   -0.1372   -1.6868 H   0  0  0  0  0  0  0  0  0  0  0  0
   -0.0732   -1.2081    1.1321 H   0  0  0  0  0  0  0  0  0  0  0  0
    0.2093   -2.2368   -0.3817 H   0  0  0  0  0  0  0  0  0  0  0  0
   -2.3686   -1.4727    0.4536 H   0  0  0  0  0  0  0  0  0  0  0  0
   -1.8504   -1.7309   -1.3005 H   0  0  0  0  0  0  0  0  0  0  0  0
   -1.8193    0.5207   -1.7507 H   0  0  0  0  0  0  0  0  0  0  0  0
   -3.8457    0.8125   -0.5450 H   0  0  0  0  0  0  0  0  0  0  0  0
   -3.0105    0.7127    1.0784 H   0  0  0  0  0  0  0  0  0  0  0  0
   -2.6746    2.0936    0.0093 H   0  0  0  0  0  0  0  0  0  0  0  0
  1  2  1  0
  2  3  3  0
  3  4  1  0
  4  5  1  0
  5  6  1  0
  6  7  1  0
  7  8  1  0
  7  9  1  0
  9  4  1  0
  1 10  1  0
  1 11  1  0
  1 12  1  0
  4 13  1  0
  5 14  1  0
  5 15  1  0
  6 16  1  0
  6 17  1  0
  7 18  1  0
  8 19  1  0
  8 20  1  0
  8 21  1  0
M  END
