
     RDKit          3D

 21 21  0  0  0  0  0  0  0  0999 V2000
    3.2112    1.4465   -0.8004 C   0  0  0  0  0  0  0  0  0  0  0  0
    1.9606    0.7352   -0.5716 C   0  0  0  0  0  0  0  0  0  0  0  0
    0.8801    0.0978   -0.3622 C   0  0  0  0  0  0  0  0  0  0  0  0
   -0.3426   -0.6017   -0.1436 C   0  0  0  0  0  0  0  0  0  0  0  0
   -0.5294   -1.6307   -1.2386 C   0  0  0  0  0  0  0  0  0  0  0  0
   -0.5167   -1.2115    1.1886 C   0  0  0  0  0  0  0  0  0  0  0  0
   -1.2716   -0.4589    1.9393 C   0  0  0  0  0  0  0  0  0  0  0  0
   -1.6961    0.7478    1.2079 C   0  0  0  0  0  0  0  0  0  0  0  0
   -1.5350    0.3676   -0.2201 C   0  0  0  0  0  0  0  0  0  0  0  0
    3.5017    2.0490    0.1189 H   0  0  0  0  0  0  0  0  0  0  0  0
    4.0364    0.8105   -1.0964 H   0  0  0  0  0  0  0  0  0  0  0  0
    3.0217    2.2467   -1.5663 H   0  0  0  0  0  0  0  0  0  0  0  0
    0.0261   -2.5461   -1.0446 H   0  0  0  0  0  0  0  0  0  0  0  0
   -0.2078   -1.1659   -2.1911 H   0  0  0  0  0  0  0  0  0  0  0  0
   -1.6320   -1.8344   -1.2585 H   0  0  0  0  0  0  0  0  0  0  0  0
   -0.0835   -2.1658    1.5598 H   0  0  0  0  0  0  0  0  0  0  0  0
   -1.5874   -0.6536    2.9790 H   0  0  0  0  0  0  0  0  0  0  0  0
   -0.9257    1.5327    1.4326 H   0  0  0  0  0  0  0  0  0  0  0  0
   -2.7152    1.0764    1.5020 H   0  0  0  0  0  0  0  0  0  0  0  0
   -2.4111   -0.1092   -0.6387 H   0  0  0  0  0  0  0  0  0  0  0  0
   -1.1837    1.2677   -0.7961 H   0  0  0  0  0  0  0  0  0  0  0  0
  1  2  1  0
  2  3  3  0
  3  4  1  0
  4  5  1  0
  4  6  1  0
  6  7  2  0
  7  8  1  0
  8  9  1  0
  9  4  1  0
  1 10  1  0
  1 11  1  0
  1 12  1  0
  5 13  1  0
  5 14  1  0
  5 15  1  0
  6 16  1  0
  7 17  1  0
  8 18  1  0
  8 19  1  0
  9 20  1  0
  9 21  1  0
M  END
