
     RDKit          3D

 23 22  0  0  0  0  0  0  0  0999 V2000
    3.7339   -1.1343    0.0115 C   0  0  0  0  0  0  0  0  0  0  0  0
    2.3322   -0.7096    0.0130 C   0  0  0  0  0  0  0  0  0  0  0  0
    1.1748   -0.3786    0.0206 C   0  0  0  0  0  0  0  0  0  0  0  0
   -0.2671    0.0109    0.0161 C   0  0  0  0  0  0  0  0  0  0  0  0
   -0.2858    1.3963    0.6100 C   0  0  0  0  0  0  0  0  0  0  0  0
    0.5123    2.3874   -0.1624 C   0  0  0  0  0  0  0  0  0  0  0  0
   -0.9744   -0.8997    0.7768 O   0  0  0  0  0  0  0  0  0  0  0  0
   -1.9514   -1.6046    0.1338 C   0  0  0  0  0  0  0  0  0  0  0  0
   -3.0062   -0.6629   -0.3770 C   0  0  0  0  0  0  0  0  0  0  0  0
    3.9585   -1.8663    0.7934 H   0  0  0  0  0  0  0  0  0  0  0  0
    4.0038   -1.6328   -0.9626 H   0  0  0  0  0  0  0  0  0  0  0  0
    4.3456   -0.2156    0.0604 H   0  0  0  0  0  0  0  0  0  0  0  0
   -0.6458   -0.0104   -1.0135 H   0  0  0  0  0  0  0  0  0  0  0  0
    0.0588    1.3153    1.6780 H   0  0  0  0  0  0  0  0  0  0  0  0
   -1.3331    1.7458    0.6673 H   0  0  0  0  0  0  0  0  0  0  0  0
    1.4466    1.9889   -0.5958 H   0  0  0  0  0  0  0  0  0  0  0  0
    0.8350    3.1920    0.5625 H   0  0  0  0  0  0  0  0  0  0  0  0
   -0.1037    2.9385   -0.9188 H   0  0  0  0  0  0  0  0  0  0  0  0
   -1.5072   -2.1591   -0.7493 H   0  0  0  0  0  0  0  0  0  0  0  0
   -2.4065   -2.3992    0.7961 H   0  0  0  0  0  0  0  0  0  0  0  0
   -2.5819    0.2705   -0.7123 H   0  0  0  0  0  0  0  0  0  0  0  0
   -3.6608   -1.1516   -1.1489 H   0  0  0  0  0  0  0  0  0  0  0  0
   -3.6776   -0.4208    0.5013 H   0  0  0  0  0  0  0  0  0  0  0  0
  1  2  1  0
  2  3  3  0
  3  4  1  0
  4  5  1  0
  5  6  1  0
  4  7  1  0
  7  8  1  0
  8  9  1  0
  1 10  1  0
  1 11  1  0
  1 12  1  0
  4 13  1  0
  5 14  1  0
  5 15  1  0
  6 16  1  0
  6 17  1  0
  6 18  1  0
  8 19  1  0
  8 20  1  0
  9 21  1  0
  9 22  1  0
  9 23  1  0
M  END
