
     RDKit          3D

 18 18  0  0  0  0  0  0  0  0999 V2000
    3.1315    1.0371    0.7560 C   0  0  0  0  0  0  0  0  0  0  0  0
    1.8753    0.2983    0.6150 C   0  0  0  0  0  0  0  0  0  0  0  0
    0.8203   -0.3062    0.5026 C   0  0  0  0  0  0  0  0  0  0  0  0
   -0.4483   -1.0355    0.3929 C   0  0  0  0  0  0  0  0  0  0  0  0
   -1.5502   -0.2517    1.0950 C   0  0  0  0  0  0  0  0  0  0  0  0
   -1.9388    0.3251   -0.2410 C   0  0  0  0  0  0  0  0  0  0  0  0
   -1.1633   -0.7844   -0.9198 C   0  0  0  0  0  0  0  0  0  0  0  0
   -0.2439   -0.3431   -1.8664 O   0  0  0  0  0  0  0  0  0  0  0  0
    3.0025    2.0779    0.3966 H   0  0  0  0  0  0  0  0  0  0  0  0
    3.9499    0.5932    0.1852 H   0  0  0  0  0  0  0  0  0  0  0  0
    3.4174    0.9811    1.8308 H   0  0  0  0  0  0  0  0  0  0  0  0
   -0.3924   -2.0982    0.7038 H   0  0  0  0  0  0  0  0  0  0  0  0
   -1.1848    0.4791    1.8406 H   0  0  0  0  0  0  0  0  0  0  0  0
   -2.2782   -0.9683    1.5207 H   0  0  0  0  0  0  0  0  0  0  0  0
   -1.4906    1.3277   -0.3810 H   0  0  0  0  0  0  0  0  0  0  0  0
   -3.0197    0.2885   -0.4816 H   0  0  0  0  0  0  0  0  0  0  0  0
   -1.8333   -1.6042   -1.2467 H   0  0  0  0  0  0  0  0  0  0  0  0
   -0.6534   -0.0164   -2.6949 H   0  0  0  0  0  0  0  0  0  0  0  0
  1  2  1  0
  2  3  3  0
  3  4  1  0
  4  5  1  0
  5  6  1  0
  6  7  1  0
  7  8  1  0
  7  4  1  0
  1  9  1  0
  1 10  1  0
  1 11  1  0
  4 12  1  0
  5 13  1  0
  5 14  1  0
  6 15  1  0
  6 16  1  0
  7 17  1  0
  8 18  1  0
M  END
