
     RDKit          3D

 17 16  0  0  0  0  0  0  0  0999 V2000
    1.1642    2.6516    1.7726 C   0  0  0  0  0  0  0  0  0  0  0  0
    0.9052    1.3317    1.2005 C   0  0  0  0  0  0  0  0  0  0  0  0
    0.7037    0.2150    0.7316 C   0  0  0  0  0  0  0  0  0  0  0  0
    0.4593   -1.1089    0.1483 C   0  0  0  0  0  0  0  0  0  0  0  0
   -0.3977   -0.9141   -1.1020 C   0  0  0  0  0  0  0  0  0  0  0  0
   -1.6579   -0.2671   -0.6406 C   0  0  0  0  0  0  0  0  0  0  0  0
   -1.5519    0.7164    0.0641 O   0  0  0  0  0  0  0  0  0  0  0  0
   -0.6764   -2.1782   -1.7894 C   0  0  0  0  0  0  0  0  0  0  0  0
    0.1230   -2.6648   -2.5404 O   0  0  0  0  0  0  0  0  0  0  0  0
    0.2512    3.1375    2.1459 H   0  0  0  0  0  0  0  0  0  0  0  0
    1.6099    3.3443    1.0127 H   0  0  0  0  0  0  0  0  0  0  0  0
    1.9446    2.5074    2.5555 H   0  0  0  0  0  0  0  0  0  0  0  0
    1.4104   -1.5943   -0.1469 H   0  0  0  0  0  0  0  0  0  0  0  0
   -0.1281   -1.6861    0.8863 H   0  0  0  0  0  0  0  0  0  0  0  0
    0.1100   -0.2082   -1.8017 H   0  0  0  0  0  0  0  0  0  0  0  0
   -2.6456   -0.6151   -0.8915 H   0  0  0  0  0  0  0  0  0  0  0  0
   -1.6239   -2.6672   -1.6049 H   0  0  0  0  0  0  0  0  0  0  0  0
  1  2  1  0
  2  3  3  0
  3  4  1  0
  4  5  1  0
  5  6  1  0
  6  7  2  0
  5  8  1  0
  8  9  2  0
  1 10  1  0
  1 11  1  0
  1 12  1  0
  4 13  1  0
  4 14  1  0
  5 15  1  0
  6 16  1  0
  8 17  1  0
M  END
