
     RDKit          3D

 23 23  0  0  0  0  0  0  0  0999 V2000
    3.7460    1.5665    0.0009 C   0  0  0  0  0  0  0  0  0  0  0  0
    2.5063    0.8108   -0.3039 C   0  0  0  0  0  0  0  0  0  0  0  0
    1.5123    0.1855   -0.5586 C   0  0  0  0  0  0  0  0  0  0  0  0
    0.3073   -0.5923   -0.8894 C   0  0  0  0  0  0  0  0  0  0  0  0
   -0.8616    0.1057   -0.2137 C   0  0  0  0  0  0  0  0  0  0  0  0
   -2.1867   -0.5582   -0.4460 C   0  0  0  0  0  0  0  0  0  0  0  0
   -2.0885   -1.9668    0.1058 C   0  0  0  0  0  0  0  0  0  0  0  0
   -0.7560    1.5160    0.2040 C   0  0  0  0  0  0  0  0  0  0  0  0
   -0.6145    0.5084    1.2542 C   0  0  0  0  0  0  0  0  0  0  0  0
    4.0726    1.2569    1.0210 H   0  0  0  0  0  0  0  0  0  0  0  0
    3.5571    2.6587   -0.0477 H   0  0  0  0  0  0  0  0  0  0  0  0
    4.5000    1.2702   -0.7352 H   0  0  0  0  0  0  0  0  0  0  0  0
    0.1563   -0.6642   -1.9649 H   0  0  0  0  0  0  0  0  0  0  0  0
    0.3605   -1.6215   -0.4758 H   0  0  0  0  0  0  0  0  0  0  0  0
   -3.0291    0.0007    0.0103 H   0  0  0  0  0  0  0  0  0  0  0  0
   -2.3374   -0.6336   -1.5531 H   0  0  0  0  0  0  0  0  0  0  0  0
   -3.0742   -2.1966    0.5549 H   0  0  0  0  0  0  0  0  0  0  0  0
   -1.7877   -2.6943   -0.6740 H   0  0  0  0  0  0  0  0  0  0  0  0
   -1.3550   -1.9669    0.9342 H   0  0  0  0  0  0  0  0  0  0  0  0
    0.1555    2.0660   -0.0869 H   0  0  0  0  0  0  0  0  0  0  0  0
   -1.6742    2.1519    0.2078 H   0  0  0  0  0  0  0  0  0  0  0  0
   -1.4612    0.3991    1.9598 H   0  0  0  0  0  0  0  0  0  0  0  0
    0.3522    0.2055    1.6964 H   0  0  0  0  0  0  0  0  0  0  0  0
  1  2  1  0
  2  3  3  0
  3  4  1  0
  4  5  1  0
  5  6  1  0
  6  7  1  0
  5  8  1  0
  8  9  1  0
  9  5  1  0
  1 10  1  0
  1 11  1  0
  1 12  1  0
  4 13  1  0
  4 14  1  0
  6 15  1  0
  6 16  1  0
  7 17  1  0
  7 18  1  0
  7 19  1  0
  8 20  1  0
  8 21  1  0
  9 22  1  0
  9 23  1  0
M  END
