
     RDKit          3D

 23 22  0  0  0  0  0  0  0  0999 V2000
    3.2453   -2.9941    1.4642 C   0  0  0  0  0  0  0  0  0  0  0  0
    2.0241   -2.2442    1.1829 C   0  0  0  0  0  0  0  0  0  0  0  0
    1.0040   -1.6087    0.9266 C   0  0  0  0  0  0  0  0  0  0  0  0
   -0.2252   -0.8474    0.5924 C   0  0  0  0  0  0  0  0  0  0  0  0
    0.2331    0.2736   -0.0969 O   0  0  0  0  0  0  0  0  0  0  0  0
   -0.7869    1.1184   -0.5112 C   0  0  0  0  0  0  0  0  0  0  0  0
   -0.1941    2.3045   -1.2467 C   0  0  0  0  0  0  0  0  0  0  0  0
   -1.6095    1.6454    0.6253 C   0  0  0  0  0  0  0  0  0  0  0  0
   -1.6128    0.3177   -1.5054 C   0  0  0  0  0  0  0  0  0  0  0  0
    3.1749   -4.0487    1.0642 H   0  0  0  0  0  0  0  0  0  0  0  0
    3.3231   -3.1359    2.5699 H   0  0  0  0  0  0  0  0  0  0  0  0
    4.1066   -2.4951    1.0210 H   0  0  0  0  0  0  0  0  0  0  0  0
   -0.7105   -0.4653    1.5084 H   0  0  0  0  0  0  0  0  0  0  0  0
   -0.8455   -1.4639   -0.0539 H   0  0  0  0  0  0  0  0  0  0  0  0
    0.4134    1.9565   -2.1257 H   0  0  0  0  0  0  0  0  0  0  0  0
    0.4268    2.9439   -0.5874 H   0  0  0  0  0  0  0  0  0  0  0  0
   -1.0462    2.9411   -1.5944 H   0  0  0  0  0  0  0  0  0  0  0  0
   -0.9308    1.8471    1.4990 H   0  0  0  0  0  0  0  0  0  0  0  0
   -2.4295    0.9382    0.9246 H   0  0  0  0  0  0  0  0  0  0  0  0
   -2.0992    2.6149    0.4003 H   0  0  0  0  0  0  0  0  0  0  0  0
   -1.8249    0.9478   -2.3911 H   0  0  0  0  0  0  0  0  0  0  0  0
   -2.5820    0.0381   -1.0436 H   0  0  0  0  0  0  0  0  0  0  0  0
   -1.0545   -0.5838   -1.8814 H   0  0  0  0  0  0  0  0  0  0  0  0
  1  2  1  0
  2  3  3  0
  3  4  1  0
  4  5  1  0
  5  6  1  0
  6  7  1  0
  6  8  1  0
  6  9  1  0
  1 10  1  0
  1 11  1  0
  1 12  1  0
  4 13  1  0
  4 14  1  0
  7 15  1  0
  7 16  1  0
  7 17  1  0
  8 18  1  0
  8 19  1  0
  8 20  1  0
  9 21  1  0
  9 22  1  0
  9 23  1  0
M  END
