
     RDKit          3D

 19 18  0  0  0  0  0  0  0  0999 V2000
    4.2048    1.2901    1.5474 C   0  0  0  0  0  0  0  0  0  0  0  0
    2.8415    0.9101    1.3058 C   0  0  0  0  0  0  0  0  0  0  0  0
    1.6503    0.5994    1.0883 C   0  0  0  0  0  0  0  0  0  0  0  0
    0.2452    0.2231    0.8377 C   0  0  0  0  0  0  0  0  0  0  0  0
   -1.0030   -0.0927    0.6025 C   0  0  0  0  0  0  0  0  0  0  0  0
   -2.3909   -0.4519    0.3648 C   0  0  0  0  0  0  0  0  0  0  0  0
   -2.4536   -0.4114   -1.1703 C   0  0  0  0  0  0  0  0  0  0  0  0
   -1.4272   -1.3480   -1.7396 C   0  0  0  0  0  0  0  0  0  0  0  0
   -2.0007    0.8521   -1.5471 O   0  0  0  0  0  0  0  0  0  0  0  0
    4.4338    2.3102    1.4613 H   0  0  0  0  0  0  0  0  0  0  0  0
    4.7017    0.9197    0.4391 H   0  0  0  0  0  0  0  0  0  0  0  0
    4.7736    0.6479    2.1935 H   0  0  0  0  0  0  0  0  0  0  0  0
   -2.6390   -1.3641    0.8472 H   0  0  0  0  0  0  0  0  0  0  0  0
   -2.9971    0.4602    0.7231 H   0  0  0  0  0  0  0  0  0  0  0  0
   -3.4651   -0.6263   -1.5785 H   0  0  0  0  0  0  0  0  0  0  0  0
   -1.0248   -1.0026   -2.7289 H   0  0  0  0  0  0  0  0  0  0  0  0
   -1.7047   -2.3835   -1.7718 H   0  0  0  0  0  0  0  0  0  0  0  0
   -0.5146   -1.2651   -1.0522 H   0  0  0  0  0  0  0  0  0  0  0  0
   -1.2303    0.7328   -2.1804 H   0  0  0  0  0  0  0  0  0  0  0  0
  1  2  1  0
  2  3  3  0
  3  4  1  0
  4  5  3  0
  5  6  1  0
  6  7  1  0
  7  8  1  0
  7  9  1  0
  1 10  1  0
  1 11  1  0
  1 12  1  0
  6 13  1  0
  6 14  1  0
  7 15  1  0
  8 16  1  0
  8 17  1  0
  8 18  1  0
  9 19  1  0
M  END
