
     RDKit          3D

 17 16  0  0  0  0  0  0  0  0999 V2000
   -4.3049   -0.6151   -1.5284 C   0  0  0  0  0  0  0  0  0  0  0  0
   -3.0807   -0.6236   -1.1431 C   0  0  0  0  0  0  0  0  0  0  0  0
   -1.5258   -0.6428   -0.6290 C   0  0  0  0  0  0  0  0  0  0  0  0
   -0.2186   -0.6658   -0.2045 C   0  0  0  0  0  0  0  0  0  0  0  0
    0.1070   -0.6716   -0.1047 C   0  0  0  0  0  0  0  0  0  0  0  0
    2.1422   -0.6840    0.5280 C   0  0  0  0  0  0  0  0  0  0  0  0
    1.7649   -1.8040    0.6769 O   0  0  0  0  0  0  0  0  0  0  0  0
    2.3811    0.6404    0.2944 C   0  0  0  0  0  0  0  0  0  0  0  0
    3.1363    1.2385    1.5545 C   0  0  0  0  0  0  0  0  0  0  0  0
   -5.0411    0.0608   -1.0800 H   0  0  0  0  0  0  0  0  0  0  0  0
   -4.5582   -1.0785   -2.5223 H   0  0  0  0  0  0  0  0  0  0  0  0
   -4.8010   -1.6199   -0.8551 H   0  0  0  0  0  0  0  0  0  0  0  0
    2.9436    0.9345   -0.6278 H   0  0  0  0  0  0  0  0  0  0  0  0
    1.4761    1.3867    0.2595 H   0  0  0  0  0  0  0  0  0  0  0  0
    2.8144    0.5523    2.3472 H   0  0  0  0  0  0  0  0  0  0  0  0
    2.6337    2.2299    1.7888 H   0  0  0  0  0  0  0  0  0  0  0  0
    4.1312    1.3621    1.2456 H   0  0  0  0  0  0  0  0  0  0  0  0
  1  2  1  0
  2  3  3  0
  3  4  1  0
  4  5  3  0
  5  6  1  0
  6  7  2  0
  6  8  1  0
  8  9  1  0
  1 10  1  0
  1 11  1  0
  1 12  1  0
  8 13  1  0
  8 14  1  0
  9 15  1  0
  9 16  1  0
  9 17  1  0
M  END
