
     RDKit          3D

 23 23  0  0  0  0  0  0  0  0999 V2000
   -2.6674    1.5314   -2.6421 C   0  0  0  0  0  0  0  0  0  0  0  0
   -1.8606    0.8731   -1.7302 C   0  0  0  0  0  0  0  0  0  0  0  0
   -1.1073    0.2358   -0.8856 C   0  0  0  0  0  0  0  0  0  0  0  0
   -0.3882   -0.3950   -0.0847 C   0  0  0  0  0  0  0  0  0  0  0  0
   -0.5994   -1.9819   -0.0902 C   0  0  0  0  0  0  0  0  0  0  0  0
    0.1707   -0.0473    1.2445 C   0  0  0  0  0  0  0  0  0  0  0  0
    1.0103   -1.0263    1.9913 C   0  0  0  0  0  0  0  0  0  0  0  0
    1.6856    0.1099    1.2917 C   0  0  0  0  0  0  0  0  0  0  0  0
    2.3605    1.1151    2.1474 C   0  0  0  0  0  0  0  0  0  0  0  0
   -2.5916    2.7276   -2.6247 H   0  0  0  0  0  0  0  0  0  0  0  0
   -3.7700    1.4441   -2.3435 H   0  0  0  0  0  0  0  0  0  0  0  0
   -2.5972    1.3043   -3.7124 H   0  0  0  0  0  0  0  0  0  0  0  0
    0.7269   -0.5627   -0.7535 H   0  0  0  0  0  0  0  0  0  0  0  0
    0.2197   -2.5300    0.3427 H   0  0  0  0  0  0  0  0  0  0  0  0
   -1.5099   -2.2033    0.4390 H   0  0  0  0  0  0  0  0  0  0  0  0
   -0.6569   -2.2277   -1.2097 H   0  0  0  0  0  0  0  0  0  0  0  0
   -0.4916    0.5872    1.8707 H   0  0  0  0  0  0  0  0  0  0  0  0
    1.3384   -1.9993    1.6640 H   0  0  0  0  0  0  0  0  0  0  0  0
    0.9159   -0.9340    3.1325 H   0  0  0  0  0  0  0  0  0  0  0  0
    2.1986   -0.0540    0.2819 H   0  0  0  0  0  0  0  0  0  0  0  0
    2.1973    2.1323    1.7098 H   0  0  0  0  0  0  0  0  0  0  0  0
    3.4727    0.8709    2.1560 H   0  0  0  0  0  0  0  0  0  0  0  0
    1.9434    1.0296    3.1647 H   0  0  0  0  0  0  0  0  0  0  0  0
  1  2  1  0
  2  3  3  0
  3  4  1  0
  4  5  1  0
  4  6  1  0
  6  7  1  0
  7  8  1  0
  8  9  1  0
  8  6  1  0
  1 10  1  0
  1 11  1  0
  1 12  1  0
  4 13  1  0
  5 14  1  0
  5 15  1  0
  5 16  1  0
  6 17  1  0
  7 18  1  0
  7 19  1  0
  8 20  1  0
  9 21  1  0
  9 22  1  0
  9 23  1  0
M  END
