
     RDKit          3D

 21 21  0  0  0  0  0  0  0  0999 V2000
   -3.6130    1.0107   -0.7098 C   0  0  0  0  0  0  0  0  0  0  0  0
   -2.4793    0.0740   -0.6723 C   0  0  0  0  0  0  0  0  0  0  0  0
   -1.5439   -0.6883   -0.6610 C   0  0  0  0  0  0  0  0  0  0  0  0
   -0.4098   -1.6390   -0.6313 C   0  0  0  0  0  0  0  0  0  0  0  0
    0.4855   -1.2036    0.4998 C   0  0  0  0  0  0  0  0  0  0  0  0
    1.0084    0.2010    0.3123 C   0  0  0  0  0  0  0  0  0  0  0  0
    1.8189    0.4291   -0.9156 C   0  0  0  0  0  0  0  0  0  0  0  0
    2.8982    0.9486    0.0156 C   0  0  0  0  0  0  0  0  0  0  0  0
    2.1992    0.3377    1.0640 O   0  0  0  0  0  0  0  0  0  0  0  0
   -4.4988    0.5464   -0.2001 H   0  0  0  0  0  0  0  0  0  0  0  0
   -3.9003    1.2762   -1.7314 H   0  0  0  0  0  0  0  0  0  0  0  0
   -3.3874    1.9266   -0.1285 H   0  0  0  0  0  0  0  0  0  0  0  0
    0.1134   -1.6777   -1.5973 H   0  0  0  0  0  0  0  0  0  0  0  0
   -0.7536   -2.6644   -0.4011 H   0  0  0  0  0  0  0  0  0  0  0  0
    1.3664   -1.8867    0.4941 H   0  0  0  0  0  0  0  0  0  0  0  0
   -0.0327   -1.3276    1.4463 H   0  0  0  0  0  0  0  0  0  0  0  0
    0.3221    1.0155    0.5427 H   0  0  0  0  0  0  0  0  0  0  0  0
    2.1410   -0.4744   -1.4744 H   0  0  0  0  0  0  0  0  0  0  0  0
    1.4833    1.2311   -1.6026 H   0  0  0  0  0  0  0  0  0  0  0  0
    2.8887    2.0451    0.1794 H   0  0  0  0  0  0  0  0  0  0  0  0
    3.8936    0.5198   -0.1155 H   0  0  0  0  0  0  0  0  0  0  0  0
  1  2  1  0
  2  3  3  0
  3  4  1  0
  4  5  1  0
  5  6  1  0
  6  7  1  0
  7  8  1  0
  8  9  1  0
  9  6  1  0
  1 10  1  0
  1 11  1  0
  1 12  1  0
  4 13  1  0
  4 14  1  0
  5 15  1  0
  5 16  1  0
  6 17  1  0
  7 18  1  0
  7 19  1  0
  8 20  1  0
  8 21  1  0
M  END
