
     RDKit          3D

 17 17  0  0  0  0  0  0  0  0999 V2000
    3.5307   -0.7589    0.0754 C   0  0  0  0  0  0  0  0  0  0  0  0
    2.0705   -0.6427    0.1165 C   0  0  0  0  0  0  0  0  0  0  0  0
    0.8789   -0.5478    0.1709 C   0  0  0  0  0  0  0  0  0  0  0  0
   -0.5804   -0.4539    0.2274 C   0  0  0  0  0  0  0  0  0  0  0  0
   -1.0456    0.6112    1.1302 C   0  0  0  0  0  0  0  0  0  0  0  0
   -2.0995    1.1916    0.5986 C   0  0  0  0  0  0  0  0  0  0  0  0
   -2.4493    0.5659   -0.7315 C   0  0  0  0  0  0  0  0  0  0  0  0
   -1.1126   -0.0376   -1.0875 C   0  0  0  0  0  0  0  0  0  0  0  0
   -0.6953   -0.1037   -2.2104 O   0  0  0  0  0  0  0  0  0  0  0  0
    3.8869   -0.6865   -0.9718 H   0  0  0  0  0  0  0  0  0  0  0  0
    3.9679    0.0722    0.6968 H   0  0  0  0  0  0  0  0  0  0  0  0
    3.8790   -1.7114    0.5508 H   0  0  0  0  0  0  0  0  0  0  0  0
   -1.0448   -1.4093    0.5454 H   0  0  0  0  0  0  0  0  0  0  0  0
   -0.6010    0.8756    2.0706 H   0  0  0  0  0  0  0  0  0  0  0  0
   -2.6569    1.9947    1.0167 H   0  0  0  0  0  0  0  0  0  0  0  0
   -3.1600   -0.2726   -0.5809 H   0  0  0  0  0  0  0  0  0  0  0  0
   -2.7685    1.3132   -1.4532 H   0  0  0  0  0  0  0  0  0  0  0  0
  1  2  1  0
  2  3  3  0
  3  4  1  0
  4  5  1  0
  5  6  2  0
  6  7  1  0
  7  8  1  0
  8  9  2  0
  8  4  1  0
  1 10  1  0
  1 11  1  0
  1 12  1  0
  4 13  1  0
  5 14  1  0
  6 15  1  0
  7 16  1  0
  7 17  1  0
M  END
