
     RDKit          3D

 13 12  0  0  0  0  0  0  0  0999 V2000
    2.6939    0.0360   -0.2013 C   0  0  0  0  0  0  0  0  0  0  0  0
    1.3029   -0.1703    0.1654 C   0  0  0  0  0  0  0  0  0  0  0  0
    0.1658   -0.3480    0.4793 C   0  0  0  0  0  0  0  0  0  0  0  0
   -1.2301   -0.5476    0.8817 C   0  0  0  0  0  0  0  0  0  0  0  0
   -2.1343    0.4675    0.2513 C   0  0  0  0  0  0  0  0  0  0  0  0
    3.3781    0.1001    0.6598 H   0  0  0  0  0  0  0  0  0  0  0  0
    3.0092   -0.7271   -0.9501 H   0  0  0  0  0  0  0  0  0  0  0  0
    2.7467    1.0174   -0.7542 H   0  0  0  0  0  0  0  0  0  0  0  0
   -1.3533   -0.4487    1.9923 H   0  0  0  0  0  0  0  0  0  0  0  0
   -1.5044   -1.5704    0.5317 H   0  0  0  0  0  0  0  0  0  0  0  0
   -3.0304   -0.0549   -0.1481 H   0  0  0  0  0  0  0  0  0  0  0  0
   -2.4438    1.2791    0.9538 H   0  0  0  0  0  0  0  0  0  0  0  0
   -1.6002    0.9669   -0.5896 H   0  0  0  0  0  0  0  0  0  0  0  0
  1  2  1  0
  2  3  3  0
  3  4  1  0
  4  5  1  0
  1  6  1  0
  1  7  1  0
  1  8  1  0
  4  9  1  0
  4 10  1  0
  5 11  1  0
  5 12  1  0
  5 13  1  0
M  END
