
     RDKit          3D

 16 16  0  0  0  0  0  0  0  0999 V2000
    2.6727   -2.2360   -0.5222 C   0  0  0  0  0  0  0  0  0  0  0  0
    1.5314   -1.2321   -0.3900 C   0  0  0  0  0  0  0  0  0  0  0  0
    0.6828   -0.4908   -0.2724 C   0  0  0  0  0  0  0  0  0  0  0  0
   -0.4115    0.4872   -0.1389 C   0  0  0  0  0  0  0  0  0  0  0  0
   -0.2348    1.4555    0.9593 C   0  0  0  0  0  0  0  0  0  0  0  0
   -1.4649    1.6749    1.4651 C   0  0  0  0  0  0  0  0  0  0  0  0
   -2.4068    0.8166    0.6580 C   0  0  0  0  0  0  0  0  0  0  0  0
   -1.5459   -0.2325    0.2506 O   0  0  0  0  0  0  0  0  0  0  0  0
    2.2076   -3.0991   -1.0255 H   0  0  0  0  0  0  0  0  0  0  0  0
    3.4618   -1.7352   -1.1560 H   0  0  0  0  0  0  0  0  0  0  0  0
    3.0622   -2.4098    0.4734 H   0  0  0  0  0  0  0  0  0  0  0  0
   -0.5885    1.0133   -1.1033 H   0  0  0  0  0  0  0  0  0  0  0  0
    0.6975    1.9089    1.3006 H   0  0  0  0  0  0  0  0  0  0  0  0
   -1.6991    2.3266    2.2700 H   0  0  0  0  0  0  0  0  0  0  0  0
   -2.7723    1.3421   -0.2342 H   0  0  0  0  0  0  0  0  0  0  0  0
   -3.1920    0.4103    1.3214 H   0  0  0  0  0  0  0  0  0  0  0  0
  1  2  1  0
  2  3  3  0
  3  4  1  0
  4  5  1  0
  5  6  2  0
  6  7  1  0
  7  8  1  0
  8  4  1  0
  1  9  1  0
  1 10  1  0
  1 11  1  0
  4 12  1  0
  5 13  1  0
  6 14  1  0
  7 15  1  0
  7 16  1  0
M  END
