
     RDKit          3D

 17 16  0  0  0  0  0  0  0  0999 V2000
   -3.2444   -0.6583    0.0743 C   0  0  0  0  0  0  0  0  0  0  0  0
   -1.8869   -1.1116    0.3657 C   0  0  0  0  0  0  0  0  0  0  0  0
   -0.6439   -1.5256    0.6214 C   0  0  0  0  0  0  0  0  0  0  0  0
    0.7086   -1.9816    0.9006 C   0  0  0  0  0  0  0  0  0  0  0  0
    1.0819   -0.5291    1.7973 C   0  0  0  0  0  0  0  0  0  0  0  0
    0.9918   -0.6603    2.8634 O   0  0  0  0  0  0  0  0  0  0  0  0
    1.4307    0.5026    0.7525 C   0  0  0  0  0  0  0  0  0  0  0  0
    1.7347    1.4429   -0.1939 C   0  0  0  0  0  0  0  0  0  0  0  0
    1.9407    2.1383   -0.8878 C   0  0  0  0  0  0  0  0  0  0  0  0
   -3.4740    0.2938    0.5901 H   0  0  0  0  0  0  0  0  0  0  0  0
   -3.9351   -1.4584    0.3478 H   0  0  0  0  0  0  0  0  0  0  0  0
   -3.2945   -0.4393   -1.0693 H   0  0  0  0  0  0  0  0  0  0  0  0
    1.4032   -1.6581    0.0405 H   0  0  0  0  0  0  0  0  0  0  0  0
    0.9969   -2.6275    1.5272 H   0  0  0  0  0  0  0  0  0  0  0  0
    1.0647    2.9913   -1.2772 H   0  0  0  0  0  0  0  0  0  0  0  0
    2.6806    3.1553   -0.5168 H   0  0  0  0  0  0  0  0  0  0  0  0
    2.4451    2.1257   -1.9929 H   0  0  0  0  0  0  0  0  0  0  0  0
  1  2  1  0
  2  3  3  0
  3  4  1  0
  4  5  1  0
  5  6  2  0
  5  7  1  0
  7  8  3  0
  8  9  1  0
  1 10  1  0
  1 11  1  0
  1 12  1  0
  4 13  1  0
  4 14  1  0
  9 15  1  0
  9 16  1  0
  9 17  1  0
M  END
