
     RDKit          3D

 19 19  0  0  0  0  0  0  0  0999 V2000
    3.5406   -0.7846    1.3648 C   0  0  0  0  0  0  0  0  0  0  0  0
    2.1271   -0.6373    0.9788 C   0  0  0  0  0  0  0  0  0  0  0  0
    0.9960   -0.5338    0.6556 C   0  0  0  0  0  0  0  0  0  0  0  0
   -0.3905   -0.4105    0.2333 C   0  0  0  0  0  0  0  0  0  0  0  0
   -1.0182    0.8443    0.7091 C   0  0  0  0  0  0  0  0  0  0  0  0
   -1.9178    1.2323   -0.1818 C   0  0  0  0  0  0  0  0  0  0  0  0
   -1.9588    0.2563   -1.3317 C   0  0  0  0  0  0  0  0  0  0  0  0
   -2.2312    0.8713   -2.5267 O   0  0  0  0  0  0  0  0  0  0  0  0
   -0.5043   -0.2390   -1.2637 C   0  0  0  0  0  0  0  0  0  0  0  0
    3.7018   -0.5094    2.4173 H   0  0  0  0  0  0  0  0  0  0  0  0
    3.8951   -1.8261    1.1669 H   0  0  0  0  0  0  0  0  0  0  0  0
    4.1907   -0.0969    0.7529 H   0  0  0  0  0  0  0  0  0  0  0  0
   -0.9994   -1.3073    0.5149 H   0  0  0  0  0  0  0  0  0  0  0  0
   -0.8104    1.3890    1.6225 H   0  0  0  0  0  0  0  0  0  0  0  0
   -2.5350    2.1193   -0.0999 H   0  0  0  0  0  0  0  0  0  0  0  0
   -2.6598   -0.5423   -1.0476 H   0  0  0  0  0  0  0  0  0  0  0  0
   -3.1828    0.6938   -2.7512 H   0  0  0  0  0  0  0  0  0  0  0  0
    0.1090    0.6284   -1.5913 H   0  0  0  0  0  0  0  0  0  0  0  0
   -0.3521   -1.1475   -1.8343 H   0  0  0  0  0  0  0  0  0  0  0  0
  1  2  1  0
  2  3  3  0
  3  4  1  0
  4  5  1  0
  5  6  2  0
  6  7  1  0
  7  8  1  0
  7  9  1  0
  9  4  1  0
  1 10  1  0
  1 11  1  0
  1 12  1  0
  4 13  1  0
  5 14  1  0
  6 15  1  0
  7 16  1  0
  8 17  1  0
  9 18  1  0
  9 19  1  0
M  END
