
     RDKit          3D

 17 17  0  0  0  0  0  0  0  0999 V2000
    3.4830   -0.0213   -0.4054 C   0  0  0  0  0  0  0  0  0  0  0  0
    2.0209   -0.0550   -0.4728 C   0  0  0  0  0  0  0  0  0  0  0  0
    0.7978   -0.0813   -0.5241 C   0  0  0  0  0  0  0  0  0  0  0  0
   -0.6609   -0.0947   -0.6034 C   0  0  0  0  0  0  0  0  0  0  0  0
   -1.2237    1.2423   -0.3807 C   0  0  0  0  0  0  0  0  0  0  0  0
   -1.0926    2.3681   -0.8235 O   0  0  0  0  0  0  0  0  0  0  0  0
   -2.0940    0.6407    0.6896 C   0  0  0  0  0  0  0  0  0  0  0  0
   -1.2858   -0.6150    0.6701 C   0  0  0  0  0  0  0  0  0  0  0  0
   -2.0565   -1.7673    0.4541 O   0  0  0  0  0  0  0  0  0  0  0  0
    3.9304    0.4218   -1.3158 H   0  0  0  0  0  0  0  0  0  0  0  0
    3.7641    0.5497    0.5006 H   0  0  0  0  0  0  0  0  0  0  0  0
    3.8662   -1.0696   -0.2579 H   0  0  0  0  0  0  0  0  0  0  0  0
   -1.0372   -0.6252   -1.5165 H   0  0  0  0  0  0  0  0  0  0  0  0
   -3.1319    0.5110    0.3208 H   0  0  0  0  0  0  0  0  0  0  0  0
   -1.9873    1.1790    1.6534 H   0  0  0  0  0  0  0  0  0  0  0  0
   -0.5727   -0.7626    1.5078 H   0  0  0  0  0  0  0  0  0  0  0  0
   -2.7196   -1.8207    1.1952 H   0  0  0  0  0  0  0  0  0  0  0  0
  1  2  1  0
  2  3  3  0
  3  4  1  0
  4  5  1  0
  5  6  2  0
  5  7  1  0
  7  8  1  0
  8  9  1  0
  8  4  1  0
  1 10  1  0
  1 11  1  0
  1 12  1  0
  4 13  1  0
  7 14  1  0
  7 15  1  0
  8 16  1  0
  9 17  1  0
M  END
