
     RDKit          3D

 17 18  0  0  0  0  0  0  0  0999 V2000
   -3.5406    0.5412   -0.0092 C   0  0  0  0  0  0  0  0  0  0  0  0
   -2.1130    0.1832    0.0113 C   0  0  0  0  0  0  0  0  0  0  0  0
   -0.9360   -0.1007    0.0322 C   0  0  0  0  0  0  0  0  0  0  0  0
    0.4966   -0.4635    0.0380 C   0  0  0  0  0  0  0  0  0  0  0  0
    1.4521    0.6599    0.2413 C   0  0  0  0  0  0  0  0  0  0  0  0
    2.8086    0.5453    0.6624 C   0  0  0  0  0  0  0  0  0  0  0  0
    1.8236    0.8110    1.6720 O   0  0  0  0  0  0  0  0  0  0  0  0
    0.8977   -1.4935   -0.9993 C   0  0  0  0  0  0  0  0  0  0  0  0
    0.8329   -1.7576    0.3853 O   0  0  0  0  0  0  0  0  0  0  0  0
   -3.6681    1.6466   -0.1634 H   0  0  0  0  0  0  0  0  0  0  0  0
   -4.0357    0.0677   -0.8923 H   0  0  0  0  0  0  0  0  0  0  0  0
   -4.0314    0.1878    0.9035 H   0  0  0  0  0  0  0  0  0  0  0  0
    1.1046    1.6311   -0.1943 H   0  0  0  0  0  0  0  0  0  0  0  0
    3.4830    1.4134    0.5356 H   0  0  0  0  0  0  0  0  0  0  0  0
    3.3556   -0.4105    0.7626 H   0  0  0  0  0  0  0  0  0  0  0  0
    1.9551   -1.5058   -1.3609 H   0  0  0  0  0  0  0  0  0  0  0  0
    0.1151   -1.9557   -1.6248 H   0  0  0  0  0  0  0  0  0  0  0  0
  1  2  1  0
  2  3  3  0
  3  4  1  0
  4  5  1  0
  5  6  1  0
  6  7  1  0
  4  8  1  0
  8  9  1  0
  9  4  1  0
  7  5  1  0
  1 10  1  0
  1 11  1  0
  1 12  1  0
  5 13  1  0
  6 14  1  0
  6 15  1  0
  8 16  1  0
  8 17  1  0
M  END
