
     RDKit          3D

 17 16  0  0  0  0  0  0  0  0999 V2000
   -2.9889    1.4424   -0.3077 C   0  0  0  0  0  0  0  0  0  0  0  0
   -1.9483    0.6079   -0.1633 C   0  0  0  0  0  0  0  0  0  0  0  0
   -0.9747   -0.1497   -0.0176 C   0  0  0  0  0  0  0  0  0  0  0  0
    0.2802   -1.1428    0.1483 C   0  0  0  0  0  0  0  0  0  0  0  0
    0.2260   -1.8620   -1.1976 C   0  0  0  0  0  0  0  0  0  0  0  0
    1.2692   -0.4050    0.3387 C   0  0  0  0  0  0  0  0  0  0  0  0
    2.3092    0.3484    0.5511 C   0  0  0  0  0  0  0  0  0  0  0  0
    3.5044    1.1986    0.8167 C   0  0  0  0  0  0  0  0  0  0  0  0
    4.2044    1.2015   -0.3355 O   0  0  0  0  0  0  0  0  0  0  0  0
   -2.7757    2.5809   -0.0696 H   0  0  0  0  0  0  0  0  0  0  0  0
   -3.9175    1.2675    0.3537 H   0  0  0  0  0  0  0  0  0  0  0  0
   -3.4452    1.4418   -1.3559 H   0  0  0  0  0  0  0  0  0  0  0  0
   -0.1370   -1.8443    0.9752 H   0  0  0  0  0  0  0  0  0  0  0  0
    1.1728   -1.8091   -1.7898 H   0  0  0  0  0  0  0  0  0  0  0  0
    0.1587   -2.9907   -0.9421 H   0  0  0  0  0  0  0  0  0  0  0  0
   -0.7232   -1.5552   -1.7166 H   0  0  0  0  0  0  0  0  0  0  0  0
    3.7856    1.6697    1.6338 H   0  0  0  0  0  0  0  0  0  0  0  0
  1  2  1  0
  2  3  3  0
  3  4  1  0
  4  5  1  0
  4  6  1  0
  6  7  3  0
  7  8  1  0
  8  9  2  0
  1 10  1  0
  1 11  1  0
  1 12  1  0
  4 13  1  0
  5 14  1  0
  5 15  1  0
  5 16  1  0
  8 17  1  0
M  END
