
     RDKit          3D

 21 20  0  0  0  0  0  0  0  0999 V2000
    3.4320    0.0614   -1.1998 C   0  0  0  0  0  0  0  0  0  0  0  0
    2.2499   -0.0552   -0.3422 C   0  0  0  0  0  0  0  0  0  0  0  0
    1.2800   -0.1543    0.3824 C   0  0  0  0  0  0  0  0  0  0  0  0
    0.1177   -0.2485    1.2409 C   0  0  0  0  0  0  0  0  0  0  0  0
   -1.1329   -0.0015    0.4253 C   0  0  0  0  0  0  0  0  0  0  0  0
   -1.1520   -1.0894   -0.6563 C   0  0  0  0  0  0  0  0  0  0  0  0
   -1.1670    1.3680   -0.1797 C   0  0  0  0  0  0  0  0  0  0  0  0
   -2.2869   -0.1499    1.3334 C   0  0  0  0  0  0  0  0  0  0  0  0
   -3.2387    0.5813    1.2388 O   0  0  0  0  0  0  0  0  0  0  0  0
    4.2093    0.6785   -0.7125 H   0  0  0  0  0  0  0  0  0  0  0  0
    3.1720    0.6087   -2.1535 H   0  0  0  0  0  0  0  0  0  0  0  0
    3.7693   -0.9388   -1.4854 H   0  0  0  0  0  0  0  0  0  0  0  0
    0.1213    0.4854    2.0684 H   0  0  0  0  0  0  0  0  0  0  0  0
    0.0571   -1.2880    1.6228 H   0  0  0  0  0  0  0  0  0  0  0  0
   -0.1758   -1.1647   -1.1485 H   0  0  0  0  0  0  0  0  0  0  0  0
   -1.3368   -2.0668   -0.1551 H   0  0  0  0  0  0  0  0  0  0  0  0
   -1.9313   -0.8884   -1.4123 H   0  0  0  0  0  0  0  0  0  0  0  0
   -0.7640    2.1029    0.5450 H   0  0  0  0  0  0  0  0  0  0  0  0
   -2.2480    1.6404   -0.3146 H   0  0  0  0  0  0  0  0  0  0  0  0
   -0.7069    1.4359   -1.1759 H   0  0  0  0  0  0  0  0  0  0  0  0
   -2.2680   -0.9168    2.0789 H   0  0  0  0  0  0  0  0  0  0  0  0
  1  2  1  0
  2  3  3  0
  3  4  1  0
  4  5  1  0
  5  6  1  0
  5  7  1  0
  5  8  1  0
  8  9  2  0
  1 10  1  0
  1 11  1  0
  1 12  1  0
  4 13  1  0
  4 14  1  0
  6 15  1  0
  6 16  1  0
  6 17  1  0
  7 18  1  0
  7 19  1  0
  7 20  1  0
  8 21  1  0
M  END
