
     RDKit          3D

 21 21  0  0  0  0  0  0  0  0999 V2000
    3.5313   -0.2961   -0.7770 C   0  0  0  0  0  0  0  0  0  0  0  0
    2.2745    0.0105   -0.0876 C   0  0  0  0  0  0  0  0  0  0  0  0
    1.2350    0.2426    0.4819 C   0  0  0  0  0  0  0  0  0  0  0  0
   -0.0385    0.5040    1.1915 C   0  0  0  0  0  0  0  0  0  0  0  0
   -1.1927    0.0202    0.3226 C   0  0  0  0  0  0  0  0  0  0  0  0
   -1.2299    0.7369   -1.0255 C   0  0  0  0  0  0  0  0  0  0  0  0
   -1.3846    2.1093   -0.7781 O   0  0  0  0  0  0  0  0  0  0  0  0
   -2.3771   -0.6101    0.8898 C   0  0  0  0  0  0  0  0  0  0  0  0
   -1.3187   -1.4863    0.3048 C   0  0  0  0  0  0  0  0  0  0  0  0
    4.3510   -0.0430   -0.0736 H   0  0  0  0  0  0  0  0  0  0  0  0
    3.6758    0.2970   -1.6866 H   0  0  0  0  0  0  0  0  0  0  0  0
    3.5609   -1.3677   -1.0691 H   0  0  0  0  0  0  0  0  0  0  0  0
   -0.0741    0.0042    2.1644 H   0  0  0  0  0  0  0  0  0  0  0  0
   -0.1371    1.5922    1.2862 H   0  0  0  0  0  0  0  0  0  0  0  0
   -0.2050    0.6256   -1.4489 H   0  0  0  0  0  0  0  0  0  0  0  0
   -2.0126    0.3441   -1.6876 H   0  0  0  0  0  0  0  0  0  0  0  0
   -0.5221    2.5476   -0.5799 H   0  0  0  0  0  0  0  0  0  0  0  0
   -2.6000   -0.6090    1.9674 H   0  0  0  0  0  0  0  0  0  0  0  0
   -3.3191   -0.5219    0.2731 H   0  0  0  0  0  0  0  0  0  0  0  0
   -1.5280   -2.0031   -0.6525 H   0  0  0  0  0  0  0  0  0  0  0  0
   -0.6892   -2.0971    0.9847 H   0  0  0  0  0  0  0  0  0  0  0  0
  1  2  1  0
  2  3  3  0
  3  4  1  0
  4  5  1  0
  5  6  1  0
  6  7  1  0
  5  8  1  0
  8  9  1  0
  9  5  1  0
  1 10  1  0
  1 11  1  0
  1 12  1  0
  4 13  1  0
  4 14  1  0
  6 15  1  0
  6 16  1  0
  7 17  1  0
  8 18  1  0
  8 19  1  0
  9 20  1  0
  9 21  1  0
M  END
