
     RDKit          3D

 19 18  0  0  0  0  0  0  0  0999 V2000
    2.9796    2.1431    0.1659 C   0  0  0  0  0  0  0  0  0  0  0  0
    1.8668    1.2547    0.5911 C   0  0  0  0  0  0  0  0  0  0  0  0
    0.9492    0.5144    0.9230 C   0  0  0  0  0  0  0  0  0  0  0  0
   -0.1276   -0.3538    1.2878 C   0  0  0  0  0  0  0  0  0  0  0  0
   -0.8323   -0.8275    0.0449 C   0  0  0  0  0  0  0  0  0  0  0  0
    0.1319   -1.5692   -0.8510 C   0  0  0  0  0  0  0  0  0  0  0  0
    0.7763   -2.4612   -0.3302 O   0  0  0  0  0  0  0  0  0  0  0  0
   -1.4767    0.1198   -0.6910 O   0  0  0  0  0  0  0  0  0  0  0  0
   -2.8291   -0.2796   -0.8228 C   0  0  0  0  0  0  0  0  0  0  0  0
    3.1553    2.0929   -0.9219 H   0  0  0  0  0  0  0  0  0  0  0  0
    2.8496    3.1731    0.5259 H   0  0  0  0  0  0  0  0  0  0  0  0
    3.9413    1.7874    0.6256 H   0  0  0  0  0  0  0  0  0  0  0  0
    0.2643   -1.3207    1.7509 H   0  0  0  0  0  0  0  0  0  0  0  0
   -0.8140    0.0622    2.0445 H   0  0  0  0  0  0  0  0  0  0  0  0
   -1.5664   -1.6197    0.3364 H   0  0  0  0  0  0  0  0  0  0  0  0
    0.2824   -1.3714   -1.8832 H   0  0  0  0  0  0  0  0  0  0  0  0
   -2.8693   -1.2881   -1.3314 H   0  0  0  0  0  0  0  0  0  0  0  0
   -3.4256    0.3820   -1.4423 H   0  0  0  0  0  0  0  0  0  0  0  0
   -3.2558   -0.4385    0.1795 H   0  0  0  0  0  0  0  0  0  0  0  0
  1  2  1  0
  2  3  3  0
  3  4  1  0
  4  5  1  0
  5  6  1  0
  6  7  2  0
  5  8  1  0
  8  9  1  0
  1 10  1  0
  1 11  1  0
  1 12  1  0
  4 13  1  0
  4 14  1  0
  5 15  1  0
  6 16  1  0
  9 17  1  0
  9 18  1  0
  9 19  1  0
M  END
