
     RDKit          3D

 19 19  0  0  0  0  0  0  0  0999 V2000
    3.2817    0.3849   -0.4481 C   0  0  0  0  0  0  0  0  0  0  0  0
    1.8997    0.0360   -0.2476 C   0  0  0  0  0  0  0  0  0  0  0  0
    0.7277   -0.2676   -0.0573 C   0  0  0  0  0  0  0  0  0  0  0  0
   -0.6558   -0.6496    0.1575 C   0  0  0  0  0  0  0  0  0  0  0  0
   -0.7560   -2.1584    0.3794 C   0  0  0  0  0  0  0  0  0  0  0  0
   -1.4532   -0.2558   -0.8907 O   0  0  0  0  0  0  0  0  0  0  0  0
   -1.9196    1.0135   -0.6428 C   0  0  0  0  0  0  0  0  0  0  0  0
   -1.3930    1.3073    0.7521 C   0  0  0  0  0  0  0  0  0  0  0  0
   -1.1831    0.0273    1.2476 O   0  0  0  0  0  0  0  0  0  0  0  0
    3.8726    0.3635    0.4959 H   0  0  0  0  0  0  0  0  0  0  0  0
    3.7240   -0.3120   -1.1656 H   0  0  0  0  0  0  0  0  0  0  0  0
    3.3046    1.4440   -0.8266 H   0  0  0  0  0  0  0  0  0  0  0  0
   -0.3189   -2.6295   -0.5290 H   0  0  0  0  0  0  0  0  0  0  0  0
   -0.1504   -2.4332    1.2549 H   0  0  0  0  0  0  0  0  0  0  0  0
   -1.8107   -2.4319    0.4588 H   0  0  0  0  0  0  0  0  0  0  0  0
   -1.5159    1.7731   -1.3200 H   0  0  0  0  0  0  0  0  0  0  0  0
   -3.0249    1.0984   -0.6621 H   0  0  0  0  0  0  0  0  0  0  0  0
   -2.1873    1.8467    1.3044 H   0  0  0  0  0  0  0  0  0  0  0  0
   -0.4417    1.8434    0.7391 H   0  0  0  0  0  0  0  0  0  0  0  0
  1  2  1  0
  2  3  3  0
  3  4  1  0
  4  5  1  0
  4  6  1  0
  6  7  1  0
  7  8  1  0
  8  9  1  0
  9  4  1  0
  1 10  1  0
  1 11  1  0
  1 12  1  0
  5 13  1  0
  5 14  1  0
  5 15  1  0
  7 16  1  0
  7 17  1  0
  8 18  1  0
  8 19  1  0
M  END
