
     RDKit          3D

 23 23  0  0  0  0  0  0  0  0999 V2000
    2.1555    2.6180   -1.4171 C   0  0  0  0  0  0  0  0  0  0  0  0
    1.2656    1.7235   -0.9402 C   0  0  0  0  0  0  0  0  0  0  0  0
    0.4027    0.8480   -0.4517 C   0  0  0  0  0  0  0  0  0  0  0  0
   -0.5271   -0.0879    0.0496 C   0  0  0  0  0  0  0  0  0  0  0  0
   -0.2778   -1.4843   -0.5215 C   0  0  0  0  0  0  0  0  0  0  0  0
    1.0590   -1.9896   -0.1122 C   0  0  0  0  0  0  0  0  0  0  0  0
   -1.9715    0.2829    0.1066 C   0  0  0  0  0  0  0  0  0  0  0  0
   -1.9860   -0.5222    1.4406 C   0  0  0  0  0  0  0  0  0  0  0  0
   -0.5498   -0.0839    1.5809 C   0  0  0  0  0  0  0  0  0  0  0  0
    3.2355    2.4333   -1.2963 H   0  0  0  0  0  0  0  0  0  0  0  0
    2.0224    3.6981   -0.9674 H   0  0  0  0  0  0  0  0  0  0  0  0
    1.9601    2.7876   -2.5449 H   0  0  0  0  0  0  0  0  0  0  0  0
   -0.2093   -1.3221   -1.6633 H   0  0  0  0  0  0  0  0  0  0  0  0
   -1.1093   -2.1779   -0.4112 H   0  0  0  0  0  0  0  0  0  0  0  0
    1.0508   -2.2312    0.9923 H   0  0  0  0  0  0  0  0  0  0  0  0
    1.3302   -2.9494   -0.6274 H   0  0  0  0  0  0  0  0  0  0  0  0
    1.8330   -1.2275   -0.3102 H   0  0  0  0  0  0  0  0  0  0  0  0
   -2.0141    1.3900    0.2736 H   0  0  0  0  0  0  0  0  0  0  0  0
   -2.6609   -0.1350   -0.6427 H   0  0  0  0  0  0  0  0  0  0  0  0
   -2.6538   -0.0931    2.1665 H   0  0  0  0  0  0  0  0  0  0  0  0
   -2.0998   -1.6103    1.2378 H   0  0  0  0  0  0  0  0  0  0  0  0
    0.1398   -0.7983    2.0664 H   0  0  0  0  0  0  0  0  0  0  0  0
   -0.3951    0.9314    1.9917 H   0  0  0  0  0  0  0  0  0  0  0  0
  1  2  1  0
  2  3  3  0
  3  4  1  0
  4  5  1  0
  5  6  1  0
  4  7  1  0
  7  8  1  0
  8  9  1  0
  9  4  1  0
  1 10  1  0
  1 11  1  0
  1 12  1  0
  5 13  1  0
  5 14  1  0
  6 15  1  0
  6 16  1  0
  6 17  1  0
  7 18  1  0
  7 19  1  0
  8 20  1  0
  8 21  1  0
  9 22  1  0
  9 23  1  0
M  END
