
     RDKit          3D

 14 13  0  0  0  0  0  0  0  0999 V2000
   -1.3864   -0.7690    3.7337 C   0  0  0  0  0  0  0  0  0  0  0  0
   -0.7946   -0.4189    2.1109 C   0  0  0  0  0  0  0  0  0  0  0  0
   -0.5406   -0.2830    1.4398 C   0  0  0  0  0  0  0  0  0  0  0  0
   -0.3764   -0.1989    1.0066 C   0  0  0  0  0  0  0  0  0  0  0  0
   -0.0096   -0.0247    0.0657 C   0  0  0  0  0  0  0  0  0  0  0  0
    0.6088    0.3012   -1.5316 C   0  0  0  0  0  0  0  0  0  0  0  0
    0.9108    0.4519   -2.2897 C   0  0  0  0  0  0  0  0  0  0  0  0
    1.6408    0.7948   -4.1087 C   0  0  0  0  0  0  0  0  0  0  0  0
   -1.7487   -1.7392    3.6329 H   0  0  0  0  0  0  0  0  0  0  0  0
   -0.4909   -0.3699    4.3404 H   0  0  0  0  0  0  0  0  0  0  0  0
   -2.0693    0.0371    3.7638 H   0  0  0  0  0  0  0  0  0  0  0  0
    1.8952    1.6326   -3.6551 H   0  0  0  0  0  0  0  0  0  0  0  0
    0.5158    0.8439   -4.4085 H   0  0  0  0  0  0  0  0  0  0  0  0
    1.8453   -0.2578   -4.1002 H   0  0  0  0  0  0  0  0  0  0  0  0
  1  2  1  0
  2  3  3  0
  3  4  1  0
  4  5  3  0
  5  6  1  0
  6  7  3  0
  7  8  1  0
  1  9  1  0
  1 10  1  0
  1 11  1  0
  8 12  1  0
  8 13  1  0
  8 14  1  0
M  END
