
     RDKit          3D

 19 19  0  0  0  0  0  0  0  0999 V2000
    3.5274   -1.0245   -0.8536 C   0  0  0  0  0  0  0  0  0  0  0  0
    2.3267   -0.2193   -0.6348 C   0  0  0  0  0  0  0  0  0  0  0  0
    1.3260    0.4641   -0.4702 C   0  0  0  0  0  0  0  0  0  0  0  0
    0.1379    1.2602   -0.2637 C   0  0  0  0  0  0  0  0  0  0  0  0
   -1.0605    0.3692   -0.2653 C   0  0  0  0  0  0  0  0  0  0  0  0
   -1.1889   -0.7300    0.7377 C   0  0  0  0  0  0  0  0  0  0  0  0
   -2.5124   -0.9121    1.1608 O   0  0  0  0  0  0  0  0  0  0  0  0
   -2.3707    1.1093   -0.5656 C   0  0  0  0  0  0  0  0  0  0  0  0
   -1.7924    0.1792   -1.4316 O   0  0  0  0  0  0  0  0  0  0  0  0
    3.2478   -1.9911   -1.3096 H   0  0  0  0  0  0  0  0  0  0  0  0
    4.2865   -0.5027   -1.4648 H   0  0  0  0  0  0  0  0  0  0  0  0
    4.0314   -1.2838    0.1161 H   0  0  0  0  0  0  0  0  0  0  0  0
    0.0407    2.0352   -1.0310 H   0  0  0  0  0  0  0  0  0  0  0  0
    0.1570    1.7909    0.7305 H   0  0  0  0  0  0  0  0  0  0  0  0
   -0.5688   -0.6251    1.6282 H   0  0  0  0  0  0  0  0  0  0  0  0
   -0.9227   -1.6890    0.2035 H   0  0  0  0  0  0  0  0  0  0  0  0
   -3.0944   -1.2031    0.3948 H   0  0  0  0  0  0  0  0  0  0  0  0
   -2.3055    2.1462   -0.9514 H   0  0  0  0  0  0  0  0  0  0  0  0
   -3.2650    0.8265    0.0135 H   0  0  0  0  0  0  0  0  0  0  0  0
  1  2  1  0
  2  3  3  0
  3  4  1  0
  4  5  1  0
  5  6  1  0
  6  7  1  0
  5  8  1  0
  8  9  1  0
  9  5  1  0
  1 10  1  0
  1 11  1  0
  1 12  1  0
  4 13  1  0
  4 14  1  0
  6 15  1  0
  6 16  1  0
  7 17  1  0
  8 18  1  0
  8 19  1  0
M  END
