
     RDKit          3D

 19 20  0  0  0  0  0  0  0  0999 V2000
    3.1474    1.5732   -0.7111 C   0  0  0  0  0  0  0  0  0  0  0  0
    1.8687    0.8548   -0.7572 C   0  0  0  0  0  0  0  0  0  0  0  0
    0.8238    0.2529   -0.7784 C   0  0  0  0  0  0  0  0  0  0  0  0
   -0.4379   -0.4464   -0.8031 C   0  0  0  0  0  0  0  0  0  0  0  0
   -0.3891   -1.7918   -0.1179 C   0  0  0  0  0  0  0  0  0  0  0  0
   -1.5672   -1.9636    0.5663 O   0  0  0  0  0  0  0  0  0  0  0  0
   -2.2135   -0.7626    0.6918 C   0  0  0  0  0  0  0  0  0  0  0  0
   -1.4977    0.3023    1.4518 C   0  0  0  0  0  0  0  0  0  0  0  0
   -1.4936    0.2969   -0.0234 C   0  0  0  0  0  0  0  0  0  0  0  0
    3.1635    2.2404    0.1665 H   0  0  0  0  0  0  0  0  0  0  0  0
    4.0122    0.8839   -0.6047 H   0  0  0  0  0  0  0  0  0  0  0  0
    3.3256    2.1308   -1.6618 H   0  0  0  0  0  0  0  0  0  0  0  0
   -0.8087   -0.5786   -1.8342 H   0  0  0  0  0  0  0  0  0  0  0  0
   -0.3473   -2.5858   -0.9061 H   0  0  0  0  0  0  0  0  0  0  0  0
    0.4522   -1.8723    0.5990 H   0  0  0  0  0  0  0  0  0  0  0  0
   -3.3286   -0.7358    0.6101 H   0  0  0  0  0  0  0  0  0  0  0  0
   -2.1060    1.0666    1.9430 H   0  0  0  0  0  0  0  0  0  0  0  0
   -0.5863    0.0152    2.0426 H   0  0  0  0  0  0  0  0  0  0  0  0
   -2.0178    1.1200   -0.5499 H   0  0  0  0  0  0  0  0  0  0  0  0
  1  2  1  0
  2  3  3  0
  3  4  1  0
  4  5  1  0
  5  6  1  0
  6  7  1  0
  7  8  1  0
  8  9  1  0
  9  4  1  0
  9  7  1  0
  1 10  1  0
  1 11  1  0
  1 12  1  0
  4 13  1  0
  5 14  1  0
  5 15  1  0
  7 16  1  0
  8 17  1  0
  8 18  1  0
  9 19  1  0
M  END
