
     RDKit          3D

 23 22  0  0  0  0  0  0  0  0999 V2000
    3.4820    2.7729   -0.9304 C   0  0  0  0  0  0  0  0  0  0  0  0
    2.4570    1.8135   -0.9308 C   0  0  0  0  0  0  0  0  0  0  0  0
    1.5409    0.9427   -0.9499 C   0  0  0  0  0  0  0  0  0  0  0  0
    0.4710   -0.0981   -0.9712 C   0  0  0  0  0  0  0  0  0  0  0  0
   -0.0613   -0.1296    0.4240 C   0  0  0  0  0  0  0  0  0  0  0  0
   -1.1348   -1.1604    0.5425 C   0  0  0  0  0  0  0  0  0  0  0  0
   -1.6580   -1.2135    1.9734 C   0  0  0  0  0  0  0  0  0  0  0  0
   -2.2759   -0.7732   -0.3968 C   0  0  0  0  0  0  0  0  0  0  0  0
   -0.7219   -2.4181    0.1303 O   0  0  0  0  0  0  0  0  0  0  0  0
    4.1587    2.5743   -1.8105 H   0  0  0  0  0  0  0  0  0  0  0  0
    4.0401    2.7887    0.0315 H   0  0  0  0  0  0  0  0  0  0  0  0
    3.1123    3.8288   -1.1595 H   0  0  0  0  0  0  0  0  0  0  0  0
   -0.2572    0.1653   -1.7462 H   0  0  0  0  0  0  0  0  0  0  0  0
    0.9090   -1.0952   -1.2022 H   0  0  0  0  0  0  0  0  0  0  0  0
    0.7595   -0.3221    1.1631 H   0  0  0  0  0  0  0  0  0  0  0  0
   -0.4713    0.8882    0.7172 H   0  0  0  0  0  0  0  0  0  0  0  0
   -2.7706   -1.2415    1.8952 H   0  0  0  0  0  0  0  0  0  0  0  0
   -1.3592   -0.2774    2.4624 H   0  0  0  0  0  0  0  0  0  0  0  0
   -1.2545   -2.1220    2.4694 H   0  0  0  0  0  0  0  0  0  0  0  0
   -3.1106   -1.4962   -0.3061 H   0  0  0  0  0  0  0  0  0  0  0  0
   -1.8771   -0.7911   -1.4221 H   0  0  0  0  0  0  0  0  0  0  0  0
   -2.5515    0.2584   -0.1010 H   0  0  0  0  0  0  0  0  0  0  0  0
   -1.4264   -2.8944   -0.3765 H   0  0  0  0  0  0  0  0  0  0  0  0
  1  2  1  0
  2  3  3  0
  3  4  1  0
  4  5  1  0
  5  6  1  0
  6  7  1  0
  6  8  1  0
  6  9  1  0
  1 10  1  0
  1 11  1  0
  1 12  1  0
  4 13  1  0
  4 14  1  0
  5 15  1  0
  5 16  1  0
  7 17  1  0
  7 18  1  0
  7 19  1  0
  8 20  1  0
  8 21  1  0
  8 22  1  0
  9 23  1  0
M  END
