
     RDKit          3D

 16 15  0  0  0  0  0  0  0  0999 V2000
    2.9214   -1.1509    1.1340 C   0  0  0  0  0  0  0  0  0  0  0  0
    1.5761   -0.7822    0.6888 C   0  0  0  0  0  0  0  0  0  0  0  0
    0.4691   -0.4688    0.3130 C   0  0  0  0  0  0  0  0  0  0  0  0
   -0.8876   -0.0868   -0.1205 C   0  0  0  0  0  0  0  0  0  0  0  0
   -1.4823   -1.1028   -1.0043 C   0  0  0  0  0  0  0  0  0  0  0  0
   -1.6664   -2.2238   -0.5376 O   0  0  0  0  0  0  0  0  0  0  0  0
   -0.7574    1.0939   -0.8066 O   0  0  0  0  0  0  0  0  0  0  0  0
   -1.4858    2.0842   -0.1560 C   0  0  0  0  0  0  0  0  0  0  0  0
    3.3954   -0.2857    1.6771 H   0  0  0  0  0  0  0  0  0  0  0  0
    3.4978   -1.4413    0.2334 H   0  0  0  0  0  0  0  0  0  0  0  0
    2.8536   -2.0276    1.8105 H   0  0  0  0  0  0  0  0  0  0  0  0
   -1.5448    0.0917    0.7664 H   0  0  0  0  0  0  0  0  0  0  0  0
   -1.7381   -0.8625   -2.0061 H   0  0  0  0  0  0  0  0  0  0  0  0
   -2.5690    1.8362   -0.0922 H   0  0  0  0  0  0  0  0  0  0  0  0
   -1.4420    3.0552   -0.7109 H   0  0  0  0  0  0  0  0  0  0  0  0
   -1.1400    2.2711    0.8780 H   0  0  0  0  0  0  0  0  0  0  0  0
  1  2  1  0
  2  3  3  0
  3  4  1  0
  4  5  1  0
  5  6  2  0
  4  7  1  0
  7  8  1  0
  1  9  1  0
  1 10  1  0
  1 11  1  0
  4 12  1  0
  5 13  1  0
  8 14  1  0
  8 15  1  0
  8 16  1  0
M  END
