
     RDKit          3D

 17 17  0  0  0  0  0  0  0  0999 V2000
   -3.2808    0.6325    2.3600 C   0  0  0  0  0  0  0  0  0  0  0  0
   -2.3389    0.1821    1.3004 C   0  0  0  0  0  0  0  0  0  0  0  0
   -1.5666   -0.1868    0.4616 C   0  0  0  0  0  0  0  0  0  0  0  0
   -0.6253   -0.6356   -0.5965 C   0  0  0  0  0  0  0  0  0  0  0  0
    0.1648   -1.7095   -0.2739 O   0  0  0  0  0  0  0  0  0  0  0  0
    0.8128   -0.3887   -0.2748 C   0  0  0  0  0  0  0  0  0  0  0  0
    1.8149   -0.2633   -1.3408 C   0  0  0  0  0  0  0  0  0  0  0  0
    3.1972    0.2075   -1.0606 C   0  0  0  0  0  0  0  0  0  0  0  0
    1.4891   -0.5559   -2.4791 O   0  0  0  0  0  0  0  0  0  0  0  0
   -3.8828   -0.2034    2.7273 H   0  0  0  0  0  0  0  0  0  0  0  0
   -3.9225    1.4151    1.9097 H   0  0  0  0  0  0  0  0  0  0  0  0
   -2.6997    1.0846    3.2099 H   0  0  0  0  0  0  0  0  0  0  0  0
   -0.9533   -0.4440   -1.6415 H   0  0  0  0  0  0  0  0  0  0  0  0
    1.0728   -0.1362    0.7700 H   0  0  0  0  0  0  0  0  0  0  0  0
    3.7322    0.5171   -1.9827 H   0  0  0  0  0  0  0  0  0  0  0  0
    3.8156   -0.5797   -0.5771 H   0  0  0  0  0  0  0  0  0  0  0  0
    3.1707    1.0641   -0.3238 H   0  0  0  0  0  0  0  0  0  0  0  0
  1  2  1  0
  2  3  3  0
  3  4  1  0
  4  5  1  0
  5  6  1  0
  6  7  1  0
  7  8  1  0
  7  9  2  0
  6  4  1  0
  1 10  1  0
  1 11  1  0
  1 12  1  0
  4 13  1  0
  6 14  1  0
  8 15  1  0
  8 16  1  0
  8 17  1  0
M  END
