
     RDKit          3D

 21 20  0  0  0  0  0  0  0  0999 V2000
   -3.6710    0.6674   -0.0409 C   0  0  0  0  0  0  0  0  0  0  0  0
   -2.4520    0.0230    0.4530 C   0  0  0  0  0  0  0  0  0  0  0  0
   -1.4364   -0.4939    0.8490 C   0  0  0  0  0  0  0  0  0  0  0  0
   -0.1913   -1.1074    1.3163 C   0  0  0  0  0  0  0  0  0  0  0  0
    0.5152   -1.7128    0.1364 C   0  0  0  0  0  0  0  0  0  0  0  0
    0.8356   -0.8050   -0.8410 O   0  0  0  0  0  0  0  0  0  0  0  0
    1.6733    0.2149   -0.4190 C   0  0  0  0  0  0  0  0  0  0  0  0
    1.9188    1.1184   -1.6265 C   0  0  0  0  0  0  0  0  0  0  0  0
    2.7594    2.1825   -1.2928 O   0  0  0  0  0  0  0  0  0  0  0  0
   -4.3187    1.0142    0.7981 H   0  0  0  0  0  0  0  0  0  0  0  0
   -4.2608   -0.1047   -0.5810 H   0  0  0  0  0  0  0  0  0  0  0  0
   -3.4587    1.5543   -0.6585 H   0  0  0  0  0  0  0  0  0  0  0  0
    0.4526   -0.3583    1.8116 H   0  0  0  0  0  0  0  0  0  0  0  0
   -0.4530   -1.9059    2.0262 H   0  0  0  0  0  0  0  0  0  0  0  0
   -0.0781   -2.5166   -0.3132 H   0  0  0  0  0  0  0  0  0  0  0  0
    1.4755   -2.1796    0.4805 H   0  0  0  0  0  0  0  0  0  0  0  0
    2.6458   -0.1463   -0.0361 H   0  0  0  0  0  0  0  0  0  0  0  0
    1.1583    0.8516    0.3286 H   0  0  0  0  0  0  0  0  0  0  0  0
    2.4400    0.4896   -2.3939 H   0  0  0  0  0  0  0  0  0  0  0  0
    0.9346    1.4514   -2.0051 H   0  0  0  0  0  0  0  0  0  0  0  0
    3.5108    1.7633   -0.7652 H   0  0  0  0  0  0  0  0  0  0  0  0
  1  2  1  0
  2  3  3  0
  3  4  1  0
  4  5  1  0
  5  6  1  0
  6  7  1  0
  7  8  1  0
  8  9  1  0
  1 10  1  0
  1 11  1  0
  1 12  1  0
  4 13  1  0
  4 14  1  0
  5 15  1  0
  5 16  1  0
  7 17  1  0
  7 18  1  0
  8 19  1  0
  8 20  1  0
  9 21  1  0
M  END
