
     RDKit          3D

 21 20  0  0  0  0  0  0  0  0999 V2000
    4.5041   -0.0497    0.1890 C   0  0  0  0  0  0  0  0  0  0  0  0
    3.1184   -0.3222   -0.1858 C   0  0  0  0  0  0  0  0  0  0  0  0
    1.9517   -0.5341   -0.4874 C   0  0  0  0  0  0  0  0  0  0  0  0
    0.5624   -0.8007   -0.8693 C   0  0  0  0  0  0  0  0  0  0  0  0
   -0.2970    0.1422   -0.0381 C   0  0  0  0  0  0  0  0  0  0  0  0
   -0.0455   -0.1664    1.2975 O   0  0  0  0  0  0  0  0  0  0  0  0
   -1.7823   -0.0854   -0.3376 C   0  0  0  0  0  0  0  0  0  0  0  0
   -2.4867    0.7484    0.5019 O   0  0  0  0  0  0  0  0  0  0  0  0
   -3.8496    0.6735    0.3669 C   0  0  0  0  0  0  0  0  0  0  0  0
    5.2208   -0.6686   -0.4046 H   0  0  0  0  0  0  0  0  0  0  0  0
    4.7847    1.0136    0.0521 H   0  0  0  0  0  0  0  0  0  0  0  0
    4.6444   -0.3126    1.2766 H   0  0  0  0  0  0  0  0  0  0  0  0
    0.3935   -0.6395   -1.9659 H   0  0  0  0  0  0  0  0  0  0  0  0
    0.3385   -1.8424   -0.5588 H   0  0  0  0  0  0  0  0  0  0  0  0
   -0.0106    1.1865   -0.2115 H   0  0  0  0  0  0  0  0  0  0  0  0
   -0.2985    0.6538    1.8181 H   0  0  0  0  0  0  0  0  0  0  0  0
   -2.0313   -1.1507   -0.1670 H   0  0  0  0  0  0  0  0  0  0  0  0
   -1.9912    0.1564   -1.3967 H   0  0  0  0  0  0  0  0  0  0  0  0
   -4.1949   -0.3645    0.5831 H   0  0  0  0  0  0  0  0  0  0  0  0
   -4.2304    1.0400   -0.6140 H   0  0  0  0  0  0  0  0  0  0  0  0
   -4.3006    1.3225    1.1514 H   0  0  0  0  0  0  0  0  0  0  0  0
  1  2  1  0
  2  3  3  0
  3  4  1  0
  4  5  1  0
  5  6  1  0
  5  7  1  0
  7  8  1  0
  8  9  1  0
  1 10  1  0
  1 11  1  0
  1 12  1  0
  4 13  1  0
  4 14  1  0
  5 15  1  0
  6 16  1  0
  7 17  1  0
  7 18  1  0
  9 19  1  0
  9 20  1  0
  9 21  1  0
M  END
