
     RDKit          3D

 21 21  0  0  0  0  0  0  0  0999 V2000
    4.4865   -0.8951   -0.3751 C   0  0  0  0  0  0  0  0  0  0  0  0
    3.1229   -0.4846   -0.0697 C   0  0  0  0  0  0  0  0  0  0  0  0
    1.9835   -0.1436    0.1638 C   0  0  0  0  0  0  0  0  0  0  0  0
    0.6056    0.2945    0.4494 C   0  0  0  0  0  0  0  0  0  0  0  0
   -0.3153   -0.7700    0.1490 O   0  0  0  0  0  0  0  0  0  0  0  0
   -0.2825    0.4375   -0.6742 C   0  0  0  0  0  0  0  0  0  0  0  0
   -1.5524    1.2241   -0.6579 C   0  0  0  0  0  0  0  0  0  0  0  0
   -2.5352    0.7135    0.3684 C   0  0  0  0  0  0  0  0  0  0  0  0
   -2.8743   -0.7136    0.0557 C   0  0  0  0  0  0  0  0  0  0  0  0
    5.2482   -0.2978    0.1571 H   0  0  0  0  0  0  0  0  0  0  0  0
    4.7056   -0.8287   -1.4759 H   0  0  0  0  0  0  0  0  0  0  0  0
    4.6076   -1.9482   -0.0391 H   0  0  0  0  0  0  0  0  0  0  0  0
    0.4382    0.8359    1.3918 H   0  0  0  0  0  0  0  0  0  0  0  0
    0.1114    0.2282   -1.7037 H   0  0  0  0  0  0  0  0  0  0  0  0
   -2.0581    1.1989   -1.6414 H   0  0  0  0  0  0  0  0  0  0  0  0
   -1.3552    2.2998   -0.3950 H   0  0  0  0  0  0  0  0  0  0  0  0
   -3.4185    1.3732    0.4059 H   0  0  0  0  0  0  0  0  0  0  0  0
   -2.0307    0.7627    1.3489 H   0  0  0  0  0  0  0  0  0  0  0  0
   -2.4573   -1.3897    0.8478 H   0  0  0  0  0  0  0  0  0  0  0  0
   -3.9688   -0.9005    0.0671 H   0  0  0  0  0  0  0  0  0  0  0  0
   -2.4613   -0.9964   -0.9301 H   0  0  0  0  0  0  0  0  0  0  0  0
  1  2  1  0
  2  3  3  0
  3  4  1  0
  4  5  1  0
  5  6  1  0
  6  7  1  0
  7  8  1  0
  8  9  1  0
  6  4  1  0
  1 10  1  0
  1 11  1  0
  1 12  1  0
  4 13  1  0
  6 14  1  0
  7 15  1  0
  7 16  1  0
  8 17  1  0
  8 18  1  0
  9 19  1  0
  9 20  1  0
  9 21  1  0
M  END
