
     RDKit          3D

 14 14  0  0  0  0  0  0  0  0999 V2000
    2.0707   -1.7237    1.2110 C   0  0  0  0  0  0  0  0  0  0  0  0
    1.2190   -0.8018    0.4575 C   0  0  0  0  0  0  0  0  0  0  0  0
    0.5331   -0.0297   -0.1696 C   0  0  0  0  0  0  0  0  0  0  0  0
   -0.2884    0.9252   -0.9477 C   0  0  0  0  0  0  0  0  0  0  0  0
   -1.6406    0.5070   -1.3514 C   0  0  0  0  0  0  0  0  0  0  0  0
   -1.5501    1.4120   -0.1866 C   0  0  0  0  0  0  0  0  0  0  0  0
    2.9599   -2.0471    0.5977 H   0  0  0  0  0  0  0  0  0  0  0  0
    2.5232   -1.2182    2.1131 H   0  0  0  0  0  0  0  0  0  0  0  0
    1.4640   -2.5748    1.5507 H   0  0  0  0  0  0  0  0  0  0  0  0
    0.2221    1.6503   -1.5915 H   0  0  0  0  0  0  0  0  0  0  0  0
   -2.0128   -0.5354   -1.1572 H   0  0  0  0  0  0  0  0  0  0  0  0
   -2.0974    0.9446   -2.2642 H   0  0  0  0  0  0  0  0  0  0  0  0
   -1.7090    0.9976    0.8285 H   0  0  0  0  0  0  0  0  0  0  0  0
   -1.6937    2.4938   -0.2497 H   0  0  0  0  0  0  0  0  0  0  0  0
  1  2  1  0
  2  3  3  0
  3  4  1  0
  4  5  1  0
  5  6  1  0
  6  4  1  0
  1  7  1  0
  1  8  1  0
  1  9  1  0
  4 10  1  0
  5 11  1  0
  5 12  1  0
  6 13  1  0
  6 14  1  0
M  END
