
     RDKit          3D

 23 23  0  0  0  0  0  0  0  0999 V2000
    3.7611   -0.7443   -0.7505 C   0  0  0  0  0  0  0  0  0  0  0  0
    2.4054   -0.1961   -0.8163 C   0  0  0  0  0  0  0  0  0  0  0  0
    1.2760    0.2651   -0.8508 C   0  0  0  0  0  0  0  0  0  0  0  0
   -0.0748    0.8373   -0.9070 C   0  0  0  0  0  0  0  0  0  0  0  0
   -0.7950    0.3910    0.3374 C   0  0  0  0  0  0  0  0  0  0  0  0
   -0.0705    0.8809    1.5630 C   0  0  0  0  0  0  0  0  0  0  0  0
   -1.0872   -1.0922    0.3253 C   0  0  0  0  0  0  0  0  0  0  0  0
   -2.4542   -0.7556   -0.2377 C   0  0  0  0  0  0  0  0  0  0  0  0
   -2.2662    0.6481    0.2999 C   0  0  0  0  0  0  0  0  0  0  0  0
    4.1438   -0.9906   -1.7844 H   0  0  0  0  0  0  0  0  0  0  0  0
    4.4170    0.0542   -0.3740 H   0  0  0  0  0  0  0  0  0  0  0  0
    3.8224   -1.6591   -0.1375 H   0  0  0  0  0  0  0  0  0  0  0  0
   -0.0754    1.9329   -0.9393 H   0  0  0  0  0  0  0  0  0  0  0  0
   -0.6380    0.4623   -1.7845 H   0  0  0  0  0  0  0  0  0  0  0  0
    0.9399    0.4485    1.5459 H   0  0  0  0  0  0  0  0  0  0  0  0
   -0.6297    0.6869    2.4851 H   0  0  0  0  0  0  0  0  0  0  0  0
    0.0323    1.9893    1.4484 H   0  0  0  0  0  0  0  0  0  0  0  0
   -1.1676   -1.5735    1.3046 H   0  0  0  0  0  0  0  0  0  0  0  0
   -0.5123   -1.6619   -0.4433 H   0  0  0  0  0  0  0  0  0  0  0  0
   -2.5096   -0.7839   -1.3573 H   0  0  0  0  0  0  0  0  0  0  0  0
   -3.2768   -1.3258    0.2237 H   0  0  0  0  0  0  0  0  0  0  0  0
   -2.5240    1.4538   -0.4010 H   0  0  0  0  0  0  0  0  0  0  0  0
   -2.7164    0.7326    1.3177 H   0  0  0  0  0  0  0  0  0  0  0  0
  1  2  1  0
  2  3  3  0
  3  4  1  0
  4  5  1  0
  5  6  1  0
  5  7  1  0
  7  8  1  0
  8  9  1  0
  9  5  1  0
  1 10  1  0
  1 11  1  0
  1 12  1  0
  4 13  1  0
  4 14  1  0
  6 15  1  0
  6 16  1  0
  6 17  1  0
  7 18  1  0
  7 19  1  0
  8 20  1  0
  8 21  1  0
  9 22  1  0
  9 23  1  0
M  END
