
     RDKit          3D

 23 23  0  0  0  0  0  0  0  0999 V2000
    3.2253    0.1829    1.8136 C   0  0  0  0  0  0  0  0  0  0  0  0
    2.2479    0.0735    0.7259 C   0  0  0  0  0  0  0  0  0  0  0  0
    1.4275   -0.0193   -0.1561 C   0  0  0  0  0  0  0  0  0  0  0  0
    0.4369   -0.1150   -1.2482 C   0  0  0  0  0  0  0  0  0  0  0  0
   -0.3329    1.1768   -1.2461 C   0  0  0  0  0  0  0  0  0  0  0  0
   -1.2426    1.1631   -0.0334 C   0  0  0  0  0  0  0  0  0  0  0  0
   -2.3096    0.1094   -0.3605 C   0  0  0  0  0  0  0  0  0  0  0  0
   -1.6270   -1.2246   -0.3210 C   0  0  0  0  0  0  0  0  0  0  0  0
   -0.3903   -1.3283   -1.1111 C   0  0  0  0  0  0  0  0  0  0  0  0
    3.8641    1.0905    1.6934 H   0  0  0  0  0  0  0  0  0  0  0  0
    2.7194    0.2154    2.8033 H   0  0  0  0  0  0  0  0  0  0  0  0
    3.8780   -0.7068    1.7554 H   0  0  0  0  0  0  0  0  0  0  0  0
    1.0235   -0.1501   -2.1917 H   0  0  0  0  0  0  0  0  0  0  0  0
    0.3281    2.0616   -1.1558 H   0  0  0  0  0  0  0  0  0  0  0  0
   -0.9447    1.2576   -2.1620 H   0  0  0  0  0  0  0  0  0  0  0  0
   -1.6873    2.1654    0.0912 H   0  0  0  0  0  0  0  0  0  0  0  0
   -0.6539    0.8453    0.8415 H   0  0  0  0  0  0  0  0  0  0  0  0
   -3.1219    0.2027    0.3684 H   0  0  0  0  0  0  0  0  0  0  0  0
   -2.6524    0.2908   -1.3933 H   0  0  0  0  0  0  0  0  0  0  0  0
   -1.4012   -1.4723    0.7450 H   0  0  0  0  0  0  0  0  0  0  0  0
   -2.3773   -1.9915   -0.6410 H   0  0  0  0  0  0  0  0  0  0  0  0
    0.2592   -2.1531   -0.7207 H   0  0  0  0  0  0  0  0  0  0  0  0
   -0.6687   -1.6739   -2.1506 H   0  0  0  0  0  0  0  0  0  0  0  0
  1  2  1  0
  2  3  3  0
  3  4  1  0
  4  5  1  0
  5  6  1  0
  6  7  1  0
  7  8  1  0
  8  9  1  0
  9  4  1  0
  1 10  1  0
  1 11  1  0
  1 12  1  0
  4 13  1  0
  5 14  1  0
  5 15  1  0
  6 16  1  0
  6 17  1  0
  7 18  1  0
  7 19  1  0
  8 20  1  0
  8 21  1  0
  9 22  1  0
  9 23  1  0
M  END
