
     RDKit          3D

 23 23  0  0  0  0  0  0  0  0999 V2000
    4.3105    0.5243   -0.2374 C   0  0  0  0  0  0  0  0  0  0  0  0
    2.9785    0.0428    0.1596 C   0  0  0  0  0  0  0  0  0  0  0  0
    1.8737   -0.3382    0.4979 C   0  0  0  0  0  0  0  0  0  0  0  0
    0.5529   -0.8199    0.9076 C   0  0  0  0  0  0  0  0  0  0  0  0
   -0.4259   -0.8290   -0.2285 C   0  0  0  0  0  0  0  0  0  0  0  0
   -1.8048   -1.3178    0.1411 C   0  0  0  0  0  0  0  0  0  0  0  0
   -1.5552    0.1152   -0.3003 C   0  0  0  0  0  0  0  0  0  0  0  0
   -2.1586    0.4415   -1.6503 C   0  0  0  0  0  0  0  0  0  0  0  0
   -1.7398    1.2150    0.7199 C   0  0  0  0  0  0  0  0  0  0  0  0
    4.9284   -0.3495   -0.5339 H   0  0  0  0  0  0  0  0  0  0  0  0
    4.8016    1.0877    0.5768 H   0  0  0  0  0  0  0  0  0  0  0  0
    4.2657    1.1955   -1.1202 H   0  0  0  0  0  0  0  0  0  0  0  0
    0.7090   -1.8997    1.1994 H   0  0  0  0  0  0  0  0  0  0  0  0
    0.1829   -0.3195    1.8111 H   0  0  0  0  0  0  0  0  0  0  0  0
    0.0017   -1.1422   -1.2033 H   0  0  0  0  0  0  0  0  0  0  0  0
   -2.2877   -2.0210   -0.5716 H   0  0  0  0  0  0  0  0  0  0  0  0
   -2.0502   -1.4906    1.2066 H   0  0  0  0  0  0  0  0  0  0  0  0
   -2.1876    1.5301   -1.8473 H   0  0  0  0  0  0  0  0  0  0  0  0
   -3.2252    0.1029   -1.6022 H   0  0  0  0  0  0  0  0  0  0  0  0
   -1.6778   -0.1347   -2.4463 H   0  0  0  0  0  0  0  0  0  0  0  0
   -1.1592    2.1138    0.4245 H   0  0  0  0  0  0  0  0  0  0  0  0
   -2.8423    1.4502    0.7240 H   0  0  0  0  0  0  0  0  0  0  0  0
   -1.4906    0.8432    1.7179 H   0  0  0  0  0  0  0  0  0  0  0  0
  1  2  1  0
  2  3  3  0
  3  4  1  0
  4  5  1  0
  5  6  1  0
  6  7  1  0
  7  8  1  0
  7  9  1  0
  7  5  1  0
  1 10  1  0
  1 11  1  0
  1 12  1  0
  4 13  1  0
  4 14  1  0
  5 15  1  0
  6 16  1  0
  6 17  1  0
  8 18  1  0
  8 19  1  0
  8 20  1  0
  9 21  1  0
  9 22  1  0
  9 23  1  0
M  END
