
     RDKit          3D

 16 15  0  0  0  0  0  0  0  0999 V2000
    3.0490   -0.7444   -0.7822 C   0  0  0  0  0  0  0  0  0  0  0  0
    1.8391   -0.6193   -0.1970 C   0  0  0  0  0  0  0  0  0  0  0  0
    0.4547   -0.4851    0.5009 C   0  0  0  0  0  0  0  0  0  0  0  0
   -0.5549   -0.3973    1.0109 C   0  0  0  0  0  0  0  0  0  0  0  0
   -1.7374    0.2673    0.2700 C   0  0  0  0  0  0  0  0  0  0  0  0
   -2.0912   -0.3296   -0.8838 O   0  0  0  0  0  0  0  0  0  0  0  0
   -1.6988    1.7525    0.2558 C   0  0  0  0  0  0  0  0  0  0  0  0
   -1.8600    2.2191   -0.8942 O   0  0  0  0  0  0  0  0  0  0  0  0
    3.1511   -0.3757   -1.8027 H   0  0  0  0  0  0  0  0  0  0  0  0
    3.6964   -1.6428   -0.5538 H   0  0  0  0  0  0  0  0  0  0  0  0
    3.7665    0.0639   -0.2258 H   0  0  0  0  0  0  0  0  0  0  0  0
   -0.8022   -0.4533    2.1184 H   0  0  0  0  0  0  0  0  0  0  0  0
   -1.0722   -1.6119    0.8157 H   0  0  0  0  0  0  0  0  0  0  0  0
   -2.5880   -0.0362    1.0052 H   0  0  0  0  0  0  0  0  0  0  0  0
   -1.9857    0.1157   -1.7475 H   0  0  0  0  0  0  0  0  0  0  0  0
   -1.5663    2.2772    1.1100 H   0  0  0  0  0  0  0  0  0  0  0  0
  1  2  1  0
  2  3  3  0
  3  4  1  0
  4  5  1  0
  5  6  1  0
  5  7  1  0
  7  8  2  0
  1  9  1  0
  1 10  1  0
  1 11  1  0
  4 12  1  0
  4 13  1  0
  5 14  1  0
  6 15  1  0
  7 16  1  0
M  END
