
     RDKit          3D

 19 19  0  0  0  0  0  0  0  0999 V2000
    3.6598    0.6755   -0.3495 C   0  0  0  0  0  0  0  0  0  0  0  0
    2.3068    0.4946    0.1808 C   0  0  0  0  0  0  0  0  0  0  0  0
    1.1792    0.3504    0.6278 C   0  0  0  0  0  0  0  0  0  0  0  0
   -0.1843    0.1819    1.1419 C   0  0  0  0  0  0  0  0  0  0  0  0
   -0.6229   -1.2253    1.0049 O   0  0  0  0  0  0  0  0  0  0  0  0
   -1.2343   -0.1385    0.2408 C   0  0  0  0  0  0  0  0  0  0  0  0
   -2.6776    0.1218    0.5395 C   0  0  0  0  0  0  0  0  0  0  0  0
   -0.8974   -0.2910   -1.2353 C   0  0  0  0  0  0  0  0  0  0  0  0
   -1.4033   -1.5349   -1.6784 O   0  0  0  0  0  0  0  0  0  0  0  0
    3.6038    0.5124   -1.4379 H   0  0  0  0  0  0  0  0  0  0  0  0
    4.3860   -0.0162    0.1244 H   0  0  0  0  0  0  0  0  0  0  0  0
    3.9666    1.7373   -0.1965 H   0  0  0  0  0  0  0  0  0  0  0  0
   -0.2929    0.4662    2.1896 H   0  0  0  0  0  0  0  0  0  0  0  0
   -3.0454   -0.5439    1.3488 H   0  0  0  0  0  0  0  0  0  0  0  0
   -3.3392   -0.0806   -0.3361 H   0  0  0  0  0  0  0  0  0  0  0  0
   -2.7975    1.1891    0.7796 H   0  0  0  0  0  0  0  0  0  0  0  0
   -1.4439    0.4699   -1.8241 H   0  0  0  0  0  0  0  0  0  0  0  0
    0.1871   -0.2366   -1.4296 H   0  0  0  0  0  0  0  0  0  0  0  0
   -1.3505   -2.1321   -0.8891 H   0  0  0  0  0  0  0  0  0  0  0  0
  1  2  1  0
  2  3  3  0
  3  4  1  0
  4  5  1  0
  5  6  1  0
  6  7  1  0
  6  8  1  0
  8  9  1  0
  6  4  1  0
  1 10  1  0
  1 11  1  0
  1 12  1  0
  4 13  1  0
  7 14  1  0
  7 15  1  0
  7 16  1  0
  8 17  1  0
  8 18  1  0
  9 19  1  0
M  END
