
     RDKit          3D

 21 21  0  0  0  0  0  0  0  0999 V2000
    3.6889    0.8309    1.4259 C   0  0  0  0  0  0  0  0  0  0  0  0
    2.5134    0.2394    0.7568 C   0  0  0  0  0  0  0  0  0  0  0  0
    1.5490   -0.2537    0.2126 C   0  0  0  0  0  0  0  0  0  0  0  0
    0.3803   -0.8252   -0.4517 C   0  0  0  0  0  0  0  0  0  0  0  0
   -0.7945   -0.9760    0.4937 C   0  0  0  0  0  0  0  0  0  0  0  0
   -1.6674   -0.3982   -0.5718 C   0  0  0  0  0  0  0  0  0  0  0  0
   -2.6280    0.6738   -0.1268 C   0  0  0  0  0  0  0  0  0  0  0  0
   -2.3156   -1.3312   -1.3685 O   0  0  0  0  0  0  0  0  0  0  0  0
   -0.4359    0.2251   -1.1939 C   0  0  0  0  0  0  0  0  0  0  0  0
    3.3858    1.6044    2.1604 H   0  0  0  0  0  0  0  0  0  0  0  0
    4.3598    1.3294    0.6896 H   0  0  0  0  0  0  0  0  0  0  0  0
    4.2464    0.0298    1.9501 H   0  0  0  0  0  0  0  0  0  0  0  0
    0.6410   -1.6998   -1.0470 H   0  0  0  0  0  0  0  0  0  0  0  0
   -0.6956   -0.3550    1.4089 H   0  0  0  0  0  0  0  0  0  0  0  0
   -0.9987   -2.0498    0.6559 H   0  0  0  0  0  0  0  0  0  0  0  0
   -2.7584    1.3850   -0.9764 H   0  0  0  0  0  0  0  0  0  0  0  0
   -2.2233    1.2736    0.7166 H   0  0  0  0  0  0  0  0  0  0  0  0
   -3.6466    0.2833    0.0899 H   0  0  0  0  0  0  0  0  0  0  0  0
   -1.9832   -1.3814   -2.2782 H   0  0  0  0  0  0  0  0  0  0  0  0
   -0.2381    1.2270   -0.7471 H   0  0  0  0  0  0  0  0  0  0  0  0
   -0.3794    0.1687   -2.2922 H   0  0  0  0  0  0  0  0  0  0  0  0
  1  2  1  0
  2  3  3  0
  3  4  1  0
  4  5  1  0
  5  6  1  0
  6  7  1  0
  6  8  1  0
  6  9  1  0
  9  4  1  0
  1 10  1  0
  1 11  1  0
  1 12  1  0
  4 13  1  0
  5 14  1  0
  5 15  1  0
  7 16  1  0
  7 17  1  0
  7 18  1  0
  8 19  1  0
  9 20  1  0
  9 21  1  0
M  END
