
     RDKit          3D

 17 17  0  0  0  0  0  0  0  0999 V2000
    2.2852    0.7600    2.2038 C   0  0  0  0  0  0  0  0  0  0  0  0
    1.4714    0.5333    1.0087 C   0  0  0  0  0  0  0  0  0  0  0  0
    0.8017    0.3655    0.0139 C   0  0  0  0  0  0  0  0  0  0  0  0
   -0.0109    0.1790   -1.2151 C   0  0  0  0  0  0  0  0  0  0  0  0
   -0.1405   -1.2394   -1.6208 C   0  0  0  0  0  0  0  0  0  0  0  0
    0.6102   -2.2345   -1.7237 O   0  0  0  0  0  0  0  0  0  0  0  0
   -1.4835   -1.0122   -1.8502 O   0  0  0  0  0  0  0  0  0  0  0  0
   -1.4594    0.0163   -0.9087 C   0  0  0  0  0  0  0  0  0  0  0  0
   -1.8160   -0.3434    0.5026 C   0  0  0  0  0  0  0  0  0  0  0  0
    2.8874    1.6726    2.0098 H   0  0  0  0  0  0  0  0  0  0  0  0
    1.6507    0.8885    3.1170 H   0  0  0  0  0  0  0  0  0  0  0  0
    2.9381   -0.1266    2.4235 H   0  0  0  0  0  0  0  0  0  0  0  0
    0.2507    0.8887   -2.0209 H   0  0  0  0  0  0  0  0  0  0  0  0
   -2.0614    0.9118   -1.2276 H   0  0  0  0  0  0  0  0  0  0  0  0
   -1.8333    0.5820    1.1073 H   0  0  0  0  0  0  0  0  0  0  0  0
   -1.2114   -1.1402    0.9309 H   0  0  0  0  0  0  0  0  0  0  0  0
   -2.8789   -0.7014    0.4762 H   0  0  0  0  0  0  0  0  0  0  0  0
  1  2  1  0
  2  3  3  0
  3  4  1  0
  4  5  1  0
  5  6  2  0
  5  7  1  0
  7  8  1  0
  8  9  1  0
  8  4  1  0
  1 10  1  0
  1 11  1  0
  1 12  1  0
  4 13  1  0
  8 14  1  0
  9 15  1  0
  9 16  1  0
  9 17  1  0
M  END
