
     RDKit          3D

 17 16  0  0  0  0  0  0  0  0999 V2000
    2.5970   -0.9544    2.7736 C   0  0  0  0  0  0  0  0  0  0  0  0
    1.5738   -0.4984    1.8578 C   0  0  0  0  0  0  0  0  0  0  0  0
    0.6977   -0.0906    1.0481 C   0  0  0  0  0  0  0  0  0  0  0  0
   -0.3203    0.3829    0.1402 C   0  0  0  0  0  0  0  0  0  0  0  0
   -0.8912   -0.6594   -0.5961 O   0  0  0  0  0  0  0  0  0  0  0  0
   -1.8693   -0.0755   -1.4286 C   0  0  0  0  0  0  0  0  0  0  0  0
   -1.2595    0.9603   -2.3559 C   0  0  0  0  0  0  0  0  0  0  0  0
    2.7292   -2.0398    2.6097 H   0  0  0  0  0  0  0  0  0  0  0  0
    3.5874   -0.4646    2.5563 H   0  0  0  0  0  0  0  0  0  0  0  0
    2.3210   -0.7874    3.8377 H   0  0  0  0  0  0  0  0  0  0  0  0
   -1.0937    0.9012    0.7373 H   0  0  0  0  0  0  0  0  0  0  0  0
    0.0969    1.1087   -0.6129 H   0  0  0  0  0  0  0  0  0  0  0  0
   -2.5797    0.4085   -0.7349 H   0  0  0  0  0  0  0  0  0  0  0  0
   -2.3540   -0.8842   -2.0167 H   0  0  0  0  0  0  0  0  0  0  0  0
   -1.7792    0.9817   -3.3409 H   0  0  0  0  0  0  0  0  0  0  0  0
   -1.2609    1.9831   -1.8772 H   0  0  0  0  0  0  0  0  0  0  0  0
   -0.1952    0.6816   -2.5975 H   0  0  0  0  0  0  0  0  0  0  0  0
  1  2  1  0
  2  3  3  0
  3  4  1  0
  4  5  1  0
  5  6  1  0
  6  7  1  0
  1  8  1  0
  1  9  1  0
  1 10  1  0
  4 11  1  0
  4 12  1  0
  6 13  1  0
  6 14  1  0
  7 15  1  0
  7 16  1  0
  7 17  1  0
M  END
