
     RDKit          3D

 16 15  0  0  0  0  0  0  0  0999 V2000
    3.2164   -0.1693   -0.3127 C   0  0  0  0  0  0  0  0  0  0  0  0
    1.7525   -0.1590   -0.0800 C   0  0  0  0  0  0  0  0  0  0  0  0
    0.5623   -0.1350    0.0993 C   0  0  0  0  0  0  0  0  0  0  0  0
   -0.8916   -0.0862    0.3226 C   0  0  0  0  0  0  0  0  0  0  0  0
   -1.4901   -1.4627    0.1255 C   0  0  0  0  0  0  0  0  0  0  0  0
   -1.4356    0.8598   -0.5647 O   0  0  0  0  0  0  0  0  0  0  0  0
   -2.0499    1.9883   -0.0489 C   0  0  0  0  0  0  0  0  0  0  0  0
   -2.0879    2.1066    1.2014 O   0  0  0  0  0  0  0  0  0  0  0  0
    3.5571   -1.2167   -0.3958 H   0  0  0  0  0  0  0  0  0  0  0  0
    3.6844    0.2722    0.5968 H   0  0  0  0  0  0  0  0  0  0  0  0
    3.4855    0.4678   -1.1606 H   0  0  0  0  0  0  0  0  0  0  0  0
   -1.0277    0.2018    1.3914 H   0  0  0  0  0  0  0  0  0  0  0  0
   -0.8420   -2.1941    0.6747 H   0  0  0  0  0  0  0  0  0  0  0  0
   -1.4242   -1.7386   -0.9454 H   0  0  0  0  0  0  0  0  0  0  0  0
   -2.5145   -1.5006    0.5232 H   0  0  0  0  0  0  0  0  0  0  0  0
   -2.4947    2.7657   -0.6797 H   0  0  0  0  0  0  0  0  0  0  0  0
  1  2  1  0
  2  3  3  0
  3  4  1  0
  4  5  1  0
  4  6  1  0
  6  7  1  0
  7  8  2  0
  1  9  1  0
  1 10  1  0
  1 11  1  0
  4 12  1  0
  5 13  1  0
  5 14  1  0
  5 15  1  0
  7 16  1  0
M  END
