
     RDKit          3D

 17 16  0  0  0  0  0  0  0  0999 V2000
    3.6971   -0.0712   -0.5945 C   0  0  0  0  0  0  0  0  0  0  0  0
    2.2718    0.2435   -0.5141 C   0  0  0  0  0  0  0  0  0  0  0  0
    1.0743    0.4949   -0.4581 C   0  0  0  0  0  0  0  0  0  0  0  0
   -0.3453    0.8115   -0.3736 C   0  0  0  0  0  0  0  0  0  0  0  0
   -1.0735   -0.4570    0.0934 C   0  0  0  0  0  0  0  0  0  0  0  0
   -2.5423   -0.0848    0.1676 C   0  0  0  0  0  0  0  0  0  0  0  0
   -3.3292   -1.1430    0.5796 O   0  0  0  0  0  0  0  0  0  0  0  0
    4.0314   -0.2474   -1.6359 H   0  0  0  0  0  0  0  0  0  0  0  0
    4.3267    0.7877   -0.2271 H   0  0  0  0  0  0  0  0  0  0  0  0
    3.8833   -0.9911   -0.0149 H   0  0  0  0  0  0  0  0  0  0  0  0
   -0.7650    1.1044   -1.3667 H   0  0  0  0  0  0  0  0  0  0  0  0
   -0.5664    1.6436    0.3239 H   0  0  0  0  0  0  0  0  0  0  0  0
   -0.8908   -1.2907   -0.5975 H   0  0  0  0  0  0  0  0  0  0  0  0
   -0.7459   -0.6967    1.1270 H   0  0  0  0  0  0  0  0  0  0  0  0
   -2.8320    0.2313   -0.8656 H   0  0  0  0  0  0  0  0  0  0  0  0
   -2.6335    0.7867    0.8518 H   0  0  0  0  0  0  0  0  0  0  0  0
   -3.5608   -1.1219    1.5422 H   0  0  0  0  0  0  0  0  0  0  0  0
  1  2  1  0
  2  3  3  0
  3  4  1  0
  4  5  1  0
  5  6  1  0
  6  7  1  0
  1  8  1  0
  1  9  1  0
  1 10  1  0
  4 11  1  0
  4 12  1  0
  5 13  1  0
  5 14  1  0
  6 15  1  0
  6 16  1  0
  7 17  1  0
M  END
