
     RDKit          3D

 21 20  0  0  0  0  0  0  0  0999 V2000
    3.4460    0.2851   -0.0876 C   0  0  0  0  0  0  0  0  0  0  0  0
    2.0092    0.0153    0.0496 C   0  0  0  0  0  0  0  0  0  0  0  0
    0.8352   -0.1866    0.1520 C   0  0  0  0  0  0  0  0  0  0  0  0
   -0.5793   -0.4238    0.2997 C   0  0  0  0  0  0  0  0  0  0  0  0
   -0.9194   -1.8404   -0.1479 C   0  0  0  0  0  0  0  0  0  0  0  0
   -0.2297   -2.7554    0.6185 O   0  0  0  0  0  0  0  0  0  0  0  0
   -1.4379    0.5100   -0.4843 C   0  0  0  0  0  0  0  0  0  0  0  0
   -1.2444    1.9593   -0.1060 C   0  0  0  0  0  0  0  0  0  0  0  0
   -1.5438    2.1847    1.2306 O   0  0  0  0  0  0  0  0  0  0  0  0
    3.8491    0.8410    0.7816 H   0  0  0  0  0  0  0  0  0  0  0  0
    4.0354   -0.6615   -0.1627 H   0  0  0  0  0  0  0  0  0  0  0  0
    3.5627    0.9148   -0.9905 H   0  0  0  0  0  0  0  0  0  0  0  0
   -0.9196   -0.3521    1.3750 H   0  0  0  0  0  0  0  0  0  0  0  0
   -2.0252   -1.9496   -0.0728 H   0  0  0  0  0  0  0  0  0  0  0  0
   -0.5959   -1.9266   -1.1959 H   0  0  0  0  0  0  0  0  0  0  0  0
   -0.0400   -3.5488    0.0419 H   0  0  0  0  0  0  0  0  0  0  0  0
   -2.5087    0.2677   -0.2164 H   0  0  0  0  0  0  0  0  0  0  0  0
   -1.3825    0.3604   -1.5804 H   0  0  0  0  0  0  0  0  0  0  0  0
   -0.2609    2.3486   -0.3703 H   0  0  0  0  0  0  0  0  0  0  0  0
   -1.9919    2.5508   -0.6947 H   0  0  0  0  0  0  0  0  0  0  0  0
   -2.0582    1.4070    1.5604 H   0  0  0  0  0  0  0  0  0  0  0  0
  1  2  1  0
  2  3  3  0
  3  4  1  0
  4  5  1  0
  5  6  1  0
  4  7  1  0
  7  8  1  0
  8  9  1  0
  1 10  1  0
  1 11  1  0
  1 12  1  0
  4 13  1  0
  5 14  1  0
  5 15  1  0
  6 16  1  0
  7 17  1  0
  7 18  1  0
  8 19  1  0
  8 20  1  0
  9 21  1  0
M  END
