
     RDKit          3D

 17 17  0  0  0  0  0  0  0  0999 V2000
   -2.9065    1.3911    0.1720 C   0  0  0  0  0  0  0  0  0  0  0  0
   -2.1131    0.2110   -0.1817 C   0  0  0  0  0  0  0  0  0  0  0  0
   -1.4507   -0.7684   -0.4969 C   0  0  0  0  0  0  0  0  0  0  0  0
   -0.6376   -1.9256   -0.8775 C   0  0  0  0  0  0  0  0  0  0  0  0
    0.2295   -1.6856   -1.9796 O   0  0  0  0  0  0  0  0  0  0  0  0
    0.7293   -1.9546   -0.6393 C   0  0  0  0  0  0  0  0  0  0  0  0
    1.4458   -0.7934   -0.1103 C   0  0  0  0  0  0  0  0  0  0  0  0
    2.0629    0.1692    0.3260 C   0  0  0  0  0  0  0  0  0  0  0  0
    2.8235    1.3107    0.8408 C   0  0  0  0  0  0  0  0  0  0  0  0
   -3.9974    1.1291    0.2959 H   0  0  0  0  0  0  0  0  0  0  0  0
   -2.4997    1.7983    1.1098 H   0  0  0  0  0  0  0  0  0  0  0  0
   -2.8711    2.1558   -0.6549 H   0  0  0  0  0  0  0  0  0  0  0  0
   -1.2180   -2.8794   -1.0509 H   0  0  0  0  0  0  0  0  0  0  0  0
    1.3097   -2.9236   -0.6691 H   0  0  0  0  0  0  0  0  0  0  0  0
    2.4203    2.2302    0.3811 H   0  0  0  0  0  0  0  0  0  0  0  0
    2.7615    1.3179    1.9560 H   0  0  0  0  0  0  0  0  0  0  0  0
    3.9115    1.2175    0.5960 H   0  0  0  0  0  0  0  0  0  0  0  0
  1  2  1  0
  2  3  3  0
  3  4  1  0
  4  5  1  0
  5  6  1  0
  6  7  1  0
  7  8  3  0
  8  9  1  0
  6  4  1  0
  1 10  1  0
  1 11  1  0
  1 12  1  0
  4 13  1  0
  6 14  1  0
  9 15  1  0
  9 16  1  0
  9 17  1  0
M  END
