
     RDKit          3D

 19 18  0  0  0  0  0  0  0  0999 V2000
    2.3454    0.9909    2.2543 C   0  0  0  0  0  0  0  0  0  0  0  0
    1.2069    0.4220    1.5297 C   0  0  0  0  0  0  0  0  0  0  0  0
    0.2677   -0.0614    0.9466 C   0  0  0  0  0  0  0  0  0  0  0  0
   -0.8726   -0.6757    0.2263 C   0  0  0  0  0  0  0  0  0  0  0  0
   -0.8975   -2.1716    0.4517 C   0  0  0  0  0  0  0  0  0  0  0  0
   -0.6895   -0.3416   -1.2030 C   0  0  0  0  0  0  0  0  0  0  0  0
   -0.5642   -1.1821   -2.0773 O   0  0  0  0  0  0  0  0  0  0  0  0
   -0.6529    1.0865   -1.6213 C   0  0  0  0  0  0  0  0  0  0  0  0
   -0.8100    1.9259   -0.5074 O   0  0  0  0  0  0  0  0  0  0  0  0
    3.1065    0.1965    2.4950 H   0  0  0  0  0  0  0  0  0  0  0  0
    2.8330    1.7531    1.5837 H   0  0  0  0  0  0  0  0  0  0  0  0
    2.0212    1.4237    3.2031 H   0  0  0  0  0  0  0  0  0  0  0  0
   -1.8368   -0.2121    0.5526 H   0  0  0  0  0  0  0  0  0  0  0  0
   -1.7838   -2.4711    1.0340 H   0  0  0  0  0  0  0  0  0  0  0  0
   -0.0049   -2.4649    1.0740 H   0  0  0  0  0  0  0  0  0  0  0  0
   -0.8176   -2.6791   -0.5291 H   0  0  0  0  0  0  0  0  0  0  0  0
    0.3617    1.3329   -2.0354 H   0  0  0  0  0  0  0  0  0  0  0  0
   -1.4480    1.2851   -2.3597 H   0  0  0  0  0  0  0  0  0  0  0  0
   -1.7645    1.8429   -0.2327 H   0  0  0  0  0  0  0  0  0  0  0  0
  1  2  1  0
  2  3  3  0
  3  4  1  0
  4  5  1  0
  4  6  1  0
  6  7  2  0
  6  8  1  0
  8  9  1  0
  1 10  1  0
  1 11  1  0
  1 12  1  0
  4 13  1  0
  5 14  1  0
  5 15  1  0
  5 16  1  0
  8 17  1  0
  8 18  1  0
  9 19  1  0
M  END
