
     RDKit          3D

 16 17  0  0  0  0  0  0  0  0999 V2000
    3.2282    0.3701   -0.5647 C   0  0  0  0  0  0  0  0  0  0  0  0
    1.8689    0.0544   -0.0728 C   0  0  0  0  0  0  0  0  0  0  0  0
    0.7720   -0.1812    0.3323 C   0  0  0  0  0  0  0  0  0  0  0  0
   -0.5548   -0.4829    0.8035 C   0  0  0  0  0  0  0  0  0  0  0  0
   -1.5504   -0.9074   -0.2670 C   0  0  0  0  0  0  0  0  0  0  0  0
   -2.5709    0.0211    0.2612 C   0  0  0  0  0  0  0  0  0  0  0  0
   -2.6402    0.4664    1.5422 O   0  0  0  0  0  0  0  0  0  0  0  0
   -1.4196    0.7347    0.9726 C   0  0  0  0  0  0  0  0  0  0  0  0
    3.2075    1.3654   -1.0725 H   0  0  0  0  0  0  0  0  0  0  0  0
    3.9611    0.3515    0.2797 H   0  0  0  0  0  0  0  0  0  0  0  0
    3.5761   -0.3907   -1.3023 H   0  0  0  0  0  0  0  0  0  0  0  0
   -0.6093   -1.1375    1.7209 H   0  0  0  0  0  0  0  0  0  0  0  0
   -1.7565   -1.9764   -0.2879 H   0  0  0  0  0  0  0  0  0  0  0  0
   -1.1717   -0.5627   -1.2646 H   0  0  0  0  0  0  0  0  0  0  0  0
   -3.1693    0.5894   -0.4743 H   0  0  0  0  0  0  0  0  0  0  0  0
   -1.1713    1.6858    0.5204 H   0  0  0  0  0  0  0  0  0  0  0  0
  1  2  1  0
  2  3  3  0
  3  4  1  0
  4  5  1  0
  5  6  1  0
  6  7  1  0
  7  8  1  0
  8  4  1  0
  8  6  1  0
  1  9  1  0
  1 10  1  0
  1 11  1  0
  4 12  1  0
  5 13  1  0
  5 14  1  0
  6 15  1  0
  8 16  1  0
M  END
