
     RDKit          3D

 23 22  0  0  0  0  0  0  0  0999 V2000
    2.5814    0.4994   -2.4053 C   0  0  0  0  0  0  0  0  0  0  0  0
    1.9631    0.1284   -1.3371 C   0  0  0  0  0  0  0  0  0  0  0  0
    1.2488   -0.2746   -0.0978 C   0  0  0  0  0  0  0  0  0  0  0  0
    0.5774   -0.6280    1.0323 C   0  0  0  0  0  0  0  0  0  0  0  0
    1.0792   -1.9881    1.4947 C   0  0  0  0  0  0  0  0  0  0  0  0
   -0.8141   -0.7989    0.5394 O   0  0  0  0  0  0  0  0  0  0  0  0
   -1.3447    0.4788    0.4617 C   0  0  0  0  0  0  0  0  0  0  0  0
   -2.0025    0.6667   -0.8917 C   0  0  0  0  0  0  0  0  0  0  0  0
   -2.2137    0.9748    1.6142 C   0  0  0  0  0  0  0  0  0  0  0  0
    2.0021    0.0884   -3.3882 H   0  0  0  0  0  0  0  0  0  0  0  0
    3.0631    1.3644   -2.6477 H   0  0  0  0  0  0  0  0  0  0  0  0
    3.4944   -0.4291   -2.5444 H   0  0  0  0  0  0  0  0  0  0  0  0
    0.5733    0.1558    1.7433 H   0  0  0  0  0  0  0  0  0  0  0  0
    1.5916   -2.4382    0.5509 H   0  0  0  0  0  0  0  0  0  0  0  0
    1.8962   -1.8494    2.2336 H   0  0  0  0  0  0  0  0  0  0  0  0
    0.3380   -2.7026    1.9039 H   0  0  0  0  0  0  0  0  0  0  0  0
   -0.4028    1.1414    0.4526 H   0  0  0  0  0  0  0  0  0  0  0  0
   -2.0779   -0.2784   -1.4889 H   0  0  0  0  0  0  0  0  0  0  0  0
   -3.0486    0.9860   -0.7542 H   0  0  0  0  0  0  0  0  0  0  0  0
   -1.3826    1.3983   -1.4955 H   0  0  0  0  0  0  0  0  0  0  0  0
   -1.4774    1.5245    2.3146 H   0  0  0  0  0  0  0  0  0  0  0  0
   -2.7478    0.2114    2.1368 H   0  0  0  0  0  0  0  0  0  0  0  0
   -2.8966    1.7690    1.1987 H   0  0  0  0  0  0  0  0  0  0  0  0
  1  2  1  0
  2  3  3  0
  3  4  1  0
  4  5  1  0
  4  6  1  0
  6  7  1  0
  7  8  1  0
  7  9  1  0
  1 10  1  0
  1 11  1  0
  1 12  1  0
  4 13  1  0
  5 14  1  0
  5 15  1  0
  5 16  1  0
  7 17  1  0
  8 18  1  0
  8 19  1  0
  8 20  1  0
  9 21  1  0
  9 22  1  0
  9 23  1  0
M  END
