
     RDKit          3D

 25 24  0  0  0  0  0  0  0  0999 V2000
    2.6654   -2.4958    1.0957 C   0  0  0  0  0  0  0  0  0  0  0  0
    1.8642   -1.1957    0.7224 C   0  0  0  0  0  0  0  0  0  0  0  0
    1.2322   -0.1473    0.4038 C   0  0  0  0  0  0  0  0  0  0  0  0
    0.4811    1.1232    0.0354 C   0  0  0  0  0  0  0  0  0  0  0  0
    1.0184    1.4355   -1.3847 C   0  0  0  0  0  0  0  0  0  0  0  0
   -0.9446    0.8965   -0.0067 C   0  0  0  0  0  0  0  0  0  0  0  0
   -1.7975    2.1203   -0.1924 C   0  0  0  0  0  0  0  0  0  0  0  0
   -1.6387   -0.2534    0.5992 C   0  0  0  0  0  0  0  0  0  0  0  0
   -1.1699   -1.5610   -0.0886 C   0  0  0  0  0  0  0  0  0  0  0  0
    2.0458   -3.0523    1.8075 H   0  0  0  0  0  0  0  0  0  0  0  0
    3.0906   -2.8624    0.2372 H   0  0  0  0  0  0  0  0  0  0  0  0
    3.5182   -2.0750    1.7793 H   0  0  0  0  0  0  0  0  0  0  0  0
    0.8589    1.9126    0.6932 H   0  0  0  0  0  0  0  0  0  0  0  0
    0.6948    2.4587   -1.6227 H   0  0  0  0  0  0  0  0  0  0  0  0
    2.0982    1.3010   -1.3724 H   0  0  0  0  0  0  0  0  0  0  0  0
    0.5587    0.7083   -2.1019 H   0  0  0  0  0  0  0  0  0  0  0  0
   -1.0704    0.4990   -1.2359 H   0  0  0  0  0  0  0  0  0  0  0  0
   -2.8977    1.7443   -0.1810 H   0  0  0  0  0  0  0  0  0  0  0  0
   -1.6850    2.8784    0.6073 H   0  0  0  0  0  0  0  0  0  0  0  0
   -1.6324    2.6123   -1.1902 H   0  0  0  0  0  0  0  0  0  0  0  0
   -1.4438   -0.4005    1.6862 H   0  0  0  0  0  0  0  0  0  0  0  0
   -2.7461   -0.1179    0.5244 H   0  0  0  0  0  0  0  0  0  0  0  0
   -0.4204   -1.2819   -0.8864 H   0  0  0  0  0  0  0  0  0  0  0  0
   -2.0232   -2.0834   -0.5847 H   0  0  0  0  0  0  0  0  0  0  0  0
   -0.6566   -2.1635    0.6559 H   0  0  0  0  0  0  0  0  0  0  0  0
  1  2  1  0
  2  3  3  0
  3  4  1  0
  4  5  1  0
  4  6  1  0
  6  7  1  0
  6  8  1  0
  8  9  1  0
  1 10  1  0
  1 11  1  0
  1 12  1  0
  4 13  1  0
  5 14  1  0
  5 15  1  0
  5 16  1  0
  6 17  1  0
  7 18  1  0
  7 19  1  0
  7 20  1  0
  8 21  1  0
  8 22  1  0
  9 23  1  0
  9 24  1  0
  9 25  1  0
M  END
