
     RDKit          3D

 21 20  0  0  0  0  0  0  0  0999 V2000
    2.3493   -2.2338    0.2637 C   0  0  0  0  0  0  0  0  0  0  0  0
    1.6392   -1.0253   -0.1555 C   0  0  0  0  0  0  0  0  0  0  0  0
    1.0459   -0.0044   -0.4872 C   0  0  0  0  0  0  0  0  0  0  0  0
    0.3380    1.2140   -0.8794 C   0  0  0  0  0  0  0  0  0  0  0  0
    1.2459    2.2738   -0.6603 O   0  0  0  0  0  0  0  0  0  0  0  0
   -0.8211    1.4921    0.0887 C   0  0  0  0  0  0  0  0  0  0  0  0
   -0.3391    1.4976    1.3802 O   0  0  0  0  0  0  0  0  0  0  0  0
   -1.9762    0.5735   -0.1390 C   0  0  0  0  0  0  0  0  0  0  0  0
   -1.6469   -0.8732    0.0330 C   0  0  0  0  0  0  0  0  0  0  0  0
    1.5913   -3.0568    0.3763 H   0  0  0  0  0  0  0  0  0  0  0  0
    2.7948   -2.0850    1.2887 H   0  0  0  0  0  0  0  0  0  0  0  0
    3.1204   -2.4641   -0.4836 H   0  0  0  0  0  0  0  0  0  0  0  0
    0.0113    1.1401   -1.9128 H   0  0  0  0  0  0  0  0  0  0  0  0
    1.2590    2.4054    0.3222 H   0  0  0  0  0  0  0  0  0  0  0  0
   -1.1971    2.5349   -0.1063 H   0  0  0  0  0  0  0  0  0  0  0  0
    0.4721    0.9220    1.4807 H   0  0  0  0  0  0  0  0  0  0  0  0
   -2.7784    0.8614    0.5527 H   0  0  0  0  0  0  0  0  0  0  0  0
   -2.2966    0.7167   -1.2050 H   0  0  0  0  0  0  0  0  0  0  0  0
   -1.1581   -1.3367   -0.8486 H   0  0  0  0  0  0  0  0  0  0  0  0
   -2.6053   -1.4557    0.1657 H   0  0  0  0  0  0  0  0  0  0  0  0
   -1.0483   -1.0965    0.9259 H   0  0  0  0  0  0  0  0  0  0  0  0
  1  2  1  0
  2  3  3  0
  3  4  1  0
  4  5  1  0
  4  6  1  0
  6  7  1  0
  6  8  1  0
  8  9  1  0
  1 10  1  0
  1 11  1  0
  1 12  1  0
  4 13  1  0
  5 14  1  0
  6 15  1  0
  7 16  1  0
  8 17  1  0
  8 18  1  0
  9 19  1  0
  9 20  1  0
  9 21  1  0
M  END
