
     RDKit          3D

 21 21  0  0  0  0  0  0  0  0999 V2000
    3.3392   -1.0538    0.0368 C   0  0  0  0  0  0  0  0  0  0  0  0
    1.9714   -0.5305    0.0021 C   0  0  0  0  0  0  0  0  0  0  0  0
    0.8235   -0.1137   -0.0307 C   0  0  0  0  0  0  0  0  0  0  0  0
   -0.5581    0.3633   -0.0793 C   0  0  0  0  0  0  0  0  0  0  0  0
   -0.7310    1.7050   -0.7003 C   0  0  0  0  0  0  0  0  0  0  0  0
   -0.0259    2.6847   -0.0171 O   0  0  0  0  0  0  0  0  0  0  0  0
   -1.4258   -0.6799   -0.7480 C   0  0  0  0  0  0  0  0  0  0  0  0
   -1.7465   -1.2097    0.6466 C   0  0  0  0  0  0  0  0  0  0  0  0
   -1.3297    0.1276    1.2126 C   0  0  0  0  0  0  0  0  0  0  0  0
    3.8910   -0.5337   -0.7844 H   0  0  0  0  0  0  0  0  0  0  0  0
    3.3458   -2.1584   -0.1222 H   0  0  0  0  0  0  0  0  0  0  0  0
    3.8186   -0.8601    1.0351 H   0  0  0  0  0  0  0  0  0  0  0  0
   -0.4344    1.6315   -1.7669 H   0  0  0  0  0  0  0  0  0  0  0  0
   -1.8244    1.9641   -0.6325 H   0  0  0  0  0  0  0  0  0  0  0  0
    0.7403    2.9900   -0.5823 H   0  0  0  0  0  0  0  0  0  0  0  0
   -2.3525   -0.2830   -1.2030 H   0  0  0  0  0  0  0  0  0  0  0  0
   -0.8909   -1.3950   -1.3982 H   0  0  0  0  0  0  0  0  0  0  0  0
   -2.8039   -1.4608    0.8160 H   0  0  0  0  0  0  0  0  0  0  0  0
   -1.0327   -2.0254    0.8992 H   0  0  0  0  0  0  0  0  0  0  0  0
   -0.6408   -0.0169    2.0506 H   0  0  0  0  0  0  0  0  0  0  0  0
   -2.1332    0.8546    1.3660 H   0  0  0  0  0  0  0  0  0  0  0  0
  1  2  1  0
  2  3  3  0
  3  4  1  0
  4  5  1  0
  5  6  1  0
  4  7  1  0
  7  8  1  0
  8  9  1  0
  9  4  1  0
  1 10  1  0
  1 11  1  0
  1 12  1  0
  5 13  1  0
  5 14  1  0
  6 15  1  0
  7 16  1  0
  7 17  1  0
  8 18  1  0
  8 19  1  0
  9 20  1  0
  9 21  1  0
M  END
