
     RDKit          3D

 19 19  0  0  0  0  0  0  0  0999 V2000
    3.7967    0.5373    0.3068 C   0  0  0  0  0  0  0  0  0  0  0  0
    2.4034    0.0864    0.1868 C   0  0  0  0  0  0  0  0  0  0  0  0
    1.2508   -0.2652    0.0858 C   0  0  0  0  0  0  0  0  0  0  0  0
   -0.1189   -0.7069   -0.0389 C   0  0  0  0  0  0  0  0  0  0  0  0
   -0.9588    0.3086   -0.7765 C   0  0  0  0  0  0  0  0  0  0  0  0
   -2.2671    0.2446   -0.0149 C   0  0  0  0  0  0  0  0  0  0  0  0
   -2.3638    1.3935    0.7846 O   0  0  0  0  0  0  0  0  0  0  0  0
   -2.0662   -0.9852    0.8450 C   0  0  0  0  0  0  0  0  0  0  0  0
   -0.7298   -0.8328    1.2295 O   0  0  0  0  0  0  0  0  0  0  0  0
    4.1116    0.6916    1.3410 H   0  0  0  0  0  0  0  0  0  0  0  0
    3.9058    1.4566   -0.3056 H   0  0  0  0  0  0  0  0  0  0  0  0
    4.4993   -0.2154   -0.1340 H   0  0  0  0  0  0  0  0  0  0  0  0
   -0.2293   -1.6859   -0.5360 H   0  0  0  0  0  0  0  0  0  0  0  0
   -0.5181    1.3192   -0.7634 H   0  0  0  0  0  0  0  0  0  0  0  0
   -1.1771   -0.0405   -1.8086 H   0  0  0  0  0  0  0  0  0  0  0  0
   -3.1367    0.1433   -0.6953 H   0  0  0  0  0  0  0  0  0  0  0  0
   -1.5055    1.4409    1.2904 H   0  0  0  0  0  0  0  0  0  0  0  0
   -2.7583   -1.0162    1.7000 H   0  0  0  0  0  0  0  0  0  0  0  0
   -2.1381   -1.8739    0.1833 H   0  0  0  0  0  0  0  0  0  0  0  0
  1  2  1  0
  2  3  3  0
  3  4  1  0
  4  5  1  0
  5  6  1  0
  6  7  1  0
  6  8  1  0
  8  9  1  0
  9  4  1  0
  1 10  1  0
  1 11  1  0
  1 12  1  0
  4 13  1  0
  5 14  1  0
  5 15  1  0
  6 16  1  0
  7 17  1  0
  8 18  1  0
  8 19  1  0
M  END
