
     RDKit          3D

 21 21  0  0  0  0  0  0  0  0999 V2000
    3.2543    1.7034    0.3203 C   0  0  0  0  0  0  0  0  0  0  0  0
    1.9565    1.6471   -0.0451 C   0  0  0  0  0  0  0  0  0  0  0  0
    0.6923    1.5698   -0.3952 C   0  0  0  0  0  0  0  0  0  0  0  0
   -0.7123    1.4950   -0.7845 C   0  0  0  0  0  0  0  0  0  0  0  0
   -1.7500    1.3384    0.3000 C   0  0  0  0  0  0  0  0  0  0  0  0
   -1.2992    0.1240   -0.4798 C   0  0  0  0  0  0  0  0  0  0  0  0
   -0.3747   -0.8167    0.2786 C   0  0  0  0  0  0  0  0  0  0  0  0
   -0.8084   -1.9636    0.5924 O   0  0  0  0  0  0  0  0  0  0  0  0
   -1.2714   -3.0383   -0.0275 C   0  0  0  0  0  0  0  0  0  0  0  0
    3.9955    1.8624   -0.5392 H   0  0  0  0  0  0  0  0  0  0  0  0
    3.5731    0.8196    0.9287 H   0  0  0  0  0  0  0  0  0  0  0  0
    3.5188    2.6276    0.9686 H   0  0  0  0  0  0  0  0  0  0  0  0
   -1.0082    1.9489   -1.7162 H   0  0  0  0  0  0  0  0  0  0  0  0
   -2.7973    1.6134    0.1454 H   0  0  0  0  0  0  0  0  0  0  0  0
   -1.3154    1.5052    1.3175 H   0  0  0  0  0  0  0  0  0  0  0  0
   -1.8660   -0.3176   -1.2773 H   0  0  0  0  0  0  0  0  0  0  0  0
    0.6384   -0.7877   -0.2804 H   0  0  0  0  0  0  0  0  0  0  0  0
   -0.0644   -0.1737    1.2061 H   0  0  0  0  0  0  0  0  0  0  0  0
   -1.4431   -3.8536    0.7552 H   0  0  0  0  0  0  0  0  0  0  0  0
   -0.5898   -3.3875   -0.8323 H   0  0  0  0  0  0  0  0  0  0  0  0
   -2.3285   -2.9215   -0.4351 H   0  0  0  0  0  0  0  0  0  0  0  0
  1  2  1  0
  2  3  3  0
  3  4  1  0
  4  5  1  0
  5  6  1  0
  6  7  1  0
  7  8  1  0
  8  9  1  0
  6  4  1  0
  1 10  1  0
  1 11  1  0
  1 12  1  0
  4 13  1  0
  5 14  1  0
  5 15  1  0
  6 16  1  0
  7 17  1  0
  7 18  1  0
  9 19  1  0
  9 20  1  0
  9 21  1  0
M  END
