
     RDKit          3D

 18 18  0  0  0  0  0  0  0  0999 V2000
    3.3056   -0.0611   -0.6014 C   0  0  0  0  0  0  0  0  0  0  0  0
    1.8877   -0.1292   -0.2297 C   0  0  0  0  0  0  0  0  0  0  0  0
    0.7108   -0.1726    0.0925 C   0  0  0  0  0  0  0  0  0  0  0  0
   -0.6982   -0.2026    0.4917 C   0  0  0  0  0  0  0  0  0  0  0  0
   -0.9754   -0.8483    1.8512 C   0  0  0  0  0  0  0  0  0  0  0  0
   -1.7329   -0.5001   -0.6093 C   0  0  0  0  0  0  0  0  0  0  0  0
   -1.6212    0.8471    0.0079 C   0  0  0  0  0  0  0  0  0  0  0  0
   -1.1528    1.9162   -0.7346 O   0  0  0  0  0  0  0  0  0  0  0  0
    3.5649    0.9538   -1.0053 H   0  0  0  0  0  0  0  0  0  0  0  0
    3.5567   -0.7880   -1.3999 H   0  0  0  0  0  0  0  0  0  0  0  0
    3.9033   -0.1965    0.3075 H   0  0  0  0  0  0  0  0  0  0  0  0
   -0.4798   -1.8225    1.8421 H   0  0  0  0  0  0  0  0  0  0  0  0
   -2.0800   -0.9126    1.9320 H   0  0  0  0  0  0  0  0  0  0  0  0
   -0.5334   -0.1661    2.6003 H   0  0  0  0  0  0  0  0  0  0  0  0
   -2.5510   -1.1760   -0.3196 H   0  0  0  0  0  0  0  0  0  0  0  0
   -1.3123   -0.5938   -1.6316 H   0  0  0  0  0  0  0  0  0  0  0  0
   -2.4594    1.1002    0.7067 H   0  0  0  0  0  0  0  0  0  0  0  0
   -1.3327    2.7521   -0.2383 H   0  0  0  0  0  0  0  0  0  0  0  0
  1  2  1  0
  2  3  3  0
  3  4  1  0
  4  5  1  0
  4  6  1  0
  6  7  1  0
  7  8  1  0
  7  4  1  0
  1  9  1  0
  1 10  1  0
  1 11  1  0
  5 12  1  0
  5 13  1  0
  5 14  1  0
  6 15  1  0
  6 16  1  0
  7 17  1  0
  8 18  1  0
M  END
