
     RDKit          3D

 23 22  0  0  0  0  0  0  0  0999 V2000
    4.0297   -0.7530    0.1912 C   0  0  0  0  0  0  0  0  0  0  0  0
    2.5795   -0.8977    0.0522 C   0  0  0  0  0  0  0  0  0  0  0  0
    1.3651   -1.0151   -0.0439 C   0  0  0  0  0  0  0  0  0  0  0  0
   -0.0994   -1.1509   -0.1851 C   0  0  0  0  0  0  0  0  0  0  0  0
   -0.6891   -0.0011    0.5923 C   0  0  0  0  0  0  0  0  0  0  0  0
   -2.1897   -0.0434    0.5140 C   0  0  0  0  0  0  0  0  0  0  0  0
   -2.7391    0.0541   -0.8837 C   0  0  0  0  0  0  0  0  0  0  0  0
   -0.1608    1.2749   -0.0191 C   0  0  0  0  0  0  0  0  0  0  0  0
   -0.6648    2.3842    0.6502 O   0  0  0  0  0  0  0  0  0  0  0  0
    4.3686    0.2683   -0.0850 H   0  0  0  0  0  0  0  0  0  0  0  0
    4.3209   -1.0615    1.1941 H   0  0  0  0  0  0  0  0  0  0  0  0
    4.5745   -1.4327   -0.5281 H   0  0  0  0  0  0  0  0  0  0  0  0
   -0.3950   -1.1600   -1.2347 H   0  0  0  0  0  0  0  0  0  0  0  0
   -0.4041   -2.1251    0.2553 H   0  0  0  0  0  0  0  0  0  0  0  0
   -0.4203   -0.0173    1.6572 H   0  0  0  0  0  0  0  0  0  0  0  0
   -2.6294    0.7777    1.1179 H   0  0  0  0  0  0  0  0  0  0  0  0
   -2.5645   -0.9880    0.9748 H   0  0  0  0  0  0  0  0  0  0  0  0
   -3.8332   -0.1543   -0.7991 H   0  0  0  0  0  0  0  0  0  0  0  0
   -2.6758    1.1020   -1.2665 H   0  0  0  0  0  0  0  0  0  0  0  0
   -2.3378   -0.6920   -1.5792 H   0  0  0  0  0  0  0  0  0  0  0  0
    0.9283    1.2907    0.0563 H   0  0  0  0  0  0  0  0  0  0  0  0
   -0.4117    1.2897   -1.1006 H   0  0  0  0  0  0  0  0  0  0  0  0
    0.0480    3.0503    0.7526 H   0  0  0  0  0  0  0  0  0  0  0  0
  1  2  1  0
  2  3  3  0
  3  4  1  0
  4  5  1  0
  5  6  1  0
  6  7  1  0
  5  8  1  0
  8  9  1  0
  1 10  1  0
  1 11  1  0
  1 12  1  0
  4 13  1  0
  4 14  1  0
  5 15  1  0
  6 16  1  0
  6 17  1  0
  7 18  1  0
  7 19  1  0
  7 20  1  0
  8 21  1  0
  8 22  1  0
  9 23  1  0
M  END
