
     RDKit          3D

 19 18  0  0  0  0  0  0  0  0999 V2000
    3.9027   -0.4544    1.1785 C   0  0  0  0  0  0  0  0  0  0  0  0
    2.4547   -0.3496    0.9858 C   0  0  0  0  0  0  0  0  0  0  0  0
    1.2633   -0.2658    0.8070 C   0  0  0  0  0  0  0  0  0  0  0  0
   -0.1770   -0.1522    0.5695 C   0  0  0  0  0  0  0  0  0  0  0  0
   -0.4582    0.5736   -0.7390 C   0  0  0  0  0  0  0  0  0  0  0  0
   -1.9687    0.6316   -0.8792 C   0  0  0  0  0  0  0  0  0  0  0  0
   -2.4941    1.3278    0.2111 O   0  0  0  0  0  0  0  0  0  0  0  0
   -2.5679   -0.7242   -0.9128 C   0  0  0  0  0  0  0  0  0  0  0  0
   -3.3806   -1.1097   -0.0948 O   0  0  0  0  0  0  0  0  0  0  0  0
    4.4193   -0.8080    0.2500 H   0  0  0  0  0  0  0  0  0  0  0  0
    4.1482   -1.2076    1.9704 H   0  0  0  0  0  0  0  0  0  0  0  0
    4.2671    0.5200    1.5266 H   0  0  0  0  0  0  0  0  0  0  0  0
   -0.6748    0.4593    1.3683 H   0  0  0  0  0  0  0  0  0  0  0  0
   -0.6395   -1.1481    0.5906 H   0  0  0  0  0  0  0  0  0  0  0  0
   -0.1068    1.6162   -0.7035 H   0  0  0  0  0  0  0  0  0  0  0  0
    0.0013    0.0775   -1.5931 H   0  0  0  0  0  0  0  0  0  0  0  0
   -2.2332    1.1884   -1.7852 H   0  0  0  0  0  0  0  0  0  0  0  0
   -3.4886    1.2331    0.1479 H   0  0  0  0  0  0  0  0  0  0  0  0
   -2.2671   -1.4080   -1.7063 H   0  0  0  0  0  0  0  0  0  0  0  0
  1  2  1  0
  2  3  3  0
  3  4  1  0
  4  5  1  0
  5  6  1  0
  6  7  1  0
  6  8  1  0
  8  9  2  0
  1 10  1  0
  1 11  1  0
  1 12  1  0
  4 13  1  0
  4 14  1  0
  5 15  1  0
  5 16  1  0
  6 17  1  0
  7 18  1  0
  8 19  1  0
M  END
