
     RDKit          3D

 18 17  0  0  0  0  0  0  0  0999 V2000
    4.8055   -2.4218    0.2884 C   0  0  0  0  0  0  0  0  0  0  0  0
    3.3667   -1.6975   -0.0096 C   0  0  0  0  0  0  0  0  0  0  0  0
    2.2095   -1.1017   -0.2308 C   0  0  0  0  0  0  0  0  0  0  0  0
    0.7493   -0.3584   -0.4959 C   0  0  0  0  0  0  0  0  0  0  0  0
   -0.3491    0.2177   -0.6929 C   0  0  0  0  0  0  0  0  0  0  0  0
   -1.2584    0.7134   -0.8498 C   0  0  0  0  0  0  0  0  0  0  0  0
   -2.0718    1.0744    0.4521 C   0  0  0  0  0  0  0  0  0  0  0  0
   -3.1805    1.9935    0.0690 C   0  0  0  0  0  0  0  0  0  0  0  0
    4.8061   -2.9986   -0.5558 H   0  0  0  0  0  0  0  0  0  0  0  0
    5.2421   -1.3652    0.4086 H   0  0  0  0  0  0  0  0  0  0  0  0
    4.3116   -2.7660    1.2365 H   0  0  0  0  0  0  0  0  0  0  0  0
   -1.5927    1.3006   -1.7882 H   0  0  0  0  0  0  0  0  0  0  0  0
   -2.1848   -0.2568   -1.1261 H   0  0  0  0  0  0  0  0  0  0  0  0
   -2.6727    0.0799    0.8378 H   0  0  0  0  0  0  0  0  0  0  0  0
   -1.3995    1.1953    1.2384 H   0  0  0  0  0  0  0  0  0  0  0  0
   -3.1636    2.6757   -0.6693 H   0  0  0  0  0  0  0  0  0  0  0  0
   -4.1117    1.2460    0.0134 H   0  0  0  0  0  0  0  0  0  0  0  0
   -3.5059    2.4694    1.0972 H   0  0  0  0  0  0  0  0  0  0  0  0
  1  2  1  0
  2  3  3  0
  3  4  1  0
  4  5  3  0
  5  6  1  0
  6  7  1  0
  7  8  1  0
  1  9  1  0
  1 10  1  0
  1 11  1  0
  6 12  1  0
  6 13  1  0
  7 14  1  0
  7 15  1  0
  8 16  1  0
  8 17  1  0
  8 18  1  0
M  END
