
     RDKit          3D

 21 21  0  0  0  0  0  0  0  0999 V2000
    3.4602   -0.4412   -1.3020 C   0  0  0  0  0  0  0  0  0  0  0  0
    2.2612    0.0333   -0.5716 C   0  0  0  0  0  0  0  0  0  0  0  0
    1.2926    0.4165   -0.0054 C   0  0  0  0  0  0  0  0  0  0  0  0
    0.1239    0.8747    0.7053 C   0  0  0  0  0  0  0  0  0  0  0  0
   -0.6298    1.8676    0.0362 O   0  0  0  0  0  0  0  0  0  0  0  0
   -1.7334    1.3660    0.7674 C   0  0  0  0  0  0  0  0  0  0  0  0
   -1.0912   -0.0124    0.5705 C   0  0  0  0  0  0  0  0  0  0  0  0
   -1.3732   -0.5120   -0.8055 C   0  0  0  0  0  0  0  0  0  0  0  0
   -1.2703   -0.9621    1.6997 C   0  0  0  0  0  0  0  0  0  0  0  0
    4.0804    0.3829   -1.6643 H   0  0  0  0  0  0  0  0  0  0  0  0
    3.1035   -1.1185   -2.1061 H   0  0  0  0  0  0  0  0  0  0  0  0
    4.0657   -1.0605   -0.6157 H   0  0  0  0  0  0  0  0  0  0  0  0
    0.2720    1.2012    1.7435 H   0  0  0  0  0  0  0  0  0  0  0  0
   -2.7014    1.4933    0.2861 H   0  0  0  0  0  0  0  0  0  0  0  0
   -1.6431    1.7259    1.8190 H   0  0  0  0  0  0  0  0  0  0  0  0
   -0.8608    0.1951   -1.5230 H   0  0  0  0  0  0  0  0  0  0  0  0
   -1.0839   -1.5438   -0.9979 H   0  0  0  0  0  0  0  0  0  0  0  0
   -2.4717   -0.3342   -1.0015 H   0  0  0  0  0  0  0  0  0  0  0  0
   -1.0476   -0.4268    2.6441 H   0  0  0  0  0  0  0  0  0  0  0  0
   -0.4814   -1.7542    1.6055 H   0  0  0  0  0  0  0  0  0  0  0  0
   -2.2718   -1.3910    1.7587 H   0  0  0  0  0  0  0  0  0  0  0  0
  1  2  1  0
  2  3  3  0
  3  4  1  0
  4  5  1  0
  5  6  1  0
  6  7  1  0
  7  8  1  0
  7  9  1  0
  7  4  1  0
  1 10  1  0
  1 11  1  0
  1 12  1  0
  4 13  1  0
  6 14  1  0
  6 15  1  0
  8 16  1  0
  8 17  1  0
  8 18  1  0
  9 19  1  0
  9 20  1  0
  9 21  1  0
M  END
