
     RDKit          3D

 16 16  0  0  0  0  0  0  0  0999 V2000
    3.1473    0.7393    0.5621 C   0  0  0  0  0  0  0  0  0  0  0  0
    1.7346    0.3022    0.5243 C   0  0  0  0  0  0  0  0  0  0  0  0
    0.5819   -0.0632    0.5127 C   0  0  0  0  0  0  0  0  0  0  0  0
   -0.8164   -0.4830    0.5111 C   0  0  0  0  0  0  0  0  0  0  0  0
   -1.3129   -0.9720   -0.8305 C   0  0  0  0  0  0  0  0  0  0  0  0
   -2.0020   -2.1755   -0.7614 O   0  0  0  0  0  0  0  0  0  0  0  0
   -1.8377    0.2633   -0.2353 C   0  0  0  0  0  0  0  0  0  0  0  0
   -1.4356    1.4897   -0.7602 O   0  0  0  0  0  0  0  0  0  0  0  0
    3.5384    0.7614   -0.4864 H   0  0  0  0  0  0  0  0  0  0  0  0
    3.1424    1.7771    0.9939 H   0  0  0  0  0  0  0  0  0  0  0  0
    3.7656    0.0435    1.1562 H   0  0  0  0  0  0  0  0  0  0  0  0
   -1.0914   -1.0501    1.4307 H   0  0  0  0  0  0  0  0  0  0  0  0
   -0.6389   -0.8530   -1.7182 H   0  0  0  0  0  0  0  0  0  0  0  0
   -2.9382   -2.1090   -1.0203 H   0  0  0  0  0  0  0  0  0  0  0  0
   -2.8640    0.2841    0.1928 H   0  0  0  0  0  0  0  0  0  0  0  0
   -0.9732    2.0451   -0.0717 H   0  0  0  0  0  0  0  0  0  0  0  0
  1  2  1  0
  2  3  3  0
  3  4  1  0
  4  5  1  0
  5  6  1  0
  5  7  1  0
  7  8  1  0
  7  4  1  0
  1  9  1  0
  1 10  1  0
  1 11  1  0
  4 12  1  0
  5 13  1  0
  6 14  1  0
  7 15  1  0
  8 16  1  0
M  END
