
     RDKit          3D

 19 20  0  0  0  0  0  0  0  0999 V2000
    3.7718    0.4667    0.8110 C   0  0  0  0  0  0  0  0  0  0  0  0
    2.4561    0.2666    0.4482 C   0  0  0  0  0  0  0  0  0  0  0  0
    1.3231    0.0791    0.1355 C   0  0  0  0  0  0  0  0  0  0  0  0
   -0.1032   -0.1650   -0.2455 C   0  0  0  0  0  0  0  0  0  0  0  0
   -0.9441    0.7765    0.5982 C   0  0  0  0  0  0  0  0  0  0  0  0
   -1.0018    0.7986   -0.8301 C   0  0  0  0  0  0  0  0  0  0  0  0
   -1.7412   -0.4050   -1.4508 C   0  0  0  0  0  0  0  0  0  0  0  0
   -2.7106   -1.1186   -0.5959 C   0  0  0  0  0  0  0  0  0  0  0  0
   -0.4498   -1.0550   -1.1631 O   0  0  0  0  0  0  0  0  0  0  0  0
    4.1549   -0.4054    1.4892 H   0  0  0  0  0  0  0  0  0  0  0  0
    4.0755    1.3455    1.3957 H   0  0  0  0  0  0  0  0  0  0  0  0
    4.4883    0.4606   -0.0862 H   0  0  0  0  0  0  0  0  0  0  0  0
   -0.3034    1.6230    1.0990 H   0  0  0  0  0  0  0  0  0  0  0  0
   -1.6726    0.4181    1.3039 H   0  0  0  0  0  0  0  0  0  0  0  0
   -0.5682    1.5196   -1.5516 H   0  0  0  0  0  0  0  0  0  0  0  0
   -1.8699   -0.3257   -2.5272 H   0  0  0  0  0  0  0  0  0  0  0  0
   -2.6544   -0.8880    0.4778 H   0  0  0  0  0  0  0  0  0  0  0  0
   -2.4794   -2.2670   -0.6135 H   0  0  0  0  0  0  0  0  0  0  0  0
   -3.7710   -1.1248   -0.9259 H   0  0  0  0  0  0  0  0  0  0  0  0
  1  2  1  0
  2  3  3  0
  3  4  1  0
  4  5  1  0
  5  6  1  0
  6  7  1  0
  7  8  1  0
  7  9  1  0
  6  4  1  0
  9  4  1  0
  1 10  1  0
  1 11  1  0
  1 12  1  0
  5 13  1  0
  5 14  1  0
  6 15  1  0
  7 16  1  0
  8 17  1  0
  8 18  1  0
  8 19  1  0
M  END
