
     RDKit          3D

 20 19  0  0  0  0  0  0  0  0999 V2000
    3.4021    1.6115   -0.1884 C   0  0  0  0  0  0  0  0  0  0  0  0
    2.5495    0.4298   -0.0458 C   0  0  0  0  0  0  0  0  0  0  0  0
    1.8446   -0.5593    0.0730 C   0  0  0  0  0  0  0  0  0  0  0  0
    0.9977   -1.7465    0.2302 C   0  0  0  0  0  0  0  0  0  0  0  0
   -0.3678   -1.2570    0.6504 C   0  0  0  0  0  0  0  0  0  0  0  0
   -0.9374   -0.4003   -0.2963 O   0  0  0  0  0  0  0  0  0  0  0  0
   -2.1850   -0.0252    0.2115 C   0  0  0  0  0  0  0  0  0  0  0  0
   -2.9278    0.9000   -0.6932 C   0  0  0  0  0  0  0  0  0  0  0  0
    3.0116    2.3118   -0.9757 H   0  0  0  0  0  0  0  0  0  0  0  0
    4.4149    1.3014   -0.5647 H   0  0  0  0  0  0  0  0  0  0  0  0
    3.4683    2.0984    0.8028 H   0  0  0  0  0  0  0  0  0  0  0  0
    0.8953   -2.3158   -0.7106 H   0  0  0  0  0  0  0  0  0  0  0  0
    1.3867   -2.3851    1.0244 H   0  0  0  0  0  0  0  0  0  0  0  0
   -1.0363   -2.1384    0.7134 H   0  0  0  0  0  0  0  0  0  0  0  0
   -0.3401   -0.7048    1.5996 H   0  0  0  0  0  0  0  0  0  0  0  0
   -1.9759    0.4551    1.2009 H   0  0  0  0  0  0  0  0  0  0  0  0
   -2.7286   -0.9637    0.4493 H   0  0  0  0  0  0  0  0  0  0  0  0
   -2.2916    1.3716   -1.4777 H   0  0  0  0  0  0  0  0  0  0  0  0
   -3.4056    1.7025   -0.0842 H   0  0  0  0  0  0  0  0  0  0  0  0
   -3.7745    0.3140   -1.1417 H   0  0  0  0  0  0  0  0  0  0  0  0
  1  2  1  0
  2  3  3  0
  3  4  1  0
  4  5  1  0
  5  6  1  0
  6  7  1  0
  7  8  1  0
  1  9  1  0
  1 10  1  0
  1 11  1  0
  4 12  1  0
  4 13  1  0
  5 14  1  0
  5 15  1  0
  7 16  1  0
  7 17  1  0
  8 18  1  0
  8 19  1  0
  8 20  1  0
M  END
