
     RDKit          3D

 17 19  0  0  0  0  0  0  0  0999 V2000
    3.3894    0.5023   -0.0680 C   0  0  0  0  0  0  0  0  0  0  0  0
    1.9634    0.1892   -0.2012 C   0  0  0  0  0  0  0  0  0  0  0  0
    0.7720   -0.0529   -0.3217 C   0  0  0  0  0  0  0  0  0  0  0  0
   -0.6627   -0.3298   -0.4450 C   0  0  0  0  0  0  0  0  0  0  0  0
   -1.1932   -1.6492   -0.0326 C   0  0  0  0  0  0  0  0  0  0  0  0
   -1.3852   -0.4870    0.8388 C   0  0  0  0  0  0  0  0  0  0  0  0
   -2.3396    0.6000    0.3255 C   0  0  0  0  0  0  0  0  0  0  0  0
   -1.7500    1.8293    0.2004 O   0  0  0  0  0  0  0  0  0  0  0  0
   -1.5472    0.8265   -0.7648 C   0  0  0  0  0  0  0  0  0  0  0  0
    3.6728    1.4178   -0.6405 H   0  0  0  0  0  0  0  0  0  0  0  0
    3.9386   -0.3812   -0.4741 H   0  0  0  0  0  0  0  0  0  0  0  0
    3.6671    0.7076    0.9896 H   0  0  0  0  0  0  0  0  0  0  0  0
   -2.0767   -2.0782   -0.5804 H   0  0  0  0  0  0  0  0  0  0  0  0
   -0.4265   -2.3831    0.2876 H   0  0  0  0  0  0  0  0  0  0  0  0
   -0.9017   -0.3508    1.8100 H   0  0  0  0  0  0  0  0  0  0  0  0
   -3.4134    0.4610    0.4357 H   0  0  0  0  0  0  0  0  0  0  0  0
   -1.7073    1.1786   -1.7816 H   0  0  0  0  0  0  0  0  0  0  0  0
  1  2  1  0
  2  3  3  0
  3  4  1  0
  4  5  1  0
  5  6  1  0
  6  7  1  0
  7  8  1  0
  8  9  1  0
  6  4  1  0
  9  7  1  0
  9  4  1  0
  1 10  1  0
  1 11  1  0
  1 12  1  0
  5 13  1  0
  5 14  1  0
  6 15  1  0
  7 16  1  0
  9 17  1  0
M  END
