
     RDKit          3D

 19 18  0  0  0  0  0  0  0  0999 V2000
    3.9936    0.4332   -0.0100 C   0  0  0  0  0  0  0  0  0  0  0  0
    2.6400   -0.0432   -0.4244 C   0  0  0  0  0  0  0  0  0  0  0  0
    1.5498   -0.4079   -0.7454 C   0  0  0  0  0  0  0  0  0  0  0  0
    0.2083   -0.8305   -1.1319 C   0  0  0  0  0  0  0  0  0  0  0  0
   -0.6980   -0.6638   -0.0953 O   0  0  0  0  0  0  0  0  0  0  0  0
   -1.0164    0.5043    0.5518 C   0  0  0  0  0  0  0  0  0  0  0  0
   -0.4447    1.5637    0.2044 O   0  0  0  0  0  0  0  0  0  0  0  0
   -2.0093    0.5937    1.6541 C   0  0  0  0  0  0  0  0  0  0  0  0
   -3.1203   -0.3930    1.2802 C   0  0  0  0  0  0  0  0  0  0  0  0
    4.0241    0.3619    1.0757 H   0  0  0  0  0  0  0  0  0  0  0  0
    4.7865   -0.2156   -0.4187 H   0  0  0  0  0  0  0  0  0  0  0  0
    4.1315    1.4930   -0.3294 H   0  0  0  0  0  0  0  0  0  0  0  0
   -0.1110   -0.3999   -2.0965 H   0  0  0  0  0  0  0  0  0  0  0  0
    0.2851   -1.9439   -1.3205 H   0  0  0  0  0  0  0  0  0  0  0  0
   -1.6184    0.2570    2.6341 H   0  0  0  0  0  0  0  0  0  0  0  0
   -2.4077    1.6066    1.7911 H   0  0  0  0  0  0  0  0  0  0  0  0
   -3.4227   -0.2095    0.2036 H   0  0  0  0  0  0  0  0  0  0  0  0
   -4.0192   -0.2697    1.8860 H   0  0  0  0  0  0  0  0  0  0  0  0
   -2.7513   -1.4365    1.3100 H   0  0  0  0  0  0  0  0  0  0  0  0
  1  2  1  0
  2  3  3  0
  3  4  1  0
  4  5  1  0
  5  6  1  0
  6  7  2  0
  6  8  1  0
  8  9  1  0
  1 10  1  0
  1 11  1  0
  1 12  1  0
  4 13  1  0
  4 14  1  0
  8 15  1  0
  8 16  1  0
  9 17  1  0
  9 18  1  0
  9 19  1  0
M  END
