
     RDKit          3D

 22 21  0  0  0  0  0  0  0  0999 V2000
    3.7408   -0.5720   -0.0785 C   0  0  0  0  0  0  0  0  0  0  0  0
    2.3773   -0.1695   -0.4284 C   0  0  0  0  0  0  0  0  0  0  0  0
    1.2577    0.1814   -0.7252 C   0  0  0  0  0  0  0  0  0  0  0  0
   -0.0958    0.6094   -1.0688 C   0  0  0  0  0  0  0  0  0  0  0  0
   -1.0205    0.1622    0.0313 C   0  0  0  0  0  0  0  0  0  0  0  0
   -1.0231   -1.3319    0.2183 C   0  0  0  0  0  0  0  0  0  0  0  0
   -0.7784    0.8474    1.3375 C   0  0  0  0  0  0  0  0  0  0  0  0
   -2.4374    0.5459   -0.4163 C   0  0  0  0  0  0  0  0  0  0  0  0
    4.2553    0.1437    0.5660 H   0  0  0  0  0  0  0  0  0  0  0  0
    3.6998   -1.6051    0.3386 H   0  0  0  0  0  0  0  0  0  0  0  0
    4.3703   -0.6663   -1.0110 H   0  0  0  0  0  0  0  0  0  0  0  0
   -0.4443    0.1893   -2.0170 H   0  0  0  0  0  0  0  0  0  0  0  0
   -0.1632    1.7208   -1.1127 H   0  0  0  0  0  0  0  0  0  0  0  0
   -0.0325   -1.7331    0.4996 H   0  0  0  0  0  0  0  0  0  0  0  0
   -1.7026   -1.5507    1.0703 H   0  0  0  0  0  0  0  0  0  0  0  0
   -1.4647   -1.8630   -0.6573 H   0  0  0  0  0  0  0  0  0  0  0  0
   -1.4106    1.7725    1.4032 H   0  0  0  0  0  0  0  0  0  0  0  0
    0.2567    1.1588    1.5077 H   0  0  0  0  0  0  0  0  0  0  0  0
   -1.1741    0.1786    2.1483 H   0  0  0  0  0  0  0  0  0  0  0  0
   -2.5733    0.2315   -1.4740 H   0  0  0  0  0  0  0  0  0  0  0  0
   -3.1733    0.0890    0.2715 H   0  0  0  0  0  0  0  0  0  0  0  0
   -2.4641    1.6609   -0.4033 H   0  0  0  0  0  0  0  0  0  0  0  0
  1  2  1  0
  2  3  3  0
  3  4  1  0
  4  5  1  0
  5  6  1  0
  5  7  1  0
  5  8  1  0
  1  9  1  0
  1 10  1  0
  1 11  1  0
  4 12  1  0
  4 13  1  0
  6 14  1  0
  6 15  1  0
  6 16  1  0
  7 17  1  0
  7 18  1  0
  7 19  1  0
  8 20  1  0
  8 21  1  0
  8 22  1  0
M  END
