
     RDKit          3D

 21 21  0  0  0  0  0  0  0  0999 V2000
    3.2059    2.0310    0.8716 C   0  0  0  0  0  0  0  0  0  0  0  0
    1.9529    1.2404    0.3934 C   0  0  0  0  0  0  0  0  0  0  0  0
    0.8972    0.5523   -0.0021 C   0  0  0  0  0  0  0  0  0  0  0  0
   -0.2240   -0.2033   -0.4417 C   0  0  0  0  0  0  0  0  0  0  0  0
   -0.5922   -0.1290   -1.8534 C   0  0  0  0  0  0  0  0  0  0  0  0
   -1.4241    0.3727    0.3874 C   0  0  0  0  0  0  0  0  0  0  0  0
   -2.3155   -0.7932    0.4704 C   0  0  0  0  0  0  0  0  0  0  0  0
   -1.6265   -1.9584    0.3620 C   0  0  0  0  0  0  0  0  0  0  0  0
   -0.1981   -1.5898    0.1991 C   0  0  0  0  0  0  0  0  0  0  0  0
    3.6849    1.2200    1.4694 H   0  0  0  0  0  0  0  0  0  0  0  0
    2.7746    2.7594    1.5721 H   0  0  0  0  0  0  0  0  0  0  0  0
    3.6515    2.4271    0.0173 H   0  0  0  0  0  0  0  0  0  0  0  0
   -1.4999   -0.7723   -1.9696 H   0  0  0  0  0  0  0  0  0  0  0  0
    0.2459   -0.4893   -2.5120 H   0  0  0  0  0  0  0  0  0  0  0  0
   -0.9182    0.8831   -2.1876 H   0  0  0  0  0  0  0  0  0  0  0  0
   -1.8325    1.2046   -0.1682 H   0  0  0  0  0  0  0  0  0  0  0  0
   -1.0120    0.5976    1.3742 H   0  0  0  0  0  0  0  0  0  0  0  0
   -3.3836   -0.7627    0.6064 H   0  0  0  0  0  0  0  0  0  0  0  0
   -2.0167   -2.9422    0.3930 H   0  0  0  0  0  0  0  0  0  0  0  0
    0.4782   -2.2965   -0.2817 H   0  0  0  0  0  0  0  0  0  0  0  0
    0.1523   -1.3515    1.2999 H   0  0  0  0  0  0  0  0  0  0  0  0
  1  2  1  0
  2  3  3  0
  3  4  1  0
  4  5  1  0
  4  6  1  0
  6  7  1  0
  7  8  2  0
  8  9  1  0
  9  4  1  0
  1 10  1  0
  1 11  1  0
  1 12  1  0
  5 13  1  0
  5 14  1  0
  5 15  1  0
  6 16  1  0
  6 17  1  0
  7 18  1  0
  8 19  1  0
  9 20  1  0
  9 21  1  0
M  END
