
     RDKit          3D

 18 17  0  0  0  0  0  0  0  0999 V2000
    3.3487    0.5451    0.3470 C   0  0  0  0  0  0  0  0  0  0  0  0
    2.0999   -0.2362    0.4927 C   0  0  0  0  0  0  0  0  0  0  0  0
    1.0816   -0.8778    0.5908 C   0  0  0  0  0  0  0  0  0  0  0  0
   -0.1578   -1.6390    0.7288 C   0  0  0  0  0  0  0  0  0  0  0  0
   -1.2190   -0.7785    0.5196 O   0  0  0  0  0  0  0  0  0  0  0  0
   -1.1612   -0.2160   -0.7553 C   0  0  0  0  0  0  0  0  0  0  0  0
   -2.3827    0.7073   -0.8537 C   0  0  0  0  0  0  0  0  0  0  0  0
   -2.2268    1.6472    0.1653 O   0  0  0  0  0  0  0  0  0  0  0  0
    3.4184    1.1590    1.2688 H   0  0  0  0  0  0  0  0  0  0  0  0
    3.2430    1.2168   -0.5379 H   0  0  0  0  0  0  0  0  0  0  0  0
    4.2253   -0.1355    0.2374 H   0  0  0  0  0  0  0  0  0  0  0  0
   -0.2316   -2.4392   -0.0639 H   0  0  0  0  0  0  0  0  0  0  0  0
   -0.2447   -2.1349    1.6977 H   0  0  0  0  0  0  0  0  0  0  0  0
   -0.2396    0.4114   -0.8937 H   0  0  0  0  0  0  0  0  0  0  0  0
   -1.1749   -0.9822   -1.5588 H   0  0  0  0  0  0  0  0  0  0  0  0
   -2.4884    1.1484   -1.8483 H   0  0  0  0  0  0  0  0  0  0  0  0
   -3.2717    0.0838   -0.5600 H   0  0  0  0  0  0  0  0  0  0  0  0
   -2.6185    2.5204   -0.1118 H   0  0  0  0  0  0  0  0  0  0  0  0
  1  2  1  0
  2  3  3  0
  3  4  1  0
  4  5  1  0
  5  6  1  0
  6  7  1  0
  7  8  1  0
  1  9  1  0
  1 10  1  0
  1 11  1  0
  4 12  1  0
  4 13  1  0
  6 14  1  0
  6 15  1  0
  7 16  1  0
  7 17  1  0
  8 18  1  0
M  END
