
     RDKit          3D

 17 18  0  0  0  0  0  0  0  0999 V2000
    3.7566    0.1633    0.3538 C   0  0  0  0  0  0  0  0  0  0  0  0
    2.3268   -0.0193    0.1004 C   0  0  0  0  0  0  0  0  0  0  0  0
    1.1377   -0.1555   -0.0970 C   0  0  0  0  0  0  0  0  0  0  0  0
   -0.3060   -0.3437   -0.3246 C   0  0  0  0  0  0  0  0  0  0  0  0
   -1.1928    0.8274   -0.4313 C   0  0  0  0  0  0  0  0  0  0  0  0
   -2.4194    0.6168   -1.0575 O   0  0  0  0  0  0  0  0  0  0  0  0
   -3.0046   -0.4826   -0.4456 C   0  0  0  0  0  0  0  0  0  0  0  0
   -2.4984   -0.5623    0.8281 O   0  0  0  0  0  0  0  0  0  0  0  0
   -1.2363    0.0156    0.8063 C   0  0  0  0  0  0  0  0  0  0  0  0
    4.1660    1.0461   -0.2057 H   0  0  0  0  0  0  0  0  0  0  0  0
    3.9453    0.3697    1.4193 H   0  0  0  0  0  0  0  0  0  0  0  0
    4.3342   -0.7185   -0.0032 H   0  0  0  0  0  0  0  0  0  0  0  0
   -0.5187   -1.2361   -0.9425 H   0  0  0  0  0  0  0  0  0  0  0  0
   -0.8116    1.8749   -0.3317 H   0  0  0  0  0  0  0  0  0  0  0  0
   -4.1149   -0.3118   -0.3801 H   0  0  0  0  0  0  0  0  0  0  0  0
   -2.8068   -1.4318   -1.0179 H   0  0  0  0  0  0  0  0  0  0  0  0
   -0.7571    0.3478    1.7291 H   0  0  0  0  0  0  0  0  0  0  0  0
  1  2  1  0
  2  3  3  0
  3  4  1  0
  4  5  1  0
  5  6  1  0
  6  7  1  0
  7  8  1  0
  8  9  1  0
  9  4  1  0
  9  5  1  0
  1 10  1  0
  1 11  1  0
  1 12  1  0
  4 13  1  0
  5 14  1  0
  7 15  1  0
  7 16  1  0
  9 17  1  0
M  END
