
     RDKit          3D

 19 18  0  0  0  0  0  0  0  0999 V2000
    3.8046   -0.0715   -0.1746 C   0  0  0  0  0  0  0  0  0  0  0  0
    2.4491   -0.6223   -0.1570 C   0  0  0  0  0  0  0  0  0  0  0  0
    1.3205   -1.0986   -0.1299 C   0  0  0  0  0  0  0  0  0  0  0  0
   -0.0368   -1.6436   -0.0973 C   0  0  0  0  0  0  0  0  0  0  0  0
   -0.9427   -0.6693   -0.4450 O   0  0  0  0  0  0  0  0  0  0  0  0
   -0.9344    0.4308    0.3869 C   0  0  0  0  0  0  0  0  0  0  0  0
   -1.9837    1.3993   -0.1353 C   0  0  0  0  0  0  0  0  0  0  0  0
   -3.2953    0.7334   -0.1118 C   0  0  0  0  0  0  0  0  0  0  0  0
   -4.3233    1.2794   -0.4784 O   0  0  0  0  0  0  0  0  0  0  0  0
    3.7057    1.0279   -0.3083 H   0  0  0  0  0  0  0  0  0  0  0  0
    4.3998   -0.4861   -1.0278 H   0  0  0  0  0  0  0  0  0  0  0  0
    4.3714   -0.3353    0.7433 H   0  0  0  0  0  0  0  0  0  0  0  0
   -0.1606   -2.4836   -0.8175 H   0  0  0  0  0  0  0  0  0  0  0  0
   -0.2288   -2.0790    0.9090 H   0  0  0  0  0  0  0  0  0  0  0  0
   -1.1549    0.0942    1.4188 H   0  0  0  0  0  0  0  0  0  0  0  0
    0.0826    0.8923    0.3276 H   0  0  0  0  0  0  0  0  0  0  0  0
   -1.9447    2.3252    0.4679 H   0  0  0  0  0  0  0  0  0  0  0  0
   -1.7195    1.6003   -1.1909 H   0  0  0  0  0  0  0  0  0  0  0  0
   -3.4090   -0.2937    0.2398 H   0  0  0  0  0  0  0  0  0  0  0  0
  1  2  1  0
  2  3  3  0
  3  4  1  0
  4  5  1  0
  5  6  1  0
  6  7  1  0
  7  8  1  0
  8  9  2  0
  1 10  1  0
  1 11  1  0
  1 12  1  0
  4 13  1  0
  4 14  1  0
  6 15  1  0
  6 16  1  0
  7 17  1  0
  7 18  1  0
  8 19  1  0
M  END
