
     RDKit          3D

 14 13  0  0  0  0  0  0  0  0999 V2000
   -3.0801    0.9422    0.0323 C   0  0  0  0  0  0  0  0  0  0  0  0
   -1.8766    0.1518   -0.2660 C   0  0  0  0  0  0  0  0  0  0  0  0
   -0.8991   -0.5118   -0.5218 C   0  0  0  0  0  0  0  0  0  0  0  0
    0.2739   -1.3384   -0.8377 C   0  0  0  0  0  0  0  0  0  0  0  0
    1.4287   -0.6894   -0.2178 C   0  0  0  0  0  0  0  0  0  0  0  0
    2.3949   -0.1625    0.3128 C   0  0  0  0  0  0  0  0  0  0  0  0
    3.5285    0.4729    0.9176 C   0  0  0  0  0  0  0  0  0  0  0  0
    3.4284    0.8449    2.1124 O   0  0  0  0  0  0  0  0  0  0  0  0
   -2.9684    1.9540   -0.4056 H   0  0  0  0  0  0  0  0  0  0  0  0
   -3.9967    0.4823   -0.4090 H   0  0  0  0  0  0  0  0  0  0  0  0
   -3.1767    1.0029    1.1373 H   0  0  0  0  0  0  0  0  0  0  0  0
    0.4096   -1.4558   -1.9391 H   0  0  0  0  0  0  0  0  0  0  0  0
    0.0707   -2.3445   -0.3804 H   0  0  0  0  0  0  0  0  0  0  0  0
    4.4628    0.6514    0.4095 H   0  0  0  0  0  0  0  0  0  0  0  0
  1  2  1  0
  2  3  3  0
  3  4  1  0
  4  5  1  0
  5  6  3  0
  6  7  1  0
  7  8  2  0
  1  9  1  0
  1 10  1  0
  1 11  1  0
  4 12  1  0
  4 13  1  0
  7 14  1  0
M  END
