
     RDKit          3D

 15 16  0  0  0  0  0  0  0  0999 V2000
    2.8417    1.4596    0.0540 C   0  0  0  0  0  0  0  0  0  0  0  0
    1.5111    1.0024   -0.2485 C   0  0  0  0  0  0  0  0  0  0  0  0
    0.3079    0.5667   -0.5169 C   0  0  0  0  0  0  0  0  0  0  0  0
   -0.9937    0.0726   -0.7955 C   0  0  0  0  0  0  0  0  0  0  0  0
   -1.1230   -1.3990   -0.5689 C   0  0  0  0  0  0  0  0  0  0  0  0
   -0.6788   -1.9737    0.6458 O   0  0  0  0  0  0  0  0  0  0  0  0
   -1.5017   -1.1585    1.3868 C   0  0  0  0  0  0  0  0  0  0  0  0
   -1.7882   -1.0515    2.6002 O   0  0  0  0  0  0  0  0  0  0  0  0
   -1.9450   -0.4239    0.1950 C   0  0  0  0  0  0  0  0  0  0  0  0
    2.8050    2.3925    0.6833 H   0  0  0  0  0  0  0  0  0  0  0  0
    3.4422    0.6659    0.5544 H   0  0  0  0  0  0  0  0  0  0  0  0
    3.2876    1.7293   -0.9521 H   0  0  0  0  0  0  0  0  0  0  0  0
   -1.4859    0.4454   -1.7521 H   0  0  0  0  0  0  0  0  0  0  0  0
   -1.6295   -2.0231   -1.2979 H   0  0  0  0  0  0  0  0  0  0  0  0
   -3.0498   -0.3048    0.0123 H   0  0  0  0  0  0  0  0  0  0  0  0
  1  2  1  0
  2  3  3  0
  3  4  1  0
  4  5  1  0
  5  6  1  0
  6  7  1  0
  7  8  2  0
  7  9  1  0
  9  4  1  0
  9  5  1  0
  1 10  1  0
  1 11  1  0
  1 12  1  0
  4 13  1  0
  5 14  1  0
  9 15  1  0
M  END
