
     RDKit          3D

 19 19  0  0  0  0  0  0  0  0999 V2000
    2.2806   -1.8738    1.4370 C   0  0  0  0  0  0  0  0  0  0  0  0
    1.5436   -1.0932    0.9416 C   0  0  0  0  0  0  0  0  0  0  0  0
    0.7904   -0.2663    0.4310 C   0  0  0  0  0  0  0  0  0  0  0  0
   -0.2034    0.8522   -0.2315 C   0  0  0  0  0  0  0  0  0  0  0  0
   -0.1568    1.9644    0.5417 O   0  0  0  0  0  0  0  0  0  0  0  0
   -1.6206    0.1666    0.4038 C   0  0  0  0  0  0  0  0  0  0  0  0
   -1.3996   -0.7148   -0.7248 O   0  0  0  0  0  0  0  0  0  0  0  0
   -1.0349    0.5323   -1.2928 C   0  0  0  0  0  0  0  0  0  0  0  0
   -0.9027    0.7442   -2.7119 C   0  0  0  0  0  0  0  0  0  0  0  0
    3.1485   -2.3812    0.6400 H   0  0  0  0  0  0  0  0  0  0  0  0
    2.2188   -2.7696    2.1181 H   0  0  0  0  0  0  0  0  0  0  0  0
    3.2899   -1.3642    1.9740 H   0  0  0  0  0  0  0  0  0  0  0  0
    0.4464    1.8473    1.2977 H   0  0  0  0  0  0  0  0  0  0  0  0
   -1.2344   -0.2178    1.3416 H   0  0  0  0  0  0  0  0  0  0  0  0
   -2.3073    0.9569    0.3150 H   0  0  0  0  0  0  0  0  0  0  0  0
   -2.1152    1.0533   -1.0353 H   0  0  0  0  0  0  0  0  0  0  0  0
   -1.5947    1.6081   -3.0169 H   0  0  0  0  0  0  0  0  0  0  0  0
   -1.2725   -0.1287   -3.3277 H   0  0  0  0  0  0  0  0  0  0  0  0
    0.1239    1.0846   -3.0643 H   0  0  0  0  0  0  0  0  0  0  0  0
  1  2  1  0
  2  3  3  0
  3  4  1  0
  4  5  1  0
  4  6  1  0
  6  7  1  0
  7  8  1  0
  8  9  1  0
  8  4  1  0
  1 10  1  0
  1 11  1  0
  1 12  1  0
  5 13  1  0
  6 14  1  0
  6 15  1  0
  8 16  1  0
  9 17  1  0
  9 18  1  0
  9 19  1  0
M  END
