
     RDKit          3D

 14 14  0  0  0  0  0  0  0  0999 V2000
    2.0591   -0.0964   -1.9805 C   0  0  0  0  0  0  0  0  0  0  0  0
    1.1094    0.1464   -0.9295 C   0  0  0  0  0  0  0  0  0  0  0  0
    0.2895    0.3446    0.0028 C   0  0  0  0  0  0  0  0  0  0  0  0
   -0.6349    0.5810    1.0898 C   0  0  0  0  0  0  0  0  0  0  0  0
   -0.9792   -0.7535    1.7317 C   0  0  0  0  0  0  0  0  0  0  0  0
   -2.2907   -0.2106    1.8979 O   0  0  0  0  0  0  0  0  0  0  0  0
   -2.0707    0.5024    0.7262 C   0  0  0  0  0  0  0  0  0  0  0  0
   -2.7256    0.9302   -0.2546 O   0  0  0  0  0  0  0  0  0  0  0  0
    2.9140   -0.7515   -1.6472 H   0  0  0  0  0  0  0  0  0  0  0  0
    2.5293    0.8690   -2.2916 H   0  0  0  0  0  0  0  0  0  0  0  0
    1.5845   -0.5165   -2.9056 H   0  0  0  0  0  0  0  0  0  0  0  0
   -0.3532    1.3749    1.8015 H   0  0  0  0  0  0  0  0  0  0  0  0
   -0.4592   -0.8592    2.6862 H   0  0  0  0  0  0  0  0  0  0  0  0
   -0.9722   -1.5608    1.0171 H   0  0  0  0  0  0  0  0  0  0  0  0
  1  2  1  0
  2  3  3  0
  3  4  1  0
  4  5  1  0
  5  6  1  0
  6  7  1  0
  7  8  2  0
  7  4  1  0
  1  9  1  0
  1 10  1  0
  1 11  1  0
  4 12  1  0
  5 13  1  0
  5 14  1  0
M  END
