
     RDKit          3D

 15 14  0  0  0  0  0  0  0  0999 V2000
   -3.5646    0.0522   -0.4150 C   0  0  0  0  0  0  0  0  0  0  0  0
   -2.2185   -0.1899    0.1185 C   0  0  0  0  0  0  0  0  0  0  0  0
   -1.1051   -0.3943    0.5379 C   0  0  0  0  0  0  0  0  0  0  0  0
    0.2682   -0.6295    1.0333 C   0  0  0  0  0  0  0  0  0  0  0  0
    1.1484    0.1109    0.1941 O   0  0  0  0  0  0  0  0  0  0  0  0
    2.5076    0.0941    0.4040 C   0  0  0  0  0  0  0  0  0  0  0  0
    2.9478   -0.5917    1.3550 O   0  0  0  0  0  0  0  0  0  0  0  0
    3.4092    0.8503   -0.4527 C   0  0  0  0  0  0  0  0  0  0  0  0
    2.9341    1.5288   -1.3991 O   0  0  0  0  0  0  0  0  0  0  0  0
   -3.7269    1.1150   -0.6717 H   0  0  0  0  0  0  0  0  0  0  0  0
   -3.6695   -0.6223   -1.3018 H   0  0  0  0  0  0  0  0  0  0  0  0
   -4.3319   -0.1998    0.3652 H   0  0  0  0  0  0  0  0  0  0  0  0
    0.5191   -1.7048    1.0282 H   0  0  0  0  0  0  0  0  0  0  0  0
    0.3976   -0.2418    2.0683 H   0  0  0  0  0  0  0  0  0  0  0  0
    4.4845    0.8228   -0.2682 H   0  0  0  0  0  0  0  0  0  0  0  0
  1  2  1  0
  2  3  3  0
  3  4  1  0
  4  5  1  0
  5  6  1  0
  6  7  2  0
  6  8  1  0
  8  9  2  0
  1 10  1  0
  1 11  1  0
  1 12  1  0
  4 13  1  0
  4 14  1  0
  8 15  1  0
M  END
