
     RDKit          3D

 16 15  0  0  0  0  0  0  0  0999 V2000
    4.0474   -0.6946    0.9346 C   0  0  0  0  0  0  0  0  0  0  0  0
    2.8500   -0.5761    0.7999 C   0  0  0  0  0  0  0  0  0  0  0  0
    1.4347   -0.4180    0.6224 C   0  0  0  0  0  0  0  0  0  0  0  0
   -0.1499   -0.2357    0.4500 C   0  0  0  0  0  0  0  0  0  0  0  0
   -1.0488   -0.1370    0.3675 C   0  0  0  0  0  0  0  0  0  0  0  0
   -2.5577    0.0420    0.2517 C   0  0  0  0  0  0  0  0  0  0  0  0
   -2.7892    0.5170   -1.1675 C   0  0  0  0  0  0  0  0  0  0  0  0
   -1.8536    1.5474   -1.4705 O   0  0  0  0  0  0  0  0  0  0  0  0
    4.4010   -0.2710    2.0126 H   0  0  0  0  0  0  0  0  0  0  0  0
    4.5925   -1.6911    0.9152 H   0  0  0  0  0  0  0  0  0  0  0  0
    4.7230   -0.0747    0.1828 H   0  0  0  0  0  0  0  0  0  0  0  0
   -3.0716   -0.9532    0.4190 H   0  0  0  0  0  0  0  0  0  0  0  0
   -2.9584    0.6950    0.9841 H   0  0  0  0  0  0  0  0  0  0  0  0
   -2.9053   -0.1882   -1.8927 H   0  0  0  0  0  0  0  0  0  0  0  0
   -3.7827    1.1490   -0.9913 H   0  0  0  0  0  0  0  0  0  0  0  0
   -0.9314    1.2893   -1.1536 H   0  0  0  0  0  0  0  0  0  0  0  0
  1  2  1  0
  2  3  3  0
  3  4  1  0
  4  5  3  0
  5  6  1  0
  6  7  1  0
  7  8  1  0
  1  9  1  0
  1 10  1  0
  1 11  1  0
  6 12  1  0
  6 13  1  0
  7 14  1  0
  7 15  1  0
  8 16  1  0
M  END
