
     RDKit          3D

 17 16  0  0  0  0  0  0  0  0999 V2000
    2.6252    1.0721    1.5743 C   0  0  0  0  0  0  0  0  0  0  0  0
    1.2658    0.7636    1.1025 C   0  0  0  0  0  0  0  0  0  0  0  0
    0.1473    0.4891    0.7058 C   0  0  0  0  0  0  0  0  0  0  0  0
   -1.1798    0.1481    0.2171 C   0  0  0  0  0  0  0  0  0  0  0  0
   -1.8612    1.2301   -0.2930 O   0  0  0  0  0  0  0  0  0  0  0  0
   -1.0646   -0.9474   -0.8063 C   0  0  0  0  0  0  0  0  0  0  0  0
   -0.3770   -2.0539   -0.3126 O   0  0  0  0  0  0  0  0  0  0  0  0
   -0.4450   -0.4946   -2.0776 C   0  0  0  0  0  0  0  0  0  0  0  0
   -0.8792    0.4580   -2.7024 O   0  0  0  0  0  0  0  0  0  0  0  0
    3.3621    0.7276    0.8218 H   0  0  0  0  0  0  0  0  0  0  0  0
    2.7523    2.1538    1.7880 H   0  0  0  0  0  0  0  0  0  0  0  0
    2.8586    0.5127    2.5138 H   0  0  0  0  0  0  0  0  0  0  0  0
   -1.8148   -0.2692    1.0466 H   0  0  0  0  0  0  0  0  0  0  0  0
   -2.8405    1.0935   -0.3335 H   0  0  0  0  0  0  0  0  0  0  0  0
   -2.0899   -1.3279   -1.0809 H   0  0  0  0  0  0  0  0  0  0  0  0
   -0.8839   -2.5655    0.3484 H   0  0  0  0  0  0  0  0  0  0  0  0
    0.4246   -0.9900   -2.5120 H   0  0  0  0  0  0  0  0  0  0  0  0
  1  2  1  0
  2  3  3  0
  3  4  1  0
  4  5  1  0
  4  6  1  0
  6  7  1  0
  6  8  1  0
  8  9  2  0
  1 10  1  0
  1 11  1  0
  1 12  1  0
  4 13  1  0
  5 14  1  0
  6 15  1  0
  7 16  1  0
  8 17  1  0
M  END
