
     RDKit          3D

 23 23  0  0  0  0  0  0  0  0999 V2000
    3.6369   -0.1968    1.1634 C   0  0  0  0  0  0  0  0  0  0  0  0
    2.3765   -0.1200    0.3886 C   0  0  0  0  0  0  0  0  0  0  0  0
    1.3464   -0.0427   -0.2353 C   0  0  0  0  0  0  0  0  0  0  0  0
    0.1081    0.0539   -1.0094 C   0  0  0  0  0  0  0  0  0  0  0  0
   -0.9230    1.0406   -0.5050 C   0  0  0  0  0  0  0  0  0  0  0  0
   -0.5304    1.8173    0.7482 C   0  0  0  0  0  0  0  0  0  0  0  0
   -1.1091   -0.4592   -0.3837 C   0  0  0  0  0  0  0  0  0  0  0  0
   -2.1362   -1.1115   -1.3071 C   0  0  0  0  0  0  0  0  0  0  0  0
   -1.1731   -0.9569    1.0250 C   0  0  0  0  0  0  0  0  0  0  0  0
    4.4840    0.2322    0.5715 H   0  0  0  0  0  0  0  0  0  0  0  0
    3.8508   -1.2700    1.3688 H   0  0  0  0  0  0  0  0  0  0  0  0
    3.5227    0.3960    2.0769 H   0  0  0  0  0  0  0  0  0  0  0  0
    0.1763    0.0122   -2.1197 H   0  0  0  0  0  0  0  0  0  0  0  0
   -1.6096    1.5350   -1.1870 H   0  0  0  0  0  0  0  0  0  0  0  0
   -0.1756    2.8101    0.4256 H   0  0  0  0  0  0  0  0  0  0  0  0
   -1.3653    1.8611    1.4808 H   0  0  0  0  0  0  0  0  0  0  0  0
    0.3484    1.3282    1.2453 H   0  0  0  0  0  0  0  0  0  0  0  0
   -2.0035   -0.7588   -2.3527 H   0  0  0  0  0  0  0  0  0  0  0  0
   -1.9680   -2.1978   -1.2620 H   0  0  0  0  0  0  0  0  0  0  0  0
   -3.1283   -0.8080   -0.9225 H   0  0  0  0  0  0  0  0  0  0  0  0
   -2.1196   -0.5483    1.4822 H   0  0  0  0  0  0  0  0  0  0  0  0
   -1.2678   -2.0549    1.1022 H   0  0  0  0  0  0  0  0  0  0  0  0
   -0.3406   -0.5617    1.6522 H   0  0  0  0  0  0  0  0  0  0  0  0
  1  2  1  0
  2  3  3  0
  3  4  1  0
  4  5  1  0
  5  6  1  0
  5  7  1  0
  7  8  1  0
  7  9  1  0
  7  4  1  0
  1 10  1  0
  1 11  1  0
  1 12  1  0
  4 13  1  0
  5 14  1  0
  6 15  1  0
  6 16  1  0
  6 17  1  0
  8 18  1  0
  8 19  1  0
  8 20  1  0
  9 21  1  0
  9 22  1  0
  9 23  1  0
M  END
