
     RDKit          3D

 19 20  0  0  0  0  0  0  0  0999 V2000
    3.8080   -0.2586   -0.0656 C   0  0  0  0  0  0  0  0  0  0  0  0
    2.4377    0.1176    0.2940 C   0  0  0  0  0  0  0  0  0  0  0  0
    1.3111    0.4385    0.5853 C   0  0  0  0  0  0  0  0  0  0  0  0
   -0.0773    0.8319    0.9175 C   0  0  0  0  0  0  0  0  0  0  0  0
   -0.9771   -0.3157    0.5472 C   0  0  0  0  0  0  0  0  0  0  0  0
   -2.3083    0.0275    0.8516 O   0  0  0  0  0  0  0  0  0  0  0  0
   -2.4453    0.3996   -0.4830 C   0  0  0  0  0  0  0  0  0  0  0  0
   -2.6220   -0.7171   -1.4365 C   0  0  0  0  0  0  0  0  0  0  0  0
   -1.2819   -0.4063   -0.9189 C   0  0  0  0  0  0  0  0  0  0  0  0
    3.8284   -0.4844   -1.1300 H   0  0  0  0  0  0  0  0  0  0  0  0
    4.5262    0.5755    0.1920 H   0  0  0  0  0  0  0  0  0  0  0  0
    4.1389   -1.1267    0.5625 H   0  0  0  0  0  0  0  0  0  0  0  0
   -0.1711    1.1115    1.9909 H   0  0  0  0  0  0  0  0  0  0  0  0
   -0.3995    1.7117    0.3234 H   0  0  0  0  0  0  0  0  0  0  0  0
   -0.6687   -1.3028    0.9339 H   0  0  0  0  0  0  0  0  0  0  0  0
   -2.5437    1.4513   -0.7514 H   0  0  0  0  0  0  0  0  0  0  0  0
   -2.8075   -0.4563   -2.4993 H   0  0  0  0  0  0  0  0  0  0  0  0
   -3.2278   -1.5750   -1.0392 H   0  0  0  0  0  0  0  0  0  0  0  0
   -0.5201   -0.0221   -1.6194 H   0  0  0  0  0  0  0  0  0  0  0  0
  1  2  1  0
  2  3  3  0
  3  4  1  0
  4  5  1  0
  5  6  1  0
  6  7  1  0
  7  8  1  0
  8  9  1  0
  9  5  1  0
  9  7  1  0
  1 10  1  0
  1 11  1  0
  1 12  1  0
  4 13  1  0
  4 14  1  0
  5 15  1  0
  7 16  1  0
  8 17  1  0
  8 18  1  0
  9 19  1  0
M  END
