
     RDKit          3D

 21 21  0  0  0  0  0  0  0  0999 V2000
    3.0871   -1.0377   -2.3558 C   0  0  0  0  0  0  0  0  0  0  0  0
    1.7953   -0.8165   -1.6573 C   0  0  0  0  0  0  0  0  0  0  0  0
    0.7413   -0.6436   -1.0735 C   0  0  0  0  0  0  0  0  0  0  0  0
   -0.5339   -0.4528   -0.3886 C   0  0  0  0  0  0  0  0  0  0  0  0
   -0.7204    0.9430    0.0571 C   0  0  0  0  0  0  0  0  0  0  0  0
   -1.1447    0.9807    1.3125 C   0  0  0  0  0  0  0  0  0  0  0  0
   -1.4245    2.2566    2.0443 C   0  0  0  0  0  0  0  0  0  0  0  0
   -1.2889   -0.3822    1.8429 C   0  0  0  0  0  0  0  0  0  0  0  0
   -0.5135   -1.2379    0.8669 C   0  0  0  0  0  0  0  0  0  0  0  0
    3.4665   -0.1239   -2.8134 H   0  0  0  0  0  0  0  0  0  0  0  0
    2.9527   -1.8124   -3.1595 H   0  0  0  0  0  0  0  0  0  0  0  0
    3.7527   -1.4927   -1.6022 H   0  0  0  0  0  0  0  0  0  0  0  0
   -1.3718   -0.8139   -1.0214 H   0  0  0  0  0  0  0  0  0  0  0  0
   -0.5353    1.8153   -0.5581 H   0  0  0  0  0  0  0  0  0  0  0  0
   -0.6794    3.0336    1.6993 H   0  0  0  0  0  0  0  0  0  0  0  0
   -2.4433    2.5680    1.7331 H   0  0  0  0  0  0  0  0  0  0  0  0
   -1.3171    2.0768    3.1136 H   0  0  0  0  0  0  0  0  0  0  0  0
   -0.9235   -0.4942    2.8820 H   0  0  0  0  0  0  0  0  0  0  0  0
   -2.3524   -0.6871    1.7950 H   0  0  0  0  0  0  0  0  0  0  0  0
   -1.0457   -2.2079    0.7764 H   0  0  0  0  0  0  0  0  0  0  0  0
    0.4992   -1.4713    1.2501 H   0  0  0  0  0  0  0  0  0  0  0  0
  1  2  1  0
  2  3  3  0
  3  4  1  0
  4  5  1  0
  5  6  2  0
  6  7  1  0
  6  8  1  0
  8  9  1  0
  9  4  1  0
  1 10  1  0
  1 11  1  0
  1 12  1  0
  4 13  1  0
  5 14  1  0
  7 15  1  0
  7 16  1  0
  7 17  1  0
  8 18  1  0
  8 19  1  0
  9 20  1  0
  9 21  1  0
M  END
