
     RDKit          3D

 16 16  0  0  0  0  0  0  0  0999 V2000
    2.7600   -0.6431    0.8260 C   0  0  0  0  0  0  0  0  0  0  0  0
    1.7832   -0.4892    0.4377 C   0  0  0  0  0  0  0  0  0  0  0  0
    1.5460   -0.4473    0.3419 C   0  0  0  0  0  0  0  0  0  0  0  0
    1.4426   -0.4272    0.3012 C   0  0  0  0  0  0  0  0  0  0  0  0
   -0.2112   -0.0755   -0.3668 C   0  0  0  0  0  0  0  0  0  0  0  0
   -1.2169    0.1201   -0.7715 C   0  0  0  0  0  0  0  0  0  0  0  0
   -2.5945    0.4934   -0.1477 C   0  0  0  0  0  0  0  0  0  0  0  0
   -2.1149    1.2389   -1.4069 C   0  0  0  0  0  0  0  0  0  0  0  0
    3.8699   -0.1730    0.5819 H   0  0  0  0  0  0  0  0  0  0  0  0
    3.0981   -0.5647    2.1136 H   0  0  0  0  0  0  0  0  0  0  0  0
    3.3208   -1.8511    0.9726 H   0  0  0  0  0  0  0  0  0  0  0  0
   -1.6736   -1.1212   -1.2237 H   0  0  0  0  0  0  0  0  0  0  0  0
   -2.5109    0.8864    0.8665 H   0  0  0  0  0  0  0  0  0  0  0  0
   -3.4445   -0.2577   -0.4002 H   0  0  0  0  0  0  0  0  0  0  0  0
   -1.5119    2.1914   -1.2137 H   0  0  0  0  0  0  0  0  0  0  0  0
   -2.5423    1.1197   -2.3804 H   0  0  0  0  0  0  0  0  0  0  0  0
  1  2  1  0
  2  3  3  0
  3  4  1  0
  4  5  3  0
  5  6  1  0
  6  7  1  0
  7  8  1  0
  8  6  1  0
  1  9  1  0
  1 10  1  0
  1 11  1  0
  6 12  1  0
  7 13  1  0
  7 14  1  0
  8 15  1  0
  8 16  1  0
M  END
