
     RDKit          3D

 21 22  0  0  0  0  0  0  0  0999 V2000
    3.4827    1.2858    0.5705 C   0  0  0  0  0  0  0  0  0  0  0  0
    2.3926    0.3425    0.3117 C   0  0  0  0  0  0  0  0  0  0  0  0
    1.5027   -0.4441    0.1157 C   0  0  0  0  0  0  0  0  0  0  0  0
    0.4310   -1.4039   -0.0988 C   0  0  0  0  0  0  0  0  0  0  0  0
   -0.9112   -0.7708   -0.1359 C   0  0  0  0  0  0  0  0  0  0  0  0
   -1.4588   -0.0051    1.0149 C   0  0  0  0  0  0  0  0  0  0  0  0
   -2.0736    1.0118    0.0447 C   0  0  0  0  0  0  0  0  0  0  0  0
   -1.3192    0.2715   -1.0630 C   0  0  0  0  0  0  0  0  0  0  0  0
   -1.7862   -1.1096   -1.2993 C   0  0  0  0  0  0  0  0  0  0  0  0
    4.1577    1.3723   -0.3254 H   0  0  0  0  0  0  0  0  0  0  0  0
    4.1548    0.8895    1.3808 H   0  0  0  0  0  0  0  0  0  0  0  0
    3.1026    2.2460    0.9153 H   0  0  0  0  0  0  0  0  0  0  0  0
    0.6300   -1.9291   -1.0518 H   0  0  0  0  0  0  0  0  0  0  0  0
    0.4220   -2.2067    0.6872 H   0  0  0  0  0  0  0  0  0  0  0  0
   -0.6881    0.4540    1.6628 H   0  0  0  0  0  0  0  0  0  0  0  0
   -2.2672   -0.5570    1.5322 H   0  0  0  0  0  0  0  0  0  0  0  0
   -1.7618    2.0438    0.1970 H   0  0  0  0  0  0  0  0  0  0  0  0
   -3.1677    0.8413   -0.1293 H   0  0  0  0  0  0  0  0  0  0  0  0
   -0.6687    0.8245   -1.7310 H   0  0  0  0  0  0  0  0  0  0  0  0
   -2.8182   -1.4124   -1.0148 H   0  0  0  0  0  0  0  0  0  0  0  0
   -1.3553   -1.7443   -2.0834 H   0  0  0  0  0  0  0  0  0  0  0  0
  1  2  1  0
  2  3  3  0
  3  4  1  0
  4  5  1  0
  5  6  1  0
  6  7  1  0
  7  8  1  0
  8  9  1  0
  8  5  1  0
  9  5  1  0
  1 10  1  0
  1 11  1  0
  1 12  1  0
  4 13  1  0
  4 14  1  0
  6 15  1  0
  6 16  1  0
  7 17  1  0
  7 18  1  0
  8 19  1  0
  9 20  1  0
  9 21  1  0
M  END
