
     RDKit          3D

 15 15  0  0  0  0  0  0  0  0999 V2000
    3.0690    1.3048    1.0714 C   0  0  0  0  0  0  0  0  0  0  0  0
    1.7687    0.7826    0.6219 C   0  0  0  0  0  0  0  0  0  0  0  0
    0.6936    0.3466    0.2635 C   0  0  0  0  0  0  0  0  0  0  0  0
   -0.5940   -0.1497   -0.1552 C   0  0  0  0  0  0  0  0  0  0  0  0
   -0.8982   -1.3780   -0.5369 C   0  0  0  0  0  0  0  0  0  0  0  0
   -2.3142   -1.4700   -0.8819 C   0  0  0  0  0  0  0  0  0  0  0  0
   -2.8129   -0.1753   -0.6657 O   0  0  0  0  0  0  0  0  0  0  0  0
   -1.8026    0.6561   -0.2247 C   0  0  0  0  0  0  0  0  0  0  0  0
   -1.8916    1.8990    0.0715 O   0  0  0  0  0  0  0  0  0  0  0  0
    3.0150    1.6762    2.1230 H   0  0  0  0  0  0  0  0  0  0  0  0
    3.3385    2.1144    0.3674 H   0  0  0  0  0  0  0  0  0  0  0  0
    3.8556    0.5027    1.0296 H   0  0  0  0  0  0  0  0  0  0  0  0
   -0.1374   -2.1639   -0.5641 H   0  0  0  0  0  0  0  0  0  0  0  0
   -2.8295   -2.1409   -0.1602 H   0  0  0  0  0  0  0  0  0  0  0  0
   -2.4597   -1.8046   -1.9333 H   0  0  0  0  0  0  0  0  0  0  0  0
  1  2  1  0
  2  3  3  0
  3  4  1  0
  4  5  2  0
  5  6  1  0
  6  7  1  0
  7  8  1  0
  8  9  2  0
  8  4  1  0
  1 10  1  0
  1 11  1  0
  1 12  1  0
  5 13  1  0
  6 14  1  0
  6 15  1  0
M  END
