
     RDKit          3D

 21 20  0  0  0  0  0  0  0  0999 V2000
    3.9041    1.1878    0.1098 C   0  0  0  0  0  0  0  0  0  0  0  0
    2.6561    0.5567    0.3520 C   0  0  0  0  0  0  0  0  0  0  0  0
    1.4186   -0.0617    0.5987 C   0  0  0  0  0  0  0  0  0  0  0  0
    0.1252   -0.7351    0.8611 C   0  0  0  0  0  0  0  0  0  0  0  0
   -0.6730   -0.6883   -0.3534 C   0  0  0  0  0  0  0  0  0  0  0  0
   -1.9429   -1.5494   -0.3254 C   0  0  0  0  0  0  0  0  0  0  0  0
   -2.6941   -1.1389    0.8384 O   0  0  0  0  0  0  0  0  0  0  0  0
   -1.1529    0.7731   -0.6407 C   0  0  0  0  0  0  0  0  0  0  0  0
   -1.8636    0.7039   -1.8467 O   0  0  0  0  0  0  0  0  0  0  0  0
    4.5613    0.5276   -0.5355 H   0  0  0  0  0  0  0  0  0  0  0  0
    3.7019    2.0917   -0.4498 H   0  0  0  0  0  0  0  0  0  0  0  0
    4.3909    1.3270    1.0736 H   0  0  0  0  0  0  0  0  0  0  0  0
   -0.0042   -1.1906    1.7749 H   0  0  0  0  0  0  0  0  0  0  0  0
   -0.2993    0.4652    1.3687 H   0  0  0  0  0  0  0  0  0  0  0  0
   -0.1041   -0.9384   -1.3239 H   0  0  0  0  0  0  0  0  0  0  0  0
   -2.6595   -1.2600   -1.2043 H   0  0  0  0  0  0  0  0  0  0  0  0
   -1.6162   -2.5217   -0.4068 H   0  0  0  0  0  0  0  0  0  0  0  0
   -3.6606   -1.5126    0.6345 H   0  0  0  0  0  0  0  0  0  0  0  0
   -1.9385    0.8168    0.1723 H   0  0  0  0  0  0  0  0  0  0  0  0
   -0.3298    1.4579   -0.6218 H   0  0  0  0  0  0  0  0  0  0  0  0
   -1.8193    1.6887   -2.2604 H   0  0  0  0  0  0  0  0  0  0  0  0
  1  2  1  0
  2  3  3  0
  3  4  1  0
  4  5  1  0
  5  6  1  0
  6  7  1  0
  5  8  1  0
  8  9  1  0
  1 10  1  0
  1 11  1  0
  1 12  1  0
  4 13  1  0
  4 14  1  0
  5 15  1  0
  6 16  1  0
  6 17  1  0
  7 18  1  0
  8 19  1  0
  8 20  1  0
  9 21  1  0
M  END
