
     RDKit          3D

 13 12  0  0  0  0  0  0  0  0999 V2000
    2.6499    0.3837    0.2260 C   0  0  0  0  0  0  0  0  0  0  0  0
    1.2526    0.0008    0.0030 C   0  0  0  0  0  0  0  0  0  0  0  0
    0.0991   -0.3091   -0.1693 C   0  0  0  0  0  0  0  0  0  0  0  0
   -1.3215   -0.6765   -0.3761 C   0  0  0  0  0  0  0  0  0  0  0  0
   -1.7118   -0.0486   -1.5556 O   0  0  0  0  0  0  0  0  0  0  0  0
   -2.1675   -0.1399    0.7207 C   0  0  0  0  0  0  0  0  0  0  0  0
   -3.0271    0.7006    0.5267 O   0  0  0  0  0  0  0  0  0  0  0  0
    3.3184   -0.4984    0.2622 H   0  0  0  0  0  0  0  0  0  0  0  0
    2.7710    0.9625    1.1643 H   0  0  0  0  0  0  0  0  0  0  0  0
    2.9621    1.0007   -0.6241 H   0  0  0  0  0  0  0  0  0  0  0  0
   -1.4203   -1.7884   -0.4383 H   0  0  0  0  0  0  0  0  0  0  0  0
   -1.3563    0.8940   -1.4853 H   0  0  0  0  0  0  0  0  0  0  0  0
   -2.0485   -0.4815    1.7458 H   0  0  0  0  0  0  0  0  0  0  0  0
  1  2  1  0
  2  3  3  0
  3  4  1  0
  4  5  1  0
  4  6  1  0
  6  7  2  0
  1  8  1  0
  1  9  1  0
  1 10  1  0
  4 11  1  0
  5 12  1  0
  6 13  1  0
M  END
