
     RDKit          3D

 19 19  0  0  0  0  0  0  0  0999 V2000
    0.1752    2.0367    3.1016 C   0  0  0  0  0  0  0  0  0  0  0  0
    0.2304    1.2523    1.9005 C   0  0  0  0  0  0  0  0  0  0  0  0
    0.2974    0.5589    0.8602 C   0  0  0  0  0  0  0  0  0  0  0  0
    0.3496   -0.2283   -0.3150 C   0  0  0  0  0  0  0  0  0  0  0  0
    1.2817   -1.2401   -0.4316 C   0  0  0  0  0  0  0  0  0  0  0  0
    1.1212   -1.8943   -1.7452 C   0  0  0  0  0  0  0  0  0  0  0  0
   -0.2124   -1.5720   -2.1072 O   0  0  0  0  0  0  0  0  0  0  0  0
   -0.3812   -0.2885   -1.5730 C   0  0  0  0  0  0  0  0  0  0  0  0
   -1.8475   -0.0441   -1.4189 C   0  0  0  0  0  0  0  0  0  0  0  0
    0.8957    1.7315    3.8878 H   0  0  0  0  0  0  0  0  0  0  0  0
   -0.8316    2.0325    3.5947 H   0  0  0  0  0  0  0  0  0  0  0  0
    0.4577    3.0999    2.7867 H   0  0  0  0  0  0  0  0  0  0  0  0
    2.0013   -1.4984    0.3166 H   0  0  0  0  0  0  0  0  0  0  0  0
    1.3016   -2.9767   -1.7144 H   0  0  0  0  0  0  0  0  0  0  0  0
    1.7618   -1.3879   -2.5230 H   0  0  0  0  0  0  0  0  0  0  0  0
    0.0491    0.4213   -2.3330 H   0  0  0  0  0  0  0  0  0  0  0  0
   -2.1184   -0.5496   -0.4360 H   0  0  0  0  0  0  0  0  0  0  0  0
   -2.0927    1.0459   -1.3902 H   0  0  0  0  0  0  0  0  0  0  0  0
   -2.4389   -0.4993   -2.2195 H   0  0  0  0  0  0  0  0  0  0  0  0
  1  2  1  0
  2  3  3  0
  3  4  1  0
  4  5  2  0
  5  6  1  0
  6  7  1  0
  7  8  1  0
  8  9  1  0
  8  4  1  0
  1 10  1  0
  1 11  1  0
  1 12  1  0
  5 13  1  0
  6 14  1  0
  6 15  1  0
  8 16  1  0
  9 17  1  0
  9 18  1  0
  9 19  1  0
M  END
