
     RDKit          3D

 16 16  0  0  0  0  0  0  0  0999 V2000
    2.1193    2.5390   -0.6570 C   0  0  0  0  0  0  0  0  0  0  0  0
    1.1879    1.4995   -0.6387 C   0  0  0  0  0  0  0  0  0  0  0  0
    0.3188    0.4984   -0.6340 C   0  0  0  0  0  0  0  0  0  0  0  0
   -0.5447   -0.5279   -0.6177 C   0  0  0  0  0  0  0  0  0  0  0  0
   -0.1322   -1.9459   -0.2444 C   0  0  0  0  0  0  0  0  0  0  0  0
   -0.8363   -1.1710    0.7595 C   0  0  0  0  0  0  0  0  0  0  0  0
   -2.3003   -1.1894    0.9986 C   0  0  0  0  0  0  0  0  0  0  0  0
   -2.6276   -0.6152    2.0646 O   0  0  0  0  0  0  0  0  0  0  0  0
    1.6348    3.5842   -0.7411 H   0  0  0  0  0  0  0  0  0  0  0  0
    2.6748    2.5759   -1.7030 H   0  0  0  0  0  0  0  0  0  0  0  0
    2.8515    2.5210    0.1486 H   0  0  0  0  0  0  0  0  0  0  0  0
   -1.3768   -0.6198   -1.4207 H   0  0  0  0  0  0  0  0  0  0  0  0
    0.9574   -2.1070   -0.2793 H   0  0  0  0  0  0  0  0  0  0  0  0
   -0.6116   -2.6980   -0.9425 H   0  0  0  0  0  0  0  0  0  0  0  0
   -0.2370   -0.7354    1.6032 H   0  0  0  0  0  0  0  0  0  0  0  0
   -3.0777   -1.6083    0.4085 H   0  0  0  0  0  0  0  0  0  0  0  0
  1  2  1  0
  2  3  3  0
  3  4  1  0
  4  5  1  0
  5  6  1  0
  6  7  1  0
  7  8  2  0
  6  4  1  0
  1  9  1  0
  1 10  1  0
  1 11  1  0
  4 12  1  0
  5 13  1  0
  5 14  1  0
  6 15  1  0
  7 16  1  0
M  END
