
     RDKit          3D

 19 19  0  0  0  0  0  0  0  0999 V2000
    3.3384   -0.1823    0.1476 C   0  0  0  0  0  0  0  0  0  0  0  0
    1.8798   -0.1121    0.2898 C   0  0  0  0  0  0  0  0  0  0  0  0
    0.6692   -0.0491    0.4287 C   0  0  0  0  0  0  0  0  0  0  0  0
   -0.7589    0.0430    0.5799 C   0  0  0  0  0  0  0  0  0  0  0  0
   -1.3174   -0.9410    1.5961 C   0  0  0  0  0  0  0  0  0  0  0  0
   -1.2302    1.3467    0.8623 O   0  0  0  0  0  0  0  0  0  0  0  0
   -1.1707    1.5838   -0.5118 C   0  0  0  0  0  0  0  0  0  0  0  0
   -1.4894    0.1061   -0.7121 C   0  0  0  0  0  0  0  0  0  0  0  0
   -0.8408   -0.4022   -1.8287 O   0  0  0  0  0  0  0  0  0  0  0  0
    3.6146   -0.3164   -0.9343 H   0  0  0  0  0  0  0  0  0  0  0  0
    3.7830   -0.9468    0.7929 H   0  0  0  0  0  0  0  0  0  0  0  0
    3.8238    0.7913    0.4385 H   0  0  0  0  0  0  0  0  0  0  0  0
   -2.4231   -0.8222    1.6650 H   0  0  0  0  0  0  0  0  0  0  0  0
   -0.8572   -0.7561    2.5857 H   0  0  0  0  0  0  0  0  0  0  0  0
   -1.0964   -1.9651    1.2325 H   0  0  0  0  0  0  0  0  0  0  0  0
   -1.9967    2.2463   -0.8208 H   0  0  0  0  0  0  0  0  0  0  0  0
   -0.1763    1.7970   -0.8992 H   0  0  0  0  0  0  0  0  0  0  0  0
   -2.5815   -0.0755   -0.6898 H   0  0  0  0  0  0  0  0  0  0  0  0
   -1.1702   -1.3455   -1.9346 H   0  0  0  0  0  0  0  0  0  0  0  0
  1  2  1  0
  2  3  3  0
  3  4  1  0
  4  5  1  0
  4  6  1  0
  6  7  1  0
  7  8  1  0
  8  9  1  0
  8  4  1  0
  1 10  1  0
  1 11  1  0
  1 12  1  0
  5 13  1  0
  5 14  1  0
  5 15  1  0
  7 16  1  0
  7 17  1  0
  8 18  1  0
  9 19  1  0
M  END
