
     RDKit          3D

 19 19  0  0  0  0  0  0  0  0999 V2000
    3.0528   -1.5710    1.9495 C   0  0  0  0  0  0  0  0  0  0  0  0
    1.8529   -0.9961    1.3412 C   0  0  0  0  0  0  0  0  0  0  0  0
    0.8624   -0.5270    0.8352 C   0  0  0  0  0  0  0  0  0  0  0  0
   -0.3212    0.0596    0.2148 C   0  0  0  0  0  0  0  0  0  0  0  0
   -1.1970    0.8519    0.8033 C   0  0  0  0  0  0  0  0  0  0  0  0
   -2.2715    1.2446   -0.1715 C   0  0  0  0  0  0  0  0  0  0  0  0
   -1.5359    1.0794   -1.4968 C   0  0  0  0  0  0  0  0  0  0  0  0
   -0.7236   -0.1560   -1.1852 C   0  0  0  0  0  0  0  0  0  0  0  0
    0.3556   -0.1638   -2.0609 O   0  0  0  0  0  0  0  0  0  0  0  0
    2.8601   -1.7461    3.0412 H   0  0  0  0  0  0  0  0  0  0  0  0
    3.9420   -0.9282    1.8041 H   0  0  0  0  0  0  0  0  0  0  0  0
    3.2731   -2.5363    1.4799 H   0  0  0  0  0  0  0  0  0  0  0  0
   -1.2002    1.1989    1.8132 H   0  0  0  0  0  0  0  0  0  0  0  0
   -2.5520    2.2978    0.0075 H   0  0  0  0  0  0  0  0  0  0  0  0
   -3.1461    0.5962   -0.1072 H   0  0  0  0  0  0  0  0  0  0  0  0
   -2.2377    0.9298   -2.3348 H   0  0  0  0  0  0  0  0  0  0  0  0
   -0.8639    1.9351   -1.6062 H   0  0  0  0  0  0  0  0  0  0  0  0
   -1.3357   -1.0770   -1.2600 H   0  0  0  0  0  0  0  0  0  0  0  0
    1.1859   -0.4918   -1.6331 H   0  0  0  0  0  0  0  0  0  0  0  0
  1  2  1  0
  2  3  3  0
  3  4  1  0
  4  5  2  0
  5  6  1  0
  6  7  1  0
  7  8  1  0
  8  9  1  0
  8  4  1  0
  1 10  1  0
  1 11  1  0
  1 12  1  0
  5 13  1  0
  6 14  1  0
  6 15  1  0
  7 16  1  0
  7 17  1  0
  8 18  1  0
  9 19  1  0
M  END
