
     RDKit          3D

 21 20  0  0  0  0  0  0  0  0999 V2000
    4.2622    0.7086    0.7567 C   0  0  0  0  0  0  0  0  0  0  0  0
    2.9354    0.1240    0.5567 C   0  0  0  0  0  0  0  0  0  0  0  0
    1.8184   -0.3516    0.4045 C   0  0  0  0  0  0  0  0  0  0  0  0
    0.4823   -0.9286    0.2425 C   0  0  0  0  0  0  0  0  0  0  0  0
   -0.5425    0.2085    0.1798 C   0  0  0  0  0  0  0  0  0  0  0  0
   -1.9313   -0.3540    0.0128 C   0  0  0  0  0  0  0  0  0  0  0  0
   -2.8778    0.8496   -0.0391 C   0  0  0  0  0  0  0  0  0  0  0  0
   -2.1085   -1.0674   -1.2625 C   0  0  0  0  0  0  0  0  0  0  0  0
   -2.1753   -0.4349   -2.2813 O   0  0  0  0  0  0  0  0  0  0  0  0
    4.7975    0.0378    1.4600 H   0  0  0  0  0  0  0  0  0  0  0  0
    4.1862    1.7135    1.2176 H   0  0  0  0  0  0  0  0  0  0  0  0
    4.8314    0.7524   -0.2116 H   0  0  0  0  0  0  0  0  0  0  0  0
    0.4196   -1.5462   -0.6728 H   0  0  0  0  0  0  0  0  0  0  0  0
    0.2617   -1.5777    1.1130 H   0  0  0  0  0  0  0  0  0  0  0  0
   -0.3132    0.8860   -0.6650 H   0  0  0  0  0  0  0  0  0  0  0  0
   -0.4781    0.7914    1.1203 H   0  0  0  0  0  0  0  0  0  0  0  0
   -2.1754   -1.0027    0.8849 H   0  0  0  0  0  0  0  0  0  0  0  0
   -3.8988    0.5026    0.2265 H   0  0  0  0  0  0  0  0  0  0  0  0
   -2.8353    1.2255   -1.0862 H   0  0  0  0  0  0  0  0  0  0  0  0
   -2.4823    1.5929    0.6778 H   0  0  0  0  0  0  0  0  0  0  0  0
   -2.1762   -2.1299   -1.2790 H   0  0  0  0  0  0  0  0  0  0  0  0
  1  2  1  0
  2  3  3  0
  3  4  1  0
  4  5  1  0
  5  6  1  0
  6  7  1  0
  6  8  1  0
  8  9  2  0
  1 10  1  0
  1 11  1  0
  1 12  1  0
  4 13  1  0
  4 14  1  0
  5 15  1  0
  5 16  1  0
  6 17  1  0
  7 18  1  0
  7 19  1  0
  7 20  1  0
  8 21  1  0
M  END
