
     RDKit          3D

 21 21  0  0  0  0  0  0  0  0999 V2000
   -3.6939    0.4740   -1.5655 C   0  0  0  0  0  0  0  0  0  0  0  0
   -2.5611   -0.0261   -0.8826 C   0  0  0  0  0  0  0  0  0  0  0  0
   -1.5670   -0.4575   -0.2613 C   0  0  0  0  0  0  0  0  0  0  0  0
   -0.4182   -0.9293    0.4435 C   0  0  0  0  0  0  0  0  0  0  0  0
    0.1586    0.0094    1.4313 C   0  0  0  0  0  0  0  0  0  0  0  0
    1.3954   -0.6446    2.1037 C   0  0  0  0  0  0  0  0  0  0  0  0
    1.5476    0.5219    1.1874 C   0  0  0  0  0  0  0  0  0  0  0  0
    2.1074    0.3600   -0.2011 C   0  0  0  0  0  0  0  0  0  0  0  0
    3.3994    0.9099   -0.3055 O   0  0  0  0  0  0  0  0  0  0  0  0
   -3.5486    0.6270   -2.6644 H   0  0  0  0  0  0  0  0  0  0  0  0
   -3.9636    1.5138   -1.1666 H   0  0  0  0  0  0  0  0  0  0  0  0
   -4.5922   -0.1852   -1.4246 H   0  0  0  0  0  0  0  0  0  0  0  0
    0.3297   -1.1849   -0.3719 H   0  0  0  0  0  0  0  0  0  0  0  0
   -0.6592   -1.9227    0.9860 H   0  0  0  0  0  0  0  0  0  0  0  0
   -0.5056    0.5414    2.1099 H   0  0  0  0  0  0  0  0  0  0  0  0
    1.5351   -0.4384    3.2037 H   0  0  0  0  0  0  0  0  0  0  0  0
    1.8084   -1.5824    1.8085 H   0  0  0  0  0  0  0  0  0  0  0  0
    1.9291    1.4205    1.7710 H   0  0  0  0  0  0  0  0  0  0  0  0
    1.4077    0.7681   -0.9379 H   0  0  0  0  0  0  0  0  0  0  0  0
    2.2828   -0.7415   -0.4617 H   0  0  0  0  0  0  0  0  0  0  0  0
    3.6082    0.9664   -1.2603 H   0  0  0  0  0  0  0  0  0  0  0  0
  1  2  1  0
  2  3  3  0
  3  4  1  0
  4  5  1  0
  5  6  1  0
  6  7  1  0
  7  8  1  0
  8  9  1  0
  7  5  1  0
  1 10  1  0
  1 11  1  0
  1 12  1  0
  4 13  1  0
  4 14  1  0
  5 15  1  0
  6 16  1  0
  6 17  1  0
  7 18  1  0
  8 19  1  0
  8 20  1  0
  9 21  1  0
M  END
