
     RDKit          3D

 19 18  0  0  0  0  0  0  0  0999 V2000
    3.0576    0.7398   -2.8578 C   0  0  0  0  0  0  0  0  0  0  0  0
    2.0262    0.2288   -1.9807 C   0  0  0  0  0  0  0  0  0  0  0  0
    1.1382   -0.2181   -1.1965 C   0  0  0  0  0  0  0  0  0  0  0  0
    0.1290   -0.7052   -0.2953 C   0  0  0  0  0  0  0  0  0  0  0  0
    0.6673   -1.5830    0.6532 O   0  0  0  0  0  0  0  0  0  0  0  0
   -0.5563    0.4448    0.4360 C   0  0  0  0  0  0  0  0  0  0  0  0
   -1.5711   -0.1362    1.3384 C   0  0  0  0  0  0  0  0  0  0  0  0
   -3.0261   -0.1719    1.0977 C   0  0  0  0  0  0  0  0  0  0  0  0
   -1.1391   -0.6337    2.3917 O   0  0  0  0  0  0  0  0  0  0  0  0
    3.8296    1.3240   -2.3120 H   0  0  0  0  0  0  0  0  0  0  0  0
    3.4838   -0.0839   -3.4265 H   0  0  0  0  0  0  0  0  0  0  0  0
    2.6243    1.4453   -3.6074 H   0  0  0  0  0  0  0  0  0  0  0  0
   -0.6605   -1.2163   -0.8696 H   0  0  0  0  0  0  0  0  0  0  0  0
    1.0358   -0.9695    1.3627 H   0  0  0  0  0  0  0  0  0  0  0  0
    0.2177    1.0327    0.9940 H   0  0  0  0  0  0  0  0  0  0  0  0
   -1.0209    1.1449   -0.3074 H   0  0  0  0  0  0  0  0  0  0  0  0
   -3.4661   -1.1601    1.4153 H   0  0  0  0  0  0  0  0  0  0  0  0
   -3.1970   -0.1027    0.0024 H   0  0  0  0  0  0  0  0  0  0  0  0
   -3.5722    0.6202    1.6621 H   0  0  0  0  0  0  0  0  0  0  0  0
  1  2  1  0
  2  3  3  0
  3  4  1  0
  4  5  1  0
  4  6  1  0
  6  7  1  0
  7  8  1  0
  7  9  2  0
  1 10  1  0
  1 11  1  0
  1 12  1  0
  4 13  1  0
  5 14  1  0
  6 15  1  0
  6 16  1  0
  8 17  1  0
  8 18  1  0
  8 19  1  0
M  END
