
     RDKit          3D

 21 21  0  0  0  0  0  0  0  0999 V2000
    2.8625    0.0863    2.7704 C   0  0  0  0  0  0  0  0  0  0  0  0
    1.9647    0.5609    1.4578 C   0  0  0  0  0  0  0  0  0  0  0  0
    1.3261    0.8764    0.5456 C   0  0  0  0  0  0  0  0  0  0  0  0
    0.5775    1.2200   -0.5109 C   0  0  0  0  0  0  0  0  0  0  0  0
   -0.4858    0.2047   -0.8746 C   0  0  0  0  0  0  0  0  0  0  0  0
    0.1606   -1.1274   -1.2363 C   0  0  0  0  0  0  0  0  0  0  0  0
   -1.2870    0.7864   -2.0002 O   0  0  0  0  0  0  0  0  0  0  0  0
   -1.8376    0.3207   -0.7053 C   0  0  0  0  0  0  0  0  0  0  0  0
   -2.8918   -0.6923   -0.9310 C   0  0  0  0  0  0  0  0  0  0  0  0
    2.1574   -0.2033    3.4645 H   0  0  0  0  0  0  0  0  0  0  0  0
    3.4765    0.9365    2.9580 H   0  0  0  0  0  0  0  0  0  0  0  0
    3.4915   -0.7087    2.3196 H   0  0  0  0  0  0  0  0  0  0  0  0
    0.1212    2.2663   -0.4899 H   0  0  0  0  0  0  0  0  0  0  0  0
    1.1816    1.2998   -1.5010 H   0  0  0  0  0  0  0  0  0  0  0  0
   -0.0085   -1.4140   -2.2777 H   0  0  0  0  0  0  0  0  0  0  0  0
   -0.1636   -1.9040   -0.5255 H   0  0  0  0  0  0  0  0  0  0  0  0
    1.3036   -1.0549   -1.0727 H   0  0  0  0  0  0  0  0  0  0  0  0
   -2.2626    1.2520   -0.1413 H   0  0  0  0  0  0  0  0  0  0  0  0
   -2.5703   -1.7311   -0.8659 H   0  0  0  0  0  0  0  0  0  0  0  0
   -3.7188   -0.5196   -0.1722 H   0  0  0  0  0  0  0  0  0  0  0  0
   -3.3975   -0.4547   -1.9093 H   0  0  0  0  0  0  0  0  0  0  0  0
  1  2  1  0
  2  3  3  0
  3  4  1  0
  4  5  1  0
  5  6  1  0
  5  7  1  0
  7  8  1  0
  8  9  1  0
  8  5  1  0
  1 10  1  0
  1 11  1  0
  1 12  1  0
  4 13  1  0
  4 14  1  0
  6 15  1  0
  6 16  1  0
  6 17  1  0
  8 18  1  0
  9 19  1  0
  9 20  1  0
  9 21  1  0
M  END
