
     RDKit          3D

 23 22  0  0  0  0  0  0  0  0999 V2000
    2.6201    1.8701    1.7994 C   0  0  0  0  0  0  0  0  0  0  0  0
    1.6624    0.9099    1.2207 C   0  0  0  0  0  0  0  0  0  0  0  0
    0.8791    0.1402    0.7328 C   0  0  0  0  0  0  0  0  0  0  0  0
   -0.0692   -0.8210    0.1490 C   0  0  0  0  0  0  0  0  0  0  0  0
   -1.0302   -1.2134    1.2106 C   0  0  0  0  0  0  0  0  0  0  0  0
    0.6970   -2.0485   -0.3070 C   0  0  0  0  0  0  0  0  0  0  0  0
   -0.7251   -0.2342   -1.0780 C   0  0  0  0  0  0  0  0  0  0  0  0
   -1.4284    0.9278   -0.7908 O   0  0  0  0  0  0  0  0  0  0  0  0
   -2.0121    1.4264   -1.9530 C   0  0  0  0  0  0  0  0  0  0  0  0
    2.4130    2.0108    2.8986 H   0  0  0  0  0  0  0  0  0  0  0  0
    3.6281    1.4504    1.7287 H   0  0  0  0  0  0  0  0  0  0  0  0
    2.5149    2.8665    1.3403 H   0  0  0  0  0  0  0  0  0  0  0  0
   -1.1368   -0.4611    2.0188 H   0  0  0  0  0  0  0  0  0  0  0  0
   -0.8007   -2.2188    1.5804 H   0  0  0  0  0  0  0  0  0  0  0  0
   -2.0580   -1.2840    0.7488 H   0  0  0  0  0  0  0  0  0  0  0  0
    0.9171   -2.6384    0.5994 H   0  0  0  0  0  0  0  0  0  0  0  0
    0.0911   -2.6090   -1.0548 H   0  0  0  0  0  0  0  0  0  0  0  0
    1.6475   -1.6802   -0.7552 H   0  0  0  0  0  0  0  0  0  0  0  0
    0.0889   -0.0048   -1.8008 H   0  0  0  0  0  0  0  0  0  0  0  0
   -1.3653   -0.9965   -1.5650 H   0  0  0  0  0  0  0  0  0  0  0  0
   -2.5648    2.3433   -1.7151 H   0  0  0  0  0  0  0  0  0  0  0  0
   -2.7512    0.6752   -2.2866 H   0  0  0  0  0  0  0  0  0  0  0  0
   -1.2173    1.5892   -2.7213 H   0  0  0  0  0  0  0  0  0  0  0  0
  1  2  1  0
  2  3  3  0
  3  4  1  0
  4  5  1  0
  4  6  1  0
  4  7  1  0
  7  8  1  0
  8  9  1  0
  1 10  1  0
  1 11  1  0
  1 12  1  0
  5 13  1  0
  5 14  1  0
  5 15  1  0
  6 16  1  0
  6 17  1  0
  6 18  1  0
  7 19  1  0
  7 20  1  0
  9 21  1  0
  9 22  1  0
  9 23  1  0
M  END
