
     RDKit          3D

 18 18  0  0  0  0  0  0  0  0999 V2000
    3.4368    1.3577    0.4165 C   0  0  0  0  0  0  0  0  0  0  0  0
    2.0975    0.7805    0.2656 C   0  0  0  0  0  0  0  0  0  0  0  0
    1.0035    0.2979    0.1240 C   0  0  0  0  0  0  0  0  0  0  0  0
   -0.3669   -0.2838   -0.0488 C   0  0  0  0  0  0  0  0  0  0  0  0
   -0.4755   -1.6332    0.1240 O   0  0  0  0  0  0  0  0  0  0  0  0
   -1.7265   -2.1754   -0.0423 C   0  0  0  0  0  0  0  0  0  0  0  0
   -1.2331    0.4391   -0.9553 C   0  0  0  0  0  0  0  0  0  0  0  0
   -1.4487    0.6621    0.5113 C   0  0  0  0  0  0  0  0  0  0  0  0
    3.9141    1.3306   -0.5820 H   0  0  0  0  0  0  0  0  0  0  0  0
    4.0398    0.8156    1.1831 H   0  0  0  0  0  0  0  0  0  0  0  0
    3.3603    2.4117    0.8160 H   0  0  0  0  0  0  0  0  0  0  0  0
   -2.1589   -2.0297   -1.0519 H   0  0  0  0  0  0  0  0  0  0  0  0
   -2.4557   -1.7721    0.6989 H   0  0  0  0  0  0  0  0  0  0  0  0
   -1.6277   -3.2875    0.1716 H   0  0  0  0  0  0  0  0  0  0  0  0
   -0.9149    1.3067   -1.5705 H   0  0  0  0  0  0  0  0  0  0  0  0
   -2.0825   -0.0844   -1.4327 H   0  0  0  0  0  0  0  0  0  0  0  0
   -2.2470    0.1881    1.0716 H   0  0  0  0  0  0  0  0  0  0  0  0
   -1.1147    1.6759    0.8666 H   0  0  0  0  0  0  0  0  0  0  0  0
  1  2  1  0
  2  3  3  0
  3  4  1  0
  4  5  1  0
  5  6  1  0
  4  7  1  0
  7  8  1  0
  8  4  1  0
  1  9  1  0
  1 10  1  0
  1 11  1  0
  6 12  1  0
  6 13  1  0
  6 14  1  0
  7 15  1  0
  7 16  1  0
  8 17  1  0
  8 18  1  0
M  END
