
     RDKit          3D

 19 18  0  0  0  0  0  0  0  0999 V2000
    3.3103    0.0707    0.3554 C   0  0  0  0  0  0  0  0  0  0  0  0
    1.8916   -0.2097    0.5628 C   0  0  0  0  0  0  0  0  0  0  0  0
    1.4416   -0.2711    1.7266 O   0  0  0  0  0  0  0  0  0  0  0  0
    0.9952   -0.4190   -0.5403 C   0  0  0  0  0  0  0  0  0  0  0  0
    1.4491   -0.3060   -1.7188 O   0  0  0  0  0  0  0  0  0  0  0  0
   -0.4419   -0.7584   -0.4062 C   0  0  0  0  0  0  0  0  0  0  0  0
   -1.2414    0.3956    0.1615 C   0  0  0  0  0  0  0  0  0  0  0  0
   -2.7020    0.0111    0.2667 C   0  0  0  0  0  0  0  0  0  0  0  0
   -3.4654    1.0577    0.7982 O   0  0  0  0  0  0  0  0  0  0  0  0
    3.8085    0.4065    1.2834 H   0  0  0  0  0  0  0  0  0  0  0  0
    3.8150   -0.9075    0.1078 H   0  0  0  0  0  0  0  0  0  0  0  0
    3.5107    0.7754   -0.4767 H   0  0  0  0  0  0  0  0  0  0  0  0
   -0.8582   -1.0974   -1.3694 H   0  0  0  0  0  0  0  0  0  0  0  0
   -0.5449   -1.6051    0.3046 H   0  0  0  0  0  0  0  0  0  0  0  0
   -1.1604    1.2360   -0.5543 H   0  0  0  0  0  0  0  0  0  0  0  0
   -0.8394    0.7015    1.1527 H   0  0  0  0  0  0  0  0  0  0  0  0
   -3.0899   -0.1404   -0.7839 H   0  0  0  0  0  0  0  0  0  0  0  0
   -2.8184   -0.8885    0.9000 H   0  0  0  0  0  0  0  0  0  0  0  0
   -3.0600    1.9487    0.6386 H   0  0  0  0  0  0  0  0  0  0  0  0
  1  2  1  0
  2  3  2  0
  2  4  1  0
  4  5  2  0
  4  6  1  0
  6  7  1  0
  7  8  1  0
  8  9  1  0
  1 10  1  0
  1 11  1  0
  1 12  1  0
  6 13  1  0
  6 14  1  0
  7 15  1  0
  7 16  1  0
  8 17  1  0
  8 18  1  0
  9 19  1  0
M  END
