
     RDKit          3D

 19 20  0  0  0  0  0  0  0  0999 V2000
    2.7970   -0.2040    0.1276 C   0  0  0  0  0  0  0  0  0  0  0  0
    1.5148   -0.1348   -0.6099 C   0  0  0  0  0  0  0  0  0  0  0  0
    1.4573   -0.5775   -1.7400 O   0  0  0  0  0  0  0  0  0  0  0  0
    0.2824    0.4568   -0.0275 C   0  0  0  0  0  0  0  0  0  0  0  0
   -0.1085   -0.2798    1.2046 C   0  0  0  0  0  0  0  0  0  0  0  0
   -1.3239   -0.7968    1.1279 C   0  0  0  0  0  0  0  0  0  0  0  0
   -1.9324   -0.4753   -0.1896 C   0  0  0  0  0  0  0  0  0  0  0  0
   -2.1488    0.9583   -0.4920 C   0  0  0  0  0  0  0  0  0  0  0  0
   -0.8844    0.2460   -0.9358 C   0  0  0  0  0  0  0  0  0  0  0  0
    2.6450    0.0674    1.1945 H   0  0  0  0  0  0  0  0  0  0  0  0
    3.5587    0.4913   -0.2852 H   0  0  0  0  0  0  0  0  0  0  0  0
    3.2349   -1.2401    0.1232 H   0  0  0  0  0  0  0  0  0  0  0  0
    0.4137    1.5373    0.2019 H   0  0  0  0  0  0  0  0  0  0  0  0
    0.5063   -0.4127    2.1123 H   0  0  0  0  0  0  0  0  0  0  0  0
   -1.8495   -1.3777    1.8820 H   0  0  0  0  0  0  0  0  0  0  0  0
   -2.5587   -1.2608   -0.6815 H   0  0  0  0  0  0  0  0  0  0  0  0
   -2.7916    1.2828   -1.3297 H   0  0  0  0  0  0  0  0  0  0  0  0
   -2.0680    1.7282    0.3128 H   0  0  0  0  0  0  0  0  0  0  0  0
   -0.7443   -0.0087   -1.9957 H   0  0  0  0  0  0  0  0  0  0  0  0
  1  2  1  0
  2  3  2  0
  2  4  1  0
  4  5  1  0
  5  6  2  0
  6  7  1  0
  7  8  1  0
  8  9  1  0
  9  4  1  0
  9  7  1  0
  1 10  1  0
  1 11  1  0
  1 12  1  0
  4 13  1  0
  5 14  1  0
  6 15  1  0
  7 16  1  0
  8 17  1  0
  8 18  1  0
  9 19  1  0
M  END
