
     RDKit          3D

 21 21  0  0  0  0  0  0  0  0999 V2000
    3.1006    0.1146   -0.0942 C   0  0  0  0  0  0  0  0  0  0  0  0
    1.8734    0.9459    0.0072 C   0  0  0  0  0  0  0  0  0  0  0  0
    1.9161    2.1420   -0.2506 O   0  0  0  0  0  0  0  0  0  0  0  0
    0.5571    0.3980    0.4148 C   0  0  0  0  0  0  0  0  0  0  0  0
   -0.4128    0.4431   -0.7717 C   0  0  0  0  0  0  0  0  0  0  0  0
   -1.4761   -0.5183   -0.2831 C   0  0  0  0  0  0  0  0  0  0  0  0
   -2.6313    0.2113    0.3269 C   0  0  0  0  0  0  0  0  0  0  0  0
   -0.7169   -1.3782    0.6776 C   0  0  0  0  0  0  0  0  0  0  0  0
    0.5932   -0.9505    0.6867 O   0  0  0  0  0  0  0  0  0  0  0  0
    3.3705   -0.2131    0.9409 H   0  0  0  0  0  0  0  0  0  0  0  0
    3.9269    0.7279   -0.4695 H   0  0  0  0  0  0  0  0  0  0  0  0
    2.9823   -0.7367   -0.7895 H   0  0  0  0  0  0  0  0  0  0  0  0
    0.1225    0.9598    1.2394 H   0  0  0  0  0  0  0  0  0  0  0  0
   -0.7879    1.4646   -0.9016 H   0  0  0  0  0  0  0  0  0  0  0  0
    0.0706    0.0370   -1.6814 H   0  0  0  0  0  0  0  0  0  0  0  0
   -1.7967   -1.1201   -1.1491 H   0  0  0  0  0  0  0  0  0  0  0  0
   -3.5739   -0.2209   -0.0628 H   0  0  0  0  0  0  0  0  0  0  0  0
   -2.5990    1.2634   -0.0713 H   0  0  0  0  0  0  0  0  0  0  0  0
   -2.6433    0.2328    1.4174 H   0  0  0  0  0  0  0  0  0  0  0  0
   -1.1493   -1.3595    1.7005 H   0  0  0  0  0  0  0  0  0  0  0  0
   -0.7259   -2.4434    0.3521 H   0  0  0  0  0  0  0  0  0  0  0  0
  1  2  1  0
  2  3  2  0
  2  4  1  0
  4  5  1  0
  5  6  1  0
  6  7  1  0
  6  8  1  0
  8  9  1  0
  9  4  1  0
  1 10  1  0
  1 11  1  0
  1 12  1  0
  4 13  1  0
  5 14  1  0
  5 15  1  0
  6 16  1  0
  7 17  1  0
  7 18  1  0
  7 19  1  0
  8 20  1  0
  8 21  1  0
M  END
