
     RDKit          3D

 19 19  0  0  0  0  0  0  0  0999 V2000
   -2.5750   -0.5058    0.2749 C   0  0  0  0  0  0  0  0  0  0  0  0
   -1.4963    0.4276   -0.1305 C   0  0  0  0  0  0  0  0  0  0  0  0
   -1.7415    1.6188   -0.0407 O   0  0  0  0  0  0  0  0  0  0  0  0
   -0.1763    0.0014   -0.6239 C   0  0  0  0  0  0  0  0  0  0  0  0
    0.7310    1.1616   -0.9657 C   0  0  0  0  0  0  0  0  0  0  0  0
    1.1037    1.2044    0.4958 C   0  0  0  0  0  0  0  0  0  0  0  0
    1.5051    2.0416    1.2896 O   0  0  0  0  0  0  0  0  0  0  0  0
    0.7568   -0.2554    0.5364 C   0  0  0  0  0  0  0  0  0  0  0  0
    1.9187   -1.1558    0.2557 C   0  0  0  0  0  0  0  0  0  0  0  0
   -3.5260   -0.0830   -0.1605 H   0  0  0  0  0  0  0  0  0  0  0  0
   -2.4304   -1.5240   -0.0905 H   0  0  0  0  0  0  0  0  0  0  0  0
   -2.6843   -0.4622    1.3699 H   0  0  0  0  0  0  0  0  0  0  0  0
   -0.2049   -0.8022   -1.3951 H   0  0  0  0  0  0  0  0  0  0  0  0
    0.2173    2.0684   -1.3269 H   0  0  0  0  0  0  0  0  0  0  0  0
    1.6067    0.8977   -1.5852 H   0  0  0  0  0  0  0  0  0  0  0  0
    0.2777   -0.4896    1.4889 H   0  0  0  0  0  0  0  0  0  0  0  0
    2.7947   -0.8145    0.8697 H   0  0  0  0  0  0  0  0  0  0  0  0
    2.2399   -1.1457   -0.8092 H   0  0  0  0  0  0  0  0  0  0  0  0
    1.6831   -2.1833    0.5471 H   0  0  0  0  0  0  0  0  0  0  0  0
  1  2  1  0
  2  3  2  0
  2  4  1  0
  4  5  1  0
  5  6  1  0
  6  7  2  0
  6  8  1  0
  8  9  1  0
  8  4  1  0
  1 10  1  0
  1 11  1  0
  1 12  1  0
  4 13  1  0
  5 14  1  0
  5 15  1  0
  8 16  1  0
  9 17  1  0
  9 18  1  0
  9 19  1  0
M  END
