
     RDKit          3D

 17 18  0  0  0  0  0  0  0  0999 V2000
   -2.3699    0.1335    0.2921 C   0  0  0  0  0  0  0  0  0  0  0  0
   -0.9800   -0.3143    0.5666 C   0  0  0  0  0  0  0  0  0  0  0  0
   -0.6186   -0.4730    1.7156 O   0  0  0  0  0  0  0  0  0  0  0  0
   -0.0776   -0.5537   -0.5668 C   0  0  0  0  0  0  0  0  0  0  0  0
    1.3137   -1.0048   -0.2196 C   0  0  0  0  0  0  0  0  0  0  0  0
    1.7780   -0.0214    0.8027 C   0  0  0  0  0  0  0  0  0  0  0  0
    1.3880    1.1410    0.2288 C   0  0  0  0  0  0  0  0  0  0  0  0
    0.7447    0.6022   -1.0277 C   0  0  0  0  0  0  0  0  0  0  0  0
    1.7226   -0.3450   -1.4018 O   0  0  0  0  0  0  0  0  0  0  0  0
   -2.8654    0.5725    1.1747 H   0  0  0  0  0  0  0  0  0  0  0  0
   -2.9151   -0.7710   -0.0978 H   0  0  0  0  0  0  0  0  0  0  0  0
   -2.3379    0.9016   -0.5008 H   0  0  0  0  0  0  0  0  0  0  0  0
   -0.5102   -1.0947   -1.4217 H   0  0  0  0  0  0  0  0  0  0  0  0
    1.5417   -2.0277   -0.1084 H   0  0  0  0  0  0  0  0  0  0  0  0
    2.2859   -0.1880    1.7432 H   0  0  0  0  0  0  0  0  0  0  0  0
    1.5027    2.1562    0.5688 H   0  0  0  0  0  0  0  0  0  0  0  0
    0.3975    1.2864   -1.7479 H   0  0  0  0  0  0  0  0  0  0  0  0
  1  2  1  0
  2  3  2  0
  2  4  1  0
  4  5  1  0
  5  6  1  0
  6  7  2  0
  7  8  1  0
  8  9  1  0
  8  4  1  0
  9  5  1  0
  1 10  1  0
  1 11  1  0
  1 12  1  0
  4 13  1  0
  5 14  1  0
  6 15  1  0
  7 16  1  0
  8 17  1  0
M  END
