
     RDKit          3D

 17 16  0  0  0  0  0  0  0  0999 V2000
    2.7526    0.4415    0.1151 C   0  0  0  0  0  0  0  0  0  0  0  0
    1.3371    0.2904   -0.3372 C   0  0  0  0  0  0  0  0  0  0  0  0
    0.7857    1.1756   -0.9983 O   0  0  0  0  0  0  0  0  0  0  0  0
    0.6788   -0.8589    0.0067 O   0  0  0  0  0  0  0  0  0  0  0  0
   -0.6165   -1.1828   -0.3062 C   0  0  0  0  0  0  0  0  0  0  0  0
   -1.7107   -0.3216    0.2178 C   0  0  0  0  0  0  0  0  0  0  0  0
   -1.7057   -0.2321    1.6102 O   0  0  0  0  0  0  0  0  0  0  0  0
   -1.8373    1.0136   -0.3915 C   0  0  0  0  0  0  0  0  0  0  0  0
   -1.8883    2.0319    0.3037 O   0  0  0  0  0  0  0  0  0  0  0  0
    3.3990    0.1957   -0.7296 H   0  0  0  0  0  0  0  0  0  0  0  0
    2.9007    1.5057    0.4517 H   0  0  0  0  0  0  0  0  0  0  0  0
    2.9511   -0.2154    0.9828 H   0  0  0  0  0  0  0  0  0  0  0  0
   -0.7607   -1.2325   -1.4337 H   0  0  0  0  0  0  0  0  0  0  0  0
   -0.8278   -2.2413    0.0258 H   0  0  0  0  0  0  0  0  0  0  0  0
   -2.6749   -0.8682   -0.0619 H   0  0  0  0  0  0  0  0  0  0  0  0
   -0.8941   -0.6273    2.0137 H   0  0  0  0  0  0  0  0  0  0  0  0
   -1.8891    1.1255   -1.4692 H   0  0  0  0  0  0  0  0  0  0  0  0
  1  2  1  0
  2  3  2  0
  2  4  1  0
  4  5  1  0
  5  6  1  0
  6  7  1  0
  6  8  1  0
  8  9  2  0
  1 10  1  0
  1 11  1  0
  1 12  1  0
  5 13  1  0
  5 14  1  0
  6 15  1  0
  7 16  1  0
  8 17  1  0
M  END
