
     RDKit          3D

 18 18  0  0  0  0  0  0  0  0999 V2000
    3.1370    0.4637    0.8321 C   0  0  0  0  0  0  0  0  0  0  0  0
    1.6984    0.4853    0.4061 C   0  0  0  0  0  0  0  0  0  0  0  0
    0.8327    1.1419    1.0436 O   0  0  0  0  0  0  0  0  0  0  0  0
    1.2391   -0.2046   -0.6975 O   0  0  0  0  0  0  0  0  0  0  0  0
   -0.0852   -0.2017   -1.1130 C   0  0  0  0  0  0  0  0  0  0  0  0
   -1.0567   -0.7358   -0.0913 C   0  0  0  0  0  0  0  0  0  0  0  0
   -2.5009   -0.7223   -0.5701 C   0  0  0  0  0  0  0  0  0  0  0  0
   -2.0497    0.2401    0.4974 C   0  0  0  0  0  0  0  0  0  0  0  0
    3.4319   -0.5419    1.1749 H   0  0  0  0  0  0  0  0  0  0  0  0
    3.7885    0.7340   -0.0287 H   0  0  0  0  0  0  0  0  0  0  0  0
    3.2645    1.2527    1.5846 H   0  0  0  0  0  0  0  0  0  0  0  0
   -0.1590   -0.8902   -2.0052 H   0  0  0  0  0  0  0  0  0  0  0  0
   -0.4648    0.7773   -1.4528 H   0  0  0  0  0  0  0  0  0  0  0  0
   -0.7333   -1.5472    0.5693 H   0  0  0  0  0  0  0  0  0  0  0  0
   -3.1627   -1.5754   -0.2681 H   0  0  0  0  0  0  0  0  0  0  0  0
   -2.7263   -0.3547   -1.5896 H   0  0  0  0  0  0  0  0  0  0  0  0
   -2.4127    0.0509    1.5395 H   0  0  0  0  0  0  0  0  0  0  0  0
   -2.0407    1.2972    0.1690 H   0  0  0  0  0  0  0  0  0  0  0  0
  1  2  1  0
  2  3  2  0
  2  4  1  0
  4  5  1  0
  5  6  1  0
  6  7  1  0
  7  8  1  0
  8  6  1  0
  1  9  1  0
  1 10  1  0
  1 11  1  0
  5 12  1  0
  5 13  1  0
  6 14  1  0
  7 15  1  0
  7 16  1  0
  8 17  1  0
  8 18  1  0
M  END
