
     RDKit          3D

 21 22  0  0  0  0  0  0  0  0999 V2000
   -3.3906    0.0060    0.5378 C   0  0  0  0  0  0  0  0  0  0  0  0
   -1.9298   -0.1388    0.7456 C   0  0  0  0  0  0  0  0  0  0  0  0
   -1.5349   -0.2780    1.8909 O   0  0  0  0  0  0  0  0  0  0  0  0
   -0.9993   -0.1120   -0.4165 C   0  0  0  0  0  0  0  0  0  0  0  0
    0.1035   -1.0235   -0.5197 C   0  0  0  0  0  0  0  0  0  0  0  0
    1.5323   -0.7335   -0.9908 C   0  0  0  0  0  0  0  0  0  0  0  0
    1.5316   -0.0623    0.4037 C   0  0  0  0  0  0  0  0  0  0  0  0
    2.6427    0.9222    0.5039 C   0  0  0  0  0  0  0  0  0  0  0  0
    0.2560    0.5279   -0.2022 C   0  0  0  0  0  0  0  0  0  0  0  0
   -3.7279    0.8971    1.1233 H   0  0  0  0  0  0  0  0  0  0  0  0
   -3.9557   -0.9046    0.8524 H   0  0  0  0  0  0  0  0  0  0  0  0
   -3.6552    0.1816   -0.5247 H   0  0  0  0  0  0  0  0  0  0  0  0
   -1.5629    0.0258   -1.3887 H   0  0  0  0  0  0  0  0  0  0  0  0
    0.2101   -1.6750    0.4058 H   0  0  0  0  0  0  0  0  0  0  0  0
    2.1240   -1.6389   -1.0560 H   0  0  0  0  0  0  0  0  0  0  0  0
    1.6145   -0.0024   -1.8002 H   0  0  0  0  0  0  0  0  0  0  0  0
    1.3835   -0.7717    1.2102 H   0  0  0  0  0  0  0  0  0  0  0  0
    3.6489    0.4566    0.4997 H   0  0  0  0  0  0  0  0  0  0  0  0
    2.6091    1.5658   -0.4102 H   0  0  0  0  0  0  0  0  0  0  0  0
    2.4944    1.6221    1.3590 H   0  0  0  0  0  0  0  0  0  0  0  0
    0.6056    1.1356   -1.0964 H   0  0  0  0  0  0  0  0  0  0  0  0
  1  2  1  0
  2  3  2  0
  2  4  1  0
  4  5  1  0
  5  6  1  0
  6  7  1  0
  7  8  1  0
  7  9  1  0
  9  4  1  0
  9  5  1  0
  1 10  1  0
  1 11  1  0
  1 12  1  0
  4 13  1  0
  5 14  1  0
  6 15  1  0
  6 16  1  0
  7 17  1  0
  8 18  1  0
  8 19  1  0
  8 20  1  0
  9 21  1  0
M  END
