
     RDKit          3D

 19 20  0  0  0  0  0  0  0  0999 V2000
   -2.9499    0.1136    0.3373 C   0  0  0  0  0  0  0  0  0  0  0  0
   -1.4672    0.2022    0.3540 C   0  0  0  0  0  0  0  0  0  0  0  0
   -0.9609    0.8971    1.2165 O   0  0  0  0  0  0  0  0  0  0  0  0
   -0.5788   -0.4965   -0.6049 C   0  0  0  0  0  0  0  0  0  0  0  0
    0.7644   -0.2548   -0.3813 C   0  0  0  0  0  0  0  0  0  0  0  0
    1.5530   -0.5494    0.8356 C   0  0  0  0  0  0  0  0  0  0  0  0
    2.5031   -0.0535   -0.2048 C   0  0  0  0  0  0  0  0  0  0  0  0
    1.5029    1.0094   -0.5368 C   0  0  0  0  0  0  0  0  0  0  0  0
    1.8119   -0.8637   -1.0978 O   0  0  0  0  0  0  0  0  0  0  0  0
   -3.4329    1.0806    0.0850 H   0  0  0  0  0  0  0  0  0  0  0  0
   -3.2571   -0.2402    1.3480 H   0  0  0  0  0  0  0  0  0  0  0  0
   -3.2524   -0.6472   -0.4139 H   0  0  0  0  0  0  0  0  0  0  0  0
   -0.8892   -0.2344   -1.6482 H   0  0  0  0  0  0  0  0  0  0  0  0
   -0.8309   -1.5918   -0.5207 H   0  0  0  0  0  0  0  0  0  0  0  0
    1.3968    0.0614    1.7242 H   0  0  0  0  0  0  0  0  0  0  0  0
    1.6362   -1.6412    1.0043 H   0  0  0  0  0  0  0  0  0  0  0  0
    3.5032    0.0471   -0.1308 H   0  0  0  0  0  0  0  0  0  0  0  0
    1.3432    1.7957    0.2220 H   0  0  0  0  0  0  0  0  0  0  0  0
    1.6046    1.3658   -1.5876 H   0  0  0  0  0  0  0  0  0  0  0  0
  1  2  1  0
  2  3  2  0
  2  4  1  0
  4  5  1  0
  5  6  1  0
  6  7  1  0
  7  8  1  0
  7  9  1  0
  8  5  1  0
  9  5  1  0
  1 10  1  0
  1 11  1  0
  1 12  1  0
  4 13  1  0
  4 14  1  0
  6 15  1  0
  6 16  1  0
  7 17  1  0
  8 18  1  0
  8 19  1  0
M  END
