
     RDKit          3D

 19 19  0  0  0  0  0  0  0  0999 V2000
    2.5686   -0.4985   -0.8240 C   0  0  0  0  0  0  0  0  0  0  0  0
    1.7881    0.2883    0.1672 C   0  0  0  0  0  0  0  0  0  0  0  0
    2.2426    0.3925    1.2915 O   0  0  0  0  0  0  0  0  0  0  0  0
    0.4953    0.9469   -0.1412 C   0  0  0  0  0  0  0  0  0  0  0  0
   -0.6776    0.1687    0.4200 C   0  0  0  0  0  0  0  0  0  0  0  0
   -2.0648    0.7328    0.1770 C   0  0  0  0  0  0  0  0  0  0  0  0
   -3.0284   -0.2949    0.2402 O   0  0  0  0  0  0  0  0  0  0  0  0
   -0.5878   -1.3287    0.4310 C   0  0  0  0  0  0  0  0  0  0  0  0
   -0.4957   -0.4499    1.6439 O   0  0  0  0  0  0  0  0  0  0  0  0
    3.0881    0.1959   -1.5222 H   0  0  0  0  0  0  0  0  0  0  0  0
    3.3640   -1.0709   -0.3109 H   0  0  0  0  0  0  0  0  0  0  0  0
    1.9518   -1.2452   -1.3628 H   0  0  0  0  0  0  0  0  0  0  0  0
    0.4274    1.9652    0.3302 H   0  0  0  0  0  0  0  0  0  0  0  0
    0.3668    1.0928   -1.2328 H   0  0  0  0  0  0  0  0  0  0  0  0
   -2.3209    1.5188    0.9209 H   0  0  0  0  0  0  0  0  0  0  0  0
   -2.0362    1.2050   -0.8214 H   0  0  0  0  0  0  0  0  0  0  0  0
   -3.9027    0.1438    0.0276 H   0  0  0  0  0  0  0  0  0  0  0  0
   -1.5420   -1.9031    0.4851 H   0  0  0  0  0  0  0  0  0  0  0  0
    0.3635   -1.8595    0.3228 H   0  0  0  0  0  0  0  0  0  0  0  0
  1  2  1  0
  2  3  2  0
  2  4  1  0
  4  5  1  0
  5  6  1  0
  6  7  1  0
  5  8  1  0
  8  9  1  0
  9  5  1  0
  1 10  1  0
  1 11  1  0
  1 12  1  0
  4 13  1  0
  4 14  1  0
  6 15  1  0
  6 16  1  0
  7 17  1  0
  8 18  1  0
  8 19  1  0
M  END
