
     RDKit          3D

 17 18  0  0  0  0  0  0  0  0999 V2000
    2.0713    0.5178   -0.3427 C   0  0  0  0  0  0  0  0  0  0  0  0
    0.7613    0.8817    0.2400 C   0  0  0  0  0  0  0  0  0  0  0  0
    0.4822    2.0504    0.3158 O   0  0  0  0  0  0  0  0  0  0  0  0
   -0.1268   -0.2059    0.6946 C   0  0  0  0  0  0  0  0  0  0  0  0
    0.2174   -1.5214    0.2711 C   0  0  0  0  0  0  0  0  0  0  0  0
   -0.9056   -1.0323   -0.4124 C   0  0  0  0  0  0  0  0  0  0  0  0
   -1.2321    0.1376   -1.0519 O   0  0  0  0  0  0  0  0  0  0  0  0
   -1.8765    0.8035    0.0279 C   0  0  0  0  0  0  0  0  0  0  0  0
   -1.2866    0.3127    1.2002 O   0  0  0  0  0  0  0  0  0  0  0  0
    2.6434   -0.2003    0.3006 H   0  0  0  0  0  0  0  0  0  0  0  0
    2.7122    1.4025   -0.5247 H   0  0  0  0  0  0  0  0  0  0  0  0
    1.8739   -0.0444   -1.2959 H   0  0  0  0  0  0  0  0  0  0  0  0
    1.1703   -1.6757   -0.2934 H   0  0  0  0  0  0  0  0  0  0  0  0
    0.1245   -2.3310    1.0453 H   0  0  0  0  0  0  0  0  0  0  0  0
   -1.8833   -1.4998   -0.0746 H   0  0  0  0  0  0  0  0  0  0  0  0
   -2.9491    0.5060   -0.0275 H   0  0  0  0  0  0  0  0  0  0  0  0
   -1.7966    1.8984   -0.0724 H   0  0  0  0  0  0  0  0  0  0  0  0
  1  2  1  0
  2  3  2  0
  2  4  1  0
  4  5  1  0
  5  6  1  0
  6  7  1  0
  7  8  1  0
  8  9  1  0
  6  4  1  0
  9  4  1  0
  1 10  1  0
  1 11  1  0
  1 12  1  0
  5 13  1  0
  5 14  1  0
  6 15  1  0
  8 16  1  0
  8 17  1  0
M  END
