
     RDKit          3D

 19 19  0  0  0  0  0  0  0  0999 V2000
    3.3133   -0.5270    0.4954 C   0  0  0  0  0  0  0  0  0  0  0  0
    2.1480    0.0296    1.5931 C   0  0  0  0  0  0  0  0  0  0  0  0
    2.7021   -0.0784    2.5634 O   0  0  0  0  0  0  0  0  0  0  0  0
    1.0512    0.3600    0.7996 C   0  0  0  0  0  0  0  0  0  0  0  0
    0.0765    0.6756    0.0968 C   0  0  0  0  0  0  0  0  0  0  0  0
   -1.0478    1.0185   -0.7263 C   0  0  0  0  0  0  0  0  0  0  0  0
   -1.2813    0.0789   -1.9208 C   0  0  0  0  0  0  0  0  0  0  0  0
   -1.9142   -0.8608   -0.8504 C   0  0  0  0  0  0  0  0  0  0  0  0
   -2.3710    0.4708   -0.1796 C   0  0  0  0  0  0  0  0  0  0  0  0
    4.1574    0.0661    0.6960 H   0  0  0  0  0  0  0  0  0  0  0  0
    3.2931   -1.5649    0.7996 H   0  0  0  0  0  0  0  0  0  0  0  0
    2.8758   -0.3771   -0.4544 H   0  0  0  0  0  0  0  0  0  0  0  0
   -1.2035    2.0710   -0.9420 H   0  0  0  0  0  0  0  0  0  0  0  0
   -0.3651   -0.2763   -2.3416 H   0  0  0  0  0  0  0  0  0  0  0  0
   -2.0813    0.5246   -2.5463 H   0  0  0  0  0  0  0  0  0  0  0  0
   -1.0344   -1.2704   -0.2820 H   0  0  0  0  0  0  0  0  0  0  0  0
   -2.6492   -1.5448   -1.1617 H   0  0  0  0  0  0  0  0  0  0  0  0
   -2.4201    0.2748    0.8961 H   0  0  0  0  0  0  0  0  0  0  0  0
   -3.2494    0.9298   -0.6229 H   0  0  0  0  0  0  0  0  0  0  0  0
  1  2  1  0
  2  3  2  0
  2  4  1  0
  4  5  3  0
  5  6  1  0
  6  7  1  0
  7  8  1  0
  8  9  1  0
  9  6  1  0
  1 10  1  0
  1 11  1  0
  1 12  1  0
  6 13  1  0
  7 14  1  0
  7 15  1  0
  8 16  1  0
  8 17  1  0
  9 18  1  0
  9 19  1  0
M  END
