
     RDKit          3D

 17 16  0  0  0  0  0  0  0  0999 V2000
    3.2455   -0.7995   -0.5211 C   0  0  0  0  0  0  0  0  0  0  0  0
    1.9423   -0.4315    0.0837 C   0  0  0  0  0  0  0  0  0  0  0  0
    1.9537    0.2018    1.1128 O   0  0  0  0  0  0  0  0  0  0  0  0
    0.6734   -0.8373   -0.5691 C   0  0  0  0  0  0  0  0  0  0  0  0
   -0.4874   -0.3672    0.1959 C   0  0  0  0  0  0  0  0  0  0  0  0
   -1.4218    0.0321    0.8097 C   0  0  0  0  0  0  0  0  0  0  0  0
   -2.5749    0.5506    1.5852 C   0  0  0  0  0  0  0  0  0  0  0  0
   -3.1187    1.7582    0.9060 C   0  0  0  0  0  0  0  0  0  0  0  0
   -2.5484    2.8442    0.9991 O   0  0  0  0  0  0  0  0  0  0  0  0
    3.0726   -1.4895   -1.3933 H   0  0  0  0  0  0  0  0  0  0  0  0
    3.8348    0.0641   -0.8561 H   0  0  0  0  0  0  0  0  0  0  0  0
    3.8068   -1.4367    0.2204 H   0  0  0  0  0  0  0  0  0  0  0  0
    0.6584   -0.5038   -1.6177 H   0  0  0  0  0  0  0  0  0  0  0  0
    0.5807   -1.9633   -0.5768 H   0  0  0  0  0  0  0  0  0  0  0  0
   -3.3734   -0.2176    1.6592 H   0  0  0  0  0  0  0  0  0  0  0  0
   -2.2230    0.8536    2.6002 H   0  0  0  0  0  0  0  0  0  0  0  0
   -4.0206    1.7417    0.3111 H   0  0  0  0  0  0  0  0  0  0  0  0
  1  2  1  0
  2  3  2  0
  2  4  1  0
  4  5  1  0
  5  6  3  0
  6  7  1  0
  7  8  1  0
  8  9  2  0
  1 10  1  0
  1 11  1  0
  1 12  1  0
  4 13  1  0
  4 14  1  0
  7 15  1  0
  7 16  1  0
  8 17  1  0
M  END
