
     RDKit          3D

 23 22  0  0  0  0  0  0  0  0999 V2000
   -2.1700   -0.7562   -1.1837 C   0  0  0  0  0  0  0  0  0  0  0  0
   -1.6668   -0.0009   -0.0082 C   0  0  0  0  0  0  0  0  0  0  0  0
   -2.4982    0.2468    0.8498 O   0  0  0  0  0  0  0  0  0  0  0  0
   -0.3269    0.4657    0.2298 C   0  0  0  0  0  0  0  0  0  0  0  0
   -0.0670    1.5296   -0.8611 C   0  0  0  0  0  0  0  0  0  0  0  0
   -0.2580    1.1347    1.4495 O   0  0  0  0  0  0  0  0  0  0  0  0
    0.8055   -0.4733    0.1565 C   0  0  0  0  0  0  0  0  0  0  0  0
    2.0647    0.3227    0.4537 C   0  0  0  0  0  0  0  0  0  0  0  0
    0.7830   -1.6680    1.0216 C   0  0  0  0  0  0  0  0  0  0  0  0
   -2.3855   -1.8146   -0.9639 H   0  0  0  0  0  0  0  0  0  0  0  0
   -3.1607   -0.3078   -1.4758 H   0  0  0  0  0  0  0  0  0  0  0  0
   -1.5389   -0.6116   -2.0836 H   0  0  0  0  0  0  0  0  0  0  0  0
    0.8161    2.1221   -0.6457 H   0  0  0  0  0  0  0  0  0  0  0  0
   -0.9887    2.1360   -0.9445 H   0  0  0  0  0  0  0  0  0  0  0  0
    0.0901    0.9822   -1.8135 H   0  0  0  0  0  0  0  0  0  0  0  0
   -0.0923    2.0992    1.3533 H   0  0  0  0  0  0  0  0  0  0  0  0
    0.9235   -0.8210   -0.9117 H   0  0  0  0  0  0  0  0  0  0  0  0
    2.4176    0.8736   -0.4521 H   0  0  0  0  0  0  0  0  0  0  0  0
    1.9231    1.0152    1.3071 H   0  0  0  0  0  0  0  0  0  0  0  0
    2.8340   -0.4088    0.7731 H   0  0  0  0  0  0  0  0  0  0  0  0
    0.4820   -2.5813    0.4354 H   0  0  0  0  0  0  0  0  0  0  0  0
    1.8198   -1.9179    1.3614 H   0  0  0  0  0  0  0  0  0  0  0  0
    0.1934   -1.5664    1.9525 H   0  0  0  0  0  0  0  0  0  0  0  0
  1  2  1  0
  2  3  2  0
  2  4  1  0
  4  5  1  0
  4  6  1  0
  4  7  1  0
  7  8  1  0
  7  9  1  0
  1 10  1  0
  1 11  1  0
  1 12  1  0
  5 13  1  0
  5 14  1  0
  5 15  1  0
  6 16  1  0
  7 17  1  0
  8 18  1  0
  8 19  1  0
  8 20  1  0
  9 21  1  0
  9 22  1  0
  9 23  1  0
M  END
