
     RDKit          3D

 20 20  0  0  0  0  0  0  0  0999 V2000
    2.9091   -0.1500    0.1727 C   0  0  0  0  0  0  0  0  0  0  0  0
    1.6201   -0.7954   -0.1051 C   0  0  0  0  0  0  0  0  0  0  0  0
    1.5141   -1.9878   -0.0912 O   0  0  0  0  0  0  0  0  0  0  0  0
    0.4466    0.0359   -0.4037 C   0  0  0  0  0  0  0  0  0  0  0  0
   -0.8385   -0.7046   -0.6776 C   0  0  0  0  0  0  0  0  0  0  0  0
   -1.3590   -0.2414    0.6673 C   0  0  0  0  0  0  0  0  0  0  0  0
   -2.5823    0.6435    0.5994 C   0  0  0  0  0  0  0  0  0  0  0  0
   -0.1280    0.5931    0.8952 C   0  0  0  0  0  0  0  0  0  0  0  0
    2.9925    0.8593   -0.3235 H   0  0  0  0  0  0  0  0  0  0  0  0
    3.7906   -0.7186   -0.1836 H   0  0  0  0  0  0  0  0  0  0  0  0
    2.9916    0.0487    1.2803 H   0  0  0  0  0  0  0  0  0  0  0  0
    0.7087    0.8182   -1.1393 H   0  0  0  0  0  0  0  0  0  0  0  0
   -0.7570   -1.7880   -0.8095 H   0  0  0  0  0  0  0  0  0  0  0  0
   -1.3853   -0.1928   -1.5097 H   0  0  0  0  0  0  0  0  0  0  0  0
   -1.5048   -1.0460    1.4178 H   0  0  0  0  0  0  0  0  0  0  0  0
   -2.3953    1.5187    1.2805 H   0  0  0  0  0  0  0  0  0  0  0  0
   -3.4971    0.1419    0.9745 H   0  0  0  0  0  0  0  0  0  0  0  0
   -2.6721    1.0034   -0.4388 H   0  0  0  0  0  0  0  0  0  0  0  0
    0.4040    0.2838    1.8094 H   0  0  0  0  0  0  0  0  0  0  0  0
   -0.2580    1.6779    0.8154 H   0  0  0  0  0  0  0  0  0  0  0  0
  1  2  1  0
  2  3  2  0
  2  4  1  0
  4  5  1  0
  5  6  1  0
  6  7  1  0
  6  8  1  0
  8  4  1  0
  1  9  1  0
  1 10  1  0
  1 11  1  0
  4 12  1  0
  5 13  1  0
  5 14  1  0
  6 15  1  0
  7 16  1  0
  7 17  1  0
  7 18  1  0
  8 19  1  0
  8 20  1  0
M  END
