
     RDKit          3D

 19 19  0  0  0  0  0  0  0  0999 V2000
   -2.5007    0.9471    0.0444 C   0  0  0  0  0  0  0  0  0  0  0  0
   -1.9378   -0.4135    0.0979 C   0  0  0  0  0  0  0  0  0  0  0  0
   -2.6918   -1.3664    0.0070 O   0  0  0  0  0  0  0  0  0  0  0  0
   -0.5067   -0.6857    0.2559 C   0  0  0  0  0  0  0  0  0  0  0  0
    0.0986   -1.3035   -1.0126 C   0  0  0  0  0  0  0  0  0  0  0  0
    1.2922   -0.5997   -1.2197 O   0  0  0  0  0  0  0  0  0  0  0  0
    1.5204   -0.0488    0.0191 C   0  0  0  0  0  0  0  0  0  0  0  0
    2.5950    0.9902    0.0473 C   0  0  0  0  0  0  0  0  0  0  0  0
    0.2628    0.4751    0.3500 O   0  0  0  0  0  0  0  0  0  0  0  0
   -2.6173    1.3900    1.0602 H   0  0  0  0  0  0  0  0  0  0  0  0
   -3.5013    0.9830   -0.4388 H   0  0  0  0  0  0  0  0  0  0  0  0
   -1.8363    1.5664   -0.6033 H   0  0  0  0  0  0  0  0  0  0  0  0
   -0.2604   -1.2899    1.1530 H   0  0  0  0  0  0  0  0  0  0  0  0
   -0.6223   -1.1261   -1.8328 H   0  0  0  0  0  0  0  0  0  0  0  0
    0.2982   -2.3593   -0.8115 H   0  0  0  0  0  0  0  0  0  0  0  0
    1.7497   -0.8344    0.7495 H   0  0  0  0  0  0  0  0  0  0  0  0
    2.2648    1.9758   -0.3414 H   0  0  0  0  0  0  0  0  0  0  0  0
    2.9355    1.0769    1.1180 H   0  0  0  0  0  0  0  0  0  0  0  0
    3.4574    0.6228   -0.5225 H   0  0  0  0  0  0  0  0  0  0  0  0
  1  2  1  0
  2  3  2  0
  2  4  1  0
  4  5  1  0
  5  6  1  0
  6  7  1  0
  7  8  1  0
  7  9  1  0
  9  4  1  0
  1 10  1  0
  1 11  1  0
  1 12  1  0
  4 13  1  0
  5 14  1  0
  5 15  1  0
  7 16  1  0
  8 17  1  0
  8 18  1  0
  8 19  1  0
M  END
