
     RDKit          3D

 17 17  0  0  0  0  0  0  0  0999 V2000
    2.0381    0.6370   -0.2062 C   0  0  0  0  0  0  0  0  0  0  0  0
    0.6821    0.6497   -0.7807 C   0  0  0  0  0  0  0  0  0  0  0  0
    0.4370    1.3492   -1.7276 O   0  0  0  0  0  0  0  0  0  0  0  0
   -0.3637   -0.1990   -0.1857 C   0  0  0  0  0  0  0  0  0  0  0  0
    0.0169   -1.6764   -0.0753 C   0  0  0  0  0  0  0  0  0  0  0  0
   -1.6085   -0.1107   -0.8057 O   0  0  0  0  0  0  0  0  0  0  0  0
   -2.1084    0.6483    0.2528 C   0  0  0  0  0  0  0  0  0  0  0  0
   -0.8895    0.3728    1.0647 C   0  0  0  0  0  0  0  0  0  0  0  0
   -0.6039    0.5803    2.2162 O   0  0  0  0  0  0  0  0  0  0  0  0
    2.3533   -0.3734    0.1525 H   0  0  0  0  0  0  0  0  0  0  0  0
    2.1447    1.3310    0.6624 H   0  0  0  0  0  0  0  0  0  0  0  0
    2.7750    0.9917   -0.9590 H   0  0  0  0  0  0  0  0  0  0  0  0
    0.7299   -1.8550    0.7509 H   0  0  0  0  0  0  0  0  0  0  0  0
   -0.8905   -2.2990   -0.0270 H   0  0  0  0  0  0  0  0  0  0  0  0
    0.5092   -1.9295   -1.0504 H   0  0  0  0  0  0  0  0  0  0  0  0
   -2.9867    0.1911    0.7722 H   0  0  0  0  0  0  0  0  0  0  0  0
   -2.2348    1.6920   -0.0541 H   0  0  0  0  0  0  0  0  0  0  0  0
  1  2  1  0
  2  3  2  0
  2  4  1  0
  4  5  1  0
  4  6  1  0
  6  7  1  0
  7  8  1  0
  8  9  2  0
  8  4  1  0
  1 10  1  0
  1 11  1  0
  1 12  1  0
  5 13  1  0
  5 14  1  0
  5 15  1  0
  7 16  1  0
  7 17  1  0
M  END
