
     RDKit          3D

 21 21  0  0  0  0  0  0  0  0999 V2000
    2.7162    0.6905    0.4347 C   0  0  0  0  0  0  0  0  0  0  0  0
    1.7156   -0.3811    0.1723 C   0  0  0  0  0  0  0  0  0  0  0  0
    2.1466   -1.4342   -0.2568 O   0  0  0  0  0  0  0  0  0  0  0  0
    0.2792   -0.2426    0.3959 C   0  0  0  0  0  0  0  0  0  0  0  0
   -0.4402   -1.5102    0.0295 C   0  0  0  0  0  0  0  0  0  0  0  0
   -1.8866   -1.0359   -0.0094 C   0  0  0  0  0  0  0  0  0  0  0  0
   -1.7931    0.3316   -0.6255 C   0  0  0  0  0  0  0  0  0  0  0  0
   -0.3744    0.8027   -0.4664 C   0  0  0  0  0  0  0  0  0  0  0  0
   -0.4065    1.9907    0.2874 O   0  0  0  0  0  0  0  0  0  0  0  0
    2.2752    1.6964    0.4789 H   0  0  0  0  0  0  0  0  0  0  0  0
    3.1476    0.4958    1.4484 H   0  0  0  0  0  0  0  0  0  0  0  0
    3.5287    0.6311   -0.3424 H   0  0  0  0  0  0  0  0  0  0  0  0
    0.1155   -0.0253    1.4740 H   0  0  0  0  0  0  0  0  0  0  0  0
   -0.1851   -1.8246   -0.9999 H   0  0  0  0  0  0  0  0  0  0  0  0
   -0.2782   -2.2861    0.7899 H   0  0  0  0  0  0  0  0  0  0  0  0
   -2.3189   -0.9867    1.0312 H   0  0  0  0  0  0  0  0  0  0  0  0
   -2.5272   -1.7172   -0.6091 H   0  0  0  0  0  0  0  0  0  0  0  0
   -2.5206    0.9982   -0.0957 H   0  0  0  0  0  0  0  0  0  0  0  0
   -2.1047    0.3499   -1.6959 H   0  0  0  0  0  0  0  0  0  0  0  0
    0.1427    0.9904   -1.4060 H   0  0  0  0  0  0  0  0  0  0  0  0
   -1.2317    2.4664   -0.0351 H   0  0  0  0  0  0  0  0  0  0  0  0
  1  2  1  0
  2  3  2  0
  2  4  1  0
  4  5  1  0
  5  6  1  0
  6  7  1  0
  7  8  1  0
  8  9  1  0
  8  4  1  0
  1 10  1  0
  1 11  1  0
  1 12  1  0
  4 13  1  0
  5 14  1  0
  5 15  1  0
  6 16  1  0
  6 17  1  0
  7 18  1  0
  7 19  1  0
  8 20  1  0
  9 21  1  0
M  END
