
     RDKit          3D

 19 18  0  0  0  0  0  0  0  0999 V2000
   -3.4744    0.2101   -0.1747 C   0  0  0  0  0  0  0  0  0  0  0  0
   -2.1066   -0.1564    0.2792 C   0  0  0  0  0  0  0  0  0  0  0  0
   -2.0133   -0.8552    1.2684 O   0  0  0  0  0  0  0  0  0  0  0  0
   -0.8914    0.3038   -0.4353 C   0  0  0  0  0  0  0  0  0  0  0  0
    0.3239   -0.2384    0.2757 C   0  0  0  0  0  0  0  0  0  0  0  0
    1.5885    0.1771   -0.3783 C   0  0  0  0  0  0  0  0  0  0  0  0
    1.6522    0.8701   -1.3674 O   0  0  0  0  0  0  0  0  0  0  0  0
    2.8618   -0.2927    0.2268 C   0  0  0  0  0  0  0  0  0  0  0  0
    3.9751    0.1641   -0.4781 O   0  0  0  0  0  0  0  0  0  0  0  0
   -4.0773    0.3954    0.7457 H   0  0  0  0  0  0  0  0  0  0  0  0
   -3.8815   -0.6554   -0.7311 H   0  0  0  0  0  0  0  0  0  0  0  0
   -3.4642    1.1426   -0.7756 H   0  0  0  0  0  0  0  0  0  0  0  0
   -0.8635    1.4248   -0.2960 H   0  0  0  0  0  0  0  0  0  0  0  0
   -0.8927    0.1009   -1.5058 H   0  0  0  0  0  0  0  0  0  0  0  0
    0.3697    0.1218    1.3207 H   0  0  0  0  0  0  0  0  0  0  0  0
    0.3170   -1.3474    0.3125 H   0  0  0  0  0  0  0  0  0  0  0  0
    2.9093    0.0202    1.3045 H   0  0  0  0  0  0  0  0  0  0  0  0
    2.9367   -1.4055    0.2407 H   0  0  0  0  0  0  0  0  0  0  0  0
    4.7306    0.1489    0.1681 H   0  0  0  0  0  0  0  0  0  0  0  0
  1  2  1  0
  2  3  2  0
  2  4  1  0
  4  5  1  0
  5  6  1  0
  6  7  2  0
  6  8  1  0
  8  9  1  0
  1 10  1  0
  1 11  1  0
  1 12  1  0
  4 13  1  0
  4 14  1  0
  5 15  1  0
  5 16  1  0
  8 17  1  0
  8 18  1  0
  9 19  1  0
M  END
