
     RDKit          3D

 21 21  0  0  0  0  0  0  0  0999 V2000
    3.0560    0.2261    0.0348 C   0  0  0  0  0  0  0  0  0  0  0  0
    1.7357   -0.4598   -0.0687 C   0  0  0  0  0  0  0  0  0  0  0  0
    1.6856   -1.6207    0.2497 O   0  0  0  0  0  0  0  0  0  0  0  0
    0.5891    0.3384   -0.5544 C   0  0  0  0  0  0  0  0  0  0  0  0
   -0.6886   -0.4260   -0.6259 C   0  0  0  0  0  0  0  0  0  0  0  0
   -0.6671   -1.5286   -1.4632 O   0  0  0  0  0  0  0  0  0  0  0  0
   -1.3699   -0.7342    0.6674 C   0  0  0  0  0  0  0  0  0  0  0  0
   -2.0533    0.6101    0.5781 C   0  0  0  0  0  0  0  0  0  0  0  0
   -1.8418    0.5432   -0.9219 C   0  0  0  0  0  0  0  0  0  0  0  0
    3.4246    0.2606    1.0749 H   0  0  0  0  0  0  0  0  0  0  0  0
    3.0210    1.2732   -0.3284 H   0  0  0  0  0  0  0  0  0  0  0  0
    3.8028   -0.2888   -0.6378 H   0  0  0  0  0  0  0  0  0  0  0  0
    0.4660    1.2230    0.0839 H   0  0  0  0  0  0  0  0  0  0  0  0
    0.8399    0.6953   -1.5722 H   0  0  0  0  0  0  0  0  0  0  0  0
   -0.3603   -1.2887   -2.3552 H   0  0  0  0  0  0  0  0  0  0  0  0
   -0.7417   -0.8998    1.5488 H   0  0  0  0  0  0  0  0  0  0  0  0
   -2.1290   -1.5377    0.5336 H   0  0  0  0  0  0  0  0  0  0  0  0
   -3.1372    0.6006    0.8385 H   0  0  0  0  0  0  0  0  0  0  0  0
   -1.4578    1.3869    1.0794 H   0  0  0  0  0  0  0  0  0  0  0  0
   -1.5057    1.5227   -1.3243 H   0  0  0  0  0  0  0  0  0  0  0  0
   -2.6682    0.1041   -1.4883 H   0  0  0  0  0  0  0  0  0  0  0  0
  1  2  1  0
  2  3  2  0
  2  4  1  0
  4  5  1  0
  5  6  1  0
  5  7  1  0
  7  8  1  0
  8  9  1  0
  9  5  1  0
  1 10  1  0
  1 11  1  0
  1 12  1  0
  4 13  1  0
  4 14  1  0
  6 15  1  0
  7 16  1  0
  7 17  1  0
  8 18  1  0
  8 19  1  0
  9 20  1  0
  9 21  1  0
M  END
