
     RDKit          3D

 19 20  0  0  0  0  0  0  0  0999 V2000
    2.1870    0.6135   -0.3149 C   0  0  0  0  0  0  0  0  0  0  0  0
    1.4334    0.1077    0.8439 C   0  0  0  0  0  0  0  0  0  0  0  0
    2.0040    0.1330    1.9390 O   0  0  0  0  0  0  0  0  0  0  0  0
    0.0727   -0.4216    0.8195 C   0  0  0  0  0  0  0  0  0  0  0  0
   -0.2293   -1.6028   -0.0089 C   0  0  0  0  0  0  0  0  0  0  0  0
   -1.6724   -1.1606    0.0449 C   0  0  0  0  0  0  0  0  0  0  0  0
   -0.8302    0.0284   -0.2827 C   0  0  0  0  0  0  0  0  0  0  0  0
   -1.2620    1.3154   -0.5369 C   0  0  0  0  0  0  0  0  0  0  0  0
   -0.1049   -0.7960   -1.1283 O   0  0  0  0  0  0  0  0  0  0  0  0
    2.7303    1.5366    0.0462 H   0  0  0  0  0  0  0  0  0  0  0  0
    1.5898    0.8096   -1.2067 H   0  0  0  0  0  0  0  0  0  0  0  0
    3.0225   -0.1235   -0.5013 H   0  0  0  0  0  0  0  0  0  0  0  0
   -0.4424   -0.4280    1.7971 H   0  0  0  0  0  0  0  0  0  0  0  0
    0.0909   -2.5542    0.0856 H   0  0  0  0  0  0  0  0  0  0  0  0
   -2.0888   -1.0747    1.0633 H   0  0  0  0  0  0  0  0  0  0  0  0
   -2.3007   -1.5722   -0.7368 H   0  0  0  0  0  0  0  0  0  0  0  0
   -1.0900    1.6274   -1.6092 H   0  0  0  0  0  0  0  0  0  0  0  0
   -2.3515    1.4660   -0.3786 H   0  0  0  0  0  0  0  0  0  0  0  0
   -0.7584    2.0963    0.0648 H   0  0  0  0  0  0  0  0  0  0  0  0
  1  2  1  0
  2  3  2  0
  2  4  1  0
  4  5  1  0
  5  6  1  0
  6  7  1  0
  7  8  1  0
  7  9  1  0
  7  4  1  0
  9  5  1  0
  1 10  1  0
  1 11  1  0
  1 12  1  0
  4 13  1  0
  5 14  1  0
  6 15  1  0
  6 16  1  0
  8 17  1  0
  8 18  1  0
  8 19  1  0
M  END
