
     RDKit          3D

 19 19  0  0  0  0  0  0  0  0999 V2000
    2.9249   -0.7949   -0.6966 C   0  0  0  0  0  0  0  0  0  0  0  0
    1.4827   -0.7387   -0.3796 C   0  0  0  0  0  0  0  0  0  0  0  0
    0.7020   -1.3923   -1.0287 O   0  0  0  0  0  0  0  0  0  0  0  0
    1.0203    0.1141    0.7237 C   0  0  0  0  0  0  0  0  0  0  0  0
   -0.3363    0.0897    0.9292 O   0  0  0  0  0  0  0  0  0  0  0  0
   -1.0848    0.4998   -0.1391 C   0  0  0  0  0  0  0  0  0  0  0  0
   -2.3099    1.3202    0.1771 C   0  0  0  0  0  0  0  0  0  0  0  0
   -2.9338    0.1323    0.5715 O   0  0  0  0  0  0  0  0  0  0  0  0
   -2.1927   -0.4905   -0.4565 C   0  0  0  0  0  0  0  0  0  0  0  0
    3.1562   -1.4518   -1.5568 H   0  0  0  0  0  0  0  0  0  0  0  0
    3.3282    0.2233   -0.9408 H   0  0  0  0  0  0  0  0  0  0  0  0
    3.4594   -1.1250    0.2191 H   0  0  0  0  0  0  0  0  0  0  0  0
    1.4135    1.1513    0.6185 H   0  0  0  0  0  0  0  0  0  0  0  0
    1.4971   -0.2819    1.6667 H   0  0  0  0  0  0  0  0  0  0  0  0
   -0.5274    0.8038   -1.0438 H   0  0  0  0  0  0  0  0  0  0  0  0
   -2.2043    2.0877    0.9386 H   0  0  0  0  0  0  0  0  0  0  0  0
   -2.7871    1.6511   -0.7850 H   0  0  0  0  0  0  0  0  0  0  0  0
   -1.9471   -1.5473   -0.2662 H   0  0  0  0  0  0  0  0  0  0  0  0
   -2.6610   -0.2508   -1.4138 H   0  0  0  0  0  0  0  0  0  0  0  0
  1  2  1  0
  2  3  2  0
  2  4  1  0
  4  5  1  0
  5  6  1  0
  6  7  1  0
  7  8  1  0
  8  9  1  0
  9  6  1  0
  1 10  1  0
  1 11  1  0
  1 12  1  0
  4 13  1  0
  4 14  1  0
  6 15  1  0
  7 16  1  0
  7 17  1  0
  9 18  1  0
  9 19  1  0
M  END
