
     RDKit          3D

 19 19  0  0  0  0  0  0  0  0999 V2000
   -2.7432    0.3961    0.0480 C   0  0  0  0  0  0  0  0  0  0  0  0
   -1.5671   -0.1697    0.7589 C   0  0  0  0  0  0  0  0  0  0  0  0
   -1.6007   -0.4369    1.9440 O   0  0  0  0  0  0  0  0  0  0  0  0
   -0.3271   -0.4136    0.0088 C   0  0  0  0  0  0  0  0  0  0  0  0
    0.1909    0.8416   -0.5746 C   0  0  0  0  0  0  0  0  0  0  0  0
    1.4799    0.8845   -0.8342 C   0  0  0  0  0  0  0  0  0  0  0  0
    2.4137   -0.2337   -0.5776 C   0  0  0  0  0  0  0  0  0  0  0  0
    1.8827   -1.2632    0.1461 O   0  0  0  0  0  0  0  0  0  0  0  0
    0.7826   -0.9673    0.8958 C   0  0  0  0  0  0  0  0  0  0  0  0
   -3.6170    0.5019    0.7268 H   0  0  0  0  0  0  0  0  0  0  0  0
   -2.4683    1.3686   -0.4224 H   0  0  0  0  0  0  0  0  0  0  0  0
   -2.9727   -0.2952   -0.7972 H   0  0  0  0  0  0  0  0  0  0  0  0
   -0.4733   -1.1680   -0.8180 H   0  0  0  0  0  0  0  0  0  0  0  0
   -0.4550    1.6695   -0.7732 H   0  0  0  0  0  0  0  0  0  0  0  0
    1.9115    1.7905   -1.2662 H   0  0  0  0  0  0  0  0  0  0  0  0
    3.2907    0.1732   -0.0047 H   0  0  0  0  0  0  0  0  0  0  0  0
    2.8532   -0.5881   -1.5550 H   0  0  0  0  0  0  0  0  0  0  0  0
    0.9790   -0.1980    1.6980 H   0  0  0  0  0  0  0  0  0  0  0  0
    0.4403   -1.8923    1.3969 H   0  0  0  0  0  0  0  0  0  0  0  0
  1  2  1  0
  2  3  2  0
  2  4  1  0
  4  5  1  0
  5  6  2  0
  6  7  1  0
  7  8  1  0
  8  9  1  0
  9  4  1  0
  1 10  1  0
  1 11  1  0
  1 12  1  0
  4 13  1  0
  5 14  1  0
  6 15  1  0
  7 16  1  0
  7 17  1  0
  9 18  1  0
  9 19  1  0
M  END
