
     RDKit          3D

 20 20  0  0  0  0  0  0  0  0999 V2000
    2.5541    0.5518   -0.4365 C   0  0  0  0  0  0  0  0  0  0  0  0
    1.6204   -0.4550    0.1395 C   0  0  0  0  0  0  0  0  0  0  0  0
    1.8362   -1.6278   -0.1258 O   0  0  0  0  0  0  0  0  0  0  0  0
    0.4713   -0.1289    0.9946 C   0  0  0  0  0  0  0  0  0  0  0  0
   -0.8375   -0.1060    0.2246 C   0  0  0  0  0  0  0  0  0  0  0  0
   -2.0349    0.2267    1.0970 C   0  0  0  0  0  0  0  0  0  0  0  0
   -1.0473   -1.0079   -0.9061 C   0  0  0  0  0  0  0  0  0  0  0  0
   -0.8954    0.4787   -1.1399 C   0  0  0  0  0  0  0  0  0  0  0  0
    2.3437    1.5109    0.0424 H   0  0  0  0  0  0  0  0  0  0  0  0
    2.4501    0.6491   -1.5319 H   0  0  0  0  0  0  0  0  0  0  0  0
    3.6200    0.3020   -0.2474 H   0  0  0  0  0  0  0  0  0  0  0  0
    0.6198    0.8343    1.5431 H   0  0  0  0  0  0  0  0  0  0  0  0
    0.3249   -0.8965    1.8080 H   0  0  0  0  0  0  0  0  0  0  0  0
   -2.2916   -0.6345    1.7716 H   0  0  0  0  0  0  0  0  0  0  0  0
   -2.9232    0.5226    0.5073 H   0  0  0  0  0  0  0  0  0  0  0  0
   -1.7269    1.0456    1.7830 H   0  0  0  0  0  0  0  0  0  0  0  0
   -0.2223   -1.6915   -1.2124 H   0  0  0  0  0  0  0  0  0  0  0  0
   -2.0833   -1.3828   -1.1420 H   0  0  0  0  0  0  0  0  0  0  0  0
   -1.7881    1.0606   -1.4657 H   0  0  0  0  0  0  0  0  0  0  0  0
    0.0101    0.7487   -1.7034 H   0  0  0  0  0  0  0  0  0  0  0  0
  1  2  1  0
  2  3  2  0
  2  4  1  0
  4  5  1  0
  5  6  1  0
  5  7  1  0
  7  8  1  0
  8  5  1  0
  1  9  1  0
  1 10  1  0
  1 11  1  0
  4 12  1  0
  4 13  1  0
  6 14  1  0
  6 15  1  0
  6 16  1  0
  7 17  1  0
  7 18  1  0
  8 19  1  0
  8 20  1  0
M  END
