
     RDKit          3D

 21 21  0  0  0  0  0  0  0  0999 V2000
    2.4505   -0.3736    0.6191 C   0  0  0  0  0  0  0  0  0  0  0  0
    1.7574    0.1525   -0.5775 C   0  0  0  0  0  0  0  0  0  0  0  0
    2.4243    0.5997   -1.4850 O   0  0  0  0  0  0  0  0  0  0  0  0
    0.3056    0.1434   -0.6845 C   0  0  0  0  0  0  0  0  0  0  0  0
   -0.2151   -1.2993   -0.5940 C   0  0  0  0  0  0  0  0  0  0  0  0
   -1.4582   -0.6793    0.0509 C   0  0  0  0  0  0  0  0  0  0  0  0
   -2.2929   -0.2092   -0.9539 O   0  0  0  0  0  0  0  0  0  0  0  0
   -0.5050    0.4244    0.5322 C   0  0  0  0  0  0  0  0  0  0  0  0
   -1.2578    1.7315    0.5514 C   0  0  0  0  0  0  0  0  0  0  0  0
    2.6537   -1.4712    0.5286 H   0  0  0  0  0  0  0  0  0  0  0  0
    3.4532    0.1086    0.6996 H   0  0  0  0  0  0  0  0  0  0  0  0
    1.9320   -0.1342    1.5706 H   0  0  0  0  0  0  0  0  0  0  0  0
   -0.1187    0.6038   -1.5940 H   0  0  0  0  0  0  0  0  0  0  0  0
   -0.3846   -1.7343   -1.5818 H   0  0  0  0  0  0  0  0  0  0  0  0
    0.3117   -1.9156    0.1431 H   0  0  0  0  0  0  0  0  0  0  0  0
   -1.9121   -1.2717    0.8402 H   0  0  0  0  0  0  0  0  0  0  0  0
   -2.6712   -1.0206   -1.3992 H   0  0  0  0  0  0  0  0  0  0  0  0
   -0.0755    0.2089    1.5055 H   0  0  0  0  0  0  0  0  0  0  0  0
   -2.1309    1.6112    1.2500 H   0  0  0  0  0  0  0  0  0  0  0  0
   -1.6583    2.0117   -0.4241 H   0  0  0  0  0  0  0  0  0  0  0  0
   -0.6082    2.5132    1.0027 H   0  0  0  0  0  0  0  0  0  0  0  0
  1  2  1  0
  2  3  2  0
  2  4  1  0
  4  5  1  0
  5  6  1  0
  6  7  1  0
  6  8  1  0
  8  9  1  0
  8  4  1  0
  1 10  1  0
  1 11  1  0
  1 12  1  0
  4 13  1  0
  5 14  1  0
  5 15  1  0
  6 16  1  0
  7 17  1  0
  8 18  1  0
  9 19  1  0
  9 20  1  0
  9 21  1  0
M  END
