
     RDKit          3D

 19 20  0  0  0  0  0  0  0  0999 V2000
    3.2611    0.2107    0.1098 C   0  0  0  0  0  0  0  0  0  0  0  0
    1.8647    0.0175   -0.3622 C   0  0  0  0  0  0  0  0  0  0  0  0
    1.7357   -0.6924   -1.4020 O   0  0  0  0  0  0  0  0  0  0  0  0
    0.7652    0.5778    0.2917 O   0  0  0  0  0  0  0  0  0  0  0  0
   -0.5189    0.3244   -0.2512 C   0  0  0  0  0  0  0  0  0  0  0  0
   -0.9032   -1.1136   -0.3196 C   0  0  0  0  0  0  0  0  0  0  0  0
   -2.2333   -0.8714    0.3364 C   0  0  0  0  0  0  0  0  0  0  0  0
   -1.7163    0.4810    0.7416 C   0  0  0  0  0  0  0  0  0  0  0  0
   -1.4895    1.4293   -0.3534 C   0  0  0  0  0  0  0  0  0  0  0  0
    3.9145    0.6562   -0.6504 H   0  0  0  0  0  0  0  0  0  0  0  0
    3.7133   -0.7777    0.3816 H   0  0  0  0  0  0  0  0  0  0  0  0
    3.2166    0.8265    1.0465 H   0  0  0  0  0  0  0  0  0  0  0  0
   -0.9304   -1.5717   -1.3263 H   0  0  0  0  0  0  0  0  0  0  0  0
   -0.2870   -1.7795    0.3526 H   0  0  0  0  0  0  0  0  0  0  0  0
   -3.0911   -0.7643   -0.3684 H   0  0  0  0  0  0  0  0  0  0  0  0
   -2.4735   -1.5053    1.2079 H   0  0  0  0  0  0  0  0  0  0  0  0
   -1.4493    0.6835    1.7933 H   0  0  0  0  0  0  0  0  0  0  0  0
   -1.1140    2.4294   -0.0721 H   0  0  0  0  0  0  0  0  0  0  0  0
   -2.2645    1.4394   -1.1558 H   0  0  0  0  0  0  0  0  0  0  0  0
  1  2  1  0
  2  3  2  0
  2  4  1  0
  4  5  1  0
  5  6  1  0
  6  7  1  0
  7  8  1  0
  8  9  1  0
  8  5  1  0
  9  5  1  0
  1 10  1  0
  1 11  1  0
  1 12  1  0
  6 13  1  0
  6 14  1  0
  7 15  1  0
  7 16  1  0
  8 17  1  0
  9 18  1  0
  9 19  1  0
M  END
