
     RDKit          3D

 19 20  0  0  0  0  0  0  0  0999 V2000
   -2.7264    0.3609    0.5877 C   0  0  0  0  0  0  0  0  0  0  0  0
   -1.8202   -0.0130   -0.5233 C   0  0  0  0  0  0  0  0  0  0  0  0
   -2.2189   -0.5079   -1.5676 O   0  0  0  0  0  0  0  0  0  0  0  0
   -0.3730    0.2241   -0.3579 C   0  0  0  0  0  0  0  0  0  0  0  0
    0.5029   -0.1692   -1.5059 C   0  0  0  0  0  0  0  0  0  0  0  0
    1.4772   -0.6916   -0.4586 C   0  0  0  0  0  0  0  0  0  0  0  0
    2.6298    0.1509   -0.0477 C   0  0  0  0  0  0  0  0  0  0  0  0
    1.0444   -1.7863    0.2025 O   0  0  0  0  0  0  0  0  0  0  0  0
    0.3461   -0.6770    0.5627 C   0  0  0  0  0  0  0  0  0  0  0  0
   -3.6895   -0.1745    0.4928 H   0  0  0  0  0  0  0  0  0  0  0  0
   -2.9637    1.4468    0.6057 H   0  0  0  0  0  0  0  0  0  0  0  0
   -2.3060    0.0652    1.5892 H   0  0  0  0  0  0  0  0  0  0  0  0
   -0.1557    1.3025   -0.0985 H   0  0  0  0  0  0  0  0  0  0  0  0
    0.9090    0.6225   -2.1348 H   0  0  0  0  0  0  0  0  0  0  0  0
    0.0210   -1.0090   -2.0799 H   0  0  0  0  0  0  0  0  0  0  0  0
    3.2938    0.3517   -0.9056 H   0  0  0  0  0  0  0  0  0  0  0  0
    3.2063   -0.3574    0.7170 H   0  0  0  0  0  0  0  0  0  0  0  0
    2.2900    1.1609    0.3194 H   0  0  0  0  0  0  0  0  0  0  0  0
    0.5328   -0.2995    1.5738 H   0  0  0  0  0  0  0  0  0  0  0  0
  1  2  1  0
  2  3  2  0
  2  4  1  0
  4  5  1  0
  5  6  1  0
  6  7  1  0
  6  8  1  0
  8  9  1  0
  9  4  1  0
  9  6  1  0
  1 10  1  0
  1 11  1  0
  1 12  1  0
  4 13  1  0
  5 14  1  0
  5 15  1  0
  7 16  1  0
  7 17  1  0
  7 18  1  0
  9 19  1  0
M  END
