
     RDKit          3D

 21 20  0  0  0  0  0  0  0  0999 V2000
    2.0833   -0.8800   -0.5707 C   0  0  0  0  0  0  0  0  0  0  0  0
    1.2750   -0.1132    0.4132 C   0  0  0  0  0  0  0  0  0  0  0  0
    1.8688    0.3020    1.3902 O   0  0  0  0  0  0  0  0  0  0  0  0
   -0.1544    0.1793    0.3059 C   0  0  0  0  0  0  0  0  0  0  0  0
   -0.6139    0.9823    1.4991 C   0  0  0  0  0  0  0  0  0  0  0  0
   -0.3395    1.0594   -0.9308 C   0  0  0  0  0  0  0  0  0  0  0  0
   -1.6664    1.3991   -1.1294 O   0  0  0  0  0  0  0  0  0  0  0  0
   -1.0305   -1.0445    0.2378 C   0  0  0  0  0  0  0  0  0  0  0  0
   -0.7754   -1.8658   -0.8249 O   0  0  0  0  0  0  0  0  0  0  0  0
    2.8358   -1.4981   -0.0007 H   0  0  0  0  0  0  0  0  0  0  0  0
    1.5103   -1.5629   -1.1941 H   0  0  0  0  0  0  0  0  0  0  0  0
    2.6628   -0.1469   -1.1702 H   0  0  0  0  0  0  0  0  0  0  0  0
   -0.2938    2.0231    1.3981 H   0  0  0  0  0  0  0  0  0  0  0  0
   -1.6996    0.8574    1.6899 H   0  0  0  0  0  0  0  0  0  0  0  0
   -0.1081    0.5205    2.3941 H   0  0  0  0  0  0  0  0  0  0  0  0
    0.0864    0.5339   -1.8334 H   0  0  0  0  0  0  0  0  0  0  0  0
    0.3076    1.9539   -0.7798 H   0  0  0  0  0  0  0  0  0  0  0  0
   -1.6888    2.2564   -1.6124 H   0  0  0  0  0  0  0  0  0  0  0  0
   -2.0783   -0.6677    0.1416 H   0  0  0  0  0  0  0  0  0  0  0  0
   -0.9805   -1.5455    1.2211 H   0  0  0  0  0  0  0  0  0  0  0  0
   -1.2010   -2.7428   -0.6446 H   0  0  0  0  0  0  0  0  0  0  0  0
  1  2  1  0
  2  3  2  0
  2  4  1  0
  4  5  1  0
  4  6  1  0
  6  7  1  0
  4  8  1  0
  8  9  1  0
  1 10  1  0
  1 11  1  0
  1 12  1  0
  5 13  1  0
  5 14  1  0
  5 15  1  0
  6 16  1  0
  6 17  1  0
  7 18  1  0
  8 19  1  0
  8 20  1  0
  9 21  1  0
M  END
