
     RDKit          3D

 21 22  0  0  0  0  0  0  0  0999 V2000
    2.6480    0.2563    0.7750 C   0  0  0  0  0  0  0  0  0  0  0  0
    1.2855   -0.3076    0.9057 C   0  0  0  0  0  0  0  0  0  0  0  0
    0.8723   -0.6631    1.9859 O   0  0  0  0  0  0  0  0  0  0  0  0
    0.4436   -0.4307   -0.2844 C   0  0  0  0  0  0  0  0  0  0  0  0
    0.1193    0.8367   -1.0246 C   0  0  0  0  0  0  0  0  0  0  0  0
   -0.7846    1.1771    0.1225 C   0  0  0  0  0  0  0  0  0  0  0  0
   -1.0311   -0.2891   -0.1020 C   0  0  0  0  0  0  0  0  0  0  0  0
   -1.9057   -1.1095    0.5485 C   0  0  0  0  0  0  0  0  0  0  0  0
   -1.0585    0.0734   -1.5813 C   0  0  0  0  0  0  0  0  0  0  0  0
    3.3306   -0.0454    1.5876 H   0  0  0  0  0  0  0  0  0  0  0  0
    3.1448   -0.1024   -0.1735 H   0  0  0  0  0  0  0  0  0  0  0  0
    2.6014    1.3713    0.6943 H   0  0  0  0  0  0  0  0  0  0  0  0
    0.7782   -1.2151   -1.0011 H   0  0  0  0  0  0  0  0  0  0  0  0
    0.7414    1.4341   -1.5234 H   0  0  0  0  0  0  0  0  0  0  0  0
   -0.2512    1.4432    1.0420 H   0  0  0  0  0  0  0  0  0  0  0  0
   -1.6520    1.7876   -0.1255 H   0  0  0  0  0  0  0  0  0  0  0  0
   -1.4487   -1.7750    1.3164 H   0  0  0  0  0  0  0  0  0  0  0  0
   -2.4719   -1.8196   -0.1251 H   0  0  0  0  0  0  0  0  0  0  0  0
   -2.7286   -0.5737    1.1034 H   0  0  0  0  0  0  0  0  0  0  0  0
   -0.7040   -0.7103   -2.2641 H   0  0  0  0  0  0  0  0  0  0  0  0
   -1.9286    0.6618   -1.8760 H   0  0  0  0  0  0  0  0  0  0  0  0
  1  2  1  0
  2  3  2  0
  2  4  1  0
  4  5  1  0
  5  6  1  0
  6  7  1  0
  7  8  1  0
  7  9  1  0
  7  4  1  0
  9  5  1  0
  1 10  1  0
  1 11  1  0
  1 12  1  0
  4 13  1  0
  5 14  1  0
  6 15  1  0
  6 16  1  0
  8 17  1  0
  8 18  1  0
  8 19  1  0
  9 20  1  0
  9 21  1  0
M  END
