
     RDKit          3D

 19 18  0  0  0  0  0  0  0  0999 V2000
    3.7758   -0.9328   -0.8496 C   0  0  0  0  0  0  0  0  0  0  0  0
    3.0287   -0.1916    0.2011 C   0  0  0  0  0  0  0  0  0  0  0  0
    3.6495    0.0713    1.2688 O   0  0  0  0  0  0  0  0  0  0  0  0
    1.6628    0.2047    0.0043 C   0  0  0  0  0  0  0  0  0  0  0  0
    0.5039    0.5376   -0.1444 C   0  0  0  0  0  0  0  0  0  0  0  0
   -0.9088    0.9251   -0.3063 C   0  0  0  0  0  0  0  0  0  0  0  0
   -1.7596    0.1160    0.6378 C   0  0  0  0  0  0  0  0  0  0  0  0
   -3.2024    0.5497    0.4345 C   0  0  0  0  0  0  0  0  0  0  0  0
   -1.7086   -1.2469    0.3493 O   0  0  0  0  0  0  0  0  0  0  0  0
    3.4961   -2.0251   -0.8627 H   0  0  0  0  0  0  0  0  0  0  0  0
    3.5792   -0.4662   -1.8557 H   0  0  0  0  0  0  0  0  0  0  0  0
    4.8701   -0.8357   -0.6973 H   0  0  0  0  0  0  0  0  0  0  0  0
   -1.2332    0.7705   -1.3358 H   0  0  0  0  0  0  0  0  0  0  0  0
   -1.0743    1.9918   -0.0609 H   0  0  0  0  0  0  0  0  0  0  0  0
   -1.4926    0.2763    1.6876 H   0  0  0  0  0  0  0  0  0  0  0  0
   -3.2865    1.6599    0.3697 H   0  0  0  0  0  0  0  0  0  0  0  0
   -3.5589    0.0970   -0.5131 H   0  0  0  0  0  0  0  0  0  0  0  0
   -3.7672    0.1504    1.3110 H   0  0  0  0  0  0  0  0  0  0  0  0
   -2.5740   -1.6521    0.5857 H   0  0  0  0  0  0  0  0  0  0  0  0
  1  2  1  0
  2  3  2  0
  2  4  1  0
  4  5  3  0
  5  6  1  0
  6  7  1  0
  7  8  1  0
  7  9  1  0
  1 10  1  0
  1 11  1  0
  1 12  1  0
  6 13  1  0
  6 14  1  0
  7 15  1  0
  8 16  1  0
  8 17  1  0
  8 18  1  0
  9 19  1  0
M  END
