
     RDKit          3D

 14 14  0  0  0  0  0  0  0  0999 V2000
    2.0718   -0.0518    0.0394 C   0  0  0  0  0  0  0  0  0  0  0  0
    0.6999   -0.6268   -0.0041 C   0  0  0  0  0  0  0  0  0  0  0  0
    0.4726   -1.7881    0.2561 O   0  0  0  0  0  0  0  0  0  0  0  0
   -0.4082    0.2532   -0.3763 C   0  0  0  0  0  0  0  0  0  0  0  0
   -1.7733   -0.4145   -0.3955 C   0  0  0  0  0  0  0  0  0  0  0  0
   -2.2512    0.8460    0.0378 O   0  0  0  0  0  0  0  0  0  0  0  0
   -1.0573    1.0145    0.7042 C   0  0  0  0  0  0  0  0  0  0  0  0
   -0.7115    1.5704    1.7551 O   0  0  0  0  0  0  0  0  0  0  0  0
    2.1227    0.8858   -0.5508 H   0  0  0  0  0  0  0  0  0  0  0  0
    2.8151   -0.7807   -0.3395 H   0  0  0  0  0  0  0  0  0  0  0  0
    2.3184    0.1396    1.1066 H   0  0  0  0  0  0  0  0  0  0  0  0
   -0.2799    0.8584   -1.2930 H   0  0  0  0  0  0  0  0  0  0  0  0
   -2.1158   -0.7551   -1.3696 H   0  0  0  0  0  0  0  0  0  0  0  0
   -1.9033   -1.1511    0.4296 H   0  0  0  0  0  0  0  0  0  0  0  0
  1  2  1  0
  2  3  2  0
  2  4  1  0
  4  5  1  0
  5  6  1  0
  6  7  1  0
  7  8  2  0
  7  4  1  0
  1  9  1  0
  1 10  1  0
  1 11  1  0
  4 12  1  0
  5 13  1  0
  5 14  1  0
M  END
