
     RDKit          3D

 19 20  0  0  0  0  0  0  0  0999 V2000
    2.6962   -0.0446   -0.4616 C   0  0  0  0  0  0  0  0  0  0  0  0
    1.5939   -0.4134    0.4951 C   0  0  0  0  0  0  0  0  0  0  0  0
    1.8570   -1.1821    1.3855 O   0  0  0  0  0  0  0  0  0  0  0  0
    0.2757    0.1765    0.2929 C   0  0  0  0  0  0  0  0  0  0  0  0
   -0.4046   -0.1092   -1.0248 C   0  0  0  0  0  0  0  0  0  0  0  0
   -1.6393   -0.4859   -0.2811 C   0  0  0  0  0  0  0  0  0  0  0  0
   -2.1737    0.2900    0.8418 C   0  0  0  0  0  0  0  0  0  0  0  0
   -2.0053    1.6879    0.9126 O   0  0  0  0  0  0  0  0  0  0  0  0
   -0.8842   -0.4622    0.9892 C   0  0  0  0  0  0  0  0  0  0  0  0
    2.3497    0.6932   -1.2139 H   0  0  0  0  0  0  0  0  0  0  0  0
    3.5148    0.4841    0.1044 H   0  0  0  0  0  0  0  0  0  0  0  0
    3.0976   -0.9325   -0.9801 H   0  0  0  0  0  0  0  0  0  0  0  0
    0.2538    1.2836    0.4744 H   0  0  0  0  0  0  0  0  0  0  0  0
    0.0708   -0.9956   -1.5220 H   0  0  0  0  0  0  0  0  0  0  0  0
   -0.4544    0.7133   -1.7357 H   0  0  0  0  0  0  0  0  0  0  0  0
   -2.2135   -1.3592   -0.6250 H   0  0  0  0  0  0  0  0  0  0  0  0
   -3.0987   -0.0533    1.2994 H   0  0  0  0  0  0  0  0  0  0  0  0
   -2.0517    2.0405   -0.0166 H   0  0  0  0  0  0  0  0  0  0  0  0
   -0.7841   -1.3311    1.6270 H   0  0  0  0  0  0  0  0  0  0  0  0
  1  2  1  0
  2  3  2  0
  2  4  1  0
  4  5  1  0
  5  6  1  0
  6  7  1  0
  7  8  1  0
  7  9  1  0
  9  4  1  0
  9  6  1  0
  1 10  1  0
  1 11  1  0
  1 12  1  0
  4 13  1  0
  5 14  1  0
  5 15  1  0
  6 16  1  0
  7 17  1  0
  8 18  1  0
  9 19  1  0
M  END
