
     RDKit          3D

 18 18  0  0  0  0  0  0  0  0999 V2000
    2.2769    0.4096    0.1365 C   0  0  0  0  0  0  0  0  0  0  0  0
    1.4812   -0.7133   -0.4302 C   0  0  0  0  0  0  0  0  0  0  0  0
    2.0525   -1.6798   -0.9076 O   0  0  0  0  0  0  0  0  0  0  0  0
    0.0324   -0.6416   -0.4064 C   0  0  0  0  0  0  0  0  0  0  0  0
   -0.5320    0.5211   -1.1468 C   0  0  0  0  0  0  0  0  0  0  0  0
   -1.6995    0.8475   -0.6010 C   0  0  0  0  0  0  0  0  0  0  0  0
   -1.9895   -0.0846    0.5471 C   0  0  0  0  0  0  0  0  0  0  0  0
   -0.5467   -0.3896    0.9842 C   0  0  0  0  0  0  0  0  0  0  0  0
    3.3610    0.2590   -0.0953 H   0  0  0  0  0  0  0  0  0  0  0  0
    1.9174    1.3960   -0.2477 H   0  0  0  0  0  0  0  0  0  0  0  0
    2.1091    0.3552    1.2483 H   0  0  0  0  0  0  0  0  0  0  0  0
   -0.4825   -1.5413   -0.7958 H   0  0  0  0  0  0  0  0  0  0  0  0
   -0.0466    0.9899   -1.9776 H   0  0  0  0  0  0  0  0  0  0  0  0
   -2.3694    1.6462   -0.8990 H   0  0  0  0  0  0  0  0  0  0  0  0
   -2.5649    0.3864    1.3379 H   0  0  0  0  0  0  0  0  0  0  0  0
   -2.4036   -1.0390    0.2027 H   0  0  0  0  0  0  0  0  0  0  0  0
   -0.1088    0.5390    1.4185 H   0  0  0  0  0  0  0  0  0  0  0  0
   -0.4870   -1.2608    1.6323 H   0  0  0  0  0  0  0  0  0  0  0  0
  1  2  1  0
  2  3  2  0
  2  4  1  0
  4  5  1  0
  5  6  2  0
  6  7  1  0
  7  8  1  0
  8  4  1  0
  1  9  1  0
  1 10  1  0
  1 11  1  0
  4 12  1  0
  5 13  1  0
  6 14  1  0
  7 15  1  0
  7 16  1  0
  8 17  1  0
  8 18  1  0
M  END
