
     RDKit          3D

 19 18  0  0  0  0  0  0  0  0999 V2000
    3.2905    0.5815    0.6684 C   0  0  0  0  0  0  0  0  0  0  0  0
    2.2435   -0.4396    0.3373 C   0  0  0  0  0  0  0  0  0  0  0  0
    2.5685   -1.6453    0.4949 O   0  0  0  0  0  0  0  0  0  0  0  0
    0.9898   -0.1064   -0.1153 O   0  0  0  0  0  0  0  0  0  0  0  0
    0.0268   -1.0704   -0.4195 C   0  0  0  0  0  0  0  0  0  0  0  0
   -1.2579   -0.4598   -0.8929 C   0  0  0  0  0  0  0  0  0  0  0  0
   -1.8919    0.4544    0.1239 C   0  0  0  0  0  0  0  0  0  0  0  0
   -3.1617    1.0321   -0.3942 C   0  0  0  0  0  0  0  0  0  0  0  0
   -3.1182    2.0148   -1.1250 O   0  0  0  0  0  0  0  0  0  0  0  0
    3.5433    0.5656    1.7354 H   0  0  0  0  0  0  0  0  0  0  0  0
    4.1656    0.3643    0.0165 H   0  0  0  0  0  0  0  0  0  0  0  0
    2.9479    1.6061    0.4274 H   0  0  0  0  0  0  0  0  0  0  0  0
    0.3541   -1.7778   -1.2387 H   0  0  0  0  0  0  0  0  0  0  0  0
   -0.1325   -1.7262    0.4625 H   0  0  0  0  0  0  0  0  0  0  0  0
   -1.1104    0.1084   -1.8296 H   0  0  0  0  0  0  0  0  0  0  0  0
   -1.9541   -1.2850   -1.1240 H   0  0  0  0  0  0  0  0  0  0  0  0
   -2.1491   -0.1136    1.0395 H   0  0  0  0  0  0  0  0  0  0  0  0
   -1.2112    1.2692    0.4490 H   0  0  0  0  0  0  0  0  0  0  0  0
   -4.1429    0.6278   -0.1597 H   0  0  0  0  0  0  0  0  0  0  0  0
  1  2  1  0
  2  3  2  0
  2  4  1  0
  4  5  1  0
  5  6  1  0
  6  7  1  0
  7  8  1  0
  8  9  2  0
  1 10  1  0
  1 11  1  0
  1 12  1  0
  5 13  1  0
  5 14  1  0
  6 15  1  0
  6 16  1  0
  7 17  1  0
  7 18  1  0
  8 19  1  0
M  END
