
     RDKit          3D

 19 18  0  0  0  0  0  0  0  0999 V2000
    2.8966    0.8713    0.1059 C   0  0  0  0  0  0  0  0  0  0  0  0
    2.0710   -0.3466   -0.1061 C   0  0  0  0  0  0  0  0  0  0  0  0
    2.5364   -1.4324    0.2138 O   0  0  0  0  0  0  0  0  0  0  0  0
    0.7064   -0.2693   -0.6873 C   0  0  0  0  0  0  0  0  0  0  0  0
   -0.2997   -0.9491    0.1981 C   0  0  0  0  0  0  0  0  0  0  0  0
    0.0189   -1.4714    1.2518 O   0  0  0  0  0  0  0  0  0  0  0  0
   -1.7181   -0.9755   -0.2336 C   0  0  0  0  0  0  0  0  0  0  0  0
   -2.4863    0.1822    0.4391 C   0  0  0  0  0  0  0  0  0  0  0  0
   -1.8725    1.3379    0.0166 O   0  0  0  0  0  0  0  0  0  0  0  0
    3.4911    1.1661   -0.7693 H   0  0  0  0  0  0  0  0  0  0  0  0
    3.5488    0.6811    0.9987 H   0  0  0  0  0  0  0  0  0  0  0  0
    2.2699    1.7420    0.4177 H   0  0  0  0  0  0  0  0  0  0  0  0
    0.7190   -0.8656   -1.6474 H   0  0  0  0  0  0  0  0  0  0  0  0
    0.4473    0.7580   -0.8836 H   0  0  0  0  0  0  0  0  0  0  0  0
   -1.7986   -0.8150   -1.3260 H   0  0  0  0  0  0  0  0  0  0  0  0
   -2.2517   -1.8906    0.1058 H   0  0  0  0  0  0  0  0  0  0  0  0
   -3.5356    0.0639    0.1081 H   0  0  0  0  0  0  0  0  0  0  0  0
   -2.4470    0.0464    1.5416 H   0  0  0  0  0  0  0  0  0  0  0  0
   -2.2960    2.1668    0.2781 H   0  0  0  0  0  0  0  0  0  0  0  0
  1  2  1  0
  2  3  2  0
  2  4  1  0
  4  5  1  0
  5  6  2  0
  5  7  1  0
  7  8  1  0
  8  9  1  0
  1 10  1  0
  1 11  1  0
  1 12  1  0
  4 13  1  0
  4 14  1  0
  7 15  1  0
  7 16  1  0
  8 17  1  0
  8 18  1  0
  9 19  1  0
M  END
