
     RDKit          3D

 19 20  0  0  0  0  0  0  0  0999 V2000
   -2.2953    0.6447    0.5117 C   0  0  0  0  0  0  0  0  0  0  0  0
   -1.5024   -0.4125   -0.1585 C   0  0  0  0  0  0  0  0  0  0  0  0
   -1.9869   -1.0159   -1.0919 O   0  0  0  0  0  0  0  0  0  0  0  0
   -0.1421   -0.7453    0.2832 C   0  0  0  0  0  0  0  0  0  0  0  0
    0.4829   -1.8512   -0.5381 C   0  0  0  0  0  0  0  0  0  0  0  0
    1.1859   -0.9158   -1.3312 O   0  0  0  0  0  0  0  0  0  0  0  0
    0.9790    0.0046   -0.3472 C   0  0  0  0  0  0  0  0  0  0  0  0
    1.0696    1.4367   -0.4736 C   0  0  0  0  0  0  0  0  0  0  0  0
    2.0180    0.6568    0.4336 C   0  0  0  0  0  0  0  0  0  0  0  0
   -2.1504    0.5905    1.6177 H   0  0  0  0  0  0  0  0  0  0  0  0
   -2.0601    1.6588    0.1285 H   0  0  0  0  0  0  0  0  0  0  0  0
   -3.3983    0.5166    0.3525 H   0  0  0  0  0  0  0  0  0  0  0  0
   -0.0348   -0.9379    1.3816 H   0  0  0  0  0  0  0  0  0  0  0  0
    1.1871   -2.4936    0.0675 H   0  0  0  0  0  0  0  0  0  0  0  0
   -0.2281   -2.4398   -1.1532 H   0  0  0  0  0  0  0  0  0  0  0  0
    1.5957    1.8820   -1.3553 H   0  0  0  0  0  0  0  0  0  0  0  0
    0.3867    2.1399    0.0196 H   0  0  0  0  0  0  0  0  0  0  0  0
    3.0640    0.5165    0.1196 H   0  0  0  0  0  0  0  0  0  0  0  0
    1.8295    0.7649    1.5335 H   0  0  0  0  0  0  0  0  0  0  0  0
  1  2  1  0
  2  3  2  0
  2  4  1  0
  4  5  1  0
  5  6  1  0
  6  7  1  0
  7  8  1  0
  8  9  1  0
  7  4  1  0
  9  7  1  0
  1 10  1  0
  1 11  1  0
  1 12  1  0
  4 13  1  0
  5 14  1  0
  5 15  1  0
  8 16  1  0
  8 17  1  0
  9 18  1  0
  9 19  1  0
M  END
