
     RDKit          3D

 19 18  0  0  0  0  0  0  0  0999 V2000
    2.3105    0.0616   -1.0563 C   0  0  0  0  0  0  0  0  0  0  0  0
    1.1775    0.7725   -0.4314 C   0  0  0  0  0  0  0  0  0  0  0  0
    1.0891    1.9725   -0.6506 O   0  0  0  0  0  0  0  0  0  0  0  0
    0.1644    0.1232    0.4282 C   0  0  0  0  0  0  0  0  0  0  0  0
   -0.8626    1.1098    0.9142 C   0  0  0  0  0  0  0  0  0  0  0  0
   -1.5495    1.7166   -0.1293 O   0  0  0  0  0  0  0  0  0  0  0  0
   -0.4764   -1.0366   -0.2752 C   0  0  0  0  0  0  0  0  0  0  0  0
   -1.5275   -1.8479    0.3875 C   0  0  0  0  0  0  0  0  0  0  0  0
   -0.1500   -1.3418   -1.4085 O   0  0  0  0  0  0  0  0  0  0  0  0
    3.2364    0.3344   -0.5076 H   0  0  0  0  0  0  0  0  0  0  0  0
    2.4390    0.4704   -2.0836 H   0  0  0  0  0  0  0  0  0  0  0  0
    2.1536   -1.0362   -1.1082 H   0  0  0  0  0  0  0  0  0  0  0  0
    0.6596   -0.2899    1.3508 H   0  0  0  0  0  0  0  0  0  0  0  0
   -0.3160    1.8756    1.5070 H   0  0  0  0  0  0  0  0  0  0  0  0
   -1.5992    0.6350    1.5643 H   0  0  0  0  0  0  0  0  0  0  0  0
   -1.3804    2.6880   -0.1961 H   0  0  0  0  0  0  0  0  0  0  0  0
   -2.5527   -1.5496    0.0707 H   0  0  0  0  0  0  0  0  0  0  0  0
   -1.3166   -2.9138    0.1313 H   0  0  0  0  0  0  0  0  0  0  0  0
   -1.4994   -1.7437    1.4926 H   0  0  0  0  0  0  0  0  0  0  0  0
  1  2  1  0
  2  3  2  0
  2  4  1  0
  4  5  1  0
  5  6  1  0
  4  7  1  0
  7  8  1  0
  7  9  2  0
  1 10  1  0
  1 11  1  0
  1 12  1  0
  4 13  1  0
  5 14  1  0
  5 15  1  0
  6 16  1  0
  8 17  1  0
  8 18  1  0
  8 19  1  0
M  END
