
     RDKit          3D

 23 22  0  0  0  0  0  0  0  0999 V2000
    3.0711    0.1181   -0.7443 C   0  0  0  0  0  0  0  0  0  0  0  0
    2.2791    0.1364    0.5036 C   0  0  0  0  0  0  0  0  0  0  0  0
    2.7885   -0.3073    1.5085 O   0  0  0  0  0  0  0  0  0  0  0  0
    0.9048    0.6908    0.4814 C   0  0  0  0  0  0  0  0  0  0  0  0
   -0.1254   -0.4264    0.4713 C   0  0  0  0  0  0  0  0  0  0  0  0
   -0.0293   -1.2347    1.5736 O   0  0  0  0  0  0  0  0  0  0  0  0
   -1.5010    0.1360    0.2556 C   0  0  0  0  0  0  0  0  0  0  0  0
   -1.4698    0.8500   -1.0947 C   0  0  0  0  0  0  0  0  0  0  0  0
   -2.4618   -1.0358    0.1576 C   0  0  0  0  0  0  0  0  0  0  0  0
    3.9265   -0.5480   -0.6432 H   0  0  0  0  0  0  0  0  0  0  0  0
    2.4596   -0.1200   -1.6380 H   0  0  0  0  0  0  0  0  0  0  0  0
    3.4280    1.1734   -0.9137 H   0  0  0  0  0  0  0  0  0  0  0  0
    0.7188    1.3068    1.3949 H   0  0  0  0  0  0  0  0  0  0  0  0
    0.7395    1.3571   -0.3891 H   0  0  0  0  0  0  0  0  0  0  0  0
    0.1155   -1.0526   -0.4207 H   0  0  0  0  0  0  0  0  0  0  0  0
   -0.6223   -1.0086    2.3210 H   0  0  0  0  0  0  0  0  0  0  0  0
   -1.8293    0.8315    1.0294 H   0  0  0  0  0  0  0  0  0  0  0  0
   -1.1331    1.9065   -0.9848 H   0  0  0  0  0  0  0  0  0  0  0  0
   -2.5018    0.9003   -1.5004 H   0  0  0  0  0  0  0  0  0  0  0  0
   -0.8257    0.2816   -1.7945 H   0  0  0  0  0  0  0  0  0  0  0  0
   -2.5100   -1.4807    1.1676 H   0  0  0  0  0  0  0  0  0  0  0  0
   -2.0122   -1.8036   -0.5064 H   0  0  0  0  0  0  0  0  0  0  0  0
   -3.4096   -0.6708   -0.2347 H   0  0  0  0  0  0  0  0  0  0  0  0
  1  2  1  0
  2  3  2  0
  2  4  1  0
  4  5  1  0
  5  6  1  0
  5  7  1  0
  7  8  1  0
  7  9  1  0
  1 10  1  0
  1 11  1  0
  1 12  1  0
  4 13  1  0
  4 14  1  0
  5 15  1  0
  6 16  1  0
  7 17  1  0
  8 18  1  0
  8 19  1  0
  8 20  1  0
  9 21  1  0
  9 22  1  0
  9 23  1  0
M  END
