
     RDKit          3D

 18 17  0  0  0  0  0  0  0  0999 V2000
    2.8753   -0.5928    0.3897 C   0  0  0  0  0  0  0  0  0  0  0  0
    1.5392   -0.6508   -0.2634 C   0  0  0  0  0  0  0  0  0  0  0  0
    1.3847   -1.3542   -1.2386 O   0  0  0  0  0  0  0  0  0  0  0  0
    0.4505    0.1606    0.3133 C   0  0  0  0  0  0  0  0  0  0  0  0
   -0.8537    0.0063   -0.4504 C   0  0  0  0  0  0  0  0  0  0  0  0
   -1.2085   -1.3260   -0.3987 O   0  0  0  0  0  0  0  0  0  0  0  0
   -1.8967    0.7991    0.3463 C   0  0  0  0  0  0  0  0  0  0  0  0
   -3.1683    0.6422   -0.1823 O   0  0  0  0  0  0  0  0  0  0  0  0
    3.0171    0.4456    0.7553 H   0  0  0  0  0  0  0  0  0  0  0  0
    2.9063   -1.2588    1.2734 H   0  0  0  0  0  0  0  0  0  0  0  0
    3.7009   -0.7866   -0.3230 H   0  0  0  0  0  0  0  0  0  0  0  0
    0.2795   -0.0731    1.3837 H   0  0  0  0  0  0  0  0  0  0  0  0
    0.7506    1.2495    0.2976 H   0  0  0  0  0  0  0  0  0  0  0  0
   -0.7930    0.3849   -1.4701 H   0  0  0  0  0  0  0  0  0  0  0  0
   -2.1773   -1.4870   -0.5640 H   0  0  0  0  0  0  0  0  0  0  0  0
   -1.8100    0.4544    1.3901 H   0  0  0  0  0  0  0  0  0  0  0  0
   -1.5477    1.8557    0.3002 H   0  0  0  0  0  0  0  0  0  0  0  0
   -3.4490    1.5309   -0.5432 H   0  0  0  0  0  0  0  0  0  0  0  0
  1  2  1  0
  2  3  2  0
  2  4  1  0
  4  5  1  0
  5  6  1  0
  5  7  1  0
  7  8  1  0
  1  9  1  0
  1 10  1  0
  1 11  1  0
  4 12  1  0
  4 13  1  0
  5 14  1  0
  6 15  1  0
  7 16  1  0
  7 17  1  0
  8 18  1  0
M  END
