
     RDKit          3D

 21 21  0  0  0  0  0  0  0  0999 V2000
   -2.7049   -0.2203    0.5444 C   0  0  0  0  0  0  0  0  0  0  0  0
   -1.2704   -0.6577    0.5859 C   0  0  0  0  0  0  0  0  0  0  0  0
   -1.0719   -1.7674    1.0476 O   0  0  0  0  0  0  0  0  0  0  0  0
   -0.2686    0.2772    0.0757 C   0  0  0  0  0  0  0  0  0  0  0  0
   -0.5341    0.5957   -1.4026 C   0  0  0  0  0  0  0  0  0  0  0  0
    1.1530   -0.0895    0.2724 C   0  0  0  0  0  0  0  0  0  0  0  0
    2.1316    0.9484   -0.2956 C   0  0  0  0  0  0  0  0  0  0  0  0
    1.7057   -1.1626    0.9921 C   0  0  0  0  0  0  0  0  0  0  0  0
    1.4460   -1.3832   -0.3988 O   0  0  0  0  0  0  0  0  0  0  0  0
   -2.8307    0.7899    0.1322 H   0  0  0  0  0  0  0  0  0  0  0  0
   -3.1110   -0.2002    1.5836 H   0  0  0  0  0  0  0  0  0  0  0  0
   -3.3132   -0.9068   -0.1099 H   0  0  0  0  0  0  0  0  0  0  0  0
   -0.4627    1.2634    0.5948 H   0  0  0  0  0  0  0  0  0  0  0  0
   -1.6297    0.6442   -1.5104 H   0  0  0  0  0  0  0  0  0  0  0  0
   -0.0767   -0.2250   -1.9754 H   0  0  0  0  0  0  0  0  0  0  0  0
   -0.0373    1.5776   -1.6170 H   0  0  0  0  0  0  0  0  0  0  0  0
    3.1503    0.8014    0.0856 H   0  0  0  0  0  0  0  0  0  0  0  0
    1.7026    1.9347    0.0002 H   0  0  0  0  0  0  0  0  0  0  0  0
    2.0441    0.8750   -1.3931 H   0  0  0  0  0  0  0  0  0  0  0  0
    2.8019   -1.1902    1.1771 H   0  0  0  0  0  0  0  0  0  0  0  0
    1.1759   -1.9045    1.6110 H   0  0  0  0  0  0  0  0  0  0  0  0
  1  2  1  0
  2  3  2  0
  2  4  1  0
  4  5  1  0
  4  6  1  0
  6  7  1  0
  6  8  1  0
  8  9  1  0
  9  6  1  0
  1 10  1  0
  1 11  1  0
  1 12  1  0
  4 13  1  0
  5 14  1  0
  5 15  1  0
  5 16  1  0
  7 17  1  0
  7 18  1  0
  7 19  1  0
  8 20  1  0
  8 21  1  0
M  END
