
     RDKit          3D

 15 15  0  0  0  0  0  0  0  0999 V2000
    2.7574   -0.0531    0.6955 C   0  0  0  0  0  0  0  0  0  0  0  0
    1.4732   -0.4801    0.0856 C   0  0  0  0  0  0  0  0  0  0  0  0
    1.4601   -1.4521   -0.7194 O   0  0  0  0  0  0  0  0  0  0  0  0
    0.2606    0.1164    0.3349 O   0  0  0  0  0  0  0  0  0  0  0  0
   -0.9599   -0.3005   -0.2540 C   0  0  0  0  0  0  0  0  0  0  0  0
   -1.8660    0.8863   -0.6239 C   0  0  0  0  0  0  0  0  0  0  0  0
   -2.1933   -0.0625    0.5137 C   0  0  0  0  0  0  0  0  0  0  0  0
    3.3462    0.5959   -0.0011 H   0  0  0  0  0  0  0  0  0  0  0  0
    3.4150   -0.9141    0.9388 H   0  0  0  0  0  0  0  0  0  0  0  0
    2.5395    0.4813    1.6554 H   0  0  0  0  0  0  0  0  0  0  0  0
   -0.9534   -1.1534   -0.9568 H   0  0  0  0  0  0  0  0  0  0  0  0
   -2.4185    0.8170   -1.5710 H   0  0  0  0  0  0  0  0  0  0  0  0
   -1.5817    1.8873   -0.3089 H   0  0  0  0  0  0  0  0  0  0  0  0
   -2.1724    0.3092    1.5488 H   0  0  0  0  0  0  0  0  0  0  0  0
   -3.1069   -0.6775    0.3023 H   0  0  0  0  0  0  0  0  0  0  0  0
  1  2  1  0
  2  3  2  0
  2  4  1  0
  4  5  1  0
  5  6  1  0
  6  7  1  0
  7  5  1  0
  1  8  1  0
  1  9  1  0
  1 10  1  0
  5 11  1  0
  6 12  1  0
  6 13  1  0
  7 14  1  0
  7 15  1  0
M  END
