
     RDKit          3D

 19 19  0  0  0  0  0  0  0  0999 V2000
   -2.6229   -0.3078    0.0085 C   0  0  0  0  0  0  0  0  0  0  0  0
   -1.4406    0.5715    0.1358 C   0  0  0  0  0  0  0  0  0  0  0  0
   -1.4852    1.4801    0.9483 O   0  0  0  0  0  0  0  0  0  0  0  0
   -0.2290    0.3343   -0.7214 C   0  0  0  0  0  0  0  0  0  0  0  0
    0.3467   -1.0418   -0.4799 C   0  0  0  0  0  0  0  0  0  0  0  0
    1.3963   -0.9172    0.4429 O   0  0  0  0  0  0  0  0  0  0  0  0
    2.4615   -0.3434   -0.2717 C   0  0  0  0  0  0  0  0  0  0  0  0
    2.1058    0.8890   -0.7531 O   0  0  0  0  0  0  0  0  0  0  0  0
    0.8619    1.3212   -0.3564 C   0  0  0  0  0  0  0  0  0  0  0  0
   -3.4716    0.1757   -0.5278 H   0  0  0  0  0  0  0  0  0  0  0  0
   -2.3310   -1.2107   -0.5656 H   0  0  0  0  0  0  0  0  0  0  0  0
   -2.9488   -0.6972    1.0144 H   0  0  0  0  0  0  0  0  0  0  0  0
   -0.5411    0.4416   -1.7690 H   0  0  0  0  0  0  0  0  0  0  0  0
   -0.4138   -1.7698   -0.1509 H   0  0  0  0  0  0  0  0  0  0  0  0
    0.7809   -1.3935   -1.4410 H   0  0  0  0  0  0  0  0  0  0  0  0
    2.6936   -1.0036   -1.1430 H   0  0  0  0  0  0  0  0  0  0  0  0
    3.3625   -0.3082    0.3989 H   0  0  0  0  0  0  0  0  0  0  0  0
    0.6844    2.3111   -0.8490 H   0  0  0  0  0  0  0  0  0  0  0  0
    0.7904    1.4688    0.7528 H   0  0  0  0  0  0  0  0  0  0  0  0
  1  2  1  0
  2  3  2  0
  2  4  1  0
  4  5  1  0
  5  6  1  0
  6  7  1  0
  7  8  1  0
  8  9  1  0
  9  4  1  0
  1 10  1  0
  1 11  1  0
  1 12  1  0
  4 13  1  0
  5 14  1  0
  5 15  1  0
  7 16  1  0
  7 17  1  0
  9 18  1  0
  9 19  1  0
M  END
