
     RDKit          3D

 19 20  0  0  0  0  0  0  0  0999 V2000
    2.4845   -0.8155   -0.0808 C   0  0  0  0  0  0  0  0  0  0  0  0
    1.0058   -0.8148    0.1633 C   0  0  0  0  0  0  0  0  0  0  0  0
    0.6161   -1.5454    1.0331 O   0  0  0  0  0  0  0  0  0  0  0  0
    0.1972    0.0699   -0.6777 C   0  0  0  0  0  0  0  0  0  0  0  0
   -1.2722    0.1017   -0.4695 C   0  0  0  0  0  0  0  0  0  0  0  0
   -1.8849   -0.8472    0.4850 C   0  0  0  0  0  0  0  0  0  0  0  0
   -1.1147    1.4971    0.0899 C   0  0  0  0  0  0  0  0  0  0  0  0
   -0.4988    2.4002   -0.8444 O   0  0  0  0  0  0  0  0  0  0  0  0
    0.2321    1.4958   -0.1037 C   0  0  0  0  0  0  0  0  0  0  0  0
    2.8803    0.1625    0.3045 H   0  0  0  0  0  0  0  0  0  0  0  0
    2.6972   -0.8066   -1.1683 H   0  0  0  0  0  0  0  0  0  0  0  0
    3.0004   -1.6438    0.3989 H   0  0  0  0  0  0  0  0  0  0  0  0
    0.5660    0.0989   -1.7114 H   0  0  0  0  0  0  0  0  0  0  0  0
   -1.8024    0.1807   -1.4592 H   0  0  0  0  0  0  0  0  0  0  0  0
   -1.5933   -1.9046    0.3605 H   0  0  0  0  0  0  0  0  0  0  0  0
   -3.0016   -0.8308    0.3098 H   0  0  0  0  0  0  0  0  0  0  0  0
   -1.7852   -0.5128    1.5588 H   0  0  0  0  0  0  0  0  0  0  0  0
   -1.8187    1.9183    0.7865 H   0  0  0  0  0  0  0  0  0  0  0  0
    1.0923    1.7965    0.4963 H   0  0  0  0  0  0  0  0  0  0  0  0
  1  2  1  0
  2  3  2  0
  2  4  1  0
  4  5  1  0
  5  6  1  0
  5  7  1  0
  7  8  1  0
  8  9  1  0
  9  4  1  0
  9  7  1  0
  1 10  1  0
  1 11  1  0
  1 12  1  0
  4 13  1  0
  5 14  1  0
  6 15  1  0
  6 16  1  0
  6 17  1  0
  7 18  1  0
  9 19  1  0
M  END
