
     RDKit          3D

 17 17  0  0  0  0  0  0  0  0999 V2000
    2.2439    0.2679   -0.1314 C   0  0  0  0  0  0  0  0  0  0  0  0
    1.2231   -0.5781    0.5446 C   0  0  0  0  0  0  0  0  0  0  0  0
    1.4989   -0.9042    1.6857 O   0  0  0  0  0  0  0  0  0  0  0  0
   -0.0344   -1.0272   -0.0383 C   0  0  0  0  0  0  0  0  0  0  0  0
   -0.2999   -0.6172   -1.3660 O   0  0  0  0  0  0  0  0  0  0  0  0
   -1.6454   -0.6921   -1.0450 C   0  0  0  0  0  0  0  0  0  0  0  0
   -2.6737   -0.9987   -1.6674 O   0  0  0  0  0  0  0  0  0  0  0  0
   -1.2759   -0.2530    0.3233 C   0  0  0  0  0  0  0  0  0  0  0  0
   -1.1087    1.2428    0.3511 C   0  0  0  0  0  0  0  0  0  0  0  0
    3.1711   -0.3211   -0.3787 H   0  0  0  0  0  0  0  0  0  0  0  0
    2.5645    1.0402    0.5995 H   0  0  0  0  0  0  0  0  0  0  0  0
    1.8413    0.7809   -1.0257 H   0  0  0  0  0  0  0  0  0  0  0  0
   -0.2608   -2.1240    0.0438 H   0  0  0  0  0  0  0  0  0  0  0  0
   -1.8907   -0.6662    1.1359 H   0  0  0  0  0  0  0  0  0  0  0  0
   -0.6088    1.6097    1.2668 H   0  0  0  0  0  0  0  0  0  0  0  0
   -2.1471    1.6739    0.2795 H   0  0  0  0  0  0  0  0  0  0  0  0
   -0.5974    1.5664   -0.5777 H   0  0  0  0  0  0  0  0  0  0  0  0
  1  2  1  0
  2  3  2  0
  2  4  1  0
  4  5  1  0
  5  6  1  0
  6  7  2  0
  6  8  1  0
  8  9  1  0
  8  4  1  0
  1 10  1  0
  1 11  1  0
  1 12  1  0
  4 13  1  0
  8 14  1  0
  9 15  1  0
  9 16  1  0
  9 17  1  0
M  END
