
     RDKit          3D

 19 18  0  0  0  0  0  0  0  0999 V2000
   -3.0001   -0.1059   -0.5171 C   0  0  0  0  0  0  0  0  0  0  0  0
   -1.6948   -0.6598   -0.0790 C   0  0  0  0  0  0  0  0  0  0  0  0
   -1.6755   -1.7750    0.4109 O   0  0  0  0  0  0  0  0  0  0  0  0
   -0.4357    0.1194   -0.2299 C   0  0  0  0  0  0  0  0  0  0  0  0
    0.7266   -0.6824    0.2949 C   0  0  0  0  0  0  0  0  0  0  0  0
    0.8813   -1.8843   -0.3859 O   0  0  0  0  0  0  0  0  0  0  0  0
    1.9972    0.0400    0.3019 C   0  0  0  0  0  0  0  0  0  0  0  0
    2.2038    1.3658    0.9417 C   0  0  0  0  0  0  0  0  0  0  0  0
    2.9564   -0.4660   -0.2487 O   0  0  0  0  0  0  0  0  0  0  0  0
   -3.4804    0.4896    0.3016 H   0  0  0  0  0  0  0  0  0  0  0  0
   -3.7255   -0.8947   -0.7845 H   0  0  0  0  0  0  0  0  0  0  0  0
   -2.8688    0.6086   -1.3585 H   0  0  0  0  0  0  0  0  0  0  0  0
   -0.5452    1.0027    0.4648 H   0  0  0  0  0  0  0  0  0  0  0  0
   -0.2755    0.5206   -1.2280 H   0  0  0  0  0  0  0  0  0  0  0  0
    0.5141   -0.9752    1.3654 H   0  0  0  0  0  0  0  0  0  0  0  0
    1.5912   -1.8357   -1.0831 H   0  0  0  0  0  0  0  0  0  0  0  0
    2.0159    2.1329    0.1506 H   0  0  0  0  0  0  0  0  0  0  0  0
    1.5692    1.5101    1.8353 H   0  0  0  0  0  0  0  0  0  0  0  0
    3.2459    1.4892    1.2626 H   0  0  0  0  0  0  0  0  0  0  0  0
  1  2  1  0
  2  3  2  0
  2  4  1  0
  4  5  1  0
  5  6  1  0
  5  7  1  0
  7  8  1  0
  7  9  2  0
  1 10  1  0
  1 11  1  0
  1 12  1  0
  4 13  1  0
  4 14  1  0
  5 15  1  0
  6 16  1  0
  8 17  1  0
  8 18  1  0
  8 19  1  0
M  END
