
     RDKit          3D

 20 20  0  0  0  0  0  0  0  0999 V2000
   -2.2990   -0.6049   -0.1710 C   0  0  0  0  0  0  0  0  0  0  0  0
   -1.1622   -0.4134    0.7825 C   0  0  0  0  0  0  0  0  0  0  0  0
   -1.2233   -0.7384    1.9581 O   0  0  0  0  0  0  0  0  0  0  0  0
    0.0738    0.1999    0.2396 C   0  0  0  0  0  0  0  0  0  0  0  0
   -0.1484    1.5769   -0.3200 C   0  0  0  0  0  0  0  0  0  0  0  0
    0.7023   -0.7729   -0.7691 C   0  0  0  0  0  0  0  0  0  0  0  0
    2.0461   -0.3044   -0.2361 C   0  0  0  0  0  0  0  0  0  0  0  0
    1.3135    0.0193    1.0712 C   0  0  0  0  0  0  0  0  0  0  0  0
   -3.0183   -1.3214    0.2709 H   0  0  0  0  0  0  0  0  0  0  0  0
   -2.8068    0.3580   -0.4016 H   0  0  0  0  0  0  0  0  0  0  0  0
   -1.8831   -0.9686   -1.1320 H   0  0  0  0  0  0  0  0  0  0  0  0
   -0.1948    1.5287   -1.4456 H   0  0  0  0  0  0  0  0  0  0  0  0
    0.6134    2.3081    0.0000 H   0  0  0  0  0  0  0  0  0  0  0  0
   -1.1426    1.9510    0.0021 H   0  0  0  0  0  0  0  0  0  0  0  0
    0.5157   -1.8234   -0.4765 H   0  0  0  0  0  0  0  0  0  0  0  0
    0.4929   -0.5121   -1.8182 H   0  0  0  0  0  0  0  0  0  0  0  0
    2.4138    0.6339   -0.7066 H   0  0  0  0  0  0  0  0  0  0  0  0
    2.7883   -1.1019   -0.1155 H   0  0  0  0  0  0  0  0  0  0  0  0
    1.7053    0.8979    1.5812 H   0  0  0  0  0  0  0  0  0  0  0  0
    1.2136   -0.9121    1.6867 H   0  0  0  0  0  0  0  0  0  0  0  0
  1  2  1  0
  2  3  2  0
  2  4  1  0
  4  5  1  0
  4  6  1  0
  6  7  1  0
  7  8  1  0
  8  4  1  0
  1  9  1  0
  1 10  1  0
  1 11  1  0
  5 12  1  0
  5 13  1  0
  5 14  1  0
  6 15  1  0
  6 16  1  0
  7 17  1  0
  7 18  1  0
  8 19  1  0
  8 20  1  0
M  END
