
     RDKit          3D

 18 17  0  0  0  0  0  0  0  0999 V2000
    2.9268    0.0158    0.9196 C   0  0  0  0  0  0  0  0  0  0  0  0
    1.7470    0.3738    0.1112 C   0  0  0  0  0  0  0  0  0  0  0  0
    1.8424    1.0728   -0.9497 O   0  0  0  0  0  0  0  0  0  0  0  0
    0.4456   -0.0162    0.4339 O   0  0  0  0  0  0  0  0  0  0  0  0
   -0.6683    0.3441   -0.3638 C   0  0  0  0  0  0  0  0  0  0  0  0
   -1.7009    1.1051    0.4386 C   0  0  0  0  0  0  0  0  0  0  0  0
   -1.3034   -0.9624   -0.8332 C   0  0  0  0  0  0  0  0  0  0  0  0
   -1.6986   -1.6982    0.2977 O   0  0  0  0  0  0  0  0  0  0  0  0
    3.6886   -0.5209    0.2925 H   0  0  0  0  0  0  0  0  0  0  0  0
    3.4266    0.8860    1.3818 H   0  0  0  0  0  0  0  0  0  0  0  0
    2.5867   -0.6339    1.7455 H   0  0  0  0  0  0  0  0  0  0  0  0
   -0.4047    0.9448   -1.2363 H   0  0  0  0  0  0  0  0  0  0  0  0
   -2.1687    0.4634    1.2170 H   0  0  0  0  0  0  0  0  0  0  0  0
   -2.4656    1.4618   -0.2790 H   0  0  0  0  0  0  0  0  0  0  0  0
   -1.2762    1.9917    0.9303 H   0  0  0  0  0  0  0  0  0  0  0  0
   -2.1700   -0.7773   -1.4984 H   0  0  0  0  0  0  0  0  0  0  0  0
   -0.5880   -1.5781   -1.4037 H   0  0  0  0  0  0  0  0  0  0  0  0
   -2.2193   -2.4723   -0.0587 H   0  0  0  0  0  0  0  0  0  0  0  0
  1  2  1  0
  2  3  2  0
  2  4  1  0
  4  5  1  0
  5  6  1  0
  5  7  1  0
  7  8  1  0
  1  9  1  0
  1 10  1  0
  1 11  1  0
  5 12  1  0
  6 13  1  0
  6 14  1  0
  6 15  1  0
  7 16  1  0
  7 17  1  0
  8 18  1  0
M  END
