
     RDKit          3D

 16 15  0  0  0  0  0  0  0  0999 V2000
    2.7791    0.0307   -0.1376 C   0  0  0  0  0  0  0  0  0  0  0  0
    1.4528   -0.3540    0.4034 C   0  0  0  0  0  0  0  0  0  0  0  0
    1.3077   -1.0403    1.4479 O   0  0  0  0  0  0  0  0  0  0  0  0
    0.3098    0.0476   -0.2516 O   0  0  0  0  0  0  0  0  0  0  0  0
   -0.9958   -0.2509    0.1583 C   0  0  0  0  0  0  0  0  0  0  0  0
   -1.7038    1.0969    0.3362 C   0  0  0  0  0  0  0  0  0  0  0  0
   -1.7664   -0.9491   -0.9300 C   0  0  0  0  0  0  0  0  0  0  0  0
   -2.9163   -1.2792   -0.7404 O   0  0  0  0  0  0  0  0  0  0  0  0
    3.6135   -0.4406    0.3850 H   0  0  0  0  0  0  0  0  0  0  0  0
    2.9030    1.1261   -0.0658 H   0  0  0  0  0  0  0  0  0  0  0  0
    2.8098   -0.2474   -1.2208 H   0  0  0  0  0  0  0  0  0  0  0  0
   -1.0366   -0.8536    1.0789 H   0  0  0  0  0  0  0  0  0  0  0  0
   -1.5961    1.5933   -0.6652 H   0  0  0  0  0  0  0  0  0  0  0  0
   -1.1165    1.6937    1.0552 H   0  0  0  0  0  0  0  0  0  0  0  0
   -2.7495    0.9794    0.6343 H   0  0  0  0  0  0  0  0  0  0  0  0
   -1.2945   -1.1525   -1.8714 H   0  0  0  0  0  0  0  0  0  0  0  0
  1  2  1  0
  2  3  2  0
  2  4  1  0
  4  5  1  0
  5  6  1  0
  5  7  1  0
  7  8  2  0
  1  9  1  0
  1 10  1  0
  1 11  1  0
  5 12  1  0
  6 13  1  0
  6 14  1  0
  6 15  1  0
  7 16  1  0
M  END
