
     RDKit          3D

 17 16  0  0  0  0  0  0  0  0999 V2000
   -2.8634    0.1966    0.0618 C   0  0  0  0  0  0  0  0  0  0  0  0
   -1.3877    0.1706   -0.0826 C   0  0  0  0  0  0  0  0  0  0  0  0
   -0.9013    0.6425   -1.0866 O   0  0  0  0  0  0  0  0  0  0  0  0
   -0.5152   -0.4026    0.9423 C   0  0  0  0  0  0  0  0  0  0  0  0
    0.9255   -0.3464    0.6628 C   0  0  0  0  0  0  0  0  0  0  0  0
    1.6532   -0.8800    1.5195 O   0  0  0  0  0  0  0  0  0  0  0  0
    1.5681    0.2666   -0.5057 C   0  0  0  0  0  0  0  0  0  0  0  0
    3.0399    0.1000   -0.4468 C   0  0  0  0  0  0  0  0  0  0  0  0
    3.5149   -0.4886    0.5043 O   0  0  0  0  0  0  0  0  0  0  0  0
   -3.1684    0.6886    1.0227 H   0  0  0  0  0  0  0  0  0  0  0  0
   -3.3241    0.7916   -0.7388 H   0  0  0  0  0  0  0  0  0  0  0  0
   -3.3099   -0.8305   -0.0111 H   0  0  0  0  0  0  0  0  0  0  0  0
   -0.7718   -1.4832    1.1066 H   0  0  0  0  0  0  0  0  0  0  0  0
   -0.6639    0.0753    1.9545 H   0  0  0  0  0  0  0  0  0  0  0  0
    1.2711    1.3227   -0.6677 H   0  0  0  0  0  0  0  0  0  0  0  0
    1.2104   -0.2937   -1.4178 H   0  0  0  0  0  0  0  0  0  0  0  0
    3.7225    0.4707   -1.2003 H   0  0  0  0  0  0  0  0  0  0  0  0
  1  2  1  0
  2  3  2  0
  2  4  1  0
  4  5  1  0
  5  6  2  0
  5  7  1  0
  7  8  1  0
  8  9  2  0
  1 10  1  0
  1 11  1  0
  1 12  1  0
  4 13  1  0
  4 14  1  0
  7 15  1  0
  7 16  1  0
  8 17  1  0
M  END
