
     RDKit          3D

 17 17  0  0  0  0  0  0  0  0999 V2000
   -3.1897    0.1129   -0.1993 C   0  0  0  0  0  0  0  0  0  0  0  0
   -1.8341   -0.2130    0.2734 C   0  0  0  0  0  0  0  0  0  0  0  0
   -1.6512   -0.5619    1.4830 O   0  0  0  0  0  0  0  0  0  0  0  0
   -0.6983   -0.1713   -0.5128 O   0  0  0  0  0  0  0  0  0  0  0  0
    0.5919   -0.4771   -0.0791 C   0  0  0  0  0  0  0  0  0  0  0  0
    1.6444   -0.9744   -0.9843 C   0  0  0  0  0  0  0  0  0  0  0  0
    1.6589    0.4684   -0.6692 C   0  0  0  0  0  0  0  0  0  0  0  0
    2.5311    1.0518    0.3497 C   0  0  0  0  0  0  0  0  0  0  0  0
    2.8700    2.2153    0.2336 O   0  0  0  0  0  0  0  0  0  0  0  0
   -3.8423    0.3485    0.6710 H   0  0  0  0  0  0  0  0  0  0  0  0
   -3.1822    1.0026   -0.8464 H   0  0  0  0  0  0  0  0  0  0  0  0
   -3.6777   -0.7669   -0.7049 H   0  0  0  0  0  0  0  0  0  0  0  0
    0.6931   -0.7744    0.9815 H   0  0  0  0  0  0  0  0  0  0  0  0
    2.4541   -1.6166   -0.5571 H   0  0  0  0  0  0  0  0  0  0  0  0
    1.3660   -1.3001   -2.0079 H   0  0  0  0  0  0  0  0  0  0  0  0
    1.3575    1.1308   -1.4934 H   0  0  0  0  0  0  0  0  0  0  0  0
    2.9085    0.5253    1.2163 H   0  0  0  0  0  0  0  0  0  0  0  0
  1  2  1  0
  2  3  2  0
  2  4  1  0
  4  5  1  0
  5  6  1  0
  6  7  1  0
  7  8  1  0
  8  9  2  0
  7  5  1  0
  1 10  1  0
  1 11  1  0
  1 12  1  0
  5 13  1  0
  6 14  1  0
  6 15  1  0
  7 16  1  0
  8 17  1  0
M  END
