
     RDKit          3D

 19 20  0  0  0  0  0  0  0  0999 V2000
    2.9021    0.1651   -0.0505 C   0  0  0  0  0  0  0  0  0  0  0  0
    1.6399   -0.5964   -0.1704 C   0  0  0  0  0  0  0  0  0  0  0  0
    1.6129   -1.7374    0.2294 O   0  0  0  0  0  0  0  0  0  0  0  0
    0.4429    0.0099   -0.7595 C   0  0  0  0  0  0  0  0  0  0  0  0
   -0.7513   -0.9306   -0.7942 C   0  0  0  0  0  0  0  0  0  0  0  0
   -1.5951    0.2002   -0.2896 C   0  0  0  0  0  0  0  0  0  0  0  0
   -2.8487    0.0785    0.2226 C   0  0  0  0  0  0  0  0  0  0  0  0
   -2.5536    0.7905   -1.0546 O   0  0  0  0  0  0  0  0  0  0  0  0
   -0.3757    0.8896    0.1843 C   0  0  0  0  0  0  0  0  0  0  0  0
    3.4180   -0.1797    0.8705 H   0  0  0  0  0  0  0  0  0  0  0  0
    3.6020   -0.0964   -0.8979 H   0  0  0  0  0  0  0  0  0  0  0  0
    2.7349    1.2626   -0.0128 H   0  0  0  0  0  0  0  0  0  0  0  0
    0.5776    0.4792   -1.7669 H   0  0  0  0  0  0  0  0  0  0  0  0
   -1.0159   -1.3333   -1.7724 H   0  0  0  0  0  0  0  0  0  0  0  0
   -0.6550   -1.7095    0.0062 H   0  0  0  0  0  0  0  0  0  0  0  0
   -3.2897    0.7923    0.9747 H   0  0  0  0  0  0  0  0  0  0  0  0
   -3.5087   -0.7977    0.0722 H   0  0  0  0  0  0  0  0  0  0  0  0
   -0.2315    1.9511   -0.1108 H   0  0  0  0  0  0  0  0  0  0  0  0
   -0.1052    0.7620    1.2528 H   0  0  0  0  0  0  0  0  0  0  0  0
  1  2  1  0
  2  3  2  0
  2  4  1  0
  4  5  1  0
  5  6  1  0
  6  7  1  0
  7  8  1  0
  6  9  1  0
  9  4  1  0
  8  6  1  0
  1 10  1  0
  1 11  1  0
  1 12  1  0
  4 13  1  0
  5 14  1  0
  5 15  1  0
  7 16  1  0
  7 17  1  0
  9 18  1  0
  9 19  1  0
M  END
