
     RDKit          3D

 19 20  0  0  0  0  0  0  0  0999 V2000
    2.9976   -0.0920    0.0403 C   0  0  0  0  0  0  0  0  0  0  0  0
    1.6342   -0.5460    0.3530 C   0  0  0  0  0  0  0  0  0  0  0  0
    1.4201   -1.3638    1.2326 O   0  0  0  0  0  0  0  0  0  0  0  0
    0.4207   -0.0464   -0.3739 C   0  0  0  0  0  0  0  0  0  0  0  0
   -0.6854   -0.8913   -0.7843 C   0  0  0  0  0  0  0  0  0  0  0  0
   -2.1506   -0.7435   -0.4507 C   0  0  0  0  0  0  0  0  0  0  0  0
   -1.6618   -0.7918    0.8804 O   0  0  0  0  0  0  0  0  0  0  0  0
   -0.7539    0.1356    0.4097 C   0  0  0  0  0  0  0  0  0  0  0  0
   -1.4431    1.4596    0.1470 C   0  0  0  0  0  0  0  0  0  0  0  0
    3.4514    0.3522    0.9437 H   0  0  0  0  0  0  0  0  0  0  0  0
    2.9376    0.6804   -0.7361 H   0  0  0  0  0  0  0  0  0  0  0  0
    3.5650   -0.9748   -0.3328 H   0  0  0  0  0  0  0  0  0  0  0  0
    0.7228    0.7025   -1.1696 H   0  0  0  0  0  0  0  0  0  0  0  0
   -0.4257   -1.9567   -0.4869 H   0  0  0  0  0  0  0  0  0  0  0  0
   -2.7702   -1.6244   -0.6322 H   0  0  0  0  0  0  0  0  0  0  0  0
   -2.6699    0.1427   -0.7609 H   0  0  0  0  0  0  0  0  0  0  0  0
   -2.3992    1.5856    0.6426 H   0  0  0  0  0  0  0  0  0  0  0  0
   -0.7604    2.2315    0.6190 H   0  0  0  0  0  0  0  0  0  0  0  0
   -1.4291    1.7406   -0.9357 H   0  0  0  0  0  0  0  0  0  0  0  0
  1  2  1  0
  2  3  2  0
  2  4  1  0
  4  5  1  0
  5  6  1  0
  6  7  1  0
  7  8  1  0
  8  9  1  0
  8  4  1  0
  8  5  1  0
  1 10  1  0
  1 11  1  0
  1 12  1  0
  4 13  1  0
  5 14  1  0
  6 15  1  0
  6 16  1  0
  9 17  1  0
  9 18  1  0
  9 19  1  0
M  END
