
     RDKit          3D

 21 21  0  0  0  0  0  0  0  0999 V2000
    2.9421   -0.3370    0.0508 C   0  0  0  0  0  0  0  0  0  0  0  0
    1.7808    0.5616   -0.2198 C   0  0  0  0  0  0  0  0  0  0  0  0
    2.0012    1.7500   -0.4742 O   0  0  0  0  0  0  0  0  0  0  0  0
    0.4365   -0.0007   -0.1723 C   0  0  0  0  0  0  0  0  0  0  0  0
    0.1040   -1.2488    0.0890 C   0  0  0  0  0  0  0  0  0  0  0  0
   -1.3599   -1.3864    0.0346 C   0  0  0  0  0  0  0  0  0  0  0  0
   -1.7797   -0.2879   -0.8835 C   0  0  0  0  0  0  0  0  0  0  0  0
   -0.8046    0.8139   -0.4359 C   0  0  0  0  0  0  0  0  0  0  0  0
   -1.2627    1.4328    0.8670 C   0  0  0  0  0  0  0  0  0  0  0  0
    2.9819   -1.1405   -0.7162 H   0  0  0  0  0  0  0  0  0  0  0  0
    3.8951    0.2304    0.0474 H   0  0  0  0  0  0  0  0  0  0  0  0
    2.7942   -0.8691    1.0324 H   0  0  0  0  0  0  0  0  0  0  0  0
    0.8543   -2.0126    0.3045 H   0  0  0  0  0  0  0  0  0  0  0  0
   -1.6950   -2.3898   -0.2902 H   0  0  0  0  0  0  0  0  0  0  0  0
   -1.7641   -1.1414    1.0532 H   0  0  0  0  0  0  0  0  0  0  0  0
   -2.8001    0.0948   -0.6755 H   0  0  0  0  0  0  0  0  0  0  0  0
   -1.6953   -0.4990   -1.9453 H   0  0  0  0  0  0  0  0  0  0  0  0
   -0.6039    1.5343   -1.2246 H   0  0  0  0  0  0  0  0  0  0  0  0
   -2.2139    1.0001    1.2367 H   0  0  0  0  0  0  0  0  0  0  0  0
   -0.4594    1.3577    1.6525 H   0  0  0  0  0  0  0  0  0  0  0  0
   -1.3515    2.5377    0.6695 H   0  0  0  0  0  0  0  0  0  0  0  0
  1  2  1  0
  2  3  2  0
  2  4  1  0
  4  5  2  0
  5  6  1  0
  6  7  1  0
  7  8  1  0
  8  9  1  0
  8  4  1  0
  1 10  1  0
  1 11  1  0
  1 12  1  0
  5 13  1  0
  6 14  1  0
  6 15  1  0
  7 16  1  0
  7 17  1  0
  8 18  1  0
  9 19  1  0
  9 20  1  0
  9 21  1  0
M  END
