
     RDKit          3D

 17 17  0  0  0  0  0  0  0  0999 V2000
    2.3848   -0.4024   -0.0582 C   0  0  0  0  0  0  0  0  0  0  0  0
    0.9653   -0.6880    0.2341 C   0  0  0  0  0  0  0  0  0  0  0  0
    0.6817   -1.7519    0.7314 O   0  0  0  0  0  0  0  0  0  0  0  0
   -0.0935    0.2949   -0.0692 C   0  0  0  0  0  0  0  0  0  0  0  0
    0.2896    1.5042   -0.6417 O   0  0  0  0  0  0  0  0  0  0  0  0
   -1.3585    0.3235    0.7021 C   0  0  0  0  0  0  0  0  0  0  0  0
   -2.0087    1.5565    0.8459 O   0  0  0  0  0  0  0  0  0  0  0  0
   -1.3987   -0.2924   -0.6549 C   0  0  0  0  0  0  0  0  0  0  0  0
   -1.4906   -1.6867   -0.7040 O   0  0  0  0  0  0  0  0  0  0  0  0
    2.5546   -0.1921   -1.1513 H   0  0  0  0  0  0  0  0  0  0  0  0
    2.7526    0.5093    0.4636 H   0  0  0  0  0  0  0  0  0  0  0  0
    3.0498   -1.2238    0.2459 H   0  0  0  0  0  0  0  0  0  0  0  0
    0.9015    2.0188   -0.0863 H   0  0  0  0  0  0  0  0  0  0  0  0
   -1.5111   -0.3452    1.5693 H   0  0  0  0  0  0  0  0  0  0  0  0
   -1.7631    2.0735    0.0207 H   0  0  0  0  0  0  0  0  0  0  0  0
   -1.8602    0.2418   -1.4995 H   0  0  0  0  0  0  0  0  0  0  0  0
   -2.0954   -1.9400    0.0520 H   0  0  0  0  0  0  0  0  0  0  0  0
  1  2  1  0
  2  3  2  0
  2  4  1  0
  4  5  1  0
  4  6  1  0
  6  7  1  0
  6  8  1  0
  8  9  1  0
  8  4  1  0
  1 10  1  0
  1 11  1  0
  1 12  1  0
  5 13  1  0
  6 14  1  0
  7 15  1  0
  8 16  1  0
  9 17  1  0
M  END
