
     RDKit          3D

 18 17  0  0  0  0  0  0  0  0999 V2000
   -3.0148    0.5291    0.3702 C   0  0  0  0  0  0  0  0  0  0  0  0
   -1.9350   -0.4332    0.6659 C   0  0  0  0  0  0  0  0  0  0  0  0
   -2.0950   -1.4142    1.3505 O   0  0  0  0  0  0  0  0  0  0  0  0
   -0.5801   -0.1949    0.0999 C   0  0  0  0  0  0  0  0  0  0  0  0
    0.3244   -1.1562    0.4480 O   0  0  0  0  0  0  0  0  0  0  0  0
    1.5502   -0.9068   -0.1283 C   0  0  0  0  0  0  0  0  0  0  0  0
    2.1768    0.3986    0.2599 C   0  0  0  0  0  0  0  0  0  0  0  0
    3.4197    0.5613   -0.3664 O   0  0  0  0  0  0  0  0  0  0  0  0
   -2.6433    1.5303    0.1039 H   0  0  0  0  0  0  0  0  0  0  0  0
   -3.6610    0.6494    1.2675 H   0  0  0  0  0  0  0  0  0  0  0  0
   -3.6256    0.1786   -0.5020 H   0  0  0  0  0  0  0  0  0  0  0  0
   -0.2250    0.7721    0.5645 H   0  0  0  0  0  0  0  0  0  0  0  0
   -0.6974   -0.0496   -0.9959 H   0  0  0  0  0  0  0  0  0  0  0  0
    1.4581   -0.9179   -1.2399 H   0  0  0  0  0  0  0  0  0  0  0  0
    2.2455   -1.7310    0.1433 H   0  0  0  0  0  0  0  0  0  0  0  0
    2.3553    0.5032    1.3478 H   0  0  0  0  0  0  0  0  0  0  0  0
    1.5619    1.2739   -0.0999 H   0  0  0  0  0  0  0  0  0  0  0  0
    3.3854    0.4074   -1.3316 H   0  0  0  0  0  0  0  0  0  0  0  0
  1  2  1  0
  2  3  2  0
  2  4  1  0
  4  5  1  0
  5  6  1  0
  6  7  1  0
  7  8  1  0
  1  9  1  0
  1 10  1  0
  1 11  1  0
  4 12  1  0
  4 13  1  0
  6 14  1  0
  6 15  1  0
  7 16  1  0
  7 17  1  0
  8 18  1  0
M  END
