
     RDKit          3D

 14 14  0  0  0  0  0  0  0  0999 V2000
    1.8080    0.2410    0.2494 C   0  0  0  0  0  0  0  0  0  0  0  0
    0.4565    0.4541    0.8831 C   0  0  0  0  0  0  0  0  0  0  0  0
    0.3469    0.8870    2.0019 O   0  0  0  0  0  0  0  0  0  0  0  0
   -0.7057    0.0822    0.0323 C   0  0  0  0  0  0  0  0  0  0  0  0
   -0.8749    0.9342   -1.1430 C   0  0  0  0  0  0  0  0  0  0  0  0
   -0.9655    0.5978   -2.2665 O   0  0  0  0  0  0  0  0  0  0  0  0
   -1.1290   -1.3171    0.0855 C   0  0  0  0  0  0  0  0  0  0  0  0
   -1.8917   -0.2270    0.7012 O   0  0  0  0  0  0  0  0  0  0  0  0
    1.7225   -0.9051   -0.0145 H   0  0  0  0  0  0  0  0  0  0  0  0
    2.6180    0.2853    0.9660 H   0  0  0  0  0  0  0  0  0  0  0  0
    1.8773    0.6950   -0.6990 H   0  0  0  0  0  0  0  0  0  0  0  0
   -0.9116    2.0376   -0.8657 H   0  0  0  0  0  0  0  0  0  0  0  0
   -0.6475   -1.9695    0.8211 H   0  0  0  0  0  0  0  0  0  0  0  0
   -1.7034   -1.7956   -0.7518 H   0  0  0  0  0  0  0  0  0  0  0  0
  1  2  1  0
  2  3  2  0
  2  4  1  0
  4  5  1  0
  5  6  2  0
  4  7  1  0
  7  8  1  0
  8  4  1  0
  1  9  1  0
  1 10  1  0
  1 11  1  0
  5 12  1  0
  7 13  1  0
  7 14  1  0
M  END
