
     RDKit          3D

 19 19  0  0  0  0  0  0  0  0999 V2000
    3.8346   -1.2406    0.6132 C   0  0  0  0  0  0  0  0  0  0  0  0
    2.4400   -1.7286    0.7495 C   0  0  0  0  0  0  0  0  0  0  0  0
    2.1778   -2.9279    1.0056 O   0  0  0  0  0  0  0  0  0  0  0  0
    1.3418   -0.8233    0.5884 C   0  0  0  0  0  0  0  0  0  0  0  0
    0.4285   -0.0442    0.4520 C   0  0  0  0  0  0  0  0  0  0  0  0
   -0.6781    0.8958    0.2635 C   0  0  0  0  0  0  0  0  0  0  0  0
   -1.1728    1.1158   -1.1823 C   0  0  0  0  0  0  0  0  0  0  0  0
   -1.9756    0.3085   -0.1436 C   0  0  0  0  0  0  0  0  0  0  0  0
   -3.2750    0.9218    0.3489 C   0  0  0  0  0  0  0  0  0  0  0  0
    4.5069   -2.0816    0.8218 H   0  0  0  0  0  0  0  0  0  0  0  0
    3.9679   -1.0148   -0.4858 H   0  0  0  0  0  0  0  0  0  0  0  0
    4.0260   -0.3418    1.2277 H   0  0  0  0  0  0  0  0  0  0  0  0
   -0.6578    1.8399    0.8732 H   0  0  0  0  0  0  0  0  0  0  0  0
   -0.6604    0.5434   -1.9774 H   0  0  0  0  0  0  0  0  0  0  0  0
   -1.5739    2.1237   -1.4277 H   0  0  0  0  0  0  0  0  0  0  0  0
   -2.0037   -0.7798   -0.3366 H   0  0  0  0  0  0  0  0  0  0  0  0
   -3.4139    1.8798   -0.1880 H   0  0  0  0  0  0  0  0  0  0  0  0
   -3.1962    1.1350    1.4521 H   0  0  0  0  0  0  0  0  0  0  0  0
   -4.1161    0.2188    0.1990 H   0  0  0  0  0  0  0  0  0  0  0  0
  1  2  1  0
  2  3  2  0
  2  4  1  0
  4  5  3  0
  5  6  1  0
  6  7  1  0
  7  8  1  0
  8  9  1  0
  8  6  1  0
  1 10  1  0
  1 11  1  0
  1 12  1  0
  6 13  1  0
  7 14  1  0
  7 15  1  0
  8 16  1  0
  9 17  1  0
  9 18  1  0
  9 19  1  0
M  END
