
     RDKit          3D

 19 18  0  0  0  0  0  0  0  0999 V2000
    1.8960    0.8304   -0.0753 C   0  0  0  0  0  0  0  0  0  0  0  0
    1.2854   -0.4547    0.3267 C   0  0  0  0  0  0  0  0  0  0  0  0
    1.7246   -1.0419    1.2919 O   0  0  0  0  0  0  0  0  0  0  0  0
    0.1531   -1.0487   -0.4126 C   0  0  0  0  0  0  0  0  0  0  0  0
   -0.2545   -2.2612    0.1502 O   0  0  0  0  0  0  0  0  0  0  0  0
   -1.0634   -0.1466   -0.4136 C   0  0  0  0  0  0  0  0  0  0  0  0
   -1.5529    0.1345    0.9863 C   0  0  0  0  0  0  0  0  0  0  0  0
   -0.8189    1.1399   -1.0995 C   0  0  0  0  0  0  0  0  0  0  0  0
   -0.8211    1.2042   -2.3085 O   0  0  0  0  0  0  0  0  0  0  0  0
    1.6471    1.1400   -1.0977 H   0  0  0  0  0  0  0  0  0  0  0  0
    3.0106    0.6896   -0.0485 H   0  0  0  0  0  0  0  0  0  0  0  0
    1.6488    1.6383    0.6442 H   0  0  0  0  0  0  0  0  0  0  0  0
    0.4409   -1.2806   -1.4584 H   0  0  0  0  0  0  0  0  0  0  0  0
    0.3494   -2.4780    0.9134 H   0  0  0  0  0  0  0  0  0  0  0  0
   -1.8807   -0.7379   -0.9170 H   0  0  0  0  0  0  0  0  0  0  0  0
   -2.4984   -0.4099    1.2265 H   0  0  0  0  0  0  0  0  0  0  0  0
   -1.8199    1.2217    1.0933 H   0  0  0  0  0  0  0  0  0  0  0  0
   -0.8115   -0.1813    1.7410 H   0  0  0  0  0  0  0  0  0  0  0  0
   -0.6346    2.0423   -0.5425 H   0  0  0  0  0  0  0  0  0  0  0  0
  1  2  1  0
  2  3  2  0
  2  4  1  0
  4  5  1  0
  4  6  1  0
  6  7  1  0
  6  8  1  0
  8  9  2  0
  1 10  1  0
  1 11  1  0
  1 12  1  0
  4 13  1  0
  5 14  1  0
  6 15  1  0
  7 16  1  0
  7 17  1  0
  7 18  1  0
  8 19  1  0
M  END
