
     RDKit          3D

 23 23  0  0  0  0  0  0  0  0999 V2000
    2.8557    0.7354   -0.2177 C   0  0  0  0  0  0  0  0  0  0  0  0
    1.6919   -0.1731   -0.4390 C   0  0  0  0  0  0  0  0  0  0  0  0
    1.5971   -0.7924   -1.4793 O   0  0  0  0  0  0  0  0  0  0  0  0
    0.6169   -0.3632    0.5728 C   0  0  0  0  0  0  0  0  0  0  0  0
   -0.0485    0.9270    0.8506 C   0  0  0  0  0  0  0  0  0  0  0  0
   -1.3348    1.2028    0.1567 C   0  0  0  0  0  0  0  0  0  0  0  0
   -2.1986   -0.0077   -0.0597 C   0  0  0  0  0  0  0  0  0  0  0  0
   -1.4653   -1.1882   -0.5784 C   0  0  0  0  0  0  0  0  0  0  0  0
   -0.2250   -1.5133    0.1988 C   0  0  0  0  0  0  0  0  0  0  0  0
    2.6131    1.7369   -0.6456 H   0  0  0  0  0  0  0  0  0  0  0  0
    3.7417    0.2826   -0.6962 H   0  0  0  0  0  0  0  0  0  0  0  0
    2.9681    0.8566    0.8806 H   0  0  0  0  0  0  0  0  0  0  0  0
    1.1752   -0.6641    1.5151 H   0  0  0  0  0  0  0  0  0  0  0  0
   -0.2144    1.0541    1.9427 H   0  0  0  0  0  0  0  0  0  0  0  0
    0.6538    1.7545    0.5803 H   0  0  0  0  0  0  0  0  0  0  0  0
   -1.1878    1.6915   -0.8326 H   0  0  0  0  0  0  0  0  0  0  0  0
   -1.9445    1.9246    0.7487 H   0  0  0  0  0  0  0  0  0  0  0  0
   -2.9684    0.2869   -0.8307 H   0  0  0  0  0  0  0  0  0  0  0  0
   -2.7977   -0.2563    0.8474 H   0  0  0  0  0  0  0  0  0  0  0  0
   -1.2035   -1.0675   -1.6491 H   0  0  0  0  0  0  0  0  0  0  0  0
   -2.1432   -2.0710   -0.5195 H   0  0  0  0  0  0  0  0  0  0  0  0
    0.3563   -2.2376   -0.4405 H   0  0  0  0  0  0  0  0  0  0  0  0
   -0.5380   -2.1185    1.0811 H   0  0  0  0  0  0  0  0  0  0  0  0
  1  2  1  0
  2  3  2  0
  2  4  1  0
  4  5  1  0
  5  6  1  0
  6  7  1  0
  7  8  1  0
  8  9  1  0
  9  4  1  0
  1 10  1  0
  1 11  1  0
  1 12  1  0
  4 13  1  0
  5 14  1  0
  5 15  1  0
  6 16  1  0
  6 17  1  0
  7 18  1  0
  7 19  1  0
  8 20  1  0
  8 21  1  0
  9 22  1  0
  9 23  1  0
M  END
