
     RDKit          3D

 19 20  0  0  0  0  0  0  0  0999 V2000
    2.4859   -0.4043   -0.1565 C   0  0  0  0  0  0  0  0  0  0  0  0
    1.3200   -0.3892    0.7410 C   0  0  0  0  0  0  0  0  0  0  0  0
    1.4012   -1.0208    1.7777 O   0  0  0  0  0  0  0  0  0  0  0  0
    0.0528    0.3317    0.4885 C   0  0  0  0  0  0  0  0  0  0  0  0
   -1.0321    0.2380    1.5117 C   0  0  0  0  0  0  0  0  0  0  0  0
   -2.1664    0.5994    0.7471 O   0  0  0  0  0  0  0  0  0  0  0  0
   -2.1190   -0.3592   -0.2859 C   0  0  0  0  0  0  0  0  0  0  0  0
   -0.6867   -0.1762   -0.7700 C   0  0  0  0  0  0  0  0  0  0  0  0
   -0.1346    1.1868   -0.7003 C   0  0  0  0  0  0  0  0  0  0  0  0
    3.3876    0.0173    0.3469 H   0  0  0  0  0  0  0  0  0  0  0  0
    2.7753   -1.4197   -0.4965 H   0  0  0  0  0  0  0  0  0  0  0  0
    2.3368    0.2083   -1.0738 H   0  0  0  0  0  0  0  0  0  0  0  0
   -1.2286   -0.8141    1.8443 H   0  0  0  0  0  0  0  0  0  0  0  0
   -0.9290    0.9250    2.3553 H   0  0  0  0  0  0  0  0  0  0  0  0
   -2.2665   -1.3328    0.1970 H   0  0  0  0  0  0  0  0  0  0  0  0
   -2.8205   -0.1303   -1.0869 H   0  0  0  0  0  0  0  0  0  0  0  0
   -0.2364   -0.9740   -1.3534 H   0  0  0  0  0  0  0  0  0  0  0  0
    0.7398    1.5020   -1.2948 H   0  0  0  0  0  0  0  0  0  0  0  0
   -0.8796    2.0120   -0.5809 H   0  0  0  0  0  0  0  0  0  0  0  0
  1  2  1  0
  2  3  2  0
  2  4  1  0
  4  5  1  0
  5  6  1  0
  6  7  1  0
  7  8  1  0
  8  9  1  0
  8  4  1  0
  9  4  1  0
  1 10  1  0
  1 11  1  0
  1 12  1  0
  5 13  1  0
  5 14  1  0
  7 15  1  0
  7 16  1  0
  8 17  1  0
  9 18  1  0
  9 19  1  0
M  END
