
     RDKit          3D

 21 21  0  0  0  0  0  0  0  0999 V2000
    3.0865   -0.5924    0.5632 C   0  0  0  0  0  0  0  0  0  0  0  0
    1.8686   -0.9365   -0.1874 C   0  0  0  0  0  0  0  0  0  0  0  0
    1.9949   -1.3436   -1.3392 O   0  0  0  0  0  0  0  0  0  0  0  0
    0.4842   -0.8229    0.3614 C   0  0  0  0  0  0  0  0  0  0  0  0
   -0.1041    0.4496   -0.2063 C   0  0  0  0  0  0  0  0  0  0  0  0
   -1.4707    0.8691    0.1330 C   0  0  0  0  0  0  0  0  0  0  0  0
   -2.4614   -0.0422    0.7964 C   0  0  0  0  0  0  0  0  0  0  0  0
   -1.0735    0.4496   -1.3044 C   0  0  0  0  0  0  0  0  0  0  0  0
   -1.0002    1.5052   -2.2422 O   0  0  0  0  0  0  0  0  0  0  0  0
    3.7505   -1.4776    0.7528 H   0  0  0  0  0  0  0  0  0  0  0  0
    2.8212   -0.0869    1.5089 H   0  0  0  0  0  0  0  0  0  0  0  0
    3.6781    0.1355   -0.0632 H   0  0  0  0  0  0  0  0  0  0  0  0
    0.5343   -0.6834    1.4632 H   0  0  0  0  0  0  0  0  0  0  0  0
   -0.1347   -1.7083    0.1582 H   0  0  0  0  0  0  0  0  0  0  0  0
    0.6552    1.2867   -0.2174 H   0  0  0  0  0  0  0  0  0  0  0  0
   -1.6967    1.9523    0.2706 H   0  0  0  0  0  0  0  0  0  0  0  0
   -2.4467   -1.0794    0.4133 H   0  0  0  0  0  0  0  0  0  0  0  0
   -2.3249   -0.0893    1.9127 H   0  0  0  0  0  0  0  0  0  0  0  0
   -3.4782    0.3643    0.5624 H   0  0  0  0  0  0  0  0  0  0  0  0
   -1.5181   -0.5076   -1.6767 H   0  0  0  0  0  0  0  0  0  0  0  0
   -1.1641    2.3580   -1.7627 H   0  0  0  0  0  0  0  0  0  0  0  0
  1  2  1  0
  2  3  2  0
  2  4  1  0
  4  5  1  0
  5  6  1  0
  6  7  1  0
  6  8  1  0
  8  9  1  0
  8  5  1  0
  1 10  1  0
  1 11  1  0
  1 12  1  0
  4 13  1  0
  4 14  1  0
  5 15  1  0
  6 16  1  0
  7 17  1  0
  7 18  1  0
  7 19  1  0
  8 20  1  0
  9 21  1  0
M  END
