
     RDKit          3D

 19 19  0  0  0  0  0  0  0  0999 V2000
    2.8346   -0.3825    0.2418 C   0  0  0  0  0  0  0  0  0  0  0  0
    1.7204   -0.5495   -0.7098 C   0  0  0  0  0  0  0  0  0  0  0  0
    1.7784   -1.4318   -1.5266 O   0  0  0  0  0  0  0  0  0  0  0  0
    0.5672    0.3299   -0.6716 C   0  0  0  0  0  0  0  0  0  0  0  0
   -0.2451    0.3717    0.5916 C   0  0  0  0  0  0  0  0  0  0  0  0
   -1.4487    0.5773   -0.3386 C   0  0  0  0  0  0  0  0  0  0  0  0
   -2.7125   -0.0617    0.1131 C   0  0  0  0  0  0  0  0  0  0  0  0
   -0.6691   -0.1815   -1.3699 C   0  0  0  0  0  0  0  0  0  0  0  0
   -0.8795   -0.8917   -2.3370 O   0  0  0  0  0  0  0  0  0  0  0  0
    2.4163   -0.0257    1.2015 H   0  0  0  0  0  0  0  0  0  0  0  0
    3.4361   -1.3056    0.3540 H   0  0  0  0  0  0  0  0  0  0  0  0
    3.5289    0.3806   -0.2200 H   0  0  0  0  0  0  0  0  0  0  0  0
    0.7679    1.3876   -1.0112 H   0  0  0  0  0  0  0  0  0  0  0  0
   -0.3087   -0.5571    1.1731 H   0  0  0  0  0  0  0  0  0  0  0  0
   -0.0672    1.2645    1.2158 H   0  0  0  0  0  0  0  0  0  0  0  0
   -1.5426    1.6504   -0.6449 H   0  0  0  0  0  0  0  0  0  0  0  0
   -2.9322   -0.9896   -0.4398 H   0  0  0  0  0  0  0  0  0  0  0  0
   -3.5617    0.6548   -0.0718 H   0  0  0  0  0  0  0  0  0  0  0  0
   -2.6826   -0.2401    1.2188 H   0  0  0  0  0  0  0  0  0  0  0  0
  1  2  1  0
  2  3  2  0
  2  4  1  0
  4  5  1  0
  5  6  1  0
  6  7  1  0
  6  8  1  0
  8  9  2  0
  8  4  1  0
  1 10  1  0
  1 11  1  0
  1 12  1  0
  4 13  1  0
  5 14  1  0
  5 15  1  0
  6 16  1  0
  7 17  1  0
  7 18  1  0
  7 19  1  0
M  END
