
     RDKit          3D

 21 21  0  0  0  0  0  0  0  0999 V2000
   -2.0596    1.3151    0.2168 C   0  0  0  0  0  0  0  0  0  0  0  0
   -1.0880    0.4663   -0.5138 C   0  0  0  0  0  0  0  0  0  0  0  0
   -0.9929    0.6437   -1.7179 O   0  0  0  0  0  0  0  0  0  0  0  0
   -0.2589   -0.5499    0.1323 C   0  0  0  0  0  0  0  0  0  0  0  0
   -0.5871   -1.9519   -0.3496 C   0  0  0  0  0  0  0  0  0  0  0  0
   -0.5693   -0.5433    1.5132 O   0  0  0  0  0  0  0  0  0  0  0  0
    1.2132   -0.3303    0.0190 C   0  0  0  0  0  0  0  0  0  0  0  0
    1.8450    0.9129    0.5723 C   0  0  0  0  0  0  0  0  0  0  0  0
    1.8171    0.6262   -0.9157 C   0  0  0  0  0  0  0  0  0  0  0  0
   -1.8733    2.4045   -0.0033 H   0  0  0  0  0  0  0  0  0  0  0  0
   -2.0464    1.1344    1.3095 H   0  0  0  0  0  0  0  0  0  0  0  0
   -3.1123    1.1423   -0.1152 H   0  0  0  0  0  0  0  0  0  0  0  0
    0.1062   -2.6732    0.0883 H   0  0  0  0  0  0  0  0  0  0  0  0
   -0.5352   -1.9930   -1.4459 H   0  0  0  0  0  0  0  0  0  0  0  0
   -1.6162   -2.2555   -0.0090 H   0  0  0  0  0  0  0  0  0  0  0  0
   -0.1754   -1.3967    1.8582 H   0  0  0  0  0  0  0  0  0  0  0  0
    1.8189   -1.2543    0.2169 H   0  0  0  0  0  0  0  0  0  0  0  0
    2.8121    0.8520    1.1151 H   0  0  0  0  0  0  0  0  0  0  0  0
    1.2156    1.7517    0.9240 H   0  0  0  0  0  0  0  0  0  0  0  0
    1.2461    1.2961   -1.5620 H   0  0  0  0  0  0  0  0  0  0  0  0
    2.8404    0.4029   -1.3333 H   0  0  0  0  0  0  0  0  0  0  0  0
  1  2  1  0
  2  3  2  0
  2  4  1  0
  4  5  1  0
  4  6  1  0
  4  7  1  0
  7  8  1  0
  8  9  1  0
  9  7  1  0
  1 10  1  0
  1 11  1  0
  1 12  1  0
  5 13  1  0
  5 14  1  0
  5 15  1  0
  6 16  1  0
  7 17  1  0
  8 18  1  0
  8 19  1  0
  9 20  1  0
  9 21  1  0
M  END
