
     RDKit          3D

 19 20  0  0  0  0  0  0  0  0999 V2000
    2.2061   -0.4694   -0.5179 C   0  0  0  0  0  0  0  0  0  0  0  0
    0.9545    0.1588   -0.9646 C   0  0  0  0  0  0  0  0  0  0  0  0
    0.9275    0.6136   -2.1077 O   0  0  0  0  0  0  0  0  0  0  0  0
   -0.2272    0.2376   -0.0649 C   0  0  0  0  0  0  0  0  0  0  0  0
    0.0578    0.9902    1.1672 C   0  0  0  0  0  0  0  0  0  0  0  0
   -0.9187   -1.1275    0.1334 C   0  0  0  0  0  0  0  0  0  0  0  0
   -2.1136   -0.2686    0.3996 C   0  0  0  0  0  0  0  0  0  0  0  0
   -2.7334    0.6014   -0.3772 O   0  0  0  0  0  0  0  0  0  0  0  0
   -1.4947    0.5045   -0.8057 C   0  0  0  0  0  0  0  0  0  0  0  0
    2.5168   -1.3424   -1.1177 H   0  0  0  0  0  0  0  0  0  0  0  0
    2.1592   -0.6900    0.5699 H   0  0  0  0  0  0  0  0  0  0  0  0
    3.0218    0.2968   -0.6650 H   0  0  0  0  0  0  0  0  0  0  0  0
   -0.5445    1.9447    1.1621 H   0  0  0  0  0  0  0  0  0  0  0  0
    1.1225    1.3447    1.1898 H   0  0  0  0  0  0  0  0  0  0  0  0
   -0.0737    0.4296    2.1152 H   0  0  0  0  0  0  0  0  0  0  0  0
   -0.4927   -1.6102    1.0026 H   0  0  0  0  0  0  0  0  0  0  0  0
   -0.9060   -1.7259   -0.7714 H   0  0  0  0  0  0  0  0  0  0  0  0
   -1.9786    0.2331    1.4117 H   0  0  0  0  0  0  0  0  0  0  0  0
   -1.4831   -0.1212   -1.7597 H   0  0  0  0  0  0  0  0  0  0  0  0
  1  2  1  0
  2  3  2  0
  2  4  1  0
  4  5  1  0
  4  6  1  0
  6  7  1  0
  7  8  1  0
  8  9  1  0
  9  4  1  0
  9  7  1  0
  1 10  1  0
  1 11  1  0
  1 12  1  0
  5 13  1  0
  5 14  1  0
  5 15  1  0
  6 16  1  0
  6 17  1  0
  7 18  1  0
  9 19  1  0
M  END
