
     RDKit          3D

 19 19  0  0  0  0  0  0  0  0999 V2000
   -2.2206   -1.0169   -0.0548 C   0  0  0  0  0  0  0  0  0  0  0  0
   -1.6873    0.3713   -0.0134 C   0  0  0  0  0  0  0  0  0  0  0  0
   -2.5003    1.2755   -0.0766 O   0  0  0  0  0  0  0  0  0  0  0  0
   -0.2366    0.6074    0.0994 C   0  0  0  0  0  0  0  0  0  0  0  0
    0.7085   -0.5518    0.1729 C   0  0  0  0  0  0  0  0  0  0  0  0
    2.1275   -0.0677    0.0770 C   0  0  0  0  0  0  0  0  0  0  0  0
    0.5135   -1.4877   -0.8137 O   0  0  0  0  0  0  0  0  0  0  0  0
    0.2643    1.9299   -0.1894 C   0  0  0  0  0  0  0  0  0  0  0  0
    0.0437    1.5407    1.1766 O   0  0  0  0  0  0  0  0  0  0  0  0
   -1.8190   -1.6030   -0.9124 H   0  0  0  0  0  0  0  0  0  0  0  0
   -1.9415   -1.4838    0.9286 H   0  0  0  0  0  0  0  0  0  0  0  0
   -3.3225   -1.0449   -0.1570 H   0  0  0  0  0  0  0  0  0  0  0  0
    0.5899   -1.0241    1.1768 H   0  0  0  0  0  0  0  0  0  0  0  0
    2.3601    0.3315   -0.9410 H   0  0  0  0  0  0  0  0  0  0  0  0
    2.7879   -0.9448    0.2259 H   0  0  0  0  0  0  0  0  0  0  0  0
    2.3790    0.6634    0.8683 H   0  0  0  0  0  0  0  0  0  0  0  0
    1.0544   -2.2884   -0.6029 H   0  0  0  0  0  0  0  0  0  0  0  0
    1.3531    2.1044   -0.3907 H   0  0  0  0  0  0  0  0  0  0  0  0
   -0.4542    2.6891   -0.5736 H   0  0  0  0  0  0  0  0  0  0  0  0
  1  2  1  0
  2  3  2  0
  2  4  1  0
  4  5  1  0
  5  6  1  0
  5  7  1  0
  4  8  1  0
  8  9  1  0
  9  4  1  0
  1 10  1  0
  1 11  1  0
  1 12  1  0
  5 13  1  0
  6 14  1  0
  6 15  1  0
  6 16  1  0
  7 17  1  0
  8 18  1  0
  8 19  1  0
M  END
