
     RDKit          3D

 19 19  0  0  0  0  0  0  0  0999 V2000
    2.2588   -0.4000   -0.0018 C   0  0  0  0  0  0  0  0  0  0  0  0
    0.9662   -0.3656    0.6977 C   0  0  0  0  0  0  0  0  0  0  0  0
    0.8830   -0.9116    1.7839 O   0  0  0  0  0  0  0  0  0  0  0  0
   -0.2482    0.2992    0.1535 C   0  0  0  0  0  0  0  0  0  0  0  0
   -0.0088    1.7773   -0.0804 C   0  0  0  0  0  0  0  0  0  0  0  0
   -0.7350   -0.3876   -1.1042 C   0  0  0  0  0  0  0  0  0  0  0  0
   -1.8960   -1.0456   -0.7648 O   0  0  0  0  0  0  0  0  0  0  0  0
   -2.0672   -0.9135    0.6066 C   0  0  0  0  0  0  0  0  0  0  0  0
   -1.3149    0.1790    1.0127 O   0  0  0  0  0  0  0  0  0  0  0  0
    2.2985   -1.3594   -0.5875 H   0  0  0  0  0  0  0  0  0  0  0  0
    2.4525    0.4661   -0.6499 H   0  0  0  0  0  0  0  0  0  0  0  0
    3.0785   -0.4734    0.7432 H   0  0  0  0  0  0  0  0  0  0  0  0
   -0.8997    2.3893    0.2437 H   0  0  0  0  0  0  0  0  0  0  0  0
    0.8192    2.1240    0.5864 H   0  0  0  0  0  0  0  0  0  0  0  0
    0.1769    2.0337   -1.1229 H   0  0  0  0  0  0  0  0  0  0  0  0
   -0.8540    0.3207   -1.9563 H   0  0  0  0  0  0  0  0  0  0  0  0
    0.0045   -1.1515   -1.4693 H   0  0  0  0  0  0  0  0  0  0  0  0
   -1.7658   -1.8361    1.1133 H   0  0  0  0  0  0  0  0  0  0  0  0
   -3.1485   -0.7451    0.7961 H   0  0  0  0  0  0  0  0  0  0  0  0
  1  2  1  0
  2  3  2  0
  2  4  1  0
  4  5  1  0
  4  6  1  0
  6  7  1  0
  7  8  1  0
  8  9  1  0
  9  4  1  0
  1 10  1  0
  1 11  1  0
  1 12  1  0
  5 13  1  0
  5 14  1  0
  5 15  1  0
  6 16  1  0
  6 17  1  0
  8 18  1  0
  8 19  1  0
M  END
