
     RDKit          3D

 21 21  0  0  0  0  0  0  0  0999 V2000
    2.2589   -0.8829   -0.5647 C   0  0  0  0  0  0  0  0  0  0  0  0
    1.7603    0.2982    0.1916 C   0  0  0  0  0  0  0  0  0  0  0  0
    2.5661    0.8091    0.9612 O   0  0  0  0  0  0  0  0  0  0  0  0
    0.4105    0.8619    0.0706 C   0  0  0  0  0  0  0  0  0  0  0  0
    0.2723    2.1818    0.5584 O   0  0  0  0  0  0  0  0  0  0  0  0
   -0.3755    0.6463   -1.2151 C   0  0  0  0  0  0  0  0  0  0  0  0
   -0.8227    0.0553    0.0856 C   0  0  0  0  0  0  0  0  0  0  0  0
   -2.0742    0.6423    0.7559 C   0  0  0  0  0  0  0  0  0  0  0  0
   -0.8267   -1.4498    0.1372 C   0  0  0  0  0  0  0  0  0  0  0  0
    1.8112   -1.0099   -1.5484 H   0  0  0  0  0  0  0  0  0  0  0  0
    3.3671   -0.8239   -0.7071 H   0  0  0  0  0  0  0  0  0  0  0  0
    2.1122   -1.7646    0.1220 H   0  0  0  0  0  0  0  0  0  0  0  0
    0.3033    2.2061    1.5437 H   0  0  0  0  0  0  0  0  0  0  0  0
   -1.0038    1.4776   -1.6090 H   0  0  0  0  0  0  0  0  0  0  0  0
    0.0764    0.0282   -2.0055 H   0  0  0  0  0  0  0  0  0  0  0  0
   -2.9283   -0.0578    0.6234 H   0  0  0  0  0  0  0  0  0  0  0  0
   -1.8798    0.7225    1.8508 H   0  0  0  0  0  0  0  0  0  0  0  0
   -2.3510    1.6139    0.3537 H   0  0  0  0  0  0  0  0  0  0  0  0
   -1.8788   -1.7657   -0.1356 H   0  0  0  0  0  0  0  0  0  0  0  0
   -0.1827   -1.9322   -0.5999 H   0  0  0  0  0  0  0  0  0  0  0  0
   -0.6149   -1.8564    1.1311 H   0  0  0  0  0  0  0  0  0  0  0  0
  1  2  1  0
  2  3  2  0
  2  4  1  0
  4  5  1  0
  4  6  1  0
  6  7  1  0
  7  8  1  0
  7  9  1  0
  7  4  1  0
  1 10  1  0
  1 11  1  0
  1 12  1  0
  5 13  1  0
  6 14  1  0
  6 15  1  0
  8 16  1  0
  8 17  1  0
  8 18  1  0
  9 19  1  0
  9 20  1  0
  9 21  1  0
M  END
