
     RDKit          3D

 19 19  0  0  0  0  0  0  0  0999 V2000
    3.4672    0.7155   -0.7788 C   0  0  0  0  0  0  0  0  0  0  0  0
    2.1594    0.3138   -0.1600 C   0  0  0  0  0  0  0  0  0  0  0  0
    1.7456    0.8869    0.8651 O   0  0  0  0  0  0  0  0  0  0  0  0
    1.3913   -0.6932   -0.7101 O   0  0  0  0  0  0  0  0  0  0  0  0
    0.1638   -1.1525   -0.2285 C   0  0  0  0  0  0  0  0  0  0  0  0
   -0.8813   -0.0524   -0.2113 C   0  0  0  0  0  0  0  0  0  0  0  0
   -2.1994   -0.5827    0.3124 C   0  0  0  0  0  0  0  0  0  0  0  0
   -3.2923    0.4885    0.3510 C   0  0  0  0  0  0  0  0  0  0  0  0
   -3.3056   -0.6154   -0.4959 O   0  0  0  0  0  0  0  0  0  0  0  0
    3.6333    0.1553   -1.7065 H   0  0  0  0  0  0  0  0  0  0  0  0
    3.3981    1.8128   -0.9347 H   0  0  0  0  0  0  0  0  0  0  0  0
    4.2446    0.4510   -0.0353 H   0  0  0  0  0  0  0  0  0  0  0  0
   -0.2152   -1.9649   -0.8558 H   0  0  0  0  0  0  0  0  0  0  0  0
    0.3052   -1.5649    0.8046 H   0  0  0  0  0  0  0  0  0  0  0  0
   -0.9653    0.4243   -1.1851 H   0  0  0  0  0  0  0  0  0  0  0  0
   -0.5452    0.6951    0.5368 H   0  0  0  0  0  0  0  0  0  0  0  0
   -2.0913   -1.2415    1.1875 H   0  0  0  0  0  0  0  0  0  0  0  0
   -3.1177    1.4405   -0.1702 H   0  0  0  0  0  0  0  0  0  0  0  0
   -3.8952    0.4838    1.2749 H   0  0  0  0  0  0  0  0  0  0  0  0
  1  2  1  0
  2  3  2  0
  2  4  1  0
  4  5  1  0
  5  6  1  0
  6  7  1  0
  7  8  1  0
  8  9  1  0
  9  7  1  0
  1 10  1  0
  1 11  1  0
  1 12  1  0
  5 13  1  0
  5 14  1  0
  6 15  1  0
  6 16  1  0
  7 17  1  0
  8 18  1  0
  8 19  1  0
M  END
