
     RDKit          3D

 19 18  0  0  0  0  0  0  0  0999 V2000
    2.0710    0.6227   -0.9322 C   0  0  0  0  0  0  0  0  0  0  0  0
    2.2917   -0.4122    0.0991 C   0  0  0  0  0  0  0  0  0  0  0  0
    3.4155   -0.5277    0.5562 O   0  0  0  0  0  0  0  0  0  0  0  0
    1.2417   -1.2991    0.5924 C   0  0  0  0  0  0  0  0  0  0  0  0
   -0.0271   -1.1272    0.1736 O   0  0  0  0  0  0  0  0  0  0  0  0
   -0.6969    0.0124    0.4528 C   0  0  0  0  0  0  0  0  0  0  0  0
   -2.1033   -0.1581   -0.1623 C   0  0  0  0  0  0  0  0  0  0  0  0
   -2.9361    1.0425    0.0679 C   0  0  0  0  0  0  0  0  0  0  0  0
   -2.5778    2.1513   -0.2689 O   0  0  0  0  0  0  0  0  0  0  0  0
    2.9957    0.7727   -1.5560 H   0  0  0  0  0  0  0  0  0  0  0  0
    1.8173    1.6138   -0.4905 H   0  0  0  0  0  0  0  0  0  0  0  0
    1.2294    0.3670   -1.6195 H   0  0  0  0  0  0  0  0  0  0  0  0
    1.5482   -2.3414    0.2399 H   0  0  0  0  0  0  0  0  0  0  0  0
    1.3352   -1.4137    1.7167 H   0  0  0  0  0  0  0  0  0  0  0  0
   -0.8929    0.1670    1.5472 H   0  0  0  0  0  0  0  0  0  0  0  0
   -0.3350    0.9609    0.0650 H   0  0  0  0  0  0  0  0  0  0  0  0
   -1.9411   -0.3034   -1.2742 H   0  0  0  0  0  0  0  0  0  0  0  0
   -2.5351   -1.0718    0.2395 H   0  0  0  0  0  0  0  0  0  0  0  0
   -3.9006    0.9444    0.5535 H   0  0  0  0  0  0  0  0  0  0  0  0
  1  2  1  0
  2  3  2  0
  2  4  1  0
  4  5  1  0
  5  6  1  0
  6  7  1  0
  7  8  1  0
  8  9  2  0
  1 10  1  0
  1 11  1  0
  1 12  1  0
  4 13  1  0
  4 14  1  0
  6 15  1  0
  6 16  1  0
  7 17  1  0
  7 18  1  0
  8 19  1  0
M  END
