
     RDKit          3D

 25 24  0  0  0  0  0  0  0  0999 V2000
    2.8656    0.5929   -0.5083 C   0  0  0  0  0  0  0  0  0  0  0  0
    1.4446    0.3170   -0.8836 C   0  0  0  0  0  0  0  0  0  0  0  0
    1.2255    0.1639   -2.0732 O   0  0  0  0  0  0  0  0  0  0  0  0
    0.4468    0.2535    0.1856 C   0  0  0  0  0  0  0  0  0  0  0  0
    0.8393   -0.8550    1.1403 C   0  0  0  0  0  0  0  0  0  0  0  0
   -0.9441    0.0128   -0.3311 C   0  0  0  0  0  0  0  0  0  0  0  0
   -1.9024   -0.0354    0.8621 C   0  0  0  0  0  0  0  0  0  0  0  0
   -1.3728    1.2276   -1.1296 C   0  0  0  0  0  0  0  0  0  0  0  0
   -1.0865   -1.2684   -1.0786 C   0  0  0  0  0  0  0  0  0  0  0  0
    3.3595    1.2622   -1.2547 H   0  0  0  0  0  0  0  0  0  0  0  0
    2.9409    1.1043    0.4672 H   0  0  0  0  0  0  0  0  0  0  0  0
    3.3998   -0.3613   -0.4898 H   0  0  0  0  0  0  0  0  0  0  0  0
    0.4444    1.2153    0.7337 H   0  0  0  0  0  0  0  0  0  0  0  0
    1.8911   -0.6397    1.4545 H   0  0  0  0  0  0  0  0  0  0  0  0
    0.2341   -0.8329    2.0623 H   0  0  0  0  0  0  0  0  0  0  0  0
    0.7589   -1.8134    0.5857 H   0  0  0  0  0  0  0  0  0  0  0  0
   -2.9251   -0.1689    0.4157 H   0  0  0  0  0  0  0  0  0  0  0  0
   -1.9244    0.9197    1.4086 H   0  0  0  0  0  0  0  0  0  0  0  0
   -1.7310   -0.9144    1.4920 H   0  0  0  0  0  0  0  0  0  0  0  0
   -1.4605    2.0633   -0.3741 H   0  0  0  0  0  0  0  0  0  0  0  0
   -0.6366    1.5600   -1.8581 H   0  0  0  0  0  0  0  0  0  0  0  0
   -2.3868    1.1158   -1.5619 H   0  0  0  0  0  0  0  0  0  0  0  0
   -1.3813   -2.0649   -0.3459 H   0  0  0  0  0  0  0  0  0  0  0  0
   -1.9032   -1.2280   -1.8421 H   0  0  0  0  0  0  0  0  0  0  0  0
   -0.1956   -1.6260   -1.5865 H   0  0  0  0  0  0  0  0  0  0  0  0
  1  2  1  0
  2  3  2  0
  2  4  1  0
  4  5  1  0
  4  6  1  0
  6  7  1  0
  6  8  1  0
  6  9  1  0
  1 10  1  0
  1 11  1  0
  1 12  1  0
  4 13  1  0
  5 14  1  0
  5 15  1  0
  5 16  1  0
  7 17  1  0
  7 18  1  0
  7 19  1  0
  8 20  1  0
  8 21  1  0
  8 22  1  0
  9 23  1  0
  9 24  1  0
  9 25  1  0
M  END
