
     RDKit          3D

 18 18  0  0  0  0  0  0  0  0999 V2000
    2.6621    0.6199    0.2085 C   0  0  0  0  0  0  0  0  0  0  0  0
    1.4179   -0.0058    0.7278 C   0  0  0  0  0  0  0  0  0  0  0  0
    1.2920   -0.1075    1.9327 O   0  0  0  0  0  0  0  0  0  0  0  0
    0.3994   -0.4724   -0.2147 C   0  0  0  0  0  0  0  0  0  0  0  0
   -0.5214   -1.5880    0.0956 C   0  0  0  0  0  0  0  0  0  0  0  0
   -1.0399   -0.2400    0.2714 C   0  0  0  0  0  0  0  0  0  0  0  0
   -1.8861    0.4658   -0.7432 C   0  0  0  0  0  0  0  0  0  0  0  0
   -3.1772    0.6876   -0.3377 O   0  0  0  0  0  0  0  0  0  0  0  0
    3.2602    1.1028    1.0065 H   0  0  0  0  0  0  0  0  0  0  0  0
    2.4551    1.3658   -0.5799 H   0  0  0  0  0  0  0  0  0  0  0  0
    3.2627   -0.1863   -0.2478 H   0  0  0  0  0  0  0  0  0  0  0  0
    0.6159   -0.3309   -1.2836 H   0  0  0  0  0  0  0  0  0  0  0  0
   -0.8254   -2.2684   -0.7085 H   0  0  0  0  0  0  0  0  0  0  0  0
   -0.2578   -2.1505    1.0375 H   0  0  0  0  0  0  0  0  0  0  0  0
   -1.1842    0.1396    1.3070 H   0  0  0  0  0  0  0  0  0  0  0  0
   -1.4143    1.4717   -0.9139 H   0  0  0  0  0  0  0  0  0  0  0  0
   -1.8570   -0.0338   -1.7403 H   0  0  0  0  0  0  0  0  0  0  0  0
   -3.2019    1.5302    0.1825 H   0  0  0  0  0  0  0  0  0  0  0  0
  1  2  1  0
  2  3  2  0
  2  4  1  0
  4  5  1  0
  5  6  1  0
  6  7  1  0
  7  8  1  0
  6  4  1  0
  1  9  1  0
  1 10  1  0
  1 11  1  0
  4 12  1  0
  5 13  1  0
  5 14  1  0
  6 15  1  0
  7 16  1  0
  7 17  1  0
  8 18  1  0
M  END
