
     RDKit          3D

 21 21  0  0  0  0  0  0  0  0999 V2000
    2.3950   -0.3683    0.8831 C   0  0  0  0  0  0  0  0  0  0  0  0
    1.7626    0.5933   -0.0458 C   0  0  0  0  0  0  0  0  0  0  0  0
    2.3708    1.6091   -0.3096 O   0  0  0  0  0  0  0  0  0  0  0  0
    0.4482    0.3570   -0.6437 C   0  0  0  0  0  0  0  0  0  0  0  0
    0.4754   -0.9299   -1.4723 C   0  0  0  0  0  0  0  0  0  0  0  0
   -0.6565    0.2411    0.3801 C   0  0  0  0  0  0  0  0  0  0  0  0
   -2.0174   -0.0034   -0.2353 C   0  0  0  0  0  0  0  0  0  0  0  0
   -2.3965    0.7959    1.0069 C   0  0  0  0  0  0  0  0  0  0  0  0
   -1.1457    1.4413    0.8714 O   0  0  0  0  0  0  0  0  0  0  0  0
    2.7754   -1.2615    0.3154 H   0  0  0  0  0  0  0  0  0  0  0  0
    1.7111   -0.6896    1.6972 H   0  0  0  0  0  0  0  0  0  0  0  0
    3.2845    0.0626    1.3836 H   0  0  0  0  0  0  0  0  0  0  0  0
    0.1750    1.1606   -1.3571 H   0  0  0  0  0  0  0  0  0  0  0  0
   -0.5775   -1.1214   -1.7562 H   0  0  0  0  0  0  0  0  0  0  0  0
    1.1003   -0.7187   -2.3813 H   0  0  0  0  0  0  0  0  0  0  0  0
    0.8685   -1.7717   -0.8945 H   0  0  0  0  0  0  0  0  0  0  0  0
   -0.4641   -0.5135    1.1697 H   0  0  0  0  0  0  0  0  0  0  0  0
   -2.3462   -1.0418   -0.2495 H   0  0  0  0  0  0  0  0  0  0  0  0
   -2.1234    0.5775   -1.1716 H   0  0  0  0  0  0  0  0  0  0  0  0
   -2.3729    0.1387    1.9019 H   0  0  0  0  0  0  0  0  0  0  0  0
   -3.2667    1.4428    0.9077 H   0  0  0  0  0  0  0  0  0  0  0  0
  1  2  1  0
  2  3  2  0
  2  4  1  0
  4  5  1  0
  4  6  1  0
  6  7  1  0
  7  8  1  0
  8  9  1  0
  9  6  1  0
  1 10  1  0
  1 11  1  0
  1 12  1  0
  4 13  1  0
  5 14  1  0
  5 15  1  0
  5 16  1  0
  6 17  1  0
  7 18  1  0
  7 19  1  0
  8 20  1  0
  8 21  1  0
M  END
