
     RDKit          3D

 23 22  0  0  0  0  0  0  0  0999 V2000
   -2.6336    0.7239    0.0619 C   0  0  0  0  0  0  0  0  0  0  0  0
   -1.6713   -0.3583    0.3984 C   0  0  0  0  0  0  0  0  0  0  0  0
   -1.9250   -1.0114    1.3923 O   0  0  0  0  0  0  0  0  0  0  0  0
   -0.4648   -0.6667   -0.3892 C   0  0  0  0  0  0  0  0  0  0  0  0
    0.2555   -1.8194    0.2577 C   0  0  0  0  0  0  0  0  0  0  0  0
    0.4014    0.5880   -0.3887 C   0  0  0  0  0  0  0  0  0  0  0  0
    0.8039    1.0018    0.9879 C   0  0  0  0  0  0  0  0  0  0  0  0
    1.6175    0.4243   -1.2618 C   0  0  0  0  0  0  0  0  0  0  0  0
    2.4281   -0.6299   -0.8405 O   0  0  0  0  0  0  0  0  0  0  0  0
   -3.6704    0.3402    0.1397 H   0  0  0  0  0  0  0  0  0  0  0  0
   -2.4498    1.1655   -0.9254 H   0  0  0  0  0  0  0  0  0  0  0  0
   -2.5323    1.4870    0.8838 H   0  0  0  0  0  0  0  0  0  0  0  0
   -0.6836   -0.8812   -1.4552 H   0  0  0  0  0  0  0  0  0  0  0  0
   -0.4412   -2.3777    0.9447 H   0  0  0  0  0  0  0  0  0  0  0  0
    1.1140   -1.5232    0.8734 H   0  0  0  0  0  0  0  0  0  0  0  0
    0.5929   -2.5577   -0.5254 H   0  0  0  0  0  0  0  0  0  0  0  0
   -0.2226    1.3854   -0.8529 H   0  0  0  0  0  0  0  0  0  0  0  0
    1.8980    1.1529    1.0234 H   0  0  0  0  0  0  0  0  0  0  0  0
    0.3603    1.9979    1.2670 H   0  0  0  0  0  0  0  0  0  0  0  0
    0.5633    0.2311    1.7563 H   0  0  0  0  0  0  0  0  0  0  0  0
    2.2296    1.3449   -1.1602 H   0  0  0  0  0  0  0  0  0  0  0  0
    1.3614    0.3367   -2.3374 H   0  0  0  0  0  0  0  0  0  0  0  0
    3.0687   -0.3541   -0.1385 H   0  0  0  0  0  0  0  0  0  0  0  0
  1  2  1  0
  2  3  2  0
  2  4  1  0
  4  5  1  0
  4  6  1  0
  6  7  1  0
  6  8  1  0
  8  9  1  0
  1 10  1  0
  1 11  1  0
  1 12  1  0
  4 13  1  0
  5 14  1  0
  5 15  1  0
  5 16  1  0
  6 17  1  0
  7 18  1  0
  7 19  1  0
  7 20  1  0
  8 21  1  0
  8 22  1  0
  9 23  1  0
M  END
