
     RDKit          3D

 19 19  0  0  0  0  0  0  0  0999 V2000
    3.0769   -0.0156    0.1182 C   0  0  0  0  0  0  0  0  0  0  0  0
    1.8794    0.5891   -0.5171 C   0  0  0  0  0  0  0  0  0  0  0  0
    2.0736    1.6006   -1.2378 O   0  0  0  0  0  0  0  0  0  0  0  0
    0.5379    0.0636   -0.3357 C   0  0  0  0  0  0  0  0  0  0  0  0
   -0.5570    0.5653   -0.8785 C   0  0  0  0  0  0  0  0  0  0  0  0
   -1.6949   -0.2735   -0.4328 C   0  0  0  0  0  0  0  0  0  0  0  0
   -2.9533    0.5324   -0.2454 C   0  0  0  0  0  0  0  0  0  0  0  0
   -1.2074   -0.7267    0.8155 O   0  0  0  0  0  0  0  0  0  0  0  0
    0.0878   -1.1031    0.4595 C   0  0  0  0  0  0  0  0  0  0  0  0
    2.8681   -0.9906    0.5933 H   0  0  0  0  0  0  0  0  0  0  0  0
    3.8540   -0.1354   -0.6695 H   0  0  0  0  0  0  0  0  0  0  0  0
    3.5194    0.6895    0.8756 H   0  0  0  0  0  0  0  0  0  0  0  0
   -0.6406    1.4225   -1.5280 H   0  0  0  0  0  0  0  0  0  0  0  0
   -1.8075   -1.1119   -1.1408 H   0  0  0  0  0  0  0  0  0  0  0  0
   -3.8447   -0.1118   -0.2948 H   0  0  0  0  0  0  0  0  0  0  0  0
   -2.9286    0.9578    0.7890 H   0  0  0  0  0  0  0  0  0  0  0  0
   -2.9751    1.3549   -1.0017 H   0  0  0  0  0  0  0  0  0  0  0  0
   -0.0146   -2.0266   -0.1431 H   0  0  0  0  0  0  0  0  0  0  0  0
    0.7267   -1.2805    1.3459 H   0  0  0  0  0  0  0  0  0  0  0  0
  1  2  1  0
  2  3  2  0
  2  4  1  0
  4  5  2  0
  5  6  1  0
  6  7  1  0
  6  8  1  0
  8  9  1  0
  9  4  1  0
  1 10  1  0
  1 11  1  0
  1 12  1  0
  5 13  1  0
  6 14  1  0
  7 15  1  0
  7 16  1  0
  7 17  1  0
  9 18  1  0
  9 19  1  0
M  END
