
     RDKit          3D

 23 23  0  0  0  0  0  0  0  0999 V2000
    2.5103    0.8106   -0.5501 C   0  0  0  0  0  0  0  0  0  0  0  0
    1.1830    0.3048   -0.9654 C   0  0  0  0  0  0  0  0  0  0  0  0
    0.9094    0.3880   -2.1511 O   0  0  0  0  0  0  0  0  0  0  0  0
    0.1902   -0.2809   -0.0590 C   0  0  0  0  0  0  0  0  0  0  0  0
    0.6911   -1.5095    0.6562 C   0  0  0  0  0  0  0  0  0  0  0  0
   -1.0800   -0.6387   -0.7848 C   0  0  0  0  0  0  0  0  0  0  0  0
   -2.1571    0.2400   -0.1852 C   0  0  0  0  0  0  0  0  0  0  0  0
   -1.6210    0.4407    1.2296 C   0  0  0  0  0  0  0  0  0  0  0  0
   -0.1997    0.8134    0.9436 C   0  0  0  0  0  0  0  0  0  0  0  0
    2.4193    1.9036   -0.2828 H   0  0  0  0  0  0  0  0  0  0  0  0
    3.2359    0.7166   -1.3858 H   0  0  0  0  0  0  0  0  0  0  0  0
    2.9423    0.2342    0.2949 H   0  0  0  0  0  0  0  0  0  0  0  0
   -0.0119   -1.7664    1.4748 H   0  0  0  0  0  0  0  0  0  0  0  0
    0.6399   -2.3518   -0.0694 H   0  0  0  0  0  0  0  0  0  0  0  0
    1.6857   -1.3918    1.0968 H   0  0  0  0  0  0  0  0  0  0  0  0
   -1.3940   -1.6953   -0.5922 H   0  0  0  0  0  0  0  0  0  0  0  0
   -1.0017   -0.4453   -1.8730 H   0  0  0  0  0  0  0  0  0  0  0  0
   -2.2491    1.1927   -0.7022 H   0  0  0  0  0  0  0  0  0  0  0  0
   -3.1196   -0.2949   -0.0689 H   0  0  0  0  0  0  0  0  0  0  0  0
   -1.6241   -0.5091    1.7818 H   0  0  0  0  0  0  0  0  0  0  0  0
   -2.2139    1.2421    1.6894 H   0  0  0  0  0  0  0  0  0  0  0  0
    0.4542    0.8281    1.8156 H   0  0  0  0  0  0  0  0  0  0  0  0
   -0.1894    1.7688    0.3822 H   0  0  0  0  0  0  0  0  0  0  0  0
  1  2  1  0
  2  3  2  0
  2  4  1  0
  4  5  1  0
  4  6  1  0
  6  7  1  0
  7  8  1  0
  8  9  1  0
  9  4  1  0
  1 10  1  0
  1 11  1  0
  1 12  1  0
  5 13  1  0
  5 14  1  0
  5 15  1  0
  6 16  1  0
  6 17  1  0
  7 18  1  0
  7 19  1  0
  8 20  1  0
  8 21  1  0
  9 22  1  0
  9 23  1  0
M  END
