
     RDKit          3D

 17 17  0  0  0  0  0  0  0  0999 V2000
    3.4211    0.1816    0.2279 C   0  0  0  0  0  0  0  0  0  0  0  0
    2.0947   -0.4376    0.4649 C   0  0  0  0  0  0  0  0  0  0  0  0
    2.0764   -1.5612    1.0287 O   0  0  0  0  0  0  0  0  0  0  0  0
    0.8801    0.2522    0.0500 C   0  0  0  0  0  0  0  0  0  0  0  0
    0.9652    1.3757   -0.5101 O   0  0  0  0  0  0  0  0  0  0  0  0
   -0.3820   -0.2631    0.2384 O   0  0  0  0  0  0  0  0  0  0  0  0
   -1.5725    0.4064   -0.1649 C   0  0  0  0  0  0  0  0  0  0  0  0
   -2.8050   -0.0201    0.5323 C   0  0  0  0  0  0  0  0  0  0  0  0
   -2.5956   -0.5301   -0.8510 C   0  0  0  0  0  0  0  0  0  0  0  0
    4.1373   -0.5874   -0.1840 H   0  0  0  0  0  0  0  0  0  0  0  0
    3.3520    1.0225   -0.4773 H   0  0  0  0  0  0  0  0  0  0  0  0
    3.8009    0.5357    1.2193 H   0  0  0  0  0  0  0  0  0  0  0  0
   -1.4931    1.3850   -0.6524 H   0  0  0  0  0  0  0  0  0  0  0  0
   -2.7298   -0.7699    1.3446 H   0  0  0  0  0  0  0  0  0  0  0  0
   -3.6610    0.6964    0.6456 H   0  0  0  0  0  0  0  0  0  0  0  0
   -2.2858   -1.5753   -1.0252 H   0  0  0  0  0  0  0  0  0  0  0  0
   -3.2028   -0.1110   -1.6654 H   0  0  0  0  0  0  0  0  0  0  0  0
  1  2  1  0
  2  3  2  0
  2  4  1  0
  4  5  2  0
  4  6  1  0
  6  7  1  0
  7  8  1  0
  8  9  1  0
  9  7  1  0
  1 10  1  0
  1 11  1  0
  1 12  1  0
  7 13  1  0
  8 14  1  0
  8 15  1  0
  9 16  1  0
  9 17  1  0
M  END
