
     RDKit          3D

 21 21  0  0  0  0  0  0  0  0999 V2000
    2.8944    0.9068   -0.2471 C   0  0  0  0  0  0  0  0  0  0  0  0
    2.2283   -0.3716    0.1253 C   0  0  0  0  0  0  0  0  0  0  0  0
    2.8936   -1.4232    0.2551 O   0  0  0  0  0  0  0  0  0  0  0  0
    0.7818   -0.3628    0.3340 C   0  0  0  0  0  0  0  0  0  0  0  0
   -0.0460    0.6618    0.2337 C   0  0  0  0  0  0  0  0  0  0  0  0
   -1.4358    0.2397    0.5269 C   0  0  0  0  0  0  0  0  0  0  0  0
   -2.4656    0.9951   -0.2470 C   0  0  0  0  0  0  0  0  0  0  0  0
   -1.3638   -1.2333    0.0992 C   0  0  0  0  0  0  0  0  0  0  0  0
   -0.0216   -1.5824    0.7141 C   0  0  0  0  0  0  0  0  0  0  0  0
    2.4014    1.4217   -1.0834 H   0  0  0  0  0  0  0  0  0  0  0  0
    3.9461    0.7045   -0.5938 H   0  0  0  0  0  0  0  0  0  0  0  0
    3.0094    1.5890    0.6272 H   0  0  0  0  0  0  0  0  0  0  0  0
    0.2372    1.6648   -0.0237 H   0  0  0  0  0  0  0  0  0  0  0  0
   -1.6144    0.2328    1.6085 H   0  0  0  0  0  0  0  0  0  0  0  0
   -3.3367    1.1658    0.4313 H   0  0  0  0  0  0  0  0  0  0  0  0
   -2.0506    2.0100   -0.4521 H   0  0  0  0  0  0  0  0  0  0  0  0
   -2.7978    0.4948   -1.1755 H   0  0  0  0  0  0  0  0  0  0  0  0
   -1.3278   -1.2745   -0.9866 H   0  0  0  0  0  0  0  0  0  0  0  0
   -2.1938   -1.8086    0.5460 H   0  0  0  0  0  0  0  0  0  0  0  0
    0.4127   -2.4978    0.3347 H   0  0  0  0  0  0  0  0  0  0  0  0
   -0.1511   -1.5326    1.8055 H   0  0  0  0  0  0  0  0  0  0  0  0
  1  2  1  0
  2  3  2  0
  2  4  1  0
  4  5  2  0
  5  6  1  0
  6  7  1  0
  6  8  1  0
  8  9  1  0
  9  4  1  0
  1 10  1  0
  1 11  1  0
  1 12  1  0
  5 13  1  0
  6 14  1  0
  7 15  1  0
  7 16  1  0
  7 17  1  0
  8 18  1  0
  8 19  1  0
  9 20  1  0
  9 21  1  0
M  END
