
     RDKit          3D

 14 13  0  0  0  0  0  0  0  0999 V2000
   -2.4822   -0.6458   -1.3690 C   0  0  0  0  0  0  0  0  0  0  0  0
   -2.1176   -0.0325   -0.0669 C   0  0  0  0  0  0  0  0  0  0  0  0
   -3.0206    0.2328    0.7667 O   0  0  0  0  0  0  0  0  0  0  0  0
   -0.7687    0.2720    0.2821 C   0  0  0  0  0  0  0  0  0  0  0  0
    0.3851    0.5542    0.5840 C   0  0  0  0  0  0  0  0  0  0  0  0
    1.7293    0.9084    0.9330 C   0  0  0  0  0  0  0  0  0  0  0  0
    2.8084    0.0100    0.4148 C   0  0  0  0  0  0  0  0  0  0  0  0
    2.0158    1.9100    1.6326 O   0  0  0  0  0  0  0  0  0  0  0  0
   -1.8070   -0.3532   -2.1876 H   0  0  0  0  0  0  0  0  0  0  0  0
   -3.5194   -0.3730   -1.6458 H   0  0  0  0  0  0  0  0  0  0  0  0
   -2.4047   -1.7600   -1.2151 H   0  0  0  0  0  0  0  0  0  0  0  0
    3.7944    0.4853    0.5476 H   0  0  0  0  0  0  0  0  0  0  0  0
    2.7906   -0.9236    1.0203 H   0  0  0  0  0  0  0  0  0  0  0  0
    2.5965   -0.2846   -0.6362 H   0  0  0  0  0  0  0  0  0  0  0  0
  1  2  1  0
  2  3  2  0
  2  4  1  0
  4  5  3  0
  5  6  1  0
  6  7  1  0
  6  8  2  0
  1  9  1  0
  1 10  1  0
  1 11  1  0
  7 12  1  0
  7 13  1  0
  7 14  1  0
M  END
