
     RDKit          3D

 19 19  0  0  0  0  0  0  0  0999 V2000
    2.2522    0.7221    0.5057 C   0  0  0  0  0  0  0  0  0  0  0  0
    1.4991   -0.5183    0.1880 C   0  0  0  0  0  0  0  0  0  0  0  0
    1.9863   -1.5755    0.5262 O   0  0  0  0  0  0  0  0  0  0  0  0
    0.2037   -0.5179   -0.5107 C   0  0  0  0  0  0  0  0  0  0  0  0
   -0.3106   -1.7995   -0.6968 O   0  0  0  0  0  0  0  0  0  0  0  0
   -1.6810   -1.7227   -0.5462 C   0  0  0  0  0  0  0  0  0  0  0  0
   -2.0254   -0.4009   -0.3693 O   0  0  0  0  0  0  0  0  0  0  0  0
   -0.9037    0.0952    0.3150 C   0  0  0  0  0  0  0  0  0  0  0  0
   -0.8608    1.5704    0.3956 C   0  0  0  0  0  0  0  0  0  0  0  0
    1.7810    1.1808    1.4097 H   0  0  0  0  0  0  0  0  0  0  0  0
    2.1428    1.4309   -0.3411 H   0  0  0  0  0  0  0  0  0  0  0  0
    3.3255    0.4944    0.6537 H   0  0  0  0  0  0  0  0  0  0  0  0
    0.2910   -0.0544   -1.5106 H   0  0  0  0  0  0  0  0  0  0  0  0
   -1.9484   -2.3568    0.3297 H   0  0  0  0  0  0  0  0  0  0  0  0
   -2.2028   -2.0900   -1.4632 H   0  0  0  0  0  0  0  0  0  0  0  0
   -0.8988   -0.3785    1.3004 H   0  0  0  0  0  0  0  0  0  0  0  0
   -0.1677    2.0767   -0.2754 H   0  0  0  0  0  0  0  0  0  0  0  0
   -1.9024    1.9734    0.2718 H   0  0  0  0  0  0  0  0  0  0  0  0
   -0.5801    1.8707    1.4478 H   0  0  0  0  0  0  0  0  0  0  0  0
  1  2  1  0
  2  3  2  0
  2  4  1  0
  4  5  1  0
  5  6  1  0
  6  7  1  0
  7  8  1  0
  8  9  1  0
  8  4  1  0
  1 10  1  0
  1 11  1  0
  1 12  1  0
  4 13  1  0
  6 14  1  0
  6 15  1  0
  8 16  1  0
  9 17  1  0
  9 18  1  0
  9 19  1  0
M  END
