
     RDKit          3D

 19 20  0  0  0  0  0  0  0  0999 V2000
    2.8665    0.5449    0.0640 C   0  0  0  0  0  0  0  0  0  0  0  0
    1.7794   -0.2598   -0.5367 C   0  0  0  0  0  0  0  0  0  0  0  0
    2.0864   -1.0315   -1.4793 O   0  0  0  0  0  0  0  0  0  0  0  0
    0.3881   -0.1731   -0.0623 C   0  0  0  0  0  0  0  0  0  0  0  0
   -0.0315    0.6051    0.9179 C   0  0  0  0  0  0  0  0  0  0  0  0
   -1.4659    0.4823    1.1709 C   0  0  0  0  0  0  0  0  0  0  0  0
   -1.8806   -0.6580    0.2653 C   0  0  0  0  0  0  0  0  0  0  0  0
   -1.9098   -0.2823   -1.1982 C   0  0  0  0  0  0  0  0  0  0  0  0
   -0.7323   -0.9385   -0.6102 C   0  0  0  0  0  0  0  0  0  0  0  0
    3.5635    0.8302   -0.7517 H   0  0  0  0  0  0  0  0  0  0  0  0
    3.4366   -0.0635    0.8089 H   0  0  0  0  0  0  0  0  0  0  0  0
    2.5210    1.4585    0.5587 H   0  0  0  0  0  0  0  0  0  0  0  0
    0.6214    1.2755    1.4871 H   0  0  0  0  0  0  0  0  0  0  0  0
   -1.7308    0.2910    2.2278 H   0  0  0  0  0  0  0  0  0  0  0  0
   -1.9768    1.4012    0.7703 H   0  0  0  0  0  0  0  0  0  0  0  0
   -2.5464   -1.4444    0.6454 H   0  0  0  0  0  0  0  0  0  0  0  0
   -2.5828   -0.8698   -1.8377 H   0  0  0  0  0  0  0  0  0  0  0  0
   -1.8855    0.8045   -1.4755 H   0  0  0  0  0  0  0  0  0  0  0  0
   -0.5204   -1.9724   -0.9650 H   0  0  0  0  0  0  0  0  0  0  0  0
  1  2  1  0
  2  3  2  0
  2  4  1  0
  4  5  2  0
  5  6  1  0
  6  7  1  0
  7  8  1  0
  8  9  1  0
  9  4  1  0
  9  7  1  0
  1 10  1  0
  1 11  1  0
  1 12  1  0
  5 13  1  0
  6 14  1  0
  6 15  1  0
  7 16  1  0
  8 17  1  0
  8 18  1  0
  9 19  1  0
M  END
