
     RDKit          3D

 21 21  0  0  0  0  0  0  0  0999 V2000
    2.9756   -0.1075    0.6055 C   0  0  0  0  0  0  0  0  0  0  0  0
    1.7673   -0.4635   -0.2236 C   0  0  0  0  0  0  0  0  0  0  0  0
    1.5909   -1.6373   -0.4468 O   0  0  0  0  0  0  0  0  0  0  0  0
    0.9142    0.6496   -0.6845 C   0  0  0  0  0  0  0  0  0  0  0  0
   -0.3562    0.8520    0.0856 C   0  0  0  0  0  0  0  0  0  0  0  0
   -1.3318   -0.2601    0.0338 C   0  0  0  0  0  0  0  0  0  0  0  0
   -2.5879   -0.0166    0.8506 C   0  0  0  0  0  0  0  0  0  0  0  0
   -1.4101   -1.1281   -1.1044 C   0  0  0  0  0  0  0  0  0  0  0  0
   -0.8818   -1.6194    0.2018 O   0  0  0  0  0  0  0  0  0  0  0  0
    2.6746    0.4571    1.5128 H   0  0  0  0  0  0  0  0  0  0  0  0
    3.5340   -1.0214    0.8124 H   0  0  0  0  0  0  0  0  0  0  0  0
    3.6005    0.5290   -0.0944 H   0  0  0  0  0  0  0  0  0  0  0  0
    1.4712    1.6251   -0.7009 H   0  0  0  0  0  0  0  0  0  0  0  0
    0.6350    0.5025   -1.7742 H   0  0  0  0  0  0  0  0  0  0  0  0
   -0.8235    1.8395   -0.1774 H   0  0  0  0  0  0  0  0  0  0  0  0
   -0.0358    1.0189    1.1693 H   0  0  0  0  0  0  0  0  0  0  0  0
   -2.9435    1.0176    0.7560 H   0  0  0  0  0  0  0  0  0  0  0  0
   -2.4059   -0.2538    1.9142 H   0  0  0  0  0  0  0  0  0  0  0  0
   -3.3645   -0.7195    0.4915 H   0  0  0  0  0  0  0  0  0  0  0  0
   -2.3760   -1.6227   -1.3758 H   0  0  0  0  0  0  0  0  0  0  0  0
   -0.6463   -1.2425   -1.8518 H   0  0  0  0  0  0  0  0  0  0  0  0
  1  2  1  0
  2  3  2  0
  2  4  1  0
  4  5  1  0
  5  6  1  0
  6  7  1  0
  6  8  1  0
  8  9  1  0
  9  6  1  0
  1 10  1  0
  1 11  1  0
  1 12  1  0
  4 13  1  0
  4 14  1  0
  5 15  1  0
  5 16  1  0
  7 17  1  0
  7 18  1  0
  7 19  1  0
  8 20  1  0
  8 21  1  0
M  END
