
     RDKit          3D

 19 19  0  0  0  0  0  0  0  0999 V2000
   -2.4861    0.7467   -0.0714 C   0  0  0  0  0  0  0  0  0  0  0  0
   -1.6528   -0.4868   -0.2445 C   0  0  0  0  0  0  0  0  0  0  0  0
   -2.1426   -1.5851   -0.4306 O   0  0  0  0  0  0  0  0  0  0  0  0
   -0.1723   -0.3841   -0.1901 C   0  0  0  0  0  0  0  0  0  0  0  0
    0.5625   -1.6712    0.0498 C   0  0  0  0  0  0  0  0  0  0  0  0
    1.9323   -1.5279    0.0667 O   0  0  0  0  0  0  0  0  0  0  0  0
    0.2558    0.1637   -1.5241 O   0  0  0  0  0  0  0  0  0  0  0  0
    0.4227    0.9047   -0.2367 C   0  0  0  0  0  0  0  0  0  0  0  0
    1.8405    1.2777   -0.0280 C   0  0  0  0  0  0  0  0  0  0  0  0
   -3.5325    0.4424   -0.2283 H   0  0  0  0  0  0  0  0  0  0  0  0
   -2.2370    1.5288   -0.7886 H   0  0  0  0  0  0  0  0  0  0  0  0
   -2.3057    1.1347    0.9571 H   0  0  0  0  0  0  0  0  0  0  0  0
    0.2695   -2.1624    0.9976 H   0  0  0  0  0  0  0  0  0  0  0  0
    0.3372   -2.3958   -0.7882 H   0  0  0  0  0  0  0  0  0  0  0  0
    2.4019   -2.0686   -0.6167 H   0  0  0  0  0  0  0  0  0  0  0  0
   -0.2676    1.7887   -0.3235 H   0  0  0  0  0  0  0  0  0  0  0  0
    1.9361    2.3417    0.3397 H   0  0  0  0  0  0  0  0  0  0  0  0
    2.4283    1.2852   -0.9932 H   0  0  0  0  0  0  0  0  0  0  0  0
    2.4097    0.6677    0.6801 H   0  0  0  0  0  0  0  0  0  0  0  0
  1  2  1  0
  2  3  2  0
  2  4  1  0
  4  5  1  0
  5  6  1  0
  4  7  1  0
  7  8  1  0
  8  9  1  0
  8  4  1  0
  1 10  1  0
  1 11  1  0
  1 12  1  0
  5 13  1  0
  5 14  1  0
  6 15  1  0
  8 16  1  0
  9 17  1  0
  9 18  1  0
  9 19  1  0
M  END
