
     RDKit          3D

 21 21  0  0  0  0  0  0  0  0999 V2000
   -2.9101   -0.1207    0.3012 C   0  0  0  0  0  0  0  0  0  0  0  0
   -1.6521    0.6413    0.0749 C   0  0  0  0  0  0  0  0  0  0  0  0
   -1.7384    1.7120   -0.5012 O   0  0  0  0  0  0  0  0  0  0  0  0
   -0.3263    0.1863    0.4991 C   0  0  0  0  0  0  0  0  0  0  0  0
    0.7345    1.1796    0.1235 C   0  0  0  0  0  0  0  0  0  0  0  0
    1.8924    0.4571   -0.5157 C   0  0  0  0  0  0  0  0  0  0  0  0
    2.2552   -0.7192    0.3776 C   0  0  0  0  0  0  0  0  0  0  0  0
    1.2224   -1.6040    0.5394 O   0  0  0  0  0  0  0  0  0  0  0  0
    0.0277   -1.1905   -0.0130 C   0  0  0  0  0  0  0  0  0  0  0  0
   -3.7175    0.5881    0.5833 H   0  0  0  0  0  0  0  0  0  0  0  0
   -3.2410   -0.6177   -0.6314 H   0  0  0  0  0  0  0  0  0  0  0  0
   -2.8111   -0.9063    1.0658 H   0  0  0  0  0  0  0  0  0  0  0  0
   -0.3287    0.1059    1.6196 H   0  0  0  0  0  0  0  0  0  0  0  0
    0.2945    1.8524   -0.6617 H   0  0  0  0  0  0  0  0  0  0  0  0
    1.0139    1.7992    0.9761 H   0  0  0  0  0  0  0  0  0  0  0  0
    1.5638    0.1258   -1.5192 H   0  0  0  0  0  0  0  0  0  0  0  0
    2.7949    1.0908   -0.5973 H   0  0  0  0  0  0  0  0  0  0  0  0
    2.5046   -0.2793    1.3808 H   0  0  0  0  0  0  0  0  0  0  0  0
    3.1783   -1.1584   -0.0195 H   0  0  0  0  0  0  0  0  0  0  0  0
   -0.7627   -1.8863    0.3925 H   0  0  0  0  0  0  0  0  0  0  0  0
    0.0056   -1.2565   -1.1176 H   0  0  0  0  0  0  0  0  0  0  0  0
  1  2  1  0
  2  3  2  0
  2  4  1  0
  4  5  1  0
  5  6  1  0
  6  7  1  0
  7  8  1  0
  8  9  1  0
  9  4  1  0
  1 10  1  0
  1 11  1  0
  1 12  1  0
  4 13  1  0
  5 14  1  0
  5 15  1  0
  6 16  1  0
  6 17  1  0
  7 18  1  0
  7 19  1  0
  9 20  1  0
  9 21  1  0
M  END
