
     RDKit          3D

 15 15  0  0  0  0  0  0  0  0999 V2000
    2.0833    0.3801   -0.3705 C   0  0  0  0  0  0  0  0  0  0  0  0
    1.1220   -0.5494    0.2803 C   0  0  0  0  0  0  0  0  0  0  0  0
    1.5496   -1.1932    1.2251 O   0  0  0  0  0  0  0  0  0  0  0  0
   -0.2709   -0.7469   -0.1183 C   0  0  0  0  0  0  0  0  0  0  0  0
   -1.2553   -0.0294    0.7852 C   0  0  0  0  0  0  0  0  0  0  0  0
   -1.8310    0.5226   -0.4977 C   0  0  0  0  0  0  0  0  0  0  0  0
   -0.7449   -0.0237   -1.1766 O   0  0  0  0  0  0  0  0  0  0  0  0
    3.0086   -0.2056   -0.5604 H   0  0  0  0  0  0  0  0  0  0  0  0
    2.3564    1.1395    0.3987 H   0  0  0  0  0  0  0  0  0  0  0  0
    1.6760    0.8539   -1.2822 H   0  0  0  0  0  0  0  0  0  0  0  0
   -0.4866   -1.8422   -0.2303 H   0  0  0  0  0  0  0  0  0  0  0  0
   -0.7300    0.7259    1.4236 H   0  0  0  0  0  0  0  0  0  0  0  0
   -1.8764   -0.7450    1.3292 H   0  0  0  0  0  0  0  0  0  0  0  0
   -2.8056    0.0738   -0.7154 H   0  0  0  0  0  0  0  0  0  0  0  0
   -1.7952    1.6394   -0.4908 H   0  0  0  0  0  0  0  0  0  0  0  0
  1  2  1  0
  2  3  2  0
  2  4  1  0
  4  5  1  0
  5  6  1  0
  6  7  1  0
  7  4  1  0
  1  8  1  0
  1  9  1  0
  1 10  1  0
  4 11  1  0
  5 12  1  0
  5 13  1  0
  6 14  1  0
  6 15  1  0
M  END
