
     RDKit          3D

 21 22  0  0  0  0  0  0  0  0999 V2000
    2.3038    0.2244    0.8843 C   0  0  0  0  0  0  0  0  0  0  0  0
    1.9060   -0.9575    0.0625 C   0  0  0  0  0  0  0  0  0  0  0  0
    2.7146   -1.8678    0.0039 O   0  0  0  0  0  0  0  0  0  0  0  0
    0.6356   -1.0688   -0.6502 C   0  0  0  0  0  0  0  0  0  0  0  0
    0.3576   -0.0173   -1.6970 C   0  0  0  0  0  0  0  0  0  0  0  0
   -1.0284    0.1209   -1.1019 C   0  0  0  0  0  0  0  0  0  0  0  0
   -1.0640    0.6885    0.2614 C   0  0  0  0  0  0  0  0  0  0  0  0
   -2.3927    0.8909    0.9309 C   0  0  0  0  0  0  0  0  0  0  0  0
   -0.6018   -0.7005    0.1352 C   0  0  0  0  0  0  0  0  0  0  0  0
    2.0214    1.1825    0.3671 H   0  0  0  0  0  0  0  0  0  0  0  0
    3.3868    0.2795    1.0436 H   0  0  0  0  0  0  0  0  0  0  0  0
    1.7697    0.1761    1.8612 H   0  0  0  0  0  0  0  0  0  0  0  0
    0.4979   -2.0709   -1.1033 H   0  0  0  0  0  0  0  0  0  0  0  0
    0.8902    0.9507   -1.5489 H   0  0  0  0  0  0  0  0  0  0  0  0
    0.3913   -0.3756   -2.7355 H   0  0  0  0  0  0  0  0  0  0  0  0
   -1.9024   -0.2508   -1.6288 H   0  0  0  0  0  0  0  0  0  0  0  0
   -0.3514    1.5332    0.4450 H   0  0  0  0  0  0  0  0  0  0  0  0
   -3.0903    1.4895    0.3081 H   0  0  0  0  0  0  0  0  0  0  0  0
   -2.9150   -0.0877    1.1450 H   0  0  0  0  0  0  0  0  0  0  0  0
   -2.2805    1.3727    1.9232 H   0  0  0  0  0  0  0  0  0  0  0  0
   -1.2485   -1.5119    0.4680 H   0  0  0  0  0  0  0  0  0  0  0  0
  1  2  1  0
  2  3  2  0
  2  4  1  0
  4  5  1  0
  5  6  1  0
  6  7  1  0
  7  8  1  0
  7  9  1  0
  9  4  1  0
  9  6  1  0
  1 10  1  0
  1 11  1  0
  1 12  1  0
  4 13  1  0
  5 14  1  0
  5 15  1  0
  6 16  1  0
  7 17  1  0
  8 18  1  0
  8 19  1  0
  8 20  1  0
  9 21  1  0
M  END
