
     RDKit          3D

 21 21  0  0  0  0  0  0  0  0999 V2000
   -2.3175    1.0356    0.4559 C   0  0  0  0  0  0  0  0  0  0  0  0
   -1.0939    0.6236   -0.2758 C   0  0  0  0  0  0  0  0  0  0  0  0
   -0.7574    1.2015   -1.2887 O   0  0  0  0  0  0  0  0  0  0  0  0
   -0.2437   -0.4962    0.1950 C   0  0  0  0  0  0  0  0  0  0  0  0
   -1.0987   -1.7439    0.2193 C   0  0  0  0  0  0  0  0  0  0  0  0
    0.9754   -0.6718   -0.6763 C   0  0  0  0  0  0  0  0  0  0  0  0
    1.8477    0.5356   -0.7098 C   0  0  0  0  0  0  0  0  0  0  0  0
    2.4338    1.0492    0.4874 C   0  0  0  0  0  0  0  0  0  0  0  0
    3.2037    0.1614   -0.2288 O   0  0  0  0  0  0  0  0  0  0  0  0
   -3.1419    1.3335   -0.2565 H   0  0  0  0  0  0  0  0  0  0  0  0
   -2.1467    1.8889    1.1415 H   0  0  0  0  0  0  0  0  0  0  0  0
   -2.7394    0.1600    1.0304 H   0  0  0  0  0  0  0  0  0  0  0  0
    0.0960   -0.3006    1.2466 H   0  0  0  0  0  0  0  0  0  0  0  0
   -0.5170   -2.5621   -0.2932 H   0  0  0  0  0  0  0  0  0  0  0  0
   -1.3234   -2.1056    1.2259 H   0  0  0  0  0  0  0  0  0  0  0  0
   -2.0186   -1.6215   -0.4048 H   0  0  0  0  0  0  0  0  0  0  0  0
    0.5663   -0.8496   -1.7145 H   0  0  0  0  0  0  0  0  0  0  0  0
    1.5054   -1.6136   -0.4330 H   0  0  0  0  0  0  0  0  0  0  0  0
    1.8992    1.0860   -1.6613 H   0  0  0  0  0  0  0  0  0  0  0  0
    2.0205    0.7920    1.4715 H   0  0  0  0  0  0  0  0  0  0  0  0
    2.8503    2.0976    0.4691 H   0  0  0  0  0  0  0  0  0  0  0  0
  1  2  1  0
  2  3  2  0
  2  4  1  0
  4  5  1  0
  4  6  1  0
  6  7  1  0
  7  8  1  0
  8  9  1  0
  9  7  1  0
  1 10  1  0
  1 11  1  0
  1 12  1  0
  4 13  1  0
  5 14  1  0
  5 15  1  0
  5 16  1  0
  6 17  1  0
  6 18  1  0
  7 19  1  0
  8 20  1  0
  8 21  1  0
M  END
