
     RDKit          3D

 17 16  0  0  0  0  0  0  0  0999 V2000
    2.8186    0.3036   -0.6031 C   0  0  0  0  0  0  0  0  0  0  0  0
    1.4957    0.4452    0.0584 C   0  0  0  0  0  0  0  0  0  0  0  0
    1.2540    1.4579    0.8011 O   0  0  0  0  0  0  0  0  0  0  0  0
    0.4533   -0.5471   -0.1162 C   0  0  0  0  0  0  0  0  0  0  0  0
    0.7034   -1.5444   -0.8531 O   0  0  0  0  0  0  0  0  0  0  0  0
   -0.8429   -0.3638    0.5603 C   0  0  0  0  0  0  0  0  0  0  0  0
   -0.7804    0.8220    1.2811 O   0  0  0  0  0  0  0  0  0  0  0  0
   -1.9978   -0.2665   -0.4063 C   0  0  0  0  0  0  0  0  0  0  0  0
   -3.1859   -0.0735    0.2936 O   0  0  0  0  0  0  0  0  0  0  0  0
    2.7224    0.3195   -1.7101 H   0  0  0  0  0  0  0  0  0  0  0  0
    3.3351   -0.6311   -0.2920 H   0  0  0  0  0  0  0  0  0  0  0  0
    3.4607    1.1411   -0.3137 H   0  0  0  0  0  0  0  0  0  0  0  0
   -0.9656   -1.2408    1.2485 H   0  0  0  0  0  0  0  0  0  0  0  0
   -1.0788    1.5415    0.6542 H   0  0  0  0  0  0  0  0  0  0  0  0
   -2.0688   -1.1324   -1.0838 H   0  0  0  0  0  0  0  0  0  0  0  0
   -1.8649    0.6276   -1.0493 H   0  0  0  0  0  0  0  0  0  0  0  0
   -3.4582   -0.8592    0.8224 H   0  0  0  0  0  0  0  0  0  0  0  0
  1  2  1  0
  2  3  2  0
  2  4  1  0
  4  5  2  0
  4  6  1  0
  6  7  1  0
  6  8  1  0
  8  9  1  0
  1 10  1  0
  1 11  1  0
  1 12  1  0
  6 13  1  0
  7 14  1  0
  8 15  1  0
  8 16  1  0
  9 17  1  0
M  END
