
     RDKit          3D

 19 19  0  0  0  0  0  0  0  0999 V2000
    3.0763   -0.0248   -0.3369 C   0  0  0  0  0  0  0  0  0  0  0  0
    1.6630    0.4289   -0.2034 C   0  0  0  0  0  0  0  0  0  0  0  0
    1.3840    1.6366   -0.1273 O   0  0  0  0  0  0  0  0  0  0  0  0
    0.6383   -0.4534   -0.1605 O   0  0  0  0  0  0  0  0  0  0  0  0
   -0.7077   -0.2753   -0.0484 C   0  0  0  0  0  0  0  0  0  0  0  0
   -1.5325   -1.5707   -0.0163 C   0  0  0  0  0  0  0  0  0  0  0  0
   -1.3174    0.7556    0.8183 C   0  0  0  0  0  0  0  0  0  0  0  0
   -2.3235    0.8928   -0.1738 O   0  0  0  0  0  0  0  0  0  0  0  0
   -1.2709    0.6777   -1.0997 C   0  0  0  0  0  0  0  0  0  0  0  0
    3.7397    0.8332   -0.6126 H   0  0  0  0  0  0  0  0  0  0  0  0
    3.1664   -0.7856   -1.1208 H   0  0  0  0  0  0  0  0  0  0  0  0
    3.4637   -0.4533    0.5998 H   0  0  0  0  0  0  0  0  0  0  0  0
   -2.5736   -1.3384   -0.2860 H   0  0  0  0  0  0  0  0  0  0  0  0
   -1.5493   -1.8629    1.0707 H   0  0  0  0  0  0  0  0  0  0  0  0
   -1.0548   -2.3337   -0.6508 H   0  0  0  0  0  0  0  0  0  0  0  0
   -0.8134    1.7246    0.9072 H   0  0  0  0  0  0  0  0  0  0  0  0
   -1.7421    0.3549    1.7798 H   0  0  0  0  0  0  0  0  0  0  0  0
   -1.5793    0.2097   -2.0372 H   0  0  0  0  0  0  0  0  0  0  0  0
   -0.6668    1.5842   -1.1377 H   0  0  0  0  0  0  0  0  0  0  0  0
  1  2  1  0
  2  3  2  0
  2  4  1  0
  4  5  1  0
  5  6  1  0
  5  7  1  0
  7  8  1  0
  8  9  1  0
  9  5  1  0
  1 10  1  0
  1 11  1  0
  1 12  1  0
  6 13  1  0
  6 14  1  0
  6 15  1  0
  7 16  1  0
  7 17  1  0
  9 18  1  0
  9 19  1  0
M  END
