
     RDKit          3D

 21 21  0  0  0  0  0  0  0  0999 V2000
    3.1632    0.0683   -0.9125 C   0  0  0  0  0  0  0  0  0  0  0  0
    1.9922    0.2459   -0.0146 C   0  0  0  0  0  0  0  0  0  0  0  0
    1.9681    1.1893    0.7553 O   0  0  0  0  0  0  0  0  0  0  0  0
    0.8324   -0.6844   -0.0100 C   0  0  0  0  0  0  0  0  0  0  0  0
   -0.1827   -0.2553    0.9880 C   0  0  0  0  0  0  0  0  0  0  0  0
   -1.4423   -1.0666    1.1523 C   0  0  0  0  0  0  0  0  0  0  0  0
   -1.4709    0.3435    0.6431 C   0  0  0  0  0  0  0  0  0  0  0  0
   -1.9467    0.5471   -0.7585 C   0  0  0  0  0  0  0  0  0  0  0  0
   -3.2098    1.1389   -0.7538 O   0  0  0  0  0  0  0  0  0  0  0  0
    4.0772    0.4513   -0.3818 H   0  0  0  0  0  0  0  0  0  0  0  0
    3.0068    0.7222   -1.7924 H   0  0  0  0  0  0  0  0  0  0  0  0
    3.2826   -0.9972   -1.1725 H   0  0  0  0  0  0  0  0  0  0  0  0
    0.4233   -0.6607   -1.0591 H   0  0  0  0  0  0  0  0  0  0  0  0
    1.1665   -1.7375    0.2283 H   0  0  0  0  0  0  0  0  0  0  0  0
    0.2551    0.0527    1.9786 H   0  0  0  0  0  0  0  0  0  0  0  0
   -1.8232   -1.3011    2.1638 H   0  0  0  0  0  0  0  0  0  0  0  0
   -1.5741   -1.9073    0.4430 H   0  0  0  0  0  0  0  0  0  0  0  0
   -1.9381    1.0598    1.3805 H   0  0  0  0  0  0  0  0  0  0  0  0
   -1.2893    1.2169   -1.3451 H   0  0  0  0  0  0  0  0  0  0  0  0
   -2.0689   -0.4386   -1.2563 H   0  0  0  0  0  0  0  0  0  0  0  0
   -3.2212    2.0129   -0.2887 H   0  0  0  0  0  0  0  0  0  0  0  0
  1  2  1  0
  2  3  2  0
  2  4  1  0
  4  5  1  0
  5  6  1  0
  6  7  1  0
  7  8  1  0
  8  9  1  0
  7  5  1  0
  1 10  1  0
  1 11  1  0
  1 12  1  0
  4 13  1  0
  4 14  1  0
  5 15  1  0
  6 16  1  0
  6 17  1  0
  7 18  1  0
  8 19  1  0
  8 20  1  0
  9 21  1  0
M  END
