
     RDKit          3D

 19 20  0  0  0  0  0  0  0  0999 V2000
    2.3072   -0.1976    0.6402 C   0  0  0  0  0  0  0  0  0  0  0  0
    2.0205   -0.6734   -0.7342 C   0  0  0  0  0  0  0  0  0  0  0  0
    2.9248   -1.3408   -1.2631 O   0  0  0  0  0  0  0  0  0  0  0  0
    0.7910   -0.4172   -1.4764 C   0  0  0  0  0  0  0  0  0  0  0  0
    0.5446    1.0499   -1.5261 O   0  0  0  0  0  0  0  0  0  0  0  0
   -0.4452    0.0836   -0.9896 C   0  0  0  0  0  0  0  0  0  0  0  0
   -0.8437    0.3697    0.4151 C   0  0  0  0  0  0  0  0  0  0  0  0
   -2.2827    0.9151    0.6282 C   0  0  0  0  0  0  0  0  0  0  0  0
   -1.9980   -0.4968    0.9599 C   0  0  0  0  0  0  0  0  0  0  0  0
    3.3729   -0.3606    0.9292 H   0  0  0  0  0  0  0  0  0  0  0  0
    1.7166   -0.7103    1.4197 H   0  0  0  0  0  0  0  0  0  0  0  0
    2.1780    0.9216    0.6450 H   0  0  0  0  0  0  0  0  0  0  0  0
    0.7773   -0.8642   -2.5168 H   0  0  0  0  0  0  0  0  0  0  0  0
   -1.3108    0.1208   -1.7137 H   0  0  0  0  0  0  0  0  0  0  0  0
   -0.1454    0.7651    1.1651 H   0  0  0  0  0  0  0  0  0  0  0  0
   -2.8008    1.1923   -0.3184 H   0  0  0  0  0  0  0  0  0  0  0  0
   -2.4398    1.6625    1.4243 H   0  0  0  0  0  0  0  0  0  0  0  0
   -1.9386   -0.7653    2.0440 H   0  0  0  0  0  0  0  0  0  0  0  0
   -2.4278   -1.2545    0.2674 H   0  0  0  0  0  0  0  0  0  0  0  0
  1  2  1  0
  2  3  2  0
  2  4  1  0
  4  5  1  0
  5  6  1  0
  6  7  1  0
  7  8  1  0
  8  9  1  0
  6  4  1  0
  9  7  1  0
  1 10  1  0
  1 11  1  0
  1 12  1  0
  4 13  1  0
  6 14  1  0
  7 15  1  0
  8 16  1  0
  8 17  1  0
  9 18  1  0
  9 19  1  0
M  END
