
     RDKit          3D

 19 19  0  0  0  0  0  0  0  0999 V2000
    2.0382   -0.3924   -0.8958 C   0  0  0  0  0  0  0  0  0  0  0  0
    1.2781   -0.3907    0.3596 C   0  0  0  0  0  0  0  0  0  0  0  0
    1.7790   -1.0718    1.2804 O   0  0  0  0  0  0  0  0  0  0  0  0
    0.0214    0.2843    0.6886 C   0  0  0  0  0  0  0  0  0  0  0  0
    0.1145    1.2019    1.8859 C   0  0  0  0  0  0  0  0  0  0  0  0
   -0.6293    0.8686    2.8534 O   0  0  0  0  0  0  0  0  0  0  0  0
   -0.5694    1.0542   -0.5270 C   0  0  0  0  0  0  0  0  0  0  0  0
   -1.3105   -0.0213    0.2335 C   0  0  0  0  0  0  0  0  0  0  0  0
   -1.6874   -1.1909   -0.6173 C   0  0  0  0  0  0  0  0  0  0  0  0
    2.1699    0.6044   -1.3516 H   0  0  0  0  0  0  0  0  0  0  0  0
    3.1033   -0.7722   -0.7528 H   0  0  0  0  0  0  0  0  0  0  0  0
    1.6328   -1.1332   -1.6470 H   0  0  0  0  0  0  0  0  0  0  0  0
    0.6741    2.0632    2.0233 H   0  0  0  0  0  0  0  0  0  0  0  0
   -0.1113    0.8030   -1.4942 H   0  0  0  0  0  0  0  0  0  0  0  0
   -0.8442    2.1068   -0.4063 H   0  0  0  0  0  0  0  0  0  0  0  0
   -2.1954    0.3931    0.7946 H   0  0  0  0  0  0  0  0  0  0  0  0
   -2.5600   -0.8962   -1.2470 H   0  0  0  0  0  0  0  0  0  0  0  0
   -2.0816   -2.0074    0.0433 H   0  0  0  0  0  0  0  0  0  0  0  0
   -0.8220   -1.5034   -1.2235 H   0  0  0  0  0  0  0  0  0  0  0  0
  1  2  1  0
  2  3  2  0
  2  4  1  0
  4  5  1  0
  5  6  2  0
  4  7  1  0
  7  8  1  0
  8  9  1  0
  8  4  1  0
  1 10  1  0
  1 11  1  0
  1 12  1  0
  5 13  1  0
  7 14  1  0
  7 15  1  0
  8 16  1  0
  9 17  1  0
  9 18  1  0
  9 19  1  0
M  END
