
     RDKit          3D

 21 22  0  0  0  0  0  0  0  0999 V2000
   -2.9035   -0.4395    0.3843 C   0  0  0  0  0  0  0  0  0  0  0  0
   -1.8625    0.5196   -0.0531 C   0  0  0  0  0  0  0  0  0  0  0  0
   -2.2125    1.5321   -0.6199 O   0  0  0  0  0  0  0  0  0  0  0  0
   -0.4478    0.2488    0.1943 C   0  0  0  0  0  0  0  0  0  0  0  0
    0.2059   -0.9860   -0.3804 C   0  0  0  0  0  0  0  0  0  0  0  0
    1.3800   -0.1387   -0.8426 C   0  0  0  0  0  0  0  0  0  0  0  0
    2.6341   -0.4928   -0.1185 C   0  0  0  0  0  0  0  0  0  0  0  0
    0.6377    1.0702   -0.3902 C   0  0  0  0  0  0  0  0  0  0  0  0
    0.3216    1.1802    1.0426 C   0  0  0  0  0  0  0  0  0  0  0  0
   -3.0231   -1.1915   -0.4197 H   0  0  0  0  0  0  0  0  0  0  0  0
   -2.5930   -0.9751    1.3052 H   0  0  0  0  0  0  0  0  0  0  0  0
   -3.8730    0.1007    0.5655 H   0  0  0  0  0  0  0  0  0  0  0  0
    0.4388   -1.7661    0.3419 H   0  0  0  0  0  0  0  0  0  0  0  0
   -0.3230   -1.3917   -1.2771 H   0  0  0  0  0  0  0  0  0  0  0  0
    1.5438   -0.1166   -1.9336 H   0  0  0  0  0  0  0  0  0  0  0  0
    2.6666   -1.5904    0.0259 H   0  0  0  0  0  0  0  0  0  0  0  0
    2.7849    0.0020    0.8380 H   0  0  0  0  0  0  0  0  0  0  0  0
    3.5225   -0.2470   -0.7555 H   0  0  0  0  0  0  0  0  0  0  0  0
    0.3334    1.8653   -1.0898 H   0  0  0  0  0  0  0  0  0  0  0  0
    0.9674    0.7289    1.8170 H   0  0  0  0  0  0  0  0  0  0  0  0
   -0.1982    2.0876    1.3658 H   0  0  0  0  0  0  0  0  0  0  0  0
  1  2  1  0
  2  3  2  0
  2  4  1  0
  4  5  1  0
  5  6  1  0
  6  7  1  0
  6  8  1  0
  8  9  1  0
  8  4  1  0
  9  4  1  0
  1 10  1  0
  1 11  1  0
  1 12  1  0
  5 13  1  0
  5 14  1  0
  6 15  1  0
  7 16  1  0
  7 17  1  0
  7 18  1  0
  8 19  1  0
  9 20  1  0
  9 21  1  0
M  END
