
     RDKit          3D

 17 18  0  0  0  0  0  0  0  0999 V2000
    2.3858    0.2142   -0.1888 C   0  0  0  0  0  0  0  0  0  0  0  0
    1.3699   -0.5763    0.5461 C   0  0  0  0  0  0  0  0  0  0  0  0
    1.7648   -1.5051    1.2257 O   0  0  0  0  0  0  0  0  0  0  0  0
   -0.0660   -0.2789    0.4799 C   0  0  0  0  0  0  0  0  0  0  0  0
   -0.5474    1.1470    0.3333 C   0  0  0  0  0  0  0  0  0  0  0  0
   -1.4902    1.1169   -0.7033 O   0  0  0  0  0  0  0  0  0  0  0  0
   -2.1518   -0.1024   -0.5823 C   0  0  0  0  0  0  0  0  0  0  0  0
   -1.0680   -1.0825   -0.1325 C   0  0  0  0  0  0  0  0  0  0  0  0
   -0.9155   -1.1210    1.2360 O   0  0  0  0  0  0  0  0  0  0  0  0
    3.4075    0.0226    0.1952 H   0  0  0  0  0  0  0  0  0  0  0  0
    2.2131    1.3156   -0.0975 H   0  0  0  0  0  0  0  0  0  0  0  0
    2.3348   -0.0062   -1.2749 H   0  0  0  0  0  0  0  0  0  0  0  0
   -1.1129    1.4048    1.2541 H   0  0  0  0  0  0  0  0  0  0  0  0
    0.2512    1.8434    0.0865 H   0  0  0  0  0  0  0  0  0  0  0  0
   -2.5897   -0.4102   -1.5388 H   0  0  0  0  0  0  0  0  0  0  0  0
   -2.9798   -0.0576    0.1672 H   0  0  0  0  0  0  0  0  0  0  0  0
   -0.8060   -1.9243   -0.7709 H   0  0  0  0  0  0  0  0  0  0  0  0
  1  2  1  0
  2  3  2  0
  2  4  1  0
  4  5  1  0
  5  6  1  0
  6  7  1  0
  7  8  1  0
  8  9  1  0
  8  4  1  0
  9  4  1  0
  1 10  1  0
  1 11  1  0
  1 12  1  0
  5 13  1  0
  5 14  1  0
  7 15  1  0
  7 16  1  0
  8 17  1  0
M  END
