
     RDKit          3D

 21 21  0  0  0  0  0  0  0  0999 V2000
    2.7072    0.4196    0.5600 C   0  0  0  0  0  0  0  0  0  0  0  0
    1.4423    0.5742   -0.2107 C   0  0  0  0  0  0  0  0  0  0  0  0
    1.0474    1.7164   -0.3619 O   0  0  0  0  0  0  0  0  0  0  0  0
    0.6797   -0.5392   -0.7741 C   0  0  0  0  0  0  0  0  0  0  0  0
    0.2140   -1.5230    0.3035 C   0  0  0  0  0  0  0  0  0  0  0  0
   -0.9176   -0.7658    0.8881 C   0  0  0  0  0  0  0  0  0  0  0  0
   -1.4089    0.0867   -0.0038 C   0  0  0  0  0  0  0  0  0  0  0  0
   -2.5512    0.9955    0.2700 C   0  0  0  0  0  0  0  0  0  0  0  0
   -0.6507   -0.0193   -1.2702 C   0  0  0  0  0  0  0  0  0  0  0  0
    3.5216    0.8785   -0.0508 H   0  0  0  0  0  0  0  0  0  0  0  0
    2.6091    1.0732    1.4673 H   0  0  0  0  0  0  0  0  0  0  0  0
    2.9087   -0.6108    0.8637 H   0  0  0  0  0  0  0  0  0  0  0  0
    1.1828   -1.0684   -1.5995 H   0  0  0  0  0  0  0  0  0  0  0  0
    0.9989   -1.7839    1.0046 H   0  0  0  0  0  0  0  0  0  0  0  0
   -0.2115   -2.3934   -0.2576 H   0  0  0  0  0  0  0  0  0  0  0  0
   -1.2763   -0.9006    1.8933 H   0  0  0  0  0  0  0  0  0  0  0  0
   -2.9810    0.8603    1.2616 H   0  0  0  0  0  0  0  0  0  0  0  0
   -2.2528    2.0731    0.1869 H   0  0  0  0  0  0  0  0  0  0  0  0
   -3.3639    0.7786   -0.4697 H   0  0  0  0  0  0  0  0  0  0  0  0
   -0.5481    0.9477   -1.8017 H   0  0  0  0  0  0  0  0  0  0  0  0
   -1.1497   -0.7994   -1.8988 H   0  0  0  0  0  0  0  0  0  0  0  0
  1  2  1  0
  2  3  2  0
  2  4  1  0
  4  5  1  0
  5  6  1  0
  6  7  2  0
  7  8  1  0
  7  9  1  0
  9  4  1  0
  1 10  1  0
  1 11  1  0
  1 12  1  0
  4 13  1  0
  5 14  1  0
  5 15  1  0
  6 16  1  0
  8 17  1  0
  8 18  1  0
  8 19  1  0
  9 20  1  0
  9 21  1  0
M  END
