
     RDKit          3D

 19 20  0  0  0  0  0  0  0  0999 V2000
    2.9591   -0.1634    0.3801 C   0  0  0  0  0  0  0  0  0  0  0  0
    1.7239   -0.1325   -0.4134 C   0  0  0  0  0  0  0  0  0  0  0  0
    1.8153   -0.0360   -1.6258 O   0  0  0  0  0  0  0  0  0  0  0  0
    0.3469   -0.2099    0.1402 C   0  0  0  0  0  0  0  0  0  0  0  0
   -0.5955    0.8288   -0.4259 C   0  0  0  0  0  0  0  0  0  0  0  0
   -1.8050    1.2113    0.3819 C   0  0  0  0  0  0  0  0  0  0  0  0
   -2.7554    0.2289    0.1273 O   0  0  0  0  0  0  0  0  0  0  0  0
   -2.0659   -0.9543    0.0191 C   0  0  0  0  0  0  0  0  0  0  0  0
   -0.7874   -0.6394   -0.7062 C   0  0  0  0  0  0  0  0  0  0  0  0
    3.4303    0.8408    0.5074 H   0  0  0  0  0  0  0  0  0  0  0  0
    3.7534   -0.8070   -0.0927 H   0  0  0  0  0  0  0  0  0  0  0  0
    2.7959   -0.5624    1.4146 H   0  0  0  0  0  0  0  0  0  0  0  0
    0.3131   -0.2960    1.2417 H   0  0  0  0  0  0  0  0  0  0  0  0
   -0.3018    1.4188   -1.3088 H   0  0  0  0  0  0  0  0  0  0  0  0
   -2.1698    2.2301    0.1328 H   0  0  0  0  0  0  0  0  0  0  0  0
   -1.4916    1.2147    1.4613 H   0  0  0  0  0  0  0  0  0  0  0  0
   -2.6951   -1.6994   -0.5358 H   0  0  0  0  0  0  0  0  0  0  0  0
   -1.8689   -1.4401    1.0176 H   0  0  0  0  0  0  0  0  0  0  0  0
   -0.6016   -1.0331   -1.7153 H   0  0  0  0  0  0  0  0  0  0  0  0
  1  2  1  0
  2  3  2  0
  2  4  1  0
  4  5  1  0
  5  6  1  0
  6  7  1  0
  7  8  1  0
  8  9  1  0
  9  4  1  0
  9  5  1  0
  1 10  1  0
  1 11  1  0
  1 12  1  0
  4 13  1  0
  5 14  1  0
  6 15  1  0
  6 16  1  0
  8 17  1  0
  8 18  1  0
  9 19  1  0
M  END
