
     RDKit          3D

 19 19  0  0  0  0  0  0  0  0999 V2000
   -2.9147    0.2266    0.1597 C   0  0  0  0  0  0  0  0  0  0  0  0
   -1.8962   -0.8106    0.4934 C   0  0  0  0  0  0  0  0  0  0  0  0
   -2.1690   -1.6246    1.3351 O   0  0  0  0  0  0  0  0  0  0  0  0
   -0.6135   -0.7541   -0.2483 C   0  0  0  0  0  0  0  0  0  0  0  0
    0.0952    0.5330   -0.0451 C   0  0  0  0  0  0  0  0  0  0  0  0
    1.3864    0.2697    0.0788 C   0  0  0  0  0  0  0  0  0  0  0  0
    2.4694    1.2785    0.2988 C   0  0  0  0  0  0  0  0  0  0  0  0
    1.5502   -1.2015   -0.0402 C   0  0  0  0  0  0  0  0  0  0  0  0
    0.2734   -1.7334    0.1073 O   0  0  0  0  0  0  0  0  0  0  0  0
   -2.8508    0.9871    0.9869 H   0  0  0  0  0  0  0  0  0  0  0  0
   -2.6883    0.7452   -0.7875 H   0  0  0  0  0  0  0  0  0  0  0  0
   -3.9335   -0.2049    0.1005 H   0  0  0  0  0  0  0  0  0  0  0  0
   -0.8061   -0.8318   -1.3516 H   0  0  0  0  0  0  0  0  0  0  0  0
   -0.3417    1.5442    0.0003 H   0  0  0  0  0  0  0  0  0  0  0  0
    3.3827    0.8861   -0.1630 H   0  0  0  0  0  0  0  0  0  0  0  0
    2.2417    2.2408   -0.2122 H   0  0  0  0  0  0  0  0  0  0  0  0
    2.6087    1.5154    1.3621 H   0  0  0  0  0  0  0  0  0  0  0  0
    2.0639   -1.5159   -0.9475 H   0  0  0  0  0  0  0  0  0  0  0  0
    2.1420   -1.5496    0.8482 H   0  0  0  0  0  0  0  0  0  0  0  0
  1  2  1  0
  2  3  2  0
  2  4  1  0
  4  5  1  0
  5  6  2  0
  6  7  1  0
  6  8  1  0
  8  9  1  0
  9  4  1  0
  1 10  1  0
  1 11  1  0
  1 12  1  0
  4 13  1  0
  5 14  1  0
  7 15  1  0
  7 16  1  0
  7 17  1  0
  8 18  1  0
  8 19  1  0
M  END
