
     RDKit          3D

 21 22  0  0  0  0  0  0  0  0999 V2000
    2.7559    0.1744   -0.5333 C   0  0  0  0  0  0  0  0  0  0  0  0
    1.6363   -0.0177    0.4245 C   0  0  0  0  0  0  0  0  0  0  0  0
    1.8125   -0.7301    1.3976 O   0  0  0  0  0  0  0  0  0  0  0  0
    0.3210    0.6126    0.2544 C   0  0  0  0  0  0  0  0  0  0  0  0
   -0.6210    0.2258    1.4009 C   0  0  0  0  0  0  0  0  0  0  0  0
   -1.7304   -0.4115    0.6099 C   0  0  0  0  0  0  0  0  0  0  0  0
   -1.0097   -1.2709   -0.4174 C   0  0  0  0  0  0  0  0  0  0  0  0
   -0.4756    0.0745   -0.8965 C   0  0  0  0  0  0  0  0  0  0  0  0
   -1.8804    0.5869   -0.5438 C   0  0  0  0  0  0  0  0  0  0  0  0
    2.4209    0.1322   -1.5897 H   0  0  0  0  0  0  0  0  0  0  0  0
    3.5281   -0.6121   -0.4183 H   0  0  0  0  0  0  0  0  0  0  0  0
    3.2589    1.1444   -0.2952 H   0  0  0  0  0  0  0  0  0  0  0  0
    0.3724    1.7176    0.1371 H   0  0  0  0  0  0  0  0  0  0  0  0
   -0.9676    1.1660    1.8708 H   0  0  0  0  0  0  0  0  0  0  0  0
   -0.1309   -0.4588    2.1120 H   0  0  0  0  0  0  0  0  0  0  0  0
   -2.5998   -0.7756    1.0782 H   0  0  0  0  0  0  0  0  0  0  0  0
   -0.2689   -1.9609   -0.0310 H   0  0  0  0  0  0  0  0  0  0  0  0
   -1.7389   -1.6573   -1.1429 H   0  0  0  0  0  0  0  0  0  0  0  0
   -0.1454    0.1729   -1.8938 H   0  0  0  0  0  0  0  0  0  0  0  0
   -1.9171    1.6241   -0.2173 H   0  0  0  0  0  0  0  0  0  0  0  0
   -2.6204    0.2635   -1.3062 H   0  0  0  0  0  0  0  0  0  0  0  0
  1  2  1  0
  2  3  2  0
  2  4  1  0
  4  5  1  0
  5  6  1  0
  6  7  1  0
  7  8  1  0
  8  9  1  0
  8  4  1  0
  9  6  1  0
  1 10  1  0
  1 11  1  0
  1 12  1  0
  4 13  1  0
  5 14  1  0
  5 15  1  0
  6 16  1  0
  7 17  1  0
  7 18  1  0
  8 19  1  0
  9 20  1  0
  9 21  1  0
M  END
