
     RDKit          3D

 19 20  0  0  0  0  0  0  0  0999 V2000
    1.9314    1.2182    0.5348 C   0  0  0  0  0  0  0  0  0  0  0  0
    1.4546    0.0904   -0.2902 C   0  0  0  0  0  0  0  0  0  0  0  0
    2.1949   -0.5556   -1.0100 O   0  0  0  0  0  0  0  0  0  0  0  0
    0.0202   -0.3000   -0.2661 C   0  0  0  0  0  0  0  0  0  0  0  0
   -0.3334   -1.4583   -1.1464 C   0  0  0  0  0  0  0  0  0  0  0  0
   -0.9273    0.8428   -0.2420 C   0  0  0  0  0  0  0  0  0  0  0  0
   -1.9343   -0.0621    0.4038 C   0  0  0  0  0  0  0  0  0  0  0  0
   -0.6238   -0.2756    1.0841 C   0  0  0  0  0  0  0  0  0  0  0  0
   -0.4673    1.1029    1.0440 O   0  0  0  0  0  0  0  0  0  0  0  0
    1.7971    1.0357    1.6190 H   0  0  0  0  0  0  0  0  0  0  0  0
    3.0498    1.2894    0.3923 H   0  0  0  0  0  0  0  0  0  0  0  0
    1.4547    2.1863    0.2728 H   0  0  0  0  0  0  0  0  0  0  0  0
   -0.6792   -2.2862   -0.4918 H   0  0  0  0  0  0  0  0  0  0  0  0
   -1.0479   -1.2088   -1.9508 H   0  0  0  0  0  0  0  0  0  0  0  0
    0.5893   -1.8332   -1.6582 H   0  0  0  0  0  0  0  0  0  0  0  0
   -1.1049    1.5249   -0.9620 H   0  0  0  0  0  0  0  0  0  0  0  0
   -2.6609    0.4106    1.0766 H   0  0  0  0  0  0  0  0  0  0  0  0
   -2.2867   -0.8400   -0.2740 H   0  0  0  0  0  0  0  0  0  0  0  0
   -0.4263   -0.8816    1.8642 H   0  0  0  0  0  0  0  0  0  0  0  0
  1  2  1  0
  2  3  2  0
  2  4  1  0
  4  5  1  0
  4  6  1  0
  6  7  1  0
  7  8  1  0
  8  9  1  0
  8  4  1  0
  9  6  1  0
  1 10  1  0
  1 11  1  0
  1 12  1  0
  5 13  1  0
  5 14  1  0
  5 15  1  0
  6 16  1  0
  7 17  1  0
  7 18  1  0
  8 19  1  0
M  END
