
     RDKit          3D

 23 23  0  0  0  0  0  0  0  0999 V2000
   -3.2318   -0.1331   -0.3351 C   0  0  0  0  0  0  0  0  0  0  0  0
   -1.9891    0.6339   -0.5762 C   0  0  0  0  0  0  0  0  0  0  0  0
   -1.9910    1.8466   -0.5972 O   0  0  0  0  0  0  0  0  0  0  0  0
   -0.7188   -0.0838   -0.7964 C   0  0  0  0  0  0  0  0  0  0  0  0
    0.0945   -0.1351    0.4984 C   0  0  0  0  0  0  0  0  0  0  0  0
    0.3739    1.2677    0.9212 C   0  0  0  0  0  0  0  0  0  0  0  0
    1.2950   -0.9699    0.2398 C   0  0  0  0  0  0  0  0  0  0  0  0
    2.3009   -0.6366   -0.7914 C   0  0  0  0  0  0  0  0  0  0  0  0
    2.6306   -0.4837    0.6498 C   0  0  0  0  0  0  0  0  0  0  0  0
   -3.0681   -0.7579    0.5934 H   0  0  0  0  0  0  0  0  0  0  0  0
   -3.5055   -0.7723   -1.1896 H   0  0  0  0  0  0  0  0  0  0  0  0
   -4.0976    0.5134   -0.0893 H   0  0  0  0  0  0  0  0  0  0  0  0
   -0.1090    0.3886   -1.6162 H   0  0  0  0  0  0  0  0  0  0  0  0
   -0.8611   -1.1335   -1.1124 H   0  0  0  0  0  0  0  0  0  0  0  0
   -0.5513   -0.6150    1.2525 H   0  0  0  0  0  0  0  0  0  0  0  0
   -0.5936    1.6977    1.3136 H   0  0  0  0  0  0  0  0  0  0  0  0
    1.0801    1.3350    1.7719 H   0  0  0  0  0  0  0  0  0  0  0  0
    0.6471    1.9155    0.0674 H   0  0  0  0  0  0  0  0  0  0  0  0
    1.1197   -2.0697    0.3852 H   0  0  0  0  0  0  0  0  0  0  0  0
    2.8327   -1.4554   -1.3130 H   0  0  0  0  0  0  0  0  0  0  0  0
    2.2120    0.2795   -1.4105 H   0  0  0  0  0  0  0  0  0  0  0  0
    2.8007    0.5623    0.9922 H   0  0  0  0  0  0  0  0  0  0  0  0
    3.3297   -1.1940    1.1414 H   0  0  0  0  0  0  0  0  0  0  0  0
  1  2  1  0
  2  3  2  0
  2  4  1  0
  4  5  1  0
  5  6  1  0
  5  7  1  0
  7  8  1  0
  8  9  1  0
  9  7  1  0
  1 10  1  0
  1 11  1  0
  1 12  1  0
  4 13  1  0
  4 14  1  0
  5 15  1  0
  6 16  1  0
  6 17  1  0
  6 18  1  0
  7 19  1  0
  8 20  1  0
  8 21  1  0
  9 22  1  0
  9 23  1  0
M  END
