
     RDKit          3D

 21 21  0  0  0  0  0  0  0  0999 V2000
    2.4920    0.7903    0.2894 C   0  0  0  0  0  0  0  0  0  0  0  0
    1.7602   -0.4533    0.0852 C   0  0  0  0  0  0  0  0  0  0  0  0
    2.4449   -1.5212   -0.0538 O   0  0  0  0  0  0  0  0  0  0  0  0
    0.3242   -0.5307    0.0340 C   0  0  0  0  0  0  0  0  0  0  0  0
   -0.5568    0.4399    0.1520 C   0  0  0  0  0  0  0  0  0  0  0  0
   -0.3092    1.8882    0.3728 C   0  0  0  0  0  0  0  0  0  0  0  0
   -1.9671   -0.1171    0.0170 C   0  0  0  0  0  0  0  0  0  0  0  0
   -1.6593   -1.3121   -0.8923 C   0  0  0  0  0  0  0  0  0  0  0  0
   -0.4478   -1.8384   -0.1642 C   0  0  0  0  0  0  0  0  0  0  0  0
    3.5608    0.5686    0.5716 H   0  0  0  0  0  0  0  0  0  0  0  0
    2.5173    1.3706   -0.6588 H   0  0  0  0  0  0  0  0  0  0  0  0
    2.0895    1.4237    1.0973 H   0  0  0  0  0  0  0  0  0  0  0  0
    0.4202    2.3349   -0.3111 H   0  0  0  0  0  0  0  0  0  0  0  0
   -1.2814    2.4530    0.1649 H   0  0  0  0  0  0  0  0  0  0  0  0
   -0.1060    2.1371    1.4467 H   0  0  0  0  0  0  0  0  0  0  0  0
   -2.2386   -0.5171    0.9948 H   0  0  0  0  0  0  0  0  0  0  0  0
   -2.6543    0.5968   -0.4187 H   0  0  0  0  0  0  0  0  0  0  0  0
   -1.3398   -0.9445   -1.8888 H   0  0  0  0  0  0  0  0  0  0  0  0
   -2.4861   -2.0246   -0.9348 H   0  0  0  0  0  0  0  0  0  0  0  0
    0.1503   -2.5455   -0.7508 H   0  0  0  0  0  0  0  0  0  0  0  0
   -0.7130   -2.1984    0.8476 H   0  0  0  0  0  0  0  0  0  0  0  0
  1  2  1  0
  2  3  2  0
  2  4  1  0
  4  5  2  0
  5  6  1  0
  5  7  1  0
  7  8  1  0
  8  9  1  0
  9  4  1  0
  1 10  1  0
  1 11  1  0
  1 12  1  0
  6 13  1  0
  6 14  1  0
  6 15  1  0
  7 16  1  0
  7 17  1  0
  8 18  1  0
  8 19  1  0
  9 20  1  0
  9 21  1  0
M  END
