
     RDKit          3D

 21 21  0  0  0  0  0  0  0  0999 V2000
    2.6350   -0.5836    0.1263 C   0  0  0  0  0  0  0  0  0  0  0  0
    1.1999   -0.8277    0.3748 C   0  0  0  0  0  0  0  0  0  0  0  0
    0.8307   -1.9685    0.5072 O   0  0  0  0  0  0  0  0  0  0  0  0
    0.2728    0.2834    0.4550 C   0  0  0  0  0  0  0  0  0  0  0  0
   -1.1778   -0.0801    0.7097 C   0  0  0  0  0  0  0  0  0  0  0  0
   -1.6475   -1.2973   -0.0130 C   0  0  0  0  0  0  0  0  0  0  0  0
   -1.5101    1.1599   -0.1288 C   0  0  0  0  0  0  0  0  0  0  0  0
   -0.2289    0.8475   -0.8796 C   0  0  0  0  0  0  0  0  0  0  0  0
    0.4414    2.0046   -1.2723 O   0  0  0  0  0  0  0  0  0  0  0  0
    3.0569   -0.0391    0.9918 H   0  0  0  0  0  0  0  0  0  0  0  0
    3.2215   -1.5290    0.0399 H   0  0  0  0  0  0  0  0  0  0  0  0
    2.7996   -0.0384   -0.8234 H   0  0  0  0  0  0  0  0  0  0  0  0
    0.5507    1.1313    1.1177 H   0  0  0  0  0  0  0  0  0  0  0  0
   -1.4696    0.0038    1.7746 H   0  0  0  0  0  0  0  0  0  0  0  0
   -2.6935   -1.2170   -0.3735 H   0  0  0  0  0  0  0  0  0  0  0  0
   -1.6536   -2.1667    0.7037 H   0  0  0  0  0  0  0  0  0  0  0  0
   -1.0225   -1.5962   -0.8591 H   0  0  0  0  0  0  0  0  0  0  0  0
   -2.4340    1.0817   -0.7043 H   0  0  0  0  0  0  0  0  0  0  0  0
   -1.3702    2.0779    0.4665 H   0  0  0  0  0  0  0  0  0  0  0  0
   -0.3102    0.1214   -1.6883 H   0  0  0  0  0  0  0  0  0  0  0  0
    0.5093    2.6320   -0.5250 H   0  0  0  0  0  0  0  0  0  0  0  0
  1  2  1  0
  2  3  2  0
  2  4  1  0
  4  5  1  0
  5  6  1  0
  5  7  1  0
  7  8  1  0
  8  9  1  0
  8  4  1  0
  1 10  1  0
  1 11  1  0
  1 12  1  0
  4 13  1  0
  5 14  1  0
  6 15  1  0
  6 16  1  0
  6 17  1  0
  7 18  1  0
  7 19  1  0
  8 20  1  0
  9 21  1  0
M  END
