
     RDKit          3D

 19 19  0  0  0  0  0  0  0  0999 V2000
    3.3634    0.0687   -0.3349 C   0  0  0  0  0  0  0  0  0  0  0  0
    2.1179   -0.5641    0.1760 C   0  0  0  0  0  0  0  0  0  0  0  0
    2.2460   -1.5465    0.9664 O   0  0  0  0  0  0  0  0  0  0  0  0
    0.8477   -0.1263   -0.1745 O   0  0  0  0  0  0  0  0  0  0  0  0
   -0.3118   -0.7536    0.3319 C   0  0  0  0  0  0  0  0  0  0  0  0
   -1.5245   -0.0776   -0.2104 C   0  0  0  0  0  0  0  0  0  0  0  0
   -2.7488    0.0552    0.6720 C   0  0  0  0  0  0  0  0  0  0  0  0
   -1.2679    1.1453   -1.0610 C   0  0  0  0  0  0  0  0  0  0  0  0
   -1.7197   -0.0473   -1.5845 O   0  0  0  0  0  0  0  0  0  0  0  0
    3.9013   -0.6562   -1.0023 H   0  0  0  0  0  0  0  0  0  0  0  0
    4.0450    0.2617    0.5254 H   0  0  0  0  0  0  0  0  0  0  0  0
    3.1381    1.0057   -0.8796 H   0  0  0  0  0  0  0  0  0  0  0  0
   -0.2922   -0.8296    1.4266 H   0  0  0  0  0  0  0  0  0  0  0  0
   -0.3317   -1.8237   -0.0329 H   0  0  0  0  0  0  0  0  0  0  0  0
   -2.5057    0.7152    1.5462 H   0  0  0  0  0  0  0  0  0  0  0  0
   -3.5182    0.6336    0.0927 H   0  0  0  0  0  0  0  0  0  0  0  0
   -3.1910   -0.9004    0.9580 H   0  0  0  0  0  0  0  0  0  0  0  0
   -2.0198    1.9593   -1.0896 H   0  0  0  0  0  0  0  0  0  0  0  0
   -0.2281    1.4806   -1.2165 H   0  0  0  0  0  0  0  0  0  0  0  0
  1  2  1  0
  2  3  2  0
  2  4  1  0
  4  5  1  0
  5  6  1  0
  6  7  1  0
  6  8  1  0
  8  9  1  0
  9  6  1  0
  1 10  1  0
  1 11  1  0
  1 12  1  0
  5 13  1  0
  5 14  1  0
  7 15  1  0
  7 16  1  0
  7 17  1  0
  8 18  1  0
  8 19  1  0
M  END
