
     RDKit          3D

 21 21  0  0  0  0  0  0  0  0999 V2000
    2.9186    0.2855    0.3693 C   0  0  0  0  0  0  0  0  0  0  0  0
    2.0575   -0.8751    0.6186 C   0  0  0  0  0  0  0  0  0  0  0  0
    2.5799   -1.9210    0.9643 O   0  0  0  0  0  0  0  0  0  0  0  0
    0.5803   -0.8046    0.4610 C   0  0  0  0  0  0  0  0  0  0  0  0
    0.1057    0.5428    0.0339 C   0  0  0  0  0  0  0  0  0  0  0  0
   -1.3983    0.5700   -0.1159 C   0  0  0  0  0  0  0  0  0  0  0  0
   -1.8987    1.8301   -0.5217 O   0  0  0  0  0  0  0  0  0  0  0  0
   -2.2908   -0.1565    0.8156 C   0  0  0  0  0  0  0  0  0  0  0  0
   -2.1269   -0.6124   -0.6240 C   0  0  0  0  0  0  0  0  0  0  0  0
    3.9569   -0.0290    0.1402 H   0  0  0  0  0  0  0  0  0  0  0  0
    2.9313    0.9142    1.2854 H   0  0  0  0  0  0  0  0  0  0  0  0
    2.5526    0.8226   -0.5250 H   0  0  0  0  0  0  0  0  0  0  0  0
    0.3236   -1.5268   -0.3565 H   0  0  0  0  0  0  0  0  0  0  0  0
    0.0663   -1.1462    1.3804 H   0  0  0  0  0  0  0  0  0  0  0  0
    0.4045    1.3597    0.7009 H   0  0  0  0  0  0  0  0  0  0  0  0
    0.5647    0.7471   -0.9772 H   0  0  0  0  0  0  0  0  0  0  0  0
   -1.4565    2.5667   -0.0350 H   0  0  0  0  0  0  0  0  0  0  0  0
   -1.9213   -0.8001    1.6186 H   0  0  0  0  0  0  0  0  0  0  0  0
   -3.3089    0.2632    1.0271 H   0  0  0  0  0  0  0  0  0  0  0  0
   -1.6818   -1.6033   -0.7226 H   0  0  0  0  0  0  0  0  0  0  0  0
   -2.9589   -0.4269   -1.3389 H   0  0  0  0  0  0  0  0  0  0  0  0
  1  2  1  0
  2  3  2  0
  2  4  1  0
  4  5  1  0
  5  6  1  0
  6  7  1  0
  6  8  1  0
  8  9  1  0
  9  6  1  0
  1 10  1  0
  1 11  1  0
  1 12  1  0
  4 13  1  0
  4 14  1  0
  5 15  1  0
  5 16  1  0
  7 17  1  0
  8 18  1  0
  8 19  1  0
  9 20  1  0
  9 21  1  0
M  END
