
     RDKit          3D

 21 20  0  0  0  0  0  0  0  0999 V2000
    2.8750    0.5492   -0.5741 C   0  0  0  0  0  0  0  0  0  0  0  0
    1.4144    0.6896   -0.3446 C   0  0  0  0  0  0  0  0  0  0  0  0
    0.9168    1.7880   -0.5076 O   0  0  0  0  0  0  0  0  0  0  0  0
    0.6121   -0.4690    0.0653 C   0  0  0  0  0  0  0  0  0  0  0  0
   -0.8386   -0.1693    0.2565 C   0  0  0  0  0  0  0  0  0  0  0  0
   -1.5221   -1.4632    0.6761 C   0  0  0  0  0  0  0  0  0  0  0  0
   -1.5173    0.2874   -1.0125 C   0  0  0  0  0  0  0  0  0  0  0  0
   -1.0264    0.8697    1.2764 C   0  0  0  0  0  0  0  0  0  0  0  0
   -1.2595    2.0131    0.9649 O   0  0  0  0  0  0  0  0  0  0  0  0
    3.0943   -0.3466   -1.2010 H   0  0  0  0  0  0  0  0  0  0  0  0
    3.3610    0.4367    0.3956 H   0  0  0  0  0  0  0  0  0  0  0  0
    3.3156    1.4287   -1.0845 H   0  0  0  0  0  0  0  0  0  0  0  0
    0.7560   -1.3005   -0.6664 H   0  0  0  0  0  0  0  0  0  0  0  0
    0.9962   -0.8693    1.0351 H   0  0  0  0  0  0  0  0  0  0  0  0
   -2.4115   -1.2170    1.3145 H   0  0  0  0  0  0  0  0  0  0  0  0
   -1.8191   -1.9968   -0.2340 H   0  0  0  0  0  0  0  0  0  0  0  0
   -0.7867   -2.0372    1.2807 H   0  0  0  0  0  0  0  0  0  0  0  0
   -1.2012    1.2735   -1.3566 H   0  0  0  0  0  0  0  0  0  0  0  0
   -1.3878   -0.4350   -1.8269 H   0  0  0  0  0  0  0  0  0  0  0  0
   -2.6125    0.3434   -0.7771 H   0  0  0  0  0  0  0  0  0  0  0  0
   -0.9585    0.6245    2.3203 H   0  0  0  0  0  0  0  0  0  0  0  0
  1  2  1  0
  2  3  2  0
  2  4  1  0
  4  5  1  0
  5  6  1  0
  5  7  1  0
  5  8  1  0
  8  9  2  0
  1 10  1  0
  1 11  1  0
  1 12  1  0
  4 13  1  0
  4 14  1  0
  6 15  1  0
  6 16  1  0
  6 17  1  0
  7 18  1  0
  7 19  1  0
  7 20  1  0
  8 21  1  0
M  END
