
     RDKit          3D

 16 15  0  0  0  0  0  0  0  0999 V2000
    2.1650   -0.6042   -0.3114 C   0  0  0  0  0  0  0  0  0  0  0  0
    1.2313   -0.1592    0.7595 C   0  0  0  0  0  0  0  0  0  0  0  0
    1.4299   -0.4753    1.9222 O   0  0  0  0  0  0  0  0  0  0  0  0
    0.0515    0.6814    0.3656 C   0  0  0  0  0  0  0  0  0  0  0  0
   -0.7063    1.0020    1.4897 O   0  0  0  0  0  0  0  0  0  0  0  0
   -0.7880   -0.0248   -0.6599 C   0  0  0  0  0  0  0  0  0  0  0  0
   -2.2294   -0.2993   -0.4138 C   0  0  0  0  0  0  0  0  0  0  0  0
   -0.3228   -0.3958   -1.7223 O   0  0  0  0  0  0  0  0  0  0  0  0
    1.7021   -1.3311   -0.9963 H   0  0  0  0  0  0  0  0  0  0  0  0
    3.0453   -1.1036    0.1446 H   0  0  0  0  0  0  0  0  0  0  0  0
    2.4655    0.2822   -0.9202 H   0  0  0  0  0  0  0  0  0  0  0  0
    0.4639    1.5785   -0.1397 H   0  0  0  0  0  0  0  0  0  0  0  0
   -0.6742    1.9867    1.5789 H   0  0  0  0  0  0  0  0  0  0  0  0
   -2.5753   -1.1580   -1.0304 H   0  0  0  0  0  0  0  0  0  0  0  0
   -2.8557    0.5933   -0.7070 H   0  0  0  0  0  0  0  0  0  0  0  0
   -2.4029   -0.5729    0.6404 H   0  0  0  0  0  0  0  0  0  0  0  0
  1  2  1  0
  2  3  2  0
  2  4  1  0
  4  5  1  0
  4  6  1  0
  6  7  1  0
  6  8  2  0
  1  9  1  0
  1 10  1  0
  1 11  1  0
  4 12  1  0
  5 13  1  0
  7 14  1  0
  7 15  1  0
  7 16  1  0
M  END
