
     RDKit          3D

 19 18  0  0  0  0  0  0  0  0999 V2000
    2.6009    0.4563    0.2625 C   0  0  0  0  0  0  0  0  0  0  0  0
    1.4699    0.0087   -0.5855 C   0  0  0  0  0  0  0  0  0  0  0  0
    1.4236    0.4192   -1.7330 O   0  0  0  0  0  0  0  0  0  0  0  0
    0.3939   -0.8954   -0.1522 C   0  0  0  0  0  0  0  0  0  0  0  0
   -0.8576   -0.1632    0.2648 C   0  0  0  0  0  0  0  0  0  0  0  0
   -1.4221    0.6662   -0.8681 C   0  0  0  0  0  0  0  0  0  0  0  0
   -0.5740    0.7033    1.3297 O   0  0  0  0  0  0  0  0  0  0  0  0
   -1.9004   -1.1151    0.6868 C   0  0  0  0  0  0  0  0  0  0  0  0
   -2.3723   -1.0825    1.7997 O   0  0  0  0  0  0  0  0  0  0  0  0
    3.4490   -0.2391    0.1079 H   0  0  0  0  0  0  0  0  0  0  0  0
    2.3206    0.5672    1.3285 H   0  0  0  0  0  0  0  0  0  0  0  0
    2.9123    1.4590   -0.0895 H   0  0  0  0  0  0  0  0  0  0  0  0
    0.0853   -1.5787   -0.9965 H   0  0  0  0  0  0  0  0  0  0  0  0
    0.6768   -1.5796    0.6667 H   0  0  0  0  0  0  0  0  0  0  0  0
   -1.5630    0.1092   -1.7966 H   0  0  0  0  0  0  0  0  0  0  0  0
   -0.8137    1.5952   -1.0170 H   0  0  0  0  0  0  0  0  0  0  0  0
   -2.4274    1.0222   -0.5134 H   0  0  0  0  0  0  0  0  0  0  0  0
   -1.1429    1.5057    1.3017 H   0  0  0  0  0  0  0  0  0  0  0  0
   -2.2587   -1.8585    0.0036 H   0  0  0  0  0  0  0  0  0  0  0  0
  1  2  1  0
  2  3  2  0
  2  4  1  0
  4  5  1  0
  5  6  1  0
  5  7  1  0
  5  8  1  0
  8  9  2  0
  1 10  1  0
  1 11  1  0
  1 12  1  0
  4 13  1  0
  4 14  1  0
  6 15  1  0
  6 16  1  0
  6 17  1  0
  7 18  1  0
  8 19  1  0
M  END
