
     RDKit          3D

 19 20  0  0  0  0  0  0  0  0999 V2000
    2.6798   -0.4929    0.3291 C   0  0  0  0  0  0  0  0  0  0  0  0
    1.5779    0.4764    0.6068 C   0  0  0  0  0  0  0  0  0  0  0  0
    1.7445    1.3192    1.4780 O   0  0  0  0  0  0  0  0  0  0  0  0
    0.3141    0.4445   -0.1303 C   0  0  0  0  0  0  0  0  0  0  0  0
   -0.4152   -0.8562    0.0210 C   0  0  0  0  0  0  0  0  0  0  0  0
   -1.6916   -0.6830   -0.7740 C   0  0  0  0  0  0  0  0  0  0  0  0
   -2.0802    0.6922   -0.1926 C   0  0  0  0  0  0  0  0  0  0  0  0
   -0.8673    0.8767    0.6844 C   0  0  0  0  0  0  0  0  0  0  0  0
   -0.7918   -0.3977    1.2972 O   0  0  0  0  0  0  0  0  0  0  0  0
    3.5130   -0.3531    1.0381 H   0  0  0  0  0  0  0  0  0  0  0  0
    2.3449   -1.5390    0.4052 H   0  0  0  0  0  0  0  0  0  0  0  0
    3.1114   -0.2645   -0.6873 H   0  0  0  0  0  0  0  0  0  0  0  0
    0.3354    0.7827   -1.1826 H   0  0  0  0  0  0  0  0  0  0  0  0
    0.1138   -1.7778   -0.0444 H   0  0  0  0  0  0  0  0  0  0  0  0
   -1.4995   -0.5154   -1.8469 H   0  0  0  0  0  0  0  0  0  0  0  0
   -2.4475   -1.4339   -0.5564 H   0  0  0  0  0  0  0  0  0  0  0  0
   -2.9555    0.5478    0.4481 H   0  0  0  0  0  0  0  0  0  0  0  0
   -2.1855    1.4445   -0.9688 H   0  0  0  0  0  0  0  0  0  0  0  0
   -0.8005    1.7295    1.3176 H   0  0  0  0  0  0  0  0  0  0  0  0
  1  2  1  0
  2  3  2  0
  2  4  1  0
  4  5  1  0
  5  6  1  0
  6  7  1  0
  7  8  1  0
  8  9  1  0
  8  4  1  0
  9  5  1  0
  1 10  1  0
  1 11  1  0
  1 12  1  0
  4 13  1  0
  5 14  1  0
  6 15  1  0
  6 16  1  0
  7 17  1  0
  7 18  1  0
  8 19  1  0
M  END
