
     RDKit          3D

 19 19  0  0  0  0  0  0  0  0999 V2000
    2.6840   -0.0582   -0.1887 C   0  0  0  0  0  0  0  0  0  0  0  0
    1.3219   -0.6204   -0.3306 C   0  0  0  0  0  0  0  0  0  0  0  0
    1.1543   -1.6869   -0.8758 O   0  0  0  0  0  0  0  0  0  0  0  0
    0.1756    0.1199    0.1919 C   0  0  0  0  0  0  0  0  0  0  0  0
    0.5218    1.3253    0.7901 O   0  0  0  0  0  0  0  0  0  0  0  0
   -0.5726   -0.6721    1.1966 C   0  0  0  0  0  0  0  0  0  0  0  0
   -1.8668   -0.6147    0.9409 C   0  0  0  0  0  0  0  0  0  0  0  0
   -2.1820    0.2054   -0.2470 C   0  0  0  0  0  0  0  0  0  0  0  0
   -0.8324    0.3134   -0.9234 C   0  0  0  0  0  0  0  0  0  0  0  0
    3.2470   -0.2948   -1.1251 H   0  0  0  0  0  0  0  0  0  0  0  0
    3.2003   -0.4820    0.6965 H   0  0  0  0  0  0  0  0  0  0  0  0
    2.6071    1.0574   -0.0606 H   0  0  0  0  0  0  0  0  0  0  0  0
    0.2041    2.1122    0.3038 H   0  0  0  0  0  0  0  0  0  0  0  0
   -0.1071   -1.2332    2.0432 H   0  0  0  0  0  0  0  0  0  0  0  0
   -2.6008   -1.1515    1.5911 H   0  0  0  0  0  0  0  0  0  0  0  0
   -2.5789    1.2088   -0.0016 H   0  0  0  0  0  0  0  0  0  0  0  0
   -2.8823   -0.3881   -0.8849 H   0  0  0  0  0  0  0  0  0  0  0  0
   -0.7376   -0.4521   -1.7204 H   0  0  0  0  0  0  0  0  0  0  0  0
   -0.7555    1.3115   -1.3961 H   0  0  0  0  0  0  0  0  0  0  0  0
  1  2  1  0
  2  3  2  0
  2  4  1  0
  4  5  1  0
  4  6  1  0
  6  7  2  0
  7  8  1  0
  8  9  1  0
  9  4  1  0
  1 10  1  0
  1 11  1  0
  1 12  1  0
  5 13  1  0
  6 14  1  0
  7 15  1  0
  8 16  1  0
  8 17  1  0
  9 18  1  0
  9 19  1  0
M  END
