
     RDKit          3D

 17 18  0  0  0  0  0  0  0  0999 V2000
    2.7258    0.6629    0.3012 C   0  0  0  0  0  0  0  0  0  0  0  0
    1.5564   -0.2570    0.2230 C   0  0  0  0  0  0  0  0  0  0  0  0
    1.8060   -1.4346    0.0265 O   0  0  0  0  0  0  0  0  0  0  0  0
    0.1820    0.2359    0.3753 C   0  0  0  0  0  0  0  0  0  0  0  0
   -0.8324   -0.3294   -0.5318 C   0  0  0  0  0  0  0  0  0  0  0  0
   -2.2367    0.2520   -0.3701 C   0  0  0  0  0  0  0  0  0  0  0  0
   -2.2393   -0.3368    0.9979 C   0  0  0  0  0  0  0  0  0  0  0  0
   -3.1151   -0.4808    1.8317 O   0  0  0  0  0  0  0  0  0  0  0  0
   -0.8075   -0.6811    0.9801 C   0  0  0  0  0  0  0  0  0  0  0  0
    2.4363    1.7033    0.5452 H   0  0  0  0  0  0  0  0  0  0  0  0
    3.1834    0.6527   -0.7298 H   0  0  0  0  0  0  0  0  0  0  0  0
    3.5027    0.3195    0.9890 H   0  0  0  0  0  0  0  0  0  0  0  0
    0.0893    1.3393    0.5515 H   0  0  0  0  0  0  0  0  0  0  0  0
   -0.6756   -1.1948   -1.1686 H   0  0  0  0  0  0  0  0  0  0  0  0
   -2.9796   -0.1385   -1.0679 H   0  0  0  0  0  0  0  0  0  0  0  0
   -2.1376    1.3641   -0.3408 H   0  0  0  0  0  0  0  0  0  0  0  0
   -0.4580   -1.6769    1.2622 H   0  0  0  0  0  0  0  0  0  0  0  0
  1  2  1  0
  2  3  2  0
  2  4  1  0
  4  5  1  0
  5  6  1  0
  6  7  1  0
  7  8  2  0
  7  9  1  0
  9  4  1  0
  9  5  1  0
  1 10  1  0
  1 11  1  0
  1 12  1  0
  4 13  1  0
  5 14  1  0
  6 15  1  0
  6 16  1  0
  9 17  1  0
M  END
