
     RDKit          3D

 18 18  0  0  0  0  0  0  0  0999 V2000
    2.7090   -0.6668   -0.4916 C   0  0  0  0  0  0  0  0  0  0  0  0
    1.4223   -0.4064    0.2110 C   0  0  0  0  0  0  0  0  0  0  0  0
    1.2053   -1.0431    1.2267 O   0  0  0  0  0  0  0  0  0  0  0  0
    0.5169    0.6012   -0.3811 C   0  0  0  0  0  0  0  0  0  0  0  0
   -0.7479    0.8093    0.3726 C   0  0  0  0  0  0  0  0  0  0  0  0
   -1.6459   -0.3685    0.5408 C   0  0  0  0  0  0  0  0  0  0  0  0
   -2.4415    0.2171   -0.6224 C   0  0  0  0  0  0  0  0  0  0  0  0
   -1.7198    1.3858   -0.4742 O   0  0  0  0  0  0  0  0  0  0  0  0
    3.3545   -1.3748    0.0517 H   0  0  0  0  0  0  0  0  0  0  0  0
    3.3050    0.2738   -0.6041 H   0  0  0  0  0  0  0  0  0  0  0  0
    2.4536   -1.0725   -1.5022 H   0  0  0  0  0  0  0  0  0  0  0  0
    1.0697    1.5701   -0.3961 H   0  0  0  0  0  0  0  0  0  0  0  0
    0.3410    0.2980   -1.4423 H   0  0  0  0  0  0  0  0  0  0  0  0
   -0.6152    1.4642    1.2480 H   0  0  0  0  0  0  0  0  0  0  0  0
   -2.2393   -0.2731    1.4736 H   0  0  0  0  0  0  0  0  0  0  0  0
   -1.1985   -1.3450    0.3402 H   0  0  0  0  0  0  0  0  0  0  0  0
   -3.5240    0.2877   -0.4066 H   0  0  0  0  0  0  0  0  0  0  0  0
   -2.2452   -0.3570   -1.5503 H   0  0  0  0  0  0  0  0  0  0  0  0
  1  2  1  0
  2  3  2  0
  2  4  1  0
  4  5  1  0
  5  6  1  0
  6  7  1  0
  7  8  1  0
  8  5  1  0
  1  9  1  0
  1 10  1  0
  1 11  1  0
  4 12  1  0
  4 13  1  0
  5 14  1  0
  6 15  1  0
  6 16  1  0
  7 17  1  0
  7 18  1  0
M  END
