
     RDKit          3D

 17 16  0  0  0  0  0  0  0  0999 V2000
    2.4790    0.8805   -0.2760 C   0  0  0  0  0  0  0  0  0  0  0  0
    1.0940    0.4960   -0.6602 C   0  0  0  0  0  0  0  0  0  0  0  0
    0.4928    1.1836   -1.4300 O   0  0  0  0  0  0  0  0  0  0  0  0
    0.5125   -0.7181   -0.0776 C   0  0  0  0  0  0  0  0  0  0  0  0
   -0.8800   -1.0458   -0.4306 C   0  0  0  0  0  0  0  0  0  0  0  0
   -1.9518   -0.0979   -0.0504 C   0  0  0  0  0  0  0  0  0  0  0  0
   -1.8953    1.1707   -0.5524 O   0  0  0  0  0  0  0  0  0  0  0  0
    2.8073    1.8118   -0.7487 H   0  0  0  0  0  0  0  0  0  0  0  0
    3.1366    0.0057   -0.4881 H   0  0  0  0  0  0  0  0  0  0  0  0
    2.5027    1.0670    0.8379 H   0  0  0  0  0  0  0  0  0  0  0  0
    1.1382   -1.6363   -0.3289 H   0  0  0  0  0  0  0  0  0  0  0  0
    0.5691   -0.7108    1.0558 H   0  0  0  0  0  0  0  0  0  0  0  0
   -1.0248   -1.3090   -1.5067 H   0  0  0  0  0  0  0  0  0  0  0  0
   -1.1425   -2.0147    0.0993 H   0  0  0  0  0  0  0  0  0  0  0  0
   -2.0805   -0.0265    1.0674 H   0  0  0  0  0  0  0  0  0  0  0  0
   -2.9249   -0.5778   -0.3913 H   0  0  0  0  0  0  0  0  0  0  0  0
   -2.8324    1.5216   -0.5823 H   0  0  0  0  0  0  0  0  0  0  0  0
  1  2  1  0
  2  3  2  0
  2  4  1  0
  4  5  1  0
  5  6  1  0
  6  7  1  0
  1  8  1  0
  1  9  1  0
  1 10  1  0
  4 11  1  0
  4 12  1  0
  5 13  1  0
  5 14  1  0
  6 15  1  0
  6 16  1  0
  7 17  1  0
M  END
