
     RDKit          3D

 19 20  0  0  0  0  0  0  0  0999 V2000
    2.3995    0.3523    0.4321 C   0  0  0  0  0  0  0  0  0  0  0  0
    1.5791   -0.6332   -0.2831 C   0  0  0  0  0  0  0  0  0  0  0  0
    1.9089   -1.8058   -0.3354 O   0  0  0  0  0  0  0  0  0  0  0  0
    0.3188   -0.2459   -0.9699 C   0  0  0  0  0  0  0  0  0  0  0  0
   -0.3366   -1.3036   -1.5998 O   0  0  0  0  0  0  0  0  0  0  0  0
   -1.5958   -0.9320   -1.0693 C   0  0  0  0  0  0  0  0  0  0  0  0
   -0.8710   -0.0304   -0.1408 C   0  0  0  0  0  0  0  0  0  0  0  0
   -1.3502    1.1998    0.4182 C   0  0  0  0  0  0  0  0  0  0  0  0
   -0.9695   -0.0148    1.2917 C   0  0  0  0  0  0  0  0  0  0  0  0
    2.0830    1.3850    0.1010 H   0  0  0  0  0  0  0  0  0  0  0  0
    3.4701    0.1962    0.1869 H   0  0  0  0  0  0  0  0  0  0  0  0
    2.2595    0.2869    1.5325 H   0  0  0  0  0  0  0  0  0  0  0  0
    0.5385    0.5341   -1.7546 H   0  0  0  0  0  0  0  0  0  0  0  0
   -2.1660   -0.3590   -1.8256 H   0  0  0  0  0  0  0  0  0  0  0  0
   -2.1490   -1.7637   -0.6257 H   0  0  0  0  0  0  0  0  0  0  0  0
   -2.4495    1.4207    0.3299 H   0  0  0  0  0  0  0  0  0  0  0  0
   -0.7469    2.1150    0.5242 H   0  0  0  0  0  0  0  0  0  0  0  0
   -0.0964    0.1092    1.9556 H   0  0  0  0  0  0  0  0  0  0  0  0
   -1.8266   -0.5107    1.8320 H   0  0  0  0  0  0  0  0  0  0  0  0
  1  2  1  0
  2  3  2  0
  2  4  1  0
  4  5  1  0
  5  6  1  0
  6  7  1  0
  7  8  1  0
  8  9  1  0
  7  4  1  0
  9  7  1  0
  1 10  1  0
  1 11  1  0
  1 12  1  0
  4 13  1  0
  6 14  1  0
  6 15  1  0
  8 16  1  0
  8 17  1  0
  9 18  1  0
  9 19  1  0
M  END
