
     RDKit          3D

 19 20  0  0  0  0  0  0  0  0999 V2000
    3.3518   -0.0092    0.2524 C   0  0  0  0  0  0  0  0  0  0  0  0
    1.9789    0.5592    0.3282 C   0  0  0  0  0  0  0  0  0  0  0  0
    1.8195    1.7469    0.7023 O   0  0  0  0  0  0  0  0  0  0  0  0
    0.8436   -0.1651    0.0019 O   0  0  0  0  0  0  0  0  0  0  0  0
   -0.4189    0.4280    0.0945 C   0  0  0  0  0  0  0  0  0  0  0  0
   -1.4996   -0.3852    0.7361 C   0  0  0  0  0  0  0  0  0  0  0  0
   -1.4091   -1.2883   -0.4539 C   0  0  0  0  0  0  0  0  0  0  0  0
   -1.3435    0.0840   -1.0498 C   0  0  0  0  0  0  0  0  0  0  0  0
   -2.4457    0.4526   -0.0968 C   0  0  0  0  0  0  0  0  0  0  0  0
    3.6941    0.0116   -0.7894 H   0  0  0  0  0  0  0  0  0  0  0  0
    3.3298   -1.0608    0.5918 H   0  0  0  0  0  0  0  0  0  0  0  0
    4.0248    0.6146    0.8848 H   0  0  0  0  0  0  0  0  0  0  0  0
   -0.4522    1.4707    0.4314 H   0  0  0  0  0  0  0  0  0  0  0  0
   -1.6079   -0.6284    1.6979 H   0  0  0  0  0  0  0  0  0  0  0  0
   -2.2930   -1.8772   -0.7113 H   0  0  0  0  0  0  0  0  0  0  0  0
   -0.4712   -1.8669   -0.4489 H   0  0  0  0  0  0  0  0  0  0  0  0
   -1.2430    0.3468   -2.0053 H   0  0  0  0  0  0  0  0  0  0  0  0
   -2.4246    1.5352    0.1189 H   0  0  0  0  0  0  0  0  0  0  0  0
   -3.4337    0.0314   -0.2848 H   0  0  0  0  0  0  0  0  0  0  0  0
  1  2  1  0
  2  3  2  0
  2  4  1  0
  4  5  1  0
  5  6  1  0
  6  7  1  0
  7  8  1  0
  8  9  1  0
  8  5  1  0
  9  6  1  0
  1 10  1  0
  1 11  1  0
  1 12  1  0
  5 13  1  0
  6 14  1  0
  7 15  1  0
  7 16  1  0
  8 17  1  0
  9 18  1  0
  9 19  1  0
M  END
