
     RDKit          3D

 17 17  0  0  0  0  0  0  0  0999 V2000
    2.4719   -0.0923    0.4094 C   0  0  0  0  0  0  0  0  0  0  0  0
    1.3034   -0.3328   -0.4709 C   0  0  0  0  0  0  0  0  0  0  0  0
    1.4005   -1.1210   -1.3795 O   0  0  0  0  0  0  0  0  0  0  0  0
    0.0640    0.3847   -0.2231 C   0  0  0  0  0  0  0  0  0  0  0  0
   -1.0525    0.0808   -1.1543 C   0  0  0  0  0  0  0  0  0  0  0  0
   -2.2552    0.4097   -0.3686 C   0  0  0  0  0  0  0  0  0  0  0  0
   -1.9595    0.3209    0.9093 C   0  0  0  0  0  0  0  0  0  0  0  0
   -0.5521   -0.0687    1.0801 C   0  0  0  0  0  0  0  0  0  0  0  0
    0.0253   -0.6223    2.0197 O   0  0  0  0  0  0  0  0  0  0  0  0
    2.1991    0.5058    1.3107 H   0  0  0  0  0  0  0  0  0  0  0  0
    2.9545   -1.0172    0.7654 H   0  0  0  0  0  0  0  0  0  0  0  0
    3.1793    0.5513   -0.1717 H   0  0  0  0  0  0  0  0  0  0  0  0
    0.2220    1.4865   -0.2127 H   0  0  0  0  0  0  0  0  0  0  0  0
   -1.0232    0.7404   -2.0684 H   0  0  0  0  0  0  0  0  0  0  0  0
   -1.1292   -0.9875   -1.4366 H   0  0  0  0  0  0  0  0  0  0  0  0
   -3.2299    0.6819   -0.7659 H   0  0  0  0  0  0  0  0  0  0  0  0
   -2.6182    0.4970    1.7573 H   0  0  0  0  0  0  0  0  0  0  0  0
  1  2  1  0
  2  3  2  0
  2  4  1  0
  4  5  1  0
  5  6  1  0
  6  7  2  0
  7  8  1  0
  8  9  2  0
  8  4  1  0
  1 10  1  0
  1 11  1  0
  1 12  1  0
  4 13  1  0
  5 14  1  0
  5 15  1  0
  6 16  1  0
  7 17  1  0
M  END
