
     RDKit          3D

 18 18  0  0  0  0  0  0  0  0999 V2000
   -2.1372   -0.6039   -0.0723 C   0  0  0  0  0  0  0  0  0  0  0  0
   -1.2978    0.5152   -0.5133 C   0  0  0  0  0  0  0  0  0  0  0  0
   -1.8171    1.4477   -1.1036 O   0  0  0  0  0  0  0  0  0  0  0  0
    0.1441    0.5586   -0.2726 C   0  0  0  0  0  0  0  0  0  0  0  0
    0.8028    1.6948   -0.7457 O   0  0  0  0  0  0  0  0  0  0  0  0
    0.5994    0.1642    1.1242 C   0  0  0  0  0  0  0  0  0  0  0  0
    1.8817   -0.3148    0.4235 C   0  0  0  0  0  0  0  0  0  0  0  0
    0.9390   -0.6600   -0.7391 C   0  0  0  0  0  0  0  0  0  0  0  0
   -2.9717   -0.7406   -0.8121 H   0  0  0  0  0  0  0  0  0  0  0  0
   -2.5501   -0.4053    0.9405 H   0  0  0  0  0  0  0  0  0  0  0  0
   -1.6239   -1.5772   -0.0227 H   0  0  0  0  0  0  0  0  0  0  0  0
    0.6469    2.4912   -0.2203 H   0  0  0  0  0  0  0  0  0  0  0  0
    0.0370   -0.7153    1.4831 H   0  0  0  0  0  0  0  0  0  0  0  0
    0.7532    0.9869    1.8261 H   0  0  0  0  0  0  0  0  0  0  0  0
    2.3153   -1.2239    0.8473 H   0  0  0  0  0  0  0  0  0  0  0  0
    2.5430    0.4954    0.1283 H   0  0  0  0  0  0  0  0  0  0  0  0
    0.3424   -1.5611   -0.5416 H   0  0  0  0  0  0  0  0  0  0  0  0
    1.3927   -0.5521   -1.7296 H   0  0  0  0  0  0  0  0  0  0  0  0
  1  2  1  0
  2  3  2  0
  2  4  1  0
  4  5  1  0
  4  6  1  0
  6  7  1  0
  7  8  1  0
  8  4  1  0
  1  9  1  0
  1 10  1  0
  1 11  1  0
  5 12  1  0
  6 13  1  0
  6 14  1  0
  7 15  1  0
  7 16  1  0
  8 17  1  0
  8 18  1  0
M  END
