
     RDKit          3D

 23 22  0  0  0  0  0  0  0  0999 V2000
   -2.2322    1.2817   -0.3124 C   0  0  0  0  0  0  0  0  0  0  0  0
   -1.5928    0.1184   -0.9666 C   0  0  0  0  0  0  0  0  0  0  0  0
   -1.5963    0.0609   -2.1831 O   0  0  0  0  0  0  0  0  0  0  0  0
   -0.9661   -0.9498   -0.1968 C   0  0  0  0  0  0  0  0  0  0  0  0
    0.1284   -0.6181    0.7317 C   0  0  0  0  0  0  0  0  0  0  0  0
    0.5835   -1.9345    1.4024 C   0  0  0  0  0  0  0  0  0  0  0  0
    1.3550    0.0117    0.1957 C   0  0  0  0  0  0  0  0  0  0  0  0
    1.1936    1.3482   -0.4697 C   0  0  0  0  0  0  0  0  0  0  0  0
    2.4621    1.8116   -0.9107 O   0  0  0  0  0  0  0  0  0  0  0  0
   -1.5460    1.9007    0.2728 H   0  0  0  0  0  0  0  0  0  0  0  0
   -3.0689    0.9482    0.3559 H   0  0  0  0  0  0  0  0  0  0  0  0
   -2.7218    1.9591   -1.0489 H   0  0  0  0  0  0  0  0  0  0  0  0
   -1.7791   -1.4411    0.4347 H   0  0  0  0  0  0  0  0  0  0  0  0
   -0.6198   -1.8020   -0.8389 H   0  0  0  0  0  0  0  0  0  0  0  0
   -0.3031   -0.0335    1.5967 H   0  0  0  0  0  0  0  0  0  0  0  0
    1.0629   -1.7180    2.3760 H   0  0  0  0  0  0  0  0  0  0  0  0
   -0.2741   -2.6112    1.5577 H   0  0  0  0  0  0  0  0  0  0  0  0
    1.3462   -2.4309    0.7748 H   0  0  0  0  0  0  0  0  0  0  0  0
    1.8977   -0.6803   -0.5245 H   0  0  0  0  0  0  0  0  0  0  0  0
    2.1367    0.1588    1.0051 H   0  0  0  0  0  0  0  0  0  0  0  0
    0.5262    1.3660   -1.3379 H   0  0  0  0  0  0  0  0  0  0  0  0
    0.8577    2.1143    0.2815 H   0  0  0  0  0  0  0  0  0  0  0  0
    3.1502    1.1398   -0.6500 H   0  0  0  0  0  0  0  0  0  0  0  0
  1  2  1  0
  2  3  2  0
  2  4  1  0
  4  5  1  0
  5  6  1  0
  5  7  1  0
  7  8  1  0
  8  9  1  0
  1 10  1  0
  1 11  1  0
  1 12  1  0
  4 13  1  0
  4 14  1  0
  5 15  1  0
  6 16  1  0
  6 17  1  0
  6 18  1  0
  7 19  1  0
  7 20  1  0
  8 21  1  0
  8 22  1  0
  9 23  1  0
M  END
