
     RDKit          3D

 15 15  0  0  0  0  0  0  0  0999 V2000
    1.8890    0.0426   -0.2241 C   0  0  0  0  0  0  0  0  0  0  0  0
    0.6851    0.7962    0.2332 C   0  0  0  0  0  0  0  0  0  0  0  0
    0.8264    1.7790    0.9452 O   0  0  0  0  0  0  0  0  0  0  0  0
   -0.6756    0.3855   -0.1595 C   0  0  0  0  0  0  0  0  0  0  0  0
   -1.6788    1.3669   -0.0226 O   0  0  0  0  0  0  0  0  0  0  0  0
   -0.9615   -0.7249   -1.0609 C   0  0  0  0  0  0  0  0  0  0  0  0
   -1.0821   -0.9978    0.4052 C   0  0  0  0  0  0  0  0  0  0  0  0
    1.9985    0.2364   -1.3260 H   0  0  0  0  0  0  0  0  0  0  0  0
    2.8061    0.4830    0.2251 H   0  0  0  0  0  0  0  0  0  0  0  0
    1.8435   -1.0220    0.0238 H   0  0  0  0  0  0  0  0  0  0  0  0
   -1.2624    2.2111    0.2195 H   0  0  0  0  0  0  0  0  0  0  0  0
   -0.1287   -1.1457   -1.6314 H   0  0  0  0  0  0  0  0  0  0  0  0
   -1.9170   -0.7266   -1.6046 H   0  0  0  0  0  0  0  0  0  0  0  0
   -2.0688   -1.0537    0.8842 H   0  0  0  0  0  0  0  0  0  0  0  0
   -0.2738   -1.6301    0.8318 H   0  0  0  0  0  0  0  0  0  0  0  0
  1  2  1  0
  2  3  2  0
  2  4  1  0
  4  5  1  0
  4  6  1  0
  6  7  1  0
  7  4  1  0
  1  8  1  0
  1  9  1  0
  1 10  1  0
  5 11  1  0
  6 12  1  0
  6 13  1  0
  7 14  1  0
  7 15  1  0
M  END
