
     RDKit          3D

 19 19  0  0  0  0  0  0  0  0999 V2000
   -2.5007   -0.8536   -0.5610 C   0  0  0  0  0  0  0  0  0  0  0  0
   -1.0196   -0.7352   -0.4774 C   0  0  0  0  0  0  0  0  0  0  0  0
   -0.3587   -1.5249   -1.1074 O   0  0  0  0  0  0  0  0  0  0  0  0
   -0.4472    0.3417    0.3716 C   0  0  0  0  0  0  0  0  0  0  0  0
   -1.3572    1.1701    1.0340 O   0  0  0  0  0  0  0  0  0  0  0  0
    0.7448   -0.0151    1.2654 C   0  0  0  0  0  0  0  0  0  0  0  0
    0.8644    0.9030    0.0319 C   0  0  0  0  0  0  0  0  0  0  0  0
    1.7825    0.3512   -1.0027 C   0  0  0  0  0  0  0  0  0  0  0  0
    2.1842   -0.9656   -0.7576 O   0  0  0  0  0  0  0  0  0  0  0  0
   -2.8595    0.1437   -0.9523 H   0  0  0  0  0  0  0  0  0  0  0  0
   -2.9741   -1.0181    0.4272 H   0  0  0  0  0  0  0  0  0  0  0  0
   -2.8321   -1.6026   -1.2902 H   0  0  0  0  0  0  0  0  0  0  0  0
   -1.3980    2.0674    0.6691 H   0  0  0  0  0  0  0  0  0  0  0  0
    1.1491   -1.0244    1.2151 H   0  0  0  0  0  0  0  0  0  0  0  0
    0.8688    0.4841    2.2310 H   0  0  0  0  0  0  0  0  0  0  0  0
    0.9983    1.9970    0.2515 H   0  0  0  0  0  0  0  0  0  0  0  0
    1.3227    0.3665   -2.0235 H   0  0  0  0  0  0  0  0  0  0  0  0
    2.6816    0.9958   -1.0781 H   0  0  0  0  0  0  0  0  0  0  0  0
    3.1506   -1.0809   -0.7350 H   0  0  0  0  0  0  0  0  0  0  0  0
  1  2  1  0
  2  3  2  0
  2  4  1  0
  4  5  1  0
  4  6  1  0
  6  7  1  0
  7  8  1  0
  8  9  1  0
  7  4  1  0
  1 10  1  0
  1 11  1  0
  1 12  1  0
  5 13  1  0
  6 14  1  0
  6 15  1  0
  7 16  1  0
  8 17  1  0
  8 18  1  0
  9 19  1  0
M  END
