
     RDKit          3D

 19 19  0  0  0  0  0  0  0  0999 V2000
    3.0082    0.2799   -0.1065 C   0  0  0  0  0  0  0  0  0  0  0  0
    1.7273   -0.4695   -0.2590 C   0  0  0  0  0  0  0  0  0  0  0  0
    1.6925   -1.5930   -0.7035 O   0  0  0  0  0  0  0  0  0  0  0  0
    0.4851    0.2148    0.1565 C   0  0  0  0  0  0  0  0  0  0  0  0
   -0.7451   -0.6159   -0.0341 C   0  0  0  0  0  0  0  0  0  0  0  0
   -2.0269    0.0749    0.3885 C   0  0  0  0  0  0  0  0  0  0  0  0
   -2.8267   -0.6457    1.2462 O   0  0  0  0  0  0  0  0  0  0  0  0
   -1.7853   -0.3229   -1.0081 C   0  0  0  0  0  0  0  0  0  0  0  0
   -1.6935    0.7081   -1.9396 O   0  0  0  0  0  0  0  0  0  0  0  0
    2.8379    1.3510    0.0312 H   0  0  0  0  0  0  0  0  0  0  0  0
    3.5436   -0.1493    0.7759 H   0  0  0  0  0  0  0  0  0  0  0  0
    3.5957    0.0841   -1.0255 H   0  0  0  0  0  0  0  0  0  0  0  0
    0.4319    1.1930   -0.3271 H   0  0  0  0  0  0  0  0  0  0  0  0
    0.5904    0.4140    1.2571 H   0  0  0  0  0  0  0  0  0  0  0  0
   -0.6147   -1.6863    0.2795 H   0  0  0  0  0  0  0  0  0  0  0  0
   -1.9861    1.1666    0.6345 H   0  0  0  0  0  0  0  0  0  0  0  0
   -2.6458   -0.2977    2.1684 H   0  0  0  0  0  0  0  0  0  0  0  0
   -2.3983   -1.1839   -1.3823 H   0  0  0  0  0  0  0  0  0  0  0  0
   -1.1901    1.4777   -1.5781 H   0  0  0  0  0  0  0  0  0  0  0  0
  1  2  1  0
  2  3  2  0
  2  4  1  0
  4  5  1  0
  5  6  1  0
  6  7  1  0
  6  8  1  0
  8  9  1  0
  8  5  1  0
  1 10  1  0
  1 11  1  0
  1 12  1  0
  4 13  1  0
  4 14  1  0
  5 15  1  0
  6 16  1  0
  7 17  1  0
  8 18  1  0
  9 19  1  0
M  END
