
     RDKit          3D

 19 19  0  0  0  0  0  0  0  0999 V2000
    2.7404    0.0896   -0.5426 C   0  0  0  0  0  0  0  0  0  0  0  0
    1.4733   -0.3863    0.0606 C   0  0  0  0  0  0  0  0  0  0  0  0
    1.4143   -1.5353    0.4562 O   0  0  0  0  0  0  0  0  0  0  0  0
    0.3351    0.5477    0.1584 C   0  0  0  0  0  0  0  0  0  0  0  0
   -0.5537    0.5504    1.3454 C   0  0  0  0  0  0  0  0  0  0  0  0
   -1.0583    0.0878   -0.0059 C   0  0  0  0  0  0  0  0  0  0  0  0
   -1.4092   -1.3762   -0.0248 C   0  0  0  0  0  0  0  0  0  0  0  0
   -1.9999    0.9606   -0.7459 C   0  0  0  0  0  0  0  0  0  0  0  0
   -1.8074    2.1824   -0.7957 O   0  0  0  0  0  0  0  0  0  0  0  0
    3.6204   -0.4280   -0.1040 H   0  0  0  0  0  0  0  0  0  0  0  0
    2.8152    1.2035   -0.4132 H   0  0  0  0  0  0  0  0  0  0  0  0
    2.7363   -0.0758   -1.6363 H   0  0  0  0  0  0  0  0  0  0  0  0
    0.5433    1.5620   -0.2461 H   0  0  0  0  0  0  0  0  0  0  0  0
   -1.0133    1.5020    1.6799 H   0  0  0  0  0  0  0  0  0  0  0  0
   -0.3127   -0.1840    2.1258 H   0  0  0  0  0  0  0  0  0  0  0  0
   -0.8696   -1.9491    0.7344 H   0  0  0  0  0  0  0  0  0  0  0  0
   -1.3028   -1.8108   -1.0594 H   0  0  0  0  0  0  0  0  0  0  0  0
   -2.5040   -1.4381    0.2456 H   0  0  0  0  0  0  0  0  0  0  0  0
   -2.8474    0.4976   -1.2325 H   0  0  0  0  0  0  0  0  0  0  0  0
  1  2  1  0
  2  3  2  0
  2  4  1  0
  4  5  1  0
  5  6  1  0
  6  7  1  0
  6  8  1  0
  8  9  2  0
  6  4  1  0
  1 10  1  0
  1 11  1  0
  1 12  1  0
  4 13  1  0
  5 14  1  0
  5 15  1  0
  7 16  1  0
  7 17  1  0
  7 18  1  0
  8 19  1  0
M  END
