
     RDKit          3D

 20 20  0  0  0  0  0  0  0  0999 V2000
    1.9730   -0.8941   -0.4917 C   0  0  0  0  0  0  0  0  0  0  0  0
    1.5407   -0.2703    0.7781 C   0  0  0  0  0  0  0  0  0  0  0  0
    2.3165   -0.3014    1.7340 O   0  0  0  0  0  0  0  0  0  0  0  0
    0.2512    0.3635    0.9195 C   0  0  0  0  0  0  0  0  0  0  0  0
   -0.0918    1.5150   -0.0094 C   0  0  0  0  0  0  0  0  0  0  0  0
   -1.5541    1.1228    0.2657 C   0  0  0  0  0  0  0  0  0  0  0  0
   -0.9979   -0.2997    0.4701 C   0  0  0  0  0  0  0  0  0  0  0  0
   -1.0477   -1.0207   -0.8228 C   0  0  0  0  0  0  0  0  0  0  0  0
    1.8963   -0.1636   -1.3474 H   0  0  0  0  0  0  0  0  0  0  0  0
    1.4341   -1.8034   -0.7565 H   0  0  0  0  0  0  0  0  0  0  0  0
    3.0595   -1.1864   -0.4398 H   0  0  0  0  0  0  0  0  0  0  0  0
    0.0658    0.7574    1.9777 H   0  0  0  0  0  0  0  0  0  0  0  0
    0.0800    2.5249    0.4186 H   0  0  0  0  0  0  0  0  0  0  0  0
    0.2011    1.3931   -1.0514 H   0  0  0  0  0  0  0  0  0  0  0  0
   -2.2203    1.1974   -0.5874 H   0  0  0  0  0  0  0  0  0  0  0  0
   -1.9095    1.5224    1.2336 H   0  0  0  0  0  0  0  0  0  0  0  0
   -1.5396   -0.8392    1.2954 H   0  0  0  0  0  0  0  0  0  0  0  0
   -0.9199   -2.1278   -0.7520 H   0  0  0  0  0  0  0  0  0  0  0  0
   -0.4282   -0.5795   -1.6216 H   0  0  0  0  0  0  0  0  0  0  0  0
   -2.1092   -0.9105   -1.2126 H   0  0  0  0  0  0  0  0  0  0  0  0
  1  2  1  0
  2  3  2  0
  2  4  1  0
  4  5  1  0
  5  6  1  0
  6  7  1  0
  7  8  1  0
  7  4  1  0
  1  9  1  0
  1 10  1  0
  1 11  1  0
  4 12  1  0
  5 13  1  0
  5 14  1  0
  6 15  1  0
  6 16  1  0
  7 17  1  0
  8 18  1  0
  8 19  1  0
  8 20  1  0
M  END
