
     RDKit          3D

 15 15  0  0  0  0  0  0  0  0999 V2000
   -2.0886    0.0574    0.2068 C   0  0  0  0  0  0  0  0  0  0  0  0
   -0.7558   -0.5814    0.2734 C   0  0  0  0  0  0  0  0  0  0  0  0
   -0.6678   -1.6698    0.8079 O   0  0  0  0  0  0  0  0  0  0  0  0
    0.4132    0.1046   -0.2995 C   0  0  0  0  0  0  0  0  0  0  0  0
    0.1492    1.3428   -0.8760 O   0  0  0  0  0  0  0  0  0  0  0  0
    1.6359    0.1253    0.6269 C   0  0  0  0  0  0  0  0  0  0  0  0
    2.3863    0.0056   -0.5905 O   0  0  0  0  0  0  0  0  0  0  0  0
    1.3358   -0.7420   -1.0834 C   0  0  0  0  0  0  0  0  0  0  0  0
    1.2606   -1.7117   -1.8603 O   0  0  0  0  0  0  0  0  0  0  0  0
   -2.4291    0.2449   -0.8340 H   0  0  0  0  0  0  0  0  0  0  0  0
   -2.8645   -0.5395    0.7345 H   0  0  0  0  0  0  0  0  0  0  0  0
   -2.0499    1.0387    0.7525 H   0  0  0  0  0  0  0  0  0  0  0  0
    0.2180    2.0887   -0.2051 H   0  0  0  0  0  0  0  0  0  0  0  0
    1.6826   -0.8195    1.1757 H   0  0  0  0  0  0  0  0  0  0  0  0
    1.7741    1.0559    1.1709 H   0  0  0  0  0  0  0  0  0  0  0  0
  1  2  1  0
  2  3  2  0
  2  4  1  0
  4  5  1  0
  4  6  1  0
  6  7  1  0
  7  8  1  0
  8  9  2  0
  8  4  1  0
  1 10  1  0
  1 11  1  0
  1 12  1  0
  5 13  1  0
  6 14  1  0
  6 15  1  0
M  END
