
     RDKit          3D

 15 15  0  0  0  0  0  0  0  0999 V2000
    2.1621    0.4546   -0.4235 C   0  0  0  0  0  0  0  0  0  0  0  0
    1.0922    0.1953    0.5672 C   0  0  0  0  0  0  0  0  0  0  0  0
    1.1440    0.7972    1.6236 O   0  0  0  0  0  0  0  0  0  0  0  0
   -0.0186   -0.7414    0.3444 C   0  0  0  0  0  0  0  0  0  0  0  0
   -0.9448   -0.8759    1.3704 O   0  0  0  0  0  0  0  0  0  0  0  0
   -2.0905   -0.6582    0.5938 C   0  0  0  0  0  0  0  0  0  0  0  0
   -3.3382   -0.7633    0.7155 O   0  0  0  0  0  0  0  0  0  0  0  0
   -1.1604   -0.2247   -0.5013 C   0  0  0  0  0  0  0  0  0  0  0  0
   -1.2171    1.1421   -0.6541 O   0  0  0  0  0  0  0  0  0  0  0  0
    3.1275    0.0282   -0.0339 H   0  0  0  0  0  0  0  0  0  0  0  0
    2.3077    1.5686   -0.4958 H   0  0  0  0  0  0  0  0  0  0  0  0
    1.9549    0.0436   -1.4209 H   0  0  0  0  0  0  0  0  0  0  0  0
    0.3698   -1.7367    0.0345 H   0  0  0  0  0  0  0  0  0  0  0  0
   -1.3531   -0.7795   -1.4379 H   0  0  0  0  0  0  0  0  0  0  0  0
   -2.0355    1.5501   -0.2818 H   0  0  0  0  0  0  0  0  0  0  0  0
  1  2  1  0
  2  3  2  0
  2  4  1  0
  4  5  1  0
  5  6  1  0
  6  7  2  0
  6  8  1  0
  8  9  1  0
  8  4  1  0
  1 10  1  0
  1 11  1  0
  1 12  1  0
  4 13  1  0
  8 14  1  0
  9 15  1  0
M  END
