
     RDKit          3D

 17 16  0  0  0  0  0  0  0  0999 V2000
   -2.3806   -0.3413    0.7506 C   0  0  0  0  0  0  0  0  0  0  0  0
   -0.9215   -0.1240    0.9868 C   0  0  0  0  0  0  0  0  0  0  0  0
   -0.3843   -0.7210    1.8965 O   0  0  0  0  0  0  0  0  0  0  0  0
   -0.1084    0.8052    0.1364 C   0  0  0  0  0  0  0  0  0  0  0  0
   -0.9688    1.3783   -0.8323 O   0  0  0  0  0  0  0  0  0  0  0  0
    0.9281    0.0579   -0.5709 C   0  0  0  0  0  0  0  0  0  0  0  0
    0.8691   -0.0130   -1.8049 O   0  0  0  0  0  0  0  0  0  0  0  0
    2.0835   -0.6497    0.0375 C   0  0  0  0  0  0  0  0  0  0  0  0
    2.1683   -0.5420    1.4037 O   0  0  0  0  0  0  0  0  0  0  0  0
   -2.7974    0.4797    0.1302 H   0  0  0  0  0  0  0  0  0  0  0  0
   -2.9160   -0.4463    1.7234 H   0  0  0  0  0  0  0  0  0  0  0  0
   -2.5031   -1.2949    0.1957 H   0  0  0  0  0  0  0  0  0  0  0  0
    0.2412    1.6391    0.7524 H   0  0  0  0  0  0  0  0  0  0  0  0
   -1.3897    2.1923   -0.4908 H   0  0  0  0  0  0  0  0  0  0  0  0
    3.0239   -0.3682   -0.4900 H   0  0  0  0  0  0  0  0  0  0  0  0
    1.9395   -1.7410   -0.2086 H   0  0  0  0  0  0  0  0  0  0  0  0
    3.1161   -0.3110    1.6246 H   0  0  0  0  0  0  0  0  0  0  0  0
  1  2  1  0
  2  3  2  0
  2  4  1  0
  4  5  1  0
  4  6  1  0
  6  7  2  0
  6  8  1  0
  8  9  1  0
  1 10  1  0
  1 11  1  0
  1 12  1  0
  4 13  1  0
  5 14  1  0
  8 15  1  0
  8 16  1  0
  9 17  1  0
M  END
