
     RDKit          3D

 19 19  0  0  0  0  0  0  0  0999 V2000
    3.0119    0.1967   -0.1509 C   0  0  0  0  0  0  0  0  0  0  0  0
    1.6531   -0.3995   -0.2856 C   0  0  0  0  0  0  0  0  0  0  0  0
    1.6149   -1.5754   -0.6191 O   0  0  0  0  0  0  0  0  0  0  0  0
    0.4324    0.3674   -0.0363 C   0  0  0  0  0  0  0  0  0  0  0  0
   -0.4321    0.3197   -1.2648 O   0  0  0  0  0  0  0  0  0  0  0  0
   -0.8693   -0.1766    0.0672 C   0  0  0  0  0  0  0  0  0  0  0  0
   -1.2416   -1.6136    0.0599 C   0  0  0  0  0  0  0  0  0  0  0  0
   -1.9989    0.7444    0.5332 C   0  0  0  0  0  0  0  0  0  0  0  0
   -1.5797    2.0586    0.6397 O   0  0  0  0  0  0  0  0  0  0  0  0
    3.4608   -0.1523    0.7999 H   0  0  0  0  0  0  0  0  0  0  0  0
    3.6516   -0.0781   -1.0276 H   0  0  0  0  0  0  0  0  0  0  0  0
    2.9279    1.3006   -0.1600 H   0  0  0  0  0  0  0  0  0  0  0  0
    0.6029    1.4246    0.2601 H   0  0  0  0  0  0  0  0  0  0  0  0
   -1.7232   -1.8414   -0.9295 H   0  0  0  0  0  0  0  0  0  0  0  0
   -0.4232   -2.3095    0.2808 H   0  0  0  0  0  0  0  0  0  0  0  0
   -2.0347   -1.8106    0.8266 H   0  0  0  0  0  0  0  0  0  0  0  0
   -2.7878    0.6417   -0.2661 H   0  0  0  0  0  0  0  0  0  0  0  0
   -2.4380    0.3561    1.4718 H   0  0  0  0  0  0  0  0  0  0  0  0
   -1.8270    2.5471   -0.1991 H   0  0  0  0  0  0  0  0  0  0  0  0
  1  2  1  0
  2  3  2  0
  2  4  1  0
  4  5  1  0
  5  6  1  0
  6  7  1  0
  6  8  1  0
  8  9  1  0
  6  4  1  0
  1 10  1  0
  1 11  1  0
  1 12  1  0
  4 13  1  0
  7 14  1  0
  7 15  1  0
  7 16  1  0
  8 17  1  0
  8 18  1  0
  9 19  1  0
M  END
