
     RDKit          3D

 18 18  0  0  0  0  0  0  0  0999 V2000
    1.8914   -0.8530   -0.0302 C   0  0  0  0  0  0  0  0  0  0  0  0
    1.4876    0.3469   -0.7889 C   0  0  0  0  0  0  0  0  0  0  0  0
    2.3197    0.8754   -1.5446 O   0  0  0  0  0  0  0  0  0  0  0  0
    0.1740    0.9942   -0.7409 C   0  0  0  0  0  0  0  0  0  0  0  0
   -0.8122    0.3395    0.1630 C   0  0  0  0  0  0  0  0  0  0  0  0
   -1.1710   -1.0944   -0.1377 C   0  0  0  0  0  0  0  0  0  0  0  0
   -1.3117    0.9181    1.3883 C   0  0  0  0  0  0  0  0  0  0  0  0
   -2.0590    1.1524    0.1420 O   0  0  0  0  0  0  0  0  0  0  0  0
    3.0134   -0.8842    0.0332 H   0  0  0  0  0  0  0  0  0  0  0  0
    1.5926   -1.8037   -0.4863 H   0  0  0  0  0  0  0  0  0  0  0  0
    1.5696   -0.7935    1.0513 H   0  0  0  0  0  0  0  0  0  0  0  0
   -0.2532    0.9441   -1.7848 H   0  0  0  0  0  0  0  0  0  0  0  0
    0.3162    2.0698   -0.5323 H   0  0  0  0  0  0  0  0  0  0  0  0
   -1.0175   -1.3467   -1.2072 H   0  0  0  0  0  0  0  0  0  0  0  0
   -0.5740   -1.7369    0.5393 H   0  0  0  0  0  0  0  0  0  0  0  0
   -2.2318   -1.3304    0.0886 H   0  0  0  0  0  0  0  0  0  0  0  0
   -1.9234    0.3112    2.0534 H   0  0  0  0  0  0  0  0  0  0  0  0
   -1.0107    1.8915    1.7936 H   0  0  0  0  0  0  0  0  0  0  0  0
  1  2  1  0
  2  3  2  0
  2  4  1  0
  4  5  1  0
  5  6  1  0
  5  7  1  0
  7  8  1  0
  8  5  1  0
  1  9  1  0
  1 10  1  0
  1 11  1  0
  4 12  1  0
  4 13  1  0
  6 14  1  0
  6 15  1  0
  6 16  1  0
  7 17  1  0
  7 18  1  0
M  END
