
     RDKit          3D

 21 20  0  0  0  0  0  0  0  0999 V2000
   -3.0987   -0.5503   -0.1127 C   0  0  0  0  0  0  0  0  0  0  0  0
   -2.0010    0.3441    0.3173 C   0  0  0  0  0  0  0  0  0  0  0  0
   -2.2436    1.5221    0.4543 O   0  0  0  0  0  0  0  0  0  0  0  0
   -0.6182   -0.1080    0.5926 C   0  0  0  0  0  0  0  0  0  0  0  0
    0.2247    0.2395   -0.6036 C   0  0  0  0  0  0  0  0  0  0  0  0
    0.2002    1.6030   -0.8066 O   0  0  0  0  0  0  0  0  0  0  0  0
    1.6506   -0.2303   -0.4834 C   0  0  0  0  0  0  0  0  0  0  0  0
    2.4012    0.4195    0.6235 C   0  0  0  0  0  0  0  0  0  0  0  0
    1.6679   -1.6088   -0.2781 O   0  0  0  0  0  0  0  0  0  0  0  0
   -2.9060   -1.6154    0.1189 H   0  0  0  0  0  0  0  0  0  0  0  0
   -4.0261   -0.2118    0.3795 H   0  0  0  0  0  0  0  0  0  0  0  0
   -3.2383   -0.4376   -1.2235 H   0  0  0  0  0  0  0  0  0  0  0  0
   -0.6431   -1.1975    0.7882 H   0  0  0  0  0  0  0  0  0  0  0  0
   -0.2801    0.4104    1.5216 H   0  0  0  0  0  0  0  0  0  0  0  0
   -0.2510   -0.2317   -1.4835 H   0  0  0  0  0  0  0  0  0  0  0  0
    0.7850    2.0299   -0.1215 H   0  0  0  0  0  0  0  0  0  0  0  0
    2.1533   -0.0030   -1.4406 H   0  0  0  0  0  0  0  0  0  0  0  0
    1.8970    0.3547    1.6030 H   0  0  0  0  0  0  0  0  0  0  0  0
    2.6929    1.4720    0.3580 H   0  0  0  0  0  0  0  0  0  0  0  0
    3.3793   -0.1293    0.7250 H   0  0  0  0  0  0  0  0  0  0  0  0
    2.2541   -2.0715   -0.9284 H   0  0  0  0  0  0  0  0  0  0  0  0
  1  2  1  0
  2  3  2  0
  2  4  1  0
  4  5  1  0
  5  6  1  0
  5  7  1  0
  7  8  1  0
  7  9  1  0
  1 10  1  0
  1 11  1  0
  1 12  1  0
  4 13  1  0
  4 14  1  0
  5 15  1  0
  6 16  1  0
  7 17  1  0
  8 18  1  0
  8 19  1  0
  8 20  1  0
  9 21  1  0
M  END
