
     RDKit          3D

 17 17  0  0  0  0  0  0  0  0999 V2000
    2.6201    0.4441    0.4492 C   0  0  0  0  0  0  0  0  0  0  0  0
    1.5476   -0.5207    0.1163 C   0  0  0  0  0  0  0  0  0  0  0  0
    1.9143   -1.7144   -0.0249 O   0  0  0  0  0  0  0  0  0  0  0  0
    0.1487   -0.1446   -0.0442 C   0  0  0  0  0  0  0  0  0  0  0  0
   -0.3809    1.0749    0.0753 C   0  0  0  0  0  0  0  0  0  0  0  0
   -1.8179    1.0464   -0.1591 C   0  0  0  0  0  0  0  0  0  0  0  0
   -2.5571    2.0254   -0.4397 O   0  0  0  0  0  0  0  0  0  0  0  0
   -2.2315   -0.3927    0.0039 C   0  0  0  0  0  0  0  0  0  0  0  0
   -0.9470   -1.0908   -0.3777 C   0  0  0  0  0  0  0  0  0  0  0  0
    2.3158    1.4946    0.2788 H   0  0  0  0  0  0  0  0  0  0  0  0
    3.5112    0.1878   -0.1607 H   0  0  0  0  0  0  0  0  0  0  0  0
    2.9092    0.2543    1.5145 H   0  0  0  0  0  0  0  0  0  0  0  0
    0.1574    1.9701    0.3112 H   0  0  0  0  0  0  0  0  0  0  0  0
   -3.0261   -0.6666   -0.6969 H   0  0  0  0  0  0  0  0  0  0  0  0
   -2.4596   -0.6216    1.0532 H   0  0  0  0  0  0  0  0  0  0  0  0
   -0.9236   -1.3445   -1.4684 H   0  0  0  0  0  0  0  0  0  0  0  0
   -0.7805   -2.0017    0.2236 H   0  0  0  0  0  0  0  0  0  0  0  0
  1  2  1  0
  2  3  2  0
  2  4  1  0
  4  5  2  0
  5  6  1  0
  6  7  2  0
  6  8  1  0
  8  9  1  0
  9  4  1  0
  1 10  1  0
  1 11  1  0
  1 12  1  0
  5 13  1  0
  8 14  1  0
  8 15  1  0
  9 16  1  0
  9 17  1  0
M  END
