
     RDKit          3D

 22 21  0  0  0  0  0  0  0  0999 V2000
    1.6678   -1.0524   -0.9380 C   0  0  0  0  0  0  0  0  0  0  0  0
    1.1982   -0.7985    0.4516 C   0  0  0  0  0  0  0  0  0  0  0  0
    1.5445   -1.6166    1.2884 O   0  0  0  0  0  0  0  0  0  0  0  0
    0.3724    0.3405    0.8516 C   0  0  0  0  0  0  0  0  0  0  0  0
    1.0071    1.6813    0.5723 C   0  0  0  0  0  0  0  0  0  0  0  0
   -1.0158    0.2926    0.2747 C   0  0  0  0  0  0  0  0  0  0  0  0
   -1.7474   -0.9491    0.7138 C   0  0  0  0  0  0  0  0  0  0  0  0
   -1.0665    0.3850   -1.2158 C   0  0  0  0  0  0  0  0  0  0  0  0
    1.5247   -0.2220   -1.6218 H   0  0  0  0  0  0  0  0  0  0  0  0
    2.7559   -1.3437   -0.8408 H   0  0  0  0  0  0  0  0  0  0  0  0
    1.0867   -1.9274   -1.3523 H   0  0  0  0  0  0  0  0  0  0  0  0
    0.2357    0.3130    1.9676 H   0  0  0  0  0  0  0  0  0  0  0  0
    0.2411    2.4714    0.7187 H   0  0  0  0  0  0  0  0  0  0  0  0
    1.3577    1.7808   -0.4722 H   0  0  0  0  0  0  0  0  0  0  0  0
    1.8073    1.8976    1.3164 H   0  0  0  0  0  0  0  0  0  0  0  0
   -1.6066    1.1527    0.6748 H   0  0  0  0  0  0  0  0  0  0  0  0
   -1.4895   -1.8420    0.1277 H   0  0  0  0  0  0  0  0  0  0  0  0
   -2.8386   -0.7608    0.5207 H   0  0  0  0  0  0  0  0  0  0  0  0
   -1.6466   -1.0696    1.8004 H   0  0  0  0  0  0  0  0  0  0  0  0
   -0.4079    1.1927   -1.6247 H   0  0  0  0  0  0  0  0  0  0  0  0
   -2.1343    0.6367   -1.4809 H   0  0  0  0  0  0  0  0  0  0  0  0
   -0.8460   -0.5619   -1.7321 H   0  0  0  0  0  0  0  0  0  0  0  0
  1  2  1  0
  2  3  2  0
  2  4  1  0
  4  5  1  0
  4  6  1  0
  6  7  1  0
  6  8  1  0
  1  9  1  0
  1 10  1  0
  1 11  1  0
  4 12  1  0
  5 13  1  0
  5 14  1  0
  5 15  1  0
  6 16  1  0
  7 17  1  0
  7 18  1  0
  7 19  1  0
  8 20  1  0
  8 21  1  0
  8 22  1  0
M  END
