
     RDKit          3D

 19 18  0  0  0  0  0  0  0  0999 V2000
   -2.1029    0.9228   -1.2923 C   0  0  0  0  0  0  0  0  0  0  0  0
   -1.5720   -0.4435   -1.0939 C   0  0  0  0  0  0  0  0  0  0  0  0
   -1.7458   -1.2764   -1.9484 O   0  0  0  0  0  0  0  0  0  0  0  0
   -0.8355   -0.7936    0.1348 C   0  0  0  0  0  0  0  0  0  0  0  0
   -0.4215   -2.2275    0.0622 C   0  0  0  0  0  0  0  0  0  0  0  0
    0.3569    0.0567    0.3179 C   0  0  0  0  0  0  0  0  0  0  0  0
    1.3159    0.7619    0.4728 C   0  0  0  0  0  0  0  0  0  0  0  0
    2.4996    1.6051    0.6486 C   0  0  0  0  0  0  0  0  0  0  0  0
    2.8313    1.6363    2.0115 O   0  0  0  0  0  0  0  0  0  0  0  0
   -2.4952    1.2749   -0.3175 H   0  0  0  0  0  0  0  0  0  0  0  0
   -1.2804    1.6396   -1.5715 H   0  0  0  0  0  0  0  0  0  0  0  0
   -2.8929    0.9063   -2.0835 H   0  0  0  0  0  0  0  0  0  0  0  0
   -1.4376   -0.6598    1.0545 H   0  0  0  0  0  0  0  0  0  0  0  0
   -0.3482   -2.6081   -0.9770 H   0  0  0  0  0  0  0  0  0  0  0  0
    0.5379   -2.4258    0.6020 H   0  0  0  0  0  0  0  0  0  0  0  0
   -1.1989   -2.8445    0.5585 H   0  0  0  0  0  0  0  0  0  0  0  0
    2.3556    2.6296    0.2967 H   0  0  0  0  0  0  0  0  0  0  0  0
    3.3655    1.1094    0.1375 H   0  0  0  0  0  0  0  0  0  0  0  0
    3.0682    0.7365    2.3495 H   0  0  0  0  0  0  0  0  0  0  0  0
  1  2  1  0
  2  3  2  0
  2  4  1  0
  4  5  1  0
  4  6  1  0
  6  7  3  0
  7  8  1  0
  8  9  1  0
  1 10  1  0
  1 11  1  0
  1 12  1  0
  4 13  1  0
  5 14  1  0
  5 15  1  0
  5 16  1  0
  8 17  1  0
  8 18  1  0
  9 19  1  0
M  END
