
     RDKit          3D

 19 20  0  0  0  0  0  0  0  0999 V2000
    2.8606    0.4022    0.1356 C   0  0  0  0  0  0  0  0  0  0  0  0
    1.3767    0.4496    0.0073 C   0  0  0  0  0  0  0  0  0  0  0  0
    0.8689    1.5374   -0.0821 O   0  0  0  0  0  0  0  0  0  0  0  0
    0.6359   -0.8077   -0.0027 C   0  0  0  0  0  0  0  0  0  0  0  0
   -0.8231   -0.7791   -0.1788 C   0  0  0  0  0  0  0  0  0  0  0  0
   -1.6557   -0.0066    0.8425 C   0  0  0  0  0  0  0  0  0  0  0  0
   -2.3632    0.5623   -0.3777 C   0  0  0  0  0  0  0  0  0  0  0  0
   -1.4199    1.4141   -1.1260 O   0  0  0  0  0  0  0  0  0  0  0  0
   -1.4549    0.0552   -1.2489 C   0  0  0  0  0  0  0  0  0  0  0  0
    3.2982   -0.4077   -0.4850 H   0  0  0  0  0  0  0  0  0  0  0  0
    3.3140    1.3512   -0.1675 H   0  0  0  0  0  0  0  0  0  0  0  0
    3.0818    0.2384    1.2272 H   0  0  0  0  0  0  0  0  0  0  0  0
    1.0416   -1.5291   -0.7895 H   0  0  0  0  0  0  0  0  0  0  0  0
    0.8763   -1.3683    0.9498 H   0  0  0  0  0  0  0  0  0  0  0  0
   -1.2458   -1.8509   -0.2544 H   0  0  0  0  0  0  0  0  0  0  0  0
   -2.3817   -0.6388    1.3993 H   0  0  0  0  0  0  0  0  0  0  0  0
   -1.1347    0.7699    1.3984 H   0  0  0  0  0  0  0  0  0  0  0  0
   -3.3243    1.0311   -0.3369 H   0  0  0  0  0  0  0  0  0  0  0  0
   -1.5505   -0.4234   -2.2485 H   0  0  0  0  0  0  0  0  0  0  0  0
  1  2  1  0
  2  3  2  0
  2  4  1  0
  4  5  1  0
  5  6  1  0
  6  7  1  0
  7  8  1  0
  8  9  1  0
  9  5  1  0
  9  7  1  0
  1 10  1  0
  1 11  1  0
  1 12  1  0
  4 13  1  0
  4 14  1  0
  5 15  1  0
  6 16  1  0
  6 17  1  0
  7 18  1  0
  9 19  1  0
M  END
