
     RDKit          3D

 19 20  0  0  0  0  0  0  0  0999 V2000
    2.9437    0.4516    0.1069 C   0  0  0  0  0  0  0  0  0  0  0  0
    1.5537    0.0891    0.4788 C   0  0  0  0  0  0  0  0  0  0  0  0
    1.1843    0.0719    1.6407 O   0  0  0  0  0  0  0  0  0  0  0  0
    0.5947   -0.2627   -0.6314 C   0  0  0  0  0  0  0  0  0  0  0  0
   -0.3279   -1.4447   -0.3026 C   0  0  0  0  0  0  0  0  0  0  0  0
   -0.8041   -0.0616   -0.4016 C   0  0  0  0  0  0  0  0  0  0  0  0
   -1.4703    0.6826    0.6754 C   0  0  0  0  0  0  0  0  0  0  0  0
   -2.6521    0.3253   -0.2149 C   0  0  0  0  0  0  0  0  0  0  0  0
   -1.7578    0.3335   -1.2910 O   0  0  0  0  0  0  0  0  0  0  0  0
    3.3173   -0.2083   -0.7199 H   0  0  0  0  0  0  0  0  0  0  0  0
    3.5843    0.3941    1.0024 H   0  0  0  0  0  0  0  0  0  0  0  0
    3.0136    1.5002   -0.2677 H   0  0  0  0  0  0  0  0  0  0  0  0
    0.9871   -0.2297   -1.6673 H   0  0  0  0  0  0  0  0  0  0  0  0
   -0.2856   -1.8628    0.7215 H   0  0  0  0  0  0  0  0  0  0  0  0
   -0.6161   -2.1217   -1.1181 H   0  0  0  0  0  0  0  0  0  0  0  0
   -1.5072    0.2113    1.6752 H   0  0  0  0  0  0  0  0  0  0  0  0
   -1.3013    1.7684    0.6650 H   0  0  0  0  0  0  0  0  0  0  0  0
   -3.4417    1.0893   -0.2758 H   0  0  0  0  0  0  0  0  0  0  0  0
   -3.0146   -0.7259   -0.0755 H   0  0  0  0  0  0  0  0  0  0  0  0
  1  2  1  0
  2  3  2  0
  2  4  1  0
  4  5  1  0
  5  6  1  0
  6  7  1  0
  7  8  1  0
  8  9  1  0
  6  4  1  0
  9  6  1  0
  1 10  1  0
  1 11  1  0
  1 12  1  0
  4 13  1  0
  5 14  1  0
  5 15  1  0
  7 16  1  0
  7 17  1  0
  8 18  1  0
  8 19  1  0
M  END
