
     RDKit          3D

 19 20  0  0  0  0  0  0  0  0999 V2000
    2.5379    0.2369    0.3664 C   0  0  0  0  0  0  0  0  0  0  0  0
    1.3884    0.2836   -0.5765 C   0  0  0  0  0  0  0  0  0  0  0  0
    1.6661    0.4649   -1.7680 O   0  0  0  0  0  0  0  0  0  0  0  0
    0.0444    0.1358   -0.1862 C   0  0  0  0  0  0  0  0  0  0  0  0
   -0.6072    1.0511    0.7667 C   0  0  0  0  0  0  0  0  0  0  0  0
   -1.8605    0.5612    0.8400 C   0  0  0  0  0  0  0  0  0  0  0  0
   -1.8165   -0.5987   -0.0718 C   0  0  0  0  0  0  0  0  0  0  0  0
   -1.0367   -0.0040   -1.2551 C   0  0  0  0  0  0  0  0  0  0  0  0
   -0.4624   -1.2134    0.3036 C   0  0  0  0  0  0  0  0  0  0  0  0
    2.8883    1.2931    0.5538 H   0  0  0  0  0  0  0  0  0  0  0  0
    2.2869   -0.2859    1.3098 H   0  0  0  0  0  0  0  0  0  0  0  0
    3.3619   -0.2987   -0.1434 H   0  0  0  0  0  0  0  0  0  0  0  0
   -0.2421    1.9140    1.3084 H   0  0  0  0  0  0  0  0  0  0  0  0
   -2.7126    0.9036    1.4117 H   0  0  0  0  0  0  0  0  0  0  0  0
   -2.6350   -1.2172   -0.2535 H   0  0  0  0  0  0  0  0  0  0  0  0
   -1.3945    0.9687   -1.5960 H   0  0  0  0  0  0  0  0  0  0  0  0
   -0.7987   -0.7533   -2.0446 H   0  0  0  0  0  0  0  0  0  0  0  0
   -0.4286   -1.3730    1.3799 H   0  0  0  0  0  0  0  0  0  0  0  0
   -0.1792   -2.0688   -0.3450 H   0  0  0  0  0  0  0  0  0  0  0  0
  1  2  1  0
  2  3  2  0
  2  4  1  0
  4  5  1  0
  5  6  2  0
  6  7  1  0
  7  8  1  0
  7  9  1  0
  8  4  1  0
  9  4  1  0
  1 10  1  0
  1 11  1  0
  1 12  1  0
  5 13  1  0
  6 14  1  0
  7 15  1  0
  8 16  1  0
  8 17  1  0
  9 18  1  0
  9 19  1  0
M  END
