
     RDKit          3D

 19 20  0  0  0  0  0  0  0  0999 V2000
    2.3134    0.0248   -0.4622 C   0  0  0  0  0  0  0  0  0  0  0  0
    1.3254   -0.2778    0.6076 C   0  0  0  0  0  0  0  0  0  0  0  0
    1.7647   -0.6736    1.6723 O   0  0  0  0  0  0  0  0  0  0  0  0
   -0.0533   -0.1113    0.3901 C   0  0  0  0  0  0  0  0  0  0  0  0
   -1.0700   -0.4033    1.4345 C   0  0  0  0  0  0  0  0  0  0  0  0
   -2.2383    0.0317    0.7561 O   0  0  0  0  0  0  0  0  0  0  0  0
   -1.7885    0.2964   -0.5028 C   0  0  0  0  0  0  0  0  0  0  0  0
   -0.7180   -0.7543   -0.8345 C   0  0  0  0  0  0  0  0  0  0  0  0
   -0.5705    1.1940   -0.2213 C   0  0  0  0  0  0  0  0  0  0  0  0
    2.7064    1.0688   -0.3781 H   0  0  0  0  0  0  0  0  0  0  0  0
    1.8523   -0.0274   -1.4852 H   0  0  0  0  0  0  0  0  0  0  0  0
    3.1464   -0.6949   -0.4481 H   0  0  0  0  0  0  0  0  0  0  0  0
   -0.9363    0.0944    2.3891 H   0  0  0  0  0  0  0  0  0  0  0  0
   -1.1946   -1.5121    1.5283 H   0  0  0  0  0  0  0  0  0  0  0  0
   -2.4365    0.5949   -1.2858 H   0  0  0  0  0  0  0  0  0  0  0  0
   -1.0470   -1.7902   -0.6814 H   0  0  0  0  0  0  0  0  0  0  0  0
   -0.2584   -0.4936   -1.7907 H   0  0  0  0  0  0  0  0  0  0  0  0
   -0.7498    2.0017    0.4799 H   0  0  0  0  0  0  0  0  0  0  0  0
   -0.0476    1.4320   -1.1678 H   0  0  0  0  0  0  0  0  0  0  0  0
  1  2  1  0
  2  3  2  0
  2  4  1  0
  4  5  1  0
  5  6  1  0
  6  7  1  0
  7  8  1  0
  7  9  1  0
  8  4  1  0
  9  4  1  0
  1 10  1  0
  1 11  1  0
  1 12  1  0
  5 13  1  0
  5 14  1  0
  7 15  1  0
  8 16  1  0
  8 17  1  0
  9 18  1  0
  9 19  1  0
M  END
