
     RDKit          3D

 13 12  0  0  0  0  0  0  0  0999 V2000
   -1.5886   -0.6023    0.1830 C   0  0  0  0  0  0  0  0  0  0  0  0
   -0.4595    0.1871    0.7256 C   0  0  0  0  0  0  0  0  0  0  0  0
   -0.4418    0.5266    1.8829 O   0  0  0  0  0  0  0  0  0  0  0  0
    0.6559    0.5484   -0.2081 C   0  0  0  0  0  0  0  0  0  0  0  0
    1.5949    1.2762    0.4935 O   0  0  0  0  0  0  0  0  0  0  0  0
    1.2871   -0.6691   -0.7706 C   0  0  0  0  0  0  0  0  0  0  0  0
    0.6462   -1.4729   -1.4356 O   0  0  0  0  0  0  0  0  0  0  0  0
   -2.4576   -0.6115    0.8730 H   0  0  0  0  0  0  0  0  0  0  0  0
   -1.9333   -0.1492   -0.7748 H   0  0  0  0  0  0  0  0  0  0  0  0
   -1.2245   -1.6189   -0.0418 H   0  0  0  0  0  0  0  0  0  0  0  0
    0.2703    1.2190   -1.0264 H   0  0  0  0  0  0  0  0  0  0  0  0
    1.3132    2.2030    0.6795 H   0  0  0  0  0  0  0  0  0  0  0  0
    2.3379   -0.8366   -0.5803 H   0  0  0  0  0  0  0  0  0  0  0  0
  1  2  1  0
  2  3  2  0
  2  4  1  0
  4  5  1  0
  4  6  1  0
  6  7  2  0
  1  8  1  0
  1  9  1  0
  1 10  1  0
  4 11  1  0
  5 12  1  0
  6 13  1  0
M  END
