
     RDKit          3D

 17 17  0  0  0  0  0  0  0  0999 V2000
    2.4679    0.1674    0.1723 C   0  0  0  0  0  0  0  0  0  0  0  0
    1.1158    0.5991    0.5878 C   0  0  0  0  0  0  0  0  0  0  0  0
    0.9959    1.6449    1.1810 O   0  0  0  0  0  0  0  0  0  0  0  0
   -0.0416   -0.2474    0.2718 C   0  0  0  0  0  0  0  0  0  0  0  0
   -0.2424   -0.4797   -1.1712 C   0  0  0  0  0  0  0  0  0  0  0  0
    0.4938   -0.8003   -2.0856 O   0  0  0  0  0  0  0  0  0  0  0  0
   -1.6848   -0.1526   -0.9727 C   0  0  0  0  0  0  0  0  0  0  0  0
   -1.3848    0.4409    0.3855 C   0  0  0  0  0  0  0  0  0  0  0  0
   -2.2003   -0.0698    1.4011 O   0  0  0  0  0  0  0  0  0  0  0  0
    3.2171    0.9799    0.2115 H   0  0  0  0  0  0  0  0  0  0  0  0
    2.3973   -0.1889   -0.8736 H   0  0  0  0  0  0  0  0  0  0  0  0
    2.7436   -0.7072    0.7885 H   0  0  0  0  0  0  0  0  0  0  0  0
   -0.0950   -1.2187    0.8214 H   0  0  0  0  0  0  0  0  0  0  0  0
   -2.0575    0.5839   -1.7302 H   0  0  0  0  0  0  0  0  0  0  0  0
   -2.3327   -1.0597   -0.9146 H   0  0  0  0  0  0  0  0  0  0  0  0
   -1.3698    1.5347    0.3851 H   0  0  0  0  0  0  0  0  0  0  0  0
   -2.0226   -1.0266    1.5419 H   0  0  0  0  0  0  0  0  0  0  0  0
  1  2  1  0
  2  3  2  0
  2  4  1  0
  4  5  1  0
  5  6  2  0
  5  7  1  0
  7  8  1  0
  8  9  1  0
  8  4  1  0
  1 10  1  0
  1 11  1  0
  1 12  1  0
  4 13  1  0
  7 14  1  0
  7 15  1  0
  8 16  1  0
  9 17  1  0
M  END
