
     RDKit          3D

 17 18  0  0  0  0  0  0  0  0999 V2000
    2.6118   -0.0053   -0.0130 C   0  0  0  0  0  0  0  0  0  0  0  0
    1.4678   -0.8944   -0.2441 C   0  0  0  0  0  0  0  0  0  0  0  0
    1.5888   -1.8558   -0.9726 O   0  0  0  0  0  0  0  0  0  0  0  0
    0.1492   -0.6589    0.3883 C   0  0  0  0  0  0  0  0  0  0  0  0
   -0.8365   -1.5638    0.0900 O   0  0  0  0  0  0  0  0  0  0  0  0
   -1.7628   -0.5171    0.1782 C   0  0  0  0  0  0  0  0  0  0  0  0
   -1.8067    0.3773   -0.9935 C   0  0  0  0  0  0  0  0  0  0  0  0
   -2.7965    1.3840   -0.9198 O   0  0  0  0  0  0  0  0  0  0  0  0
   -0.6247    0.5093   -0.1368 C   0  0  0  0  0  0  0  0  0  0  0  0
    3.5609   -0.5605    0.2196 H   0  0  0  0  0  0  0  0  0  0  0  0
    2.4556    0.6660    0.8713 H   0  0  0  0  0  0  0  0  0  0  0  0
    2.8276    0.6783   -0.8654 H   0  0  0  0  0  0  0  0  0  0  0  0
    0.2913   -0.6216    1.5067 H   0  0  0  0  0  0  0  0  0  0  0  0
   -2.2992   -0.3338    1.1109 H   0  0  0  0  0  0  0  0  0  0  0  0
   -1.7335   -0.0611   -2.0007 H   0  0  0  0  0  0  0  0  0  0  0  0
   -2.4929    2.0549   -0.2395 H   0  0  0  0  0  0  0  0  0  0  0  0
   -0.6003    1.4025    0.5363 H   0  0  0  0  0  0  0  0  0  0  0  0
  1  2  1  0
  2  3  2  0
  2  4  1  0
  4  5  1  0
  5  6  1  0
  6  7  1  0
  7  8  1  0
  7  9  1  0
  9  4  1  0
  9  6  1  0
  1 10  1  0
  1 11  1  0
  1 12  1  0
  4 13  1  0
  6 14  1  0
  7 15  1  0
  8 16  1  0
  9 17  1  0
M  END
