
     RDKit          3D

 23 23  0  0  0  0  0  0  0  0999 V2000
    3.0461    0.2028   -0.2815 C   0  0  0  0  0  0  0  0  0  0  0  0
    1.8093    0.9043   -0.7048 C   0  0  0  0  0  0  0  0  0  0  0  0
    1.6872    1.1915   -1.8875 O   0  0  0  0  0  0  0  0  0  0  0  0
    0.7693    1.2369    0.2970 C   0  0  0  0  0  0  0  0  0  0  0  0
    0.1517   -0.0913    0.7312 C   0  0  0  0  0  0  0  0  0  0  0  0
   -0.9460   -0.1154    1.7284 C   0  0  0  0  0  0  0  0  0  0  0  0
   -1.1915   -0.4235    0.2578 C   0  0  0  0  0  0  0  0  0  0  0  0
   -2.1198    0.5526   -0.3995 C   0  0  0  0  0  0  0  0  0  0  0  0
   -1.4374   -1.8913   -0.1267 C   0  0  0  0  0  0  0  0  0  0  0  0
    2.9610   -0.8941   -0.4089 H   0  0  0  0  0  0  0  0  0  0  0  0
    3.2440    0.5033    0.7680 H   0  0  0  0  0  0  0  0  0  0  0  0
    3.8865    0.5309   -0.9122 H   0  0  0  0  0  0  0  0  0  0  0  0
    1.1716    1.7841    1.1855 H   0  0  0  0  0  0  0  0  0  0  0  0
   -0.0158    1.8767   -0.1824 H   0  0  0  0  0  0  0  0  0  0  0  0
    0.8732   -0.9391    0.8238 H   0  0  0  0  0  0  0  0  0  0  0  0
   -1.2662    0.8507    2.1396 H   0  0  0  0  0  0  0  0  0  0  0  0
   -1.0320   -0.9570    2.4591 H   0  0  0  0  0  0  0  0  0  0  0  0
   -1.9902    0.6664   -1.4793 H   0  0  0  0  0  0  0  0  0  0  0  0
   -2.0092    1.5663    0.0536 H   0  0  0  0  0  0  0  0  0  0  0  0
   -3.1692    0.2149   -0.1952 H   0  0  0  0  0  0  0  0  0  0  0  0
   -1.9384   -1.9115   -1.0922 H   0  0  0  0  0  0  0  0  0  0  0  0
   -0.4468   -2.4322   -0.1533 H   0  0  0  0  0  0  0  0  0  0  0  0
   -2.0372   -2.4260    0.6313 H   0  0  0  0  0  0  0  0  0  0  0  0
  1  2  1  0
  2  3  2  0
  2  4  1  0
  4  5  1  0
  5  6  1  0
  6  7  1  0
  7  8  1  0
  7  9  1  0
  7  5  1  0
  1 10  1  0
  1 11  1  0
  1 12  1  0
  4 13  1  0
  4 14  1  0
  5 15  1  0
  6 16  1  0
  6 17  1  0
  8 18  1  0
  8 19  1  0
  8 20  1  0
  9 21  1  0
  9 22  1  0
  9 23  1  0
M  END
