
     RDKit          3D

 17 18  0  0  0  0  0  0  0  0999 V2000
    2.2656    0.3091    0.6429 C   0  0  0  0  0  0  0  0  0  0  0  0
    1.3150    0.2895   -0.4860 C   0  0  0  0  0  0  0  0  0  0  0  0
    1.5789    0.8662   -1.5089 O   0  0  0  0  0  0  0  0  0  0  0  0
    0.0522   -0.4421   -0.3354 C   0  0  0  0  0  0  0  0  0  0  0  0
   -0.8792   -0.5821   -1.4935 C   0  0  0  0  0  0  0  0  0  0  0  0
   -1.2620    0.1872   -0.2899 C   0  0  0  0  0  0  0  0  0  0  0  0
   -1.4830    1.5384   -0.3139 O   0  0  0  0  0  0  0  0  0  0  0  0
   -1.5087   -0.6226    0.9553 C   0  0  0  0  0  0  0  0  0  0  0  0
   -0.2087   -1.0914    0.8614 O   0  0  0  0  0  0  0  0  0  0  0  0
    2.9079    1.2163    0.6432 H   0  0  0  0  0  0  0  0  0  0  0  0
    2.8896   -0.6266    0.5376 H   0  0  0  0  0  0  0  0  0  0  0  0
    1.7036    0.1924    1.6055 H   0  0  0  0  0  0  0  0  0  0  0  0
   -1.2706   -1.6206   -1.6473 H   0  0  0  0  0  0  0  0  0  0  0  0
   -0.5866   -0.0200   -2.3928 H   0  0  0  0  0  0  0  0  0  0  0  0
   -1.5581    1.8665    0.6267 H   0  0  0  0  0  0  0  0  0  0  0  0
   -2.2116   -1.4744    0.7747 H   0  0  0  0  0  0  0  0  0  0  0  0
   -1.7444    0.0142    1.8204 H   0  0  0  0  0  0  0  0  0  0  0  0
  1  2  1  0
  2  3  2  0
  2  4  1  0
  4  5  1  0
  5  6  1  0
  6  7  1  0
  6  8  1  0
  8  9  1  0
  6  4  1  0
  9  4  1  0
  1 10  1  0
  1 11  1  0
  1 12  1  0
  5 13  1  0
  5 14  1  0
  7 15  1  0
  8 16  1  0
  8 17  1  0
M  END
