
     RDKit          3D

 17 18  0  0  0  0  0  0  0  0999 V2000
    2.5961    0.0170    0.5843 C   0  0  0  0  0  0  0  0  0  0  0  0
    1.5090   -0.4557   -0.3043 C   0  0  0  0  0  0  0  0  0  0  0  0
    1.8122   -1.1935   -1.2227 O   0  0  0  0  0  0  0  0  0  0  0  0
    0.1175   -0.0674   -0.1097 C   0  0  0  0  0  0  0  0  0  0  0  0
   -0.6166    0.3953   -1.3405 C   0  0  0  0  0  0  0  0  0  0  0  0
   -1.9180    0.3986   -1.0795 C   0  0  0  0  0  0  0  0  0  0  0  0
   -2.1868   -0.0488    0.3140 C   0  0  0  0  0  0  0  0  0  0  0  0
   -0.8087   -0.4461    0.8186 C   0  0  0  0  0  0  0  0  0  0  0  0
   -0.0469    0.8133    1.0328 O   0  0  0  0  0  0  0  0  0  0  0  0
    3.1180    0.8625    0.0793 H   0  0  0  0  0  0  0  0  0  0  0  0
    2.1106    0.3491    1.5408 H   0  0  0  0  0  0  0  0  0  0  0  0
    3.3010   -0.7909    0.8725 H   0  0  0  0  0  0  0  0  0  0  0  0
   -0.1466    0.6753   -2.2752 H   0  0  0  0  0  0  0  0  0  0  0  0
   -2.6505    0.7007   -1.8306 H   0  0  0  0  0  0  0  0  0  0  0  0
   -2.5483    0.8186    0.9168 H   0  0  0  0  0  0  0  0  0  0  0  0
   -2.9012   -0.8857    0.3475 H   0  0  0  0  0  0  0  0  0  0  0  0
   -0.7408   -1.1423    1.6561 H   0  0  0  0  0  0  0  0  0  0  0  0
  1  2  1  0
  2  3  2  0
  2  4  1  0
  4  5  1  0
  5  6  2  0
  6  7  1  0
  7  8  1  0
  8  9  1  0
  8  4  1  0
  9  4  1  0
  1 10  1  0
  1 11  1  0
  1 12  1  0
  5 13  1  0
  6 14  1  0
  7 15  1  0
  7 16  1  0
  8 17  1  0
M  END
