
     RDKit          3D

 18 18  0  0  0  0  0  0  0  0999 V2000
    2.8147   -0.5459   -0.5261 C   0  0  0  0  0  0  0  0  0  0  0  0
    1.5951    0.1964   -0.1083 C   0  0  0  0  0  0  0  0  0  0  0  0
    1.7669    1.3956    0.1253 O   0  0  0  0  0  0  0  0  0  0  0  0
    0.3052   -0.4807    0.0054 C   0  0  0  0  0  0  0  0  0  0  0  0
   -0.1642   -0.2907    1.4286 O   0  0  0  0  0  0  0  0  0  0  0  0
   -0.9533    0.1158    0.3527 C   0  0  0  0  0  0  0  0  0  0  0  0
   -2.1855   -0.7812    0.1924 C   0  0  0  0  0  0  0  0  0  0  0  0
   -1.2662    1.5709    0.1793 C   0  0  0  0  0  0  0  0  0  0  0  0
    3.6673   -0.3845    0.1594 H   0  0  0  0  0  0  0  0  0  0  0  0
    3.1356   -0.3134   -1.5515 H   0  0  0  0  0  0  0  0  0  0  0  0
    2.6358   -1.6602   -0.5126 H   0  0  0  0  0  0  0  0  0  0  0  0
    0.3323   -1.5657   -0.2420 H   0  0  0  0  0  0  0  0  0  0  0  0
   -2.4628   -1.2616    1.1543 H   0  0  0  0  0  0  0  0  0  0  0  0
   -3.0616   -0.2256   -0.1734 H   0  0  0  0  0  0  0  0  0  0  0  0
   -1.9321   -1.6411   -0.4955 H   0  0  0  0  0  0  0  0  0  0  0  0
   -1.7633    2.0127    1.0852 H   0  0  0  0  0  0  0  0  0  0  0  0
   -2.0526    1.6468   -0.6236 H   0  0  0  0  0  0  0  0  0  0  0  0
   -0.4112    2.2124   -0.0422 H   0  0  0  0  0  0  0  0  0  0  0  0
  1  2  1  0
  2  3  2  0
  2  4  1  0
  4  5  1  0
  5  6  1  0
  6  7  1  0
  6  8  1  0
  6  4  1  0
  1  9  1  0
  1 10  1  0
  1 11  1  0
  4 12  1  0
  7 13  1  0
  7 14  1  0
  7 15  1  0
  8 16  1  0
  8 17  1  0
  8 18  1  0
M  END
