
     RDKit          3D

 17 16  0  0  0  0  0  0  0  0999 V2000
   -2.8511    0.5578    0.1305 C   0  0  0  0  0  0  0  0  0  0  0  0
   -1.5117    0.0407   -0.3221 C   0  0  0  0  0  0  0  0  0  0  0  0
   -1.3959   -0.3015   -1.4812 O   0  0  0  0  0  0  0  0  0  0  0  0
   -0.4126   -0.0191    0.6789 C   0  0  0  0  0  0  0  0  0  0  0  0
    0.8054   -0.5708   -0.0365 C   0  0  0  0  0  0  0  0  0  0  0  0
    1.9736   -0.6849    0.8368 C   0  0  0  0  0  0  0  0  0  0  0  0
    2.0234   -1.6436    1.6497 O   0  0  0  0  0  0  0  0  0  0  0  0
    3.0793    0.2661    0.8020 C   0  0  0  0  0  0  0  0  0  0  0  0
    3.0312    1.2279   -0.0120 O   0  0  0  0  0  0  0  0  0  0  0  0
   -3.2029   -0.1922    0.8903 H   0  0  0  0  0  0  0  0  0  0  0  0
   -2.6476    1.5459    0.5954 H   0  0  0  0  0  0  0  0  0  0  0  0
   -3.5378    0.6583   -0.7153 H   0  0  0  0  0  0  0  0  0  0  0  0
   -0.1246    1.0076    1.0336 H   0  0  0  0  0  0  0  0  0  0  0  0
   -0.6661   -0.6132    1.5699 H   0  0  0  0  0  0  0  0  0  0  0  0
    0.4752   -1.5695   -0.4485 H   0  0  0  0  0  0  0  0  0  0  0  0
    1.0248    0.1044   -0.8690 H   0  0  0  0  0  0  0  0  0  0  0  0
    3.9374    0.1861    1.4402 H   0  0  0  0  0  0  0  0  0  0  0  0
  1  2  1  0
  2  3  2  0
  2  4  1  0
  4  5  1  0
  5  6  1  0
  6  7  2  0
  6  8  1  0
  8  9  2  0
  1 10  1  0
  1 11  1  0
  1 12  1  0
  4 13  1  0
  4 14  1  0
  5 15  1  0
  5 16  1  0
  8 17  1  0
M  END
