
     RDKit          3D

 23 22  0  0  0  0  0  0  0  0999 V2000
   -3.2026   -0.1115   -0.7326 C   0  0  0  0  0  0  0  0  0  0  0  0
   -1.7796    0.2966   -0.6435 C   0  0  0  0  0  0  0  0  0  0  0  0
   -1.0745    0.1483   -1.6206 O   0  0  0  0  0  0  0  0  0  0  0  0
   -1.2081    0.8707    0.5868 C   0  0  0  0  0  0  0  0  0  0  0  0
   -0.4249   -0.1507    1.3849 C   0  0  0  0  0  0  0  0  0  0  0  0
    0.7250   -0.7163    0.5843 C   0  0  0  0  0  0  0  0  0  0  0  0
    1.6926    0.3849    0.1691 C   0  0  0  0  0  0  0  0  0  0  0  0
    2.8463   -0.2235   -0.6376 C   0  0  0  0  0  0  0  0  0  0  0  0
    2.3413   -0.8460   -1.7705 O   0  0  0  0  0  0  0  0  0  0  0  0
   -3.6288   -0.3057    0.2728 H   0  0  0  0  0  0  0  0  0  0  0  0
   -3.2814   -1.0191   -1.3902 H   0  0  0  0  0  0  0  0  0  0  0  0
   -3.7608    0.7166   -1.2138 H   0  0  0  0  0  0  0  0  0  0  0  0
   -2.0438    1.2419    1.2499 H   0  0  0  0  0  0  0  0  0  0  0  0
   -0.5676    1.7592    0.4251 H   0  0  0  0  0  0  0  0  0  0  0  0
   -0.0089    0.2829    2.3159 H   0  0  0  0  0  0  0  0  0  0  0  0
   -1.0567   -1.0071    1.6923 H   0  0  0  0  0  0  0  0  0  0  0  0
    1.3041   -1.4495    1.1520 H   0  0  0  0  0  0  0  0  0  0  0  0
    0.3529   -1.2295   -0.3291 H   0  0  0  0  0  0  0  0  0  0  0  0
    2.1610    0.7521    1.1091 H   0  0  0  0  0  0  0  0  0  0  0  0
    1.2014    1.1826   -0.4017 H   0  0  0  0  0  0  0  0  0  0  0  0
    3.4375   -0.9165   -0.0197 H   0  0  0  0  0  0  0  0  0  0  0  0
    3.5382    0.5800   -0.9568 H   0  0  0  0  0  0  0  0  0  0  0  0
    2.4374   -0.2402   -2.5376 H   0  0  0  0  0  0  0  0  0  0  0  0
  1  2  1  0
  2  3  2  0
  2  4  1  0
  4  5  1  0
  5  6  1  0
  6  7  1  0
  7  8  1  0
  8  9  1  0
  1 10  1  0
  1 11  1  0
  1 12  1  0
  4 13  1  0
  4 14  1  0
  5 15  1  0
  5 16  1  0
  6 17  1  0
  6 18  1  0
  7 19  1  0
  7 20  1  0
  8 21  1  0
  8 22  1  0
  9 23  1  0
M  END
