
     RDKit          3D

 14 14  0  0  0  0  0  0  0  0999 V2000
   -1.9543    0.5636    0.5839 C   0  0  0  0  0  0  0  0  0  0  0  0
   -1.1475   -0.5264   -0.0119 C   0  0  0  0  0  0  0  0  0  0  0  0
   -1.6506   -1.6275   -0.0696 O   0  0  0  0  0  0  0  0  0  0  0  0
    0.2035   -0.3194   -0.5197 C   0  0  0  0  0  0  0  0  0  0  0  0
    0.7123    0.9752   -0.4178 O   0  0  0  0  0  0  0  0  0  0  0  0
    1.9867    0.3651   -0.3641 C   0  0  0  0  0  0  0  0  0  0  0  0
    1.3176   -0.7733    0.3297 C   0  0  0  0  0  0  0  0  0  0  0  0
    1.6695   -1.5641    1.1505 O   0  0  0  0  0  0  0  0  0  0  0  0
   -1.3363    1.2065    1.2633 H   0  0  0  0  0  0  0  0  0  0  0  0
   -2.8513    0.1781    1.1104 H   0  0  0  0  0  0  0  0  0  0  0  0
   -2.3340    1.1809   -0.2767 H   0  0  0  0  0  0  0  0  0  0  0  0
    0.3783   -0.6841   -1.5721 H   0  0  0  0  0  0  0  0  0  0  0  0
    2.7299    0.9056    0.2191 H   0  0  0  0  0  0  0  0  0  0  0  0
    2.2761    0.1200   -1.4250 H   0  0  0  0  0  0  0  0  0  0  0  0
  1  2  1  0
  2  3  2  0
  2  4  1  0
  4  5  1  0
  5  6  1  0
  6  7  1  0
  7  8  2  0
  7  4  1  0
  1  9  1  0
  1 10  1  0
  1 11  1  0
  4 12  1  0
  6 13  1  0
  6 14  1  0
M  END
