
     RDKit          3D

 14 14  0  0  0  0  0  0  0  0999 V2000
   -2.8572    0.0037    0.9548 C   0  0  0  0  0  0  0  0  0  0  0  0
   -1.9971   -0.2614   -0.2285 C   0  0  0  0  0  0  0  0  0  0  0  0
   -2.5626   -0.7296   -1.2508 O   0  0  0  0  0  0  0  0  0  0  0  0
   -0.5890    0.0189   -0.1637 C   0  0  0  0  0  0  0  0  0  0  0  0
    0.6014    0.2467   -0.1201 C   0  0  0  0  0  0  0  0  0  0  0  0
    2.0442    0.5147   -0.0430 C   0  0  0  0  0  0  0  0  0  0  0  0
    2.9552   -0.3731   -0.7076 C   0  0  0  0  0  0  0  0  0  0  0  0
    2.6555    0.8294   -1.3468 O   0  0  0  0  0  0  0  0  0  0  0  0
   -2.3479    0.7221    1.6501 H   0  0  0  0  0  0  0  0  0  0  0  0
   -3.1072   -0.9501    1.4838 H   0  0  0  0  0  0  0  0  0  0  0  0
   -3.7697    0.5253    0.5886 H   0  0  0  0  0  0  0  0  0  0  0  0
    2.4169    1.1936    0.7517 H   0  0  0  0  0  0  0  0  0  0  0  0
    3.9875   -0.4819   -0.3113 H   0  0  0  0  0  0  0  0  0  0  0  0
    2.5701   -1.2581   -1.2573 H   0  0  0  0  0  0  0  0  0  0  0  0
  1  2  1  0
  2  3  2  0
  2  4  1  0
  4  5  3  0
  5  6  1  0
  6  7  1  0
  7  8  1  0
  8  6  1  0
  1  9  1  0
  1 10  1  0
  1 11  1  0
  6 12  1  0
  7 13  1  0
  7 14  1  0
M  END
