
     RDKit          3D

 23 22  0  0  0  0  0  0  0  0999 V2000
    2.3551    0.7098    0.7165 C   0  0  0  0  0  0  0  0  0  0  0  0
    2.5872   -0.5060   -0.0888 C   0  0  0  0  0  0  0  0  0  0  0  0
    3.6955   -1.0417    0.0618 O   0  0  0  0  0  0  0  0  0  0  0  0
    1.6591   -1.1312   -1.0292 C   0  0  0  0  0  0  0  0  0  0  0  0
    0.3336   -0.4601   -1.1608 C   0  0  0  0  0  0  0  0  0  0  0  0
   -0.3445   -0.4306    0.0577 O   0  0  0  0  0  0  0  0  0  0  0  0
   -1.5721    0.1800   -0.0312 C   0  0  0  0  0  0  0  0  0  0  0  0
   -2.6662   -0.7392    0.4501 C   0  0  0  0  0  0  0  0  0  0  0  0
   -1.5896    1.4308    0.8356 C   0  0  0  0  0  0  0  0  0  0  0  0
    1.3168    1.0265    0.7857 H   0  0  0  0  0  0  0  0  0  0  0  0
    2.7829    0.5181    1.7436 H   0  0  0  0  0  0  0  0  0  0  0  0
    2.9522    1.5383    0.2337 H   0  0  0  0  0  0  0  0  0  0  0  0
    1.5398   -2.1934   -0.7546 H   0  0  0  0  0  0  0  0  0  0  0  0
    2.1384   -1.1443   -2.0486 H   0  0  0  0  0  0  0  0  0  0  0  0
   -0.3159   -1.0844   -1.8397 H   0  0  0  0  0  0  0  0  0  0  0  0
    0.3788    0.5279   -1.6400 H   0  0  0  0  0  0  0  0  0  0  0  0
   -1.7903    0.5349   -1.0675 H   0  0  0  0  0  0  0  0  0  0  0  0
   -3.6619   -0.2919    0.3162 H   0  0  0  0  0  0  0  0  0  0  0  0
   -2.4469   -0.9683    1.5132 H   0  0  0  0  0  0  0  0  0  0  0  0
   -2.6617   -1.7058   -0.0912 H   0  0  0  0  0  0  0  0  0  0  0  0
   -2.5949    1.9157    0.7544 H   0  0  0  0  0  0  0  0  0  0  0  0
   -0.7947    2.0977    0.4017 H   0  0  0  0  0  0  0  0  0  0  0  0
   -1.3008    1.2173    1.8811 H   0  0  0  0  0  0  0  0  0  0  0  0
  1  2  1  0
  2  3  2  0
  2  4  1  0
  4  5  1  0
  5  6  1  0
  6  7  1  0
  7  8  1  0
  7  9  1  0
  1 10  1  0
  1 11  1  0
  1 12  1  0
  4 13  1  0
  4 14  1  0
  5 15  1  0
  5 16  1  0
  7 17  1  0
  8 18  1  0
  8 19  1  0
  8 20  1  0
  9 21  1  0
  9 22  1  0
  9 23  1  0
M  END
