
     RDKit          3D

 21 21  0  0  0  0  0  0  0  0999 V2000
    3.0205   -0.2288    0.0738 C   0  0  0  0  0  0  0  0  0  0  0  0
    1.5868   -0.5546   -0.0486 C   0  0  0  0  0  0  0  0  0  0  0  0
    1.2487   -1.6821   -0.3080 O   0  0  0  0  0  0  0  0  0  0  0  0
    0.5854    0.4983    0.1469 C   0  0  0  0  0  0  0  0  0  0  0  0
   -0.8268    0.0547   -0.0001 C   0  0  0  0  0  0  0  0  0  0  0  0
   -1.2708   -1.0173    0.9484 C   0  0  0  0  0  0  0  0  0  0  0  0
   -1.7674    1.2600    0.0214 C   0  0  0  0  0  0  0  0  0  0  0  0
   -2.5722    0.5720   -0.8714 O   0  0  0  0  0  0  0  0  0  0  0  0
   -1.3974   -0.0257   -1.3705 C   0  0  0  0  0  0  0  0  0  0  0  0
    3.2551   -0.1193    1.1532 H   0  0  0  0  0  0  0  0  0  0  0  0
    3.6790   -1.0114   -0.3378 H   0  0  0  0  0  0  0  0  0  0  0  0
    3.1915    0.7565   -0.4119 H   0  0  0  0  0  0  0  0  0  0  0  0
    0.7714    1.3900   -0.4882 H   0  0  0  0  0  0  0  0  0  0  0  0
    0.7067    0.8684    1.2083 H   0  0  0  0  0  0  0  0  0  0  0  0
   -2.3873   -1.0571    0.9320 H   0  0  0  0  0  0  0  0  0  0  0  0
   -0.8983   -1.9892    0.5617 H   0  0  0  0  0  0  0  0  0  0  0  0
   -0.9549   -0.8203    1.9801 H   0  0  0  0  0  0  0  0  0  0  0  0
   -1.2533    2.1531   -0.3968 H   0  0  0  0  0  0  0  0  0  0  0  0
   -2.2124    1.4115    1.0139 H   0  0  0  0  0  0  0  0  0  0  0  0
   -0.9235    0.6230   -2.1061 H   0  0  0  0  0  0  0  0  0  0  0  0
   -1.5809   -1.0816   -1.7003 H   0  0  0  0  0  0  0  0  0  0  0  0
  1  2  1  0
  2  3  2  0
  2  4  1  0
  4  5  1  0
  5  6  1  0
  5  7  1  0
  7  8  1  0
  8  9  1  0
  9  5  1  0
  1 10  1  0
  1 11  1  0
  1 12  1  0
  4 13  1  0
  4 14  1  0
  6 15  1  0
  6 16  1  0
  6 17  1  0
  7 18  1  0
  7 19  1  0
  9 20  1  0
  9 21  1  0
M  END
