
     RDKit          3D

 17 17  0  0  0  0  0  0  0  0999 V2000
   -2.5309    0.1535   -0.1842 C   0  0  0  0  0  0  0  0  0  0  0  0
   -1.2165   -0.2114    0.4537 C   0  0  0  0  0  0  0  0  0  0  0  0
   -1.1920   -0.6168    1.6032 O   0  0  0  0  0  0  0  0  0  0  0  0
    0.0645   -0.0894   -0.2876 C   0  0  0  0  0  0  0  0  0  0  0  0
    0.1799    1.3587   -0.6555 C   0  0  0  0  0  0  0  0  0  0  0  0
    0.8508    2.1231    0.0346 O   0  0  0  0  0  0  0  0  0  0  0  0
    1.1833   -0.5180    0.5790 C   0  0  0  0  0  0  0  0  0  0  0  0
    2.5718   -0.5378    0.2003 C   0  0  0  0  0  0  0  0  0  0  0  0
    1.7537   -1.7905    0.1129 O   0  0  0  0  0  0  0  0  0  0  0  0
   -3.2969   -0.4698    0.3210 H   0  0  0  0  0  0  0  0  0  0  0  0
   -2.5502   -0.1117   -1.2586 H   0  0  0  0  0  0  0  0  0  0  0  0
   -2.7629    1.2040    0.0108 H   0  0  0  0  0  0  0  0  0  0  0  0
    0.0503   -0.6442   -1.2473 H   0  0  0  0  0  0  0  0  0  0  0  0
   -0.3233    1.7444   -1.5276 H   0  0  0  0  0  0  0  0  0  0  0  0
    0.9514   -0.5671    1.6668 H   0  0  0  0  0  0  0  0  0  0  0  0
    2.9359   -0.3327   -0.8093 H   0  0  0  0  0  0  0  0  0  0  0  0
    3.3310   -0.6943    0.9876 H   0  0  0  0  0  0  0  0  0  0  0  0
  1  2  1  0
  2  3  2  0
  2  4  1  0
  4  5  1  0
  5  6  2  0
  4  7  1  0
  7  8  1  0
  8  9  1  0
  9  7  1  0
  1 10  1  0
  1 11  1  0
  1 12  1  0
  4 13  1  0
  5 14  1  0
  7 15  1  0
  8 16  1  0
  8 17  1  0
M  END
