
     RDKit          3D

 15 14  0  0  0  0  0  0  0  0999 V2000
    2.8244    0.2379    0.1861 C   0  0  0  0  0  0  0  0  0  0  0  0
    1.4679   -0.3027    0.4617 C   0  0  0  0  0  0  0  0  0  0  0  0
    1.3735   -1.2591    1.2727 O   0  0  0  0  0  0  0  0  0  0  0  0
    0.3275    0.2090   -0.1394 O   0  0  0  0  0  0  0  0  0  0  0  0
   -0.9172   -0.3981    0.2091 C   0  0  0  0  0  0  0  0  0  0  0  0
   -1.9853    0.3403   -0.5772 C   0  0  0  0  0  0  0  0  0  0  0  0
   -3.2463   -0.1751   -0.3101 O   0  0  0  0  0  0  0  0  0  0  0  0
    3.0132    1.0022    0.9914 H   0  0  0  0  0  0  0  0  0  0  0  0
    3.5301   -0.6030    0.2259 H   0  0  0  0  0  0  0  0  0  0  0  0
    2.8796    0.7044   -0.8287 H   0  0  0  0  0  0  0  0  0  0  0  0
   -0.8487   -1.4584   -0.0772 H   0  0  0  0  0  0  0  0  0  0  0  0
   -1.1461   -0.2530    1.2924 H   0  0  0  0  0  0  0  0  0  0  0  0
   -1.7402    0.3470   -1.6584 H   0  0  0  0  0  0  0  0  0  0  0  0
   -1.9962    1.3984   -0.2450 H   0  0  0  0  0  0  0  0  0  0  0  0
   -3.5363    0.2101    0.5570 H   0  0  0  0  0  0  0  0  0  0  0  0
  1  2  1  0
  2  3  2  0
  2  4  1  0
  4  5  1  0
  5  6  1  0
  6  7  1  0
  1  8  1  0
  1  9  1  0
  1 10  1  0
  5 11  1  0
  5 12  1  0
  6 13  1  0
  6 14  1  0
  7 15  1  0
M  END
