
     RDKit          3D

 19 19  0  0  0  0  0  0  0  0999 V2000
    2.5667    0.0987    0.4253 C   0  0  0  0  0  0  0  0  0  0  0  0
    1.4433   -0.6652   -0.1755 C   0  0  0  0  0  0  0  0  0  0  0  0
    1.5586   -1.8743   -0.2129 O   0  0  0  0  0  0  0  0  0  0  0  0
    0.2475   -0.0209   -0.7029 C   0  0  0  0  0  0  0  0  0  0  0  0
   -0.6358   -0.9464   -1.2002 O   0  0  0  0  0  0  0  0  0  0  0  0
   -1.8291   -0.8405   -0.5356 C   0  0  0  0  0  0  0  0  0  0  0  0
   -1.9171    0.6336   -0.2139 C   0  0  0  0  0  0  0  0  0  0  0  0
   -0.4793    0.8479    0.2846 C   0  0  0  0  0  0  0  0  0  0  0  0
   -0.3822    0.3812    1.5895 O   0  0  0  0  0  0  0  0  0  0  0  0
    2.4096    0.1299    1.5210 H   0  0  0  0  0  0  0  0  0  0  0  0
    2.6019    1.1569    0.0408 H   0  0  0  0  0  0  0  0  0  0  0  0
    3.5575   -0.3419    0.1777 H   0  0  0  0  0  0  0  0  0  0  0  0
    0.5457    0.6584   -1.5553 H   0  0  0  0  0  0  0  0  0  0  0  0
   -2.6890   -1.1723   -1.1505 H   0  0  0  0  0  0  0  0  0  0  0  0
   -1.7476   -1.4352    0.4125 H   0  0  0  0  0  0  0  0  0  0  0  0
   -2.6578    0.8794    0.5381 H   0  0  0  0  0  0  0  0  0  0  0  0
   -2.0104    1.1942   -1.1602 H   0  0  0  0  0  0  0  0  0  0  0  0
   -0.2057    1.9005    0.2497 H   0  0  0  0  0  0  0  0  0  0  0  0
   -0.3766   -0.5840    1.6677 H   0  0  0  0  0  0  0  0  0  0  0  0
  1  2  1  0
  2  3  2  0
  2  4  1  0
  4  5  1  0
  5  6  1  0
  6  7  1  0
  7  8  1  0
  8  9  1  0
  8  4  1  0
  1 10  1  0
  1 11  1  0
  1 12  1  0
  4 13  1  0
  6 14  1  0
  6 15  1  0
  7 16  1  0
  7 17  1  0
  8 18  1  0
  9 19  1  0
M  END
