
     RDKit          3D

 19 19  0  0  0  0  0  0  0  0999 V2000
    2.1903   -0.3712    0.3528 C   0  0  0  0  0  0  0  0  0  0  0  0
    1.2622    0.6694   -0.1705 C   0  0  0  0  0  0  0  0  0  0  0  0
    1.7668    1.7110   -0.5506 O   0  0  0  0  0  0  0  0  0  0  0  0
   -0.1934    0.5025   -0.2472 C   0  0  0  0  0  0  0  0  0  0  0  0
   -0.8712    1.6904   -0.8061 C   0  0  0  0  0  0  0  0  0  0  0  0
   -0.8248    2.7587   -0.2482 O   0  0  0  0  0  0  0  0  0  0  0  0
   -0.5777   -0.8120   -0.8772 C   0  0  0  0  0  0  0  0  0  0  0  0
   -1.4024   -1.1500    0.3401 C   0  0  0  0  0  0  0  0  0  0  0  0
   -0.8717    0.0693    1.0361 C   0  0  0  0  0  0  0  0  0  0  0  0
    1.6247   -1.2988    0.6033 H   0  0  0  0  0  0  0  0  0  0  0  0
    2.7236    0.0413    1.2451 H   0  0  0  0  0  0  0  0  0  0  0  0
    2.9680   -0.6534   -0.3864 H   0  0  0  0  0  0  0  0  0  0  0  0
   -1.4140    1.5968   -1.7258 H   0  0  0  0  0  0  0  0  0  0  0  0
   -1.1652   -0.6613   -1.8143 H   0  0  0  0  0  0  0  0  0  0  0  0
    0.2703   -1.4990   -0.9597 H   0  0  0  0  0  0  0  0  0  0  0  0
   -2.4746   -1.1512    0.0871 H   0  0  0  0  0  0  0  0  0  0  0  0
   -1.0736   -2.0637    0.8853 H   0  0  0  0  0  0  0  0  0  0  0  0
   -0.2113   -0.0971    1.8900 H   0  0  0  0  0  0  0  0  0  0  0  0
   -1.7260    0.7184    1.3463 H   0  0  0  0  0  0  0  0  0  0  0  0
  1  2  1  0
  2  3  2  0
  2  4  1  0
  4  5  1  0
  5  6  2  0
  4  7  1  0
  7  8  1  0
  8  9  1  0
  9  4  1  0
  1 10  1  0
  1 11  1  0
  1 12  1  0
  5 13  1  0
  7 14  1  0
  7 15  1  0
  8 16  1  0
  8 17  1  0
  9 18  1  0
  9 19  1  0
M  END
