
     RDKit          3D

 19 20  0  0  0  0  0  0  0  0999 V2000
   -3.0428    0.2324    0.0956 C   0  0  0  0  0  0  0  0  0  0  0  0
   -1.8117   -0.0505    0.8843 C   0  0  0  0  0  0  0  0  0  0  0  0
   -1.9036   -0.6512    1.9246 O   0  0  0  0  0  0  0  0  0  0  0  0
   -0.5160    0.4249    0.3483 C   0  0  0  0  0  0  0  0  0  0  0  0
    0.6904    0.1167    1.1759 C   0  0  0  0  0  0  0  0  0  0  0  0
    0.5207   -1.2068    0.8045 O   0  0  0  0  0  0  0  0  0  0  0  0
    0.3076   -0.5614   -0.3996 C   0  0  0  0  0  0  0  0  0  0  0  0
    1.5006    0.2906   -0.0647 C   0  0  0  0  0  0  0  0  0  0  0  0
    2.8344   -0.3507   -0.1229 C   0  0  0  0  0  0  0  0  0  0  0  0
   -3.8446    0.6802    0.7428 H   0  0  0  0  0  0  0  0  0  0  0  0
   -3.4003   -0.6614   -0.4417 H   0  0  0  0  0  0  0  0  0  0  0  0
   -2.8449    1.0028   -0.6916 H   0  0  0  0  0  0  0  0  0  0  0  0
   -0.5406    1.4251   -0.0785 H   0  0  0  0  0  0  0  0  0  0  0  0
    0.8997    0.4640    2.0992 H   0  0  0  0  0  0  0  0  0  0  0  0
    0.1114   -0.9863   -1.2919 H   0  0  0  0  0  0  0  0  0  0  0  0
    1.4495    1.3445   -0.4216 H   0  0  0  0  0  0  0  0  0  0  0  0
    2.8221   -1.1284   -0.9185 H   0  0  0  0  0  0  0  0  0  0  0  0
    3.5889    0.4312   -0.4303 H   0  0  0  0  0  0  0  0  0  0  0  0
    3.1791   -0.8157    0.8168 H   0  0  0  0  0  0  0  0  0  0  0  0
  1  2  1  0
  2  3  2  0
  2  4  1  0
  4  5  1  0
  5  6  1  0
  6  7  1  0
  7  8  1  0
  8  9  1  0
  7  4  1  0
  8  5  1  0
  1 10  1  0
  1 11  1  0
  1 12  1  0
  4 13  1  0
  5 14  1  0
  7 15  1  0
  8 16  1  0
  9 17  1  0
  9 18  1  0
  9 19  1  0
M  END
