
     RDKit          3D

 23 23  0  0  0  0  0  0  0  0999 V2000
    2.9450    0.7504    0.3566 C   0  0  0  0  0  0  0  0  0  0  0  0
    1.9993   -0.0063   -0.5095 C   0  0  0  0  0  0  0  0  0  0  0  0
    2.2507   -0.0529   -1.7016 O   0  0  0  0  0  0  0  0  0  0  0  0
    0.8071   -0.6669    0.0818 C   0  0  0  0  0  0  0  0  0  0  0  0
   -0.0232   -1.3757   -0.9349 C   0  0  0  0  0  0  0  0  0  0  0  0
   -1.4309   -0.8641   -0.7498 C   0  0  0  0  0  0  0  0  0  0  0  0
   -1.2904    0.5049   -0.0856 C   0  0  0  0  0  0  0  0  0  0  0  0
   -2.5614    0.7868    0.6930 C   0  0  0  0  0  0  0  0  0  0  0  0
   -0.0953    0.3211    0.7920 C   0  0  0  0  0  0  0  0  0  0  0  0
    3.9950    0.6115   -0.0347 H   0  0  0  0  0  0  0  0  0  0  0  0
    2.8905    0.4439    1.4202 H   0  0  0  0  0  0  0  0  0  0  0  0
    2.7601    1.8540    0.2373 H   0  0  0  0  0  0  0  0  0  0  0  0
    1.1606   -1.3855    0.8608 H   0  0  0  0  0  0  0  0  0  0  0  0
    0.3310   -1.2480   -1.9755 H   0  0  0  0  0  0  0  0  0  0  0  0
   -0.0449   -2.4827   -0.7489 H   0  0  0  0  0  0  0  0  0  0  0  0
   -1.9610   -0.6946   -1.7037 H   0  0  0  0  0  0  0  0  0  0  0  0
   -2.0115   -1.5211   -0.0703 H   0  0  0  0  0  0  0  0  0  0  0  0
   -1.1214    1.2442   -0.8869 H   0  0  0  0  0  0  0  0  0  0  0  0
   -2.3761    1.3852    1.6072 H   0  0  0  0  0  0  0  0  0  0  0  0
   -3.2348    1.3841    0.0409 H   0  0  0  0  0  0  0  0  0  0  0  0
   -3.0477   -0.1633    1.0365 H   0  0  0  0  0  0  0  0  0  0  0  0
   -0.4464   -0.0689    1.7671 H   0  0  0  0  0  0  0  0  0  0  0  0
    0.5056    1.2439    0.9364 H   0  0  0  0  0  0  0  0  0  0  0  0
  1  2  1  0
  2  3  2  0
  2  4  1  0
  4  5  1  0
  5  6  1  0
  6  7  1  0
  7  8  1  0
  7  9  1  0
  9  4  1  0
  1 10  1  0
  1 11  1  0
  1 12  1  0
  4 13  1  0
  5 14  1  0
  5 15  1  0
  6 16  1  0
  6 17  1  0
  7 18  1  0
  8 19  1  0
  8 20  1  0
  8 21  1  0
  9 22  1  0
  9 23  1  0
M  END
