
     RDKit          3D

 21 21  0  0  0  0  0  0  0  0999 V2000
    2.8899    0.4529    0.5089 C   0  0  0  0  0  0  0  0  0  0  0  0
    1.9541   -0.4126   -0.2227 C   0  0  0  0  0  0  0  0  0  0  0  0
    2.3867   -1.4434   -0.7092 O   0  0  0  0  0  0  0  0  0  0  0  0
    0.5140   -0.1252   -0.4154 C   0  0  0  0  0  0  0  0  0  0  0  0
   -0.3758   -1.2269    0.0907 C   0  0  0  0  0  0  0  0  0  0  0  0
   -1.7852   -0.9288   -0.4008 C   0  0  0  0  0  0  0  0  0  0  0  0
   -2.1584    0.4567    0.0899 C   0  0  0  0  0  0  0  0  0  0  0  0
   -1.1041    1.4192   -0.4355 C   0  0  0  0  0  0  0  0  0  0  0  0
    0.1191    1.0624    0.1709 O   0  0  0  0  0  0  0  0  0  0  0  0
    3.3616   -0.1121    1.3458 H   0  0  0  0  0  0  0  0  0  0  0  0
    2.4581    1.3846    0.8739 H   0  0  0  0  0  0  0  0  0  0  0  0
    3.7389    0.6955   -0.1946 H   0  0  0  0  0  0  0  0  0  0  0  0
    0.3155   -0.0230   -1.5113 H   0  0  0  0  0  0  0  0  0  0  0  0
   -0.3444   -1.2949    1.2053 H   0  0  0  0  0  0  0  0  0  0  0  0
   -0.0776   -2.1926   -0.3922 H   0  0  0  0  0  0  0  0  0  0  0  0
   -2.5081   -1.6910   -0.0708 H   0  0  0  0  0  0  0  0  0  0  0  0
   -1.7311   -0.9085   -1.5089 H   0  0  0  0  0  0  0  0  0  0  0  0
   -2.1745    0.4770    1.1944 H   0  0  0  0  0  0  0  0  0  0  0  0
   -3.1567    0.7379   -0.3305 H   0  0  0  0  0  0  0  0  0  0  0  0
   -1.3686    2.4659   -0.2613 H   0  0  0  0  0  0  0  0  0  0  0  0
   -0.9533    1.2068   -1.5242 H   0  0  0  0  0  0  0  0  0  0  0  0
  1  2  1  0
  2  3  2  0
  2  4  1  0
  4  5  1  0
  5  6  1  0
  6  7  1  0
  7  8  1  0
  8  9  1  0
  9  4  1  0
  1 10  1  0
  1 11  1  0
  1 12  1  0
  4 13  1  0
  5 14  1  0
  5 15  1  0
  6 16  1  0
  6 17  1  0
  7 18  1  0
  7 19  1  0
  8 20  1  0
  8 21  1  0
M  END
