
     RDKit          3D

 17 17  0  0  0  0  0  0  0  0999 V2000
    2.5129    0.2310   -0.0081 C   0  0  0  0  0  0  0  0  0  0  0  0
    1.3013   -0.5814   -0.4146 C   0  0  0  0  0  0  0  0  0  0  0  0
    1.5115   -1.6546   -0.8255 O   0  0  0  0  0  0  0  0  0  0  0  0
   -0.0258    0.0709   -0.2633 C   0  0  0  0  0  0  0  0  0  0  0  0
   -0.0740    1.3739   -0.7055 O   0  0  0  0  0  0  0  0  0  0  0  0
   -0.5373   -0.0549    1.1590 C   0  0  0  0  0  0  0  0  0  0  0  0
   -1.2340   -0.7051    0.0193 C   0  0  0  0  0  0  0  0  0  0  0  0
   -2.5559   -0.1189   -0.3120 C   0  0  0  0  0  0  0  0  0  0  0  0
   -3.4299   -0.8398   -0.8590 O   0  0  0  0  0  0  0  0  0  0  0  0
    2.2455    1.2100    0.3735 H   0  0  0  0  0  0  0  0  0  0  0  0
    3.0671   -0.3380    0.8094 H   0  0  0  0  0  0  0  0  0  0  0  0
    3.2590    0.3299   -0.8082 H   0  0  0  0  0  0  0  0  0  0  0  0
   -0.9479    1.7752   -0.6852 H   0  0  0  0  0  0  0  0  0  0  0  0
   -0.1079   -0.6757    1.9063 H   0  0  0  0  0  0  0  0  0  0  0  0
   -0.9617    0.9102    1.5614 H   0  0  0  0  0  0  0  0  0  0  0  0
   -1.1631   -1.8008   -0.1466 H   0  0  0  0  0  0  0  0  0  0  0  0
   -2.8597    0.8680   -0.1079 H   0  0  0  0  0  0  0  0  0  0  0  0
  1  2  1  0
  2  3  2  0
  2  4  1  0
  4  5  1  0
  4  6  1  0
  6  7  1  0
  7  8  1  0
  8  9  2  0
  7  4  1  0
  1 10  1  0
  1 11  1  0
  1 12  1  0
  5 13  1  0
  6 14  1  0
  6 15  1  0
  7 16  1  0
  8 17  1  0
M  END
