
     RDKit          3D

 19 20  0  0  0  0  0  0  0  0999 V2000
    2.8604   -0.3789    0.2970 C   0  0  0  0  0  0  0  0  0  0  0  0
    1.4667   -0.5112   -0.2702 C   0  0  0  0  0  0  0  0  0  0  0  0
    1.2842   -1.3908   -1.0530 O   0  0  0  0  0  0  0  0  0  0  0  0
    0.4854    0.4761    0.2181 C   0  0  0  0  0  0  0  0  0  0  0  0
   -0.8910    0.3568   -0.3182 C   0  0  0  0  0  0  0  0  0  0  0  0
   -1.9346    1.3792    0.1732 C   0  0  0  0  0  0  0  0  0  0  0  0
   -2.4359    0.3881    0.9803 O   0  0  0  0  0  0  0  0  0  0  0  0
   -1.7848   -0.6866    0.4317 C   0  0  0  0  0  0  0  0  0  0  0  0
   -1.4717   -0.7804   -1.0151 C   0  0  0  0  0  0  0  0  0  0  0  0
    2.9423   -0.9576    1.2394 H   0  0  0  0  0  0  0  0  0  0  0  0
    3.6078   -0.8037   -0.4251 H   0  0  0  0  0  0  0  0  0  0  0  0
    3.0978    0.7016    0.4750 H   0  0  0  0  0  0  0  0  0  0  0  0
    0.8864    1.4857   -0.0936 H   0  0  0  0  0  0  0  0  0  0  0  0
    0.5367    0.4855    1.3253 H   0  0  0  0  0  0  0  0  0  0  0  0
   -1.4384    2.2286    0.6371 H   0  0  0  0  0  0  0  0  0  0  0  0
   -2.6326    1.6048   -0.6693 H   0  0  0  0  0  0  0  0  0  0  0  0
   -1.2440   -1.3860    1.0946 H   0  0  0  0  0  0  0  0  0  0  0  0
   -0.9772   -1.6812   -1.3519 H   0  0  0  0  0  0  0  0  0  0  0  0
   -2.3575   -0.5300   -1.6756 H   0  0  0  0  0  0  0  0  0  0  0  0
  1  2  1  0
  2  3  2  0
  2  4  1  0
  4  5  1  0
  5  6  1  0
  6  7  1  0
  7  8  1  0
  8  9  1  0
  8  5  1  0
  9  5  1  0
  1 10  1  0
  1 11  1  0
  1 12  1  0
  4 13  1  0
  4 14  1  0
  6 15  1  0
  6 16  1  0
  8 17  1  0
  9 18  1  0
  9 19  1  0
M  END
