
     RDKit          3D

 17 17  0  0  0  0  0  0  0  0999 V2000
    1.9788   -1.5887   -2.2091 C   0  0  0  0  0  0  0  0  0  0  0  0
    2.2842   -0.9727   -0.9104 C   0  0  0  0  0  0  0  0  0  0  0  0
    3.1973   -0.7270   -0.2588 O   0  0  0  0  0  0  0  0  0  0  0  0
    0.9626   -0.4778   -0.2892 C   0  0  0  0  0  0  0  0  0  0  0  0
   -0.2891    0.0180    0.3054 C   0  0  0  0  0  0  0  0  0  0  0  0
   -1.2536    0.4159    0.7777 C   0  0  0  0  0  0  0  0  0  0  0  0
    0.1715    0.9881    2.1141 O   0  0  0  0  0  0  0  0  0  0  0  0
   -1.8567    1.7006    1.2199 C   0  0  0  0  0  0  0  0  0  0  0  0
   -2.1097    0.3396    1.9953 C   0  0  0  0  0  0  0  0  0  0  0  0
    2.9780   -1.8681   -2.6514 H   0  0  0  0  0  0  0  0  0  0  0  0
    1.1470   -2.2414   -2.3066 H   0  0  0  0  0  0  0  0  0  0  0  0
    1.6851   -0.6872   -2.9320 H   0  0  0  0  0  0  0  0  0  0  0  0
   -0.1584    0.2017    2.5077 H   0  0  0  0  0  0  0  0  0  0  0  0
   -1.2115    2.4112    1.8172 H   0  0  0  0  0  0  0  0  0  0  0  0
   -2.7584    2.1936    0.9139 H   0  0  0  0  0  0  0  0  0  0  0  0
   -3.1483    0.0465    2.0284 H   0  0  0  0  0  0  0  0  0  0  0  0
   -1.6187    0.2477    3.0058 H   0  0  0  0  0  0  0  0  0  0  0  0
  1  2  1  0
  2  3  2  0
  2  4  1  0
  4  5  3  0
  5  6  1  0
  6  7  1  0
  6  8  1  0
  8  9  1  0
  9  6  1  0
  1 10  1  0
  1 11  1  0
  1 12  1  0
  7 13  1  0
  8 14  1  0
  8 15  1  0
  9 16  1  0
  9 17  1  0
M  END
