
     RDKit          3D

 19 20  0  0  0  0  0  0  0  0999 V2000
    2.4977    0.6408    0.2086 C   0  0  0  0  0  0  0  0  0  0  0  0
    1.3329    0.2224   -0.6217 C   0  0  0  0  0  0  0  0  0  0  0  0
    1.2050    0.5869   -1.7734 O   0  0  0  0  0  0  0  0  0  0  0  0
    0.3087   -0.6515   -0.0440 C   0  0  0  0  0  0  0  0  0  0  0  0
   -0.6359   -1.3316   -0.9640 C   0  0  0  0  0  0  0  0  0  0  0  0
   -1.1073   -0.3445    0.0193 C   0  0  0  0  0  0  0  0  0  0  0  0
   -1.7292    0.9289   -0.4217 C   0  0  0  0  0  0  0  0  0  0  0  0
   -0.8756   -0.5798    1.4914 C   0  0  0  0  0  0  0  0  0  0  0  0
    0.4060   -1.0948    1.2613 O   0  0  0  0  0  0  0  0  0  0  0  0
    2.3835    0.2858    1.2372 H   0  0  0  0  0  0  0  0  0  0  0  0
    3.4557    0.2205   -0.1969 H   0  0  0  0  0  0  0  0  0  0  0  0
    2.5647    1.7656    0.2801 H   0  0  0  0  0  0  0  0  0  0  0  0
   -0.9380   -2.3888   -0.7747 H   0  0  0  0  0  0  0  0  0  0  0  0
   -0.5814   -1.0600   -2.0214 H   0  0  0  0  0  0  0  0  0  0  0  0
   -2.2075    1.4500    0.4571 H   0  0  0  0  0  0  0  0  0  0  0  0
   -1.0847    1.5976   -0.9996 H   0  0  0  0  0  0  0  0  0  0  0  0
   -2.6059    0.6836   -1.0905 H   0  0  0  0  0  0  0  0  0  0  0  0
   -0.7883    0.3721    2.0544 H   0  0  0  0  0  0  0  0  0  0  0  0
   -1.6005   -1.3031    1.8982 H   0  0  0  0  0  0  0  0  0  0  0  0
  1  2  1  0
  2  3  2  0
  2  4  1  0
  4  5  1  0
  5  6  1  0
  6  7  1  0
  6  8  1  0
  8  9  1  0
  6  4  1  0
  9  4  1  0
  1 10  1  0
  1 11  1  0
  1 12  1  0
  5 13  1  0
  5 14  1  0
  7 15  1  0
  7 16  1  0
  7 17  1  0
  8 18  1  0
  8 19  1  0
M  END
