
     RDKit          3D

 19 19  0  0  0  0  0  0  0  0999 V2000
    3.4089    0.5111   -0.4999 C   0  0  0  0  0  0  0  0  0  0  0  0
    2.1972   -0.3278   -0.5330 C   0  0  0  0  0  0  0  0  0  0  0  0
    2.2750   -1.4982   -0.9667 O   0  0  0  0  0  0  0  0  0  0  0  0
    0.9545    0.2370   -0.0595 C   0  0  0  0  0  0  0  0  0  0  0  0
    0.9277    1.4095    0.3638 O   0  0  0  0  0  0  0  0  0  0  0  0
   -0.2848   -0.5908   -0.0825 C   0  0  0  0  0  0  0  0  0  0  0  0
   -1.4728    0.1628    0.4460 C   0  0  0  0  0  0  0  0  0  0  0  0
   -2.7555   -0.6545    0.4362 C   0  0  0  0  0  0  0  0  0  0  0  0
   -2.5898    0.5877   -0.3914 C   0  0  0  0  0  0  0  0  0  0  0  0
    4.2769    0.0320   -0.9917 H   0  0  0  0  0  0  0  0  0  0  0  0
    3.1499    1.4909   -0.9571 H   0  0  0  0  0  0  0  0  0  0  0  0
    3.6429    0.6849    0.5855 H   0  0  0  0  0  0  0  0  0  0  0  0
   -0.1279   -1.4630    0.5884 H   0  0  0  0  0  0  0  0  0  0  0  0
   -0.4373   -0.9798   -1.1006 H   0  0  0  0  0  0  0  0  0  0  0  0
   -1.2679    0.7057    1.4007 H   0  0  0  0  0  0  0  0  0  0  0  0
   -3.3964   -0.6468    1.3355 H   0  0  0  0  0  0  0  0  0  0  0  0
   -2.7781   -1.6094   -0.1207 H   0  0  0  0  0  0  0  0  0  0  0  0
   -2.5335    0.4980   -1.4856 H   0  0  0  0  0  0  0  0  0  0  0  0
   -3.1890    1.4507   -0.0218 H   0  0  0  0  0  0  0  0  0  0  0  0
  1  2  1  0
  2  3  2  0
  2  4  1  0
  4  5  2  0
  4  6  1  0
  6  7  1  0
  7  8  1  0
  8  9  1  0
  9  7  1  0
  1 10  1  0
  1 11  1  0
  1 12  1  0
  6 13  1  0
  6 14  1  0
  7 15  1  0
  8 16  1  0
  8 17  1  0
  9 18  1  0
  9 19  1  0
M  END
