
     RDKit          3D

 19 18  0  0  0  0  0  0  0  0999 V2000
   -2.1289    1.0749   -0.9689 C   0  0  0  0  0  0  0  0  0  0  0  0
   -1.6165    0.1178    0.0437 C   0  0  0  0  0  0  0  0  0  0  0  0
   -2.4050   -0.6571    0.5439 O   0  0  0  0  0  0  0  0  0  0  0  0
   -0.1975    0.0679    0.4662 C   0  0  0  0  0  0  0  0  0  0  0  0
   -0.0462   -1.0098    1.4934 C   0  0  0  0  0  0  0  0  0  0  0  0
    0.6605   -0.1546   -0.7256 C   0  0  0  0  0  0  0  0  0  0  0  0
    0.1513   -0.2629   -1.8276 O   0  0  0  0  0  0  0  0  0  0  0  0
    2.1404   -0.2541   -0.6414 C   0  0  0  0  0  0  0  0  0  0  0  0
    2.5403   -0.1080    0.6810 O   0  0  0  0  0  0  0  0  0  0  0  0
   -2.0182    0.6037   -1.9648 H   0  0  0  0  0  0  0  0  0  0  0  0
   -1.5678    2.0334   -0.9699 H   0  0  0  0  0  0  0  0  0  0  0  0
   -3.2211    1.2304   -0.8238 H   0  0  0  0  0  0  0  0  0  0  0  0
    0.0799    1.0288    0.9518 H   0  0  0  0  0  0  0  0  0  0  0  0
   -0.1889   -1.9875    0.9770 H   0  0  0  0  0  0  0  0  0  0  0  0
    0.8749   -0.9595    2.0828 H   0  0  0  0  0  0  0  0  0  0  0  0
   -0.9108   -0.9156    2.2054 H   0  0  0  0  0  0  0  0  0  0  0  0
    2.6257    0.5239   -1.2667 H   0  0  0  0  0  0  0  0  0  0  0  0
    2.5052   -1.2330   -1.0665 H   0  0  0  0  0  0  0  0  0  0  0  0
    2.7227    0.8613    0.8099 H   0  0  0  0  0  0  0  0  0  0  0  0
  1  2  1  0
  2  3  2  0
  2  4  1  0
  4  5  1  0
  4  6  1  0
  6  7  2  0
  6  8  1  0
  8  9  1  0
  1 10  1  0
  1 11  1  0
  1 12  1  0
  4 13  1  0
  5 14  1  0
  5 15  1  0
  5 16  1  0
  8 17  1  0
  8 18  1  0
  9 19  1  0
M  END
