
     RDKit          3D

 17 18  0  0  0  0  0  0  0  0999 V2000
   -2.8931   -0.0040   -0.2269 C   0  0  0  0  0  0  0  0  0  0  0  0
   -1.5270   -0.3216    0.2270 C   0  0  0  0  0  0  0  0  0  0  0  0
   -1.3753   -1.1335    1.1177 O   0  0  0  0  0  0  0  0  0  0  0  0
   -0.3486    0.3311   -0.3841 C   0  0  0  0  0  0  0  0  0  0  0  0
    0.8232   -0.4254   -0.6854 C   0  0  0  0  0  0  0  0  0  0  0  0
    2.1121   -0.1449   -0.9676 O   0  0  0  0  0  0  0  0  0  0  0  0
    2.6973   -0.1344    0.3245 C   0  0  0  0  0  0  0  0  0  0  0  0
    1.6163   -0.0201    1.2362 O   0  0  0  0  0  0  0  0  0  0  0  0
    0.7398    0.6689    0.4603 C   0  0  0  0  0  0  0  0  0  0  0  0
   -2.9815    1.0474   -0.5978 H   0  0  0  0  0  0  0  0  0  0  0  0
   -3.5890   -0.1655    0.6089 H   0  0  0  0  0  0  0  0  0  0  0  0
   -3.2367   -0.6878   -1.0521 H   0  0  0  0  0  0  0  0  0  0  0  0
   -0.6549    1.0579   -1.1950 H   0  0  0  0  0  0  0  0  0  0  0  0
    0.7594   -1.4995   -0.3262 H   0  0  0  0  0  0  0  0  0  0  0  0
    3.3175    0.7820    0.4168 H   0  0  0  0  0  0  0  0  0  0  0  0
    3.3080   -1.0113    0.5131 H   0  0  0  0  0  0  0  0  0  0  0  0
    1.2325    1.6607    0.2033 H   0  0  0  0  0  0  0  0  0  0  0  0
  1  2  1  0
  2  3  2  0
  2  4  1  0
  4  5  1  0
  5  6  1  0
  6  7  1  0
  7  8  1  0
  8  9  1  0
  9  4  1  0
  9  5  1  0
  1 10  1  0
  1 11  1  0
  1 12  1  0
  4 13  1  0
  5 14  1  0
  7 15  1  0
  7 16  1  0
  9 17  1  0
M  END
