
     RDKit          3D

 15 14  0  0  0  0  0  0  0  0999 V2000
    2.8641   -0.1057    0.0720 C   0  0  0  0  0  0  0  0  0  0  0  0
    1.5314    0.0356   -0.5336 C   0  0  0  0  0  0  0  0  0  0  0  0
    1.4158    0.2510   -1.7585 O   0  0  0  0  0  0  0  0  0  0  0  0
    0.3342   -0.0707    0.2692 C   0  0  0  0  0  0  0  0  0  0  0  0
    0.4738   -0.2893    1.5084 O   0  0  0  0  0  0  0  0  0  0  0  0
   -1.0406    0.0693   -0.3217 C   0  0  0  0  0  0  0  0  0  0  0  0
   -1.9936   -0.0822    0.7028 O   0  0  0  0  0  0  0  0  0  0  0  0
   -3.3364    0.0105    0.3801 C   0  0  0  0  0  0  0  0  0  0  0  0
   -3.6371    0.2255   -0.8126 O   0  0  0  0  0  0  0  0  0  0  0  0
    2.9093    0.3922    1.0837 H   0  0  0  0  0  0  0  0  0  0  0  0
    3.6471    0.3393   -0.6060 H   0  0  0  0  0  0  0  0  0  0  0  0
    3.1641   -1.1587    0.2497 H   0  0  0  0  0  0  0  0  0  0  0  0
   -1.0808    1.1344   -0.6900 H   0  0  0  0  0  0  0  0  0  0  0  0
   -1.1335   -0.6540   -1.1368 H   0  0  0  0  0  0  0  0  0  0  0  0
   -4.1179   -0.0971    1.1240 H   0  0  0  0  0  0  0  0  0  0  0  0
  1  2  1  0
  2  3  2  0
  2  4  1  0
  4  5  2  0
  4  6  1  0
  6  7  1  0
  7  8  1  0
  8  9  2  0
  1 10  1  0
  1 11  1  0
  1 12  1  0
  6 13  1  0
  6 14  1  0
  8 15  1  0
M  END
