
     RDKit          3D

 23 22  0  0  0  0  0  0  0  0999 V2000
    2.3645    1.0441    0.4366 C   0  0  0  0  0  0  0  0  0  0  0  0
    0.9411    1.0574    0.0601 C   0  0  0  0  0  0  0  0  0  0  0  0
    0.3817    2.1247   -0.0818 O   0  0  0  0  0  0  0  0  0  0  0  0
    0.1472   -0.1879   -0.1569 C   0  0  0  0  0  0  0  0  0  0  0  0
    0.0988   -1.0552    1.0791 C   0  0  0  0  0  0  0  0  0  0  0  0
    0.7942   -1.0476   -1.2525 C   0  0  0  0  0  0  0  0  0  0  0  0
   -1.2408    0.0956   -0.6211 C   0  0  0  0  0  0  0  0  0  0  0  0
   -2.0625    0.9132    0.3073 C   0  0  0  0  0  0  0  0  0  0  0  0
   -1.8661   -1.1366   -0.8584 O   0  0  0  0  0  0  0  0  0  0  0  0
    2.4795    1.5304    1.4436 H   0  0  0  0  0  0  0  0  0  0  0  0
    2.7970    0.0457    0.5126 H   0  0  0  0  0  0  0  0  0  0  0  0
    2.9283    1.7073   -0.2679 H   0  0  0  0  0  0  0  0  0  0  0  0
    0.2486   -0.5086    2.0101 H   0  0  0  0  0  0  0  0  0  0  0  0
    0.8873   -1.8622    1.0416 H   0  0  0  0  0  0  0  0  0  0  0  0
   -0.8674   -1.6129    1.1503 H   0  0  0  0  0  0  0  0  0  0  0  0
    0.3067   -2.0395   -1.2185 H   0  0  0  0  0  0  0  0  0  0  0  0
    1.8793   -1.1212   -1.1240 H   0  0  0  0  0  0  0  0  0  0  0  0
    0.4899   -0.5813   -2.2225 H   0  0  0  0  0  0  0  0  0  0  0  0
   -1.1619    0.5806   -1.6312 H   0  0  0  0  0  0  0  0  0  0  0  0
   -2.1775    1.9345   -0.1411 H   0  0  0  0  0  0  0  0  0  0  0  0
   -3.1098    0.4943    0.3186 H   0  0  0  0  0  0  0  0  0  0  0  0
   -1.7213    0.9407    1.3406 H   0  0  0  0  0  0  0  0  0  0  0  0
   -2.5369   -1.3156   -0.1245 H   0  0  0  0  0  0  0  0  0  0  0  0
  1  2  1  0
  2  3  2  0
  2  4  1  0
  4  5  1  0
  4  6  1  0
  4  7  1  0
  7  8  1  0
  7  9  1  0
  1 10  1  0
  1 11  1  0
  1 12  1  0
  5 13  1  0
  5 14  1  0
  5 15  1  0
  6 16  1  0
  6 17  1  0
  6 18  1  0
  7 19  1  0
  8 20  1  0
  8 21  1  0
  8 22  1  0
  9 23  1  0
M  END
