
     RDKit          3D

 21 20  0  0  0  0  0  0  0  0999 V2000
   -2.3016   -1.4319    0.0570 C   0  0  0  0  0  0  0  0  0  0  0  0
   -1.3158   -0.5328   -0.5930 C   0  0  0  0  0  0  0  0  0  0  0  0
   -1.1922   -0.6051   -1.8017 O   0  0  0  0  0  0  0  0  0  0  0  0
   -0.5036    0.4262    0.2017 C   0  0  0  0  0  0  0  0  0  0  0  0
   -1.4771    1.3044    0.9617 C   0  0  0  0  0  0  0  0  0  0  0  0
    0.3074    1.1150   -0.6449 O   0  0  0  0  0  0  0  0  0  0  0  0
    1.6518    1.0078   -0.4139 C   0  0  0  0  0  0  0  0  0  0  0  0
    2.1887   -0.3929   -0.4959 C   0  0  0  0  0  0  0  0  0  0  0  0
    3.5706   -0.3129   -0.2341 O   0  0  0  0  0  0  0  0  0  0  0  0
   -1.9764   -1.7214    1.0770 H   0  0  0  0  0  0  0  0  0  0  0  0
   -2.4448   -2.3378   -0.5646 H   0  0  0  0  0  0  0  0  0  0  0  0
   -3.2747   -0.8907    0.1033 H   0  0  0  0  0  0  0  0  0  0  0  0
    0.0606   -0.1482    0.9914 H   0  0  0  0  0  0  0  0  0  0  0  0
   -1.1193    1.4886    2.0003 H   0  0  0  0  0  0  0  0  0  0  0  0
   -1.6665    2.2570    0.4664 H   0  0  0  0  0  0  0  0  0  0  0  0
   -2.4717    0.7976    1.0888 H   0  0  0  0  0  0  0  0  0  0  0  0
    1.9920    1.4590    0.5429 H   0  0  0  0  0  0  0  0  0  0  0  0
    2.1738    1.5958   -1.2154 H   0  0  0  0  0  0  0  0  0  0  0  0
    1.7467   -1.0352    0.2630 H   0  0  0  0  0  0  0  0  0  0  0  0
    2.0453   -0.8443   -1.4936 H   0  0  0  0  0  0  0  0  0  0  0  0
    4.0066   -1.1980   -0.2963 H   0  0  0  0  0  0  0  0  0  0  0  0
  1  2  1  0
  2  3  2  0
  2  4  1  0
  4  5  1  0
  4  6  1  0
  6  7  1  0
  7  8  1  0
  8  9  1  0
  1 10  1  0
  1 11  1  0
  1 12  1  0
  4 13  1  0
  5 14  1  0
  5 15  1  0
  5 16  1  0
  7 17  1  0
  7 18  1  0
  8 19  1  0
  8 20  1  0
  9 21  1  0
M  END
