
     RDKit          3D

 17 16  0  0  0  0  0  0  0  0999 V2000
    2.1729   -0.1114   -0.2267 C   0  0  0  0  0  0  0  0  0  0  0  0
    0.8768   -0.8429   -0.1543 C   0  0  0  0  0  0  0  0  0  0  0  0
    0.8457   -1.9965   -0.4970 O   0  0  0  0  0  0  0  0  0  0  0  0
   -0.3131   -0.1196    0.3352 C   0  0  0  0  0  0  0  0  0  0  0  0
   -1.5228   -1.0301    0.3337 C   0  0  0  0  0  0  0  0  0  0  0  0
   -0.5195    1.0935   -0.5314 C   0  0  0  0  0  0  0  0  0  0  0  0
   -1.6583    1.7811   -0.0590 O   0  0  0  0  0  0  0  0  0  0  0  0
    2.3920    0.2142    0.8324 H   0  0  0  0  0  0  0  0  0  0  0  0
    2.0073    0.7674   -0.8866 H   0  0  0  0  0  0  0  0  0  0  0  0
    2.9859   -0.7694   -0.5935 H   0  0  0  0  0  0  0  0  0  0  0  0
   -0.1840    0.2446    1.3823 H   0  0  0  0  0  0  0  0  0  0  0  0
   -2.0789   -0.9851   -0.6113 H   0  0  0  0  0  0  0  0  0  0  0  0
   -1.1397   -2.0772    0.4924 H   0  0  0  0  0  0  0  0  0  0  0  0
   -2.1647   -0.8205    1.2175 H   0  0  0  0  0  0  0  0  0  0  0  0
    0.3357    1.7893   -0.3184 H   0  0  0  0  0  0  0  0  0  0  0  0
   -0.6079    0.8178   -1.5816 H   0  0  0  0  0  0  0  0  0  0  0  0
   -1.4274    2.0446    0.8664 H   0  0  0  0  0  0  0  0  0  0  0  0
  1  2  1  0
  2  3  2  0
  2  4  1  0
  4  5  1  0
  4  6  1  0
  6  7  1  0
  1  8  1  0
  1  9  1  0
  1 10  1  0
  4 11  1  0
  5 12  1  0
  5 13  1  0
  5 14  1  0
  6 15  1  0
  6 16  1  0
  7 17  1  0
M  END
