
     RDKit          3D

 21 22  0  0  0  0  0  0  0  0999 V2000
    2.4768    0.0496   -0.5212 C   0  0  0  0  0  0  0  0  0  0  0  0
    1.3897   -0.0414    0.4633 C   0  0  0  0  0  0  0  0  0  0  0  0
    1.6554    0.3236    1.6149 O   0  0  0  0  0  0  0  0  0  0  0  0
    0.0282   -0.5211    0.2111 C   0  0  0  0  0  0  0  0  0  0  0  0
   -0.1245   -1.9109   -0.2747 C   0  0  0  0  0  0  0  0  0  0  0  0
   -0.5347   -0.7624   -1.1160 C   0  0  0  0  0  0  0  0  0  0  0  0
   -1.8404   -0.1115   -0.6989 C   0  0  0  0  0  0  0  0  0  0  0  0
   -1.1654    0.2974    0.5911 C   0  0  0  0  0  0  0  0  0  0  0  0
   -0.9506    1.7938    0.5984 C   0  0  0  0  0  0  0  0  0  0  0  0
    3.1172    0.9432   -0.2978 H   0  0  0  0  0  0  0  0  0  0  0  0
    3.1340   -0.8415   -0.3723 H   0  0  0  0  0  0  0  0  0  0  0  0
    2.1392    0.1394   -1.5683 H   0  0  0  0  0  0  0  0  0  0  0  0
    0.7940   -2.4280   -0.5875 H   0  0  0  0  0  0  0  0  0  0  0  0
   -0.9007   -2.5089    0.2558 H   0  0  0  0  0  0  0  0  0  0  0  0
   -0.0636   -0.5047   -2.0621 H   0  0  0  0  0  0  0  0  0  0  0  0
   -2.1900    0.7091   -1.3396 H   0  0  0  0  0  0  0  0  0  0  0  0
   -2.6092   -0.9258   -0.5798 H   0  0  0  0  0  0  0  0  0  0  0  0
   -1.6793   -0.0594    1.5186 H   0  0  0  0  0  0  0  0  0  0  0  0
   -1.8686    2.2628    1.0053 H   0  0  0  0  0  0  0  0  0  0  0  0
   -0.7509    2.1048   -0.4590 H   0  0  0  0  0  0  0  0  0  0  0  0
   -0.0567    1.9920    1.2416 H   0  0  0  0  0  0  0  0  0  0  0  0
  1  2  1  0
  2  3  2  0
  2  4  1  0
  4  5  1  0
  5  6  1  0
  6  7  1  0
  7  8  1  0
  8  9  1  0
  6  4  1  0
  8  4  1  0
  1 10  1  0
  1 11  1  0
  1 12  1  0
  5 13  1  0
  5 14  1  0
  6 15  1  0
  7 16  1  0
  7 17  1  0
  8 18  1  0
  9 19  1  0
  9 20  1  0
  9 21  1  0
M  END
