
     RDKit          3D

 15 15  0  0  0  0  0  0  0  0999 V2000
    2.0053   -0.2795    0.3952 C   0  0  0  0  0  0  0  0  0  0  0  0
    0.8799    0.6935    0.3242 C   0  0  0  0  0  0  0  0  0  0  0  0
    1.0536    1.8828    0.5202 O   0  0  0  0  0  0  0  0  0  0  0  0
   -0.4993    0.2513    0.0116 C   0  0  0  0  0  0  0  0  0  0  0  0
   -0.7862   -1.2009   -0.2413 C   0  0  0  0  0  0  0  0  0  0  0  0
   -1.6445    1.1545    0.2177 C   0  0  0  0  0  0  0  0  0  0  0  0
   -1.0539    1.0733   -1.0548 O   0  0  0  0  0  0  0  0  0  0  0  0
    1.8871   -0.8600    1.3144 H   0  0  0  0  0  0  0  0  0  0  0  0
    1.9196   -0.9614   -0.4876 H   0  0  0  0  0  0  0  0  0  0  0  0
    2.9742    0.2562    0.3673 H   0  0  0  0  0  0  0  0  0  0  0  0
   -0.2012   -1.8549    0.4327 H   0  0  0  0  0  0  0  0  0  0  0  0
   -1.8583   -1.4195   -0.0613 H   0  0  0  0  0  0  0  0  0  0  0  0
   -0.5838   -1.4990   -1.3109 H   0  0  0  0  0  0  0  0  0  0  0  0
   -1.4462    2.0629    0.8231 H   0  0  0  0  0  0  0  0  0  0  0  0
   -2.6462    0.7007    0.3163 H   0  0  0  0  0  0  0  0  0  0  0  0
  1  2  1  0
  2  3  2  0
  2  4  1  0
  4  5  1  0
  4  6  1  0
  6  7  1  0
  7  4  1  0
  1  8  1  0
  1  9  1  0
  1 10  1  0
  5 11  1  0
  5 12  1  0
  5 13  1  0
  6 14  1  0
  6 15  1  0
M  END
