
     RDKit          3D

 18 18  0  0  0  0  0  0  0  0999 V2000
    2.3059    0.8050   -0.1515 C   0  0  0  0  0  0  0  0  0  0  0  0
    1.3976   -0.2959    0.2644 C   0  0  0  0  0  0  0  0  0  0  0  0
    1.7538   -1.0335    1.1659 O   0  0  0  0  0  0  0  0  0  0  0  0
    0.1151   -0.4380   -0.4344 C   0  0  0  0  0  0  0  0  0  0  0  0
   -0.7627    0.8146   -0.2961 C   0  0  0  0  0  0  0  0  0  0  0  0
   -2.1165    0.1853   -0.5931 C   0  0  0  0  0  0  0  0  0  0  0  0
   -2.0952   -1.0897   -0.1036 O   0  0  0  0  0  0  0  0  0  0  0  0
   -0.8099   -1.4431    0.2096 C   0  0  0  0  0  0  0  0  0  0  0  0
    1.7931    1.7699    0.0988 H   0  0  0  0  0  0  0  0  0  0  0  0
    2.4183    0.8271   -1.2734 H   0  0  0  0  0  0  0  0  0  0  0  0
    3.3088    0.7242    0.2906 H   0  0  0  0  0  0  0  0  0  0  0  0
    0.2197   -0.6682   -1.5008 H   0  0  0  0  0  0  0  0  0  0  0  0
   -0.4852    1.5893   -1.0107 H   0  0  0  0  0  0  0  0  0  0  0  0
   -0.6945    1.1409    0.7658 H   0  0  0  0  0  0  0  0  0  0  0  0
   -2.9488    0.8038   -0.2498 H   0  0  0  0  0  0  0  0  0  0  0  0
   -2.1622    0.1079   -1.7192 H   0  0  0  0  0  0  0  0  0  0  0  0
   -0.5379   -2.4810   -0.0296 H   0  0  0  0  0  0  0  0  0  0  0  0
   -0.6995   -1.3184    1.3261 H   0  0  0  0  0  0  0  0  0  0  0  0
  1  2  1  0
  2  3  2  0
  2  4  1  0
  4  5  1  0
  5  6  1  0
  6  7  1  0
  7  8  1  0
  8  4  1  0
  1  9  1  0
  1 10  1  0
  1 11  1  0
  4 12  1  0
  5 13  1  0
  5 14  1  0
  6 15  1  0
  6 16  1  0
  8 17  1  0
  8 18  1  0
M  END
