
     RDKit          3D

 18 19  0  0  0  0  0  0  0  0999 V2000
    2.4121    0.0251    0.4427 C   0  0  0  0  0  0  0  0  0  0  0  0
    1.3037   -0.6039   -0.3061 C   0  0  0  0  0  0  0  0  0  0  0  0
    1.3919   -1.7682   -0.6191 O   0  0  0  0  0  0  0  0  0  0  0  0
    0.1161    0.1653   -0.6654 C   0  0  0  0  0  0  0  0  0  0  0  0
   -0.6833    0.7607    0.4541 C   0  0  0  0  0  0  0  0  0  0  0  0
   -1.8423    0.7598   -0.5173 C   0  0  0  0  0  0  0  0  0  0  0  0
   -1.1896   -0.5710   -0.7336 C   0  0  0  0  0  0  0  0  0  0  0  0
   -1.0989   -0.6457    0.7721 C   0  0  0  0  0  0  0  0  0  0  0  0
    3.4053   -0.1581   -0.0557 H   0  0  0  0  0  0  0  0  0  0  0  0
    2.4282   -0.3258    1.5064 H   0  0  0  0  0  0  0  0  0  0  0  0
    2.3208    1.1297    0.4992 H   0  0  0  0  0  0  0  0  0  0  0  0
    0.2383    0.7997   -1.5655 H   0  0  0  0  0  0  0  0  0  0  0  0
   -0.4274    1.4887    1.0835 H   0  0  0  0  0  0  0  0  0  0  0  0
   -2.8187    0.7768   -0.0375 H   0  0  0  0  0  0  0  0  0  0  0  0
   -1.7169    1.4747   -1.3691 H   0  0  0  0  0  0  0  0  0  0  0  0
   -1.4564   -1.3010   -1.3583 H   0  0  0  0  0  0  0  0  0  0  0  0
   -0.3085   -1.2995    1.1766 H   0  0  0  0  0  0  0  0  0  0  0  0
   -2.0742   -0.7075    1.2929 H   0  0  0  0  0  0  0  0  0  0  0  0
  1  2  1  0
  2  3  2  0
  2  4  1  0
  4  5  1  0
  5  6  1  0
  6  7  1  0
  7  8  1  0
  7  4  1  0
  8  5  1  0
  1  9  1  0
  1 10  1  0
  1 11  1  0
  4 12  1  0
  5 13  1  0
  6 14  1  0
  6 15  1  0
  7 16  1  0
  8 17  1  0
  8 18  1  0
M  END
