
     RDKit          3D

 19 19  0  0  0  0  0  0  0  0999 V2000
   -2.7035   -0.5493    0.1355 C   0  0  0  0  0  0  0  0  0  0  0  0
   -1.7989    0.5643   -0.2523 C   0  0  0  0  0  0  0  0  0  0  0  0
   -2.2988    1.6594   -0.6325 O   0  0  0  0  0  0  0  0  0  0  0  0
   -0.3673    0.3557   -0.1810 C   0  0  0  0  0  0  0  0  0  0  0  0
    0.0900   -0.8079    0.2230 C   0  0  0  0  0  0  0  0  0  0  0  0
    1.5501   -1.0942    0.3213 C   0  0  0  0  0  0  0  0  0  0  0  0
    2.3549    0.1747    0.1407 C   0  0  0  0  0  0  0  0  0  0  0  0
    1.7946    0.8961   -0.9121 O   0  0  0  0  0  0  0  0  0  0  0  0
    0.5516    1.4499   -0.5622 C   0  0  0  0  0  0  0  0  0  0  0  0
   -3.7668   -0.2975    0.0013 H   0  0  0  0  0  0  0  0  0  0  0  0
   -2.5276   -1.4574   -0.5080 H   0  0  0  0  0  0  0  0  0  0  0  0
   -2.4479   -0.8341    1.1705 H   0  0  0  0  0  0  0  0  0  0  0  0
   -0.5690   -1.6322    0.5101 H   0  0  0  0  0  0  0  0  0  0  0  0
    1.7545   -1.5543    1.3061 H   0  0  0  0  0  0  0  0  0  0  0  0
    1.8366   -1.7966   -0.4678 H   0  0  0  0  0  0  0  0  0  0  0  0
    3.4020   -0.0382   -0.1328 H   0  0  0  0  0  0  0  0  0  0  0  0
    2.2714    0.7446    1.0888 H   0  0  0  0  0  0  0  0  0  0  0  0
    0.6637    2.2210    0.2305 H   0  0  0  0  0  0  0  0  0  0  0  0
    0.2104    1.9961   -1.4794 H   0  0  0  0  0  0  0  0  0  0  0  0
  1  2  1  0
  2  3  2  0
  2  4  1  0
  4  5  2  0
  5  6  1  0
  6  7  1  0
  7  8  1  0
  8  9  1  0
  9  4  1  0
  1 10  1  0
  1 11  1  0
  1 12  1  0
  5 13  1  0
  6 14  1  0
  6 15  1  0
  7 16  1  0
  7 17  1  0
  9 18  1  0
  9 19  1  0
M  END
