
     RDKit          3D

 18 17  0  0  0  0  0  0  0  0999 V2000
    2.9092   -0.2299   -0.0593 C   0  0  0  0  0  0  0  0  0  0  0  0
    1.4562   -0.0157   -0.2610 C   0  0  0  0  0  0  0  0  0  0  0  0
    0.9649   -0.2646   -1.3403 O   0  0  0  0  0  0  0  0  0  0  0  0
    0.6152    0.4939    0.8357 C   0  0  0  0  0  0  0  0  0  0  0  0
   -0.8250    0.6491    0.4921 C   0  0  0  0  0  0  0  0  0  0  0  0
   -1.5233   -0.6087    0.0795 C   0  0  0  0  0  0  0  0  0  0  0  0
   -2.9523   -0.2368   -0.2198 C   0  0  0  0  0  0  0  0  0  0  0  0
   -3.7561   -1.0768   -0.5823 O   0  0  0  0  0  0  0  0  0  0  0  0
    3.0606   -0.8190    0.8748 H   0  0  0  0  0  0  0  0  0  0  0  0
    3.3665   -0.7383   -0.9310 H   0  0  0  0  0  0  0  0  0  0  0  0
    3.4441    0.7470    0.0561 H   0  0  0  0  0  0  0  0  0  0  0  0
    0.9791    1.4980    1.1755 H   0  0  0  0  0  0  0  0  0  0  0  0
    0.6766   -0.2209    1.6963 H   0  0  0  0  0  0  0  0  0  0  0  0
   -1.3722    1.0404    1.3852 H   0  0  0  0  0  0  0  0  0  0  0  0
   -1.0088    1.4019   -0.3068 H   0  0  0  0  0  0  0  0  0  0  0  0
   -1.1410   -1.0983   -0.8168 H   0  0  0  0  0  0  0  0  0  0  0  0
   -1.5680   -1.2984    0.9564 H   0  0  0  0  0  0  0  0  0  0  0  0
   -3.3258    0.7770   -0.1284 H   0  0  0  0  0  0  0  0  0  0  0  0
  1  2  1  0
  2  3  2  0
  2  4  1  0
  4  5  1  0
  5  6  1  0
  6  7  1  0
  7  8  2  0
  1  9  1  0
  1 10  1  0
  1 11  1  0
  4 12  1  0
  4 13  1  0
  5 14  1  0
  5 15  1  0
  6 16  1  0
  6 17  1  0
  7 18  1  0
M  END
