
     RDKit          3D

 19 20  0  0  0  0  0  0  0  0999 V2000
    2.7272    1.0447   -0.0814 C   0  0  0  0  0  0  0  0  0  0  0  0
    1.8368   -0.1211   -0.4467 C   0  0  0  0  0  0  0  0  0  0  0  0
    2.4544   -1.1081   -0.8513 O   0  0  0  0  0  0  0  0  0  0  0  0
    0.4836   -0.0966   -0.3438 C   0  0  0  0  0  0  0  0  0  0  0  0
   -0.3720   -1.0218    0.4769 C   0  0  0  0  0  0  0  0  0  0  0  0
   -1.2713   -0.0377   -0.2060 C   0  0  0  0  0  0  0  0  0  0  0  0
   -2.6381    0.0782   -0.0736 C   0  0  0  0  0  0  0  0  0  0  0  0
   -0.5012   -0.3066   -1.4644 C   0  0  0  0  0  0  0  0  0  0  0  0
   -0.3122    0.9251    0.0861 O   0  0  0  0  0  0  0  0  0  0  0  0
    2.2061    1.6094    0.7461 H   0  0  0  0  0  0  0  0  0  0  0  0
    3.7194    0.7019    0.2587 H   0  0  0  0  0  0  0  0  0  0  0  0
    2.7637    1.6789   -0.9890 H   0  0  0  0  0  0  0  0  0  0  0  0
   -0.4666   -2.0163    0.0247 H   0  0  0  0  0  0  0  0  0  0  0  0
   -0.2753   -0.9545    1.5592 H   0  0  0  0  0  0  0  0  0  0  0  0
   -3.0633   -0.3216    0.8689 H   0  0  0  0  0  0  0  0  0  0  0  0
   -3.2190   -0.4359   -0.8904 H   0  0  0  0  0  0  0  0  0  0  0  0
   -3.0077    1.1445   -0.1214 H   0  0  0  0  0  0  0  0  0  0  0  0
   -0.5612   -1.3096   -1.8854 H   0  0  0  0  0  0  0  0  0  0  0  0
   -0.5032    0.5473   -2.1692 H   0  0  0  0  0  0  0  0  0  0  0  0
  1  2  1  0
  2  3  2  0
  2  4  1  0
  4  5  1  0
  5  6  1  0
  6  7  1  0
  6  8  1  0
  6  9  1  0
  8  4  1  0
  9  4  1  0
  1 10  1  0
  1 11  1  0
  1 12  1  0
  5 13  1  0
  5 14  1  0
  7 15  1  0
  7 16  1  0
  7 17  1  0
  8 18  1  0
  8 19  1  0
M  END
