
     RDKit          3D

 15 16  0  0  0  0  0  0  0  0999 V2000
    2.1018    0.2166    0.0279 C   0  0  0  0  0  0  0  0  0  0  0  0
    0.8972   -0.0423   -0.7928 C   0  0  0  0  0  0  0  0  0  0  0  0
    0.8598    0.4688   -1.8961 O   0  0  0  0  0  0  0  0  0  0  0  0
   -0.2659   -0.8768   -0.3719 C   0  0  0  0  0  0  0  0  0  0  0  0
   -0.0657   -1.3830    0.8495 O   0  0  0  0  0  0  0  0  0  0  0  0
   -0.9950   -0.4413    0.9399 C   0  0  0  0  0  0  0  0  0  0  0  0
   -1.3072    0.7127    0.0167 C   0  0  0  0  0  0  0  0  0  0  0  0
   -1.5202   -0.4007   -0.9520 C   0  0  0  0  0  0  0  0  0  0  0  0
   -2.3073   -0.7410   -1.7816 O   0  0  0  0  0  0  0  0  0  0  0  0
    2.0907    1.2170    0.5035 H   0  0  0  0  0  0  0  0  0  0  0  0
    3.0440    0.1231   -0.5151 H   0  0  0  0  0  0  0  0  0  0  0  0
    2.0921   -0.5506    0.8503 H   0  0  0  0  0  0  0  0  0  0  0  0
   -1.9865   -0.9685    1.1385 H   0  0  0  0  0  0  0  0  0  0  0  0
   -0.4641    1.3866   -0.2067 H   0  0  0  0  0  0  0  0  0  0  0  0
   -2.1737    1.2794    0.3276 H   0  0  0  0  0  0  0  0  0  0  0  0
  1  2  1  0
  2  3  2  0
  2  4  1  0
  4  5  1  0
  5  6  1  0
  6  7  1  0
  7  8  1  0
  8  9  2  0
  6  4  1  0
  8  4  1  0
  1 10  1  0
  1 11  1  0
  1 12  1  0
  6 13  1  0
  7 14  1  0
  7 15  1  0
M  END
