
     RDKit          3D

 21 22  0  0  0  0  0  0  0  0999 V2000
    2.8036    0.2938    0.4522 C   0  0  0  0  0  0  0  0  0  0  0  0
    1.3524    0.1712    0.7855 C   0  0  0  0  0  0  0  0  0  0  0  0
    0.9950    0.6533    1.8423 O   0  0  0  0  0  0  0  0  0  0  0  0
    0.3951   -0.5020   -0.1220 C   0  0  0  0  0  0  0  0  0  0  0  0
    0.3870    0.2294   -1.4677 C   0  0  0  0  0  0  0  0  0  0  0  0
   -1.1262    0.4068   -1.3622 C   0  0  0  0  0  0  0  0  0  0  0  0
   -1.0301   -0.1758    0.0172 C   0  0  0  0  0  0  0  0  0  0  0  0
   -2.0526   -1.0507    0.5817 C   0  0  0  0  0  0  0  0  0  0  0  0
   -1.7121    0.3302    1.1764 C   0  0  0  0  0  0  0  0  0  0  0  0
    3.4401   -0.3610    1.0534 H   0  0  0  0  0  0  0  0  0  0  0  0
    2.9900    0.0372   -0.6133 H   0  0  0  0  0  0  0  0  0  0  0  0
    3.0665    1.3643    0.6264 H   0  0  0  0  0  0  0  0  0  0  0  0
    0.5868   -1.5790   -0.1841 H   0  0  0  0  0  0  0  0  0  0  0  0
    0.9068    1.2020   -1.4614 H   0  0  0  0  0  0  0  0  0  0  0  0
    0.7052   -0.4743   -2.2527 H   0  0  0  0  0  0  0  0  0  0  0  0
   -1.4869    1.4308   -1.4425 H   0  0  0  0  0  0  0  0  0  0  0  0
   -1.6535   -0.3212   -2.0331 H   0  0  0  0  0  0  0  0  0  0  0  0
   -1.7182   -1.9390    1.1280 H   0  0  0  0  0  0  0  0  0  0  0  0
   -3.0063   -1.1450    0.0281 H   0  0  0  0  0  0  0  0  0  0  0  0
   -2.5466    1.0821    1.0568 H   0  0  0  0  0  0  0  0  0  0  0  0
   -1.2958    0.3471    2.1910 H   0  0  0  0  0  0  0  0  0  0  0  0
  1  2  1  0
  2  3  2  0
  2  4  1  0
  4  5  1  0
  5  6  1  0
  6  7  1  0
  7  8  1  0
  8  9  1  0
  7  4  1  0
  9  7  1  0
  1 10  1  0
  1 11  1  0
  1 12  1  0
  4 13  1  0
  5 14  1  0
  5 15  1  0
  6 16  1  0
  6 17  1  0
  8 18  1  0
  8 19  1  0
  9 20  1  0
  9 21  1  0
M  END
