
     RDKit          3D

 21 22  0  0  0  0  0  0  0  0999 V2000
    2.7678   -0.2331    0.2381 C   0  0  0  0  0  0  0  0  0  0  0  0
    1.5924   -0.6794   -0.5857 C   0  0  0  0  0  0  0  0  0  0  0  0
    1.7484   -1.6976   -1.2335 O   0  0  0  0  0  0  0  0  0  0  0  0
    0.3869    0.1380   -0.5347 C   0  0  0  0  0  0  0  0  0  0  0  0
   -0.2454    0.2903    0.8529 C   0  0  0  0  0  0  0  0  0  0  0  0
   -1.3752    1.2332    0.5497 C   0  0  0  0  0  0  0  0  0  0  0  0
   -1.8854    0.5875   -0.7566 C   0  0  0  0  0  0  0  0  0  0  0  0
   -0.9214   -0.5667   -0.8422 C   0  0  0  0  0  0  0  0  0  0  0  0
   -0.8945   -1.0472    0.5913 C   0  0  0  0  0  0  0  0  0  0  0  0
    2.3474   -0.0401    1.2586 H   0  0  0  0  0  0  0  0  0  0  0  0
    3.5513   -0.9846    0.3028 H   0  0  0  0  0  0  0  0  0  0  0  0
    3.0891    0.7397   -0.1811 H   0  0  0  0  0  0  0  0  0  0  0  0
    0.4872    1.1000   -1.0419 H   0  0  0  0  0  0  0  0  0  0  0  0
    0.3825    0.4308    1.6826 H   0  0  0  0  0  0  0  0  0  0  0  0
   -2.1590    1.1197    1.3106 H   0  0  0  0  0  0  0  0  0  0  0  0
   -1.0624    2.2669    0.3927 H   0  0  0  0  0  0  0  0  0  0  0  0
   -1.6970    1.3292   -1.5572 H   0  0  0  0  0  0  0  0  0  0  0  0
   -2.9324    0.2844   -0.6652 H   0  0  0  0  0  0  0  0  0  0  0  0
   -0.9709   -1.2581   -1.6343 H   0  0  0  0  0  0  0  0  0  0  0  0
   -0.3108   -1.9335    0.8048 H   0  0  0  0  0  0  0  0  0  0  0  0
   -1.8984   -1.0794    1.0480 H   0  0  0  0  0  0  0  0  0  0  0  0
  1  2  1  0
  2  3  2  0
  2  4  1  0
  4  5  1  0
  5  6  1  0
  6  7  1  0
  7  8  1  0
  8  9  1  0
  8  4  1  0
  9  5  1  0
  1 10  1  0
  1 11  1  0
  1 12  1  0
  4 13  1  0
  5 14  1  0
  6 15  1  0
  6 16  1  0
  7 17  1  0
  7 18  1  0
  8 19  1  0
  9 20  1  0
  9 21  1  0
M  END
