
     RDKit          3D

 17 17  0  0  0  0  0  0  0  0999 V2000
    2.5507    0.4791    0.5904 C   0  0  0  0  0  0  0  0  0  0  0  0
    1.6671   -0.4468   -0.1620 C   0  0  0  0  0  0  0  0  0  0  0  0
    2.1828   -1.4385   -0.7331 O   0  0  0  0  0  0  0  0  0  0  0  0
    0.2263   -0.1895   -0.2239 C   0  0  0  0  0  0  0  0  0  0  0  0
   -0.4146    0.8169    0.3367 C   0  0  0  0  0  0  0  0  0  0  0  0
   -1.8513    0.7142    0.0372 C   0  0  0  0  0  0  0  0  0  0  0  0
   -2.0281   -0.7627   -0.2156 C   0  0  0  0  0  0  0  0  0  0  0  0
   -0.7350   -1.0500   -0.9392 C   0  0  0  0  0  0  0  0  0  0  0  0
   -0.5476   -1.8159   -1.8891 O   0  0  0  0  0  0  0  0  0  0  0  0
    2.4389    1.5068    0.1613 H   0  0  0  0  0  0  0  0  0  0  0  0
    2.1791    0.4802    1.6528 H   0  0  0  0  0  0  0  0  0  0  0  0
    3.5847    0.1397    0.6057 H   0  0  0  0  0  0  0  0  0  0  0  0
    0.1203    1.5767    0.9242 H   0  0  0  0  0  0  0  0  0  0  0  0
   -2.4987    1.0918    0.8483 H   0  0  0  0  0  0  0  0  0  0  0  0
   -2.0250    1.2393   -0.9272 H   0  0  0  0  0  0  0  0  0  0  0  0
   -1.9486   -1.3232    0.7416 H   0  0  0  0  0  0  0  0  0  0  0  0
   -2.9011   -1.0182   -0.8079 H   0  0  0  0  0  0  0  0  0  0  0  0
  1  2  1  0
  2  3  2  0
  2  4  1  0
  4  5  2  0
  5  6  1  0
  6  7  1  0
  7  8  1  0
  8  9  2  0
  8  4  1  0
  1 10  1  0
  1 11  1  0
  1 12  1  0
  5 13  1  0
  6 14  1  0
  6 15  1  0
  7 16  1  0
  7 17  1  0
M  END
