
     RDKit          3D

 21 21  0  0  0  0  0  0  0  0999 V2000
    2.2572    0.9242    0.4955 C   0  0  0  0  0  0  0  0  0  0  0  0
    1.2803    0.9114   -0.6415 C   0  0  0  0  0  0  0  0  0  0  0  0
    1.3790    1.7173   -1.5499 O   0  0  0  0  0  0  0  0  0  0  0  0
    0.1707   -0.0706   -0.7024 C   0  0  0  0  0  0  0  0  0  0  0  0
    0.6648   -1.4941   -0.7255 C   0  0  0  0  0  0  0  0  0  0  0  0
   -0.7097    0.1000    0.5089 C   0  0  0  0  0  0  0  0  0  0  0  0
   -1.8577   -0.9000    0.4672 C   0  0  0  0  0  0  0  0  0  0  0  0
   -2.6404    0.0936    1.0945 O   0  0  0  0  0  0  0  0  0  0  0  0
   -1.8754    1.0257    0.3538 C   0  0  0  0  0  0  0  0  0  0  0  0
    3.0891    0.2206    0.3272 H   0  0  0  0  0  0  0  0  0  0  0  0
    1.7361    0.7685    1.4536 H   0  0  0  0  0  0  0  0  0  0  0  0
    2.7003    1.9449    0.5233 H   0  0  0  0  0  0  0  0  0  0  0  0
   -0.4289    0.0841   -1.6166 H   0  0  0  0  0  0  0  0  0  0  0  0
   -0.0405   -2.1484   -1.2879 H   0  0  0  0  0  0  0  0  0  0  0  0
    0.7510   -1.8263    0.3241 H   0  0  0  0  0  0  0  0  0  0  0  0
    1.6492   -1.5887   -1.2238 H   0  0  0  0  0  0  0  0  0  0  0  0
   -0.2174    0.0877    1.4765 H   0  0  0  0  0  0  0  0  0  0  0  0
   -2.2141   -1.1032   -0.5419 H   0  0  0  0  0  0  0  0  0  0  0  0
   -1.6207   -1.7612    1.0853 H   0  0  0  0  0  0  0  0  0  0  0  0
   -1.8171    1.9854    0.8660 H   0  0  0  0  0  0  0  0  0  0  0  0
   -2.2558    1.0291   -0.6864 H   0  0  0  0  0  0  0  0  0  0  0  0
  1  2  1  0
  2  3  2  0
  2  4  1  0
  4  5  1  0
  4  6  1  0
  6  7  1  0
  7  8  1  0
  8  9  1  0
  9  6  1  0
  1 10  1  0
  1 11  1  0
  1 12  1  0
  4 13  1  0
  5 14  1  0
  5 15  1  0
  5 16  1  0
  6 17  1  0
  7 18  1  0
  7 19  1  0
  9 20  1  0
  9 21  1  0
M  END
