
     RDKit          3D

 19 18  0  0  0  0  0  0  0  0999 V2000
   -1.6777    1.5033   -0.3096 C   0  0  0  0  0  0  0  0  0  0  0  0
   -1.6385    0.0758   -0.7015 C   0  0  0  0  0  0  0  0  0  0  0  0
   -2.6319   -0.4296   -1.1648 O   0  0  0  0  0  0  0  0  0  0  0  0
   -0.4225   -0.7673   -0.5487 C   0  0  0  0  0  0  0  0  0  0  0  0
   -0.7799   -1.8223    0.5068 C   0  0  0  0  0  0  0  0  0  0  0  0
    0.5688    0.0084   -0.0095 O   0  0  0  0  0  0  0  0  0  0  0  0
    1.7320    0.0899   -0.7058 C   0  0  0  0  0  0  0  0  0  0  0  0
    2.6675    0.9668    0.0351 C   0  0  0  0  0  0  0  0  0  0  0  0
    3.7684    1.1684   -0.4240 O   0  0  0  0  0  0  0  0  0  0  0  0
   -1.6409    1.5409    0.8182 H   0  0  0  0  0  0  0  0  0  0  0  0
   -2.5643    1.9942   -0.6994 H   0  0  0  0  0  0  0  0  0  0  0  0
   -0.7925    2.0554   -0.7230 H   0  0  0  0  0  0  0  0  0  0  0  0
   -0.1757   -1.2526   -1.5024 H   0  0  0  0  0  0  0  0  0  0  0  0
   -0.0263   -2.6272    0.5424 H   0  0  0  0  0  0  0  0  0  0  0  0
   -0.8568   -1.2671    1.4587 H   0  0  0  0  0  0  0  0  0  0  0  0
   -1.7944   -2.2085    0.2357 H   0  0  0  0  0  0  0  0  0  0  0  0
    2.2591   -0.9025   -0.8102 H   0  0  0  0  0  0  0  0  0  0  0  0
    1.6016    0.4430   -1.7541 H   0  0  0  0  0  0  0  0  0  0  0  0
    2.4041    1.4308    0.9662 H   0  0  0  0  0  0  0  0  0  0  0  0
  1  2  1  0
  2  3  2  0
  2  4  1  0
  4  5  1  0
  4  6  1  0
  6  7  1  0
  7  8  1  0
  8  9  2  0
  1 10  1  0
  1 11  1  0
  1 12  1  0
  4 13  1  0
  5 14  1  0
  5 15  1  0
  5 16  1  0
  7 17  1  0
  7 18  1  0
  8 19  1  0
M  END
