
     RDKit          3D

 19 20  0  0  0  0  0  0  0  0999 V2000
   -3.4481    0.2767   -0.2416 C   0  0  0  0  0  0  0  0  0  0  0  0
   -2.0826   -0.3005   -0.3847 C   0  0  0  0  0  0  0  0  0  0  0  0
   -2.0177   -1.4197   -0.9882 O   0  0  0  0  0  0  0  0  0  0  0  0
   -0.9419    0.3100    0.0931 O   0  0  0  0  0  0  0  0  0  0  0  0
    0.2900   -0.3098   -0.0901 C   0  0  0  0  0  0  0  0  0  0  0  0
    1.0511   -0.3656    1.2311 C   0  0  0  0  0  0  0  0  0  0  0  0
    2.1611    0.4387    0.6271 C   0  0  0  0  0  0  0  0  0  0  0  0
    2.7390   -0.0395   -0.6807 C   0  0  0  0  0  0  0  0  0  0  0  0
    1.3968    0.5699   -0.6165 C   0  0  0  0  0  0  0  0  0  0  0  0
   -3.4156    1.3375    0.0341 H   0  0  0  0  0  0  0  0  0  0  0  0
   -3.9967   -0.2910    0.5610 H   0  0  0  0  0  0  0  0  0  0  0  0
   -4.0413    0.0967   -1.1785 H   0  0  0  0  0  0  0  0  0  0  0  0
    0.2250   -1.2557   -0.6152 H   0  0  0  0  0  0  0  0  0  0  0  0
    1.2910   -1.4111    1.4681 H   0  0  0  0  0  0  0  0  0  0  0  0
    0.5727    0.1828    2.0480 H   0  0  0  0  0  0  0  0  0  0  0  0
    2.6220    1.2691    1.1654 H   0  0  0  0  0  0  0  0  0  0  0  0
    3.6087    0.5516   -1.0289 H   0  0  0  0  0  0  0  0  0  0  0  0
    2.8264   -1.1645   -0.7197 H   0  0  0  0  0  0  0  0  0  0  0  0
    1.1601    1.5242   -1.1038 H   0  0  0  0  0  0  0  0  0  0  0  0
  1  2  1  0
  2  3  2  0
  2  4  1  0
  4  5  1  0
  5  6  1  0
  6  7  1  0
  7  8  1  0
  8  9  1  0
  9  5  1  0
  9  7  1  0
  1 10  1  0
  1 11  1  0
  1 12  1  0
  5 13  1  0
  6 14  1  0
  6 15  1  0
  7 16  1  0
  8 17  1  0
  8 18  1  0
  9 19  1  0
M  END
