
     RDKit          3D

 17 18  0  0  0  0  0  0  0  0999 V2000
    2.3362   -0.5158   -0.0398 C   0  0  0  0  0  0  0  0  0  0  0  0
    1.0115   -0.9583   -0.5424 C   0  0  0  0  0  0  0  0  0  0  0  0
    0.7026   -2.1366   -0.5251 O   0  0  0  0  0  0  0  0  0  0  0  0
    0.0031   -0.0165   -1.0849 C   0  0  0  0  0  0  0  0  0  0  0  0
    0.3593    1.3133   -1.1012 O   0  0  0  0  0  0  0  0  0  0  0  0
   -0.8895    1.6548   -0.5763 C   0  0  0  0  0  0  0  0  0  0  0  0
   -1.0075    0.3145   -0.0298 C   0  0  0  0  0  0  0  0  0  0  0  0
   -1.9561   -0.5128    0.4331 C   0  0  0  0  0  0  0  0  0  0  0  0
   -0.8202   -0.0366    1.2742 O   0  0  0  0  0  0  0  0  0  0  0  0
    2.7765   -1.3301    0.5616 H   0  0  0  0  0  0  0  0  0  0  0  0
    2.2700    0.4011    0.5789 H   0  0  0  0  0  0  0  0  0  0  0  0
    3.0097   -0.3270   -0.9178 H   0  0  0  0  0  0  0  0  0  0  0  0
   -0.5088   -0.3962   -1.9937 H   0  0  0  0  0  0  0  0  0  0  0  0
   -0.8745    2.5262    0.1053 H   0  0  0  0  0  0  0  0  0  0  0  0
   -1.5952    1.8456   -1.4297 H   0  0  0  0  0  0  0  0  0  0  0  0
   -2.8857   -0.1988    0.9836 H   0  0  0  0  0  0  0  0  0  0  0  0
   -1.9314   -1.6268    0.3140 H   0  0  0  0  0  0  0  0  0  0  0  0
  1  2  1  0
  2  3  2  0
  2  4  1  0
  4  5  1  0
  5  6  1  0
  6  7  1  0
  7  8  1  0
  8  9  1  0
  7  4  1  0
  9  7  1  0
  1 10  1  0
  1 11  1  0
  1 12  1  0
  4 13  1  0
  6 14  1  0
  6 15  1  0
  8 16  1  0
  8 17  1  0
M  END
