
     RDKit          3D

 23 22  0  0  0  0  0  0  0  0999 V2000
    3.0452   -0.5421    0.1274 C   0  0  0  0  0  0  0  0  0  0  0  0
    1.6933   -0.0895   -0.2774 C   0  0  0  0  0  0  0  0  0  0  0  0
    1.4517    0.0307   -1.4549 O   0  0  0  0  0  0  0  0  0  0  0  0
    0.7146    0.1908    0.7600 C   0  0  0  0  0  0  0  0  0  0  0  0
   -0.6238    0.6418    0.2763 C   0  0  0  0  0  0  0  0  0  0  0  0
   -0.5804    1.9070   -0.5282 C   0  0  0  0  0  0  0  0  0  0  0  0
   -1.3889   -0.4006   -0.4801 C   0  0  0  0  0  0  0  0  0  0  0  0
   -1.5940   -1.5819    0.4615 C   0  0  0  0  0  0  0  0  0  0  0  0
   -2.6771    0.1296   -0.7060 O   0  0  0  0  0  0  0  0  0  0  0  0
    2.9951   -1.5361    0.5842 H   0  0  0  0  0  0  0  0  0  0  0  0
    3.4410    0.1506    0.9263 H   0  0  0  0  0  0  0  0  0  0  0  0
    3.7782   -0.5199   -0.7002 H   0  0  0  0  0  0  0  0  0  0  0  0
    0.5668   -0.7188    1.3735 H   0  0  0  0  0  0  0  0  0  0  0  0
    1.0793    0.9748    1.4777 H   0  0  0  0  0  0  0  0  0  0  0  0
   -1.2331    0.8756    1.1988 H   0  0  0  0  0  0  0  0  0  0  0  0
   -0.1598    2.7429    0.0942 H   0  0  0  0  0  0  0  0  0  0  0  0
   -1.6448    2.2053   -0.7236 H   0  0  0  0  0  0  0  0  0  0  0  0
   -0.0669    1.8075   -1.4873 H   0  0  0  0  0  0  0  0  0  0  0  0
   -0.9094   -0.6961   -1.4250 H   0  0  0  0  0  0  0  0  0  0  0  0
   -1.7338   -1.1577    1.4853 H   0  0  0  0  0  0  0  0  0  0  0  0
   -2.4929   -2.1701    0.2019 H   0  0  0  0  0  0  0  0  0  0  0  0
   -0.6579   -2.1864    0.4282 H   0  0  0  0  0  0  0  0  0  0  0  0
   -3.0024   -0.0571   -1.6126 H   0  0  0  0  0  0  0  0  0  0  0  0
  1  2  1  0
  2  3  2  0
  2  4  1  0
  4  5  1  0
  5  6  1  0
  5  7  1  0
  7  8  1  0
  7  9  1  0
  1 10  1  0
  1 11  1  0
  1 12  1  0
  4 13  1  0
  4 14  1  0
  5 15  1  0
  6 16  1  0
  6 17  1  0
  6 18  1  0
  7 19  1  0
  8 20  1  0
  8 21  1  0
  8 22  1  0
  9 23  1  0
M  END
