
     RDKit          3D

 23 22  0  0  0  0  0  0  0  0999 V2000
    3.3878   -0.3622    0.0933 C   0  0  0  0  0  0  0  0  0  0  0  0
    1.9563   -0.5819   -0.2859 C   0  0  0  0  0  0  0  0  0  0  0  0
    1.5290   -1.6846   -0.2609 O   0  0  0  0  0  0  0  0  0  0  0  0
    1.1639    0.5863   -0.6675 C   0  0  0  0  0  0  0  0  0  0  0  0
   -0.1264    0.4697   -0.9347 O   0  0  0  0  0  0  0  0  0  0  0  0
   -1.1018    0.1211   -0.1193 C   0  0  0  0  0  0  0  0  0  0  0  0
   -1.2672    0.9828    1.1270 C   0  0  0  0  0  0  0  0  0  0  0  0
   -2.4243    0.4326   -0.9068 C   0  0  0  0  0  0  0  0  0  0  0  0
   -1.2597   -1.3227    0.2477 C   0  0  0  0  0  0  0  0  0  0  0  0
    3.8451    0.3790   -0.6212 H   0  0  0  0  0  0  0  0  0  0  0  0
    3.9858   -1.2819    0.0090 H   0  0  0  0  0  0  0  0  0  0  0  0
    3.4867    0.0955    1.0939 H   0  0  0  0  0  0  0  0  0  0  0  0
    1.6711    0.9821   -1.6225 H   0  0  0  0  0  0  0  0  0  0  0  0
    1.4260    1.4022    0.0700 H   0  0  0  0  0  0  0  0  0  0  0  0
   -0.5795    0.6670    1.9206 H   0  0  0  0  0  0  0  0  0  0  0  0
   -2.3004    0.7895    1.4853 H   0  0  0  0  0  0  0  0  0  0  0  0
   -1.2086    2.0403    0.8581 H   0  0  0  0  0  0  0  0  0  0  0  0
   -2.3353    1.4528   -1.2808 H   0  0  0  0  0  0  0  0  0  0  0  0
   -3.2258    0.2628   -0.1774 H   0  0  0  0  0  0  0  0  0  0  0  0
   -2.4480   -0.3503   -1.6843 H   0  0  0  0  0  0  0  0  0  0  0  0
   -1.1059   -1.9811   -0.6285 H   0  0  0  0  0  0  0  0  0  0  0  0
   -2.3675   -1.4688    0.4725 H   0  0  0  0  0  0  0  0  0  0  0  0
   -0.7014   -1.6302    1.1602 H   0  0  0  0  0  0  0  0  0  0  0  0
  1  2  1  0
  2  3  2  0
  2  4  1  0
  4  5  1  0
  5  6  1  0
  6  7  1  0
  6  8  1  0
  6  9  1  0
  1 10  1  0
  1 11  1  0
  1 12  1  0
  4 13  1  0
  4 14  1  0
  7 15  1  0
  7 16  1  0
  7 17  1  0
  8 18  1  0
  8 19  1  0
  8 20  1  0
  9 21  1  0
  9 22  1  0
  9 23  1  0
M  END
