
     RDKit          3D

 21 21  0  0  0  0  0  0  0  0999 V2000
    2.8564    0.6238    0.1477 C   0  0  0  0  0  0  0  0  0  0  0  0
    2.1265   -0.6665   -0.0462 C   0  0  0  0  0  0  0  0  0  0  0  0
    2.6598   -1.5858   -0.6865 O   0  0  0  0  0  0  0  0  0  0  0  0
    0.7611   -0.8638    0.5198 C   0  0  0  0  0  0  0  0  0  0  0  0
   -0.1785   -0.2544   -0.4978 C   0  0  0  0  0  0  0  0  0  0  0  0
    0.0497   -0.9801   -1.6897 O   0  0  0  0  0  0  0  0  0  0  0  0
   -1.6053   -0.2890   -0.1191 C   0  0  0  0  0  0  0  0  0  0  0  0
   -2.2185    0.3157    1.0512 C   0  0  0  0  0  0  0  0  0  0  0  0
   -2.3245    1.0948   -0.2236 C   0  0  0  0  0  0  0  0  0  0  0  0
    3.9267    0.4880   -0.1210 H   0  0  0  0  0  0  0  0  0  0  0  0
    2.7054    1.0106    1.1558 H   0  0  0  0  0  0  0  0  0  0  0  0
    2.4741    1.3783   -0.5881 H   0  0  0  0  0  0  0  0  0  0  0  0
    0.6252   -1.9603    0.6427 H   0  0  0  0  0  0  0  0  0  0  0  0
    0.7241   -0.3175    1.5037 H   0  0  0  0  0  0  0  0  0  0  0  0
    0.1560    0.7847   -0.6522 H   0  0  0  0  0  0  0  0  0  0  0  0
   -0.8017   -1.3891   -1.9555 H   0  0  0  0  0  0  0  0  0  0  0  0
   -2.1806   -1.1194   -0.6299 H   0  0  0  0  0  0  0  0  0  0  0  0
   -3.2102   -0.1069    1.3846 H   0  0  0  0  0  0  0  0  0  0  0  0
   -1.6455    0.7315    1.9087 H   0  0  0  0  0  0  0  0  0  0  0  0
   -3.2315    1.1179   -0.8337 H   0  0  0  0  0  0  0  0  0  0  0  0
   -1.6687    1.9876   -0.2708 H   0  0  0  0  0  0  0  0  0  0  0  0
  1  2  1  0
  2  3  2  0
  2  4  1  0
  4  5  1  0
  5  6  1  0
  5  7  1  0
  7  8  1  0
  8  9  1  0
  9  7  1  0
  1 10  1  0
  1 11  1  0
  1 12  1  0
  4 13  1  0
  4 14  1  0
  5 15  1  0
  6 16  1  0
  7 17  1  0
  8 18  1  0
  8 19  1  0
  9 20  1  0
  9 21  1  0
M  END
