
     RDKit          3D

 15 14  0  0  0  0  0  0  0  0999 V2000
    1.6712   -0.2898    0.5702 C   0  0  0  0  0  0  0  0  0  0  0  0
    0.9997    0.7649   -0.2008 C   0  0  0  0  0  0  0  0  0  0  0  0
    1.6848    1.7736   -0.4355 O   0  0  0  0  0  0  0  0  0  0  0  0
   -0.3588    0.7720   -0.7190 C   0  0  0  0  0  0  0  0  0  0  0  0
   -1.1847   -0.4207   -0.4092 C   0  0  0  0  0  0  0  0  0  0  0  0
   -1.3743   -0.6502    1.0421 C   0  0  0  0  0  0  0  0  0  0  0  0
   -0.8924    0.0944    1.8683 O   0  0  0  0  0  0  0  0  0  0  0  0
    1.1607   -1.2413    0.6292 H   0  0  0  0  0  0  0  0  0  0  0  0
    2.6905   -0.4558    0.1098 H   0  0  0  0  0  0  0  0  0  0  0  0
    1.8401    0.0903    1.5982 H   0  0  0  0  0  0  0  0  0  0  0  0
   -0.3233    0.9589   -1.8113 H   0  0  0  0  0  0  0  0  0  0  0  0
   -0.8819    1.6738   -0.2910 H   0  0  0  0  0  0  0  0  0  0  0  0
   -2.2177   -0.2193   -0.8220 H   0  0  0  0  0  0  0  0  0  0  0  0
   -0.8624   -1.3562   -0.8673 H   0  0  0  0  0  0  0  0  0  0  0  0
   -1.9515   -1.4948    1.3835 H   0  0  0  0  0  0  0  0  0  0  0  0
  1  2  1  0
  2  3  2  0
  2  4  1  0
  4  5  1  0
  5  6  1  0
  6  7  2  0
  1  8  1  0
  1  9  1  0
  1 10  1  0
  4 11  1  0
  4 12  1  0
  5 13  1  0
  5 14  1  0
  6 15  1  0
M  END
