
     RDKit          3D

 17 18  0  0  0  0  0  0  0  0999 V2000
    2.4258   -0.5124   -0.0697 C   0  0  0  0  0  0  0  0  0  0  0  0
    1.2356    0.4052    0.1121 C   0  0  0  0  0  0  0  0  0  0  0  0
    1.5270    1.5816    0.2622 O   0  0  0  0  0  0  0  0  0  0  0  0
   -0.0350   -0.0675    0.1044 C   0  0  0  0  0  0  0  0  0  0  0  0
   -1.0427    0.0110    1.2074 C   0  0  0  0  0  0  0  0  0  0  0  0
   -1.6579   -0.7540    0.0730 C   0  0  0  0  0  0  0  0  0  0  0  0
   -0.4282   -1.3846   -0.0604 O   0  0  0  0  0  0  0  0  0  0  0  0
   -1.1345    0.2990   -0.8463 C   0  0  0  0  0  0  0  0  0  0  0  0
   -1.6696    1.5616   -0.6824 O   0  0  0  0  0  0  0  0  0  0  0  0
    3.2933    0.0213   -0.4729 H   0  0  0  0  0  0  0  0  0  0  0  0
    2.1388   -1.3927   -0.6869 H   0  0  0  0  0  0  0  0  0  0  0  0
    2.7181   -0.9252    0.9271 H   0  0  0  0  0  0  0  0  0  0  0  0
   -1.4672    0.9836    1.4473 H   0  0  0  0  0  0  0  0  0  0  0  0
   -0.8062   -0.6662    2.0482 H   0  0  0  0  0  0  0  0  0  0  0  0
   -2.5666   -1.1914    0.0591 H   0  0  0  0  0  0  0  0  0  0  0  0
   -0.9618   -0.0306   -1.8868 H   0  0  0  0  0  0  0  0  0  0  0  0
   -1.5691    2.0614   -1.5353 H   0  0  0  0  0  0  0  0  0  0  0  0
  1  2  1  0
  2  3  2  0
  2  4  1  0
  4  5  1  0
  5  6  1  0
  6  7  1  0
  6  8  1  0
  8  9  1  0
  7  4  1  0
  8  4  1  0
  1 10  1  0
  1 11  1  0
  1 12  1  0
  5 13  1  0
  5 14  1  0
  6 15  1  0
  8 16  1  0
  9 17  1  0
M  END
