
     RDKit          3D

 19 19  0  0  0  0  0  0  0  0999 V2000
    3.5139   -0.3133    0.4489 C   0  0  0  0  0  0  0  0  0  0  0  0
    2.1874    0.2114    0.0306 C   0  0  0  0  0  0  0  0  0  0  0  0
    2.1171    1.2290   -0.6994 O   0  0  0  0  0  0  0  0  0  0  0  0
    0.9970   -0.3834    0.4173 O   0  0  0  0  0  0  0  0  0  0  0  0
   -0.2073    0.1576   -0.0087 C   0  0  0  0  0  0  0  0  0  0  0  0
   -1.0799   -0.8403   -0.7541 C   0  0  0  0  0  0  0  0  0  0  0  0
   -2.4145   -0.0831   -0.7326 C   0  0  0  0  0  0  0  0  0  0  0  0
   -2.3097    0.6499    0.5762 C   0  0  0  0  0  0  0  0  0  0  0  0
   -1.0376    0.4786    1.0634 O   0  0  0  0  0  0  0  0  0  0  0  0
    4.1372    0.4926    0.8933 H   0  0  0  0  0  0  0  0  0  0  0  0
    4.0187   -0.7946   -0.4145 H   0  0  0  0  0  0  0  0  0  0  0  0
    3.4065   -1.0867    1.2296 H   0  0  0  0  0  0  0  0  0  0  0  0
   -0.1013    1.0597   -0.6504 H   0  0  0  0  0  0  0  0  0  0  0  0
   -1.2186   -1.7566   -0.1723 H   0  0  0  0  0  0  0  0  0  0  0  0
   -0.8051   -0.9678   -1.7962 H   0  0  0  0  0  0  0  0  0  0  0  0
   -2.3493    0.6599   -1.5698 H   0  0  0  0  0  0  0  0  0  0  0  0
   -3.2705   -0.7537   -0.8099 H   0  0  0  0  0  0  0  0  0  0  0  0
   -2.4836    1.7548    0.4663 H   0  0  0  0  0  0  0  0  0  0  0  0
   -3.1002    0.2859    1.2747 H   0  0  0  0  0  0  0  0  0  0  0  0
  1  2  1  0
  2  3  2  0
  2  4  1  0
  4  5  1  0
  5  6  1  0
  6  7  1  0
  7  8  1  0
  8  9  1  0
  9  5  1  0
  1 10  1  0
  1 11  1  0
  1 12  1  0
  5 13  1  0
  6 14  1  0
  6 15  1  0
  7 16  1  0
  7 17  1  0
  8 18  1  0
  8 19  1  0
M  END
