
     RDKit          3D

 23 23  0  0  0  0  0  0  0  0999 V2000
    2.2570   -0.5086    1.2786 C   0  0  0  0  0  0  0  0  0  0  0  0
    1.6788   -0.0594   -0.0331 C   0  0  0  0  0  0  0  0  0  0  0  0
    2.4511   -0.0330   -0.9835 O   0  0  0  0  0  0  0  0  0  0  0  0
    0.2534    0.3276   -0.1588 C   0  0  0  0  0  0  0  0  0  0  0  0
   -0.0953    1.4772    0.7301 C   0  0  0  0  0  0  0  0  0  0  0  0
   -0.0762    0.6523   -1.6009 C   0  0  0  0  0  0  0  0  0  0  0  0
   -1.0865   -0.4598   -1.6430 C   0  0  0  0  0  0  0  0  0  0  0  0
   -0.7157   -0.8043   -0.2284 C   0  0  0  0  0  0  0  0  0  0  0  0
   -1.8990   -0.7618    0.6758 C   0  0  0  0  0  0  0  0  0  0  0  0
    2.4104   -1.6031    1.1770 H   0  0  0  0  0  0  0  0  0  0  0  0
    1.6077   -0.2614    2.1257 H   0  0  0  0  0  0  0  0  0  0  0  0
    3.2525   -0.0452    1.4629 H   0  0  0  0  0  0  0  0  0  0  0  0
    0.4539    2.3913    0.3552 H   0  0  0  0  0  0  0  0  0  0  0  0
    0.2387    1.3547    1.7764 H   0  0  0  0  0  0  0  0  0  0  0  0
   -1.1555    1.7480    0.7042 H   0  0  0  0  0  0  0  0  0  0  0  0
    0.7446    0.4601   -2.3263 H   0  0  0  0  0  0  0  0  0  0  0  0
   -0.4830    1.6570   -1.7749 H   0  0  0  0  0  0  0  0  0  0  0  0
   -0.8232   -1.2871   -2.3485 H   0  0  0  0  0  0  0  0  0  0  0  0
   -2.1195   -0.0846   -1.7896 H   0  0  0  0  0  0  0  0  0  0  0  0
   -0.1765   -1.7753   -0.1066 H   0  0  0  0  0  0  0  0  0  0  0  0
   -2.6134   -1.5569    0.3282 H   0  0  0  0  0  0  0  0  0  0  0  0
   -2.4570    0.1778    0.6554 H   0  0  0  0  0  0  0  0  0  0  0  0
   -1.6472   -1.0055    1.7241 H   0  0  0  0  0  0  0  0  0  0  0  0
  1  2  1  0
  2  3  2  0
  2  4  1  0
  4  5  1  0
  4  6  1  0
  6  7  1  0
  7  8  1  0
  8  9  1  0
  8  4  1  0
  1 10  1  0
  1 11  1  0
  1 12  1  0
  5 13  1  0
  5 14  1  0
  5 15  1  0
  6 16  1  0
  6 17  1  0
  7 18  1  0
  7 19  1  0
  8 20  1  0
  9 21  1  0
  9 22  1  0
  9 23  1  0
M  END
