
     RDKit          3D

 17 17  0  0  0  0  0  0  0  0999 V2000
    2.3588    0.1095    0.8369 C   0  0  0  0  0  0  0  0  0  0  0  0
    1.0790   -0.5356    0.5050 C   0  0  0  0  0  0  0  0  0  0  0  0
    1.0089   -1.7535    0.5566 O   0  0  0  0  0  0  0  0  0  0  0  0
   -0.1529    0.1913    0.1061 C   0  0  0  0  0  0  0  0  0  0  0  0
   -0.0339    1.5658    0.0594 O   0  0  0  0  0  0  0  0  0  0  0  0
   -0.6741   -0.3144   -1.2356 C   0  0  0  0  0  0  0  0  0  0  0  0
   -2.0549   -0.0983   -0.6236 C   0  0  0  0  0  0  0  0  0  0  0  0
   -1.4132   -0.3279    0.7038 C   0  0  0  0  0  0  0  0  0  0  0  0
   -1.8315   -0.7595    1.7587 O   0  0  0  0  0  0  0  0  0  0  0  0
    3.1788   -0.5757    0.5355 H   0  0  0  0  0  0  0  0  0  0  0  0
    2.4931    0.3049    1.9217 H   0  0  0  0  0  0  0  0  0  0  0  0
    2.5339    1.0474    0.2363 H   0  0  0  0  0  0  0  0  0  0  0  0
   -0.3174    2.0142    0.8888 H   0  0  0  0  0  0  0  0  0  0  0  0
   -0.4738    0.3618   -2.0906 H   0  0  0  0  0  0  0  0  0  0  0  0
   -0.4835   -1.3779   -1.4161 H   0  0  0  0  0  0  0  0  0  0  0  0
   -2.8114   -0.8150   -0.9274 H   0  0  0  0  0  0  0  0  0  0  0  0
   -2.4059    0.9627   -0.7081 H   0  0  0  0  0  0  0  0  0  0  0  0
  1  2  1  0
  2  3  2  0
  2  4  1  0
  4  5  1  0
  4  6  1  0
  6  7  1  0
  7  8  1  0
  8  9  2  0
  8  4  1  0
  1 10  1  0
  1 11  1  0
  1 12  1  0
  5 13  1  0
  6 14  1  0
  6 15  1  0
  7 16  1  0
  7 17  1  0
M  END
