
     RDKit          3D

 16 15  0  0  0  0  0  0  0  0999 V2000
   -2.3585   -0.5001   -0.0352 C   0  0  0  0  0  0  0  0  0  0  0  0
   -1.1353    0.0367   -0.6629 C   0  0  0  0  0  0  0  0  0  0  0  0
   -1.1220    0.1758   -1.8730 O   0  0  0  0  0  0  0  0  0  0  0  0
    0.0808    0.4179    0.0899 C   0  0  0  0  0  0  0  0  0  0  0  0
   -0.0268    0.2267    1.4462 O   0  0  0  0  0  0  0  0  0  0  0  0
    1.2893   -0.2707   -0.5049 C   0  0  0  0  0  0  0  0  0  0  0  0
    2.5251    0.1015    0.2416 C   0  0  0  0  0  0  0  0  0  0  0  0
    2.5197    0.8582    1.1926 O   0  0  0  0  0  0  0  0  0  0  0  0
   -2.5675   -0.0650    0.9583 H   0  0  0  0  0  0  0  0  0  0  0  0
   -2.2956   -1.6040    0.1132 H   0  0  0  0  0  0  0  0  0  0  0  0
   -3.2340   -0.3064   -0.6886 H   0  0  0  0  0  0  0  0  0  0  0  0
    0.2369    1.5198   -0.1036 H   0  0  0  0  0  0  0  0  0  0  0  0
   -0.0154    1.0723    1.9633 H   0  0  0  0  0  0  0  0  0  0  0  0
    1.4574    0.0450   -1.5550 H   0  0  0  0  0  0  0  0  0  0  0  0
    1.1885   -1.3752   -0.4875 H   0  0  0  0  0  0  0  0  0  0  0  0
    3.4575   -0.3324   -0.0945 H   0  0  0  0  0  0  0  0  0  0  0  0
  1  2  1  0
  2  3  2  0
  2  4  1  0
  4  5  1  0
  4  6  1  0
  6  7  1  0
  7  8  2  0
  1  9  1  0
  1 10  1  0
  1 11  1  0
  4 12  1  0
  5 13  1  0
  6 14  1  0
  6 15  1  0
  7 16  1  0
M  END
