
     RDKit          3D

 19 21  0  0  0  0  0  0  0  0999 V2000
    2.4763   -0.2538   -0.2701 C   0  0  0  0  0  0  0  0  0  0  0  0
    1.2563    0.2899   -0.9500 C   0  0  0  0  0  0  0  0  0  0  0  0
    1.4633    0.8459   -2.0288 O   0  0  0  0  0  0  0  0  0  0  0  0
   -0.0063    0.1386   -0.3382 C   0  0  0  0  0  0  0  0  0  0  0  0
   -0.2811    0.7238    1.0238 C   0  0  0  0  0  0  0  0  0  0  0  0
   -1.7677    0.5244    0.6714 C   0  0  0  0  0  0  0  0  0  0  0  0
   -1.9332   -0.5422   -0.3446 C   0  0  0  0  0  0  0  0  0  0  0  0
   -0.5922   -1.2724   -0.5416 C   0  0  0  0  0  0  0  0  0  0  0  0
   -1.2628    0.6546   -0.8010 C   0  0  0  0  0  0  0  0  0  0  0  0
    2.2238   -0.7733    0.6771 H   0  0  0  0  0  0  0  0  0  0  0  0
    2.8836   -1.0286   -0.9478 H   0  0  0  0  0  0  0  0  0  0  0  0
    3.1867    0.5426   -0.0180 H   0  0  0  0  0  0  0  0  0  0  0  0
    0.0438    0.1284    1.8861 H   0  0  0  0  0  0  0  0  0  0  0  0
    0.0046    1.7953    1.0189 H   0  0  0  0  0  0  0  0  0  0  0  0
   -2.5015    1.2558    0.9483 H   0  0  0  0  0  0  0  0  0  0  0  0
   -2.8540   -0.9722   -0.6713 H   0  0  0  0  0  0  0  0  0  0  0  0
   -0.3312   -1.9703    0.2467 H   0  0  0  0  0  0  0  0  0  0  0  0
   -0.4417   -1.5754   -1.5849 H   0  0  0  0  0  0  0  0  0  0  0  0
   -1.5668    1.4888   -1.3423 H   0  0  0  0  0  0  0  0  0  0  0  0
  1  2  1  0
  2  3  2  0
  2  4  1  0
  4  5  1  0
  5  6  1  0
  6  7  1  0
  7  8  1  0
  7  9  1  0
  8  4  1  0
  9  4  1  0
  9  6  1  0
  1 10  1  0
  1 11  1  0
  1 12  1  0
  5 13  1  0
  5 14  1  0
  6 15  1  0
  7 16  1  0
  8 17  1  0
  8 18  1  0
  9 19  1  0
M  END
