
     RDKit          3D

 19 19  0  0  0  0  0  0  0  0999 V2000
   -2.0860   -0.7465   -0.7295 C   0  0  0  0  0  0  0  0  0  0  0  0
   -0.6845   -0.9461   -0.2676 C   0  0  0  0  0  0  0  0  0  0  0  0
   -0.2203   -2.0777   -0.3167 O   0  0  0  0  0  0  0  0  0  0  0  0
    0.0562    0.2204    0.2178 C   0  0  0  0  0  0  0  0  0  0  0  0
   -0.7142    1.5192    0.1962 C   0  0  0  0  0  0  0  0  0  0  0  0
    0.9063   -0.0921    1.4421 C   0  0  0  0  0  0  0  0  0  0  0  0
    1.5258    0.3291    0.1645 C   0  0  0  0  0  0  0  0  0  0  0  0
    2.2608   -0.5925   -0.6912 C   0  0  0  0  0  0  0  0  0  0  0  0
    3.2445   -0.2095   -1.2980 O   0  0  0  0  0  0  0  0  0  0  0  0
   -2.0903   -0.6220   -1.8166 H   0  0  0  0  0  0  0  0  0  0  0  0
   -2.5561    0.1340   -0.2802 H   0  0  0  0  0  0  0  0  0  0  0  0
   -2.6613   -1.6379   -0.4033 H   0  0  0  0  0  0  0  0  0  0  0  0
   -0.0214    2.3756    0.2803 H   0  0  0  0  0  0  0  0  0  0  0  0
   -1.5264    1.5380    0.9459 H   0  0  0  0  0  0  0  0  0  0  0  0
   -1.1727    1.5959   -0.8185 H   0  0  0  0  0  0  0  0  0  0  0  0
    0.7559    0.6316    2.2581 H   0  0  0  0  0  0  0  0  0  0  0  0
    1.0406   -1.1496    1.7580 H   0  0  0  0  0  0  0  0  0  0  0  0
    1.9427    1.3723    0.2054 H   0  0  0  0  0  0  0  0  0  0  0  0
    2.0004   -1.6423   -0.8465 H   0  0  0  0  0  0  0  0  0  0  0  0
  1  2  1  0
  2  3  2  0
  2  4  1  0
  4  5  1  0
  4  6  1  0
  6  7  1  0
  7  8  1  0
  8  9  2  0
  7  4  1  0
  1 10  1  0
  1 11  1  0
  1 12  1  0
  5 13  1  0
  5 14  1  0
  5 15  1  0
  6 16  1  0
  6 17  1  0
  7 18  1  0
  8 19  1  0
M  END
