
     RDKit          3D

 17 17  0  0  0  0  0  0  0  0999 V2000
    3.4959    0.6037    0.4140 C   0  0  0  0  0  0  0  0  0  0  0  0
    2.3949   -0.3735    0.6006 C   0  0  0  0  0  0  0  0  0  0  0  0
    2.5955   -1.3946    1.3380 O   0  0  0  0  0  0  0  0  0  0  0  0
    1.1145   -0.1726   -0.0427 C   0  0  0  0  0  0  0  0  0  0  0  0
    0.0331   -0.0136   -0.5666 C   0  0  0  0  0  0  0  0  0  0  0  0
   -1.2806    0.1603   -1.1855 C   0  0  0  0  0  0  0  0  0  0  0  0
   -2.3908    0.2795   -0.1902 C   0  0  0  0  0  0  0  0  0  0  0  0
   -2.7436   -0.7132    0.7764 C   0  0  0  0  0  0  0  0  0  0  0  0
   -3.5375   -0.5944   -0.4221 O   0  0  0  0  0  0  0  0  0  0  0  0
    3.4898    0.9131   -0.6514 H   0  0  0  0  0  0  0  0  0  0  0  0
    4.4585    0.1260    0.6379 H   0  0  0  0  0  0  0  0  0  0  0  0
    3.3897    1.4805    1.0892 H   0  0  0  0  0  0  0  0  0  0  0  0
   -1.5128   -0.6518   -1.9030 H   0  0  0  0  0  0  0  0  0  0  0  0
   -1.2091    1.0915   -1.8064 H   0  0  0  0  0  0  0  0  0  0  0  0
   -2.7359    1.3366   -0.0082 H   0  0  0  0  0  0  0  0  0  0  0  0
   -2.2868   -1.6968    0.8628 H   0  0  0  0  0  0  0  0  0  0  0  0
   -3.2748   -0.3807    1.7090 H   0  0  0  0  0  0  0  0  0  0  0  0
  1  2  1  0
  2  3  2  0
  2  4  1  0
  4  5  3  0
  5  6  1  0
  6  7  1  0
  7  8  1  0
  8  9  1  0
  9  7  1  0
  1 10  1  0
  1 11  1  0
  1 12  1  0
  6 13  1  0
  6 14  1  0
  7 15  1  0
  8 16  1  0
  8 17  1  0
M  END
