
     RDKit          3D

 19 19  0  0  0  0  0  0  0  0999 V2000
    3.3684    0.3123    0.0967 C   0  0  0  0  0  0  0  0  0  0  0  0
    1.9979   -0.1724    0.3994 C   0  0  0  0  0  0  0  0  0  0  0  0
    1.8015   -0.8841    1.4084 O   0  0  0  0  0  0  0  0  0  0  0  0
    0.8943    0.1196   -0.3825 O   0  0  0  0  0  0  0  0  0  0  0  0
   -0.3988   -0.3063   -0.1441 C   0  0  0  0  0  0  0  0  0  0  0  0
   -1.1253   -0.9867   -1.2765 C   0  0  0  0  0  0  0  0  0  0  0  0
   -2.4074   -0.3379   -0.7394 C   0  0  0  0  0  0  0  0  0  0  0  0
   -1.4847    0.7387   -0.1475 C   0  0  0  0  0  0  0  0  0  0  0  0
   -1.8787    1.2180    1.0790 O   0  0  0  0  0  0  0  0  0  0  0  0
    3.4139    0.7800   -0.9090 H   0  0  0  0  0  0  0  0  0  0  0  0
    3.7158    1.0295    0.8568 H   0  0  0  0  0  0  0  0  0  0  0  0
    4.0975   -0.5478    0.1118 H   0  0  0  0  0  0  0  0  0  0  0  0
   -0.4600   -0.9281    0.7714 H   0  0  0  0  0  0  0  0  0  0  0  0
   -1.1516   -2.0851   -1.2517 H   0  0  0  0  0  0  0  0  0  0  0  0
   -0.9317   -0.5873   -2.2788 H   0  0  0  0  0  0  0  0  0  0  0  0
   -2.8272   -1.0196    0.0405 H   0  0  0  0  0  0  0  0  0  0  0  0
   -3.0988    0.0199   -1.5016 H   0  0  0  0  0  0  0  0  0  0  0  0
   -1.3095    1.5005   -0.9356 H   0  0  0  0  0  0  0  0  0  0  0  0
   -2.2158    2.1368    1.0144 H   0  0  0  0  0  0  0  0  0  0  0  0
  1  2  1  0
  2  3  2  0
  2  4  1  0
  4  5  1  0
  5  6  1  0
  6  7  1  0
  7  8  1  0
  8  9  1  0
  8  5  1  0
  1 10  1  0
  1 11  1  0
  1 12  1  0
  5 13  1  0
  6 14  1  0
  6 15  1  0
  7 16  1  0
  7 17  1  0
  8 18  1  0
  9 19  1  0
M  END
