
     RDKit          3D

 19 20  0  0  0  0  0  0  0  0999 V2000
    2.7710   -0.0488   -0.3212 C   0  0  0  0  0  0  0  0  0  0  0  0
    1.5371    0.7495   -0.2526 C   0  0  0  0  0  0  0  0  0  0  0  0
    1.5246    1.8402   -0.7595 O   0  0  0  0  0  0  0  0  0  0  0  0
    0.3468    0.2592    0.4044 C   0  0  0  0  0  0  0  0  0  0  0  0
    0.3691   -0.9934    0.9834 O   0  0  0  0  0  0  0  0  0  0  0  0
   -1.0093   -1.0406    0.7111 C   0  0  0  0  0  0  0  0  0  0  0  0
   -1.3355   -1.4307   -0.6718 C   0  0  0  0  0  0  0  0  0  0  0  0
   -0.8058   -0.0809   -0.4826 C   0  0  0  0  0  0  0  0  0  0  0  0
   -1.8094    1.0310   -0.6651 C   0  0  0  0  0  0  0  0  0  0  0  0
    3.3887    0.0128    0.5968 H   0  0  0  0  0  0  0  0  0  0  0  0
    2.4978   -1.0991   -0.5290 H   0  0  0  0  0  0  0  0  0  0  0  0
    3.4393    0.3115   -1.1502 H   0  0  0  0  0  0  0  0  0  0  0  0
    0.0177    0.9952    1.1967 H   0  0  0  0  0  0  0  0  0  0  0  0
   -1.7268   -0.6693    1.4366 H   0  0  0  0  0  0  0  0  0  0  0  0
   -2.4124   -1.5948   -0.8793 H   0  0  0  0  0  0  0  0  0  0  0  0
   -0.7082   -2.2664   -1.1010 H   0  0  0  0  0  0  0  0  0  0  0  0
   -1.4443    1.9927   -0.2314 H   0  0  0  0  0  0  0  0  0  0  0  0
   -1.8504    1.2263   -1.7766 H   0  0  0  0  0  0  0  0  0  0  0  0
   -2.7901    0.8058   -0.2427 H   0  0  0  0  0  0  0  0  0  0  0  0
  1  2  1  0
  2  3  2  0
  2  4  1  0
  4  5  1  0
  5  6  1  0
  6  7  1  0
  7  8  1  0
  8  9  1  0
  8  4  1  0
  8  6  1  0
  1 10  1  0
  1 11  1  0
  1 12  1  0
  4 13  1  0
  6 14  1  0
  7 15  1  0
  7 16  1  0
  9 17  1  0
  9 18  1  0
  9 19  1  0
M  END
