
     RDKit          3D

 23 22  0  0  0  0  0  0  0  0999 V2000
    3.0813    0.9137    0.6990 C   0  0  0  0  0  0  0  0  0  0  0  0
    2.9910   -0.4916    0.2156 C   0  0  0  0  0  0  0  0  0  0  0  0
    3.9561   -1.2312    0.1802 O   0  0  0  0  0  0  0  0  0  0  0  0
    1.6774   -1.0000   -0.2362 C   0  0  0  0  0  0  0  0  0  0  0  0
    0.6899   -0.0227   -0.1272 O   0  0  0  0  0  0  0  0  0  0  0  0
   -0.5090   -0.5523   -0.5612 C   0  0  0  0  0  0  0  0  0  0  0  0
   -1.6382    0.4545   -0.4730 C   0  0  0  0  0  0  0  0  0  0  0  0
   -1.7466    0.8505    1.0058 C   0  0  0  0  0  0  0  0  0  0  0  0
   -2.9667   -0.1758   -0.8308 C   0  0  0  0  0  0  0  0  0  0  0  0
    4.1113    1.1844    0.9933 H   0  0  0  0  0  0  0  0  0  0  0  0
    2.7551    1.5525   -0.1709 H   0  0  0  0  0  0  0  0  0  0  0  0
    2.3479    1.0467    1.5282 H   0  0  0  0  0  0  0  0  0  0  0  0
    1.3837   -1.8223    0.4468 H   0  0  0  0  0  0  0  0  0  0  0  0
    1.7290   -1.3711   -1.3000 H   0  0  0  0  0  0  0  0  0  0  0  0
   -0.4215   -0.9588   -1.5985 H   0  0  0  0  0  0  0  0  0  0  0  0
   -0.7453   -1.4199    0.0869 H   0  0  0  0  0  0  0  0  0  0  0  0
   -1.4636    1.3469   -1.0703 H   0  0  0  0  0  0  0  0  0  0  0  0
   -2.4735    1.6751    1.0623 H   0  0  0  0  0  0  0  0  0  0  0  0
   -0.7400    1.1652    1.3373 H   0  0  0  0  0  0  0  0  0  0  0  0
   -2.0960   -0.0670    1.5234 H   0  0  0  0  0  0  0  0  0  0  0  0
   -3.7658    0.2210   -0.1700 H   0  0  0  0  0  0  0  0  0  0  0  0
   -2.9281   -1.2710   -0.6456 H   0  0  0  0  0  0  0  0  0  0  0  0
   -3.2284   -0.0268   -1.8952 H   0  0  0  0  0  0  0  0  0  0  0  0
  1  2  1  0
  2  3  2  0
  2  4  1  0
  4  5  1  0
  5  6  1  0
  6  7  1  0
  7  8  1  0
  7  9  1  0
  1 10  1  0
  1 11  1  0
  1 12  1  0
  4 13  1  0
  4 14  1  0
  6 15  1  0
  6 16  1  0
  7 17  1  0
  8 18  1  0
  8 19  1  0
  8 20  1  0
  9 21  1  0
  9 22  1  0
  9 23  1  0
M  END
