
     RDKit          3D

 21 21  0  0  0  0  0  0  0  0999 V2000
    3.0858   -0.9437   -0.4197 C   0  0  0  0  0  0  0  0  0  0  0  0
    1.9569   -0.0004   -0.2297 C   0  0  0  0  0  0  0  0  0  0  0  0
    1.9529    1.0711   -0.8095 O   0  0  0  0  0  0  0  0  0  0  0  0
    0.8112   -0.3323    0.6639 C   0  0  0  0  0  0  0  0  0  0  0  0
   -0.1891    0.7778    0.6833 C   0  0  0  0  0  0  0  0  0  0  0  0
   -1.4021    0.5284    1.5739 C   0  0  0  0  0  0  0  0  0  0  0  0
   -1.5328    0.6527    0.0925 C   0  0  0  0  0  0  0  0  0  0  0  0
   -1.9661   -0.5695   -0.6691 C   0  0  0  0  0  0  0  0  0  0  0  0
   -2.1816    1.8245   -0.3274 O   0  0  0  0  0  0  0  0  0  0  0  0
    3.1402   -1.7180    0.3462 H   0  0  0  0  0  0  0  0  0  0  0  0
    4.0479   -0.3918   -0.4015 H   0  0  0  0  0  0  0  0  0  0  0  0
    2.9951   -1.3498   -1.4570 H   0  0  0  0  0  0  0  0  0  0  0  0
    0.3742   -1.3107    0.4106 H   0  0  0  0  0  0  0  0  0  0  0  0
    1.2656   -0.4689    1.6894 H   0  0  0  0  0  0  0  0  0  0  0  0
    0.2374    1.8052    0.6886 H   0  0  0  0  0  0  0  0  0  0  0  0
   -1.7432    1.3817    2.2309 H   0  0  0  0  0  0  0  0  0  0  0  0
   -1.4991   -0.4474    2.0825 H   0  0  0  0  0  0  0  0  0  0  0  0
   -1.7174   -0.4012   -1.7329 H   0  0  0  0  0  0  0  0  0  0  0  0
   -1.5445   -1.4987   -0.2564 H   0  0  0  0  0  0  0  0  0  0  0  0
   -3.0850   -0.6064   -0.6113 H   0  0  0  0  0  0  0  0  0  0  0  0
   -3.0063    1.9972    0.1922 H   0  0  0  0  0  0  0  0  0  0  0  0
  1  2  1  0
  2  3  2  0
  2  4  1  0
  4  5  1  0
  5  6  1  0
  6  7  1  0
  7  8  1  0
  7  9  1  0
  7  5  1  0
  1 10  1  0
  1 11  1  0
  1 12  1  0
  4 13  1  0
  4 14  1  0
  5 15  1  0
  6 16  1  0
  6 17  1  0
  8 18  1  0
  8 19  1  0
  8 20  1  0
  9 21  1  0
M  END
