
     RDKit          3D

 19 20  0  0  0  0  0  0  0  0999 V2000
    2.1370    0.9006    0.2103 C   0  0  0  0  0  0  0  0  0  0  0  0
    1.4272   -0.2258   -0.3943 C   0  0  0  0  0  0  0  0  0  0  0  0
    2.1684   -1.0335   -1.0191 O   0  0  0  0  0  0  0  0  0  0  0  0
    0.0193   -0.5693   -0.3974 C   0  0  0  0  0  0  0  0  0  0  0  0
   -0.2560   -1.7477   -1.1806 O   0  0  0  0  0  0  0  0  0  0  0  0
   -0.7809   -0.6241    0.8406 C   0  0  0  0  0  0  0  0  0  0  0  0
   -0.8506    0.8691    0.8121 C   0  0  0  0  0  0  0  0  0  0  0  0
   -0.9724    0.5011   -0.6159 C   0  0  0  0  0  0  0  0  0  0  0  0
   -1.9724   -0.5376   -0.1052 C   0  0  0  0  0  0  0  0  0  0  0  0
    1.7190    1.8517   -0.2346 H   0  0  0  0  0  0  0  0  0  0  0  0
    3.2317    0.8602   -0.1117 H   0  0  0  0  0  0  0  0  0  0  0  0
    2.1844    0.9205    1.3061 H   0  0  0  0  0  0  0  0  0  0  0  0
    0.6016   -2.2420   -1.2336 H   0  0  0  0  0  0  0  0  0  0  0  0
   -0.7149   -1.2269    1.6326 H   0  0  0  0  0  0  0  0  0  0  0  0
   -1.8684    1.2645    1.1737 H   0  0  0  0  0  0  0  0  0  0  0  0
   -0.0442    1.4641    1.1920 H   0  0  0  0  0  0  0  0  0  0  0  0
   -1.1225    1.0849   -1.4146 H   0  0  0  0  0  0  0  0  0  0  0  0
   -2.0171   -1.3772   -0.7825 H   0  0  0  0  0  0  0  0  0  0  0  0
   -2.8895   -0.1325    0.3221 H   0  0  0  0  0  0  0  0  0  0  0  0
  1  2  1  0
  2  3  2  0
  2  4  1  0
  4  5  1  0
  4  6  1  0
  6  7  1  0
  7  8  1  0
  8  9  1  0
  8  4  1  0
  9  6  1  0
  1 10  1  0
  1 11  1  0
  1 12  1  0
  5 13  1  0
  6 14  1  0
  7 15  1  0
  7 16  1  0
  8 17  1  0
  9 18  1  0
  9 19  1  0
M  END
