
     RDKit          3D

 18 18  0  0  0  0  0  0  0  0999 V2000
    2.1332   -0.0307   -0.1435 C   0  0  0  0  0  0  0  0  0  0  0  0
    1.0496   -0.4471    0.8012 C   0  0  0  0  0  0  0  0  0  0  0  0
    1.3297   -0.7807    1.9129 O   0  0  0  0  0  0  0  0  0  0  0  0
   -0.3606   -0.4038    0.3132 C   0  0  0  0  0  0  0  0  0  0  0  0
   -0.6577   -1.1713   -0.9313 C   0  0  0  0  0  0  0  0  0  0  0  0
   -1.4262    0.1617    1.1261 C   0  0  0  0  0  0  0  0  0  0  0  0
   -0.8023    1.1052    0.1950 C   0  0  0  0  0  0  0  0  0  0  0  0
   -1.3546    1.3311   -1.0854 O   0  0  0  0  0  0  0  0  0  0  0  0
    2.9723   -0.7793    0.0333 H   0  0  0  0  0  0  0  0  0  0  0  0
    1.8607   -0.0327   -1.1912 H   0  0  0  0  0  0  0  0  0  0  0  0
    2.5514    1.0017    0.1850 H   0  0  0  0  0  0  0  0  0  0  0  0
   -0.8825   -2.2241   -0.5948 H   0  0  0  0  0  0  0  0  0  0  0  0
   -1.6401   -0.8628   -1.3970 H   0  0  0  0  0  0  0  0  0  0  0  0
    0.1640   -1.2174   -1.6435 H   0  0  0  0  0  0  0  0  0  0  0  0
   -1.1686    0.3315    2.2431 H   0  0  0  0  0  0  0  0  0  0  0  0
   -2.4882   -0.0999    0.9950 H   0  0  0  0  0  0  0  0  0  0  0  0
   -0.0644    1.8119    0.5470 H   0  0  0  0  0  0  0  0  0  0  0  0
   -1.2157    2.3068   -1.3650 H   0  0  0  0  0  0  0  0  0  0  0  0
  1  2  1  0
  2  3  2  0
  2  4  1  0
  4  5  1  0
  4  6  1  0
  6  7  1  0
  7  8  1  0
  7  4  1  0
  1  9  1  0
  1 10  1  0
  1 11  1  0
  5 12  1  0
  5 13  1  0
  5 14  1  0
  6 15  1  0
  6 16  1  0
  7 17  1  0
  8 18  1  0
M  END
