
     RDKit          3D

 21 22  0  0  0  0  0  0  0  0999 V2000
    2.8697   -0.0377    0.3970 C   0  0  0  0  0  0  0  0  0  0  0  0
    2.0834    0.0867   -0.8585 C   0  0  0  0  0  0  0  0  0  0  0  0
    2.7108    0.3303   -1.8731 O   0  0  0  0  0  0  0  0  0  0  0  0
    0.6279   -0.0647   -0.9378 C   0  0  0  0  0  0  0  0  0  0  0  0
   -0.1406   -0.8000    0.0920 C   0  0  0  0  0  0  0  0  0  0  0  0
   -1.5583   -1.1564   -0.2644 C   0  0  0  0  0  0  0  0  0  0  0  0
   -2.4148    0.0371    0.0400 C   0  0  0  0  0  0  0  0  0  0  0  0
   -1.4789    1.2060   -0.1513 C   0  0  0  0  0  0  0  0  0  0  0  0
   -0.1135    0.6572    0.1952 C   0  0  0  0  0  0  0  0  0  0  0  0
    3.3624    0.9365    0.6600 H   0  0  0  0  0  0  0  0  0  0  0  0
    2.2457   -0.3292    1.2672 H   0  0  0  0  0  0  0  0  0  0  0  0
    3.6500   -0.8326    0.3088 H   0  0  0  0  0  0  0  0  0  0  0  0
    0.1762    0.0523   -1.9270 H   0  0  0  0  0  0  0  0  0  0  0  0
    0.4435   -1.4486    0.7728 H   0  0  0  0  0  0  0  0  0  0  0  0
   -1.9081   -2.0857    0.2602 H   0  0  0  0  0  0  0  0  0  0  0  0
   -1.6684   -1.3700   -1.3632 H   0  0  0  0  0  0  0  0  0  0  0  0
   -3.2485    0.1732   -0.7019 H   0  0  0  0  0  0  0  0  0  0  0  0
   -2.8622    0.0098    1.0507 H   0  0  0  0  0  0  0  0  0  0  0  0
   -1.4457    1.5238   -1.2124 H   0  0  0  0  0  0  0  0  0  0  0  0
   -1.7921    2.0096    0.5214 H   0  0  0  0  0  0  0  0  0  0  0  0
    0.4615    1.1024    1.0093 H   0  0  0  0  0  0  0  0  0  0  0  0
  1  2  1  0
  2  3  2  0
  2  4  1  0
  4  5  1  0
  5  6  1  0
  6  7  1  0
  7  8  1  0
  8  9  1  0
  9  4  1  0
  9  5  1  0
  1 10  1  0
  1 11  1  0
  1 12  1  0
  4 13  1  0
  5 14  1  0
  6 15  1  0
  6 16  1  0
  7 17  1  0
  7 18  1  0
  8 19  1  0
  8 20  1  0
  9 21  1  0
M  END
