
     RDKit          3D

 23 23  0  0  0  0  0  0  0  0999 V2000
    1.9235    0.4456    1.1320 C   0  0  0  0  0  0  0  0  0  0  0  0
    1.6219   -0.9730    0.8536 C   0  0  0  0  0  0  0  0  0  0  0  0
    2.2892   -1.7813    1.5213 O   0  0  0  0  0  0  0  0  0  0  0  0
    0.6543   -1.4758   -0.0955 C   0  0  0  0  0  0  0  0  0  0  0  0
    0.6161   -0.8246   -1.4382 C   0  0  0  0  0  0  0  0  0  0  0  0
   -0.6104   -0.9261   -0.5291 C   0  0  0  0  0  0  0  0  0  0  0  0
   -1.3410    0.2803   -0.1436 C   0  0  0  0  0  0  0  0  0  0  0  0
   -0.7586    1.6168   -0.3396 C   0  0  0  0  0  0  0  0  0  0  0  0
   -1.6911    0.1501    1.3453 C   0  0  0  0  0  0  0  0  0  0  0  0
    1.0913    0.8589    1.7348 H   0  0  0  0  0  0  0  0  0  0  0  0
    2.8947    0.5549    1.6965 H   0  0  0  0  0  0  0  0  0  0  0  0
    1.9794    1.0707    0.2028 H   0  0  0  0  0  0  0  0  0  0  0  0
    0.7005   -2.6366   -0.1261 H   0  0  0  0  0  0  0  0  0  0  0  0
    1.1023    0.1405   -1.6108 H   0  0  0  0  0  0  0  0  0  0  0  0
    0.7050   -1.4992   -2.3134 H   0  0  0  0  0  0  0  0  0  0  0  0
   -1.3225   -1.7238   -0.9672 H   0  0  0  0  0  0  0  0  0  0  0  0
   -2.3714    0.2541   -0.6342 H   0  0  0  0  0  0  0  0  0  0  0  0
   -1.5728    2.2849   -0.7810 H   0  0  0  0  0  0  0  0  0  0  0  0
   -0.5554    2.1401    0.6382 H   0  0  0  0  0  0  0  0  0  0  0  0
    0.0603    1.7285   -1.0481 H   0  0  0  0  0  0  0  0  0  0  0  0
   -1.8379    1.1574    1.7645 H   0  0  0  0  0  0  0  0  0  0  0  0
   -2.6508   -0.4225    1.4873 H   0  0  0  0  0  0  0  0  0  0  0  0
   -0.9265   -0.4198    1.8910 H   0  0  0  0  0  0  0  0  0  0  0  0
  1  2  1  0
  2  3  2  0
  2  4  1  0
  4  5  1  0
  5  6  1  0
  6  7  1  0
  7  8  1  0
  7  9  1  0
  6  4  1  0
  1 10  1  0
  1 11  1  0
  1 12  1  0
  4 13  1  0
  5 14  1  0
  5 15  1  0
  6 16  1  0
  7 17  1  0
  8 18  1  0
  8 19  1  0
  8 20  1  0
  9 21  1  0
  9 22  1  0
  9 23  1  0
M  END
