
     RDKit          3D

 19 18  0  0  0  0  0  0  0  0999 V2000
   -3.0609   -0.3934    0.3484 C   0  0  0  0  0  0  0  0  0  0  0  0
   -1.6661    0.0467    0.5904 C   0  0  0  0  0  0  0  0  0  0  0  0
   -1.4003    0.7262    1.6137 O   0  0  0  0  0  0  0  0  0  0  0  0
   -0.6092   -0.2483   -0.2571 O   0  0  0  0  0  0  0  0  0  0  0  0
    0.7052    0.1597   -0.0401 C   0  0  0  0  0  0  0  0  0  0  0  0
    1.1270    1.0146   -1.2310 C   0  0  0  0  0  0  0  0  0  0  0  0
    2.4311    1.4714   -1.1064 O   0  0  0  0  0  0  0  0  0  0  0  0
    1.6740   -1.0231    0.0394 C   0  0  0  0  0  0  0  0  0  0  0  0
    1.2944   -1.8519    1.0922 O   0  0  0  0  0  0  0  0  0  0  0  0
   -3.7199    0.4772    0.0843 H   0  0  0  0  0  0  0  0  0  0  0  0
   -3.1538   -1.1866   -0.3868 H   0  0  0  0  0  0  0  0  0  0  0  0
   -3.4534   -0.7695    1.3232 H   0  0  0  0  0  0  0  0  0  0  0  0
    0.8669    0.7473    0.8682 H   0  0  0  0  0  0  0  0  0  0  0  0
    1.0620    0.3870   -2.1647 H   0  0  0  0  0  0  0  0  0  0  0  0
    0.4187    1.8533   -1.3662 H   0  0  0  0  0  0  0  0  0  0  0  0
    2.4521    2.2188   -0.4538 H   0  0  0  0  0  0  0  0  0  0  0  0
    2.6722   -0.6141    0.3097 H   0  0  0  0  0  0  0  0  0  0  0  0
    1.7680   -1.5290   -0.9185 H   0  0  0  0  0  0  0  0  0  0  0  0
    0.5921   -1.4867    1.6551 H   0  0  0  0  0  0  0  0  0  0  0  0
  1  2  1  0
  2  3  2  0
  2  4  1  0
  4  5  1  0
  5  6  1  0
  6  7  1  0
  5  8  1  0
  8  9  1  0
  1 10  1  0
  1 11  1  0
  1 12  1  0
  5 13  1  0
  6 14  1  0
  6 15  1  0
  7 16  1  0
  8 17  1  0
  8 18  1  0
  9 19  1  0
M  END
