
     RDKit          3D

 14 13  0  0  0  0  0  0  0  0999 V2000
   -2.1538    0.3665   -0.2799 C   0  0  0  0  0  0  0  0  0  0  0  0
   -0.9023   -0.3962   -0.1857 C   0  0  0  0  0  0  0  0  0  0  0  0
   -0.9165   -1.6011   -0.2675 O   0  0  0  0  0  0  0  0  0  0  0  0
    0.3923    0.2880    0.0098 C   0  0  0  0  0  0  0  0  0  0  0  0
    1.5510   -0.6689    0.0805 C   0  0  0  0  0  0  0  0  0  0  0  0
    2.7092    0.1190    0.2670 O   0  0  0  0  0  0  0  0  0  0  0  0
   -3.0625   -0.2555   -0.1510 H   0  0  0  0  0  0  0  0  0  0  0  0
   -2.2792    0.8712   -1.2736 H   0  0  0  0  0  0  0  0  0  0  0  0
   -2.1741    1.1949    0.4652 H   0  0  0  0  0  0  0  0  0  0  0  0
    0.3884    0.8599    0.9674 H   0  0  0  0  0  0  0  0  0  0  0  0
    0.5385    0.9709   -0.8479 H   0  0  0  0  0  0  0  0  0  0  0  0
    1.4868   -1.3234    0.9731 H   0  0  0  0  0  0  0  0  0  0  0  0
    1.6893   -1.2787   -0.8107 H   0  0  0  0  0  0  0  0  0  0  0  0
    2.7329    0.8535   -0.4080 H   0  0  0  0  0  0  0  0  0  0  0  0
  1  2  1  0
  2  3  2  0
  2  4  1  0
  4  5  1  0
  5  6  1  0
  1  7  1  0
  1  8  1  0
  1  9  1  0
  4 10  1  0
  4 11  1  0
  5 12  1  0
  5 13  1  0
  6 14  1  0
M  END
