
     RDKit          3D

 16 16  0  0  0  0  0  0  0  0999 V2000
    2.8753    0.2010   -0.0751 C   0  0  0  0  0  0  0  0  0  0  0  0
    1.5137   -0.1745   -0.5728 C   0  0  0  0  0  0  0  0  0  0  0  0
    1.3668   -0.7257   -1.6958 O   0  0  0  0  0  0  0  0  0  0  0  0
    0.3707    0.0615    0.1635 O   0  0  0  0  0  0  0  0  0  0  0  0
   -0.9258   -0.2548   -0.2242 C   0  0  0  0  0  0  0  0  0  0  0  0
   -1.8433   -0.8218    0.8062 C   0  0  0  0  0  0  0  0  0  0  0  0
   -2.8604    0.0039    0.2874 O   0  0  0  0  0  0  0  0  0  0  0  0
   -1.8490    0.9378    0.0077 C   0  0  0  0  0  0  0  0  0  0  0  0
    3.0848    1.2792   -0.2353 H   0  0  0  0  0  0  0  0  0  0  0  0
    3.6599   -0.4171   -0.5510 H   0  0  0  0  0  0  0  0  0  0  0  0
    2.9455    0.0012    1.0322 H   0  0  0  0  0  0  0  0  0  0  0  0
   -1.0535   -0.7371   -1.2072 H   0  0  0  0  0  0  0  0  0  0  0  0
   -2.0815   -1.8957    0.7344 H   0  0  0  0  0  0  0  0  0  0  0  0
   -1.6264   -0.4775    1.8437 H   0  0  0  0  0  0  0  0  0  0  0  0
   -2.0200    1.5683   -0.8632 H   0  0  0  0  0  0  0  0  0  0  0  0
   -1.5568    1.4513    0.9500 H   0  0  0  0  0  0  0  0  0  0  0  0
  1  2  1  0
  2  3  2  0
  2  4  1  0
  4  5  1  0
  5  6  1  0
  6  7  1  0
  7  8  1  0
  8  5  1  0
  1  9  1  0
  1 10  1  0
  1 11  1  0
  5 12  1  0
  6 13  1  0
  6 14  1  0
  8 15  1  0
  8 16  1  0
M  END
