
     RDKit          3D

 19 20  0  0  0  0  0  0  0  0999 V2000
    2.5820   -0.2138   -0.3369 C   0  0  0  0  0  0  0  0  0  0  0  0
    1.3036    0.5537   -0.6115 C   0  0  0  0  0  0  0  0  0  0  0  0
    1.3067    1.4329   -1.3221 O   0  0  0  0  0  0  0  0  0  0  0  0
    0.0316    0.1391    0.0832 C   0  0  0  0  0  0  0  0  0  0  0  0
    0.0382    0.1660    1.5871 C   0  0  0  0  0  0  0  0  0  0  0  0
   -1.1984    0.5025   -0.6878 C   0  0  0  0  0  0  0  0  0  0  0  0
   -2.5196    0.0977   -0.1324 C   0  0  0  0  0  0  0  0  0  0  0  0
   -2.0037   -1.1970    0.0405 O   0  0  0  0  0  0  0  0  0  0  0  0
   -0.7483   -0.9951   -0.5160 C   0  0  0  0  0  0  0  0  0  0  0  0
    2.5910   -0.7113    0.6299 H   0  0  0  0  0  0  0  0  0  0  0  0
    2.7416   -1.0330   -1.1177 H   0  0  0  0  0  0  0  0  0  0  0  0
    3.4806    0.4296   -0.4136 H   0  0  0  0  0  0  0  0  0  0  0  0
   -0.9425    0.5724    1.9712 H   0  0  0  0  0  0  0  0  0  0  0  0
    0.2188   -0.7999    2.0529 H   0  0  0  0  0  0  0  0  0  0  0  0
    0.7764    0.9288    1.9717 H   0  0  0  0  0  0  0  0  0  0  0  0
   -1.1023    0.8848   -1.7271 H   0  0  0  0  0  0  0  0  0  0  0  0
   -3.3527    0.0724   -0.8378 H   0  0  0  0  0  0  0  0  0  0  0  0
   -2.7243    0.6594    0.8004 H   0  0  0  0  0  0  0  0  0  0  0  0
   -0.4789   -1.4892   -1.4340 H   0  0  0  0  0  0  0  0  0  0  0  0
  1  2  1  0
  2  3  2  0
  2  4  1  0
  4  5  1  0
  4  6  1  0
  6  7  1  0
  7  8  1  0
  8  9  1  0
  9  4  1  0
  9  6  1  0
  1 10  1  0
  1 11  1  0
  1 12  1  0
  5 13  1  0
  5 14  1  0
  5 15  1  0
  6 16  1  0
  7 17  1  0
  7 18  1  0
  9 19  1  0
M  END
