
     RDKit          3D

 17 16  0  0  0  0  0  0  0  0999 V2000
    2.4884   -0.3260    0.3103 C   0  0  0  0  0  0  0  0  0  0  0  0
    1.1658    0.2799    0.0339 C   0  0  0  0  0  0  0  0  0  0  0  0
    1.0263    1.4769    0.1019 O   0  0  0  0  0  0  0  0  0  0  0  0
    0.0325   -0.6026   -0.3231 C   0  0  0  0  0  0  0  0  0  0  0  0
   -1.2331    0.1872   -0.5695 C   0  0  0  0  0  0  0  0  0  0  0  0
   -1.5879    0.9458    0.6861 C   0  0  0  0  0  0  0  0  0  0  0  0
   -2.2440   -0.7462   -0.8609 O   0  0  0  0  0  0  0  0  0  0  0  0
    2.3841   -0.9394    1.2253 H   0  0  0  0  0  0  0  0  0  0  0  0
    3.2978    0.4272    0.3925 H   0  0  0  0  0  0  0  0  0  0  0  0
    2.7506   -0.9551   -0.5711 H   0  0  0  0  0  0  0  0  0  0  0  0
    0.2749   -1.2215   -1.2266 H   0  0  0  0  0  0  0  0  0  0  0  0
   -0.0941   -1.3276    0.5065 H   0  0  0  0  0  0  0  0  0  0  0  0
   -1.1406    0.9054   -1.3813 H   0  0  0  0  0  0  0  0  0  0  0  0
   -2.6970    1.0425    0.7818 H   0  0  0  0  0  0  0  0  0  0  0  0
   -1.1854    1.9829    0.6643 H   0  0  0  0  0  0  0  0  0  0  0  0
   -1.1878    0.4136    1.5734 H   0  0  0  0  0  0  0  0  0  0  0  0
   -2.0507   -1.5429   -0.2938 H   0  0  0  0  0  0  0  0  0  0  0  0
  1  2  1  0
  2  3  2  0
  2  4  1  0
  4  5  1  0
  5  6  1  0
  5  7  1  0
  1  8  1  0
  1  9  1  0
  1 10  1  0
  4 11  1  0
  4 12  1  0
  5 13  1  0
  6 14  1  0
  6 15  1  0
  6 16  1  0
  7 17  1  0
M  END
