
     RDKit          3D

 16 16  0  0  0  0  0  0  0  0999 V2000
    1.8583   -0.9229    0.2615 C   0  0  0  0  0  0  0  0  0  0  0  0
    0.9242    0.1426    0.7272 C   0  0  0  0  0  0  0  0  0  0  0  0
    1.2139    0.7204    1.7767 O   0  0  0  0  0  0  0  0  0  0  0  0
   -0.2911    0.5828    0.0567 C   0  0  0  0  0  0  0  0  0  0  0  0
   -1.4218   -0.4508   -0.0046 C   0  0  0  0  0  0  0  0  0  0  0  0
   -1.0500   -1.5590   -0.6807 O   0  0  0  0  0  0  0  0  0  0  0  0
   -0.5127    1.9383   -0.3656 C   0  0  0  0  0  0  0  0  0  0  0  0
    0.0959    1.0433   -1.2587 O   0  0  0  0  0  0  0  0  0  0  0  0
    1.6668   -1.9118    0.7390 H   0  0  0  0  0  0  0  0  0  0  0  0
    2.9318   -0.6320    0.4921 H   0  0  0  0  0  0  0  0  0  0  0  0
    1.8258   -1.1368   -0.8201 H   0  0  0  0  0  0  0  0  0  0  0  0
   -1.5920   -0.7301    1.0872 H   0  0  0  0  0  0  0  0  0  0  0  0
   -2.3929    0.0327   -0.3236 H   0  0  0  0  0  0  0  0  0  0  0  0
   -1.8618   -2.0760   -1.0149 H   0  0  0  0  0  0  0  0  0  0  0  0
    0.1290    2.7373    0.0640 H   0  0  0  0  0  0  0  0  0  0  0  0
   -1.5231    2.2223   -0.7362 H   0  0  0  0  0  0  0  0  0  0  0  0
  1  2  1  0
  2  3  2  0
  2  4  1  0
  4  5  1  0
  5  6  1  0
  4  7  1  0
  7  8  1  0
  8  4  1  0
  1  9  1  0
  1 10  1  0
  1 11  1  0
  5 12  1  0
  5 13  1  0
  6 14  1  0
  7 15  1  0
  7 16  1  0
M  END
