
     RDKit          3D

 21 21  0  0  0  0  0  0  0  0999 V2000
    2.8205   -1.2102    0.4943 C   0  0  0  0  0  0  0  0  0  0  0  0
    1.5386   -0.5402    0.8248 C   0  0  0  0  0  0  0  0  0  0  0  0
    1.2326   -0.4294    1.9955 O   0  0  0  0  0  0  0  0  0  0  0  0
    0.6383   -0.0131   -0.2013 C   0  0  0  0  0  0  0  0  0  0  0  0
    1.3163    0.9732   -1.1317 C   0  0  0  0  0  0  0  0  0  0  0  0
   -0.4992    0.5727    0.2819 O   0  0  0  0  0  0  0  0  0  0  0  0
   -1.6750   -0.0213   -0.1584 C   0  0  0  0  0  0  0  0  0  0  0  0
   -2.8889    0.9000   -0.1562 C   0  0  0  0  0  0  0  0  0  0  0  0
   -2.7397   -0.1095    0.9179 C   0  0  0  0  0  0  0  0  0  0  0  0
    2.7126   -2.3186    0.4304 H   0  0  0  0  0  0  0  0  0  0  0  0
    3.1614   -0.8963   -0.5301 H   0  0  0  0  0  0  0  0  0  0  0  0
    3.6449   -0.9175    1.1800 H   0  0  0  0  0  0  0  0  0  0  0  0
    0.3104   -0.8679   -0.8640 H   0  0  0  0  0  0  0  0  0  0  0  0
    1.6101    0.5192   -2.0961 H   0  0  0  0  0  0  0  0  0  0  0  0
    0.6316    1.8198   -1.3946 H   0  0  0  0  0  0  0  0  0  0  0  0
    2.2310    1.4117   -0.6925 H   0  0  0  0  0  0  0  0  0  0  0  0
   -1.6551   -0.8798   -0.8316 H   0  0  0  0  0  0  0  0  0  0  0  0
   -2.7399    1.9545    0.1273 H   0  0  0  0  0  0  0  0  0  0  0  0
   -3.6440    0.7697   -0.9636 H   0  0  0  0  0  0  0  0  0  0  0  0
   -2.5334    0.2312    1.9320 H   0  0  0  0  0  0  0  0  0  0  0  0
   -3.4730   -0.9481    0.8746 H   0  0  0  0  0  0  0  0  0  0  0  0
  1  2  1  0
  2  3  2  0
  2  4  1  0
  4  5  1  0
  4  6  1  0
  6  7  1  0
  7  8  1  0
  8  9  1  0
  9  7  1  0
  1 10  1  0
  1 11  1  0
  1 12  1  0
  4 13  1  0
  5 14  1  0
  5 15  1  0
  5 16  1  0
  7 17  1  0
  8 18  1  0
  8 19  1  0
  9 20  1  0
  9 21  1  0
M  END
