
     RDKit          3D

 17 17  0  0  0  0  0  0  0  0999 V2000
    2.4840   -0.4295    0.5214 C   0  0  0  0  0  0  0  0  0  0  0  0
    1.5466   -0.0205   -0.5568 C   0  0  0  0  0  0  0  0  0  0  0  0
    2.0258    0.4471   -1.5742 O   0  0  0  0  0  0  0  0  0  0  0  0
    0.0761   -0.1417   -0.4797 C   0  0  0  0  0  0  0  0  0  0  0  0
   -0.6363    1.1332   -0.1633 C   0  0  0  0  0  0  0  0  0  0  0  0
   -1.5361    0.1348    0.5429 C   0  0  0  0  0  0  0  0  0  0  0  0
   -2.5435   -0.5254   -0.2975 C   0  0  0  0  0  0  0  0  0  0  0  0
   -2.3674   -1.6386   -0.7607 O   0  0  0  0  0  0  0  0  0  0  0  0
   -0.4151   -0.6803    0.7006 O   0  0  0  0  0  0  0  0  0  0  0  0
    3.3494   -0.9301    0.0021 H   0  0  0  0  0  0  0  0  0  0  0  0
    2.0275   -1.1111    1.2578 H   0  0  0  0  0  0  0  0  0  0  0  0
    2.9141    0.4759    1.0017 H   0  0  0  0  0  0  0  0  0  0  0  0
   -0.3235   -0.6884   -1.3501 H   0  0  0  0  0  0  0  0  0  0  0  0
   -0.1023    1.7396    0.5860 H   0  0  0  0  0  0  0  0  0  0  0  0
   -1.0943    1.6723   -1.0025 H   0  0  0  0  0  0  0  0  0  0  0  0
   -1.9151    0.5648    1.4987 H   0  0  0  0  0  0  0  0  0  0  0  0
   -3.4899   -0.0021   -0.5192 H   0  0  0  0  0  0  0  0  0  0  0  0
  1  2  1  0
  2  3  2  0
  2  4  1  0
  4  5  1  0
  5  6  1  0
  6  7  1  0
  7  8  2  0
  6  9  1  0
  9  4  1  0
  1 10  1  0
  1 11  1  0
  1 12  1  0
  4 13  1  0
  5 14  1  0
  5 15  1  0
  6 16  1  0
  7 17  1  0
M  END
