
     RDKit          3D

 17 18  0  0  0  0  0  0  0  0999 V2000
    2.3519    0.4260    0.2298 C   0  0  0  0  0  0  0  0  0  0  0  0
    1.4832   -0.5430   -0.4781 C   0  0  0  0  0  0  0  0  0  0  0  0
    1.9418   -1.0761   -1.4728 O   0  0  0  0  0  0  0  0  0  0  0  0
    0.1253   -0.8843   -0.0479 C   0  0  0  0  0  0  0  0  0  0  0  0
   -0.5665   -0.0601    1.0076 C   0  0  0  0  0  0  0  0  0  0  0  0
   -1.8312    0.0299    0.1800 C   0  0  0  0  0  0  0  0  0  0  0  0
   -2.2958    1.3441   -0.0169 O   0  0  0  0  0  0  0  0  0  0  0  0
   -1.0528   -0.5326   -0.9655 C   0  0  0  0  0  0  0  0  0  0  0  0
   -0.5821   -1.8032   -0.7943 O   0  0  0  0  0  0  0  0  0  0  0  0
    2.0422    1.4470   -0.0856 H   0  0  0  0  0  0  0  0  0  0  0  0
    2.3173    0.2928    1.3356 H   0  0  0  0  0  0  0  0  0  0  0  0
    3.4122    0.3125   -0.0572 H   0  0  0  0  0  0  0  0  0  0  0  0
   -0.7205   -0.6492    1.9144 H   0  0  0  0  0  0  0  0  0  0  0  0
   -0.1573    0.9617    1.1494 H   0  0  0  0  0  0  0  0  0  0  0  0
   -2.6541   -0.6367    0.5489 H   0  0  0  0  0  0  0  0  0  0  0  0
   -3.0626    1.2741   -0.6285 H   0  0  0  0  0  0  0  0  0  0  0  0
   -0.7511    0.0971   -1.8189 H   0  0  0  0  0  0  0  0  0  0  0  0
  1  2  1  0
  2  3  2  0
  2  4  1  0
  4  5  1  0
  5  6  1  0
  6  7  1  0
  6  8  1  0
  8  9  1  0
  8  4  1  0
  9  4  1  0
  1 10  1  0
  1 11  1  0
  1 12  1  0
  5 13  1  0
  5 14  1  0
  6 15  1  0
  7 16  1  0
  8 17  1  0
M  END
