
     RDKit          3D

 21 21  0  0  0  0  0  0  0  0999 V2000
   -3.4076    0.1337    0.2299 C   0  0  0  0  0  0  0  0  0  0  0  0
   -2.0070   -0.3316    0.0820 C   0  0  0  0  0  0  0  0  0  0  0  0
   -1.8327   -1.5077   -0.1854 O   0  0  0  0  0  0  0  0  0  0  0  0
   -0.8404    0.5842    0.2491 C   0  0  0  0  0  0  0  0  0  0  0  0
    0.4474   -0.1906    0.0359 C   0  0  0  0  0  0  0  0  0  0  0  0
    0.6801   -1.2560    0.8907 O   0  0  0  0  0  0  0  0  0  0  0  0
    0.9561   -0.2127   -1.3639 C   0  0  0  0  0  0  0  0  0  0  0  0
    1.6790    0.6134   -0.2919 C   0  0  0  0  0  0  0  0  0  0  0  0
    3.0375    0.0865    0.0566 C   0  0  0  0  0  0  0  0  0  0  0  0
   -3.6823    0.0418    1.3175 H   0  0  0  0  0  0  0  0  0  0  0  0
   -3.5248    1.1885   -0.1124 H   0  0  0  0  0  0  0  0  0  0  0  0
   -4.1218   -0.4794   -0.3305 H   0  0  0  0  0  0  0  0  0  0  0  0
   -0.8432    1.0226    1.2852 H   0  0  0  0  0  0  0  0  0  0  0  0
   -0.8974    1.4458   -0.4421 H   0  0  0  0  0  0  0  0  0  0  0  0
    0.6650   -2.1202    0.4123 H   0  0  0  0  0  0  0  0  0  0  0  0
    1.4646   -1.0881   -1.7833 H   0  0  0  0  0  0  0  0  0  0  0  0
    0.4217    0.4037   -2.1180 H   0  0  0  0  0  0  0  0  0  0  0  0
    1.5435    1.7119   -0.3060 H   0  0  0  0  0  0  0  0  0  0  0  0
    3.7536    0.9393    0.0703 H   0  0  0  0  0  0  0  0  0  0  0  0
    3.0776   -0.3772    1.0646 H   0  0  0  0  0  0  0  0  0  0  0  0
    3.4312   -0.6078   -0.7334 H   0  0  0  0  0  0  0  0  0  0  0  0
  1  2  1  0
  2  3  2  0
  2  4  1  0
  4  5  1  0
  5  6  1  0
  5  7  1  0
  7  8  1  0
  8  9  1  0
  8  5  1  0
  1 10  1  0
  1 11  1  0
  1 12  1  0
  4 13  1  0
  4 14  1  0
  6 15  1  0
  7 16  1  0
  7 17  1  0
  8 18  1  0
  9 19  1  0
  9 20  1  0
  9 21  1  0
M  END
