
     RDKit          3D

 21 22  0  0  0  0  0  0  0  0999 V2000
    3.2113    0.2668   -0.3967 C   0  0  0  0  0  0  0  0  0  0  0  0
    1.7062    0.0911   -0.3782 C   0  0  0  0  0  0  0  0  0  0  0  0
    1.1885   -0.0416   -1.4436 O   0  0  0  0  0  0  0  0  0  0  0  0
    0.9842    0.0916    0.8851 C   0  0  0  0  0  0  0  0  0  0  0  0
   -0.4740   -0.0309    0.9004 C   0  0  0  0  0  0  0  0  0  0  0  0
   -1.0922   -1.2829    0.2738 C   0  0  0  0  0  0  0  0  0  0  0  0
   -2.3410   -0.4184    0.4626 C   0  0  0  0  0  0  0  0  0  0  0  0
   -2.7324    0.7658   -0.2093 C   0  0  0  0  0  0  0  0  0  0  0  0
   -1.2979    0.6144   -0.1561 C   0  0  0  0  0  0  0  0  0  0  0  0
    3.5754    0.6992    0.5708 H   0  0  0  0  0  0  0  0  0  0  0  0
    3.7167   -0.7265   -0.5151 H   0  0  0  0  0  0  0  0  0  0  0  0
    3.5267    0.9717   -1.1900 H   0  0  0  0  0  0  0  0  0  0  0  0
    1.3520    0.9891    1.4778 H   0  0  0  0  0  0  0  0  0  0  0  0
    1.3916   -0.7765    1.5201 H   0  0  0  0  0  0  0  0  0  0  0  0
   -0.9388    0.0982    1.9306 H   0  0  0  0  0  0  0  0  0  0  0  0
   -0.8610   -1.4062   -0.7950 H   0  0  0  0  0  0  0  0  0  0  0  0
   -1.0889   -2.1686    0.8985 H   0  0  0  0  0  0  0  0  0  0  0  0
   -2.4732   -0.3265    1.5862 H   0  0  0  0  0  0  0  0  0  0  0  0
   -3.3200    0.6480   -1.1551 H   0  0  0  0  0  0  0  0  0  0  0  0
   -3.1183    1.6816    0.3341 H   0  0  0  0  0  0  0  0  0  0  0  0
   -0.9150    0.2607   -1.1641 H   0  0  0  0  0  0  0  0  0  0  0  0
  1  2  1  0
  2  3  2  0
  2  4  1  0
  4  5  1  0
  5  6  1  0
  6  7  1  0
  7  8  1  0
  8  9  1  0
  9  5  1  0
  9  7  1  0
  1 10  1  0
  1 11  1  0
  1 12  1  0
  4 13  1  0
  4 14  1  0
  5 15  1  0
  6 16  1  0
  6 17  1  0
  7 18  1  0
  8 19  1  0
  8 20  1  0
  9 21  1  0
M  END
