
     RDKit          3D

 20 20  0  0  0  0  0  0  0  0999 V2000
    3.0386    0.2010   -0.1788 C   0  0  0  0  0  0  0  0  0  0  0  0
    1.6739   -0.2932   -0.4849 C   0  0  0  0  0  0  0  0  0  0  0  0
    1.4258   -0.6063   -1.6226 O   0  0  0  0  0  0  0  0  0  0  0  0
    0.6321   -0.4072    0.5580 C   0  0  0  0  0  0  0  0  0  0  0  0
   -0.6194   -0.9297   -0.0579 C   0  0  0  0  0  0  0  0  0  0  0  0
   -1.2705   -0.1364   -1.1724 C   0  0  0  0  0  0  0  0  0  0  0  0
   -1.9418   -0.3241    0.1743 C   0  0  0  0  0  0  0  0  0  0  0  0
   -2.1139    0.9599    0.9413 C   0  0  0  0  0  0  0  0  0  0  0  0
    3.7920   -0.6254   -0.2958 H   0  0  0  0  0  0  0  0  0  0  0  0
    3.1200    0.5833    0.8567 H   0  0  0  0  0  0  0  0  0  0  0  0
    3.3144    1.0122   -0.8941 H   0  0  0  0  0  0  0  0  0  0  0  0
    1.0266   -1.1454    1.3096 H   0  0  0  0  0  0  0  0  0  0  0  0
    0.5117    0.5753    1.0533 H   0  0  0  0  0  0  0  0  0  0  0  0
   -0.6215   -2.0275   -0.2528 H   0  0  0  0  0  0  0  0  0  0  0  0
   -0.8244    0.8543   -1.4179 H   0  0  0  0  0  0  0  0  0  0  0  0
   -1.6670   -0.6691   -2.0551 H   0  0  0  0  0  0  0  0  0  0  0  0
   -2.8327   -0.9865    0.2303 H   0  0  0  0  0  0  0  0  0  0  0  0
   -2.4548    0.8168    1.9748 H   0  0  0  0  0  0  0  0  0  0  0  0
   -2.9470    1.5258    0.4266 H   0  0  0  0  0  0  0  0  0  0  0  0
   -1.2423    1.6223    0.9075 H   0  0  0  0  0  0  0  0  0  0  0  0
  1  2  1  0
  2  3  2  0
  2  4  1  0
  4  5  1  0
  5  6  1  0
  6  7  1  0
  7  8  1  0
  7  5  1  0
  1  9  1  0
  1 10  1  0
  1 11  1  0
  4 12  1  0
  4 13  1  0
  5 14  1  0
  6 15  1  0
  6 16  1  0
  7 17  1  0
  8 18  1  0
  8 19  1  0
  8 20  1  0
M  END
