
     RDKit          3D

 21 21  0  0  0  0  0  0  0  0999 V2000
    2.6492    0.3645   -0.4086 C   0  0  0  0  0  0  0  0  0  0  0  0
    1.9361   -0.8767   -0.1200 C   0  0  0  0  0  0  0  0  0  0  0  0
    2.3956   -1.9271   -0.5808 O   0  0  0  0  0  0  0  0  0  0  0  0
    0.7001   -0.9978    0.6817 C   0  0  0  0  0  0  0  0  0  0  0  0
   -0.2996    0.0902    0.4403 C   0  0  0  0  0  0  0  0  0  0  0  0
   -0.7834    0.1670   -0.9878 C   0  0  0  0  0  0  0  0  0  0  0  0
   -2.0185    0.9767   -0.8092 C   0  0  0  0  0  0  0  0  0  0  0  0
   -2.5027    0.7560    0.4058 C   0  0  0  0  0  0  0  0  0  0  0  0
   -1.6319   -0.2166    1.1356 C   0  0  0  0  0  0  0  0  0  0  0  0
    2.2350    0.9921   -1.1970 H   0  0  0  0  0  0  0  0  0  0  0  0
    3.7210    0.1427   -0.7017 H   0  0  0  0  0  0  0  0  0  0  0  0
    2.7414    0.9538    0.5428 H   0  0  0  0  0  0  0  0  0  0  0  0
    0.2722   -2.0084    0.6435 H   0  0  0  0  0  0  0  0  0  0  0  0
    1.0281   -0.8665    1.7596 H   0  0  0  0  0  0  0  0  0  0  0  0
    0.0289    1.0744    0.7638 H   0  0  0  0  0  0  0  0  0  0  0  0
   -0.0719    0.6249   -1.6887 H   0  0  0  0  0  0  0  0  0  0  0  0
   -1.0658   -0.8536   -1.3181 H   0  0  0  0  0  0  0  0  0  0  0  0
   -2.4314    1.6308   -1.5622 H   0  0  0  0  0  0  0  0  0  0  0  0
   -3.3892    1.1944    0.8386 H   0  0  0  0  0  0  0  0  0  0  0  0
   -1.9708   -1.2284    0.9060 H   0  0  0  0  0  0  0  0  0  0  0  0
   -1.5424    0.0075    2.2007 H   0  0  0  0  0  0  0  0  0  0  0  0
  1  2  1  0
  2  3  2  0
  2  4  1  0
  4  5  1  0
  5  6  1  0
  6  7  1  0
  7  8  2  0
  8  9  1  0
  9  5  1  0
  1 10  1  0
  1 11  1  0
  1 12  1  0
  4 13  1  0
  4 14  1  0
  5 15  1  0
  6 16  1  0
  6 17  1  0
  7 18  1  0
  8 19  1  0
  9 20  1  0
  9 21  1  0
M  END
