
     RDKit          3D

 21 21  0  0  0  0  0  0  0  0999 V2000
    3.4788    0.8309   -0.1041 C   0  0  0  0  0  0  0  0  0  0  0  0
    2.0500    0.5815   -0.4368 C   0  0  0  0  0  0  0  0  0  0  0  0
    1.3305    1.5457   -0.5372 O   0  0  0  0  0  0  0  0  0  0  0  0
    1.5409   -0.7898   -0.6345 C   0  0  0  0  0  0  0  0  0  0  0  0
    0.1921   -0.9033   -0.8656 O   0  0  0  0  0  0  0  0  0  0  0  0
   -0.5518   -0.4881    0.1949 C   0  0  0  0  0  0  0  0  0  0  0  0
   -2.0471   -0.6148   -0.0435 C   0  0  0  0  0  0  0  0  0  0  0  0
   -2.8660   -0.1450    1.1550 C   0  0  0  0  0  0  0  0  0  0  0  0
   -2.9045    0.5570   -0.2045 C   0  0  0  0  0  0  0  0  0  0  0  0
    4.1252    0.0019   -0.4608 H   0  0  0  0  0  0  0  0  0  0  0  0
    3.7883    1.7664   -0.6047 H   0  0  0  0  0  0  0  0  0  0  0  0
    3.5266    0.9069    1.0148 H   0  0  0  0  0  0  0  0  0  0  0  0
    2.1014   -1.2976   -1.4863 H   0  0  0  0  0  0  0  0  0  0  0  0
    1.8303   -1.3774    0.2964 H   0  0  0  0  0  0  0  0  0  0  0  0
   -0.3688    0.5372    0.4995 H   0  0  0  0  0  0  0  0  0  0  0  0
   -0.3442   -1.2166    1.0387 H   0  0  0  0  0  0  0  0  0  0  0  0
   -2.3628   -1.5748   -0.5132 H   0  0  0  0  0  0  0  0  0  0  0  0
   -3.7459   -0.7745    1.4378 H   0  0  0  0  0  0  0  0  0  0  0  0
   -2.3746    0.4518    1.9359 H   0  0  0  0  0  0  0  0  0  0  0  0
   -2.5385    1.5934   -0.2675 H   0  0  0  0  0  0  0  0  0  0  0  0
   -3.8598    0.4092   -0.7599 H   0  0  0  0  0  0  0  0  0  0  0  0
  1  2  1  0
  2  3  2  0
  2  4  1  0
  4  5  1  0
  5  6  1  0
  6  7  1  0
  7  8  1  0
  8  9  1  0
  9  7  1  0
  1 10  1  0
  1 11  1  0
  1 12  1  0
  4 13  1  0
  4 14  1  0
  6 15  1  0
  6 16  1  0
  7 17  1  0
  8 18  1  0
  8 19  1  0
  9 20  1  0
  9 21  1  0
M  END
