
     RDKit          3D

 14 13  0  0  0  0  0  0  0  0999 V2000
   -2.6361   -0.1535    0.6263 C   0  0  0  0  0  0  0  0  0  0  0  0
   -1.1526    0.0252    0.6055 C   0  0  0  0  0  0  0  0  0  0  0  0
   -0.5504    0.4418    1.5688 O   0  0  0  0  0  0  0  0  0  0  0  0
   -0.4178   -0.3214   -0.6336 C   0  0  0  0  0  0  0  0  0  0  0  0
    1.0041   -0.0645   -0.4072 C   0  0  0  0  0  0  0  0  0  0  0  0
    2.1945    0.1716   -0.2139 C   0  0  0  0  0  0  0  0  0  0  0  0
    3.5734    0.4675    0.0032 C   0  0  0  0  0  0  0  0  0  0  0  0
    4.4742   -0.2144   -0.5410 O   0  0  0  0  0  0  0  0  0  0  0  0
   -2.9992   -0.7186   -0.2445 H   0  0  0  0  0  0  0  0  0  0  0  0
   -3.0649    0.8859    0.6166 H   0  0  0  0  0  0  0  0  0  0  0  0
   -2.9114   -0.6529    1.5792 H   0  0  0  0  0  0  0  0  0  0  0  0
   -0.7998    0.2666   -1.5132 H   0  0  0  0  0  0  0  0  0  0  0  0
   -0.5825   -1.4167   -0.8015 H   0  0  0  0  0  0  0  0  0  0  0  0
    3.8686    1.2833    0.6394 H   0  0  0  0  0  0  0  0  0  0  0  0
  1  2  1  0
  2  3  2  0
  2  4  1  0
  4  5  1  0
  5  6  3  0
  6  7  1  0
  7  8  2  0
  1  9  1  0
  1 10  1  0
  1 11  1  0
  4 12  1  0
  4 13  1  0
  7 14  1  0
M  END
