
     RDKit          3D

 21 21  0  0  0  0  0  0  0  0999 V2000
    2.1106    0.5396    1.2459 C   0  0  0  0  0  0  0  0  0  0  0  0
    0.9784    0.9152    0.3590 C   0  0  0  0  0  0  0  0  0  0  0  0
    0.7110    2.0957    0.2544 O   0  0  0  0  0  0  0  0  0  0  0  0
    0.1778   -0.0634   -0.3878 C   0  0  0  0  0  0  0  0  0  0  0  0
    0.9719   -0.8949   -1.3678 C   0  0  0  0  0  0  0  0  0  0  0  0
   -0.7862   -0.8800    0.4698 C   0  0  0  0  0  0  0  0  0  0  0  0
   -1.7534    0.3029    0.3219 C   0  0  0  0  0  0  0  0  0  0  0  0
   -3.0723   -0.0600    0.1422 O   0  0  0  0  0  0  0  0  0  0  0  0
   -1.0416    0.5858   -1.0032 C   0  0  0  0  0  0  0  0  0  0  0  0
    1.7783    0.2855    2.2709 H   0  0  0  0  0  0  0  0  0  0  0  0
    2.8201    1.3882    1.3254 H   0  0  0  0  0  0  0  0  0  0  0  0
    2.6554   -0.3185    0.7661 H   0  0  0  0  0  0  0  0  0  0  0  0
    0.6550   -1.9486   -1.2520 H   0  0  0  0  0  0  0  0  0  0  0  0
    2.0562   -0.7413   -1.1797 H   0  0  0  0  0  0  0  0  0  0  0  0
    0.7156   -0.5238   -2.3830 H   0  0  0  0  0  0  0  0  0  0  0  0
   -1.1727   -1.7239   -0.1014 H   0  0  0  0  0  0  0  0  0  0  0  0
   -0.4586   -1.0533    1.5022 H   0  0  0  0  0  0  0  0  0  0  0  0
   -1.5389    1.0383    1.1083 H   0  0  0  0  0  0  0  0  0  0  0  0
   -3.4142   -0.5379    0.9436 H   0  0  0  0  0  0  0  0  0  0  0  0
   -0.9323    1.6535   -1.2342 H   0  0  0  0  0  0  0  0  0  0  0  0
   -1.4601   -0.0592   -1.8003 H   0  0  0  0  0  0  0  0  0  0  0  0
  1  2  1  0
  2  3  2  0
  2  4  1  0
  4  5  1  0
  4  6  1  0
  6  7  1  0
  7  8  1  0
  7  9  1  0
  9  4  1  0
  1 10  1  0
  1 11  1  0
  1 12  1  0
  5 13  1  0
  5 14  1  0
  5 15  1  0
  6 16  1  0
  6 17  1  0
  7 18  1  0
  8 19  1  0
  9 20  1  0
  9 21  1  0
M  END
