
     RDKit          3D

 19 19  0  0  0  0  0  0  0  0999 V2000
    2.6544   -0.7603   -0.1276 C   0  0  0  0  0  0  0  0  0  0  0  0
    1.6865    0.2885    0.2514 C   0  0  0  0  0  0  0  0  0  0  0  0
    2.0788    1.3998    0.6782 O   0  0  0  0  0  0  0  0  0  0  0  0
    0.2656    0.0334    0.1296 C   0  0  0  0  0  0  0  0  0  0  0  0
   -0.2960   -1.1065   -0.3111 C   0  0  0  0  0  0  0  0  0  0  0  0
   -1.7641   -1.0046   -0.2988 C   0  0  0  0  0  0  0  0  0  0  0  0
   -2.0189    0.4796   -0.2495 C   0  0  0  0  0  0  0  0  0  0  0  0
   -0.8108    0.9959    0.4739 C   0  0  0  0  0  0  0  0  0  0  0  0
   -0.4931    2.2714    0.0176 O   0  0  0  0  0  0  0  0  0  0  0  0
    2.8657   -1.4670    0.6973 H   0  0  0  0  0  0  0  0  0  0  0  0
    2.3016   -1.3476   -1.0071 H   0  0  0  0  0  0  0  0  0  0  0  0
    3.6452   -0.2805   -0.3739 H   0  0  0  0  0  0  0  0  0  0  0  0
    0.2348   -1.9922   -0.6361 H   0  0  0  0  0  0  0  0  0  0  0  0
   -2.1261   -1.5164    0.6194 H   0  0  0  0  0  0  0  0  0  0  0  0
   -2.1731   -1.4658   -1.2156 H   0  0  0  0  0  0  0  0  0  0  0  0
   -1.9927    0.8700   -1.2798 H   0  0  0  0  0  0  0  0  0  0  0  0
   -2.9233    0.7555    0.3147 H   0  0  0  0  0  0  0  0  0  0  0  0
   -0.9350    0.9734    1.5737 H   0  0  0  0  0  0  0  0  0  0  0  0
   -0.1992    2.8733    0.7436 H   0  0  0  0  0  0  0  0  0  0  0  0
  1  2  1  0
  2  3  2  0
  2  4  1  0
  4  5  2  0
  5  6  1  0
  6  7  1  0
  7  8  1  0
  8  9  1  0
  8  4  1  0
  1 10  1  0
  1 11  1  0
  1 12  1  0
  5 13  1  0
  6 14  1  0
  6 15  1  0
  7 16  1  0
  7 17  1  0
  8 18  1  0
  9 19  1  0
M  END
