
     RDKit          3D

 21 20  0  0  0  0  0  0  0  0999 V2000
    2.7706    0.2803   -0.4065 C   0  0  0  0  0  0  0  0  0  0  0  0
    1.3554    0.0826   -0.7548 C   0  0  0  0  0  0  0  0  0  0  0  0
    0.9350    0.2741   -1.8653 O   0  0  0  0  0  0  0  0  0  0  0  0
    0.4200   -0.3694    0.3084 C   0  0  0  0  0  0  0  0  0  0  0  0
    0.3928    0.6085    1.4066 C   0  0  0  0  0  0  0  0  0  0  0  0
    0.9604    1.6982    1.3372 O   0  0  0  0  0  0  0  0  0  0  0  0
   -0.9673   -0.5835   -0.2995 C   0  0  0  0  0  0  0  0  0  0  0  0
   -1.9546   -1.0406    0.7275 C   0  0  0  0  0  0  0  0  0  0  0  0
   -1.4502    0.6717   -0.9892 C   0  0  0  0  0  0  0  0  0  0  0  0
    3.4120    0.1781   -1.3050 H   0  0  0  0  0  0  0  0  0  0  0  0
    3.0553   -0.4431    0.3921 H   0  0  0  0  0  0  0  0  0  0  0  0
    2.8759    1.3134    0.0023 H   0  0  0  0  0  0  0  0  0  0  0  0
    0.7680   -1.3399    0.7126 H   0  0  0  0  0  0  0  0  0  0  0  0
   -0.1445    0.3796    2.3254 H   0  0  0  0  0  0  0  0  0  0  0  0
   -0.9111   -1.3703   -1.0796 H   0  0  0  0  0  0  0  0  0  0  0  0
   -2.6792   -0.2107    0.9155 H   0  0  0  0  0  0  0  0  0  0  0  0
   -1.5015   -1.2731    1.7127 H   0  0  0  0  0  0  0  0  0  0  0  0
   -2.5723   -1.9044    0.4031 H   0  0  0  0  0  0  0  0  0  0  0  0
   -1.5415    0.5559   -2.0846 H   0  0  0  0  0  0  0  0  0  0  0  0
   -2.4771    0.9713   -0.6329 H   0  0  0  0  0  0  0  0  0  0  0  0
   -0.7462    1.5215   -0.8258 H   0  0  0  0  0  0  0  0  0  0  0  0
  1  2  1  0
  2  3  2  0
  2  4  1  0
  4  5  1  0
  5  6  2  0
  4  7  1  0
  7  8  1  0
  7  9  1  0
  1 10  1  0
  1 11  1  0
  1 12  1  0
  4 13  1  0
  5 14  1  0
  7 15  1  0
  8 16  1  0
  8 17  1  0
  8 18  1  0
  9 19  1  0
  9 20  1  0
  9 21  1  0
M  END
