
     RDKit          3D

 21 22  0  0  0  0  0  0  0  0999 V2000
    1.5492    1.6487   -0.4951 C   0  0  0  0  0  0  0  0  0  0  0  0
    1.3444    0.2351   -0.8758 C   0  0  0  0  0  0  0  0  0  0  0  0
    2.0230   -0.2436   -1.7668 O   0  0  0  0  0  0  0  0  0  0  0  0
    0.3303   -0.5784   -0.1802 C   0  0  0  0  0  0  0  0  0  0  0  0
   -0.4547    0.1417    0.8815 C   0  0  0  0  0  0  0  0  0  0  0  0
   -1.2624    1.3391    0.3889 C   0  0  0  0  0  0  0  0  0  0  0  0
   -1.9683    0.0639    0.7369 C   0  0  0  0  0  0  0  0  0  0  0  0
    0.7831   -1.9857    0.0696 C   0  0  0  0  0  0  0  0  0  0  0  0
   -0.3466   -1.6950   -0.8496 C   0  0  0  0  0  0  0  0  0  0  0  0
    2.6253    1.9350   -0.5523 H   0  0  0  0  0  0  0  0  0  0  0  0
    1.0106    2.3706   -1.1510 H   0  0  0  0  0  0  0  0  0  0  0  0
    1.1406    1.7933    0.5225 H   0  0  0  0  0  0  0  0  0  0  0  0
   -0.0410    0.1863    1.9102 H   0  0  0  0  0  0  0  0  0  0  0  0
   -1.2085    1.6649   -0.6489 H   0  0  0  0  0  0  0  0  0  0  0  0
   -1.3339    2.2046    1.1073 H   0  0  0  0  0  0  0  0  0  0  0  0
   -2.4350   -0.5178   -0.0574 H   0  0  0  0  0  0  0  0  0  0  0  0
   -2.5514    0.0725    1.6831 H   0  0  0  0  0  0  0  0  0  0  0  0
    0.5902   -2.3766    1.0718 H   0  0  0  0  0  0  0  0  0  0  0  0
    1.6950   -2.3588   -0.4056 H   0  0  0  0  0  0  0  0  0  0  0  0
   -1.2968   -2.1053   -0.5250 H   0  0  0  0  0  0  0  0  0  0  0  0
   -0.1930   -1.7946   -1.9629 H   0  0  0  0  0  0  0  0  0  0  0  0
  1  2  1  0
  2  3  2  0
  2  4  1  0
  4  5  1  0
  5  6  1  0
  6  7  1  0
  4  8  1  0
  8  9  1  0
  9  4  1  0
  7  5  1  0
  1 10  1  0
  1 11  1  0
  1 12  1  0
  5 13  1  0
  6 14  1  0
  6 15  1  0
  7 16  1  0
  7 17  1  0
  8 18  1  0
  8 19  1  0
  9 20  1  0
  9 21  1  0
M  END
