
     RDKit          3D

 19 19  0  0  0  0  0  0  0  0999 V2000
   -3.0542   -0.2077   -0.0718 C   0  0  0  0  0  0  0  0  0  0  0  0
   -1.7644   -0.6944   -0.6174 C   0  0  0  0  0  0  0  0  0  0  0  0
   -1.7011   -1.8329   -1.0281 O   0  0  0  0  0  0  0  0  0  0  0  0
   -0.6100    0.2322   -0.6366 C   0  0  0  0  0  0  0  0  0  0  0  0
    0.0941    0.4000    0.6842 C   0  0  0  0  0  0  0  0  0  0  0  0
    1.2496   -0.3404    0.0367 C   0  0  0  0  0  0  0  0  0  0  0  0
    2.4960    0.5318    0.0834 C   0  0  0  0  0  0  0  0  0  0  0  0
    3.3708    0.0827   -0.9337 O   0  0  0  0  0  0  0  0  0  0  0  0
    0.5649   -0.2987   -1.1637 O   0  0  0  0  0  0  0  0  0  0  0  0
   -3.5012    0.5442   -0.7443 H   0  0  0  0  0  0  0  0  0  0  0  0
   -2.9161    0.2884    0.9160 H   0  0  0  0  0  0  0  0  0  0  0  0
   -3.8018   -1.0272    0.0354 H   0  0  0  0  0  0  0  0  0  0  0  0
   -0.8811    1.2142   -1.0855 H   0  0  0  0  0  0  0  0  0  0  0  0
   -0.3027   -0.1597    1.5292 H   0  0  0  0  0  0  0  0  0  0  0  0
    0.3014    1.4445    0.9521 H   0  0  0  0  0  0  0  0  0  0  0  0
    1.4123   -1.3599    0.4275 H   0  0  0  0  0  0  0  0  0  0  0  0
    2.2397    1.5855   -0.0507 H   0  0  0  0  0  0  0  0  0  0  0  0
    3.0459    0.3503    1.0297 H   0  0  0  0  0  0  0  0  0  0  0  0
    3.7581   -0.7527   -0.6077 H   0  0  0  0  0  0  0  0  0  0  0  0
  1  2  1  0
  2  3  2  0
  2  4  1  0
  4  5  1  0
  5  6  1  0
  6  7  1  0
  7  8  1  0
  6  9  1  0
  9  4  1  0
  1 10  1  0
  1 11  1  0
  1 12  1  0
  4 13  1  0
  5 14  1  0
  5 15  1  0
  6 16  1  0
  7 17  1  0
  7 18  1  0
  8 19  1  0
M  END
