
     RDKit          3D

 19 20  0  0  0  0  0  0  0  0999 V2000
    2.4026    0.2810    0.8241 C   0  0  0  0  0  0  0  0  0  0  0  0
    0.9700   -0.0925    0.9245 C   0  0  0  0  0  0  0  0  0  0  0  0
    0.3828    0.2811    1.9160 O   0  0  0  0  0  0  0  0  0  0  0  0
    0.2055   -0.8771   -0.0777 C   0  0  0  0  0  0  0  0  0  0  0  0
    1.0015   -1.2451   -1.0908 O   0  0  0  0  0  0  0  0  0  0  0  0
    0.1905   -0.3103   -1.5351 C   0  0  0  0  0  0  0  0  0  0  0  0
   -0.5113    0.8139   -0.8108 C   0  0  0  0  0  0  0  0  0  0  0  0
   -1.2147   -0.4008   -0.1700 C   0  0  0  0  0  0  0  0  0  0  0  0
   -1.8976   -0.1787    1.1129 C   0  0  0  0  0  0  0  0  0  0  0  0
    2.6892    0.3589   -0.2413 H   0  0  0  0  0  0  0  0  0  0  0  0
    2.6051    1.2574    1.3080 H   0  0  0  0  0  0  0  0  0  0  0  0
    3.0750   -0.4858    1.2806 H   0  0  0  0  0  0  0  0  0  0  0  0
   -0.5912   -0.8062   -2.2047 H   0  0  0  0  0  0  0  0  0  0  0  0
   -1.1391    1.4091   -1.4692 H   0  0  0  0  0  0  0  0  0  0  0  0
    0.0645    1.3955   -0.1035 H   0  0  0  0  0  0  0  0  0  0  0  0
   -1.8294   -0.8640   -0.9663 H   0  0  0  0  0  0  0  0  0  0  0  0
   -1.5793   -0.9533    1.8561 H   0  0  0  0  0  0  0  0  0  0  0  0
   -2.9933   -0.4294    0.9584 H   0  0  0  0  0  0  0  0  0  0  0  0
   -1.8308    0.8464    1.5302 H   0  0  0  0  0  0  0  0  0  0  0  0
  1  2  1  0
  2  3  2  0
  2  4  1  0
  4  5  1  0
  5  6  1  0
  6  7  1  0
  7  8  1  0
  8  9  1  0
  6  4  1  0
  8  4  1  0
  1 10  1  0
  1 11  1  0
  1 12  1  0
  6 13  1  0
  7 14  1  0
  7 15  1  0
  8 16  1  0
  9 17  1  0
  9 18  1  0
  9 19  1  0
M  END
