
     RDKit          3D

 19 19  0  0  0  0  0  0  0  0999 V2000
   -3.0228   -0.0087    0.4546 C   0  0  0  0  0  0  0  0  0  0  0  0
   -1.6979   -0.6865    0.4132 C   0  0  0  0  0  0  0  0  0  0  0  0
   -1.7299   -1.9002    0.2571 O   0  0  0  0  0  0  0  0  0  0  0  0
   -0.4146    0.0333    0.5490 C   0  0  0  0  0  0  0  0  0  0  0  0
   -0.1879    1.0230   -0.5355 C   0  0  0  0  0  0  0  0  0  0  0  0
    0.9261    0.7196   -1.1537 C   0  0  0  0  0  0  0  0  0  0  0  0
    1.4878   -0.4813   -0.5099 C   0  0  0  0  0  0  0  0  0  0  0  0
    2.8232   -0.2159    0.1648 C   0  0  0  0  0  0  0  0  0  0  0  0
    0.6087   -0.8857    0.4664 O   0  0  0  0  0  0  0  0  0  0  0  0
   -3.6538   -0.4662   -0.3241 H   0  0  0  0  0  0  0  0  0  0  0  0
   -3.4221   -0.1470    1.4825 H   0  0  0  0  0  0  0  0  0  0  0  0
   -2.8259    1.0799    0.2301 H   0  0  0  0  0  0  0  0  0  0  0  0
   -0.3615    0.6138    1.5098 H   0  0  0  0  0  0  0  0  0  0  0  0
   -0.8270    1.8437   -0.7705 H   0  0  0  0  0  0  0  0  0  0  0  0
    1.3716    1.2321   -1.9788 H   0  0  0  0  0  0  0  0  0  0  0  0
    1.5706   -1.3170   -1.2579 H   0  0  0  0  0  0  0  0  0  0  0  0
    3.4025   -1.1524    0.1346 H   0  0  0  0  0  0  0  0  0  0  0  0
    2.6348    0.0897    1.2087 H   0  0  0  0  0  0  0  0  0  0  0  0
    3.3182    0.6258   -0.3403 H   0  0  0  0  0  0  0  0  0  0  0  0
  1  2  1  0
  2  3  2  0
  2  4  1  0
  4  5  1  0
  5  6  2  0
  6  7  1  0
  7  8  1  0
  7  9  1  0
  9  4  1  0
  1 10  1  0
  1 11  1  0
  1 12  1  0
  4 13  1  0
  5 14  1  0
  6 15  1  0
  7 16  1  0
  8 17  1  0
  8 18  1  0
  8 19  1  0
M  END
