
     RDKit          3D

 17 17  0  0  0  0  0  0  0  0999 V2000
   -1.6122   -1.2860   -0.6578 C   0  0  0  0  0  0  0  0  0  0  0  0
   -1.0197   -0.7327    0.5633 C   0  0  0  0  0  0  0  0  0  0  0  0
   -1.2597   -1.2807    1.7013 O   0  0  0  0  0  0  0  0  0  0  0  0
   -0.1276    0.4829    0.7278 C   0  0  0  0  0  0  0  0  0  0  0  0
    1.3055    0.2953    0.6530 C   0  0  0  0  0  0  0  0  0  0  0  0
    2.1515   -0.1838   -0.4236 C   0  0  0  0  0  0  0  0  0  0  0  0
    1.8955    0.6403    1.7095 O   0  0  0  0  0  0  0  0  0  0  0  0
   -0.6949    1.6377   -0.0296 C   0  0  0  0  0  0  0  0  0  0  0  0
   -0.7411    1.5401    1.4645 O   0  0  0  0  0  0  0  0  0  0  0  0
   -2.7758   -1.1866   -0.4654 H   0  0  0  0  0  0  0  0  0  0  0  0
   -1.4215   -2.3174   -0.7819 H   0  0  0  0  0  0  0  0  0  0  0  0
   -1.3961   -0.6521   -1.5238 H   0  0  0  0  0  0  0  0  0  0  0  0
    2.6279   -1.1601   -0.2085 H   0  0  0  0  0  0  0  0  0  0  0  0
    3.0592    0.5043   -0.4913 H   0  0  0  0  0  0  0  0  0  0  0  0
    1.7393   -0.2180   -1.3988 H   0  0  0  0  0  0  0  0  0  0  0  0
   -1.6385    1.4706   -0.5236 H   0  0  0  0  0  0  0  0  0  0  0  0
   -0.0919    2.4463   -0.3153 H   0  0  0  0  0  0  0  0  0  0  0  0
  1  2  1  0
  2  3  2  0
  2  4  1  0
  4  5  1  0
  5  6  1  0
  5  7  2  0
  4  8  1  0
  8  9  1  0
  9  4  1  0
  1 10  1  0
  1 11  1  0
  1 12  1  0
  6 13  1  0
  6 14  1  0
  6 15  1  0
  8 16  1  0
  8 17  1  0
M  END
