
     RDKit          3D

 16 15  0  0  0  0  0  0  0  0999 V2000
    2.8059    0.1251   -0.1535 C   0  0  0  0  0  0  0  0  0  0  0  0
    1.4817   -0.4795   -0.3711 C   0  0  0  0  0  0  0  0  0  0  0  0
    1.3958   -1.6504   -0.6733 O   0  0  0  0  0  0  0  0  0  0  0  0
    0.2709    0.3258   -0.2244 C   0  0  0  0  0  0  0  0  0  0  0  0
   -0.9735   -0.4503   -0.4818 C   0  0  0  0  0  0  0  0  0  0  0  0
   -0.9047   -1.6239   -0.7770 O   0  0  0  0  0  0  0  0  0  0  0  0
   -2.2570    0.2918   -0.3548 C   0  0  0  0  0  0  0  0  0  0  0  0
   -3.3557   -0.5154   -0.6131 O   0  0  0  0  0  0  0  0  0  0  0  0
    2.9722    0.9626   -0.8615 H   0  0  0  0  0  0  0  0  0  0  0  0
    2.8453    0.5325    0.8967 H   0  0  0  0  0  0  0  0  0  0  0  0
    3.6100   -0.6078   -0.3412 H   0  0  0  0  0  0  0  0  0  0  0  0
    0.1534    0.7744    0.7936 H   0  0  0  0  0  0  0  0  0  0  0  0
    0.3360    1.1748   -0.9569 H   0  0  0  0  0  0  0  0  0  0  0  0
   -2.3060    0.8122    0.6136 H   0  0  0  0  0  0  0  0  0  0  0  0
   -2.2251    1.0925   -1.1436 H   0  0  0  0  0  0  0  0  0  0  0  0
   -3.8491   -0.7644    0.2144 H   0  0  0  0  0  0  0  0  0  0  0  0
  1  2  1  0
  2  3  2  0
  2  4  1  0
  4  5  1  0
  5  6  2  0
  5  7  1  0
  7  8  1  0
  1  9  1  0
  1 10  1  0
  1 11  1  0
  4 12  1  0
  4 13  1  0
  7 14  1  0
  7 15  1  0
  8 16  1  0
M  END
