
     RDKit          3D

 19 19  0  0  0  0  0  0  0  0999 V2000
    2.4788    0.8173   -0.0828 C   0  0  0  0  0  0  0  0  0  0  0  0
    1.4826   -0.2447   -0.3390 C   0  0  0  0  0  0  0  0  0  0  0  0
    1.6959   -1.0469   -1.2135 O   0  0  0  0  0  0  0  0  0  0  0  0
    0.2752   -0.2988    0.4637 C   0  0  0  0  0  0  0  0  0  0  0  0
   -0.6254    0.9434    0.3986 C   0  0  0  0  0  0  0  0  0  0  0  0
   -0.7857    1.4533   -0.8812 O   0  0  0  0  0  0  0  0  0  0  0  0
   -1.7603   -0.0519    0.6882 C   0  0  0  0  0  0  0  0  0  0  0  0
   -0.9115   -1.0393   -0.1285 C   0  0  0  0  0  0  0  0  0  0  0  0
   -1.0482   -2.3532    0.2663 O   0  0  0  0  0  0  0  0  0  0  0  0
    2.9203    0.6825    0.9481 H   0  0  0  0  0  0  0  0  0  0  0  0
    3.3608    0.7555   -0.7664 H   0  0  0  0  0  0  0  0  0  0  0  0
    2.0699    1.8409   -0.1978 H   0  0  0  0  0  0  0  0  0  0  0  0
    0.4148   -0.5996    1.5124 H   0  0  0  0  0  0  0  0  0  0  0  0
   -0.4891    1.6542    1.2096 H   0  0  0  0  0  0  0  0  0  0  0  0
   -1.5607    1.0706   -1.3607 H   0  0  0  0  0  0  0  0  0  0  0  0
   -1.7405   -0.3862    1.7430 H   0  0  0  0  0  0  0  0  0  0  0  0
   -2.7199    0.2021    0.2535 H   0  0  0  0  0  0  0  0  0  0  0  0
   -1.0551   -0.9229   -1.2093 H   0  0  0  0  0  0  0  0  0  0  0  0
   -2.0017   -2.4764    0.5320 H   0  0  0  0  0  0  0  0  0  0  0  0
  1  2  1  0
  2  3  2  0
  2  4  1  0
  4  5  1  0
  5  6  1  0
  5  7  1  0
  7  8  1  0
  8  9  1  0
  8  4  1  0
  1 10  1  0
  1 11  1  0
  1 12  1  0
  4 13  1  0
  5 14  1  0
  6 15  1  0
  7 16  1  0
  7 17  1  0
  8 18  1  0
  9 19  1  0
M  END
