
     RDKit          3D

 17 16  0  0  0  0  0  0  0  0999 V2000
   -3.1478    0.0042    0.1495 C   0  0  0  0  0  0  0  0  0  0  0  0
   -1.7850   -0.5787    0.1922 C   0  0  0  0  0  0  0  0  0  0  0  0
   -1.6934   -1.8150    0.3982 O   0  0  0  0  0  0  0  0  0  0  0  0
   -0.5868    0.2257    0.0062 C   0  0  0  0  0  0  0  0  0  0  0  0
   -0.7235    1.4733   -0.1999 O   0  0  0  0  0  0  0  0  0  0  0  0
    0.7582   -0.3950    0.0560 C   0  0  0  0  0  0  0  0  0  0  0  0
    1.8465    0.6262   -0.1622 C   0  0  0  0  0  0  0  0  0  0  0  0
    3.1925    0.0304   -0.1166 C   0  0  0  0  0  0  0  0  0  0  0  0
    3.2986   -1.1590    0.0810 O   0  0  0  0  0  0  0  0  0  0  0  0
   -3.6889   -0.3028    1.0545 H   0  0  0  0  0  0  0  0  0  0  0  0
   -3.6570   -0.3285   -0.7938 H   0  0  0  0  0  0  0  0  0  0  0  0
   -3.1188    1.1252    0.1497 H   0  0  0  0  0  0  0  0  0  0  0  0
    0.9094   -0.9279    1.0129 H   0  0  0  0  0  0  0  0  0  0  0  0
    0.8671   -1.1494   -0.7705 H   0  0  0  0  0  0  0  0  0  0  0  0
    1.7208    1.0923   -1.1600 H   0  0  0  0  0  0  0  0  0  0  0  0
    1.7509    1.4270    0.5872 H   0  0  0  0  0  0  0  0  0  0  0  0
    4.0570    0.6520   -0.2578 H   0  0  0  0  0  0  0  0  0  0  0  0
  1  2  1  0
  2  3  2  0
  2  4  1  0
  4  5  2  0
  4  6  1  0
  6  7  1  0
  7  8  1  0
  8  9  2  0
  1 10  1  0
  1 11  1  0
  1 12  1  0
  6 13  1  0
  6 14  1  0
  7 15  1  0
  7 16  1  0
  8 17  1  0
M  END
