
     RDKit          3D

 21 21  0  0  0  0  0  0  0  0999 V2000
    3.2631    0.1809   -0.0932 C   0  0  0  0  0  0  0  0  0  0  0  0
    1.9451   -0.1235   -0.7305 C   0  0  0  0  0  0  0  0  0  0  0  0
    1.8394   -1.1710   -1.3301 O   0  0  0  0  0  0  0  0  0  0  0  0
    0.7971    0.7962   -0.6521 C   0  0  0  0  0  0  0  0  0  0  0  0
   -0.3274    0.3052    0.2306 C   0  0  0  0  0  0  0  0  0  0  0  0
   -0.9014   -0.9989   -0.2583 C   0  0  0  0  0  0  0  0  0  0  0  0
   -2.3518   -0.5868   -0.5569 C   0  0  0  0  0  0  0  0  0  0  0  0
   -2.5191    0.4216    0.5866 C   0  0  0  0  0  0  0  0  0  0  0  0
   -1.3729    1.2093    0.3249 O   0  0  0  0  0  0  0  0  0  0  0  0
    3.8887    0.7152   -0.8408 H   0  0  0  0  0  0  0  0  0  0  0  0
    3.7406   -0.7847    0.1485 H   0  0  0  0  0  0  0  0  0  0  0  0
    3.1401    0.7730    0.8387 H   0  0  0  0  0  0  0  0  0  0  0  0
    1.1290    1.8249   -0.3332 H   0  0  0  0  0  0  0  0  0  0  0  0
    0.3452    0.9857   -1.6755 H   0  0  0  0  0  0  0  0  0  0  0  0
    0.0374    0.1601    1.2783 H   0  0  0  0  0  0  0  0  0  0  0  0
   -0.4201   -1.4206   -1.1400 H   0  0  0  0  0  0  0  0  0  0  0  0
   -0.9843   -1.7421    0.5801 H   0  0  0  0  0  0  0  0  0  0  0  0
   -3.0562   -1.4115   -0.5138 H   0  0  0  0  0  0  0  0  0  0  0  0
   -2.3690    0.0083   -1.4911 H   0  0  0  0  0  0  0  0  0  0  0  0
   -2.3915   -0.1384    1.5407 H   0  0  0  0  0  0  0  0  0  0  0  0
   -3.4320    0.9973    0.5150 H   0  0  0  0  0  0  0  0  0  0  0  0
  1  2  1  0
  2  3  2  0
  2  4  1  0
  4  5  1  0
  5  6  1  0
  6  7  1  0
  7  8  1  0
  8  9  1  0
  9  5  1  0
  1 10  1  0
  1 11  1  0
  1 12  1  0
  4 13  1  0
  4 14  1  0
  5 15  1  0
  6 16  1  0
  6 17  1  0
  7 18  1  0
  7 19  1  0
  8 20  1  0
  8 21  1  0
M  END
