
     RDKit          3D

 16 15  0  0  0  0  0  0  0  0999 V2000
   -1.7104   -0.8567   -0.2399 C   0  0  0  0  0  0  0  0  0  0  0  0
   -0.5777   -0.5268    0.6580 C   0  0  0  0  0  0  0  0  0  0  0  0
   -0.5783   -1.0596    1.7520 O   0  0  0  0  0  0  0  0  0  0  0  0
    0.5254    0.3884    0.3118 C   0  0  0  0  0  0  0  0  0  0  0  0
    1.3168   -0.2396   -0.8168 C   0  0  0  0  0  0  0  0  0  0  0  0
    1.4082    0.4628    1.3871 O   0  0  0  0  0  0  0  0  0  0  0  0
    0.0745    1.7504   -0.0129 C   0  0  0  0  0  0  0  0  0  0  0  0
   -0.7028    1.9692   -0.9140 O   0  0  0  0  0  0  0  0  0  0  0  0
   -2.6336   -1.0001    0.3848 H   0  0  0  0  0  0  0  0  0  0  0  0
   -1.5225   -1.8113   -0.7730 H   0  0  0  0  0  0  0  0  0  0  0  0
   -1.9368   -0.0712   -0.9737 H   0  0  0  0  0  0  0  0  0  0  0  0
    0.6397   -0.8726   -1.3905 H   0  0  0  0  0  0  0  0  0  0  0  0
    1.7854    0.5099   -1.4723 H   0  0  0  0  0  0  0  0  0  0  0  0
    2.1527   -0.8684   -0.4211 H   0  0  0  0  0  0  0  0  0  0  0  0
    1.3163   -0.3588    1.9556 H   0  0  0  0  0  0  0  0  0  0  0  0
    0.4431    2.5844    0.5649 H   0  0  0  0  0  0  0  0  0  0  0  0
  1  2  1  0
  2  3  2  0
  2  4  1  0
  4  5  1  0
  4  6  1  0
  4  7  1  0
  7  8  2  0
  1  9  1  0
  1 10  1  0
  1 11  1  0
  5 12  1  0
  5 13  1  0
  5 14  1  0
  6 15  1  0
  7 16  1  0
M  END
