
     RDKit          3D

 19 20  0  0  0  0  0  0  0  0999 V2000
    2.4921   -0.6133    0.1469 C   0  0  0  0  0  0  0  0  0  0  0  0
    1.3903    0.1109   -0.5361 C   0  0  0  0  0  0  0  0  0  0  0  0
    1.6282    0.5854   -1.6304 O   0  0  0  0  0  0  0  0  0  0  0  0
    0.0309    0.2831    0.0411 C   0  0  0  0  0  0  0  0  0  0  0  0
   -1.0002    1.0309   -0.7361 C   0  0  0  0  0  0  0  0  0  0  0  0
   -2.1874    0.1313   -0.7464 C   0  0  0  0  0  0  0  0  0  0  0  0
   -2.0359   -0.7736    0.2811 O   0  0  0  0  0  0  0  0  0  0  0  0
   -0.7047   -0.8878    0.5838 C   0  0  0  0  0  0  0  0  0  0  0  0
   -0.1808    0.1983    1.5067 C   0  0  0  0  0  0  0  0  0  0  0  0
    2.8424   -1.4014   -0.5476 H   0  0  0  0  0  0  0  0  0  0  0  0
    2.1407   -1.1457    1.0633 H   0  0  0  0  0  0  0  0  0  0  0  0
    3.3138    0.1026    0.4195 H   0  0  0  0  0  0  0  0  0  0  0  0
   -0.6450    1.1557   -1.8005 H   0  0  0  0  0  0  0  0  0  0  0  0
   -1.1942    2.0496   -0.3716 H   0  0  0  0  0  0  0  0  0  0  0  0
   -3.1386    0.7162   -0.6221 H   0  0  0  0  0  0  0  0  0  0  0  0
   -2.3099   -0.4333   -1.7148 H   0  0  0  0  0  0  0  0  0  0  0  0
   -0.1773   -1.8487    0.5273 H   0  0  0  0  0  0  0  0  0  0  0  0
   -0.8775    0.9072    1.9512 H   0  0  0  0  0  0  0  0  0  0  0  0
    0.6132   -0.1673    2.1848 H   0  0  0  0  0  0  0  0  0  0  0  0
  1  2  1  0
  2  3  2  0
  2  4  1  0
  4  5  1  0
  5  6  1  0
  6  7  1  0
  7  8  1  0
  8  9  1  0
  8  4  1  0
  9  4  1  0
  1 10  1  0
  1 11  1  0
  1 12  1  0
  5 13  1  0
  5 14  1  0
  6 15  1  0
  6 16  1  0
  8 17  1  0
  9 18  1  0
  9 19  1  0
M  END
