
     RDKit          3D

 25 24  0  0  0  0  0  0  0  0999 V2000
   -2.6252   -0.9394    0.4139 C   0  0  0  0  0  0  0  0  0  0  0  0
   -1.1928   -0.7496    0.7283 C   0  0  0  0  0  0  0  0  0  0  0  0
   -0.7475   -1.3526    1.6822 O   0  0  0  0  0  0  0  0  0  0  0  0
   -0.2794    0.1160   -0.0341 C   0  0  0  0  0  0  0  0  0  0  0  0
   -0.8188    1.5527    0.0168 C   0  0  0  0  0  0  0  0  0  0  0  0
   -0.2238   -0.2501   -1.5017 C   0  0  0  0  0  0  0  0  0  0  0  0
    1.1072    0.1761    0.5612 C   0  0  0  0  0  0  0  0  0  0  0  0
    1.9881    1.0805   -0.2723 C   0  0  0  0  0  0  0  0  0  0  0  0
    1.7689   -1.1644    0.6615 C   0  0  0  0  0  0  0  0  0  0  0  0
   -2.9078   -1.9911    0.6717 H   0  0  0  0  0  0  0  0  0  0  0  0
   -2.8815   -0.8001   -0.6395 H   0  0  0  0  0  0  0  0  0  0  0  0
   -3.2859   -0.3008    1.0430 H   0  0  0  0  0  0  0  0  0  0  0  0
   -0.3210    2.0730   -0.8284 H   0  0  0  0  0  0  0  0  0  0  0  0
   -0.5399    1.9876    0.9991 H   0  0  0  0  0  0  0  0  0  0  0  0
   -1.9182    1.5302   -0.1394 H   0  0  0  0  0  0  0  0  0  0  0  0
    0.2478   -1.2153   -1.6989 H   0  0  0  0  0  0  0  0  0  0  0  0
    0.1972    0.5820   -2.0988 H   0  0  0  0  0  0  0  0  0  0  0  0
   -1.2986   -0.3290   -1.8360 H   0  0  0  0  0  0  0  0  0  0  0  0
    1.0913    0.6137    1.5806 H   0  0  0  0  0  0  0  0  0  0  0  0
    3.0201    1.0361    0.1590 H   0  0  0  0  0  0  0  0  0  0  0  0
    1.6119    2.1174   -0.1748 H   0  0  0  0  0  0  0  0  0  0  0  0
    2.0722    0.7253   -1.3058 H   0  0  0  0  0  0  0  0  0  0  0  0
    2.8706   -1.0500    0.4600 H   0  0  0  0  0  0  0  0  0  0  0  0
    1.6792   -1.6093    1.6785 H   0  0  0  0  0  0  0  0  0  0  0  0
    1.3861   -1.8386   -0.1262 H   0  0  0  0  0  0  0  0  0  0  0  0
  1  2  1  0
  2  3  2  0
  2  4  1  0
  4  5  1  0
  4  6  1  0
  4  7  1  0
  7  8  1  0
  7  9  1  0
  1 10  1  0
  1 11  1  0
  1 12  1  0
  5 13  1  0
  5 14  1  0
  5 15  1  0
  6 16  1  0
  6 17  1  0
  6 18  1  0
  7 19  1  0
  8 20  1  0
  8 21  1  0
  8 22  1  0
  9 23  1  0
  9 24  1  0
  9 25  1  0
M  END
