
     RDKit          3D

 21 21  0  0  0  0  0  0  0  0999 V2000
    3.4257   -0.7169   -0.5329 C   0  0  0  0  0  0  0  0  0  0  0  0
    2.2664   -0.1643    0.2079 C   0  0  0  0  0  0  0  0  0  0  0  0
    2.4400    0.4814    1.2740 O   0  0  0  0  0  0  0  0  0  0  0  0
    0.9491   -0.3115   -0.2029 O   0  0  0  0  0  0  0  0  0  0  0  0
   -0.1219    0.2373    0.5433 C   0  0  0  0  0  0  0  0  0  0  0  0
   -1.3109    0.8032   -0.2094 C   0  0  0  0  0  0  0  0  0  0  0  0
   -1.8277    2.1213    0.2779 C   0  0  0  0  0  0  0  0  0  0  0  0
   -1.4396   -0.4349    0.5968 C   0  0  0  0  0  0  0  0  0  0  0  0
   -1.6028   -1.7374   -0.1704 C   0  0  0  0  0  0  0  0  0  0  0  0
    4.2777   -0.9059    0.1516 H   0  0  0  0  0  0  0  0  0  0  0  0
    3.1433   -1.7347   -0.9280 H   0  0  0  0  0  0  0  0  0  0  0  0
    3.7694   -0.0628   -1.3521 H   0  0  0  0  0  0  0  0  0  0  0  0
    0.1785    0.7872    1.4713 H   0  0  0  0  0  0  0  0  0  0  0  0
   -1.3307    0.6950   -1.3149 H   0  0  0  0  0  0  0  0  0  0  0  0
   -1.6953    2.2713    1.3591 H   0  0  0  0  0  0  0  0  0  0  0  0
   -1.2347    2.9470   -0.2140 H   0  0  0  0  0  0  0  0  0  0  0  0
   -2.8814    2.3228   -0.0017 H   0  0  0  0  0  0  0  0  0  0  0  0
   -2.0368   -0.4115    1.5376 H   0  0  0  0  0  0  0  0  0  0  0  0
   -0.8265   -1.7735   -0.9705 H   0  0  0  0  0  0  0  0  0  0  0  0
   -2.6145   -1.7927   -0.6473 H   0  0  0  0  0  0  0  0  0  0  0  0
   -1.5275   -2.6203    0.4905 H   0  0  0  0  0  0  0  0  0  0  0  0
  1  2  1  0
  2  3  2  0
  2  4  1  0
  4  5  1  0
  5  6  1  0
  6  7  1  0
  6  8  1  0
  8  9  1  0
  8  5  1  0
  1 10  1  0
  1 11  1  0
  1 12  1  0
  5 13  1  0
  6 14  1  0
  7 15  1  0
  7 16  1  0
  7 17  1  0
  8 18  1  0
  9 19  1  0
  9 20  1  0
  9 21  1  0
M  END
