
     RDKit          3D

 19 19  0  0  0  0  0  0  0  0999 V2000
    1.8458   -1.0206    0.6370 C   0  0  0  0  0  0  0  0  0  0  0  0
    1.2371    0.2848    0.3267 C   0  0  0  0  0  0  0  0  0  0  0  0
    1.9521    1.2690    0.4273 O   0  0  0  0  0  0  0  0  0  0  0  0
   -0.1689    0.4679   -0.0934 C   0  0  0  0  0  0  0  0  0  0  0  0
   -0.5442    1.8862   -0.3493 C   0  0  0  0  0  0  0  0  0  0  0  0
   -1.1956   -0.2266    0.7515 C   0  0  0  0  0  0  0  0  0  0  0  0
   -1.1278   -1.3777   -0.1911 C   0  0  0  0  0  0  0  0  0  0  0  0
   -1.3889   -2.5799   -0.1118 O   0  0  0  0  0  0  0  0  0  0  0  0
   -0.6227   -0.4379   -1.2182 C   0  0  0  0  0  0  0  0  0  0  0  0
    2.8455   -1.1251    0.1219 H   0  0  0  0  0  0  0  0  0  0  0  0
    1.2553   -1.8863    0.3550 H   0  0  0  0  0  0  0  0  0  0  0  0
    2.0666   -1.1056    1.7333 H   0  0  0  0  0  0  0  0  0  0  0  0
    0.3867    2.4975   -0.3807 H   0  0  0  0  0  0  0  0  0  0  0  0
   -1.1928    2.2793    0.4812 H   0  0  0  0  0  0  0  0  0  0  0  0
   -1.0477    2.0492   -1.3296 H   0  0  0  0  0  0  0  0  0  0  0  0
   -2.2055    0.2527    0.6393 H   0  0  0  0  0  0  0  0  0  0  0  0
   -0.9024   -0.4448    1.7926 H   0  0  0  0  0  0  0  0  0  0  0  0
   -1.4483   -0.0058   -1.7986 H   0  0  0  0  0  0  0  0  0  0  0  0
    0.2559   -0.7763   -1.7933 H   0  0  0  0  0  0  0  0  0  0  0  0
  1  2  1  0
  2  3  2  0
  2  4  1  0
  4  5  1  0
  4  6  1  0
  6  7  1  0
  7  8  2  0
  7  9  1  0
  9  4  1  0
  1 10  1  0
  1 11  1  0
  1 12  1  0
  5 13  1  0
  5 14  1  0
  5 15  1  0
  6 16  1  0
  6 17  1  0
  9 18  1  0
  9 19  1  0
M  END
