
     RDKit          3D

 23 22  0  0  0  0  0  0  0  0999 V2000
    3.6930    0.3403    0.4906 C   0  0  0  0  0  0  0  0  0  0  0  0
    2.4325   -0.1061   -0.1372 C   0  0  0  0  0  0  0  0  0  0  0  0
    2.4796   -0.6843   -1.2096 O   0  0  0  0  0  0  0  0  0  0  0  0
    1.1314    0.1454    0.5268 C   0  0  0  0  0  0  0  0  0  0  0  0
   -0.0023   -0.4050   -0.3119 C   0  0  0  0  0  0  0  0  0  0  0  0
   -1.3459   -0.1816    0.3068 C   0  0  0  0  0  0  0  0  0  0  0  0
   -1.6987    1.2475    0.5320 C   0  0  0  0  0  0  0  0  0  0  0  0
   -2.3662   -0.8834   -0.6013 C   0  0  0  0  0  0  0  0  0  0  0  0
   -3.6173   -0.6664   -0.0112 O   0  0  0  0  0  0  0  0  0  0  0  0
    4.5368    0.3034   -0.2535 H   0  0  0  0  0  0  0  0  0  0  0  0
    3.6374    1.4113    0.8201 H   0  0  0  0  0  0  0  0  0  0  0  0
    3.9788   -0.2360    1.3803 H   0  0  0  0  0  0  0  0  0  0  0  0
    1.0325    1.2434    0.6277 H   0  0  0  0  0  0  0  0  0  0  0  0
    1.1644   -0.3190    1.5134 H   0  0  0  0  0  0  0  0  0  0  0  0
    0.0300    0.0384   -1.3283 H   0  0  0  0  0  0  0  0  0  0  0  0
    0.1232   -1.4983   -0.4528 H   0  0  0  0  0  0  0  0  0  0  0  0
   -1.3677   -0.7324    1.2808 H   0  0  0  0  0  0  0  0  0  0  0  0
   -0.9673    1.9174    0.0382 H   0  0  0  0  0  0  0  0  0  0  0  0
   -2.6853    1.4844    0.0900 H   0  0  0  0  0  0  0  0  0  0  0  0
   -1.7112    1.5367    1.6044 H   0  0  0  0  0  0  0  0  0  0  0  0
   -2.3673   -0.4578   -1.6101 H   0  0  0  0  0  0  0  0  0  0  0  0
   -2.1434   -1.9689   -0.6504 H   0  0  0  0  0  0  0  0  0  0  0  0
   -3.9667   -1.5289    0.2867 H   0  0  0  0  0  0  0  0  0  0  0  0
  1  2  1  0
  2  3  2  0
  2  4  1  0
  4  5  1  0
  5  6  1  0
  6  7  1  0
  6  8  1  0
  8  9  1  0
  1 10  1  0
  1 11  1  0
  1 12  1  0
  4 13  1  0
  4 14  1  0
  5 15  1  0
  5 16  1  0
  6 17  1  0
  7 18  1  0
  7 19  1  0
  7 20  1  0
  8 21  1  0
  8 22  1  0
  9 23  1  0
M  END
