
     RDKit          3D

 15 15  0  0  0  0  0  0  0  0999 V2000
   -2.3809    0.1009   -0.2353 C   0  0  0  0  0  0  0  0  0  0  0  0
   -0.9180    0.3112   -0.4613 C   0  0  0  0  0  0  0  0  0  0  0  0
   -0.6139    0.9913   -1.4255 O   0  0  0  0  0  0  0  0  0  0  0  0
    0.1035   -0.2841    0.4507 C   0  0  0  0  0  0  0  0  0  0  0  0
    1.2916    0.5592    0.7960 C   0  0  0  0  0  0  0  0  0  0  0  0
    1.4141   -0.7073   -0.0406 C   0  0  0  0  0  0  0  0  0  0  0  0
    1.8709   -0.4849   -1.3165 O   0  0  0  0  0  0  0  0  0  0  0  0
   -2.8314   -0.5756   -0.9813 H   0  0  0  0  0  0  0  0  0  0  0  0
   -2.4909   -0.3174    0.8073 H   0  0  0  0  0  0  0  0  0  0  0  0
   -2.9313    1.0743   -0.1986 H   0  0  0  0  0  0  0  0  0  0  0  0
   -0.3277   -0.8772    1.2831 H   0  0  0  0  0  0  0  0  0  0  0  0
    1.7013    0.5018    1.8205 H   0  0  0  0  0  0  0  0  0  0  0  0
    1.3581    1.5394    0.2725 H   0  0  0  0  0  0  0  0  0  0  0  0
    1.9081   -1.5937    0.4551 H   0  0  0  0  0  0  0  0  0  0  0  0
    2.8465   -0.2377   -1.2262 H   0  0  0  0  0  0  0  0  0  0  0  0
  1  2  1  0
  2  3  2  0
  2  4  1  0
  4  5  1  0
  5  6  1  0
  6  7  1  0
  6  4  1  0
  1  8  1  0
  1  9  1  0
  1 10  1  0
  4 11  1  0
  5 12  1  0
  5 13  1  0
  6 14  1  0
  7 15  1  0
M  END
