
     RDKit          3D

 25 24  0  0  0  0  0  0  0  0999 V2000
    2.3876    0.1228    1.7555 C   0  0  0  0  0  0  0  0  0  0  0  0
    1.9047   -0.4930    0.5012 C   0  0  0  0  0  0  0  0  0  0  0  0
    2.5871   -0.3868   -0.5070 O   0  0  0  0  0  0  0  0  0  0  0  0
    0.6295   -1.2249    0.4334 C   0  0  0  0  0  0  0  0  0  0  0  0
   -0.3198   -0.7062   -0.6298 C   0  0  0  0  0  0  0  0  0  0  0  0
    0.1975   -0.7491   -2.0198 C   0  0  0  0  0  0  0  0  0  0  0  0
   -0.8414    0.6413   -0.1973 C   0  0  0  0  0  0  0  0  0  0  0  0
   -1.7890    1.2590   -1.1609 C   0  0  0  0  0  0  0  0  0  0  0  0
   -1.5030    0.5694    1.1583 C   0  0  0  0  0  0  0  0  0  0  0  0
    3.1893   -0.4364    2.2717 H   0  0  0  0  0  0  0  0  0  0  0  0
    2.7609    1.1624    1.6154 H   0  0  0  0  0  0  0  0  0  0  0  0
    1.5478    0.2203    2.5079 H   0  0  0  0  0  0  0  0  0  0  0  0
    0.7611   -2.3453    0.3502 H   0  0  0  0  0  0  0  0  0  0  0  0
    0.0925   -1.0979    1.4239 H   0  0  0  0  0  0  0  0  0  0  0  0
   -1.2166   -1.4025   -0.5992 H   0  0  0  0  0  0  0  0  0  0  0  0
    0.5807   -1.7353   -2.2559 H   0  0  0  0  0  0  0  0  0  0  0  0
   -0.6544   -0.5218   -2.7099 H   0  0  0  0  0  0  0  0  0  0  0  0
    0.9695    0.0046   -2.2497 H   0  0  0  0  0  0  0  0  0  0  0  0
    0.0261    1.3354   -0.0861 H   0  0  0  0  0  0  0  0  0  0  0  0
   -2.6011    0.5496   -1.4360 H   0  0  0  0  0  0  0  0  0  0  0  0
   -2.3180    2.1009   -0.6140 H   0  0  0  0  0  0  0  0  0  0  0  0
   -1.3416    1.6984   -2.0600 H   0  0  0  0  0  0  0  0  0  0  0  0
   -1.9026   -0.4803    1.2624 H   0  0  0  0  0  0  0  0  0  0  0  0
   -2.3770    1.2471    1.2616 H   0  0  0  0  0  0  0  0  0  0  0  0
   -0.7698    0.6683    1.9841 H   0  0  0  0  0  0  0  0  0  0  0  0
  1  2  1  0
  2  3  2  0
  2  4  1  0
  4  5  1  0
  5  6  1  0
  5  7  1  0
  7  8  1  0
  7  9  1  0
  1 10  1  0
  1 11  1  0
  1 12  1  0
  4 13  1  0
  4 14  1  0
  5 15  1  0
  6 16  1  0
  6 17  1  0
  6 18  1  0
  7 19  1  0
  8 20  1  0
  8 21  1  0
  8 22  1  0
  9 23  1  0
  9 24  1  0
  9 25  1  0
M  END
