
     RDKit          3D

 23 23  0  0  0  0  0  0  0  0999 V2000
    3.2902    0.1097    0.0368 C   0  0  0  0  0  0  0  0  0  0  0  0
    2.0615   -0.7229   -0.1368 C   0  0  0  0  0  0  0  0  0  0  0  0
    1.9713   -1.8150    0.4054 O   0  0  0  0  0  0  0  0  0  0  0  0
    0.9533   -0.2015   -0.9783 C   0  0  0  0  0  0  0  0  0  0  0  0
   -0.1357    0.3744   -0.0858 C   0  0  0  0  0  0  0  0  0  0  0  0
   -0.6968   -0.6647    0.8429 C   0  0  0  0  0  0  0  0  0  0  0  0
   -2.2005   -0.5761    0.7812 C   0  0  0  0  0  0  0  0  0  0  0  0
   -2.4087    0.8211    0.1832 C   0  0  0  0  0  0  0  0  0  0  0  0
   -1.3380    0.7701   -0.9121 C   0  0  0  0  0  0  0  0  0  0  0  0
    3.4963    0.7398   -0.8468 H   0  0  0  0  0  0  0  0  0  0  0  0
    4.1786   -0.4993    0.2550 H   0  0  0  0  0  0  0  0  0  0  0  0
    3.1732    0.8209    0.8973 H   0  0  0  0  0  0  0  0  0  0  0  0
    1.3428    0.5819   -1.6509 H   0  0  0  0  0  0  0  0  0  0  0  0
    0.4954   -0.9991   -1.5991 H   0  0  0  0  0  0  0  0  0  0  0  0
    0.2370    1.2241    0.5152 H   0  0  0  0  0  0  0  0  0  0  0  0
   -0.4133   -0.4310    1.9041 H   0  0  0  0  0  0  0  0  0  0  0  0
   -0.3599   -1.6925    0.5797 H   0  0  0  0  0  0  0  0  0  0  0  0
   -2.6927   -0.6793    1.7498 H   0  0  0  0  0  0  0  0  0  0  0  0
   -2.6191   -1.2702    0.0182 H   0  0  0  0  0  0  0  0  0  0  0  0
   -2.1029    1.5359    0.9712 H   0  0  0  0  0  0  0  0  0  0  0  0
   -3.4096    0.9678   -0.2161 H   0  0  0  0  0  0  0  0  0  0  0  0
   -1.2240    1.7102   -1.4442 H   0  0  0  0  0  0  0  0  0  0  0  0
   -1.5984   -0.1044   -1.5398 H   0  0  0  0  0  0  0  0  0  0  0  0
  1  2  1  0
  2  3  2  0
  2  4  1  0
  4  5  1  0
  5  6  1  0
  6  7  1  0
  7  8  1  0
  8  9  1  0
  9  5  1  0
  1 10  1  0
  1 11  1  0
  1 12  1  0
  4 13  1  0
  4 14  1  0
  5 15  1  0
  6 16  1  0
  6 17  1  0
  7 18  1  0
  7 19  1  0
  8 20  1  0
  8 21  1  0
  9 22  1  0
  9 23  1  0
M  END
