
     RDKit          3D

 21 21  0  0  0  0  0  0  0  0999 V2000
    2.3567   -0.5645   -0.2451 C   0  0  0  0  0  0  0  0  0  0  0  0
    1.5288   -0.1232    0.9086 C   0  0  0  0  0  0  0  0  0  0  0  0
    2.0462   -0.2255    2.0104 O   0  0  0  0  0  0  0  0  0  0  0  0
    0.1624    0.4121    0.7831 C   0  0  0  0  0  0  0  0  0  0  0  0
    0.0256    1.6645   -0.0519 C   0  0  0  0  0  0  0  0  0  0  0  0
   -0.8499    0.9066   -1.0063 C   0  0  0  0  0  0  0  0  0  0  0  0
   -0.7631   -0.3258   -0.1459 C   0  0  0  0  0  0  0  0  0  0  0  0
   -2.0738   -0.7612    0.4763 C   0  0  0  0  0  0  0  0  0  0  0  0
   -0.1823   -1.3664   -0.8604 O   0  0  0  0  0  0  0  0  0  0  0  0
    2.2835   -1.6687   -0.2895 H   0  0  0  0  0  0  0  0  0  0  0  0
    3.4275   -0.3230   -0.0724 H   0  0  0  0  0  0  0  0  0  0  0  0
    2.0718   -0.0745   -1.1952 H   0  0  0  0  0  0  0  0  0  0  0  0
   -0.3296    0.5361    1.7696 H   0  0  0  0  0  0  0  0  0  0  0  0
   -0.5044    2.5017    0.4812 H   0  0  0  0  0  0  0  0  0  0  0  0
    0.9904    2.0238   -0.4487 H   0  0  0  0  0  0  0  0  0  0  0  0
   -1.8898    1.2861   -1.1026 H   0  0  0  0  0  0  0  0  0  0  0  0
   -0.3476    0.8134   -2.0087 H   0  0  0  0  0  0  0  0  0  0  0  0
   -2.3277   -1.8080    0.1843 H   0  0  0  0  0  0  0  0  0  0  0  0
   -2.8729   -0.0394    0.2489 H   0  0  0  0  0  0  0  0  0  0  0  0
   -1.9549   -0.7449    1.5914 H   0  0  0  0  0  0  0  0  0  0  0  0
   -0.7966   -2.1192   -1.0270 H   0  0  0  0  0  0  0  0  0  0  0  0
  1  2  1  0
  2  3  2  0
  2  4  1  0
  4  5  1  0
  5  6  1  0
  6  7  1  0
  7  8  1  0
  7  9  1  0
  7  4  1  0
  1 10  1  0
  1 11  1  0
  1 12  1  0
  4 13  1  0
  5 14  1  0
  5 15  1  0
  6 16  1  0
  6 17  1  0
  8 18  1  0
  8 19  1  0
  8 20  1  0
  9 21  1  0
M  END
