
     RDKit          3D

 17 17  0  0  0  0  0  0  0  0999 V2000
   -2.1795    0.4988   -0.4062 C   0  0  0  0  0  0  0  0  0  0  0  0
   -0.9428    0.3962    0.4079 C   0  0  0  0  0  0  0  0  0  0  0  0
   -0.8638    1.0906    1.4006 O   0  0  0  0  0  0  0  0  0  0  0  0
    0.1821   -0.4953    0.0769 C   0  0  0  0  0  0  0  0  0  0  0  0
    1.4829   -0.1659    0.7956 C   0  0  0  0  0  0  0  0  0  0  0  0
    1.8771    1.2103    0.4233 C   0  0  0  0  0  0  0  0  0  0  0  0
    1.1683    1.8104   -0.3893 O   0  0  0  0  0  0  0  0  0  0  0  0
    0.2023   -1.3789   -1.0189 C   0  0  0  0  0  0  0  0  0  0  0  0
   -0.2505   -1.8993    0.3178 O   0  0  0  0  0  0  0  0  0  0  0  0
   -2.1686   -0.1315   -1.3149 H   0  0  0  0  0  0  0  0  0  0  0  0
   -3.0440    0.1469    0.2192 H   0  0  0  0  0  0  0  0  0  0  0  0
   -2.3364    1.5533   -0.6883 H   0  0  0  0  0  0  0  0  0  0  0  0
    1.2957   -0.1535    1.8924 H   0  0  0  0  0  0  0  0  0  0  0  0
    2.3159   -0.8216    0.5054 H   0  0  0  0  0  0  0  0  0  0  0  0
    2.7383    1.7319    0.8099 H   0  0  0  0  0  0  0  0  0  0  0  0
   -0.5986   -1.4454   -1.7672 H   0  0  0  0  0  0  0  0  0  0  0  0
    1.1217   -1.9471   -1.2643 H   0  0  0  0  0  0  0  0  0  0  0  0
  1  2  1  0
  2  3  2  0
  2  4  1  0
  4  5  1  0
  5  6  1  0
  6  7  2  0
  4  8  1  0
  8  9  1  0
  9  4  1  0
  1 10  1  0
  1 11  1  0
  1 12  1  0
  5 13  1  0
  5 14  1  0
  6 15  1  0
  8 16  1  0
  8 17  1  0
M  END
