
     RDKit          3D

 21 21  0  0  0  0  0  0  0  0999 V2000
   -2.9971    0.2145   -0.1223 C   0  0  0  0  0  0  0  0  0  0  0  0
   -1.9202   -0.1447    0.8638 C   0  0  0  0  0  0  0  0  0  0  0  0
   -2.2018   -0.0490    2.0379 O   0  0  0  0  0  0  0  0  0  0  0  0
   -0.6264   -0.5783    0.3229 C   0  0  0  0  0  0  0  0  0  0  0  0
   -0.0340    0.5411   -0.5370 C   0  0  0  0  0  0  0  0  0  0  0  0
    1.2779    0.3219    0.1717 C   0  0  0  0  0  0  0  0  0  0  0  0
    2.3092   -0.4542   -0.6079 C   0  0  0  0  0  0  0  0  0  0  0  0
    2.6599    0.1470   -1.7913 O   0  0  0  0  0  0  0  0  0  0  0  0
    0.5570   -0.5130    1.2117 C   0  0  0  0  0  0  0  0  0  0  0  0
   -3.4293    1.1971    0.1214 H   0  0  0  0  0  0  0  0  0  0  0  0
   -2.6254    0.2541   -1.1512 H   0  0  0  0  0  0  0  0  0  0  0  0
   -3.7377   -0.6114   -0.0726 H   0  0  0  0  0  0  0  0  0  0  0  0
   -0.7358   -1.5397   -0.2309 H   0  0  0  0  0  0  0  0  0  0  0  0
   -0.0708    0.3051   -1.5960 H   0  0  0  0  0  0  0  0  0  0  0  0
   -0.4316    1.5583   -0.2632 H   0  0  0  0  0  0  0  0  0  0  0  0
    1.7371    1.2345    0.6149 H   0  0  0  0  0  0  0  0  0  0  0  0
    1.9917   -1.4955   -0.8190 H   0  0  0  0  0  0  0  0  0  0  0  0
    3.2094   -0.5319    0.0369 H   0  0  0  0  0  0  0  0  0  0  0  0
    3.5192    0.5918   -1.7070 H   0  0  0  0  0  0  0  0  0  0  0  0
    0.4738   -0.0210    2.1753 H   0  0  0  0  0  0  0  0  0  0  0  0
    1.0750   -1.4990    1.3419 H   0  0  0  0  0  0  0  0  0  0  0  0
  1  2  1  0
  2  3  2  0
  2  4  1  0
  4  5  1  0
  5  6  1  0
  6  7  1  0
  7  8  1  0
  6  9  1  0
  9  4  1  0
  1 10  1  0
  1 11  1  0
  1 12  1  0
  4 13  1  0
  5 14  1  0
  5 15  1  0
  6 16  1  0
  7 17  1  0
  7 18  1  0
  8 19  1  0
  9 20  1  0
  9 21  1  0
M  END
