
     RDKit          3D

 17 18  0  0  0  0  0  0  0  0999 V2000
    2.6260   -0.3380    0.2752 C   0  0  0  0  0  0  0  0  0  0  0  0
    1.3906    0.4841    0.3186 C   0  0  0  0  0  0  0  0  0  0  0  0
    1.4928    1.7016    0.1876 O   0  0  0  0  0  0  0  0  0  0  0  0
    0.0318   -0.0668    0.5105 C   0  0  0  0  0  0  0  0  0  0  0  0
   -0.4117   -1.0426   -0.5305 C   0  0  0  0  0  0  0  0  0  0  0  0
    0.0547   -1.9204   -1.1872 O   0  0  0  0  0  0  0  0  0  0  0  0
   -1.8069   -0.4908   -0.4752 C   0  0  0  0  0  0  0  0  0  0  0  0
   -2.3259    0.7689    0.0709 C   0  0  0  0  0  0  0  0  0  0  0  0
   -1.0139    0.7064   -0.2669 C   0  0  0  0  0  0  0  0  0  0  0  0
    2.5061   -1.3067    0.8183 H   0  0  0  0  0  0  0  0  0  0  0  0
    3.4138    0.2333    0.8413 H   0  0  0  0  0  0  0  0  0  0  0  0
    2.9636   -0.4545   -0.7562 H   0  0  0  0  0  0  0  0  0  0  0  0
   -0.2369   -0.3468    1.5309 H   0  0  0  0  0  0  0  0  0  0  0  0
   -2.3452   -1.2530    0.0274 H   0  0  0  0  0  0  0  0  0  0  0  0
   -2.6546    0.9138    1.1431 H   0  0  0  0  0  0  0  0  0  0  0  0
   -3.0923    1.2633   -0.6007 H   0  0  0  0  0  0  0  0  0  0  0  0
   -0.5921    1.1482   -1.1993 H   0  0  0  0  0  0  0  0  0  0  0  0
  1  2  1  0
  2  3  2  0
  2  4  1  0
  4  5  1  0
  5  6  2  0
  5  7  1  0
  7  8  1  0
  8  9  1  0
  9  4  1  0
  9  7  1  0
  1 10  1  0
  1 11  1  0
  1 12  1  0
  4 13  1  0
  7 14  1  0
  8 15  1  0
  8 16  1  0
  9 17  1  0
M  END
