
     RDKit          3D

 18 18  0  0  0  0  0  0  0  0999 V2000
    2.7153   -0.6146    0.3330 C   0  0  0  0  0  0  0  0  0  0  0  0
    2.1265   -0.0107   -0.8925 C   0  0  0  0  0  0  0  0  0  0  0  0
    2.8609    0.2553   -1.8264 O   0  0  0  0  0  0  0  0  0  0  0  0
    0.6835    0.2781   -1.0183 C   0  0  0  0  0  0  0  0  0  0  0  0
   -0.0383   -0.0651    0.0972 O   0  0  0  0  0  0  0  0  0  0  0  0
   -1.3721    0.2286   -0.0835 C   0  0  0  0  0  0  0  0  0  0  0  0
   -2.4392   -0.6239    0.5059 C   0  0  0  0  0  0  0  0  0  0  0  0
   -2.1374    0.7624    1.0700 C   0  0  0  0  0  0  0  0  0  0  0  0
    3.6906   -1.0819    0.1368 H   0  0  0  0  0  0  0  0  0  0  0  0
    2.7971    0.1978    1.0836 H   0  0  0  0  0  0  0  0  0  0  0  0
    1.9703   -1.3376    0.7203 H   0  0  0  0  0  0  0  0  0  0  0  0
    0.2412   -0.1674   -1.9525 H   0  0  0  0  0  0  0  0  0  0  0  0
    0.5875    1.3859   -1.1693 H   0  0  0  0  0  0  0  0  0  0  0  0
   -1.6118    0.6739   -1.0642 H   0  0  0  0  0  0  0  0  0  0  0  0
   -3.4022   -0.7012   -0.0374 H   0  0  0  0  0  0  0  0  0  0  0  0
   -2.0965   -1.5063    1.1050 H   0  0  0  0  0  0  0  0  0  0  0  0
   -2.8624    1.5704    0.8999 H   0  0  0  0  0  0  0  0  0  0  0  0
   -1.7130    0.7564    2.0925 H   0  0  0  0  0  0  0  0  0  0  0  0
  1  2  1  0
  2  3  2  0
  2  4  1  0
  4  5  1  0
  5  6  1  0
  6  7  1  0
  7  8  1  0
  8  6  1  0
  1  9  1  0
  1 10  1  0
  1 11  1  0
  4 12  1  0
  4 13  1  0
  6 14  1  0
  7 15  1  0
  7 16  1  0
  8 17  1  0
  8 18  1  0
M  END
