
     RDKit          3D

 17 17  0  0  0  0  0  0  0  0999 V2000
    2.2271   -0.2995   -0.5329 C   0  0  0  0  0  0  0  0  0  0  0  0
    1.3706   -0.6707    0.6221 C   0  0  0  0  0  0  0  0  0  0  0  0
    1.8111   -1.4539    1.4396 O   0  0  0  0  0  0  0  0  0  0  0  0
    0.0013   -0.1367    0.8350 C   0  0  0  0  0  0  0  0  0  0  0  0
   -0.2649    1.2734    0.4374 C   0  0  0  0  0  0  0  0  0  0  0  0
   -0.8135    0.1153   -0.3783 C   0  0  0  0  0  0  0  0  0  0  0  0
   -2.3235   -0.0042   -0.3242 C   0  0  0  0  0  0  0  0  0  0  0  0
    1.6581   -0.3576   -1.5047 H   0  0  0  0  0  0  0  0  0  0  0  0
    2.6213    0.7359   -0.4387 H   0  0  0  0  0  0  0  0  0  0  0  0
    3.0386   -1.0460   -0.6443 H   0  0  0  0  0  0  0  0  0  0  0  0
   -0.5189   -0.5030    1.7450 H   0  0  0  0  0  0  0  0  0  0  0  0
   -0.9335    1.8608    1.0750 H   0  0  0  0  0  0  0  0  0  0  0  0
    0.6145    1.8305    0.0315 H   0  0  0  0  0  0  0  0  0  0  0  0
   -0.3454   -0.0297   -1.3725 H   0  0  0  0  0  0  0  0  0  0  0  0
   -2.6515   -0.7959    0.3689 H   0  0  0  0  0  0  0  0  0  0  0  0
   -2.7037   -0.2598   -1.3306 H   0  0  0  0  0  0  0  0  0  0  0  0
   -2.7877    0.9517   -0.0282 H   0  0  0  0  0  0  0  0  0  0  0  0
  1  2  1  0
  2  3  2  0
  2  4  1  0
  4  5  1  0
  5  6  1  0
  6  7  1  0
  6  4  1  0
  1  8  1  0
  1  9  1  0
  1 10  1  0
  4 11  1  0
  5 12  1  0
  5 13  1  0
  6 14  1  0
  7 15  1  0
  7 16  1  0
  7 17  1  0
M  END
