
     RDKit          3D

 19 19  0  0  0  0  0  0  0  0999 V2000
    1.8731   -1.3354    0.2591 C   0  0  0  0  0  0  0  0  0  0  0  0
    0.7567   -0.6427   -0.4325 C   0  0  0  0  0  0  0  0  0  0  0  0
    0.3689   -1.1499   -1.4776 O   0  0  0  0  0  0  0  0  0  0  0  0
    0.1065    0.5790    0.0454 C   0  0  0  0  0  0  0  0  0  0  0  0
    0.2897    1.7552   -0.8952 C   0  0  0  0  0  0  0  0  0  0  0  0
    0.7053    0.9947    1.2579 O   0  0  0  0  0  0  0  0  0  0  0  0
   -1.3732    0.4132    0.2441 C   0  0  0  0  0  0  0  0  0  0  0  0
   -2.1085   -0.7826   -0.0629 C   0  0  0  0  0  0  0  0  0  0  0  0
   -1.6822   -0.6022    1.2877 O   0  0  0  0  0  0  0  0  0  0  0  0
    2.8561   -0.8906    0.0500 H   0  0  0  0  0  0  0  0  0  0  0  0
    1.7499   -1.3125    1.3777 H   0  0  0  0  0  0  0  0  0  0  0  0
    1.9289   -2.4056   -0.0314 H   0  0  0  0  0  0  0  0  0  0  0  0
   -0.3846    2.5731   -0.5521 H   0  0  0  0  0  0  0  0  0  0  0  0
   -0.0987    1.4272   -1.8822 H   0  0  0  0  0  0  0  0  0  0  0  0
    1.3200    2.1264   -0.9206 H   0  0  0  0  0  0  0  0  0  0  0  0
    0.5632    0.3278    1.9734 H   0  0  0  0  0  0  0  0  0  0  0  0
   -1.9505    1.3228    0.5089 H   0  0  0  0  0  0  0  0  0  0  0  0
   -1.7074   -1.6830   -0.5503 H   0  0  0  0  0  0  0  0  0  0  0  0
   -3.2132   -0.7149   -0.1346 H   0  0  0  0  0  0  0  0  0  0  0  0
  1  2  1  0
  2  3  2  0
  2  4  1  0
  4  5  1  0
  4  6  1  0
  4  7  1  0
  7  8  1  0
  8  9  1  0
  9  7  1  0
  1 10  1  0
  1 11  1  0
  1 12  1  0
  5 13  1  0
  5 14  1  0
  5 15  1  0
  6 16  1  0
  7 17  1  0
  8 18  1  0
  8 19  1  0
M  END
