
     RDKit          3D

 17 18  0  0  0  0  0  0  0  0999 V2000
    2.4781   -0.1037   -0.3620 C   0  0  0  0  0  0  0  0  0  0  0  0
    1.2706    0.6761   -0.6707 C   0  0  0  0  0  0  0  0  0  0  0  0
    1.2756    1.3880   -1.6475 O   0  0  0  0  0  0  0  0  0  0  0  0
    0.0821    0.5708    0.2192 C   0  0  0  0  0  0  0  0  0  0  0  0
   -0.9752    1.3415   -0.1711 O   0  0  0  0  0  0  0  0  0  0  0  0
   -2.0558    0.5581   -0.4398 C   0  0  0  0  0  0  0  0  0  0  0  0
   -1.8724   -0.7877    0.1531 C   0  0  0  0  0  0  0  0  0  0  0  0
   -1.3463   -0.9905    1.3995 O   0  0  0  0  0  0  0  0  0  0  0  0
   -0.3722   -0.8307    0.4263 C   0  0  0  0  0  0  0  0  0  0  0  0
    3.4196    0.4728   -0.4829 H   0  0  0  0  0  0  0  0  0  0  0  0
    2.5254   -0.9640   -1.0420 H   0  0  0  0  0  0  0  0  0  0  0  0
    2.4908   -0.4778    0.6999 H   0  0  0  0  0  0  0  0  0  0  0  0
    0.4247    0.9593    1.2231 H   0  0  0  0  0  0  0  0  0  0  0  0
   -2.9685    1.0873   -0.0804 H   0  0  0  0  0  0  0  0  0  0  0  0
   -2.1747    0.4409   -1.5421 H   0  0  0  0  0  0  0  0  0  0  0  0
   -2.3347   -1.6553   -0.3763 H   0  0  0  0  0  0  0  0  0  0  0  0
    0.1331   -1.6851   -0.0254 H   0  0  0  0  0  0  0  0  0  0  0  0
  1  2  1  0
  2  3  2  0
  2  4  1  0
  4  5  1  0
  5  6  1  0
  6  7  1  0
  7  8  1  0
  8  9  1  0
  9  4  1  0
  9  7  1  0
  1 10  1  0
  1 11  1  0
  1 12  1  0
  4 13  1  0
  6 14  1  0
  6 15  1  0
  7 16  1  0
  9 17  1  0
M  END
