
     RDKit          3D

 18 18  0  0  0  0  0  0  0  0999 V2000
    3.3017   -0.2041    0.5397 C   0  0  0  0  0  0  0  0  0  0  0  0
    2.0135    0.4653    0.2763 C   0  0  0  0  0  0  0  0  0  0  0  0
    1.9107    1.7014    0.3928 O   0  0  0  0  0  0  0  0  0  0  0  0
    0.9057   -0.2861   -0.1046 O   0  0  0  0  0  0  0  0  0  0  0  0
   -0.3454    0.2958   -0.3684 C   0  0  0  0  0  0  0  0  0  0  0  0
   -1.2160   -0.2255   -1.4707 C   0  0  0  0  0  0  0  0  0  0  0  0
   -1.5943   -0.5096   -0.0610 C   0  0  0  0  0  0  0  0  0  0  0  0
   -2.6683    0.3016    0.6203 C   0  0  0  0  0  0  0  0  0  0  0  0
    3.8528   -0.3304   -0.4043 H   0  0  0  0  0  0  0  0  0  0  0  0
    3.8630    0.4293    1.2593 H   0  0  0  0  0  0  0  0  0  0  0  0
    3.1347   -1.1862    1.0507 H   0  0  0  0  0  0  0  0  0  0  0  0
   -0.3658    1.3887   -0.2467 H   0  0  0  0  0  0  0  0  0  0  0  0
   -0.7697   -1.0288   -2.0745 H   0  0  0  0  0  0  0  0  0  0  0  0
   -1.8653    0.4675   -2.0408 H   0  0  0  0  0  0  0  0  0  0  0  0
   -1.4361   -1.5355    0.3299 H   0  0  0  0  0  0  0  0  0  0  0  0
   -2.1601    1.0207    1.2973 H   0  0  0  0  0  0  0  0  0  0  0  0
   -3.3778   -0.3336    1.1870 H   0  0  0  0  0  0  0  0  0  0  0  0
   -3.1833    0.8867   -0.1823 H   0  0  0  0  0  0  0  0  0  0  0  0
  1  2  1  0
  2  3  2  0
  2  4  1  0
  4  5  1  0
  5  6  1  0
  6  7  1  0
  7  8  1  0
  7  5  1  0
  1  9  1  0
  1 10  1  0
  1 11  1  0
  5 12  1  0
  6 13  1  0
  6 14  1  0
  7 15  1  0
  8 16  1  0
  8 17  1  0
  8 18  1  0
M  END
