
     RDKit          3D

 16 15  0  0  0  0  0  0  0  0999 V2000
    1.8529   -0.8500   -0.1454 C   0  0  0  0  0  0  0  0  0  0  0  0
    0.3934   -0.8641   -0.4398 C   0  0  0  0  0  0  0  0  0  0  0  0
   -0.0778   -1.5583   -1.2904 O   0  0  0  0  0  0  0  0  0  0  0  0
   -0.4660    0.0265    0.3718 C   0  0  0  0  0  0  0  0  0  0  0  0
   -1.8921   -0.1168   -0.0569 C   0  0  0  0  0  0  0  0  0  0  0  0
    0.0599    1.4312    0.2206 C   0  0  0  0  0  0  0  0  0  0  0  0
    2.3797   -0.0114   -0.6509 H   0  0  0  0  0  0  0  0  0  0  0  0
    1.9725   -0.7282    0.9312 H   0  0  0  0  0  0  0  0  0  0  0  0
    2.2444   -1.8431   -0.5106 H   0  0  0  0  0  0  0  0  0  0  0  0
   -0.4229   -0.2396    1.4631 H   0  0  0  0  0  0  0  0  0  0  0  0
   -2.5825    0.4621    0.5902 H   0  0  0  0  0  0  0  0  0  0  0  0
   -2.1695   -1.1847    0.0591 H   0  0  0  0  0  0  0  0  0  0  0  0
   -1.9960    0.1736   -1.1284 H   0  0  0  0  0  0  0  0  0  0  0  0
   -0.2233    2.0378    1.1008 H   0  0  0  0  0  0  0  0  0  0  0  0
    1.1680    1.3761    0.2248 H   0  0  0  0  0  0  0  0  0  0  0  0
   -0.2406    1.8890   -0.7391 H   0  0  0  0  0  0  0  0  0  0  0  0
  1  2  1  0
  2  3  2  0
  2  4  1  0
  4  5  1  0
  4  6  1  0
  1  7  1  0
  1  8  1  0
  1  9  1  0
  4 10  1  0
  5 11  1  0
  5 12  1  0
  5 13  1  0
  6 14  1  0
  6 15  1  0
  6 16  1  0
M  END
