
     RDKit          3D

 19 20  0  0  0  0  0  0  0  0999 V2000
    2.4712   -0.5406   -0.6340 C   0  0  0  0  0  0  0  0  0  0  0  0
    1.0937   -0.0587   -0.9446 C   0  0  0  0  0  0  0  0  0  0  0  0
    0.6665   -0.2111   -2.0702 O   0  0  0  0  0  0  0  0  0  0  0  0
    0.2853    0.5868    0.1099 C   0  0  0  0  0  0  0  0  0  0  0  0
    0.0161   -0.2941    1.3242 C   0  0  0  0  0  0  0  0  0  0  0  0
   -1.4507   -0.3187    1.0257 C   0  0  0  0  0  0  0  0  0  0  0  0
   -1.9638   -0.6512   -0.3219 C   0  0  0  0  0  0  0  0  0  0  0  0
   -1.1861    0.6084   -0.1464 C   0  0  0  0  0  0  0  0  0  0  0  0
   -1.8301    1.8351   -0.1984 O   0  0  0  0  0  0  0  0  0  0  0  0
    3.2422    0.2174   -0.9480 H   0  0  0  0  0  0  0  0  0  0  0  0
    2.5106   -0.7579    0.4368 H   0  0  0  0  0  0  0  0  0  0  0  0
    2.7184   -1.4623   -1.2294 H   0  0  0  0  0  0  0  0  0  0  0  0
    0.6501    1.6051    0.3635 H   0  0  0  0  0  0  0  0  0  0  0  0
    0.5426   -1.2688    1.2780 H   0  0  0  0  0  0  0  0  0  0  0  0
    0.2530    0.2704    2.2502 H   0  0  0  0  0  0  0  0  0  0  0  0
   -2.1499   -0.0072    1.8093 H   0  0  0  0  0  0  0  0  0  0  0  0
   -1.5702   -1.5002   -0.9098 H   0  0  0  0  0  0  0  0  0  0  0  0
   -3.0537   -0.5007   -0.4623 H   0  0  0  0  0  0  0  0  0  0  0  0
   -1.2449    2.4481   -0.7327 H   0  0  0  0  0  0  0  0  0  0  0  0
  1  2  1  0
  2  3  2  0
  2  4  1  0
  4  5  1  0
  5  6  1  0
  6  7  1  0
  7  8  1  0
  8  9  1  0
  8  4  1  0
  8  6  1  0
  1 10  1  0
  1 11  1  0
  1 12  1  0
  4 13  1  0
  5 14  1  0
  5 15  1  0
  6 16  1  0
  7 17  1  0
  7 18  1  0
  9 19  1  0
M  END
