
     RDKit          3D

 16 17  0  0  0  0  0  0  0  0999 V2000
   -2.6583    0.2447   -0.3929 C   0  0  0  0  0  0  0  0  0  0  0  0
   -1.3694   -0.3024    0.0816 C   0  0  0  0  0  0  0  0  0  0  0  0
   -1.3818   -1.1913    0.9015 O   0  0  0  0  0  0  0  0  0  0  0  0
   -0.0836    0.2111   -0.4216 C   0  0  0  0  0  0  0  0  0  0  0  0
    1.1053    0.2466    0.4580 C   0  0  0  0  0  0  0  0  0  0  0  0
    2.4730    0.3600   -0.1349 C   0  0  0  0  0  0  0  0  0  0  0  0
    2.1965   -0.5235   -1.1597 O   0  0  0  0  0  0  0  0  0  0  0  0
    0.9993   -0.8322   -0.5624 C   0  0  0  0  0  0  0  0  0  0  0  0
   -3.4667   -0.5086   -0.4488 H   0  0  0  0  0  0  0  0  0  0  0  0
   -2.9290    1.0834    0.2815 H   0  0  0  0  0  0  0  0  0  0  0  0
   -2.4758    0.6035   -1.4471 H   0  0  0  0  0  0  0  0  0  0  0  0
   -0.1195    1.0375   -1.1826 H   0  0  0  0  0  0  0  0  0  0  0  0
    0.9595    0.0593    1.5259 H   0  0  0  0  0  0  0  0  0  0  0  0
    3.3062   -0.0134    0.4888 H   0  0  0  0  0  0  0  0  0  0  0  0
    2.6697    1.4021   -0.4939 H   0  0  0  0  0  0  0  0  0  0  0  0
    0.7747   -1.8770   -0.2576 H   0  0  0  0  0  0  0  0  0  0  0  0
  1  2  1  0
  2  3  2  0
  2  4  1  0
  4  5  1  0
  5  6  1  0
  6  7  1  0
  7  8  1  0
  8  4  1  0
  8  5  1  0
  1  9  1  0
  1 10  1  0
  1 11  1  0
  4 12  1  0
  5 13  1  0
  6 14  1  0
  6 15  1  0
  8 16  1  0
M  END
