
     RDKit          3D

 19 19  0  0  0  0  0  0  0  0999 V2000
    2.3495   -0.6440    0.7409 C   0  0  0  0  0  0  0  0  0  0  0  0
    1.7779    0.3495   -0.2009 C   0  0  0  0  0  0  0  0  0  0  0  0
    2.5100    1.3315   -0.4224 O   0  0  0  0  0  0  0  0  0  0  0  0
    0.4656    0.2345   -0.8423 C   0  0  0  0  0  0  0  0  0  0  0  0
   -0.7255    0.4077    0.0372 C   0  0  0  0  0  0  0  0  0  0  0  0
   -0.8047    1.6325    0.7085 O   0  0  0  0  0  0  0  0  0  0  0  0
   -1.2140   -0.7182    0.8460 C   0  0  0  0  0  0  0  0  0  0  0  0
   -2.3877   -0.8432    0.0702 O   0  0  0  0  0  0  0  0  0  0  0  0
   -1.9885    0.1497   -0.7991 C   0  0  0  0  0  0  0  0  0  0  0  0
    3.0480   -1.3239    0.1911 H   0  0  0  0  0  0  0  0  0  0  0  0
    2.9649   -0.0574    1.4977 H   0  0  0  0  0  0  0  0  0  0  0  0
    1.6260   -1.2630    1.2556 H   0  0  0  0  0  0  0  0  0  0  0  0
    0.3402   -0.6844   -1.4419 H   0  0  0  0  0  0  0  0  0  0  0  0
    0.3946    1.0732   -1.6064 H   0  0  0  0  0  0  0  0  0  0  0  0
   -1.6800    1.7305    1.1374 H   0  0  0  0  0  0  0  0  0  0  0  0
   -1.5530   -0.4843    1.9000 H   0  0  0  0  0  0  0  0  0  0  0  0
   -0.6424   -1.6611    0.8988 H   0  0  0  0  0  0  0  0  0  0  0  0
   -1.8103   -0.2532   -1.8121 H   0  0  0  0  0  0  0  0  0  0  0  0
   -2.6708    1.0236   -0.8564 H   0  0  0  0  0  0  0  0  0  0  0  0
  1  2  1  0
  2  3  2  0
  2  4  1  0
  4  5  1  0
  5  6  1  0
  5  7  1  0
  7  8  1  0
  8  9  1  0
  9  5  1  0
  1 10  1  0
  1 11  1  0
  1 12  1  0
  4 13  1  0
  4 14  1  0
  6 15  1  0
  7 16  1  0
  7 17  1  0
  9 18  1  0
  9 19  1  0
M  END
