
     RDKit          3D

 19 19  0  0  0  0  0  0  0  0999 V2000
    2.4795    0.2699    0.4331 C   0  0  0  0  0  0  0  0  0  0  0  0
    1.3662   -0.6861    0.2183 C   0  0  0  0  0  0  0  0  0  0  0  0
    1.4544   -1.7951    0.6956 O   0  0  0  0  0  0  0  0  0  0  0  0
    0.2089   -0.2243   -0.5704 C   0  0  0  0  0  0  0  0  0  0  0  0
   -0.9053   -1.2086   -0.7744 C   0  0  0  0  0  0  0  0  0  0  0  0
   -1.5233   -0.7247    0.5221 C   0  0  0  0  0  0  0  0  0  0  0  0
   -0.7270    0.5666    0.3346 C   0  0  0  0  0  0  0  0  0  0  0  0
   -1.4481    1.6589   -0.3215 C   0  0  0  0  0  0  0  0  0  0  0  0
   -1.5889    2.7563    0.2282 O   0  0  0  0  0  0  0  0  0  0  0  0
    2.9943    0.4861   -0.5396 H   0  0  0  0  0  0  0  0  0  0  0  0
    2.0893    1.2766    0.7649 H   0  0  0  0  0  0  0  0  0  0  0  0
    3.1993   -0.0521    1.1935 H   0  0  0  0  0  0  0  0  0  0  0  0
    0.5496    0.3259   -1.4645 H   0  0  0  0  0  0  0  0  0  0  0  0
   -1.5269   -0.8751   -1.6554 H   0  0  0  0  0  0  0  0  0  0  0  0
   -0.6468   -2.2631   -0.8274 H   0  0  0  0  0  0  0  0  0  0  0  0
   -1.1747   -1.3583    1.3500 H   0  0  0  0  0  0  0  0  0  0  0  0
   -2.6148   -0.6091    0.4194 H   0  0  0  0  0  0  0  0  0  0  0  0
   -0.2925    0.8777    1.2983 H   0  0  0  0  0  0  0  0  0  0  0  0
   -1.8932    1.5785   -1.3047 H   0  0  0  0  0  0  0  0  0  0  0  0
  1  2  1  0
  2  3  2  0
  2  4  1  0
  4  5  1  0
  5  6  1  0
  6  7  1  0
  7  8  1  0
  8  9  2  0
  7  4  1  0
  1 10  1  0
  1 11  1  0
  1 12  1  0
  4 13  1  0
  5 14  1  0
  5 15  1  0
  6 16  1  0
  6 17  1  0
  7 18  1  0
  8 19  1  0
M  END
