
     RDKit          3D

 19 19  0  0  0  0  0  0  0  0999 V2000
   -2.7415   -0.6223   -0.0145 C   0  0  0  0  0  0  0  0  0  0  0  0
   -1.3950   -0.6807   -0.6175 C   0  0  0  0  0  0  0  0  0  0  0  0
   -1.0484   -1.6784   -1.2046 O   0  0  0  0  0  0  0  0  0  0  0  0
   -0.4966    0.4909   -0.4877 C   0  0  0  0  0  0  0  0  0  0  0  0
   -1.0925    1.5011    0.2116 O   0  0  0  0  0  0  0  0  0  0  0  0
    0.7936    0.0148    0.1065 C   0  0  0  0  0  0  0  0  0  0  0  0
    2.0090    0.8505   -0.1578 C   0  0  0  0  0  0  0  0  0  0  0  0
    2.6103   -0.5347   -0.0222 C   0  0  0  0  0  0  0  0  0  0  0  0
    1.4221   -1.0176   -0.5898 O   0  0  0  0  0  0  0  0  0  0  0  0
   -2.9952   -1.5519    0.5574 H   0  0  0  0  0  0  0  0  0  0  0  0
   -2.8367    0.2256    0.7111 H   0  0  0  0  0  0  0  0  0  0  0  0
   -3.4721   -0.5332   -0.8478 H   0  0  0  0  0  0  0  0  0  0  0  0
   -0.2875    0.8369   -1.5380 H   0  0  0  0  0  0  0  0  0  0  0  0
   -1.8853    1.8093   -0.2781 H   0  0  0  0  0  0  0  0  0  0  0  0
    0.7513   -0.2676    1.1769 H   0  0  0  0  0  0  0  0  0  0  0  0
    2.3437    1.5016    0.6683 H   0  0  0  0  0  0  0  0  0  0  0  0
    2.1472    1.2259   -1.1737 H   0  0  0  0  0  0  0  0  0  0  0  0
    3.5155   -0.7202   -0.6176 H   0  0  0  0  0  0  0  0  0  0  0  0
    2.6579   -0.8503    1.0478 H   0  0  0  0  0  0  0  0  0  0  0  0
  1  2  1  0
  2  3  2  0
  2  4  1  0
  4  5  1  0
  4  6  1  0
  6  7  1  0
  7  8  1  0
  8  9  1  0
  9  6  1  0
  1 10  1  0
  1 11  1  0
  1 12  1  0
  4 13  1  0
  5 14  1  0
  6 15  1  0
  7 16  1  0
  7 17  1  0
  8 18  1  0
  8 19  1  0
M  END
