
     RDKit          3D

 18 17  0  0  0  0  0  0  0  0999 V2000
    2.3166    0.1057    0.7756 C   0  0  0  0  0  0  0  0  0  0  0  0
    0.9276   -0.3384    0.5886 C   0  0  0  0  0  0  0  0  0  0  0  0
    0.4089   -0.9570    1.5021 O   0  0  0  0  0  0  0  0  0  0  0  0
    0.1051   -0.0966   -0.6180 C   0  0  0  0  0  0  0  0  0  0  0  0
   -0.0871    1.3632   -0.9157 C   0  0  0  0  0  0  0  0  0  0  0  0
   -1.1649   -0.8628   -0.5938 C   0  0  0  0  0  0  0  0  0  0  0  0
   -2.1871   -0.6838    0.4878 C   0  0  0  0  0  0  0  0  0  0  0  0
   -1.4650   -1.6951   -1.4571 O   0  0  0  0  0  0  0  0  0  0  0  0
    2.8581   -0.6850    1.3298 H   0  0  0  0  0  0  0  0  0  0  0  0
    2.4237    1.0440    1.3432 H   0  0  0  0  0  0  0  0  0  0  0  0
    2.8477    0.2475   -0.1986 H   0  0  0  0  0  0  0  0  0  0  0  0
    0.7003   -0.5143   -1.4832 H   0  0  0  0  0  0  0  0  0  0  0  0
   -0.1029    1.9045    0.0427 H   0  0  0  0  0  0  0  0  0  0  0  0
   -0.9939    1.5077   -1.5160 H   0  0  0  0  0  0  0  0  0  0  0  0
    0.7683    1.7426   -1.5093 H   0  0  0  0  0  0  0  0  0  0  0  0
   -3.0716   -0.2119    0.0296 H   0  0  0  0  0  0  0  0  0  0  0  0
   -2.4939   -1.7096    0.8304 H   0  0  0  0  0  0  0  0  0  0  0  0
   -1.7900   -0.1607    1.3620 H   0  0  0  0  0  0  0  0  0  0  0  0
  1  2  1  0
  2  3  2  0
  2  4  1  0
  4  5  1  0
  4  6  1  0
  6  7  1  0
  6  8  2  0
  1  9  1  0
  1 10  1  0
  1 11  1  0
  4 12  1  0
  5 13  1  0
  5 14  1  0
  5 15  1  0
  7 16  1  0
  7 17  1  0
  7 18  1  0
M  END
