
     RDKit          3D

 13 12  0  0  0  0  0  0  0  0999 V2000
   -1.8489   -0.1943   -0.5124 C   0  0  0  0  0  0  0  0  0  0  0  0
   -0.4885    0.3202   -0.1960 C   0  0  0  0  0  0  0  0  0  0  0  0
    0.1431    0.9704   -0.9902 O   0  0  0  0  0  0  0  0  0  0  0  0
    0.0937    0.0214    1.1264 C   0  0  0  0  0  0  0  0  0  0  0  0
    1.3852    0.5710    1.2024 O   0  0  0  0  0  0  0  0  0  0  0  0
    2.3604    0.1406    0.3246 C   0  0  0  0  0  0  0  0  0  0  0  0
    2.0463   -0.7376   -0.5125 O   0  0  0  0  0  0  0  0  0  0  0  0
   -2.5741    0.4710   -0.0032 H   0  0  0  0  0  0  0  0  0  0  0  0
   -1.9613   -1.2587   -0.1514 H   0  0  0  0  0  0  0  0  0  0  0  0
   -2.0289   -0.2219   -1.6000 H   0  0  0  0  0  0  0  0  0  0  0  0
    0.0959   -1.0852    1.2479 H   0  0  0  0  0  0  0  0  0  0  0  0
   -0.5632    0.4161    1.9557 H   0  0  0  0  0  0  0  0  0  0  0  0
    3.3403    0.5869    0.4105 H   0  0  0  0  0  0  0  0  0  0  0  0
  1  2  1  0
  2  3  2  0
  2  4  1  0
  4  5  1  0
  5  6  1  0
  6  7  2  0
  1  8  1  0
  1  9  1  0
  1 10  1  0
  4 11  1  0
  4 12  1  0
  6 13  1  0
M  END
