
     RDKit          3D

 21 20  0  0  0  0  0  0  0  0999 V2000
    3.2368   -0.1968    0.2647 C   0  0  0  0  0  0  0  0  0  0  0  0
    1.8432   -0.4221   -0.2072 C   0  0  0  0  0  0  0  0  0  0  0  0
    1.6302   -1.3863   -0.9167 O   0  0  0  0  0  0  0  0  0  0  0  0
    0.7356    0.4710    0.1528 C   0  0  0  0  0  0  0  0  0  0  0  0
   -0.6115    0.0644   -0.3801 C   0  0  0  0  0  0  0  0  0  0  0  0
   -1.0824   -1.2586    0.0838 C   0  0  0  0  0  0  0  0  0  0  0  0
   -2.3252   -1.6248   -0.4121 O   0  0  0  0  0  0  0  0  0  0  0  0
   -1.5662    1.1934   -0.0896 C   0  0  0  0  0  0  0  0  0  0  0  0
   -2.8524    0.9391   -0.5350 O   0  0  0  0  0  0  0  0  0  0  0  0
    3.6365    0.6482   -0.3413 H   0  0  0  0  0  0  0  0  0  0  0  0
    3.8325   -1.1149    0.1624 H   0  0  0  0  0  0  0  0  0  0  0  0
    3.2797    0.1307    1.3147 H   0  0  0  0  0  0  0  0  0  0  0  0
    0.6808    0.6338    1.2718 H   0  0  0  0  0  0  0  0  0  0  0  0
    1.0222    1.4966   -0.2263 H   0  0  0  0  0  0  0  0  0  0  0  0
   -0.4838    0.0090   -1.5020 H   0  0  0  0  0  0  0  0  0  0  0  0
   -1.1939   -1.2707    1.2081 H   0  0  0  0  0  0  0  0  0  0  0  0
   -0.4030   -2.0942   -0.1441 H   0  0  0  0  0  0  0  0  0  0  0  0
   -3.0628   -1.3234    0.1866 H   0  0  0  0  0  0  0  0  0  0  0  0
   -1.1885    2.1242   -0.5613 H   0  0  0  0  0  0  0  0  0  0  0  0
   -1.6355    1.4090    0.9960 H   0  0  0  0  0  0  0  0  0  0  0  0
   -3.4923    1.5721   -0.1585 H   0  0  0  0  0  0  0  0  0  0  0  0
  1  2  1  0
  2  3  2  0
  2  4  1  0
  4  5  1  0
  5  6  1  0
  6  7  1  0
  5  8  1  0
  8  9  1  0
  1 10  1  0
  1 11  1  0
  1 12  1  0
  4 13  1  0
  4 14  1  0
  5 15  1  0
  6 16  1  0
  6 17  1  0
  7 18  1  0
  8 19  1  0
  8 20  1  0
  9 21  1  0
M  END
