
     RDKit          3D

 19 19  0  0  0  0  0  0  0  0999 V2000
   -2.7163    0.4954    0.3013 C   0  0  0  0  0  0  0  0  0  0  0  0
   -1.4212    0.6730   -0.3862 C   0  0  0  0  0  0  0  0  0  0  0  0
   -1.1373    1.7289   -0.8988 O   0  0  0  0  0  0  0  0  0  0  0  0
   -0.4520   -0.4387   -0.4577 C   0  0  0  0  0  0  0  0  0  0  0  0
    0.8208   -0.1163   -1.1859 C   0  0  0  0  0  0  0  0  0  0  0  0
    1.4276    0.2772    0.1547 C   0  0  0  0  0  0  0  0  0  0  0  0
    2.7419   -0.3629    0.3578 C   0  0  0  0  0  0  0  0  0  0  0  0
    2.8935   -1.5328    0.0624 O   0  0  0  0  0  0  0  0  0  0  0  0
    0.3373   -0.5168    0.8383 C   0  0  0  0  0  0  0  0  0  0  0  0
   -3.5685    0.8374   -0.3200 H   0  0  0  0  0  0  0  0  0  0  0  0
   -2.6881    1.1027    1.2476 H   0  0  0  0  0  0  0  0  0  0  0  0
   -2.9195   -0.5312    0.6000 H   0  0  0  0  0  0  0  0  0  0  0  0
   -0.8738   -1.4307   -0.7047 H   0  0  0  0  0  0  0  0  0  0  0  0
    0.7398    0.7688   -1.8570 H   0  0  0  0  0  0  0  0  0  0  0  0
    1.3037   -1.0001   -1.6405 H   0  0  0  0  0  0  0  0  0  0  0  0
    1.4044    1.3552    0.3299 H   0  0  0  0  0  0  0  0  0  0  0  0
    3.5908    0.1780    0.7668 H   0  0  0  0  0  0  0  0  0  0  0  0
   -0.0905    0.0571    1.6818 H   0  0  0  0  0  0  0  0  0  0  0  0
    0.6075   -1.5441    1.1103 H   0  0  0  0  0  0  0  0  0  0  0  0
  1  2  1  0
  2  3  2  0
  2  4  1  0
  4  5  1  0
  5  6  1  0
  6  7  1  0
  7  8  2  0
  6  9  1  0
  9  4  1  0
  1 10  1  0
  1 11  1  0
  1 12  1  0
  4 13  1  0
  5 14  1  0
  5 15  1  0
  6 16  1  0
  7 17  1  0
  9 18  1  0
  9 19  1  0
M  END
