
     RDKit          3D

 18 19  0  0  0  0  0  0  0  0999 V2000
    2.4473   -0.0566   -0.2080 C   0  0  0  0  0  0  0  0  0  0  0  0
    1.6155    0.3650    0.9393 C   0  0  0  0  0  0  0  0  0  0  0  0
    2.1839    0.7549    1.9419 O   0  0  0  0  0  0  0  0  0  0  0  0
    0.1542    0.3215    0.8891 C   0  0  0  0  0  0  0  0  0  0  0  0
   -0.4527   -0.7956    0.1327 C   0  0  0  0  0  0  0  0  0  0  0  0
   -1.9190   -0.8561   -0.1664 C   0  0  0  0  0  0  0  0  0  0  0  0
   -1.9941    0.6401   -0.4057 C   0  0  0  0  0  0  0  0  0  0  0  0
   -0.4738    0.6494   -0.4084 C   0  0  0  0  0  0  0  0  0  0  0  0
    3.1783   -0.8434    0.0361 H   0  0  0  0  0  0  0  0  0  0  0  0
    3.0278    0.8497   -0.5284 H   0  0  0  0  0  0  0  0  0  0  0  0
    1.8009   -0.4222   -1.0086 H   0  0  0  0  0  0  0  0  0  0  0  0
   -0.3771    0.6527    1.7852 H   0  0  0  0  0  0  0  0  0  0  0  0
    0.2147   -1.5180   -0.3415 H   0  0  0  0  0  0  0  0  0  0  0  0
   -2.0985   -1.3858   -1.1365 H   0  0  0  0  0  0  0  0  0  0  0  0
   -2.5692   -1.2404    0.6180 H   0  0  0  0  0  0  0  0  0  0  0  0
   -2.4754    0.9589   -1.3287 H   0  0  0  0  0  0  0  0  0  0  0  0
   -2.3389    1.1528    0.5278 H   0  0  0  0  0  0  0  0  0  0  0  0
    0.0762    0.7732   -1.3381 H   0  0  0  0  0  0  0  0  0  0  0  0
  1  2  1  0
  2  3  2  0
  2  4  1  0
  4  5  1  0
  5  6  1  0
  6  7  1  0
  7  8  1  0
  8  4  1  0
  8  5  1  0
  1  9  1  0
  1 10  1  0
  1 11  1  0
  4 12  1  0
  5 13  1  0
  6 14  1  0
  6 15  1  0
  7 16  1  0
  7 17  1  0
  8 18  1  0
M  END
