
     RDKit          3D

 18 18  0  0  0  0  0  0  0  0999 V2000
    3.1950    0.3890   -0.0881 C   0  0  0  0  0  0  0  0  0  0  0  0
    1.9508   -0.4013    0.0830 C   0  0  0  0  0  0  0  0  0  0  0  0
    1.9619   -1.6194    0.3177 O   0  0  0  0  0  0  0  0  0  0  0  0
    0.7287    0.2428   -0.0229 O   0  0  0  0  0  0  0  0  0  0  0  0
   -0.5016   -0.4315    0.1257 C   0  0  0  0  0  0  0  0  0  0  0  0
   -1.4898    0.2254    1.0483 C   0  0  0  0  0  0  0  0  0  0  0  0
   -2.5012    0.1923   -0.0604 C   0  0  0  0  0  0  0  0  0  0  0  0
   -1.4014   -0.1131   -1.0509 C   0  0  0  0  0  0  0  0  0  0  0  0
    4.0097   -0.1803    0.4073 H   0  0  0  0  0  0  0  0  0  0  0  0
    3.0506    1.3681    0.4256 H   0  0  0  0  0  0  0  0  0  0  0  0
    3.3829    0.6026   -1.1454 H   0  0  0  0  0  0  0  0  0  0  0  0
   -0.4319   -1.5043    0.3315 H   0  0  0  0  0  0  0  0  0  0  0  0
   -1.2477    1.2569    1.3567 H   0  0  0  0  0  0  0  0  0  0  0  0
   -1.8263   -0.3804    1.9093 H   0  0  0  0  0  0  0  0  0  0  0  0
   -2.9916    1.1730   -0.2908 H   0  0  0  0  0  0  0  0  0  0  0  0
   -3.2152   -0.6549   -0.0070 H   0  0  0  0  0  0  0  0  0  0  0  0
   -1.0938    0.8036   -1.6220 H   0  0  0  0  0  0  0  0  0  0  0  0
   -1.5790   -0.9685   -1.7175 H   0  0  0  0  0  0  0  0  0  0  0  0
  1  2  1  0
  2  3  2  0
  2  4  1  0
  4  5  1  0
  5  6  1  0
  6  7  1  0
  7  8  1  0
  8  5  1  0
  1  9  1  0
  1 10  1  0
  1 11  1  0
  5 12  1  0
  6 13  1  0
  6 14  1  0
  7 15  1  0
  7 16  1  0
  8 17  1  0
  8 18  1  0
M  END
