
     RDKit          3D

 19 19  0  0  0  0  0  0  0  0999 V2000
    2.3919   -0.2376    0.4074 C   0  0  0  0  0  0  0  0  0  0  0  0
    1.4976    0.2736   -0.6645 C   0  0  0  0  0  0  0  0  0  0  0  0
    2.0353    0.6690   -1.6847 O   0  0  0  0  0  0  0  0  0  0  0  0
    0.0471    0.3144   -0.5358 C   0  0  0  0  0  0  0  0  0  0  0  0
   -0.5931   -1.0358   -0.3126 C   0  0  0  0  0  0  0  0  0  0  0  0
   -2.0164   -0.5716   -0.0250 C   0  0  0  0  0  0  0  0  0  0  0  0
   -1.7507    0.4828    0.9942 C   0  0  0  0  0  0  0  0  0  0  0  0
   -2.4969    0.7608    1.9106 O   0  0  0  0  0  0  0  0  0  0  0  0
   -0.4367    1.0921    0.6623 C   0  0  0  0  0  0  0  0  0  0  0  0
    3.0086    0.6131    0.7867 H   0  0  0  0  0  0  0  0  0  0  0  0
    1.8514   -0.6708    1.2576 H   0  0  0  0  0  0  0  0  0  0  0  0
    3.0579   -1.0356   -0.0377 H   0  0  0  0  0  0  0  0  0  0  0  0
   -0.4403    0.7599   -1.4262 H   0  0  0  0  0  0  0  0  0  0  0  0
   -0.5274   -1.7087   -1.1648 H   0  0  0  0  0  0  0  0  0  0  0  0
   -0.2204   -1.4839    0.6469 H   0  0  0  0  0  0  0  0  0  0  0  0
   -2.6617   -1.3776    0.3376 H   0  0  0  0  0  0  0  0  0  0  0  0
   -2.3962   -0.0614   -0.9316 H   0  0  0  0  0  0  0  0  0  0  0  0
    0.2737    1.0617    1.5014 H   0  0  0  0  0  0  0  0  0  0  0  0
   -0.6237    2.1557    0.3607 H   0  0  0  0  0  0  0  0  0  0  0  0
  1  2  1  0
  2  3  2  0
  2  4  1  0
  4  5  1  0
  5  6  1  0
  6  7  1  0
  7  8  2  0
  7  9  1  0
  9  4  1  0
  1 10  1  0
  1 11  1  0
  1 12  1  0
  4 13  1  0
  5 14  1  0
  5 15  1  0
  6 16  1  0
  6 17  1  0
  9 18  1  0
  9 19  1  0
M  END
