
     RDKit          3D

 17 18  0  0  0  0  0  0  0  0999 V2000
    2.6052    0.4252    0.0767 C   0  0  0  0  0  0  0  0  0  0  0  0
    1.1904    0.5026   -0.2878 C   0  0  0  0  0  0  0  0  0  0  0  0
    0.8584    1.2835   -1.1596 O   0  0  0  0  0  0  0  0  0  0  0  0
    0.0935   -0.3212    0.3407 C   0  0  0  0  0  0  0  0  0  0  0  0
    0.6369   -1.1783    1.3309 O   0  0  0  0  0  0  0  0  0  0  0  0
   -1.1573    0.3829    0.5153 C   0  0  0  0  0  0  0  0  0  0  0  0
   -2.3194    0.3997   -0.4917 C   0  0  0  0  0  0  0  0  0  0  0  0
   -2.3191   -0.9841   -0.1646 O   0  0  0  0  0  0  0  0  0  0  0  0
   -0.9626   -0.8555   -0.4480 C   0  0  0  0  0  0  0  0  0  0  0  0
    2.7378    0.1628    1.1672 H   0  0  0  0  0  0  0  0  0  0  0  0
    3.1039   -0.3554   -0.5606 H   0  0  0  0  0  0  0  0  0  0  0  0
    3.0865    1.4087   -0.1035 H   0  0  0  0  0  0  0  0  0  0  0  0
    0.1132   -2.0116    1.3975 H   0  0  0  0  0  0  0  0  0  0  0  0
   -1.6216    0.1126    1.5168 H   0  0  0  0  0  0  0  0  0  0  0  0
   -1.9832    0.6582   -1.4897 H   0  0  0  0  0  0  0  0  0  0  0  0
   -3.1789    0.9569   -0.0924 H   0  0  0  0  0  0  0  0  0  0  0  0
   -0.8838   -0.5872   -1.5471 H   0  0  0  0  0  0  0  0  0  0  0  0
  1  2  1  0
  2  3  2  0
  2  4  1  0
  4  5  1  0
  4  6  1  0
  6  7  1  0
  7  8  1  0
  8  9  1  0
  9  4  1  0
  9  6  1  0
  1 10  1  0
  1 11  1  0
  1 12  1  0
  5 13  1  0
  6 14  1  0
  7 15  1  0
  7 16  1  0
  9 17  1  0
M  END
