
     RDKit          3D

 17 17  0  0  0  0  0  0  0  0999 V2000
    2.5645    0.4226   -0.4960 C   0  0  0  0  0  0  0  0  0  0  0  0
    1.5891   -0.0915    0.4992 C   0  0  0  0  0  0  0  0  0  0  0  0
    2.0480   -0.5632    1.5705 O   0  0  0  0  0  0  0  0  0  0  0  0
    0.1456   -0.0580    0.2588 C   0  0  0  0  0  0  0  0  0  0  0  0
   -0.4694    0.4023   -0.8059 C   0  0  0  0  0  0  0  0  0  0  0  0
   -1.9262    0.2863   -0.7257 C   0  0  0  0  0  0  0  0  0  0  0  0
   -2.1342   -0.6631    0.4016 C   0  0  0  0  0  0  0  0  0  0  0  0
   -3.0837   -1.3816    0.6497 O   0  0  0  0  0  0  0  0  0  0  0  0
   -0.8852   -0.5532    1.2068 C   0  0  0  0  0  0  0  0  0  0  0  0
    2.7567    1.5095   -0.3730 H   0  0  0  0  0  0  0  0  0  0  0  0
    3.5435   -0.0841   -0.4240 H   0  0  0  0  0  0  0  0  0  0  0  0
    2.1805    0.2302   -1.5204 H   0  0  0  0  0  0  0  0  0  0  0  0
    0.0438    0.8330   -1.6753 H   0  0  0  0  0  0  0  0  0  0  0  0
   -2.3920   -0.1768   -1.6251 H   0  0  0  0  0  0  0  0  0  0  0  0
   -2.4273    1.2613   -0.4824 H   0  0  0  0  0  0  0  0  0  0  0  0
   -0.5881   -1.5576    1.5276 H   0  0  0  0  0  0  0  0  0  0  0  0
   -0.9654    0.1838    2.0137 H   0  0  0  0  0  0  0  0  0  0  0  0
  1  2  1  0
  2  3  2  0
  2  4  1  0
  4  5  2  0
  5  6  1  0
  6  7  1  0
  7  8  2  0
  7  9  1  0
  9  4  1  0
  1 10  1  0
  1 11  1  0
  1 12  1  0
  5 13  1  0
  6 14  1  0
  6 15  1  0
  9 16  1  0
  9 17  1  0
M  END
