
     RDKit          3D

 17 18  0  0  0  0  0  0  0  0999 V2000
    2.6433   -0.0302    0.3116 C   0  0  0  0  0  0  0  0  0  0  0  0
    1.5309    0.4036   -0.6009 C   0  0  0  0  0  0  0  0  0  0  0  0
    1.8241    0.9815   -1.6761 O   0  0  0  0  0  0  0  0  0  0  0  0
    0.1352    0.1702   -0.2678 C   0  0  0  0  0  0  0  0  0  0  0  0
   -0.2618   -0.4273    0.8363 C   0  0  0  0  0  0  0  0  0  0  0  0
   -1.7439   -0.5175    0.8903 C   0  0  0  0  0  0  0  0  0  0  0  0
   -2.1862    0.0255   -0.4351 C   0  0  0  0  0  0  0  0  0  0  0  0
   -2.0023    1.3925   -0.5837 O   0  0  0  0  0  0  0  0  0  0  0  0
   -1.0133    0.5543   -1.0890 C   0  0  0  0  0  0  0  0  0  0  0  0
    2.9569    0.8421    0.8979 H   0  0  0  0  0  0  0  0  0  0  0  0
    3.4935   -0.3007   -0.3544 H   0  0  0  0  0  0  0  0  0  0  0  0
    2.2796   -0.8812    0.8860 H   0  0  0  0  0  0  0  0  0  0  0  0
    0.3749   -0.8093    1.6128 H   0  0  0  0  0  0  0  0  0  0  0  0
   -2.0798    0.0950    1.7536 H   0  0  0  0  0  0  0  0  0  0  0  0
   -2.0656   -1.5769    1.0561 H   0  0  0  0  0  0  0  0  0  0  0  0
   -2.9467   -0.5042   -1.0391 H   0  0  0  0  0  0  0  0  0  0  0  0
   -0.9388    0.5826   -2.1986 H   0  0  0  0  0  0  0  0  0  0  0  0
  1  2  1  0
  2  3  2  0
  2  4  1  0
  4  5  2  0
  5  6  1  0
  6  7  1  0
  7  8  1  0
  8  9  1  0
  9  4  1  0
  9  7  1  0
  1 10  1  0
  1 11  1  0
  1 12  1  0
  5 13  1  0
  6 14  1  0
  6 15  1  0
  7 16  1  0
  9 17  1  0
M  END
