
     RDKit          3D

 18 17  0  0  0  0  0  0  0  0999 V2000
    2.1533   -0.2327   -0.3806 C   0  0  0  0  0  0  0  0  0  0  0  0
    0.7665   -0.7431   -0.4091 C   0  0  0  0  0  0  0  0  0  0  0  0
    0.6205   -1.8925   -0.7895 O   0  0  0  0  0  0  0  0  0  0  0  0
   -0.4130    0.0330   -0.0166 C   0  0  0  0  0  0  0  0  0  0  0  0
   -0.3292    0.4901    1.4396 C   0  0  0  0  0  0  0  0  0  0  0  0
   -1.6697   -0.7783   -0.1704 C   0  0  0  0  0  0  0  0  0  0  0  0
   -0.5876    1.2705   -0.8396 C   0  0  0  0  0  0  0  0  0  0  0  0
    0.2657    1.7266   -1.5609 O   0  0  0  0  0  0  0  0  0  0  0  0
    2.2103    0.8697   -0.4798 H   0  0  0  0  0  0  0  0  0  0  0  0
    2.6686   -0.6040    0.5321 H   0  0  0  0  0  0  0  0  0  0  0  0
    2.7108   -0.6483   -1.2480 H   0  0  0  0  0  0  0  0  0  0  0  0
   -1.0471   -0.0867    2.0633 H   0  0  0  0  0  0  0  0  0  0  0  0
   -0.5939    1.5538    1.5515 H   0  0  0  0  0  0  0  0  0  0  0  0
    0.7120    0.2846    1.7675 H   0  0  0  0  0  0  0  0  0  0  0  0
   -1.8183   -1.4133    0.7409 H   0  0  0  0  0  0  0  0  0  0  0  0
   -2.5549   -0.1462   -0.3863 H   0  0  0  0  0  0  0  0  0  0  0  0
   -1.5442   -1.4465   -1.0536 H   0  0  0  0  0  0  0  0  0  0  0  0
   -1.5497    1.7632   -0.7605 H   0  0  0  0  0  0  0  0  0  0  0  0
  1  2  1  0
  2  3  2  0
  2  4  1  0
  4  5  1  0
  4  6  1  0
  4  7  1  0
  7  8  2  0
  1  9  1  0
  1 10  1  0
  1 11  1  0
  5 12  1  0
  5 13  1  0
  5 14  1  0
  6 15  1  0
  6 16  1  0
  6 17  1  0
  7 18  1  0
M  END
