
     RDKit          3D

 19 19  0  0  0  0  0  0  0  0999 V2000
    1.9999   -0.3596    0.8618 C   0  0  0  0  0  0  0  0  0  0  0  0
    1.5752    0.0582   -0.4912 C   0  0  0  0  0  0  0  0  0  0  0  0
    2.4951    0.1936   -1.3117 O   0  0  0  0  0  0  0  0  0  0  0  0
    0.2088    0.3204   -0.9389 C   0  0  0  0  0  0  0  0  0  0  0  0
   -0.9745   -0.4472   -0.4438 C   0  0  0  0  0  0  0  0  0  0  0  0
   -0.8098   -1.6085    0.4755 C   0  0  0  0  0  0  0  0  0  0  0  0
   -0.7756    0.9580    0.0415 C   0  0  0  0  0  0  0  0  0  0  0  0
   -1.6505    2.0435   -0.4816 C   0  0  0  0  0  0  0  0  0  0  0  0
   -2.1148    2.0301   -1.5964 O   0  0  0  0  0  0  0  0  0  0  0  0
    1.2222   -0.3392    1.6230 H   0  0  0  0  0  0  0  0  0  0  0  0
    2.8443    0.2566    1.2463 H   0  0  0  0  0  0  0  0  0  0  0  0
    2.4152   -1.4031    0.8312 H   0  0  0  0  0  0  0  0  0  0  0  0
    0.0761    0.6560   -2.0087 H   0  0  0  0  0  0  0  0  0  0  0  0
   -1.8757   -0.5309   -1.1216 H   0  0  0  0  0  0  0  0  0  0  0  0
   -1.5545   -2.3910    0.2124 H   0  0  0  0  0  0  0  0  0  0  0  0
    0.1764   -2.1146    0.4054 H   0  0  0  0  0  0  0  0  0  0  0  0
   -0.9771   -1.2679    1.5304 H   0  0  0  0  0  0  0  0  0  0  0  0
   -0.4032    1.0674    1.0764 H   0  0  0  0  0  0  0  0  0  0  0  0
   -1.8773    2.8784    0.1691 H   0  0  0  0  0  0  0  0  0  0  0  0
  1  2  1  0
  2  3  2  0
  2  4  1  0
  4  5  1  0
  5  6  1  0
  5  7  1  0
  7  8  1  0
  8  9  2  0
  7  4  1  0
  1 10  1  0
  1 11  1  0
  1 12  1  0
  4 13  1  0
  5 14  1  0
  6 15  1  0
  6 16  1  0
  6 17  1  0
  7 18  1  0
  8 19  1  0
M  END
