
     RDKit          3D

 23 22  0  0  0  0  0  0  0  0999 V2000
    2.3340   -0.7409   -0.1476 C   0  0  0  0  0  0  0  0  0  0  0  0
    1.8246    0.4270    0.6098 C   0  0  0  0  0  0  0  0  0  0  0  0
    2.7069    1.0884    1.1993 O   0  0  0  0  0  0  0  0  0  0  0  0
    0.4210    0.8450    0.7143 C   0  0  0  0  0  0  0  0  0  0  0  0
   -0.5675    0.0172   -0.0329 C   0  0  0  0  0  0  0  0  0  0  0  0
   -0.5315   -1.4194    0.4511 C   0  0  0  0  0  0  0  0  0  0  0  0
   -0.4262    0.1262   -1.5350 C   0  0  0  0  0  0  0  0  0  0  0  0
   -2.0038    0.5085    0.2595 C   0  0  0  0  0  0  0  0  0  0  0  0
   -2.1572    1.8190   -0.1220 O   0  0  0  0  0  0  0  0  0  0  0  0
    2.2028   -1.6824    0.4632 H   0  0  0  0  0  0  0  0  0  0  0  0
    3.4234   -0.5786   -0.3554 H   0  0  0  0  0  0  0  0  0  0  0  0
    1.8590   -0.9350   -1.1033 H   0  0  0  0  0  0  0  0  0  0  0  0
    0.1268    0.8212    1.7942 H   0  0  0  0  0  0  0  0  0  0  0  0
    0.2998    1.9181    0.3848 H   0  0  0  0  0  0  0  0  0  0  0  0
    0.0219   -1.4325    1.4278 H   0  0  0  0  0  0  0  0  0  0  0  0
   -1.5630   -1.7885    0.6152 H   0  0  0  0  0  0  0  0  0  0  0  0
   -0.0413   -2.1071   -0.2662 H   0  0  0  0  0  0  0  0  0  0  0  0
   -1.3243    0.6115   -2.0216 H   0  0  0  0  0  0  0  0  0  0  0  0
   -0.3481   -0.8816   -1.9982 H   0  0  0  0  0  0  0  0  0  0  0  0
    0.4168    0.8101   -1.8367 H   0  0  0  0  0  0  0  0  0  0  0  0
   -2.2533    0.3033    1.3092 H   0  0  0  0  0  0  0  0  0  0  0  0
   -2.6696   -0.1171   -0.3729 H   0  0  0  0  0  0  0  0  0  0  0  0
   -1.7511    2.3878    0.5634 H   0  0  0  0  0  0  0  0  0  0  0  0
  1  2  1  0
  2  3  2  0
  2  4  1  0
  4  5  1  0
  5  6  1  0
  5  7  1  0
  5  8  1  0
  8  9  1  0
  1 10  1  0
  1 11  1  0
  1 12  1  0
  4 13  1  0
  4 14  1  0
  6 15  1  0
  6 16  1  0
  6 17  1  0
  7 18  1  0
  7 19  1  0
  7 20  1  0
  8 21  1  0
  8 22  1  0
  9 23  1  0
M  END
