
     RDKit          3D

 19 19  0  0  0  0  0  0  0  0999 V2000
    2.7011    0.3053    1.1178 C   0  0  0  0  0  0  0  0  0  0  0  0
    1.6479    0.3317    0.0236 C   0  0  0  0  0  0  0  0  0  0  0  0
    1.3413    1.3968   -0.5343 O   0  0  0  0  0  0  0  0  0  0  0  0
    1.0500   -0.8340   -0.3302 O   0  0  0  0  0  0  0  0  0  0  0  0
    0.0705   -1.0211   -1.2861 C   0  0  0  0  0  0  0  0  0  0  0  0
   -1.1980   -0.3303   -0.9327 C   0  0  0  0  0  0  0  0  0  0  0  0
   -1.4888   -0.3658    0.5707 C   0  0  0  0  0  0  0  0  0  0  0  0
   -2.0738    0.9656    0.2071 C   0  0  0  0  0  0  0  0  0  0  0  0
   -1.1192    1.0392   -0.8053 O   0  0  0  0  0  0  0  0  0  0  0  0
    2.8936    1.3125    1.4880 H   0  0  0  0  0  0  0  0  0  0  0  0
    2.2741   -0.2822    1.9706 H   0  0  0  0  0  0  0  0  0  0  0  0
    3.6011   -0.2218    0.7437 H   0  0  0  0  0  0  0  0  0  0  0  0
   -0.1330   -2.1385   -1.3096 H   0  0  0  0  0  0  0  0  0  0  0  0
    0.3775   -0.6893   -2.3099 H   0  0  0  0  0  0  0  0  0  0  0  0
   -2.1056   -0.7048   -1.4635 H   0  0  0  0  0  0  0  0  0  0  0  0
   -2.1837   -1.1572    0.8592 H   0  0  0  0  0  0  0  0  0  0  0  0
   -0.6013   -0.2315    1.2101 H   0  0  0  0  0  0  0  0  0  0  0  0
   -1.9746    1.7268    1.0007 H   0  0  0  0  0  0  0  0  0  0  0  0
   -3.0790    0.8985   -0.2199 H   0  0  0  0  0  0  0  0  0  0  0  0
  1  2  1  0
  2  3  2  0
  2  4  1  0
  4  5  1  0
  5  6  1  0
  6  7  1  0
  7  8  1  0
  8  9  1  0
  9  6  1  0
  1 10  1  0
  1 11  1  0
  1 12  1  0
  5 13  1  0
  5 14  1  0
  6 15  1  0
  7 16  1  0
  7 17  1  0
  8 18  1  0
  8 19  1  0
M  END
