
     RDKit          3D

 19 20  0  0  0  0  0  0  0  0999 V2000
    2.6498    0.1094    0.1347 C   0  0  0  0  0  0  0  0  0  0  0  0
    1.2630    0.6706    0.0621 C   0  0  0  0  0  0  0  0  0  0  0  0
    1.1036    1.7167    0.7059 O   0  0  0  0  0  0  0  0  0  0  0  0
    0.2284    0.0072   -0.7112 C   0  0  0  0  0  0  0  0  0  0  0  0
   -1.1329    0.6127   -0.7423 C   0  0  0  0  0  0  0  0  0  0  0  0
   -1.5239    0.6692    0.7010 C   0  0  0  0  0  0  0  0  0  0  0  0
   -1.0104   -0.5765    1.1444 O   0  0  0  0  0  0  0  0  0  0  0  0
   -0.5225   -1.1343   -0.0054 C   0  0  0  0  0  0  0  0  0  0  0  0
   -1.5925   -0.8219   -1.0675 C   0  0  0  0  0  0  0  0  0  0  0  0
    3.2002    0.4629   -0.7705 H   0  0  0  0  0  0  0  0  0  0  0  0
    2.6355   -1.0057    0.0707 H   0  0  0  0  0  0  0  0  0  0  0  0
    3.1991    0.4510    1.0253 H   0  0  0  0  0  0  0  0  0  0  0  0
    0.6181   -0.3877   -1.6679 H   0  0  0  0  0  0  0  0  0  0  0  0
   -1.3930    1.3754   -1.4184 H   0  0  0  0  0  0  0  0  0  0  0  0
   -1.1495    1.5135    1.2698 H   0  0  0  0  0  0  0  0  0  0  0  0
   -2.6384    0.5947    0.7807 H   0  0  0  0  0  0  0  0  0  0  0  0
   -0.0817   -2.0961   -0.0271 H   0  0  0  0  0  0  0  0  0  0  0  0
   -1.2441   -1.1089   -2.0651 H   0  0  0  0  0  0  0  0  0  0  0  0
   -2.6088   -1.0521   -0.7740 H   0  0  0  0  0  0  0  0  0  0  0  0
  1  2  1  0
  2  3  2  0
  2  4  1  0
  4  5  1  0
  5  6  1  0
  6  7  1  0
  7  8  1  0
  8  9  1  0
  8  4  1  0
  9  5  1  0
  1 10  1  0
  1 11  1  0
  1 12  1  0
  4 13  1  0
  5 14  1  0
  6 15  1  0
  6 16  1  0
  8 17  1  0
  9 18  1  0
  9 19  1  0
M  END
