
     RDKit          3D

 17 18  0  0  0  0  0  0  0  0999 V2000
    2.2819   -0.1685    0.0610 C   0  0  0  0  0  0  0  0  0  0  0  0
    1.1018   -0.9771   -0.3495 C   0  0  0  0  0  0  0  0  0  0  0  0
    1.2142   -2.1720   -0.4724 O   0  0  0  0  0  0  0  0  0  0  0  0
   -0.1866   -0.3148   -0.6008 C   0  0  0  0  0  0  0  0  0  0  0  0
   -1.2940   -1.0267   -0.9800 O   0  0  0  0  0  0  0  0  0  0  0  0
   -1.9568   -0.7891    0.2168 C   0  0  0  0  0  0  0  0  0  0  0  0
   -0.9158    0.1729    0.6850 C   0  0  0  0  0  0  0  0  0  0  0  0
   -0.3010    1.1331   -0.3482 C   0  0  0  0  0  0  0  0  0  0  0  0
   -1.2904    1.8946   -0.9918 O   0  0  0  0  0  0  0  0  0  0  0  0
    2.1738    0.0891    1.1551 H   0  0  0  0  0  0  0  0  0  0  0  0
    2.3317    0.7615   -0.5244 H   0  0  0  0  0  0  0  0  0  0  0  0
    3.2380   -0.7284   -0.1013 H   0  0  0  0  0  0  0  0  0  0  0  0
   -2.9565   -0.3210    0.0919 H   0  0  0  0  0  0  0  0  0  0  0  0
   -1.9593   -1.7362    0.8204 H   0  0  0  0  0  0  0  0  0  0  0  0
   -0.3812    0.0288    1.6392 H   0  0  0  0  0  0  0  0  0  0  0  0
    0.5801    1.6857   -0.0275 H   0  0  0  0  0  0  0  0  0  0  0  0
   -1.6799    2.4681   -0.2735 H   0  0  0  0  0  0  0  0  0  0  0  0
  1  2  1  0
  2  3  2  0
  2  4  1  0
  4  5  1  0
  5  6  1  0
  6  7  1  0
  7  8  1  0
  8  9  1  0
  7  4  1  0
  8  4  1  0
  1 10  1  0
  1 11  1  0
  1 12  1  0
  6 13  1  0
  6 14  1  0
  7 15  1  0
  8 16  1  0
  9 17  1  0
M  END
