
     RDKit          3D

 16 16  0  0  0  0  0  0  0  0999 V2000
    2.5068    0.4188   -0.7755 C   0  0  0  0  0  0  0  0  0  0  0  0
    1.0330    0.3878   -0.5695 C   0  0  0  0  0  0  0  0  0  0  0  0
    0.3205    1.2541   -1.1162 O   0  0  0  0  0  0  0  0  0  0  0  0
    0.4612   -0.6363    0.2525 C   0  0  0  0  0  0  0  0  0  0  0  0
    1.2005   -1.5107    0.7911 O   0  0  0  0  0  0  0  0  0  0  0  0
   -0.9914   -0.7486    0.5266 C   0  0  0  0  0  0  0  0  0  0  0  0
   -1.9010   -0.3421   -0.6121 C   0  0  0  0  0  0  0  0  0  0  0  0
   -1.7552    0.5249    0.5643 C   0  0  0  0  0  0  0  0  0  0  0  0
    2.7953    0.9546   -1.6992 H   0  0  0  0  0  0  0  0  0  0  0  0
    2.9514    0.9264    0.0839 H   0  0  0  0  0  0  0  0  0  0  0  0
    2.9111   -0.6198   -0.8900 H   0  0  0  0  0  0  0  0  0  0  0  0
   -1.3372   -1.5982    1.1564 H   0  0  0  0  0  0  0  0  0  0  0  0
   -1.4857   -0.1247   -1.6073 H   0  0  0  0  0  0  0  0  0  0  0  0
   -2.8574   -0.9346   -0.6988 H   0  0  0  0  0  0  0  0  0  0  0  0
   -1.2097    1.4805    0.5856 H   0  0  0  0  0  0  0  0  0  0  0  0
   -2.6420    0.5678    1.2620 H   0  0  0  0  0  0  0  0  0  0  0  0
  1  2  1  0
  2  3  2  0
  2  4  1  0
  4  5  2  0
  4  6  1  0
  6  7  1  0
  7  8  1  0
  8  6  1  0
  1  9  1  0
  1 10  1  0
  1 11  1  0
  6 12  1  0
  7 13  1  0
  7 14  1  0
  8 15  1  0
  8 16  1  0
M  END
