
     RDKit          3D

 21 21  0  0  0  0  0  0  0  0999 V2000
    2.4059   -0.5377    0.3434 C   0  0  0  0  0  0  0  0  0  0  0  0
    1.4377    0.4853   -0.1110 C   0  0  0  0  0  0  0  0  0  0  0  0
    1.6817    1.6648    0.0466 O   0  0  0  0  0  0  0  0  0  0  0  0
    0.1561    0.1210   -0.7641 C   0  0  0  0  0  0  0  0  0  0  0  0
   -0.6142    1.3708   -1.1127 C   0  0  0  0  0  0  0  0  0  0  0  0
   -1.2944    1.6792    0.2170 C   0  0  0  0  0  0  0  0  0  0  0  0
   -1.5758    0.3007    0.7015 C   0  0  0  0  0  0  0  0  0  0  0  0
   -0.7661   -0.5813    0.1545 C   0  0  0  0  0  0  0  0  0  0  0  0
   -0.7509   -2.0777    0.4004 C   0  0  0  0  0  0  0  0  0  0  0  0
    2.4424   -1.3338   -0.4311 H   0  0  0  0  0  0  0  0  0  0  0  0
    3.3892   -0.0677    0.5302 H   0  0  0  0  0  0  0  0  0  0  0  0
    2.0504   -0.9174    1.3302 H   0  0  0  0  0  0  0  0  0  0  0  0
    0.3153   -0.4587   -1.7019 H   0  0  0  0  0  0  0  0  0  0  0  0
    0.0962    2.1564   -1.4131 H   0  0  0  0  0  0  0  0  0  0  0  0
   -1.3816    1.1322   -1.8569 H   0  0  0  0  0  0  0  0  0  0  0  0
   -2.2832    2.1570    0.0468 H   0  0  0  0  0  0  0  0  0  0  0  0
   -0.6385    2.2339    0.8940 H   0  0  0  0  0  0  0  0  0  0  0  0
   -2.3585    0.0123    1.4298 H   0  0  0  0  0  0  0  0  0  0  0  0
   -0.0916   -2.3471    1.2262 H   0  0  0  0  0  0  0  0  0  0  0  0
   -0.4557   -2.5416   -0.5640 H   0  0  0  0  0  0  0  0  0  0  0  0
   -1.7646   -2.4506    0.6344 H   0  0  0  0  0  0  0  0  0  0  0  0
  1  2  1  0
  2  3  2  0
  2  4  1  0
  4  5  1  0
  5  6  1  0
  6  7  1  0
  7  8  2  0
  8  9  1  0
  8  4  1  0
  1 10  1  0
  1 11  1  0
  1 12  1  0
  4 13  1  0
  5 14  1  0
  5 15  1  0
  6 16  1  0
  6 17  1  0
  7 18  1  0
  9 19  1  0
  9 20  1  0
  9 21  1  0
M  END
