
     RDKit          3D

 21 20  0  0  0  0  0  0  0  0999 V2000
    3.5027    0.6395    0.6418 C   0  0  0  0  0  0  0  0  0  0  0  0
    2.0544    0.2757    0.8432 C   0  0  0  0  0  0  0  0  0  0  0  0
    1.5965    0.1269    2.0012 O   0  0  0  0  0  0  0  0  0  0  0  0
    1.1972    0.0969   -0.2244 O   0  0  0  0  0  0  0  0  0  0  0  0
   -0.1542   -0.2444    0.0207 C   0  0  0  0  0  0  0  0  0  0  0  0
   -0.4814   -1.5403   -0.6813 C   0  0  0  0  0  0  0  0  0  0  0  0
   -1.0270    0.8954   -0.5187 C   0  0  0  0  0  0  0  0  0  0  0  0
   -2.5016    0.5540   -0.2674 C   0  0  0  0  0  0  0  0  0  0  0  0
   -2.8260   -0.6306   -0.9178 O   0  0  0  0  0  0  0  0  0  0  0  0
    4.0821   -0.2426    0.2917 H   0  0  0  0  0  0  0  0  0  0  0  0
    3.5294    1.3698   -0.1951 H   0  0  0  0  0  0  0  0  0  0  0  0
    3.9208    1.1085    1.5374 H   0  0  0  0  0  0  0  0  0  0  0  0
   -0.3749   -0.3325    1.1058 H   0  0  0  0  0  0  0  0  0  0  0  0
   -1.2218   -2.1540   -0.1646 H   0  0  0  0  0  0  0  0  0  0  0  0
    0.4653   -2.1555   -0.7120 H   0  0  0  0  0  0  0  0  0  0  0  0
   -0.7192   -1.3208   -1.7337 H   0  0  0  0  0  0  0  0  0  0  0  0
   -0.8808    0.9812   -1.5958 H   0  0  0  0  0  0  0  0  0  0  0  0
   -0.8453    1.8274    0.0513 H   0  0  0  0  0  0  0  0  0  0  0  0
   -3.1458    1.3563   -0.6593 H   0  0  0  0  0  0  0  0  0  0  0  0
   -2.6285    0.5202    0.8158 H   0  0  0  0  0  0  0  0  0  0  0  0
   -3.5421   -1.1311   -0.4157 H   0  0  0  0  0  0  0  0  0  0  0  0
  1  2  1  0
  2  3  2  0
  2  4  1  0
  4  5  1  0
  5  6  1  0
  5  7  1  0
  7  8  1  0
  8  9  1  0
  1 10  1  0
  1 11  1  0
  1 12  1  0
  5 13  1  0
  6 14  1  0
  6 15  1  0
  6 16  1  0
  7 17  1  0
  7 18  1  0
  8 19  1  0
  8 20  1  0
  9 21  1  0
M  END
