
     RDKit          3D

 17 17  0  0  0  0  0  0  0  0999 V2000
    3.2604   -0.2381   -0.6253 C   0  0  0  0  0  0  0  0  0  0  0  0
    1.9407   -0.0644    0.0483 C   0  0  0  0  0  0  0  0  0  0  0  0
    1.9057    0.0685    1.2989 O   0  0  0  0  0  0  0  0  0  0  0  0
    0.7400   -0.0395   -0.6200 O   0  0  0  0  0  0  0  0  0  0  0  0
   -0.4631    0.1271    0.0729 C   0  0  0  0  0  0  0  0  0  0  0  0
   -1.4280   -0.9775   -0.1518 C   0  0  0  0  0  0  0  0  0  0  0  0
   -2.6321   -0.4379    0.0213 C   0  0  0  0  0  0  0  0  0  0  0  0
   -2.3961    1.0134    0.3555 C   0  0  0  0  0  0  0  0  0  0  0  0
   -1.1977    1.2311   -0.3605 O   0  0  0  0  0  0  0  0  0  0  0  0
    3.8628    0.6777   -0.4428 H   0  0  0  0  0  0  0  0  0  0  0  0
    3.1716   -0.3792   -1.7008 H   0  0  0  0  0  0  0  0  0  0  0  0
    3.7841   -1.0693   -0.1411 H   0  0  0  0  0  0  0  0  0  0  0  0
   -0.3398    0.2317    1.1718 H   0  0  0  0  0  0  0  0  0  0  0  0
   -1.2221   -2.0097   -0.4037 H   0  0  0  0  0  0  0  0  0  0  0  0
   -3.5979   -0.9209   -0.0564 H   0  0  0  0  0  0  0  0  0  0  0  0
   -3.2141    1.6407   -0.0139 H   0  0  0  0  0  0  0  0  0  0  0  0
   -2.1745    1.1464    1.4348 H   0  0  0  0  0  0  0  0  0  0  0  0
  1  2  1  0
  2  3  2  0
  2  4  1  0
  4  5  1  0
  5  6  1  0
  6  7  2  0
  7  8  1  0
  8  9  1  0
  9  5  1  0
  1 10  1  0
  1 11  1  0
  1 12  1  0
  5 13  1  0
  6 14  1  0
  7 15  1  0
  8 16  1  0
  8 17  1  0
M  END
