
     RDKit          3D

 15 14  0  0  0  0  0  0  0  0999 V2000
    2.1268    0.3235   -0.1595 C   0  0  0  0  0  0  0  0  0  0  0  0
    0.9988   -0.6396   -0.0291 C   0  0  0  0  0  0  0  0  0  0  0  0
    1.1853   -1.8107   -0.3071 O   0  0  0  0  0  0  0  0  0  0  0  0
   -0.3061   -0.1110    0.4383 C   0  0  0  0  0  0  0  0  0  0  0  0
   -0.1912    1.2261    0.6637 O   0  0  0  0  0  0  0  0  0  0  0  0
   -1.4268   -0.5182   -0.4675 C   0  0  0  0  0  0  0  0  0  0  0  0
   -2.6705   -0.1689   -0.0353 O   0  0  0  0  0  0  0  0  0  0  0  0
    2.9544   -0.1097    0.4769 H   0  0  0  0  0  0  0  0  0  0  0  0
    2.4686    0.4303   -1.2117 H   0  0  0  0  0  0  0  0  0  0  0  0
    1.8702    1.3186    0.1990 H   0  0  0  0  0  0  0  0  0  0  0  0
   -0.4781   -0.5975    1.4455 H   0  0  0  0  0  0  0  0  0  0  0  0
   -0.8491    1.7978    0.2127 H   0  0  0  0  0  0  0  0  0  0  0  0
   -1.2280   -0.0791   -1.4748 H   0  0  0  0  0  0  0  0  0  0  0  0
   -1.3889   -1.6235   -0.5753 H   0  0  0  0  0  0  0  0  0  0  0  0
   -3.0652    0.5620   -0.6016 H   0  0  0  0  0  0  0  0  0  0  0  0
  1  2  1  0
  2  3  2  0
  2  4  1  0
  4  5  1  0
  4  6  1  0
  6  7  1  0
  1  8  1  0
  1  9  1  0
  1 10  1  0
  4 11  1  0
  5 12  1  0
  6 13  1  0
  6 14  1  0
  7 15  1  0
M  END
