
     RDKit          3D

 16 16  0  0  0  0  0  0  0  0999 V2000
    3.0959   -0.0175    0.6807 C   0  0  0  0  0  0  0  0  0  0  0  0
    1.7743   -0.2709    0.0048 C   0  0  0  0  0  0  0  0  0  0  0  0
    1.7206   -0.6167   -1.1933 O   0  0  0  0  0  0  0  0  0  0  0  0
    0.5861   -0.1245    0.7028 O   0  0  0  0  0  0  0  0  0  0  0  0
   -0.6442   -0.3772    0.0150 C   0  0  0  0  0  0  0  0  0  0  0  0
   -1.8290   -0.1775    0.8983 C   0  0  0  0  0  0  0  0  0  0  0  0
   -2.8904    0.7511    0.3473 C   0  0  0  0  0  0  0  0  0  0  0  0
   -2.0780    1.0495    1.4850 O   0  0  0  0  0  0  0  0  0  0  0  0
    3.5161    0.9637    0.3685 H   0  0  0  0  0  0  0  0  0  0  0  0
    3.8143   -0.7933    0.3900 H   0  0  0  0  0  0  0  0  0  0  0  0
    2.9643   -0.0002    1.7751 H   0  0  0  0  0  0  0  0  0  0  0  0
   -0.6804    0.2753   -0.8958 H   0  0  0  0  0  0  0  0  0  0  0  0
   -0.6688   -1.4260   -0.3543 H   0  0  0  0  0  0  0  0  0  0  0  0
   -2.1447   -1.0619    1.4801 H   0  0  0  0  0  0  0  0  0  0  0  0
   -2.6105    1.3837   -0.5087 H   0  0  0  0  0  0  0  0  0  0  0  0
   -3.9258    0.4425    0.5293 H   0  0  0  0  0  0  0  0  0  0  0  0
  1  2  1  0
  2  3  2  0
  2  4  1  0
  4  5  1  0
  5  6  1  0
  6  7  1  0
  7  8  1  0
  8  6  1  0
  1  9  1  0
  1 10  1  0
  1 11  1  0
  5 12  1  0
  5 13  1  0
  6 14  1  0
  7 15  1  0
  7 16  1  0
M  END
