
     RDKit          3D

 17 17  0  0  0  0  0  0  0  0999 V2000
    2.0024    0.5448   -0.0005 C   0  0  0  0  0  0  0  0  0  0  0  0
    0.8399   -0.0096   -0.7365 C   0  0  0  0  0  0  0  0  0  0  0  0
    0.8678   -0.1766   -1.9598 O   0  0  0  0  0  0  0  0  0  0  0  0
   -0.3771   -0.3682    0.0180 C   0  0  0  0  0  0  0  0  0  0  0  0
   -0.9334   -1.7317   -0.3072 C   0  0  0  0  0  0  0  0  0  0  0  0
   -1.4233    0.7301    0.0769 C   0  0  0  0  0  0  0  0  0  0  0  0
   -0.4815    1.2298    1.1038 C   0  0  0  0  0  0  0  0  0  0  0  0
   -0.1547    2.3811    1.4677 O   0  0  0  0  0  0  0  0  0  0  0  0
   -0.2055   -0.1024    1.3932 O   0  0  0  0  0  0  0  0  0  0  0  0
    2.9115    0.0890   -0.4430 H   0  0  0  0  0  0  0  0  0  0  0  0
    2.0046    1.6546   -0.0785 H   0  0  0  0  0  0  0  0  0  0  0  0
    1.9807    0.2349    1.0578 H   0  0  0  0  0  0  0  0  0  0  0  0
   -1.5472   -1.6133   -1.2286 H   0  0  0  0  0  0  0  0  0  0  0  0
   -0.0802   -2.3759   -0.5857 H   0  0  0  0  0  0  0  0  0  0  0  0
   -1.5551   -2.1470    0.5009 H   0  0  0  0  0  0  0  0  0  0  0  0
   -1.5107    1.3028   -0.8374 H   0  0  0  0  0  0  0  0  0  0  0  0
   -2.3382    0.3575    0.5589 H   0  0  0  0  0  0  0  0  0  0  0  0
  1  2  1  0
  2  3  2  0
  2  4  1  0
  4  5  1  0
  4  6  1  0
  6  7  1  0
  7  8  2  0
  7  9  1  0
  9  4  1  0
  1 10  1  0
  1 11  1  0
  1 12  1  0
  5 13  1  0
  5 14  1  0
  5 15  1  0
  6 16  1  0
  6 17  1  0
M  END
