
     RDKit          3D

 16 16  0  0  0  0  0  0  0  0999 V2000
    2.2374   -0.0540   -0.0546 C   0  0  0  0  0  0  0  0  0  0  0  0
    0.8660   -0.4699   -0.4188 C   0  0  0  0  0  0  0  0  0  0  0  0
    0.6761   -1.3713   -1.2189 O   0  0  0  0  0  0  0  0  0  0  0  0
   -0.3210    0.1846    0.1673 C   0  0  0  0  0  0  0  0  0  0  0  0
    0.0388    1.1870    1.0564 O   0  0  0  0  0  0  0  0  0  0  0  0
   -1.4525    0.4853   -0.7532 C   0  0  0  0  0  0  0  0  0  0  0  0
   -2.3815   -0.1906    0.0575 O   0  0  0  0  0  0  0  0  0  0  0  0
   -1.3205   -0.8115    0.6982 C   0  0  0  0  0  0  0  0  0  0  0  0
    2.9235   -0.9486   -0.0879 H   0  0  0  0  0  0  0  0  0  0  0  0
    2.2790    0.4451    0.9364 H   0  0  0  0  0  0  0  0  0  0  0  0
    2.6118    0.6240   -0.8535 H   0  0  0  0  0  0  0  0  0  0  0  0
   -0.5456    2.0031    0.9703 H   0  0  0  0  0  0  0  0  0  0  0  0
   -1.7718    1.5394   -0.8389 H   0  0  0  0  0  0  0  0  0  0  0  0
   -1.3096    0.0464   -1.7506 H   0  0  0  0  0  0  0  0  0  0  0  0
   -1.3954   -0.8492    1.8043 H   0  0  0  0  0  0  0  0  0  0  0  0
   -1.1346   -1.8200    0.2860 H   0  0  0  0  0  0  0  0  0  0  0  0
  1  2  1  0
  2  3  2  0
  2  4  1  0
  4  5  1  0
  4  6  1  0
  6  7  1  0
  7  8  1  0
  8  4  1  0
  1  9  1  0
  1 10  1  0
  1 11  1  0
  5 12  1  0
  6 13  1  0
  6 14  1  0
  8 15  1  0
  8 16  1  0
M  END
