
     RDKit          3D

 16 16  0  0  0  0  0  0  0  0999 V2000
    2.7954   -0.1387    0.5685 C   0  0  0  0  0  0  0  0  0  0  0  0
    1.5627    0.5584    0.1200 C   0  0  0  0  0  0  0  0  0  0  0  0
    1.6428    1.7127   -0.2502 O   0  0  0  0  0  0  0  0  0  0  0  0
    0.2911   -0.1976    0.1485 C   0  0  0  0  0  0  0  0  0  0  0  0
   -0.3052   -0.1004   -1.2329 O   0  0  0  0  0  0  0  0  0  0  0  0
   -1.0019    0.4316   -0.0301 C   0  0  0  0  0  0  0  0  0  0  0  0
   -2.2302   -0.4240    0.1919 C   0  0  0  0  0  0  0  0  0  0  0  0
   -2.9612   -0.0259    1.2843 O   0  0  0  0  0  0  0  0  0  0  0  0
    3.3104   -0.5748   -0.3000 H   0  0  0  0  0  0  0  0  0  0  0  0
    3.4935    0.5372    1.1004 H   0  0  0  0  0  0  0  0  0  0  0  0
    2.5584   -0.9688    1.2667 H   0  0  0  0  0  0  0  0  0  0  0  0
    0.3109   -1.2355    0.4975 H   0  0  0  0  0  0  0  0  0  0  0  0
   -1.1558    1.5186   -0.0844 H   0  0  0  0  0  0  0  0  0  0  0  0
   -1.9270   -1.4875    0.2960 H   0  0  0  0  0  0  0  0  0  0  0  0
   -2.9141   -0.3982   -0.6949 H   0  0  0  0  0  0  0  0  0  0  0  0
   -3.4698    0.7931    1.1481 H   0  0  0  0  0  0  0  0  0  0  0  0
  1  2  1  0
  2  3  2  0
  2  4  1  0
  4  5  1  0
  5  6  1  0
  6  7  1  0
  7  8  1  0
  6  4  1  0
  1  9  1  0
  1 10  1  0
  1 11  1  0
  4 12  1  0
  6 13  1  0
  7 14  1  0
  7 15  1  0
  8 16  1  0
M  END
