
     RDKit          3D

 17 16  0  0  0  0  0  0  0  0999 V2000
    2.2236   -0.1632    0.1396 C   0  0  0  0  0  0  0  0  0  0  0  0
    0.9338   -0.0984   -0.5858 C   0  0  0  0  0  0  0  0  0  0  0  0
    0.9052   -0.2062   -1.8023 O   0  0  0  0  0  0  0  0  0  0  0  0
   -0.2997    0.1002    0.2232 C   0  0  0  0  0  0  0  0  0  0  0  0
    0.0708    0.1849    1.5648 O   0  0  0  0  0  0  0  0  0  0  0  0
   -0.9963    1.3591   -0.1296 C   0  0  0  0  0  0  0  0  0  0  0  0
   -1.4146    1.5168   -1.2574 O   0  0  0  0  0  0  0  0  0  0  0  0
   -1.2150   -1.1044    0.0266 C   0  0  0  0  0  0  0  0  0  0  0  0
   -2.3595   -1.0149    0.7826 O   0  0  0  0  0  0  0  0  0  0  0  0
    2.5440   -1.2354    0.2927 H   0  0  0  0  0  0  0  0  0  0  0  0
    3.0530    0.3204   -0.4303 H   0  0  0  0  0  0  0  0  0  0  0  0
    2.1425    0.3437    1.1268 H   0  0  0  0  0  0  0  0  0  0  0  0
    0.3625    1.1123    1.7675 H   0  0  0  0  0  0  0  0  0  0  0  0
   -1.1159    2.1102    0.6283 H   0  0  0  0  0  0  0  0  0  0  0  0
   -0.6156   -1.9990    0.2895 H   0  0  0  0  0  0  0  0  0  0  0  0
   -1.5087   -1.1142   -1.0471 H   0  0  0  0  0  0  0  0  0  0  0  0
   -2.7099   -0.1118    0.8879 H   0  0  0  0  0  0  0  0  0  0  0  0
  1  2  1  0
  2  3  2  0
  2  4  1  0
  4  5  1  0
  4  6  1  0
  6  7  2  0
  4  8  1  0
  8  9  1  0
  1 10  1  0
  1 11  1  0
  1 12  1  0
  5 13  1  0
  6 14  1  0
  8 15  1  0
  8 16  1  0
  9 17  1  0
M  END
