
     RDKit          3D

 19 19  0  0  0  0  0  0  0  0999 V2000
    3.5042   -1.0872   -0.7754 C   0  0  0  0  0  0  0  0  0  0  0  0
    2.2995   -0.9536    0.0787 C   0  0  0  0  0  0  0  0  0  0  0  0
    2.2976   -1.5507    1.1831 O   0  0  0  0  0  0  0  0  0  0  0  0
    1.1422   -0.1880   -0.2777 C   0  0  0  0  0  0  0  0  0  0  0  0
    0.1760    0.4700   -0.5736 C   0  0  0  0  0  0  0  0  0  0  0  0
   -0.9854    1.2746   -0.9522 C   0  0  0  0  0  0  0  0  0  0  0  0
   -2.1657    0.7706   -0.1894 C   0  0  0  0  0  0  0  0  0  0  0  0
   -2.1530    0.7923    1.3035 C   0  0  0  0  0  0  0  0  0  0  0  0
   -2.0197   -0.5273    0.5257 C   0  0  0  0  0  0  0  0  0  0  0  0
    3.4572   -0.2782   -1.5613 H   0  0  0  0  0  0  0  0  0  0  0  0
    4.4413   -0.9607   -0.2269 H   0  0  0  0  0  0  0  0  0  0  0  0
    3.4273   -2.0518   -1.3226 H   0  0  0  0  0  0  0  0  0  0  0  0
   -1.1966    1.1712   -2.0468 H   0  0  0  0  0  0  0  0  0  0  0  0
   -0.8011    2.3669   -0.7733 H   0  0  0  0  0  0  0  0  0  0  0  0
   -3.1560    0.9694   -0.6729 H   0  0  0  0  0  0  0  0  0  0  0  0
   -3.0981    0.8791    1.8637 H   0  0  0  0  0  0  0  0  0  0  0  0
   -1.2233    1.1332    1.8120 H   0  0  0  0  0  0  0  0  0  0  0  0
   -2.9080   -1.2020    0.5126 H   0  0  0  0  0  0  0  0  0  0  0  0
   -1.0382   -1.0277    0.5274 H   0  0  0  0  0  0  0  0  0  0  0  0
  1  2  1  0
  2  3  2  0
  2  4  1  0
  4  5  3  0
  5  6  1  0
  6  7  1  0
  7  8  1  0
  8  9  1  0
  9  7  1  0
  1 10  1  0
  1 11  1  0
  1 12  1  0
  6 13  1  0
  6 14  1  0
  7 15  1  0
  8 16  1  0
  8 17  1  0
  9 18  1  0
  9 19  1  0
M  END
