
     RDKit          3D

 18 18  0  0  0  0  0  0  0  0999 V2000
    2.2174    0.9797    0.3045 C   0  0  0  0  0  0  0  0  0  0  0  0
    1.5778   -0.3140   -0.0233 C   0  0  0  0  0  0  0  0  0  0  0  0
    2.2594   -1.2476   -0.3507 O   0  0  0  0  0  0  0  0  0  0  0  0
    0.1065   -0.4560    0.0528 C   0  0  0  0  0  0  0  0  0  0  0  0
   -0.4431   -1.8540   -0.1098 C   0  0  0  0  0  0  0  0  0  0  0  0
   -0.3106    0.0903    1.3863 O   0  0  0  0  0  0  0  0  0  0  0  0
   -0.6881    0.7075    0.0907 C   0  0  0  0  0  0  0  0  0  0  0  0
   -2.1921    0.7249    0.0143 C   0  0  0  0  0  0  0  0  0  0  0  0
    1.9851    1.7778   -0.4281 H   0  0  0  0  0  0  0  0  0  0  0  0
    1.8416    1.2676    1.3321 H   0  0  0  0  0  0  0  0  0  0  0  0
    3.3055    0.9303    0.3997 H   0  0  0  0  0  0  0  0  0  0  0  0
    0.1711   -2.5278    0.5148 H   0  0  0  0  0  0  0  0  0  0  0  0
   -0.3388   -2.1492   -1.1534 H   0  0  0  0  0  0  0  0  0  0  0  0
   -1.4973   -1.8644    0.2328 H   0  0  0  0  0  0  0  0  0  0  0  0
   -0.2202    1.7070   -0.0292 H   0  0  0  0  0  0  0  0  0  0  0  0
   -2.5268    1.5632    0.6957 H   0  0  0  0  0  0  0  0  0  0  0  0
   -2.5872    0.8565   -0.9999 H   0  0  0  0  0  0  0  0  0  0  0  0
   -2.6602   -0.1919    0.4517 H   0  0  0  0  0  0  0  0  0  0  0  0
  1  2  1  0
  2  3  2  0
  2  4  1  0
  4  5  1  0
  4  6  1  0
  6  7  1  0
  7  8  1  0
  7  4  1  0
  1  9  1  0
  1 10  1  0
  1 11  1  0
  5 12  1  0
  5 13  1  0
  5 14  1  0
  7 15  1  0
  8 16  1  0
  8 17  1  0
  8 18  1  0
M  END
