
     RDKit          3D

 23 23  0  0  0  0  0  0  0  0999 V2000
    2.8736    0.3792    0.0340 C   0  0  0  0  0  0  0  0  0  0  0  0
    1.4821    0.5360   -0.4736 C   0  0  0  0  0  0  0  0  0  0  0  0
    1.3774    0.8021   -1.6556 O   0  0  0  0  0  0  0  0  0  0  0  0
    0.3909    0.3586    0.4801 C   0  0  0  0  0  0  0  0  0  0  0  0
    0.4451   -1.0574    1.0712 C   0  0  0  0  0  0  0  0  0  0  0  0
   -0.6852   -1.4169    0.1359 C   0  0  0  0  0  0  0  0  0  0  0  0
   -0.9660    0.0663   -0.0053 C   0  0  0  0  0  0  0  0  0  0  0  0
   -1.3281    0.4017   -1.4085 C   0  0  0  0  0  0  0  0  0  0  0  0
   -2.0272    0.5815    0.9563 C   0  0  0  0  0  0  0  0  0  0  0  0
    2.9216   -0.2711    0.9291 H   0  0  0  0  0  0  0  0  0  0  0  0
    3.5103   -0.0591   -0.7592 H   0  0  0  0  0  0  0  0  0  0  0  0
    3.2496    1.3921    0.3560 H   0  0  0  0  0  0  0  0  0  0  0  0
    0.4933    1.0755    1.3274 H   0  0  0  0  0  0  0  0  0  0  0  0
    0.1511   -1.1056    2.1183 H   0  0  0  0  0  0  0  0  0  0  0  0
    1.3712   -1.6011    0.8738 H   0  0  0  0  0  0  0  0  0  0  0  0
   -1.5276   -1.9597    0.6107 H   0  0  0  0  0  0  0  0  0  0  0  0
   -0.3104   -1.8339   -0.8092 H   0  0  0  0  0  0  0  0  0  0  0  0
   -0.7190   -0.0879   -2.1811 H   0  0  0  0  0  0  0  0  0  0  0  0
   -1.3961    1.5157   -1.5623 H   0  0  0  0  0  0  0  0  0  0  0  0
   -2.3802    0.0352   -1.5770 H   0  0  0  0  0  0  0  0  0  0  0  0
   -2.4949    1.5075    0.5307 H   0  0  0  0  0  0  0  0  0  0  0  0
   -1.5748    0.8811    1.9137 H   0  0  0  0  0  0  0  0  0  0  0  0
   -2.8567   -0.1396    1.0806 H   0  0  0  0  0  0  0  0  0  0  0  0
  1  2  1  0
  2  3  2  0
  2  4  1  0
  4  5  1  0
  5  6  1  0
  6  7  1  0
  7  8  1  0
  7  9  1  0
  7  4  1  0
  1 10  1  0
  1 11  1  0
  1 12  1  0
  4 13  1  0
  5 14  1  0
  5 15  1  0
  6 16  1  0
  6 17  1  0
  8 18  1  0
  8 19  1  0
  8 20  1  0
  9 21  1  0
  9 22  1  0
  9 23  1  0
M  END
