
     RDKit          3D

 19 19  0  0  0  0  0  0  0  0999 V2000
    2.6056   -0.4476    0.0216 C   0  0  0  0  0  0  0  0  0  0  0  0
    1.5042    0.5349   -0.2011 C   0  0  0  0  0  0  0  0  0  0  0  0
    1.7484    1.7097    0.0866 O   0  0  0  0  0  0  0  0  0  0  0  0
    0.2071    0.1087   -0.7343 C   0  0  0  0  0  0  0  0  0  0  0  0
   -0.7197    1.2927   -0.8607 C   0  0  0  0  0  0  0  0  0  0  0  0
   -0.9802    2.0268   -1.7881 O   0  0  0  0  0  0  0  0  0  0  0  0
   -1.0705    1.0759    0.5689 C   0  0  0  0  0  0  0  0  0  0  0  0
   -0.7457   -0.4032    0.3495 C   0  0  0  0  0  0  0  0  0  0  0  0
   -1.9432   -1.1390   -0.1778 C   0  0  0  0  0  0  0  0  0  0  0  0
    3.4067   -0.0245    0.6719 H   0  0  0  0  0  0  0  0  0  0  0  0
    2.2322   -1.3596    0.5426 H   0  0  0  0  0  0  0  0  0  0  0  0
    3.1216   -0.7153   -0.9392 H   0  0  0  0  0  0  0  0  0  0  0  0
    0.2228   -0.5291   -1.6447 H   0  0  0  0  0  0  0  0  0  0  0  0
   -2.1556    1.2409    0.7921 H   0  0  0  0  0  0  0  0  0  0  0  0
   -0.3891    1.5010    1.3087 H   0  0  0  0  0  0  0  0  0  0  0  0
   -0.1946   -0.8731    1.1672 H   0  0  0  0  0  0  0  0  0  0  0  0
   -1.9283   -1.3153   -1.2529 H   0  0  0  0  0  0  0  0  0  0  0  0
   -2.8676   -0.5652    0.1058 H   0  0  0  0  0  0  0  0  0  0  0  0
   -2.0542   -2.1186    0.3596 H   0  0  0  0  0  0  0  0  0  0  0  0
  1  2  1  0
  2  3  2  0
  2  4  1  0
  4  5  1  0
  5  6  2  0
  5  7  1  0
  7  8  1  0
  8  9  1  0
  8  4  1  0
  1 10  1  0
  1 11  1  0
  1 12  1  0
  4 13  1  0
  7 14  1  0
  7 15  1  0
  8 16  1  0
  9 17  1  0
  9 18  1  0
  9 19  1  0
M  END
