
     RDKit          3D

 23 22  0  0  0  0  0  0  0  0999 V2000
    3.4747   -0.7343    0.6611 C   0  0  0  0  0  0  0  0  0  0  0  0
    2.2200   -0.1190    0.1173 C   0  0  0  0  0  0  0  0  0  0  0  0
    2.1365   -0.1398   -1.1287 O   0  0  0  0  0  0  0  0  0  0  0  0
    1.2498    0.4162    0.8609 O   0  0  0  0  0  0  0  0  0  0  0  0
    0.0696    0.9865    0.4956 C   0  0  0  0  0  0  0  0  0  0  0  0
   -1.0083    0.1741   -0.1149 C   0  0  0  0  0  0  0  0  0  0  0  0
   -0.7216   -0.5155   -1.4032 C   0  0  0  0  0  0  0  0  0  0  0  0
   -2.2031    1.1154   -0.3910 C   0  0  0  0  0  0  0  0  0  0  0  0
   -1.5719   -0.8495    0.8832 C   0  0  0  0  0  0  0  0  0  0  0  0
    4.3072   -0.1008    0.3008 H   0  0  0  0  0  0  0  0  0  0  0  0
    3.5773   -1.7271    0.1797 H   0  0  0  0  0  0  0  0  0  0  0  0
    3.4623   -0.8130    1.7467 H   0  0  0  0  0  0  0  0  0  0  0  0
   -0.3934    1.5462    1.3861 H   0  0  0  0  0  0  0  0  0  0  0  0
    0.2181    1.8674   -0.2359 H   0  0  0  0  0  0  0  0  0  0  0  0
   -0.2920    0.2091   -2.1148 H   0  0  0  0  0  0  0  0  0  0  0  0
   -1.7380   -0.7475   -1.8481 H   0  0  0  0  0  0  0  0  0  0  0  0
   -0.1471   -1.4487   -1.2795 H   0  0  0  0  0  0  0  0  0  0  0  0
   -2.1368    2.0231    0.2400 H   0  0  0  0  0  0  0  0  0  0  0  0
   -2.1742    1.4432   -1.4659 H   0  0  0  0  0  0  0  0  0  0  0  0
   -3.1568    0.6129   -0.2147 H   0  0  0  0  0  0  0  0  0  0  0  0
   -2.4147   -1.3423    0.3557 H   0  0  0  0  0  0  0  0  0  0  0  0
   -1.9601   -0.3066    1.7467 H   0  0  0  0  0  0  0  0  0  0  0  0
   -0.7974   -1.5501    1.2228 H   0  0  0  0  0  0  0  0  0  0  0  0
  1  2  1  0
  2  3  2  0
  2  4  1  0
  4  5  1  0
  5  6  1  0
  6  7  1  0
  6  8  1  0
  6  9  1  0
  1 10  1  0
  1 11  1  0
  1 12  1  0
  5 13  1  0
  5 14  1  0
  7 15  1  0
  7 16  1  0
  7 17  1  0
  8 18  1  0
  8 19  1  0
  8 20  1  0
  9 21  1  0
  9 22  1  0
  9 23  1  0
M  END
