
     RDKit          3D

 12 11  0  0  0  0  0  0  0  0999 V2000
   -1.7985    0.0834    0.1509 C   0  0  0  0  0  0  0  0  0  0  0  0
   -0.3612    0.3814    0.3306 C   0  0  0  0  0  0  0  0  0  0  0  0
   -0.0267    1.3008    1.0477 O   0  0  0  0  0  0  0  0  0  0  0  0
    0.6396   -0.4605   -0.3748 C   0  0  0  0  0  0  0  0  0  0  0  0
    1.9805    0.0434   -0.0235 C   0  0  0  0  0  0  0  0  0  0  0  0
    2.2573    1.2006   -0.2171 O   0  0  0  0  0  0  0  0  0  0  0  0
   -1.9636   -0.9504    0.5681 H   0  0  0  0  0  0  0  0  0  0  0  0
   -1.9799    0.0171   -0.9622 H   0  0  0  0  0  0  0  0  0  0  0  0
   -2.4254    0.8305    0.6525 H   0  0  0  0  0  0  0  0  0  0  0  0
    0.4314   -0.2930   -1.4637 H   0  0  0  0  0  0  0  0  0  0  0  0
    0.5386   -1.5423   -0.1153 H   0  0  0  0  0  0  0  0  0  0  0  0
    2.7079   -0.6109    0.4068 H   0  0  0  0  0  0  0  0  0  0  0  0
  1  2  1  0
  2  3  2  0
  2  4  1  0
  4  5  1  0
  5  6  2  0
  1  7  1  0
  1  8  1  0
  1  9  1  0
  4 10  1  0
  4 11  1  0
  5 12  1  0
M  END
