
     RDKit          3D

 21 20  0  0  0  0  0  0  0  0999 V2000
    2.2290   -0.4540    0.8099 C   0  0  0  0  0  0  0  0  0  0  0  0
    1.3850    0.6832    0.3583 C   0  0  0  0  0  0  0  0  0  0  0  0
    1.6101    1.7988    0.7775 O   0  0  0  0  0  0  0  0  0  0  0  0
    0.2895    0.3764   -0.6035 C   0  0  0  0  0  0  0  0  0  0  0  0
   -0.4172    1.6467   -0.9146 C   0  0  0  0  0  0  0  0  0  0  0  0
   -0.5930   -0.7278   -0.1014 C   0  0  0  0  0  0  0  0  0  0  0  0
   -1.2645   -0.4363    1.1955 C   0  0  0  0  0  0  0  0  0  0  0  0
   -1.5529   -1.2010   -1.1350 C   0  0  0  0  0  0  0  0  0  0  0  0
   -1.8216   -0.5662   -2.1456 O   0  0  0  0  0  0  0  0  0  0  0  0
    2.5052   -1.0478   -0.0948 H   0  0  0  0  0  0  0  0  0  0  0  0
    3.1732   -0.0831    1.2426 H   0  0  0  0  0  0  0  0  0  0  0  0
    1.6838   -1.1393    1.4812 H   0  0  0  0  0  0  0  0  0  0  0  0
    0.7809   -0.0045   -1.5366 H   0  0  0  0  0  0  0  0  0  0  0  0
    0.1553    2.1514   -1.7483 H   0  0  0  0  0  0  0  0  0  0  0  0
   -0.2982    2.3544   -0.0480 H   0  0  0  0  0  0  0  0  0  0  0  0
   -1.4437    1.5587   -1.2518 H   0  0  0  0  0  0  0  0  0  0  0  0
    0.0944   -1.6074    0.0837 H   0  0  0  0  0  0  0  0  0  0  0  0
   -2.3711   -0.4608    1.0242 H   0  0  0  0  0  0  0  0  0  0  0  0
   -0.9977    0.5309    1.6510 H   0  0  0  0  0  0  0  0  0  0  0  0
   -1.0868   -1.2226    1.9792 H   0  0  0  0  0  0  0  0  0  0  0  0
   -2.0596   -2.1497   -1.0235 H   0  0  0  0  0  0  0  0  0  0  0  0
  1  2  1  0
  2  3  2  0
  2  4  1  0
  4  5  1  0
  4  6  1  0
  6  7  1  0
  6  8  1  0
  8  9  2  0
  1 10  1  0
  1 11  1  0
  1 12  1  0
  4 13  1  0
  5 14  1  0
  5 15  1  0
  5 16  1  0
  6 17  1  0
  7 18  1  0
  7 19  1  0
  7 20  1  0
  8 21  1  0
M  END
