
     RDKit          3D

 17 16  0  0  0  0  0  0  0  0999 V2000
   -2.0829   -0.8936    0.1052 C   0  0  0  0  0  0  0  0  0  0  0  0
   -1.3198    0.3678    0.2383 C   0  0  0  0  0  0  0  0  0  0  0  0
   -1.8070    1.2970    0.8464 O   0  0  0  0  0  0  0  0  0  0  0  0
    0.0321    0.5126   -0.3609 C   0  0  0  0  0  0  0  0  0  0  0  0
    0.5444    1.8483   -0.0768 C   0  0  0  0  0  0  0  0  0  0  0  0
    1.7022    2.2110   -0.1257 O   0  0  0  0  0  0  0  0  0  0  0  0
    0.8562   -0.6212    0.2138 C   0  0  0  0  0  0  0  0  0  0  0  0
    2.2437   -0.6646   -0.2560 C   0  0  0  0  0  0  0  0  0  0  0  0
    3.0733    0.0252    0.3087 O   0  0  0  0  0  0  0  0  0  0  0  0
   -1.7068   -1.4934   -0.7734 H   0  0  0  0  0  0  0  0  0  0  0  0
   -3.1496   -0.6107   -0.0455 H   0  0  0  0  0  0  0  0  0  0  0  0
   -1.9349   -1.5168    1.0152 H   0  0  0  0  0  0  0  0  0  0  0  0
    0.0150    0.3267   -1.4616 H   0  0  0  0  0  0  0  0  0  0  0  0
   -0.1754    2.6327    0.2161 H   0  0  0  0  0  0  0  0  0  0  0  0
    0.3385   -1.5603   -0.0917 H   0  0  0  0  0  0  0  0  0  0  0  0
    0.7713   -0.5901    1.3275 H   0  0  0  0  0  0  0  0  0  0  0  0
    2.5999   -1.2708   -1.0797 H   0  0  0  0  0  0  0  0  0  0  0  0
  1  2  1  0
  2  3  2  0
  2  4  1  0
  4  5  1  0
  5  6  2  0
  4  7  1  0
  7  8  1  0
  8  9  2  0
  1 10  1  0
  1 11  1  0
  1 12  1  0
  4 13  1  0
  5 14  1  0
  7 15  1  0
  7 16  1  0
  8 17  1  0
M  END
