
     RDKit          3D

 21 21  0  0  0  0  0  0  0  0999 V2000
    2.4413    0.3774    1.2379 C   0  0  0  0  0  0  0  0  0  0  0  0
    0.9990    0.4636    0.9175 C   0  0  0  0  0  0  0  0  0  0  0  0
    0.3160    1.2454    1.5817 O   0  0  0  0  0  0  0  0  0  0  0  0
    0.3676   -0.3280   -0.1266 C   0  0  0  0  0  0  0  0  0  0  0  0
   -1.0525   -0.0750   -0.5476 C   0  0  0  0  0  0  0  0  0  0  0  0
   -1.9885   -0.2747    0.6448 C   0  0  0  0  0  0  0  0  0  0  0  0
   -1.3181    1.3110   -1.0566 C   0  0  0  0  0  0  0  0  0  0  0  0
    0.8393   -1.7197   -0.2820 C   0  0  0  0  0  0  0  0  0  0  0  0
    1.2924   -0.6837   -1.2286 O   0  0  0  0  0  0  0  0  0  0  0  0
    2.5926    0.1440    2.3283 H   0  0  0  0  0  0  0  0  0  0  0  0
    2.9190   -0.4138    0.6200 H   0  0  0  0  0  0  0  0  0  0  0  0
    2.9908    1.3196    1.0529 H   0  0  0  0  0  0  0  0  0  0  0  0
   -1.3522   -0.7921   -1.3314 H   0  0  0  0  0  0  0  0  0  0  0  0
   -1.4662   -0.8142    1.4670 H   0  0  0  0  0  0  0  0  0  0  0  0
   -2.8675   -0.8854    0.3682 H   0  0  0  0  0  0  0  0  0  0  0  0
   -2.3117    0.6865    1.0866 H   0  0  0  0  0  0  0  0  0  0  0  0
   -0.4813    1.7588   -1.6158 H   0  0  0  0  0  0  0  0  0  0  0  0
   -2.2046    1.2601   -1.7515 H   0  0  0  0  0  0  0  0  0  0  0  0
   -1.6728    1.9552   -0.2087 H   0  0  0  0  0  0  0  0  0  0  0  0
    0.2633   -2.4857   -0.8343 H   0  0  0  0  0  0  0  0  0  0  0  0
    1.6942   -2.0494    0.3159 H   0  0  0  0  0  0  0  0  0  0  0  0
  1  2  1  0
  2  3  2  0
  2  4  1  0
  4  5  1  0
  5  6  1  0
  5  7  1  0
  4  8  1  0
  8  9  1  0
  9  4  1  0
  1 10  1  0
  1 11  1  0
  1 12  1  0
  5 13  1  0
  6 14  1  0
  6 15  1  0
  6 16  1  0
  7 17  1  0
  7 18  1  0
  7 19  1  0
  8 20  1  0
  8 21  1  0
M  END
