
     RDKit          3D

 19 19  0  0  0  0  0  0  0  0999 V2000
   -2.2708    0.3352   -0.1129 C   0  0  0  0  0  0  0  0  0  0  0  0
   -1.5665   -0.9510    0.1492 C   0  0  0  0  0  0  0  0  0  0  0  0
   -2.1319   -2.0077    0.2901 O   0  0  0  0  0  0  0  0  0  0  0  0
   -0.0772   -0.9164    0.2404 C   0  0  0  0  0  0  0  0  0  0  0  0
    0.5268   -0.4091   -1.0510 C   0  0  0  0  0  0  0  0  0  0  0  0
    1.7690    0.3564   -0.6910 C   0  0  0  0  0  0  0  0  0  0  0  0
    1.5703    0.7675    0.7485 C   0  0  0  0  0  0  0  0  0  0  0  0
    0.3285    0.1193    1.2109 C   0  0  0  0  0  0  0  0  0  0  0  0
   -0.2660    0.3900    2.2234 O   0  0  0  0  0  0  0  0  0  0  0  0
   -2.3109    0.5824   -1.1912 H   0  0  0  0  0  0  0  0  0  0  0  0
   -1.7356    1.1390    0.4706 H   0  0  0  0  0  0  0  0  0  0  0  0
   -3.3006    0.2445    0.2923 H   0  0  0  0  0  0  0  0  0  0  0  0
    0.3482   -1.8734    0.5704 H   0  0  0  0  0  0  0  0  0  0  0  0
   -0.1774    0.2721   -1.5424 H   0  0  0  0  0  0  0  0  0  0  0  0
    0.8274   -1.2359   -1.7312 H   0  0  0  0  0  0  0  0  0  0  0  0
    2.6781   -0.2889   -0.7557 H   0  0  0  0  0  0  0  0  0  0  0  0
    1.9265    1.2029   -1.3712 H   0  0  0  0  0  0  0  0  0  0  0  0
    2.4275    0.4117    1.3922 H   0  0  0  0  0  0  0  0  0  0  0  0
    1.4345    1.8614    0.8585 H   0  0  0  0  0  0  0  0  0  0  0  0
  1  2  1  0
  2  3  2  0
  2  4  1  0
  4  5  1  0
  5  6  1  0
  6  7  1  0
  7  8  1  0
  8  9  2  0
  8  4  1  0
  1 10  1  0
  1 11  1  0
  1 12  1  0
  4 13  1  0
  5 14  1  0
  5 15  1  0
  6 16  1  0
  6 17  1  0
  7 18  1  0
  7 19  1  0
M  END
