
     RDKit          3D

 19 19  0  0  0  0  0  0  0  0999 V2000
    3.0530    0.6263   -0.7915 C   0  0  0  0  0  0  0  0  0  0  0  0
    2.0917   -0.0753    0.0827 C   0  0  0  0  0  0  0  0  0  0  0  0
    2.4945   -0.5457    1.1630 O   0  0  0  0  0  0  0  0  0  0  0  0
    0.7635   -0.2637   -0.1876 O   0  0  0  0  0  0  0  0  0  0  0  0
   -0.1620   -0.9242    0.6256 C   0  0  0  0  0  0  0  0  0  0  0  0
   -1.1982   -1.8303    0.0994 C   0  0  0  0  0  0  0  0  0  0  0  0
   -1.5535   -0.4847    0.7803 C   0  0  0  0  0  0  0  0  0  0  0  0
   -2.1705    0.5704   -0.0844 C   0  0  0  0  0  0  0  0  0  0  0  0
   -1.5005    1.7989    0.0131 O   0  0  0  0  0  0  0  0  0  0  0  0
    2.4969    0.9701   -1.6818 H   0  0  0  0  0  0  0  0  0  0  0  0
    3.5907    1.4474   -0.2891 H   0  0  0  0  0  0  0  0  0  0  0  0
    3.8330   -0.1336   -1.0813 H   0  0  0  0  0  0  0  0  0  0  0  0
    0.3344   -1.2969    1.5653 H   0  0  0  0  0  0  0  0  0  0  0  0
   -1.4224   -1.9178   -0.9816 H   0  0  0  0  0  0  0  0  0  0  0  0
   -1.4746   -2.7531    0.6523 H   0  0  0  0  0  0  0  0  0  0  0  0
   -2.0468   -0.6141    1.7852 H   0  0  0  0  0  0  0  0  0  0  0  0
   -3.2149    0.7558    0.2424 H   0  0  0  0  0  0  0  0  0  0  0  0
   -2.2503    0.2665   -1.1607 H   0  0  0  0  0  0  0  0  0  0  0  0
   -1.6637    2.3766   -0.7512 H   0  0  0  0  0  0  0  0  0  0  0  0
  1  2  1  0
  2  3  2  0
  2  4  1  0
  4  5  1  0
  5  6  1  0
  6  7  1  0
  7  8  1  0
  8  9  1  0
  7  5  1  0
  1 10  1  0
  1 11  1  0
  1 12  1  0
  5 13  1  0
  6 14  1  0
  6 15  1  0
  7 16  1  0
  8 17  1  0
  8 18  1  0
  9 19  1  0
M  END
