
     RDKit          3D

 21 21  0  0  0  0  0  0  0  0999 V2000
    1.9133    0.7692    0.1631 C   0  0  0  0  0  0  0  0  0  0  0  0
    1.2487   -0.0510   -0.8744 C   0  0  0  0  0  0  0  0  0  0  0  0
    1.8526   -0.1116   -1.9422 O   0  0  0  0  0  0  0  0  0  0  0  0
   -0.0075   -0.7640   -0.7463 C   0  0  0  0  0  0  0  0  0  0  0  0
   -0.0761   -1.8079    0.3103 C   0  0  0  0  0  0  0  0  0  0  0  0
   -0.6841   -1.1506    1.4780 C   0  0  0  0  0  0  0  0  0  0  0  0
   -1.3021   -0.0588    1.0909 C   0  0  0  0  0  0  0  0  0  0  0  0
   -1.1766    0.1318   -0.3628 C   0  0  0  0  0  0  0  0  0  0  0  0
   -0.8939    1.5754   -0.6266 C   0  0  0  0  0  0  0  0  0  0  0  0
    1.4333    0.7526    1.1348 H   0  0  0  0  0  0  0  0  0  0  0  0
    2.9626    0.3885    0.3128 H   0  0  0  0  0  0  0  0  0  0  0  0
    2.0338    1.8313   -0.1365 H   0  0  0  0  0  0  0  0  0  0  0  0
   -0.2815   -1.2188   -1.7167 H   0  0  0  0  0  0  0  0  0  0  0  0
    0.8787   -2.2870    0.5600 H   0  0  0  0  0  0  0  0  0  0  0  0
   -0.7682   -2.6456    0.0122 H   0  0  0  0  0  0  0  0  0  0  0  0
   -0.6189   -1.5374    2.5282 H   0  0  0  0  0  0  0  0  0  0  0  0
   -1.8456    0.6350    1.7395 H   0  0  0  0  0  0  0  0  0  0  0  0
   -2.1199   -0.2203   -0.8429 H   0  0  0  0  0  0  0  0  0  0  0  0
   -1.8671    2.0824   -0.8288 H   0  0  0  0  0  0  0  0  0  0  0  0
   -0.4540    2.0366    0.2611 H   0  0  0  0  0  0  0  0  0  0  0  0
   -0.2277    1.6501   -1.5136 H   0  0  0  0  0  0  0  0  0  0  0  0
  1  2  1  0
  2  3  2  0
  2  4  1  0
  4  5  1  0
  5  6  1  0
  6  7  2  0
  7  8  1  0
  8  9  1  0
  8  4  1  0
  1 10  1  0
  1 11  1  0
  1 12  1  0
  4 13  1  0
  5 14  1  0
  5 15  1  0
  6 16  1  0
  7 17  1  0
  8 18  1  0
  9 19  1  0
  9 20  1  0
  9 21  1  0
M  END
