
     RDKit          3D

 17 17  0  0  0  0  0  0  0  0999 V2000
    2.8071   -0.3885    0.3438 C   0  0  0  0  0  0  0  0  0  0  0  0
    1.7038    0.4057   -0.2582 C   0  0  0  0  0  0  0  0  0  0  0  0
    1.9271    1.5578   -0.5710 O   0  0  0  0  0  0  0  0  0  0  0  0
    0.3497   -0.1523   -0.4892 C   0  0  0  0  0  0  0  0  0  0  0  0
   -0.5696    0.2940    0.6010 C   0  0  0  0  0  0  0  0  0  0  0  0
   -0.1070    1.0053    1.4732 O   0  0  0  0  0  0  0  0  0  0  0  0
   -1.9962   -0.0725    0.6858 C   0  0  0  0  0  0  0  0  0  0  0  0
   -2.7335    0.1019   -0.6468 C   0  0  0  0  0  0  0  0  0  0  0  0
   -2.5023   -1.1409   -0.0350 O   0  0  0  0  0  0  0  0  0  0  0  0
    3.7444    0.1833    0.3279 H   0  0  0  0  0  0  0  0  0  0  0  0
    2.9193   -1.3144   -0.2580 H   0  0  0  0  0  0  0  0  0  0  0  0
    2.5304   -0.6401    1.4106 H   0  0  0  0  0  0  0  0  0  0  0  0
    0.0039    0.2412   -1.4689 H   0  0  0  0  0  0  0  0  0  0  0  0
    0.3681   -1.2572   -0.5804 H   0  0  0  0  0  0  0  0  0  0  0  0
   -2.5233    0.3167    1.5846 H   0  0  0  0  0  0  0  0  0  0  0  0
   -2.1633    0.3106   -1.5557 H   0  0  0  0  0  0  0  0  0  0  0  0
   -3.7586    0.5495   -0.5636 H   0  0  0  0  0  0  0  0  0  0  0  0
  1  2  1  0
  2  3  2  0
  2  4  1  0
  4  5  1  0
  5  6  2  0
  5  7  1  0
  7  8  1  0
  8  9  1  0
  9  7  1  0
  1 10  1  0
  1 11  1  0
  1 12  1  0
  4 13  1  0
  4 14  1  0
  7 15  1  0
  8 16  1  0
  8 17  1  0
M  END
