
     RDKit          3D

 19 20  0  0  0  0  0  0  0  0999 V2000
   -2.7074    0.6143   -0.8836 C   0  0  0  0  0  0  0  0  0  0  0  0
   -1.9319    0.2436    0.3267 C   0  0  0  0  0  0  0  0  0  0  0  0
   -2.5476    0.2521    1.4206 O   0  0  0  0  0  0  0  0  0  0  0  0
   -0.5034   -0.1149    0.2243 C   0  0  0  0  0  0  0  0  0  0  0  0
    0.2589   -0.4557    1.2446 C   0  0  0  0  0  0  0  0  0  0  0  0
    1.6542   -0.7603    0.8168 C   0  0  0  0  0  0  0  0  0  0  0  0
    2.4504    0.3815    0.3303 C   0  0  0  0  0  0  0  0  0  0  0  0
    1.6883   -0.4477   -0.6166 C   0  0  0  0  0  0  0  0  0  0  0  0
    0.2868   -0.1480   -1.0213 C   0  0  0  0  0  0  0  0  0  0  0  0
   -3.1645    1.6013   -0.7045 H   0  0  0  0  0  0  0  0  0  0  0  0
   -3.5293   -0.1496   -0.9751 H   0  0  0  0  0  0  0  0  0  0  0  0
   -2.1193    0.5546   -1.8041 H   0  0  0  0  0  0  0  0  0  0  0  0
   -0.1262   -0.4991    2.2786 H   0  0  0  0  0  0  0  0  0  0  0  0
    2.1286   -1.6731    1.2466 H   0  0  0  0  0  0  0  0  0  0  0  0
    3.5566    0.3453    0.2942 H   0  0  0  0  0  0  0  0  0  0  0  0
    2.0827    1.3969    0.6261 H   0  0  0  0  0  0  0  0  0  0  0  0
    2.3081   -1.0699   -1.3234 H   0  0  0  0  0  0  0  0  0  0  0  0
    0.2723    0.8685   -1.5045 H   0  0  0  0  0  0  0  0  0  0  0  0
   -0.0574   -0.9399   -1.7187 H   0  0  0  0  0  0  0  0  0  0  0  0
  1  2  1  0
  2  3  2  0
  2  4  1  0
  4  5  2  0
  5  6  1  0
  6  7  1  0
  7  8  1  0
  8  9  1  0
  9  4  1  0
  8  6  1  0
  1 10  1  0
  1 11  1  0
  1 12  1  0
  5 13  1  0
  6 14  1  0
  7 15  1  0
  7 16  1  0
  8 17  1  0
  9 18  1  0
  9 19  1  0
M  END
