
     RDKit          3D

 21 22  0  0  0  0  0  0  0  0999 V2000
   -2.0437    1.3173    0.0244 C   0  0  0  0  0  0  0  0  0  0  0  0
   -1.1062    0.3159   -0.6106 C   0  0  0  0  0  0  0  0  0  0  0  0
   -1.0447    0.3384   -1.7918 O   0  0  0  0  0  0  0  0  0  0  0  0
   -0.4228   -0.5266    0.3704 C   0  0  0  0  0  0  0  0  0  0  0  0
    0.3678    0.3116    1.3015 C   0  0  0  0  0  0  0  0  0  0  0  0
    1.4209    0.8316    0.2972 C   0  0  0  0  0  0  0  0  0  0  0  0
    1.5254   -0.3007   -0.7390 C   0  0  0  0  0  0  0  0  0  0  0  0
    0.8401   -1.3752   -0.0435 C   0  0  0  0  0  0  0  0  0  0  0  0
   -0.4518   -1.9034    0.0552 C   0  0  0  0  0  0  0  0  0  0  0  0
   -2.7947    1.6753   -0.7007 H   0  0  0  0  0  0  0  0  0  0  0  0
   -2.6121    0.8041    0.8242 H   0  0  0  0  0  0  0  0  0  0  0  0
   -1.4075    2.1146    0.4190 H   0  0  0  0  0  0  0  0  0  0  0  0
   -0.2124    1.1218    1.7379 H   0  0  0  0  0  0  0  0  0  0  0  0
    0.8377   -0.3250    2.0684 H   0  0  0  0  0  0  0  0  0  0  0  0
    1.0609    1.7451   -0.1682 H   0  0  0  0  0  0  0  0  0  0  0  0
    2.3425    0.9411    0.8862 H   0  0  0  0  0  0  0  0  0  0  0  0
    1.2375   -0.0073   -1.7324 H   0  0  0  0  0  0  0  0  0  0  0  0
    2.6419   -0.4886   -0.8239 H   0  0  0  0  0  0  0  0  0  0  0  0
    1.5011   -1.6976    0.8305 H   0  0  0  0  0  0  0  0  0  0  0  0
   -0.9244   -2.2907   -0.8816 H   0  0  0  0  0  0  0  0  0  0  0  0
   -0.7557   -2.6020    0.8912 H   0  0  0  0  0  0  0  0  0  0  0  0
  1  2  1  0
  2  3  2  0
  2  4  1  0
  4  5  1  0
  5  6  1  0
  6  7  1  0
  7  8  1  0
  8  9  1  0
  8  4  1  0
  9  4  1  0
  1 10  1  0
  1 11  1  0
  1 12  1  0
  5 13  1  0
  5 14  1  0
  6 15  1  0
  6 16  1  0
  7 17  1  0
  7 18  1  0
  8 19  1  0
  9 20  1  0
  9 21  1  0
M  END
