
     RDKit          3D

 17 17  0  0  0  0  0  0  0  0999 V2000
    2.7872   -0.0968   -0.1791 C   0  0  0  0  0  0  0  0  0  0  0  0
    1.4710    0.1658    0.4599 C   0  0  0  0  0  0  0  0  0  0  0  0
    1.3446    0.7590    1.5175 O   0  0  0  0  0  0  0  0  0  0  0  0
    0.2578   -0.3131   -0.2153 C   0  0  0  0  0  0  0  0  0  0  0  0
   -1.0057    0.0074    0.5181 C   0  0  0  0  0  0  0  0  0  0  0  0
   -2.2529   -0.4977   -0.1986 C   0  0  0  0  0  0  0  0  0  0  0  0
   -2.0101    0.9508    0.0092 C   0  0  0  0  0  0  0  0  0  0  0  0
    3.2681   -1.0285    0.2283 H   0  0  0  0  0  0  0  0  0  0  0  0
    3.5110    0.7141   -0.0333 H   0  0  0  0  0  0  0  0  0  0  0  0
    2.6548   -0.2218   -1.2716 H   0  0  0  0  0  0  0  0  0  0  0  0
    0.2089    0.0157   -1.2881 H   0  0  0  0  0  0  0  0  0  0  0  0
    0.3279   -1.4296   -0.2685 H   0  0  0  0  0  0  0  0  0  0  0  0
   -0.9415   -0.1598    1.6167 H   0  0  0  0  0  0  0  0  0  0  0  0
   -2.1699   -0.8481   -1.2395 H   0  0  0  0  0  0  0  0  0  0  0  0
   -2.9525   -1.0681    0.4135 H   0  0  0  0  0  0  0  0  0  0  0  0
   -1.8250    1.6267   -0.8543 H   0  0  0  0  0  0  0  0  0  0  0  0
   -2.6737    1.4238    0.7827 H   0  0  0  0  0  0  0  0  0  0  0  0
  1  2  1  0
  2  3  2  0
  2  4  1  0
  4  5  1  0
  5  6  1  0
  6  7  1  0
  7  5  1  0
  1  8  1  0
  1  9  1  0
  1 10  1  0
  4 11  1  0
  4 12  1  0
  5 13  1  0
  6 14  1  0
  6 15  1  0
  7 16  1  0
  7 17  1  0
M  END
