
     RDKit          3D

 19 19  0  0  0  0  0  0  0  0999 V2000
    2.6548   -0.2952   -0.1873 C   0  0  0  0  0  0  0  0  0  0  0  0
    1.4953    0.5786   -0.5634 C   0  0  0  0  0  0  0  0  0  0  0  0
    1.4134    1.1642   -1.6140 O   0  0  0  0  0  0  0  0  0  0  0  0
    0.4044    0.6884    0.4753 C   0  0  0  0  0  0  0  0  0  0  0  0
    0.0333   -0.6668    0.8584 C   0  0  0  0  0  0  0  0  0  0  0  0
   -1.1316   -1.1681    0.5714 C   0  0  0  0  0  0  0  0  0  0  0  0
   -2.1156   -0.3543   -0.1621 C   0  0  0  0  0  0  0  0  0  0  0  0
   -1.6448    0.9649   -0.6062 C   0  0  0  0  0  0  0  0  0  0  0  0
   -0.5608    1.4956    0.0062 O   0  0  0  0  0  0  0  0  0  0  0  0
    2.2736   -1.3459   -0.1170 H   0  0  0  0  0  0  0  0  0  0  0  0
    3.4906   -0.2184   -0.8914 H   0  0  0  0  0  0  0  0  0  0  0  0
    2.9388    0.0286    0.8566 H   0  0  0  0  0  0  0  0  0  0  0  0
    0.8590    1.1794    1.3876 H   0  0  0  0  0  0  0  0  0  0  0  0
    0.7535   -1.2701    1.3983 H   0  0  0  0  0  0  0  0  0  0  0  0
   -1.4245   -2.1903    0.8548 H   0  0  0  0  0  0  0  0  0  0  0  0
   -2.4636   -0.9824   -1.0338 H   0  0  0  0  0  0  0  0  0  0  0  0
   -3.0155   -0.2572    0.5105 H   0  0  0  0  0  0  0  0  0  0  0  0
   -1.4682    0.9456   -1.7167 H   0  0  0  0  0  0  0  0  0  0  0  0
   -2.4919    1.7035   -0.4779 H   0  0  0  0  0  0  0  0  0  0  0  0
  1  2  1  0
  2  3  2  0
  2  4  1  0
  4  5  1  0
  5  6  2  0
  6  7  1  0
  7  8  1  0
  8  9  1  0
  9  4  1  0
  1 10  1  0
  1 11  1  0
  1 12  1  0
  4 13  1  0
  5 14  1  0
  6 15  1  0
  7 16  1  0
  7 17  1  0
  8 18  1  0
  8 19  1  0
M  END
