
     RDKit          3D

 23 22  0  0  0  0  0  0  0  0999 V2000
    2.5868   -0.7330    0.8218 C   0  0  0  0  0  0  0  0  0  0  0  0
    1.1027   -0.8602    0.7938 C   0  0  0  0  0  0  0  0  0  0  0  0
    0.6584   -1.9295    1.1730 O   0  0  0  0  0  0  0  0  0  0  0  0
    0.2549    0.2521    0.3326 C   0  0  0  0  0  0  0  0  0  0  0  0
    0.5401    0.6601   -1.1000 C   0  0  0  0  0  0  0  0  0  0  0  0
    1.8854    1.0548   -1.1409 O   0  0  0  0  0  0  0  0  0  0  0  0
   -1.2147    0.0085    0.5322 C   0  0  0  0  0  0  0  0  0  0  0  0
   -1.7430   -1.1836   -0.1777 C   0  0  0  0  0  0  0  0  0  0  0  0
   -2.0049    1.2255    0.0971 C   0  0  0  0  0  0  0  0  0  0  0  0
    2.9377   -1.1024   -0.1861 H   0  0  0  0  0  0  0  0  0  0  0  0
    3.0172   -1.3316    1.6251 H   0  0  0  0  0  0  0  0  0  0  0  0
    2.8078    0.3499    0.9053 H   0  0  0  0  0  0  0  0  0  0  0  0
    0.5027    1.1656    0.9517 H   0  0  0  0  0  0  0  0  0  0  0  0
    0.3296   -0.1612   -1.7932 H   0  0  0  0  0  0  0  0  0  0  0  0
   -0.0539    1.5743   -1.3048 H   0  0  0  0  0  0  0  0  0  0  0  0
    2.1363    1.2058   -2.1049 H   0  0  0  0  0  0  0  0  0  0  0  0
   -1.3963   -0.0868    1.6419 H   0  0  0  0  0  0  0  0  0  0  0  0
   -2.6439   -0.9451   -0.7851 H   0  0  0  0  0  0  0  0  0  0  0  0
   -1.0199   -1.6747   -0.8529 H   0  0  0  0  0  0  0  0  0  0  0  0
   -2.0549   -1.9539    0.5638 H   0  0  0  0  0  0  0  0  0  0  0  0
   -1.4356    2.1287    0.3911 H   0  0  0  0  0  0  0  0  0  0  0  0
   -2.1979    1.1770   -0.9981 H   0  0  0  0  0  0  0  0  0  0  0  0
   -2.9945    1.1598    0.6142 H   0  0  0  0  0  0  0  0  0  0  0  0
  1  2  1  0
  2  3  2  0
  2  4  1  0
  4  5  1  0
  5  6  1  0
  4  7  1  0
  7  8  1  0
  7  9  1  0
  1 10  1  0
  1 11  1  0
  1 12  1  0
  4 13  1  0
  5 14  1  0
  5 15  1  0
  6 16  1  0
  7 17  1  0
  8 18  1  0
  8 19  1  0
  8 20  1  0
  9 21  1  0
  9 22  1  0
  9 23  1  0
M  END
