
     RDKit          3D

 21 20  0  0  0  0  0  0  0  0999 V2000
    3.3612    0.2265   -0.0910 C   0  0  0  0  0  0  0  0  0  0  0  0
    2.2012   -0.4554    0.4964 C   0  0  0  0  0  0  0  0  0  0  0  0
    2.2345   -0.7937    1.6690 O   0  0  0  0  0  0  0  0  0  0  0  0
    0.9572   -0.7734   -0.2490 C   0  0  0  0  0  0  0  0  0  0  0  0
   -0.0761    0.2278    0.1189 C   0  0  0  0  0  0  0  0  0  0  0  0
    0.2244    1.0950    0.9146 O   0  0  0  0  0  0  0  0  0  0  0  0
   -1.4492    0.2147   -0.4385 C   0  0  0  0  0  0  0  0  0  0  0  0
   -2.2087    1.3775    0.1542 C   0  0  0  0  0  0  0  0  0  0  0  0
   -2.2136   -1.0428   -0.0537 C   0  0  0  0  0  0  0  0  0  0  0  0
    3.6732   -0.1923   -1.0742 H   0  0  0  0  0  0  0  0  0  0  0  0
    3.2111    1.3169   -0.2429 H   0  0  0  0  0  0  0  0  0  0  0  0
    4.2328    0.1237    0.5849 H   0  0  0  0  0  0  0  0  0  0  0  0
    1.1518   -0.7932   -1.3405 H   0  0  0  0  0  0  0  0  0  0  0  0
    0.5890   -1.7517    0.1272 H   0  0  0  0  0  0  0  0  0  0  0  0
   -1.4563    0.3268   -1.5318 H   0  0  0  0  0  0  0  0  0  0  0  0
   -2.5328    1.1041    1.1816 H   0  0  0  0  0  0  0  0  0  0  0  0
   -1.4982    2.2338    0.1943 H   0  0  0  0  0  0  0  0  0  0  0  0
   -3.0740    1.6690   -0.4937 H   0  0  0  0  0  0  0  0  0  0  0  0
   -2.3330   -1.7026   -0.9523 H   0  0  0  0  0  0  0  0  0  0  0  0
   -3.2556   -0.8031    0.2744 H   0  0  0  0  0  0  0  0  0  0  0  0
   -1.7389   -1.6075    0.7519 H   0  0  0  0  0  0  0  0  0  0  0  0
  1  2  1  0
  2  3  2  0
  2  4  1  0
  4  5  1  0
  5  6  2  0
  5  7  1  0
  7  8  1  0
  7  9  1  0
  1 10  1  0
  1 11  1  0
  1 12  1  0
  4 13  1  0
  4 14  1  0
  7 15  1  0
  8 16  1  0
  8 17  1  0
  8 18  1  0
  9 19  1  0
  9 20  1  0
  9 21  1  0
M  END
