
     RDKit          3D

 20 20  0  0  0  0  0  0  0  0999 V2000
    3.2420    0.0336    0.5191 C   0  0  0  0  0  0  0  0  0  0  0  0
    2.0805    0.2907   -0.3754 C   0  0  0  0  0  0  0  0  0  0  0  0
    2.2344    1.1388   -1.2446 O   0  0  0  0  0  0  0  0  0  0  0  0
    0.7953   -0.4198   -0.2520 C   0  0  0  0  0  0  0  0  0  0  0  0
   -0.2545    0.4513    0.4077 C   0  0  0  0  0  0  0  0  0  0  0  0
   -1.5657   -0.2461    0.5428 C   0  0  0  0  0  0  0  0  0  0  0  0
   -2.3435   -0.7577   -0.5769 C   0  0  0  0  0  0  0  0  0  0  0  0
   -2.8172    0.5188    0.1366 C   0  0  0  0  0  0  0  0  0  0  0  0
    3.5080    1.0393    0.9648 H   0  0  0  0  0  0  0  0  0  0  0  0
    4.1074   -0.3449   -0.0765 H   0  0  0  0  0  0  0  0  0  0  0  0
    3.0386   -0.6795    1.3177 H   0  0  0  0  0  0  0  0  0  0  0  0
    0.8796   -1.3545    0.3299 H   0  0  0  0  0  0  0  0  0  0  0  0
    0.4351   -0.7033   -1.2682 H   0  0  0  0  0  0  0  0  0  0  0  0
   -0.3530    1.3924   -0.1801 H   0  0  0  0  0  0  0  0  0  0  0  0
    0.1537    0.7606    1.4078 H   0  0  0  0  0  0  0  0  0  0  0  0
   -1.6931   -0.7911    1.5167 H   0  0  0  0  0  0  0  0  0  0  0  0
   -2.9841   -1.6649   -0.4215 H   0  0  0  0  0  0  0  0  0  0  0  0
   -2.1040   -0.5769   -1.6401 H   0  0  0  0  0  0  0  0  0  0  0  0
   -3.7258    0.4297    0.7665 H   0  0  0  0  0  0  0  0  0  0  0  0
   -2.6336    1.4835   -0.3379 H   0  0  0  0  0  0  0  0  0  0  0  0
  1  2  1  0
  2  3  2  0
  2  4  1  0
  4  5  1  0
  5  6  1  0
  6  7  1  0
  7  8  1  0
  8  6  1  0
  1  9  1  0
  1 10  1  0
  1 11  1  0
  4 12  1  0
  4 13  1  0
  5 14  1  0
  5 15  1  0
  6 16  1  0
  7 17  1  0
  7 18  1  0
  8 19  1  0
  8 20  1  0
M  END
