
     RDKit          3D

 21 21  0  0  0  0  0  0  0  0999 V2000
    2.8440    0.0015    0.4030 C   0  0  0  0  0  0  0  0  0  0  0  0
    1.4151   -0.2174    0.6850 C   0  0  0  0  0  0  0  0  0  0  0  0
    1.0943   -0.5709    1.7909 O   0  0  0  0  0  0  0  0  0  0  0  0
    0.4022   -0.0113   -0.3526 C   0  0  0  0  0  0  0  0  0  0  0  0
   -0.8382    0.8057    0.1235 C   0  0  0  0  0  0  0  0  0  0  0  0
   -1.2782    1.9320   -0.7567 C   0  0  0  0  0  0  0  0  0  0  0  0
   -0.9487   -0.6081   -0.2929 C   0  0  0  0  0  0  0  0  0  0  0  0
   -1.3150   -1.6146    0.7659 C   0  0  0  0  0  0  0  0  0  0  0  0
   -1.5405   -0.8719   -1.5296 O   0  0  0  0  0  0  0  0  0  0  0  0
    3.4996   -0.2384    1.2608 H   0  0  0  0  0  0  0  0  0  0  0  0
    3.2013   -0.5356   -0.4949 H   0  0  0  0  0  0  0  0  0  0  0  0
    3.0238    1.0981    0.1999 H   0  0  0  0  0  0  0  0  0  0  0  0
    0.7850    0.3200   -1.3617 H   0  0  0  0  0  0  0  0  0  0  0  0
   -0.9035    1.0046    1.2121 H   0  0  0  0  0  0  0  0  0  0  0  0
   -2.1517    1.7004   -1.3728 H   0  0  0  0  0  0  0  0  0  0  0  0
   -0.3887    2.2442   -1.3648 H   0  0  0  0  0  0  0  0  0  0  0  0
   -1.5404    2.8356   -0.1545 H   0  0  0  0  0  0  0  0  0  0  0  0
   -2.0562   -2.3679    0.4108 H   0  0  0  0  0  0  0  0  0  0  0  0
   -0.4426   -2.2021    1.1263 H   0  0  0  0  0  0  0  0  0  0  0  0
   -1.8076   -1.0521    1.6065 H   0  0  0  0  0  0  0  0  0  0  0  0
   -1.0539   -1.6517   -1.9042 H   0  0  0  0  0  0  0  0  0  0  0  0
  1  2  1  0
  2  3  2  0
  2  4  1  0
  4  5  1  0
  5  6  1  0
  5  7  1  0
  7  8  1  0
  7  9  1  0
  7  4  1  0
  1 10  1  0
  1 11  1  0
  1 12  1  0
  4 13  1  0
  5 14  1  0
  6 15  1  0
  6 16  1  0
  6 17  1  0
  8 18  1  0
  8 19  1  0
  8 20  1  0
  9 21  1  0
M  END
