
     RDKit          3D

 19 19  0  0  0  0  0  0  0  0999 V2000
    2.6953    0.2220    0.1581 C   0  0  0  0  0  0  0  0  0  0  0  0
    1.3217    0.2698   -0.3908 C   0  0  0  0  0  0  0  0  0  0  0  0
    1.1488    0.6303   -1.5316 O   0  0  0  0  0  0  0  0  0  0  0  0
    0.1973   -0.1156    0.4437 C   0  0  0  0  0  0  0  0  0  0  0  0
    0.5401   -0.5046    1.7202 O   0  0  0  0  0  0  0  0  0  0  0  0
   -0.8675    0.9897    0.4507 C   0  0  0  0  0  0  0  0  0  0  0  0
   -1.8765   -0.1558    0.5967 C   0  0  0  0  0  0  0  0  0  0  0  0
   -3.0570    0.0288   -0.0799 O   0  0  0  0  0  0  0  0  0  0  0  0
   -0.8536   -1.0051   -0.1651 C   0  0  0  0  0  0  0  0  0  0  0  0
    3.1243    1.2556    0.2007 H   0  0  0  0  0  0  0  0  0  0  0  0
    3.3664   -0.4406   -0.4319 H   0  0  0  0  0  0  0  0  0  0  0  0
    2.7264   -0.1522    1.2002 H   0  0  0  0  0  0  0  0  0  0  0  0
    0.6482   -1.4711    1.7834 H   0  0  0  0  0  0  0  0  0  0  0  0
   -0.8088    1.6639    1.2983 H   0  0  0  0  0  0  0  0  0  0  0  0
   -0.9567    1.4139   -0.5506 H   0  0  0  0  0  0  0  0  0  0  0  0
   -1.9475   -0.3980    1.6769 H   0  0  0  0  0  0  0  0  0  0  0  0
   -3.5843    0.7056    0.4015 H   0  0  0  0  0  0  0  0  0  0  0  0
   -1.0221   -0.8866   -1.2482 H   0  0  0  0  0  0  0  0  0  0  0  0
   -0.7945   -2.0503    0.1807 H   0  0  0  0  0  0  0  0  0  0  0  0
  1  2  1  0
  2  3  2  0
  2  4  1  0
  4  5  1  0
  4  6  1  0
  6  7  1  0
  7  8  1  0
  7  9  1  0
  9  4  1  0
  1 10  1  0
  1 11  1  0
  1 12  1  0
  5 13  1  0
  6 14  1  0
  6 15  1  0
  7 16  1  0
  8 17  1  0
  9 18  1  0
  9 19  1  0
M  END
