
     RDKit          3D

 15 16  0  0  0  0  0  0  0  0999 V2000
   -1.8789    0.7848    0.2340 C   0  0  0  0  0  0  0  0  0  0  0  0
   -0.9251   -0.3129    0.4696 C   0  0  0  0  0  0  0  0  0  0  0  0
   -0.9487   -0.9144    1.5195 O   0  0  0  0  0  0  0  0  0  0  0  0
    0.0625   -0.6939   -0.5556 C   0  0  0  0  0  0  0  0  0  0  0  0
    1.0314    0.3549   -0.9804 C   0  0  0  0  0  0  0  0  0  0  0  0
    1.8837   -0.6916   -1.3122 O   0  0  0  0  0  0  0  0  0  0  0  0
    1.4242   -1.0855   -0.0622 C   0  0  0  0  0  0  0  0  0  0  0  0
    1.6056    0.2836    0.3546 C   0  0  0  0  0  0  0  0  0  0  0  0
    1.9715    1.0447    1.2023 O   0  0  0  0  0  0  0  0  0  0  0  0
   -1.9770    1.0222   -0.8663 H   0  0  0  0  0  0  0  0  0  0  0  0
   -2.8971    0.5800    0.6535 H   0  0  0  0  0  0  0  0  0  0  0  0
   -1.5238    1.7460    0.6869 H   0  0  0  0  0  0  0  0  0  0  0  0
   -0.3404   -1.3457   -1.3649 H   0  0  0  0  0  0  0  0  0  0  0  0
    0.8498    1.1704   -1.5434 H   0  0  0  0  0  0  0  0  0  0  0  0
    1.6623   -1.9424    0.4131 H   0  0  0  0  0  0  0  0  0  0  0  0
  1  2  1  0
  2  3  2  0
  2  4  1  0
  4  5  1  0
  5  6  1  0
  6  7  1  0
  7  8  1  0
  8  9  2  0
  7  4  1  0
  8  5  1  0
  1 10  1  0
  1 11  1  0
  1 12  1  0
  4 13  1  0
  5 14  1  0
  7 15  1  0
M  END
