
     RDKit          3D

 17 17  0  0  0  0  0  0  0  0999 V2000
    3.0424   -1.6888    0.6335 C   0  0  0  0  0  0  0  0  0  0  0  0
    1.8581   -1.8506   -0.4115 C   0  0  0  0  0  0  0  0  0  0  0  0
    2.0200   -2.6860   -1.2066 O   0  0  0  0  0  0  0  0  0  0  0  0
    0.9278   -0.9480   -0.1596 C   0  0  0  0  0  0  0  0  0  0  0  0
   -0.0343   -0.0076    0.1262 C   0  0  0  0  0  0  0  0  0  0  0  0
   -1.1294    1.0398    0.4253 C   0  0  0  0  0  0  0  0  0  0  0  0
   -2.4657    0.5282    0.0159 C   0  0  0  0  0  0  0  0  0  0  0  0
   -1.8169    1.4630   -0.8705 C   0  0  0  0  0  0  0  0  0  0  0  0
   -2.0751    2.8583   -0.8020 O   0  0  0  0  0  0  0  0  0  0  0  0
    3.8920   -2.2571    0.1191 H   0  0  0  0  0  0  0  0  0  0  0  0
    3.2940   -0.5603    0.7218 H   0  0  0  0  0  0  0  0  0  0  0  0
    2.7806   -2.0723    1.5947 H   0  0  0  0  0  0  0  0  0  0  0  0
   -1.1030    1.5106    1.3673 H   0  0  0  0  0  0  0  0  0  0  0  0
   -3.3889    0.9226    0.6035 H   0  0  0  0  0  0  0  0  0  0  0  0
   -2.6191   -0.5579   -0.1114 H   0  0  0  0  0  0  0  0  0  0  0  0
   -1.4032    1.0874   -1.8032 H   0  0  0  0  0  0  0  0  0  0  0  0
   -1.7791    3.2189   -1.8125 H   0  0  0  0  0  0  0  0  0  0  0  0
  1  2  1  0
  2  3  2  0
  2  4  1  0
  4  5  3  0
  5  6  1  0
  6  7  1  0
  7  8  1  0
  8  9  1  0
  8  6  1  0
  1 10  1  0
  1 11  1  0
  1 12  1  0
  6 13  1  0
  7 14  1  0
  7 15  1  0
  8 16  1  0
  9 17  1  0
M  END
