
     RDKit          3D

 21 21  0  0  0  0  0  0  0  0999 V2000
    2.9146    0.6656    0.3345 C   0  0  0  0  0  0  0  0  0  0  0  0
    1.8865   -0.3887    0.1284 C   0  0  0  0  0  0  0  0  0  0  0  0
    2.2233   -1.5472    0.2280 O   0  0  0  0  0  0  0  0  0  0  0  0
    0.4921   -0.0216   -0.1896 C   0  0  0  0  0  0  0  0  0  0  0  0
   -0.0980    0.8076    0.8933 C   0  0  0  0  0  0  0  0  0  0  0  0
   -1.4146    0.9360    0.9139 C   0  0  0  0  0  0  0  0  0  0  0  0
   -2.3259    0.3076   -0.0700 C   0  0  0  0  0  0  0  0  0  0  0  0
   -1.7237   -0.8137   -0.8340 C   0  0  0  0  0  0  0  0  0  0  0  0
   -0.3732   -1.2535   -0.3259 C   0  0  0  0  0  0  0  0  0  0  0  0
    2.9667    1.0099    1.3887 H   0  0  0  0  0  0  0  0  0  0  0  0
    3.9270    0.2394    0.1130 H   0  0  0  0  0  0  0  0  0  0  0  0
    2.7148    1.5543   -0.3137 H   0  0  0  0  0  0  0  0  0  0  0  0
    0.4515    0.5233   -1.1783 H   0  0  0  0  0  0  0  0  0  0  0  0
    0.5720    1.2637    1.6085 H   0  0  0  0  0  0  0  0  0  0  0  0
   -1.8484    1.5408    1.7034 H   0  0  0  0  0  0  0  0  0  0  0  0
   -3.2045   -0.0688    0.4955 H   0  0  0  0  0  0  0  0  0  0  0  0
   -2.6986    1.1353   -0.7390 H   0  0  0  0  0  0  0  0  0  0  0  0
   -2.3687   -1.7272   -0.8440 H   0  0  0  0  0  0  0  0  0  0  0  0
   -1.5895   -0.5062   -1.9052 H   0  0  0  0  0  0  0  0  0  0  0  0
   -0.5359   -1.6452    0.7176 H   0  0  0  0  0  0  0  0  0  0  0  0
    0.0325   -2.0115   -0.9907 H   0  0  0  0  0  0  0  0  0  0  0  0
  1  2  1  0
  2  3  2  0
  2  4  1  0
  4  5  1  0
  5  6  2  0
  6  7  1  0
  7  8  1  0
  8  9  1  0
  9  4  1  0
  1 10  1  0
  1 11  1  0
  1 12  1  0
  4 13  1  0
  5 14  1  0
  6 15  1  0
  7 16  1  0
  7 17  1  0
  8 18  1  0
  8 19  1  0
  9 20  1  0
  9 21  1  0
M  END
