
     RDKit          3D

 19 20  0  0  0  0  0  0  0  0999 V2000
    2.4759   -0.3112    0.0765 C   0  0  0  0  0  0  0  0  0  0  0  0
    1.1497   -0.9788   -0.0130 C   0  0  0  0  0  0  0  0  0  0  0  0
    1.0935   -2.1712   -0.1323 O   0  0  0  0  0  0  0  0  0  0  0  0
   -0.0507   -0.1530    0.0478 C   0  0  0  0  0  0  0  0  0  0  0  0
   -0.2975    0.9166   -0.9687 C   0  0  0  0  0  0  0  0  0  0  0  0
   -1.7621    0.5273   -0.9959 C   0  0  0  0  0  0  0  0  0  0  0  0
   -1.4124   -0.6437   -0.1015 C   0  0  0  0  0  0  0  0  0  0  0  0
   -0.9207   -0.3068    1.2362 C   0  0  0  0  0  0  0  0  0  0  0  0
   -1.2635    0.8844    1.8770 O   0  0  0  0  0  0  0  0  0  0  0  0
    3.3039   -0.9803   -0.2170 H   0  0  0  0  0  0  0  0  0  0  0  0
    2.6093    0.1447    1.0790 H   0  0  0  0  0  0  0  0  0  0  0  0
    2.4430    0.5421   -0.6632 H   0  0  0  0  0  0  0  0  0  0  0  0
   -0.1500    1.9475   -0.6335 H   0  0  0  0  0  0  0  0  0  0  0  0
    0.1432    0.6819   -1.9722 H   0  0  0  0  0  0  0  0  0  0  0  0
   -2.1643    0.2080   -1.9550 H   0  0  0  0  0  0  0  0  0  0  0  0
   -2.4086    1.2688   -0.4765 H   0  0  0  0  0  0  0  0  0  0  0  0
   -1.6846   -1.6613   -0.4054 H   0  0  0  0  0  0  0  0  0  0  0  0
   -0.6965   -1.1257    1.9170 H   0  0  0  0  0  0  0  0  0  0  0  0
   -0.4074    1.2107    2.3008 H   0  0  0  0  0  0  0  0  0  0  0  0
  1  2  1  0
  2  3  2  0
  2  4  1  0
  4  5  1  0
  5  6  1  0
  6  7  1  0
  7  8  1  0
  8  9  1  0
  7  4  1  0
  8  4  1  0
  1 10  1  0
  1 11  1  0
  1 12  1  0
  5 13  1  0
  5 14  1  0
  6 15  1  0
  6 16  1  0
  7 17  1  0
  8 18  1  0
  9 19  1  0
M  END
