
     RDKit          3D

 21 22  0  0  0  0  0  0  0  0999 V2000
    2.8857    0.0334    0.4362 C   0  0  0  0  0  0  0  0  0  0  0  0
    1.5468    0.7138    0.4570 C   0  0  0  0  0  0  0  0  0  0  0  0
    1.4361    1.7230    1.1395 O   0  0  0  0  0  0  0  0  0  0  0  0
    0.3907    0.2271   -0.2926 C   0  0  0  0  0  0  0  0  0  0  0  0
   -0.0092   -1.2037    0.1326 C   0  0  0  0  0  0  0  0  0  0  0  0
   -1.5508   -1.2156    0.0379 C   0  0  0  0  0  0  0  0  0  0  0  0
   -1.7639   -0.0100   -0.7837 C   0  0  0  0  0  0  0  0  0  0  0  0
   -2.0141    1.3433   -0.5165 C   0  0  0  0  0  0  0  0  0  0  0  0
   -0.8487    0.9086    0.1289 C   0  0  0  0  0  0  0  0  0  0  0  0
    3.6111    0.5719    1.0551 H   0  0  0  0  0  0  0  0  0  0  0  0
    2.7489   -0.9740    0.8759 H   0  0  0  0  0  0  0  0  0  0  0  0
    3.2885   -0.0073   -0.6022 H   0  0  0  0  0  0  0  0  0  0  0  0
    0.5535    0.2009   -1.3946 H   0  0  0  0  0  0  0  0  0  0  0  0
    0.4260   -1.9466   -0.5437 H   0  0  0  0  0  0  0  0  0  0  0  0
    0.2891   -1.3041    1.1761 H   0  0  0  0  0  0  0  0  0  0  0  0
   -2.0038   -1.1485    1.0284 H   0  0  0  0  0  0  0  0  0  0  0  0
   -1.8297   -2.1482   -0.4952 H   0  0  0  0  0  0  0  0  0  0  0  0
   -1.3534   -0.2198   -1.8222 H   0  0  0  0  0  0  0  0  0  0  0  0
   -2.9279    1.6106    0.0747 H   0  0  0  0  0  0  0  0  0  0  0  0
   -1.9054    2.1116   -1.3387 H   0  0  0  0  0  0  0  0  0  0  0  0
   -0.9695    0.7337    1.2470 H   0  0  0  0  0  0  0  0  0  0  0  0
  1  2  1  0
  2  3  2  0
  2  4  1  0
  4  5  1  0
  5  6  1  0
  6  7  1  0
  7  8  1  0
  8  9  1  0
  9  4  1  0
  9  7  1  0
  1 10  1  0
  1 11  1  0
  1 12  1  0
  4 13  1  0
  5 14  1  0
  5 15  1  0
  6 16  1  0
  6 17  1  0
  7 18  1  0
  8 19  1  0
  8 20  1  0
  9 21  1  0
M  END
