
     RDKit          3D

 16 16  0  0  0  0  0  0  0  0999 V2000
    2.9533    0.2816   -0.0009 C   0  0  0  0  0  0  0  0  0  0  0  0
    1.5684    0.5779    0.3872 C   0  0  0  0  0  0  0  0  0  0  0  0
    1.3243    1.5634    1.1210 O   0  0  0  0  0  0  0  0  0  0  0  0
    0.5480   -0.2179   -0.0499 O   0  0  0  0  0  0  0  0  0  0  0  0
   -0.7939    0.0051    0.2804 C   0  0  0  0  0  0  0  0  0  0  0  0
   -1.7738   -1.1153    0.3737 C   0  0  0  0  0  0  0  0  0  0  0  0
   -1.7831   -0.3158   -0.8423 C   0  0  0  0  0  0  0  0  0  0  0  0
   -2.7047    0.6662   -1.1177 O   0  0  0  0  0  0  0  0  0  0  0  0
    3.0802   -0.8187   -0.0847 H   0  0  0  0  0  0  0  0  0  0  0  0
    3.7067    0.6876    0.6929 H   0  0  0  0  0  0  0  0  0  0  0  0
    3.2009    0.6876   -1.0163 H   0  0  0  0  0  0  0  0  0  0  0  0
   -1.0036    0.8688    0.9230 H   0  0  0  0  0  0  0  0  0  0  0  0
   -1.3104   -2.1303    0.3371 H   0  0  0  0  0  0  0  0  0  0  0  0
   -2.5674   -1.0578    1.1540 H   0  0  0  0  0  0  0  0  0  0  0  0
   -1.3672   -0.8007   -1.7663 H   0  0  0  0  0  0  0  0  0  0  0  0
   -3.0776    1.1183   -0.3497 H   0  0  0  0  0  0  0  0  0  0  0  0
  1  2  1  0
  2  3  2  0
  2  4  1  0
  4  5  1  0
  5  6  1  0
  6  7  1  0
  7  8  1  0
  7  5  1  0
  1  9  1  0
  1 10  1  0
  1 11  1  0
  5 12  1  0
  6 13  1  0
  6 14  1  0
  7 15  1  0
  8 16  1  0
M  END
