
     RDKit          3D

 17 16  0  0  0  0  0  0  0  0999 V2000
    1.7579    0.0368    0.8295 C   0  0  0  0  0  0  0  0  0  0  0  0
    1.0401   -0.3793   -0.4056 C   0  0  0  0  0  0  0  0  0  0  0  0
    1.6682   -0.9519   -1.2778 O   0  0  0  0  0  0  0  0  0  0  0  0
   -0.3842   -0.1221   -0.5985 C   0  0  0  0  0  0  0  0  0  0  0  0
   -1.2576   -0.8239    0.4520 C   0  0  0  0  0  0  0  0  0  0  0  0
   -0.7473    1.3436   -0.5437 C   0  0  0  0  0  0  0  0  0  0  0  0
   -0.8068   -0.6095   -1.8308 O   0  0  0  0  0  0  0  0  0  0  0  0
    2.2401    1.0451    0.6934 H   0  0  0  0  0  0  0  0  0  0  0  0
    2.5982   -0.6560    1.0717 H   0  0  0  0  0  0  0  0  0  0  0  0
    1.0628    0.0846    1.6998 H   0  0  0  0  0  0  0  0  0  0  0  0
   -0.9267   -0.5713    1.4807 H   0  0  0  0  0  0  0  0  0  0  0  0
   -2.2968   -0.4302    0.2502 H   0  0  0  0  0  0  0  0  0  0  0  0
   -1.2732   -1.9203    0.2919 H   0  0  0  0  0  0  0  0  0  0  0  0
   -1.7604    1.5101   -0.1149 H   0  0  0  0  0  0  0  0  0  0  0  0
    0.0238    1.9522   -0.0222 H   0  0  0  0  0  0  0  0  0  0  0  0
   -0.8136    1.7542   -1.5919 H   0  0  0  0  0  0  0  0  0  0  0  0
   -0.1245   -1.2620   -2.1672 H   0  0  0  0  0  0  0  0  0  0  0  0
  1  2  1  0
  2  3  2  0
  2  4  1  0
  4  5  1  0
  4  6  1  0
  4  7  1  0
  1  8  1  0
  1  9  1  0
  1 10  1  0
  5 11  1  0
  5 12  1  0
  5 13  1  0
  6 14  1  0
  6 15  1  0
  6 16  1  0
  7 17  1  0
M  END
