
     RDKit          3D

 19 18  0  0  0  0  0  0  0  0999 V2000
    2.6934    0.3514   -0.4893 C   0  0  0  0  0  0  0  0  0  0  0  0
    1.5184   -0.5057   -0.1745 C   0  0  0  0  0  0  0  0  0  0  0  0
    1.3436   -1.5412   -0.7940 O   0  0  0  0  0  0  0  0  0  0  0  0
    0.5459   -0.1512    0.8665 C   0  0  0  0  0  0  0  0  0  0  0  0
   -0.7573    0.3316    0.2551 C   0  0  0  0  0  0  0  0  0  0  0  0
   -1.7317    0.6783    1.3197 C   0  0  0  0  0  0  0  0  0  0  0  0
   -1.9855    1.8254    1.6370 O   0  0  0  0  0  0  0  0  0  0  0  0
   -1.3233   -0.6202   -0.7576 C   0  0  0  0  0  0  0  0  0  0  0  0
   -2.5098   -0.0553   -1.2335 O   0  0  0  0  0  0  0  0  0  0  0  0
    3.3573    0.3409    0.4099 H   0  0  0  0  0  0  0  0  0  0  0  0
    3.2450   -0.0483   -1.3691 H   0  0  0  0  0  0  0  0  0  0  0  0
    2.3437    1.3989   -0.6954 H   0  0  0  0  0  0  0  0  0  0  0  0
    0.3887   -0.9375    1.6208 H   0  0  0  0  0  0  0  0  0  0  0  0
    0.9297    0.7493    1.4343 H   0  0  0  0  0  0  0  0  0  0  0  0
   -0.5304    1.2952   -0.2885 H   0  0  0  0  0  0  0  0  0  0  0  0
   -2.2696   -0.0909    1.8694 H   0  0  0  0  0  0  0  0  0  0  0  0
   -1.5015   -1.6370   -0.3851 H   0  0  0  0  0  0  0  0  0  0  0  0
   -0.6300   -0.6379   -1.6522 H   0  0  0  0  0  0  0  0  0  0  0  0
   -3.1266   -0.7458   -1.5733 H   0  0  0  0  0  0  0  0  0  0  0  0
  1  2  1  0
  2  3  2  0
  2  4  1  0
  4  5  1  0
  5  6  1  0
  6  7  2  0
  5  8  1  0
  8  9  1  0
  1 10  1  0
  1 11  1  0
  1 12  1  0
  4 13  1  0
  4 14  1  0
  5 15  1  0
  6 16  1  0
  8 17  1  0
  8 18  1  0
  9 19  1  0
M  END
