
     RDKit          3D

 19 19  0  0  0  0  0  0  0  0999 V2000
    2.1533    0.9614   -0.0729 C   0  0  0  0  0  0  0  0  0  0  0  0
    1.3069   -0.2012    0.3596 C   0  0  0  0  0  0  0  0  0  0  0  0
    1.9216   -1.1009    0.9429 O   0  0  0  0  0  0  0  0  0  0  0  0
   -0.1353   -0.2519    0.1035 C   0  0  0  0  0  0  0  0  0  0  0  0
   -0.9464    0.8641    0.7164 C   0  0  0  0  0  0  0  0  0  0  0  0
   -2.2880    0.7616    0.4411 O   0  0  0  0  0  0  0  0  0  0  0  0
   -0.5456   -0.6373   -1.2923 C   0  0  0  0  0  0  0  0  0  0  0  0
   -0.2369   -1.9707   -0.9389 O   0  0  0  0  0  0  0  0  0  0  0  0
   -0.7023   -1.6367    0.3490 C   0  0  0  0  0  0  0  0  0  0  0  0
    1.5420    1.6773   -0.6843 H   0  0  0  0  0  0  0  0  0  0  0  0
    2.9676    0.5329   -0.6957 H   0  0  0  0  0  0  0  0  0  0  0  0
    2.5750    1.4430    0.8272 H   0  0  0  0  0  0  0  0  0  0  0  0
   -0.8283    0.9072    1.8191 H   0  0  0  0  0  0  0  0  0  0  0  0
   -0.5530    1.8258    0.3171 H   0  0  0  0  0  0  0  0  0  0  0  0
   -2.5765    1.4913   -0.1581 H   0  0  0  0  0  0  0  0  0  0  0  0
    0.0384   -0.2295   -2.1126 H   0  0  0  0  0  0  0  0  0  0  0  0
   -1.6476   -0.5630   -1.3930 H   0  0  0  0  0  0  0  0  0  0  0  0
   -0.2273   -2.2018    1.1559 H   0  0  0  0  0  0  0  0  0  0  0  0
   -1.8174   -1.6715    0.3162 H   0  0  0  0  0  0  0  0  0  0  0  0
  1  2  1  0
  2  3  2  0
  2  4  1  0
  4  5  1  0
  5  6  1  0
  4  7  1  0
  7  8  1  0
  8  9  1  0
  9  4  1  0
  1 10  1  0
  1 11  1  0
  1 12  1  0
  5 13  1  0
  5 14  1  0
  6 15  1  0
  7 16  1  0
  7 17  1  0
  9 18  1  0
  9 19  1  0
M  END
