
     RDKit          3D

 20 19  0  0  0  0  0  0  0  0999 V2000
    2.7147   -0.2227    0.3804 C   0  0  0  0  0  0  0  0  0  0  0  0
    1.3029   -0.2485    0.8287 C   0  0  0  0  0  0  0  0  0  0  0  0
    1.0762   -0.2766    2.0207 O   0  0  0  0  0  0  0  0  0  0  0  0
    0.1813   -0.2415   -0.1119 C   0  0  0  0  0  0  0  0  0  0  0  0
    0.1455    0.9710   -1.0033 C   0  0  0  0  0  0  0  0  0  0  0  0
   -1.1453   -0.4119    0.5559 C   0  0  0  0  0  0  0  0  0  0  0  0
   -2.2145   -0.3897   -0.4952 C   0  0  0  0  0  0  0  0  0  0  0  0
   -1.3673    0.4550    1.5997 O   0  0  0  0  0  0  0  0  0  0  0  0
    2.8168    0.3621   -0.5543 H   0  0  0  0  0  0  0  0  0  0  0  0
    2.9801   -1.2755    0.1045 H   0  0  0  0  0  0  0  0  0  0  0  0
    3.4075    0.2035    1.1242 H   0  0  0  0  0  0  0  0  0  0  0  0
    0.3100   -1.1274   -0.8017 H   0  0  0  0  0  0  0  0  0  0  0  0
   -0.0834    0.7164   -2.0616 H   0  0  0  0  0  0  0  0  0  0  0  0
    1.1529    1.4663   -1.0071 H   0  0  0  0  0  0  0  0  0  0  0  0
   -0.5863    1.7318   -0.6883 H   0  0  0  0  0  0  0  0  0  0  0  0
   -1.1521   -1.4516    0.9974 H   0  0  0  0  0  0  0  0  0  0  0  0
   -2.1566   -1.3840   -1.0271 H   0  0  0  0  0  0  0  0  0  0  0  0
   -3.2329   -0.2746   -0.0766 H   0  0  0  0  0  0  0  0  0  0  0  0
   -1.9880    0.3660   -1.2762 H   0  0  0  0  0  0  0  0  0  0  0  0
   -2.1617    1.0318    1.4918 H   0  0  0  0  0  0  0  0  0  0  0  0
  1  2  1  0
  2  3  2  0
  2  4  1  0
  4  5  1  0
  4  6  1  0
  6  7  1  0
  6  8  1  0
  1  9  1  0
  1 10  1  0
  1 11  1  0
  4 12  1  0
  5 13  1  0
  5 14  1  0
  5 15  1  0
  6 16  1  0
  7 17  1  0
  7 18  1  0
  7 19  1  0
  8 20  1  0
M  END
