
     RDKit          3D

 16 15  0  0  0  0  0  0  0  0999 V2000
   -2.0957    0.9997   -0.3852 C   0  0  0  0  0  0  0  0  0  0  0  0
   -2.0212   -0.4270    0.0043 C   0  0  0  0  0  0  0  0  0  0  0  0
   -3.0449   -1.0511    0.1230 O   0  0  0  0  0  0  0  0  0  0  0  0
   -0.7239   -1.1043    0.2511 C   0  0  0  0  0  0  0  0  0  0  0  0
    0.3039   -0.1748    0.0501 O   0  0  0  0  0  0  0  0  0  0  0  0
    1.6445   -0.4378    0.1870 C   0  0  0  0  0  0  0  0  0  0  0  0
    2.7220    0.5632   -0.0309 C   0  0  0  0  0  0  0  0  0  0  0  0
    1.9818   -1.6054    0.5192 O   0  0  0  0  0  0  0  0  0  0  0  0
   -3.0384    1.2335   -0.9320 H   0  0  0  0  0  0  0  0  0  0  0  0
   -2.1149    1.6445    0.5249 H   0  0  0  0  0  0  0  0  0  0  0  0
   -1.2713    1.3031   -1.0677 H   0  0  0  0  0  0  0  0  0  0  0  0
   -0.7633   -1.4671    1.3161 H   0  0  0  0  0  0  0  0  0  0  0  0
   -0.5700   -1.9920   -0.3870 H   0  0  0  0  0  0  0  0  0  0  0  0
    3.5802    0.1357   -0.5839 H   0  0  0  0  0  0  0  0  0  0  0  0
    2.3887    1.4509   -0.5804 H   0  0  0  0  0  0  0  0  0  0  0  0
    3.0223    0.9289    0.9913 H   0  0  0  0  0  0  0  0  0  0  0  0
  1  2  1  0
  2  3  2  0
  2  4  1  0
  4  5  1  0
  5  6  1  0
  6  7  1  0
  6  8  2  0
  1  9  1  0
  1 10  1  0
  1 11  1  0
  4 12  1  0
  4 13  1  0
  7 14  1  0
  7 15  1  0
  7 16  1  0
M  END
