
     RDKit          3D

 18 18  0  0  0  0  0  0  0  0999 V2000
    2.2444   -0.0448    0.3442 C   0  0  0  0  0  0  0  0  0  0  0  0
    0.9621    0.6236    0.0017 C   0  0  0  0  0  0  0  0  0  0  0  0
    1.0299    1.7879   -0.3557 O   0  0  0  0  0  0  0  0  0  0  0  0
   -0.3535   -0.0144    0.0645 C   0  0  0  0  0  0  0  0  0  0  0  0
   -1.5584    0.9248    0.1008 C   0  0  0  0  0  0  0  0  0  0  0  0
   -1.5269    1.6863   -1.0568 O   0  0  0  0  0  0  0  0  0  0  0  0
   -0.5584   -1.3615    0.6332 C   0  0  0  0  0  0  0  0  0  0  0  0
   -0.4918   -1.2281   -0.8541 C   0  0  0  0  0  0  0  0  0  0  0  0
    2.7129    0.4961    1.2151 H   0  0  0  0  0  0  0  0  0  0  0  0
    2.9409    0.1116   -0.5169 H   0  0  0  0  0  0  0  0  0  0  0  0
    2.1470   -1.1056    0.5728 H   0  0  0  0  0  0  0  0  0  0  0  0
   -2.4947    0.3517    0.2292 H   0  0  0  0  0  0  0  0  0  0  0  0
   -1.4307    1.5679    1.0165 H   0  0  0  0  0  0  0  0  0  0  0  0
   -1.2736    2.6120   -0.8001 H   0  0  0  0  0  0  0  0  0  0  0  0
   -1.5815   -1.6010    1.0196 H   0  0  0  0  0  0  0  0  0  0  0  0
    0.2263   -1.9081    1.1856 H   0  0  0  0  0  0  0  0  0  0  0  0
   -1.4108   -1.2587   -1.4727 H   0  0  0  0  0  0  0  0  0  0  0  0
    0.4168   -1.6397   -1.3268 H   0  0  0  0  0  0  0  0  0  0  0  0
  1  2  1  0
  2  3  2  0
  2  4  1  0
  4  5  1  0
  5  6  1  0
  4  7  1  0
  7  8  1  0
  8  4  1  0
  1  9  1  0
  1 10  1  0
  1 11  1  0
  5 12  1  0
  5 13  1  0
  6 14  1  0
  7 15  1  0
  7 16  1  0
  8 17  1  0
  8 18  1  0
M  END
