
     RDKit          3D

 21 21  0  0  0  0  0  0  0  0999 V2000
    2.2904   -0.9174    0.3034 C   0  0  0  0  0  0  0  0  0  0  0  0
    1.6339    0.4094    0.3618 C   0  0  0  0  0  0  0  0  0  0  0  0
    2.1983    1.3155    0.9445 O   0  0  0  0  0  0  0  0  0  0  0  0
    0.3261    0.5923   -0.2828 C   0  0  0  0  0  0  0  0  0  0  0  0
   -0.1634    2.0318   -0.1002 C   0  0  0  0  0  0  0  0  0  0  0  0
   -0.7432   -0.3311    0.2344 C   0  0  0  0  0  0  0  0  0  0  0  0
   -0.9928   -0.1866    1.5985 O   0  0  0  0  0  0  0  0  0  0  0  0
   -1.0116   -1.6021   -0.4529 C   0  0  0  0  0  0  0  0  0  0  0  0
   -1.9547   -0.4161   -0.6938 C   0  0  0  0  0  0  0  0  0  0  0  0
    1.8750   -1.5914   -0.4528 H   0  0  0  0  0  0  0  0  0  0  0  0
    2.1959   -1.4470    1.2914 H   0  0  0  0  0  0  0  0  0  0  0  0
    3.3789   -0.7775    0.1425 H   0  0  0  0  0  0  0  0  0  0  0  0
    0.3833    0.4399   -1.3893 H   0  0  0  0  0  0  0  0  0  0  0  0
   -1.1829    2.1287   -0.4810 H   0  0  0  0  0  0  0  0  0  0  0  0
    0.5068    2.7063   -0.6406 H   0  0  0  0  0  0  0  0  0  0  0  0
   -0.1687    2.2855    0.9773 H   0  0  0  0  0  0  0  0  0  0  0  0
   -1.9290    0.0532    1.7839 H   0  0  0  0  0  0  0  0  0  0  0  0
   -1.4747   -2.4607    0.0320 H   0  0  0  0  0  0  0  0  0  0  0  0
   -0.3446   -1.8636   -1.3234 H   0  0  0  0  0  0  0  0  0  0  0  0
   -1.9006    0.0461   -1.6870 H   0  0  0  0  0  0  0  0  0  0  0  0
   -2.9226   -0.4151   -0.1659 H   0  0  0  0  0  0  0  0  0  0  0  0
  1  2  1  0
  2  3  2  0
  2  4  1  0
  4  5  1  0
  4  6  1  0
  6  7  1  0
  6  8  1  0
  8  9  1  0
  9  6  1  0
  1 10  1  0
  1 11  1  0
  1 12  1  0
  4 13  1  0
  5 14  1  0
  5 15  1  0
  5 16  1  0
  7 17  1  0
  8 18  1  0
  8 19  1  0
  9 20  1  0
  9 21  1  0
M  END
