
     RDKit          3D

 21 20  0  0  0  0  0  0  0  0999 V2000
   -2.7841   -0.1220    0.3346 C   0  0  0  0  0  0  0  0  0  0  0  0
   -2.2328   -0.3894   -0.9982 C   0  0  0  0  0  0  0  0  0  0  0  0
   -3.0285   -0.2751   -1.9526 O   0  0  0  0  0  0  0  0  0  0  0  0
   -0.8783   -0.7749   -1.3619 C   0  0  0  0  0  0  0  0  0  0  0  0
    0.0833   -0.8160   -0.4074 O   0  0  0  0  0  0  0  0  0  0  0  0
    0.3647    0.4160    0.1333 C   0  0  0  0  0  0  0  0  0  0  0  0
    1.4306    0.3567    1.2052 C   0  0  0  0  0  0  0  0  0  0  0  0
    2.7219   -0.1868    0.6454 C   0  0  0  0  0  0  0  0  0  0  0  0
    3.1264    0.6615   -0.3722 O   0  0  0  0  0  0  0  0  0  0  0  0
   -3.8518   -0.4975    0.3204 H   0  0  0  0  0  0  0  0  0  0  0  0
   -2.2264   -0.6008    1.1647 H   0  0  0  0  0  0  0  0  0  0  0  0
   -2.8922    0.9537    0.5667 H   0  0  0  0  0  0  0  0  0  0  0  0
   -0.9611   -1.7814   -1.8739 H   0  0  0  0  0  0  0  0  0  0  0  0
   -0.5448   -0.0994   -2.2033 H   0  0  0  0  0  0  0  0  0  0  0  0
    0.6816    1.0658   -0.7204 H   0  0  0  0  0  0  0  0  0  0  0  0
   -0.5443    0.8853    0.5177 H   0  0  0  0  0  0  0  0  0  0  0  0
    1.6261    1.3765    1.5727 H   0  0  0  0  0  0  0  0  0  0  0  0
    1.1068   -0.2966    2.0272 H   0  0  0  0  0  0  0  0  0  0  0  0
    3.4925   -0.1935    1.4255 H   0  0  0  0  0  0  0  0  0  0  0  0
    2.6194   -1.2299    0.2814 H   0  0  0  0  0  0  0  0  0  0  0  0
    2.6912    1.5477   -0.3049 H   0  0  0  0  0  0  0  0  0  0  0  0
  1  2  1  0
  2  3  2  0
  2  4  1  0
  4  5  1  0
  5  6  1  0
  6  7  1  0
  7  8  1  0
  8  9  1  0
  1 10  1  0
  1 11  1  0
  1 12  1  0
  4 13  1  0
  4 14  1  0
  6 15  1  0
  6 16  1  0
  7 17  1  0
  7 18  1  0
  8 19  1  0
  8 20  1  0
  9 21  1  0
M  END
