
     RDKit          3D

 21 21  0  0  0  0  0  0  0  0999 V2000
    2.8663    0.8935   -0.2591 C   0  0  0  0  0  0  0  0  0  0  0  0
    2.2460   -0.4346   -0.0385 C   0  0  0  0  0  0  0  0  0  0  0  0
    2.9225   -1.4835    0.1127 O   0  0  0  0  0  0  0  0  0  0  0  0
    0.7996   -0.5431    0.0069 C   0  0  0  0  0  0  0  0  0  0  0  0
    0.1021   -1.6524    0.1946 C   0  0  0  0  0  0  0  0  0  0  0  0
   -1.3560   -1.3903    0.1820 C   0  0  0  0  0  0  0  0  0  0  0  0
   -1.5009    0.0320   -0.3070 C   0  0  0  0  0  0  0  0  0  0  0  0
   -2.4400    0.8352    0.5681 C   0  0  0  0  0  0  0  0  0  0  0  0
   -0.1280    0.6184   -0.1565 C   0  0  0  0  0  0  0  0  0  0  0  0
    2.2547    1.7233    0.0961 H   0  0  0  0  0  0  0  0  0  0  0  0
    3.8234    0.9312    0.3215 H   0  0  0  0  0  0  0  0  0  0  0  0
    3.1453    0.9583   -1.3335 H   0  0  0  0  0  0  0  0  0  0  0  0
    0.5521   -2.6214    0.3378 H   0  0  0  0  0  0  0  0  0  0  0  0
   -1.8333   -1.5530    1.1671 H   0  0  0  0  0  0  0  0  0  0  0  0
   -1.8253   -2.0780   -0.5578 H   0  0  0  0  0  0  0  0  0  0  0  0
   -1.8192    0.0901   -1.3474 H   0  0  0  0  0  0  0  0  0  0  0  0
   -3.3776    0.3180    0.7802 H   0  0  0  0  0  0  0  0  0  0  0  0
   -2.6866    1.7652    0.0160 H   0  0  0  0  0  0  0  0  0  0  0  0
   -1.9055    1.1577    1.4859 H   0  0  0  0  0  0  0  0  0  0  0  0
    0.1968    1.2234   -1.0176 H   0  0  0  0  0  0  0  0  0  0  0  0
   -0.0366    1.2102    0.7952 H   0  0  0  0  0  0  0  0  0  0  0  0
  1  2  1  0
  2  3  2  0
  2  4  1  0
  4  5  2  0
  5  6  1  0
  6  7  1  0
  7  8  1  0
  7  9  1  0
  9  4  1  0
  1 10  1  0
  1 11  1  0
  1 12  1  0
  5 13  1  0
  6 14  1  0
  6 15  1  0
  7 16  1  0
  8 17  1  0
  8 18  1  0
  8 19  1  0
  9 20  1  0
  9 21  1  0
M  END
