
     RDKit          3D

 17 17  0  0  0  0  0  0  0  0999 V2000
    2.1955   -1.0205   -0.1104 C   0  0  0  0  0  0  0  0  0  0  0  0
    1.2571    0.0529   -0.5120 C   0  0  0  0  0  0  0  0  0  0  0  0
    1.6027    0.7422   -1.4683 O   0  0  0  0  0  0  0  0  0  0  0  0
   -0.0329    0.3499    0.1379 C   0  0  0  0  0  0  0  0  0  0  0  0
   -0.5642    1.7405   -0.1468 C   0  0  0  0  0  0  0  0  0  0  0  0
   -0.2436   -0.0442    1.4577 O   0  0  0  0  0  0  0  0  0  0  0  0
   -0.8958   -0.7570    0.4755 C   0  0  0  0  0  0  0  0  0  0  0  0
   -2.3457   -0.5938    0.2504 C   0  0  0  0  0  0  0  0  0  0  0  0
   -3.0300   -1.5422   -0.0895 O   0  0  0  0  0  0  0  0  0  0  0  0
    1.9504   -1.9221   -0.6859 H   0  0  0  0  0  0  0  0  0  0  0  0
    2.1066   -1.1516    0.9847 H   0  0  0  0  0  0  0  0  0  0  0  0
    3.2328   -0.7279   -0.3425 H   0  0  0  0  0  0  0  0  0  0  0  0
    0.1774    2.4411    0.3199 H   0  0  0  0  0  0  0  0  0  0  0  0
   -1.5525    1.9367    0.2806 H   0  0  0  0  0  0  0  0  0  0  0  0
   -0.5060    1.9243   -1.2481 H   0  0  0  0  0  0  0  0  0  0  0  0
   -0.4885   -1.7927    0.3206 H   0  0  0  0  0  0  0  0  0  0  0  0
   -2.8632    0.3644    0.3762 H   0  0  0  0  0  0  0  0  0  0  0  0
  1  2  1  0
  2  3  2  0
  2  4  1  0
  4  5  1  0
  4  6  1  0
  6  7  1  0
  7  8  1  0
  8  9  2  0
  7  4  1  0
  1 10  1  0
  1 11  1  0
  1 12  1  0
  5 13  1  0
  5 14  1  0
  5 15  1  0
  7 16  1  0
  8 17  1  0
M  END
