
     RDKit          3D

 25 24  0  0  0  0  0  0  0  0999 V2000
    3.5467    1.0534    0.6999 C   0  0  0  0  0  0  0  0  0  0  0  0
    2.2498    0.6112    0.0969 C   0  0  0  0  0  0  0  0  0  0  0  0
    1.5913    1.4139   -0.5129 O   0  0  0  0  0  0  0  0  0  0  0  0
    1.8041   -0.7712    0.2534 C   0  0  0  0  0  0  0  0  0  0  0  0
    0.4397   -1.0441   -0.3090 C   0  0  0  0  0  0  0  0  0  0  0  0
   -0.5886   -0.2429    0.3954 C   0  0  0  0  0  0  0  0  0  0  0  0
   -1.9926   -0.4812   -0.1268 C   0  0  0  0  0  0  0  0  0  0  0  0
   -2.0435   -0.1151   -1.5839 C   0  0  0  0  0  0  0  0  0  0  0  0
   -2.9016    0.5102    0.6078 C   0  0  0  0  0  0  0  0  0  0  0  0
    4.1619    1.5545   -0.0671 H   0  0  0  0  0  0  0  0  0  0  0  0
    4.0506    0.1824    1.1626 H   0  0  0  0  0  0  0  0  0  0  0  0
    3.3282    1.7776    1.4842 H   0  0  0  0  0  0  0  0  0  0  0  0
    1.8458   -1.0253    1.3576 H   0  0  0  0  0  0  0  0  0  0  0  0
    2.5475   -1.4864   -0.1895 H   0  0  0  0  0  0  0  0  0  0  0  0
    0.2255   -2.1299   -0.1892 H   0  0  0  0  0  0  0  0  0  0  0  0
    0.4509   -0.8872   -1.4128 H   0  0  0  0  0  0  0  0  0  0  0  0
   -0.5265   -0.5016    1.4822 H   0  0  0  0  0  0  0  0  0  0  0  0
   -0.3926    0.8323    0.3213 H   0  0  0  0  0  0  0  0  0  0  0  0
   -2.3437   -1.5076    0.0121 H   0  0  0  0  0  0  0  0  0  0  0  0
   -1.5734   -0.8621   -2.2443 H   0  0  0  0  0  0  0  0  0  0  0  0
   -1.4755    0.8413   -1.7544 H   0  0  0  0  0  0  0  0  0  0  0  0
   -3.0946    0.0602   -1.9165 H   0  0  0  0  0  0  0  0  0  0  0  0
   -2.7879    0.2915    1.6946 H   0  0  0  0  0  0  0  0  0  0  0  0
   -2.5608    1.5411    0.4357 H   0  0  0  0  0  0  0  0  0  0  0  0
   -3.9606    0.3851    0.3026 H   0  0  0  0  0  0  0  0  0  0  0  0
  1  2  1  0
  2  3  2  0
  2  4  1  0
  4  5  1  0
  5  6  1  0
  6  7  1  0
  7  8  1  0
  7  9  1  0
  1 10  1  0
  1 11  1  0
  1 12  1  0
  4 13  1  0
  4 14  1  0
  5 15  1  0
  5 16  1  0
  6 17  1  0
  6 18  1  0
  7 19  1  0
  8 20  1  0
  8 21  1  0
  8 22  1  0
  9 23  1  0
  9 24  1  0
  9 25  1  0
M  END
