
     RDKit          3D

 18 18  0  0  0  0  0  0  0  0999 V2000
   -2.3114    0.1180    0.4892 C   0  0  0  0  0  0  0  0  0  0  0  0
   -1.6036   -0.1159   -0.7982 C   0  0  0  0  0  0  0  0  0  0  0  0
   -2.2105   -0.1434   -1.8541 O   0  0  0  0  0  0  0  0  0  0  0  0
   -0.1315   -0.3234   -0.8335 C   0  0  0  0  0  0  0  0  0  0  0  0
    0.6425    0.4949    0.1284 C   0  0  0  0  0  0  0  0  0  0  0  0
    1.9752    1.0151   -0.3060 C   0  0  0  0  0  0  0  0  0  0  0  0
    0.4385   -0.9675    0.3768 C   0  0  0  0  0  0  0  0  0  0  0  0
    1.6096   -1.7259    0.3003 O   0  0  0  0  0  0  0  0  0  0  0  0
   -2.2206   -0.7937    1.1306 H   0  0  0  0  0  0  0  0  0  0  0  0
   -3.3952    0.2405    0.2994 H   0  0  0  0  0  0  0  0  0  0  0  0
   -1.9540    1.0304    1.0027 H   0  0  0  0  0  0  0  0  0  0  0  0
    0.3426   -0.4929   -1.8175 H   0  0  0  0  0  0  0  0  0  0  0  0
    0.1272    1.1479    0.8702 H   0  0  0  0  0  0  0  0  0  0  0  0
    2.3905    0.4067   -1.1579 H   0  0  0  0  0  0  0  0  0  0  0  0
    2.7172    1.0810    0.4909 H   0  0  0  0  0  0  0  0  0  0  0  0
    1.8315    2.0354   -0.7279 H   0  0  0  0  0  0  0  0  0  0  0  0
   -0.2483   -1.3132    1.1796 H   0  0  0  0  0  0  0  0  0  0  0  0
    2.0002   -1.6939    1.2269 H   0  0  0  0  0  0  0  0  0  0  0  0
  1  2  1  0
  2  3  2  0
  2  4  1  0
  4  5  1  0
  5  6  1  0
  5  7  1  0
  7  8  1  0
  7  4  1  0
  1  9  1  0
  1 10  1  0
  1 11  1  0
  4 12  1  0
  5 13  1  0
  6 14  1  0
  6 15  1  0
  6 16  1  0
  7 17  1  0
  8 18  1  0
M  END
