
     RDKit          3D

 19 18  0  0  0  0  0  0  0  0999 V2000
    2.1705   -1.0208    0.3560 C   0  0  0  0  0  0  0  0  0  0  0  0
    0.8688   -0.3415    0.6184 C   0  0  0  0  0  0  0  0  0  0  0  0
    0.4517   -0.1956    1.7455 O   0  0  0  0  0  0  0  0  0  0  0  0
    0.0226    0.1884   -0.4965 C   0  0  0  0  0  0  0  0  0  0  0  0
   -0.0780    1.6812   -0.3314 C   0  0  0  0  0  0  0  0  0  0  0  0
    0.6813   -0.0823   -1.6924 O   0  0  0  0  0  0  0  0  0  0  0  0
   -1.2694   -0.4999   -0.4512 C   0  0  0  0  0  0  0  0  0  0  0  0
   -2.2300   -0.4369    0.6661 C   0  0  0  0  0  0  0  0  0  0  0  0
   -1.6156   -1.2013   -1.4138 O   0  0  0  0  0  0  0  0  0  0  0  0
    2.9464   -0.4592    0.8975 H   0  0  0  0  0  0  0  0  0  0  0  0
    2.1649   -2.0701    0.7652 H   0  0  0  0  0  0  0  0  0  0  0  0
    2.3343   -1.0443   -0.7490 H   0  0  0  0  0  0  0  0  0  0  0  0
    0.7463    2.0902    0.3131 H   0  0  0  0  0  0  0  0  0  0  0  0
   -1.0203    2.0067    0.1499 H   0  0  0  0  0  0  0  0  0  0  0  0
   -0.0705    2.1337   -1.3485 H   0  0  0  0  0  0  0  0  0  0  0  0
    1.4564    0.5190   -1.8199 H   0  0  0  0  0  0  0  0  0  0  0  0
   -1.8641    0.0631    1.5617 H   0  0  0  0  0  0  0  0  0  0  0  0
   -3.1265    0.1299    0.2807 H   0  0  0  0  0  0  0  0  0  0  0  0
   -2.5688   -1.4602    0.9488 H   0  0  0  0  0  0  0  0  0  0  0  0
  1  2  1  0
  2  3  2  0
  2  4  1  0
  4  5  1  0
  4  6  1  0
  4  7  1  0
  7  8  1  0
  7  9  2  0
  1 10  1  0
  1 11  1  0
  1 12  1  0
  5 13  1  0
  5 14  1  0
  5 15  1  0
  6 16  1  0
  8 17  1  0
  8 18  1  0
  8 19  1  0
M  END
