
     RDKit          3D

 21 20  0  0  0  0  0  0  0  0999 V2000
   -3.3182    0.3301   -0.1231 C   0  0  0  0  0  0  0  0  0  0  0  0
   -1.9594    0.1419    0.3933 C   0  0  0  0  0  0  0  0  0  0  0  0
   -1.5957    0.8164    1.3908 O   0  0  0  0  0  0  0  0  0  0  0  0
   -0.9994   -0.7871   -0.1884 C   0  0  0  0  0  0  0  0  0  0  0  0
   -1.3099   -1.4879   -1.1939 O   0  0  0  0  0  0  0  0  0  0  0  0
    0.3720   -0.9627    0.3530 C   0  0  0  0  0  0  0  0  0  0  0  0
    1.4067   -0.1942   -0.4579 C   0  0  0  0  0  0  0  0  0  0  0  0
    1.0496    1.2838   -0.4204 C   0  0  0  0  0  0  0  0  0  0  0  0
    2.7638   -0.4391    0.1280 C   0  0  0  0  0  0  0  0  0  0  0  0
   -3.3732    1.1913   -0.8431 H   0  0  0  0  0  0  0  0  0  0  0  0
   -3.7264   -0.5987   -0.6210 H   0  0  0  0  0  0  0  0  0  0  0  0
   -3.9836    0.6347    0.7241 H   0  0  0  0  0  0  0  0  0  0  0  0
    0.6514   -2.0369    0.4130 H   0  0  0  0  0  0  0  0  0  0  0  0
    0.3613   -0.6062    1.4098 H   0  0  0  0  0  0  0  0  0  0  0  0
    1.3554   -0.5959   -1.4842 H   0  0  0  0  0  0  0  0  0  0  0  0
    0.9835    1.6340    0.6290 H   0  0  0  0  0  0  0  0  0  0  0  0
    1.8624    1.8113   -0.9626 H   0  0  0  0  0  0  0  0  0  0  0  0
    0.0707    1.4406   -0.9347 H   0  0  0  0  0  0  0  0  0  0  0  0
    2.9715    0.2182    1.0057 H   0  0  0  0  0  0  0  0  0  0  0  0
    3.5942   -0.2914   -0.5885 H   0  0  0  0  0  0  0  0  0  0  0  0
    2.8233   -1.5020    0.4690 H   0  0  0  0  0  0  0  0  0  0  0  0
  1  2  1  0
  2  3  2  0
  2  4  1  0
  4  5  2  0
  4  6  1  0
  6  7  1  0
  7  8  1  0
  7  9  1  0
  1 10  1  0
  1 11  1  0
  1 12  1  0
  6 13  1  0
  6 14  1  0
  7 15  1  0
  8 16  1  0
  8 17  1  0
  8 18  1  0
  9 19  1  0
  9 20  1  0
  9 21  1  0
M  END
