
     RDKit          3D

 17 17  0  0  0  0  0  0  0  0999 V2000
   -2.4381    0.0132    0.3048 C   0  0  0  0  0  0  0  0  0  0  0  0
   -1.0705   -0.5508    0.3532 C   0  0  0  0  0  0  0  0  0  0  0  0
   -0.9226   -1.6894    0.7644 O   0  0  0  0  0  0  0  0  0  0  0  0
    0.1452    0.1807   -0.0682 C   0  0  0  0  0  0  0  0  0  0  0  0
   -0.0661    1.4704   -0.5288 O   0  0  0  0  0  0  0  0  0  0  0  0
    1.2786    0.1719    0.9495 C   0  0  0  0  0  0  0  0  0  0  0  0
    2.2088    0.0193   -0.1892 C   0  0  0  0  0  0  0  0  0  0  0  0
    3.3560    0.3091   -0.4117 O   0  0  0  0  0  0  0  0  0  0  0  0
    1.1094   -0.6424   -0.9254 C   0  0  0  0  0  0  0  0  0  0  0  0
   -3.1638   -0.8245    0.0984 H   0  0  0  0  0  0  0  0  0  0  0  0
   -2.7268    0.5180    1.2459 H   0  0  0  0  0  0  0  0  0  0  0  0
   -2.5752    0.7457   -0.5164 H   0  0  0  0  0  0  0  0  0  0  0  0
    0.2002    2.1085    0.1846 H   0  0  0  0  0  0  0  0  0  0  0  0
    1.3522    1.1031    1.5243 H   0  0  0  0  0  0  0  0  0  0  0  0
    1.3058   -0.7676    1.5675 H   0  0  0  0  0  0  0  0  0  0  0  0
    1.0548   -0.4487   -2.0005 H   0  0  0  0  0  0  0  0  0  0  0  0
    0.9519   -1.7166   -0.6699 H   0  0  0  0  0  0  0  0  0  0  0  0
  1  2  1  0
  2  3  2  0
  2  4  1  0
  4  5  1  0
  4  6  1  0
  6  7  1  0
  7  8  2  0
  7  9  1  0
  9  4  1  0
  1 10  1  0
  1 11  1  0
  1 12  1  0
  5 13  1  0
  6 14  1  0
  6 15  1  0
  9 16  1  0
  9 17  1  0
M  END
