
     RDKit          3D

 17 16  0  0  0  0  0  0  0  0999 V2000
    1.9076    1.0267    0.5117 C   0  0  0  0  0  0  0  0  0  0  0  0
    1.2884    0.0217   -0.4008 C   0  0  0  0  0  0  0  0  0  0  0  0
    1.7620   -0.0527   -1.5191 O   0  0  0  0  0  0  0  0  0  0  0  0
    0.1774   -0.8468   -0.0247 C   0  0  0  0  0  0  0  0  0  0  0  0
   -0.1659   -1.6658   -1.0952 O   0  0  0  0  0  0  0  0  0  0  0  0
   -1.0728   -0.0843    0.3697 C   0  0  0  0  0  0  0  0  0  0  0  0
   -2.0317   -0.9996    0.7270 O   0  0  0  0  0  0  0  0  0  0  0  0
   -1.5796    0.7167   -0.7687 C   0  0  0  0  0  0  0  0  0  0  0  0
   -0.9345    1.6104   -1.2958 O   0  0  0  0  0  0  0  0  0  0  0  0
    2.2644    1.8963   -0.0879 H   0  0  0  0  0  0  0  0  0  0  0  0
    2.8137    0.6278    1.0236 H   0  0  0  0  0  0  0  0  0  0  0  0
    1.1666    1.4191    1.2190 H   0  0  0  0  0  0  0  0  0  0  0  0
    0.4403   -1.5113    0.8220 H   0  0  0  0  0  0  0  0  0  0  0  0
    0.0869   -2.6004   -0.9375 H   0  0  0  0  0  0  0  0  0  0  0  0
   -0.8650    0.6034    1.2349 H   0  0  0  0  0  0  0  0  0  0  0  0
   -2.6969   -0.6707    1.3788 H   0  0  0  0  0  0  0  0  0  0  0  0
   -2.5607    0.5096   -1.1571 H   0  0  0  0  0  0  0  0  0  0  0  0
  1  2  1  0
  2  3  2  0
  2  4  1  0
  4  5  1  0
  4  6  1  0
  6  7  1  0
  6  8  1  0
  8  9  2  0
  1 10  1  0
  1 11  1  0
  1 12  1  0
  4 13  1  0
  5 14  1  0
  6 15  1  0
  7 16  1  0
  8 17  1  0
M  END
