
     RDKit          3D

 17 18  0  0  0  0  0  0  0  0999 V2000
    2.3803    0.3624    0.3872 C   0  0  0  0  0  0  0  0  0  0  0  0
    1.4627   -0.2821   -0.6027 C   0  0  0  0  0  0  0  0  0  0  0  0
    1.8197   -1.3364   -1.0979 O   0  0  0  0  0  0  0  0  0  0  0  0
    0.1777    0.2879   -0.9954 C   0  0  0  0  0  0  0  0  0  0  0  0
   -0.4720   -0.5118   -1.9279 O   0  0  0  0  0  0  0  0  0  0  0  0
   -1.3125   -0.9502   -0.9199 C   0  0  0  0  0  0  0  0  0  0  0  0
   -2.3639    0.0233   -0.4985 C   0  0  0  0  0  0  0  0  0  0  0  0
   -0.9560    0.1713   -0.0260 C   0  0  0  0  0  0  0  0  0  0  0  0
   -0.7481    0.0115    1.3174 O   0  0  0  0  0  0  0  0  0  0  0  0
    2.3258    1.4781    0.2787 H   0  0  0  0  0  0  0  0  0  0  0  0
    3.4079    0.0264    0.2115 H   0  0  0  0  0  0  0  0  0  0  0  0
    2.0799    0.0230    1.3919 H   0  0  0  0  0  0  0  0  0  0  0  0
    0.3074    1.3486   -1.3213 H   0  0  0  0  0  0  0  0  0  0  0  0
   -1.3171   -1.9915   -0.5960 H   0  0  0  0  0  0  0  0  0  0  0  0
   -2.7239    0.8059   -1.1876 H   0  0  0  0  0  0  0  0  0  0  0  0
   -3.1110   -0.3608    0.1969 H   0  0  0  0  0  0  0  0  0  0  0  0
   -0.9570    0.8943    1.7590 H   0  0  0  0  0  0  0  0  0  0  0  0
  1  2  1  0
  2  3  2  0
  2  4  1  0
  4  5  1  0
  5  6  1  0
  6  7  1  0
  7  8  1  0
  8  9  1  0
  8  4  1  0
  8  6  1  0
  1 10  1  0
  1 11  1  0
  1 12  1  0
  4 13  1  0
  6 14  1  0
  7 15  1  0
  7 16  1  0
  9 17  1  0
M  END
