
     RDKit          3D

 17 17  0  0  0  0  0  0  0  0999 V2000
    1.8489    1.1214    0.3916 C   0  0  0  0  0  0  0  0  0  0  0  0
    1.1250   -0.1820    0.2573 C   0  0  0  0  0  0  0  0  0  0  0  0
    1.4859   -1.0826    0.9932 O   0  0  0  0  0  0  0  0  0  0  0  0
    0.0374   -0.3739   -0.7069 C   0  0  0  0  0  0  0  0  0  0  0  0
   -0.5121   -1.7824   -0.6280 C   0  0  0  0  0  0  0  0  0  0  0  0
   -1.2792   -1.3403    0.4751 O   0  0  0  0  0  0  0  0  0  0  0  0
   -1.3607   -0.1012   -0.2001 C   0  0  0  0  0  0  0  0  0  0  0  0
   -1.5046    1.0319    0.7200 C   0  0  0  0  0  0  0  0  0  0  0  0
   -1.5852    2.1585    0.2497 O   0  0  0  0  0  0  0  0  0  0  0  0
    1.1941    1.7878    0.9828 H   0  0  0  0  0  0  0  0  0  0  0  0
    2.8472    0.9740    0.8786 H   0  0  0  0  0  0  0  0  0  0  0  0
    2.0731    1.5689   -0.6090 H   0  0  0  0  0  0  0  0  0  0  0  0
    0.2443   -0.0178   -1.7310 H   0  0  0  0  0  0  0  0  0  0  0  0
   -1.2225   -2.0368   -1.4432 H   0  0  0  0  0  0  0  0  0  0  0  0
    0.2292   -2.5627   -0.3746 H   0  0  0  0  0  0  0  0  0  0  0  0
   -2.0743   -0.1191   -1.0594 H   0  0  0  0  0  0  0  0  0  0  0  0
   -1.5466    0.9562    1.8037 H   0  0  0  0  0  0  0  0  0  0  0  0
  1  2  1  0
  2  3  2  0
  2  4  1  0
  4  5  1  0
  5  6  1  0
  6  7  1  0
  7  8  1  0
  8  9  2  0
  7  4  1  0
  1 10  1  0
  1 11  1  0
  1 12  1  0
  4 13  1  0
  5 14  1  0
  5 15  1  0
  7 16  1  0
  8 17  1  0
M  END
