
     RDKit          3D

 19 20  0  0  0  0  0  0  0  0999 V2000
    2.2610   -0.6653    0.4660 C   0  0  0  0  0  0  0  0  0  0  0  0
    1.0658   -0.4519   -0.3576 C   0  0  0  0  0  0  0  0  0  0  0  0
    0.9697   -1.0428   -1.4164 O   0  0  0  0  0  0  0  0  0  0  0  0
    0.0033    0.4502    0.0728 C   0  0  0  0  0  0  0  0  0  0  0  0
    0.2670    1.9119    0.3236 C   0  0  0  0  0  0  0  0  0  0  0  0
   -0.6483    2.1923   -0.7095 O   0  0  0  0  0  0  0  0  0  0  0  0
   -0.9973    0.8779   -1.0113 C   0  0  0  0  0  0  0  0  0  0  0  0
   -1.4183    0.0520    0.1356 C   0  0  0  0  0  0  0  0  0  0  0  0
   -1.7945   -1.3859   -0.0056 C   0  0  0  0  0  0  0  0  0  0  0  0
    2.0094   -0.8803    1.5402 H   0  0  0  0  0  0  0  0  0  0  0  0
    2.8753   -1.5409    0.1320 H   0  0  0  0  0  0  0  0  0  0  0  0
    2.9515    0.2053    0.4266 H   0  0  0  0  0  0  0  0  0  0  0  0
   -0.1267    2.1910    1.3370 H   0  0  0  0  0  0  0  0  0  0  0  0
    1.2755    2.2734    0.1761 H   0  0  0  0  0  0  0  0  0  0  0  0
   -0.8456    0.4820   -2.0237 H   0  0  0  0  0  0  0  0  0  0  0  0
   -2.0201    0.5956    0.9112 H   0  0  0  0  0  0  0  0  0  0  0  0
   -1.3126   -1.9072   -0.8297 H   0  0  0  0  0  0  0  0  0  0  0  0
   -1.6124   -1.8750    0.9927 H   0  0  0  0  0  0  0  0  0  0  0  0
   -2.9027   -1.4825   -0.1601 H   0  0  0  0  0  0  0  0  0  0  0  0
  1  2  1  0
  2  3  2  0
  2  4  1  0
  4  5  1  0
  5  6  1  0
  6  7  1  0
  7  8  1  0
  8  9  1  0
  7  4  1  0
  8  4  1  0
  1 10  1  0
  1 11  1  0
  1 12  1  0
  5 13  1  0
  5 14  1  0
  7 15  1  0
  8 16  1  0
  9 17  1  0
  9 18  1  0
  9 19  1  0
M  END
