
     RDKit          3D

 21 21  0  0  0  0  0  0  0  0999 V2000
    2.7536    0.2379   -0.2135 C   0  0  0  0  0  0  0  0  0  0  0  0
    1.3730   -0.0344   -0.6613 C   0  0  0  0  0  0  0  0  0  0  0  0
    1.1673   -0.3291   -1.8119 O   0  0  0  0  0  0  0  0  0  0  0  0
    0.2867    0.0580    0.2950 C   0  0  0  0  0  0  0  0  0  0  0  0
    0.7133    0.4092    1.5720 O   0  0  0  0  0  0  0  0  0  0  0  0
   -0.4330   -1.2976    0.3188 C   0  0  0  0  0  0  0  0  0  0  0  0
   -1.9113   -0.9683    0.2631 C   0  0  0  0  0  0  0  0  0  0  0  0
   -1.9383    0.4466    0.7695 C   0  0  0  0  0  0  0  0  0  0  0  0
   -0.8071    1.0358   -0.0826 C   0  0  0  0  0  0  0  0  0  0  0  0
    3.5236   -0.0825   -0.9394 H   0  0  0  0  0  0  0  0  0  0  0  0
    2.8417    1.3418    0.0107 H   0  0  0  0  0  0  0  0  0  0  0  0
    3.0037   -0.3048    0.7431 H   0  0  0  0  0  0  0  0  0  0  0  0
    0.6472    1.3997    1.7202 H   0  0  0  0  0  0  0  0  0  0  0  0
   -0.1422   -1.9186   -0.5427 H   0  0  0  0  0  0  0  0  0  0  0  0
   -0.1495   -1.8249    1.2451 H   0  0  0  0  0  0  0  0  0  0  0  0
   -2.5303   -1.6615    0.8523 H   0  0  0  0  0  0  0  0  0  0  0  0
   -2.1855   -0.9414   -0.8153 H   0  0  0  0  0  0  0  0  0  0  0  0
   -2.8856    0.9637    0.6184 H   0  0  0  0  0  0  0  0  0  0  0  0
   -1.6027    0.4623    1.8296 H   0  0  0  0  0  0  0  0  0  0  0  0
   -1.1211    0.9447   -1.1360 H   0  0  0  0  0  0  0  0  0  0  0  0
   -0.6036    2.0634    0.2461 H   0  0  0  0  0  0  0  0  0  0  0  0
  1  2  1  0
  2  3  2  0
  2  4  1  0
  4  5  1  0
  4  6  1  0
  6  7  1  0
  7  8  1  0
  8  9  1  0
  9  4  1  0
  1 10  1  0
  1 11  1  0
  1 12  1  0
  5 13  1  0
  6 14  1  0
  6 15  1  0
  7 16  1  0
  7 17  1  0
  8 18  1  0
  8 19  1  0
  9 20  1  0
  9 21  1  0
M  END
