
     RDKit          3D

 16 15  0  0  0  0  0  0  0  0999 V2000
   -2.5525    0.0683   -0.9396 C   0  0  0  0  0  0  0  0  0  0  0  0
   -1.3166    0.4838   -0.2197 C   0  0  0  0  0  0  0  0  0  0  0  0
   -1.1683    1.6625    0.2115 O   0  0  0  0  0  0  0  0  0  0  0  0
   -0.2785   -0.5031   -0.0232 C   0  0  0  0  0  0  0  0  0  0  0  0
   -0.4541   -1.6620   -0.4616 O   0  0  0  0  0  0  0  0  0  0  0  0
    0.9563   -0.1386    0.6807 C   0  0  0  0  0  0  0  0  0  0  0  0
    2.2028   -0.4381   -0.1172 C   0  0  0  0  0  0  0  0  0  0  0  0
    0.8816    1.1993    1.0537 O   0  0  0  0  0  0  0  0  0  0  0  0
   -2.7585   -0.9733   -0.6250 H   0  0  0  0  0  0  0  0  0  0  0  0
   -3.3564    0.7670   -0.6314 H   0  0  0  0  0  0  0  0  0  0  0  0
   -2.3269    0.1083   -2.0115 H   0  0  0  0  0  0  0  0  0  0  0  0
    1.0291   -0.7169    1.6403 H   0  0  0  0  0  0  0  0  0  0  0  0
    2.8552    0.4584   -0.1542 H   0  0  0  0  0  0  0  0  0  0  0  0
    1.9771   -0.7629   -1.1552 H   0  0  0  0  0  0  0  0  0  0  0  0
    2.8126   -1.2490    0.3487 H   0  0  0  0  0  0  0  0  0  0  0  0
    1.4969    1.6964    0.4468 H   0  0  0  0  0  0  0  0  0  0  0  0
  1  2  1  0
  2  3  2  0
  2  4  1  0
  4  5  2  0
  4  6  1  0
  6  7  1  0
  6  8  1  0
  1  9  1  0
  1 10  1  0
  1 11  1  0
  6 12  1  0
  7 13  1  0
  7 14  1  0
  7 15  1  0
  8 16  1  0
M  END
