
     RDKit          3D

 17 18  0  0  0  0  0  0  0  0999 V2000
   -1.7834    1.0801    0.4795 C   0  0  0  0  0  0  0  0  0  0  0  0
   -1.1122    0.1637   -0.4766 C   0  0  0  0  0  0  0  0  0  0  0  0
   -1.5498    0.0977   -1.6089 O   0  0  0  0  0  0  0  0  0  0  0  0
    0.0710   -0.7072   -0.1346 C   0  0  0  0  0  0  0  0  0  0  0  0
    1.3745   -0.1045    0.2086 C   0  0  0  0  0  0  0  0  0  0  0  0
    1.7129    1.2509    0.4045 C   0  0  0  0  0  0  0  0  0  0  0  0
    1.7965    0.7203   -0.9984 O   0  0  0  0  0  0  0  0  0  0  0  0
   -0.0356   -2.1421   -0.4499 C   0  0  0  0  0  0  0  0  0  0  0  0
   -0.3598   -1.6684    0.8569 O   0  0  0  0  0  0  0  0  0  0  0  0
   -2.6803    1.5440    0.0286 H   0  0  0  0  0  0  0  0  0  0  0  0
   -2.1998    0.4706    1.3315 H   0  0  0  0  0  0  0  0  0  0  0  0
   -1.1092    1.8558    0.8182 H   0  0  0  0  0  0  0  0  0  0  0  0
    2.1927   -0.8774    0.3609 H   0  0  0  0  0  0  0  0  0  0  0  0
    2.8027    1.4965    0.6716 H   0  0  0  0  0  0  0  0  0  0  0  0
    1.0267    2.1468    0.4066 H   0  0  0  0  0  0  0  0  0  0  0  0
    0.8242   -2.8101   -0.5634 H   0  0  0  0  0  0  0  0  0  0  0  0
   -0.9711   -2.5168   -0.9850 H   0  0  0  0  0  0  0  0  0  0  0  0
  1  2  1  0
  2  3  2  0
  2  4  1  0
  4  5  1  0
  5  6  1  0
  6  7  1  0
  4  8  1  0
  8  9  1  0
  9  4  1  0
  7  5  1  0
  1 10  1  0
  1 11  1  0
  1 12  1  0
  5 13  1  0
  6 14  1  0
  6 15  1  0
  8 16  1  0
  8 17  1  0
M  END
