
     RDKit          3D

 21 21  0  0  0  0  0  0  0  0999 V2000
    2.2878   -0.9815    0.2796 C   0  0  0  0  0  0  0  0  0  0  0  0
    1.6266    0.3147    0.5970 C   0  0  0  0  0  0  0  0  0  0  0  0
    2.1749    1.0181    1.4291 O   0  0  0  0  0  0  0  0  0  0  0  0
    0.3826    0.6378   -0.1090 C   0  0  0  0  0  0  0  0  0  0  0  0
   -0.1999    1.9448    0.2675 C   0  0  0  0  0  0  0  0  0  0  0  0
   -1.5105    1.8900    0.0762 C   0  0  0  0  0  0  0  0  0  0  0  0
   -1.8890    0.5268   -0.4460 C   0  0  0  0  0  0  0  0  0  0  0  0
   -0.7581   -0.2933    0.1906 C   0  0  0  0  0  0  0  0  0  0  0  0
   -0.6287   -1.6422   -0.4592 C   0  0  0  0  0  0  0  0  0  0  0  0
    1.9858   -1.3979   -0.6940 H   0  0  0  0  0  0  0  0  0  0  0  0
    2.1162   -1.7426    1.0969 H   0  0  0  0  0  0  0  0  0  0  0  0
    3.3774   -0.7695    0.2254 H   0  0  0  0  0  0  0  0  0  0  0  0
    0.5016    0.6517   -1.2193 H   0  0  0  0  0  0  0  0  0  0  0  0
    0.3265    2.8137    0.6380 H   0  0  0  0  0  0  0  0  0  0  0  0
   -2.2373    2.6648    0.2492 H   0  0  0  0  0  0  0  0  0  0  0  0
   -1.7554    0.5661   -1.5326 H   0  0  0  0  0  0  0  0  0  0  0  0
   -2.8686    0.2096   -0.0971 H   0  0  0  0  0  0  0  0  0  0  0  0
   -0.9506   -0.4387    1.2511 H   0  0  0  0  0  0  0  0  0  0  0  0
   -0.0483   -2.2850    0.2179 H   0  0  0  0  0  0  0  0  0  0  0  0
   -1.6668   -2.0837   -0.4688 H   0  0  0  0  0  0  0  0  0  0  0  0
   -0.2660   -1.6036   -1.4925 H   0  0  0  0  0  0  0  0  0  0  0  0
  1  2  1  0
  2  3  2  0
  2  4  1  0
  4  5  1  0
  5  6  2  0
  6  7  1  0
  7  8  1  0
  8  9  1  0
  8  4  1  0
  1 10  1  0
  1 11  1  0
  1 12  1  0
  4 13  1  0
  5 14  1  0
  6 15  1  0
  7 16  1  0
  7 17  1  0
  8 18  1  0
  9 19  1  0
  9 20  1  0
  9 21  1  0
M  END
