
     RDKit          3D

 17 17  0  0  0  0  0  0  0  0999 V2000
   -1.9246    0.7600   -0.2010 C   0  0  0  0  0  0  0  0  0  0  0  0
   -0.4887    0.7624   -0.5837 C   0  0  0  0  0  0  0  0  0  0  0  0
   -0.0923    1.5676   -1.3935 O   0  0  0  0  0  0  0  0  0  0  0  0
    0.4401   -0.2126    0.0280 C   0  0  0  0  0  0  0  0  0  0  0  0
    1.8332    0.0494   -0.0132 O   0  0  0  0  0  0  0  0  0  0  0  0
    2.3785    1.1759    0.5600 C   0  0  0  0  0  0  0  0  0  0  0  0
    1.5993    1.9796    1.1291 O   0  0  0  0  0  0  0  0  0  0  0  0
   -0.1275   -1.1897    1.0246 C   0  0  0  0  0  0  0  0  0  0  0  0
    0.1550   -1.7001   -0.3588 C   0  0  0  0  0  0  0  0  0  0  0  0
   -2.4491   -0.1860   -0.4434 H   0  0  0  0  0  0  0  0  0  0  0  0
   -1.9264    0.8843    0.9189 H   0  0  0  0  0  0  0  0  0  0  0  0
   -2.4917    1.5811   -0.6729 H   0  0  0  0  0  0  0  0  0  0  0  0
    3.4576    1.3908    0.5326 H   0  0  0  0  0  0  0  0  0  0  0  0
   -1.2193   -1.0720    1.2247 H   0  0  0  0  0  0  0  0  0  0  0  0
    0.5251   -1.5113    1.8697 H   0  0  0  0  0  0  0  0  0  0  0  0
   -0.6692   -1.8866   -1.0561 H   0  0  0  0  0  0  0  0  0  0  0  0
    0.9999   -2.3928   -0.4155 H   0  0  0  0  0  0  0  0  0  0  0  0
  1  2  1  0
  2  3  2  0
  2  4  1  0
  4  5  1  0
  5  6  1  0
  6  7  2  0
  4  8  1  0
  8  9  1  0
  9  4  1  0
  1 10  1  0
  1 11  1  0
  1 12  1  0
  6 13  1  0
  8 14  1  0
  8 15  1  0
  9 16  1  0
  9 17  1  0
M  END
