
     RDKit          3D

 21 20  0  0  0  0  0  0  0  0999 V2000
    2.3203    1.5206    0.1961 C   0  0  0  0  0  0  0  0  0  0  0  0
    2.2690    0.0336    0.1510 C   0  0  0  0  0  0  0  0  0  0  0  0
    3.1604   -0.6041    0.6378 O   0  0  0  0  0  0  0  0  0  0  0  0
    1.0977   -0.6009   -0.5053 C   0  0  0  0  0  0  0  0  0  0  0  0
    1.1410   -1.9723   -0.4965 O   0  0  0  0  0  0  0  0  0  0  0  0
   -0.1771   -0.0534    0.1042 C   0  0  0  0  0  0  0  0  0  0  0  0
   -1.4055   -0.6617   -0.5227 C   0  0  0  0  0  0  0  0  0  0  0  0
   -2.6312   -0.0740    0.1289 C   0  0  0  0  0  0  0  0  0  0  0  0
   -2.6556   -0.3304    1.4980 O   0  0  0  0  0  0  0  0  0  0  0  0
    1.8193    1.9354    1.0909 H   0  0  0  0  0  0  0  0  0  0  0  0
    1.8471    1.9351   -0.7250 H   0  0  0  0  0  0  0  0  0  0  0  0
    3.3784    1.8164    0.2058 H   0  0  0  0  0  0  0  0  0  0  0  0
    1.1225   -0.2723   -1.5734 H   0  0  0  0  0  0  0  0  0  0  0  0
    1.3019   -2.3758    0.3815 H   0  0  0  0  0  0  0  0  0  0  0  0
   -0.2436    1.0414   -0.0590 H   0  0  0  0  0  0  0  0  0  0  0  0
   -0.2172   -0.2418    1.1973 H   0  0  0  0  0  0  0  0  0  0  0  0
   -1.4367   -0.3806   -1.5987 H   0  0  0  0  0  0  0  0  0  0  0  0
   -1.3746   -1.7585   -0.3841 H   0  0  0  0  0  0  0  0  0  0  0  0
   -3.5515   -0.4201   -0.3630 H   0  0  0  0  0  0  0  0  0  0  0  0
   -2.5985    1.0345   -0.0197 H   0  0  0  0  0  0  0  0  0  0  0  0
   -3.1663    0.4289    1.9067 H   0  0  0  0  0  0  0  0  0  0  0  0
  1  2  1  0
  2  3  2  0
  2  4  1  0
  4  5  1  0
  4  6  1  0
  6  7  1  0
  7  8  1  0
  8  9  1  0
  1 10  1  0
  1 11  1  0
  1 12  1  0
  4 13  1  0
  5 14  1  0
  6 15  1  0
  6 16  1  0
  7 17  1  0
  7 18  1  0
  8 19  1  0
  8 20  1  0
  9 21  1  0
M  END
