
     RDKit          3D

 19 19  0  0  0  0  0  0  0  0999 V2000
    1.7674   -1.0211    0.1934 C   0  0  0  0  0  0  0  0  0  0  0  0
    1.3513    0.3247   -0.2807 C   0  0  0  0  0  0  0  0  0  0  0  0
    2.2589    1.0635   -0.6232 O   0  0  0  0  0  0  0  0  0  0  0  0
   -0.0222    0.8032   -0.3605 C   0  0  0  0  0  0  0  0  0  0  0  0
   -0.0457    2.0937   -0.8421 O   0  0  0  0  0  0  0  0  0  0  0  0
   -0.9425   -0.0418   -1.1876 C   0  0  0  0  0  0  0  0  0  0  0  0
   -1.5035   -1.0335   -0.2618 C   0  0  0  0  0  0  0  0  0  0  0  0
   -1.3308   -0.6174    0.9813 C   0  0  0  0  0  0  0  0  0  0  0  0
   -0.6436    0.6824    1.0200 C   0  0  0  0  0  0  0  0  0  0  0  0
    1.0324   -1.3170    0.9973 H   0  0  0  0  0  0  0  0  0  0  0  0
    2.7432   -0.9524    0.7168 H   0  0  0  0  0  0  0  0  0  0  0  0
    1.7879   -1.7757   -0.6143 H   0  0  0  0  0  0  0  0  0  0  0  0
    0.6695    2.5964   -0.3743 H   0  0  0  0  0  0  0  0  0  0  0  0
   -0.4779   -0.4895   -2.0733 H   0  0  0  0  0  0  0  0  0  0  0  0
   -1.7843    0.6210   -1.5158 H   0  0  0  0  0  0  0  0  0  0  0  0
   -1.9868   -1.9681   -0.5724 H   0  0  0  0  0  0  0  0  0  0  0  0
   -1.6570   -1.1702    1.8471 H   0  0  0  0  0  0  0  0  0  0  0  0
   -1.3767    1.4931    1.1522 H   0  0  0  0  0  0  0  0  0  0  0  0
    0.1604    0.7086    1.7978 H   0  0  0  0  0  0  0  0  0  0  0  0
  1  2  1  0
  2  3  2  0
  2  4  1  0
  4  5  1  0
  4  6  1  0
  6  7  1  0
  7  8  2  0
  8  9  1  0
  9  4  1  0
  1 10  1  0
  1 11  1  0
  1 12  1  0
  5 13  1  0
  6 14  1  0
  6 15  1  0
  7 16  1  0
  8 17  1  0
  9 18  1  0
  9 19  1  0
M  END
