
     RDKit          3D

 19 19  0  0  0  0  0  0  0  0999 V2000
    2.9179    1.1452    0.3864 C   0  0  0  0  0  0  0  0  0  0  0  0
    1.6142    0.7163   -0.1942 C   0  0  0  0  0  0  0  0  0  0  0  0
    1.2916    0.9863   -1.3830 O   0  0  0  0  0  0  0  0  0  0  0  0
    0.6730   -0.0029    0.5246 O   0  0  0  0  0  0  0  0  0  0  0  0
   -0.5702   -0.4285    0.0181 C   0  0  0  0  0  0  0  0  0  0  0  0
   -1.5422    0.6248   -0.4699 C   0  0  0  0  0  0  0  0  0  0  0  0
   -1.8594    1.4975    0.5939 O   0  0  0  0  0  0  0  0  0  0  0  0
   -0.6908   -1.8302   -0.4915 C   0  0  0  0  0  0  0  0  0  0  0  0
   -1.2112   -1.5417    0.8473 C   0  0  0  0  0  0  0  0  0  0  0  0
    3.2758    0.4076    1.1568 H   0  0  0  0  0  0  0  0  0  0  0  0
    2.8069    2.1571    0.8352 H   0  0  0  0  0  0  0  0  0  0  0  0
    3.6942    1.1230   -0.4106 H   0  0  0  0  0  0  0  0  0  0  0  0
   -2.4378    0.1676   -0.8926 H   0  0  0  0  0  0  0  0  0  0  0  0
   -1.0246    1.2330   -1.2312 H   0  0  0  0  0  0  0  0  0  0  0  0
   -2.8312    1.6187    0.6039 H   0  0  0  0  0  0  0  0  0  0  0  0
   -1.4113   -2.0752   -1.2914 H   0  0  0  0  0  0  0  0  0  0  0  0
    0.2727   -2.3663   -0.5902 H   0  0  0  0  0  0  0  0  0  0  0  0
   -2.3142   -1.4792    1.0228 H   0  0  0  0  0  0  0  0  0  0  0  0
   -0.6534   -1.9532    1.6998 H   0  0  0  0  0  0  0  0  0  0  0  0
  1  2  1  0
  2  3  2  0
  2  4  1  0
  4  5  1  0
  5  6  1  0
  6  7  1  0
  5  8  1  0
  8  9  1  0
  9  5  1  0
  1 10  1  0
  1 11  1  0
  1 12  1  0
  6 13  1  0
  6 14  1  0
  7 15  1  0
  8 16  1  0
  8 17  1  0
  9 18  1  0
  9 19  1  0
M  END
