
     RDKit          3D

 15 15  0  0  0  0  0  0  0  0999 V2000
   -2.4446    0.4382   -0.1773 C   0  0  0  0  0  0  0  0  0  0  0  0
   -1.2657   -0.4398   -0.4182 C   0  0  0  0  0  0  0  0  0  0  0  0
   -1.4399   -1.6401   -0.4080 O   0  0  0  0  0  0  0  0  0  0  0  0
    0.0615    0.1695   -0.6590 C   0  0  0  0  0  0  0  0  0  0  0  0
    0.9653   -0.4469   -1.5137 O   0  0  0  0  0  0  0  0  0  0  0  0
    1.2194   -0.6655   -0.1775 C   0  0  0  0  0  0  0  0  0  0  0  0
    2.2866    0.1193    0.5363 C   0  0  0  0  0  0  0  0  0  0  0  0
   -3.0785    0.1022    0.6467 H   0  0  0  0  0  0  0  0  0  0  0  0
   -3.0221    0.4416   -1.1488 H   0  0  0  0  0  0  0  0  0  0  0  0
   -2.1057    1.4930   -0.0073 H   0  0  0  0  0  0  0  0  0  0  0  0
    0.1237    1.2574   -0.6502 H   0  0  0  0  0  0  0  0  0  0  0  0
    1.0352   -1.6866    0.1642 H   0  0  0  0  0  0  0  0  0  0  0  0
    2.0546    1.1948    0.6352 H   0  0  0  0  0  0  0  0  0  0  0  0
    3.3031   -0.0611    0.1383 H   0  0  0  0  0  0  0  0  0  0  0  0
    2.3072   -0.2759    1.5911 H   0  0  0  0  0  0  0  0  0  0  0  0
  1  2  1  0
  2  3  2  0
  2  4  1  0
  4  5  1  0
  5  6  1  0
  6  7  1  0
  6  4  1  0
  1  8  1  0
  1  9  1  0
  1 10  1  0
  4 11  1  0
  6 12  1  0
  7 13  1  0
  7 14  1  0
  7 15  1  0
M  END
