
     RDKit          3D

 15 15  0  0  0  0  0  0  0  0999 V2000
    2.6980   -0.0775    0.0372 C   0  0  0  0  0  0  0  0  0  0  0  0
    1.3699    0.0517   -0.6011 C   0  0  0  0  0  0  0  0  0  0  0  0
    1.2734    0.3639   -1.8017 O   0  0  0  0  0  0  0  0  0  0  0  0
    0.2468   -0.1732    0.1335 O   0  0  0  0  0  0  0  0  0  0  0  0
   -1.0698   -0.0892   -0.3309 C   0  0  0  0  0  0  0  0  0  0  0  0
   -1.8790    0.8131    0.5812 C   0  0  0  0  0  0  0  0  0  0  0  0
   -2.9689   -0.0137    0.2129 O   0  0  0  0  0  0  0  0  0  0  0  0
   -2.0322   -1.0702    0.1848 C   0  0  0  0  0  0  0  0  0  0  0  0
   -2.1634   -2.2604    0.5039 O   0  0  0  0  0  0  0  0  0  0  0  0
    2.6096   -0.6836    0.9654 H   0  0  0  0  0  0  0  0  0  0  0  0
    3.4494   -0.4894   -0.6648 H   0  0  0  0  0  0  0  0  0  0  0  0
    3.0516    0.9272    0.3266 H   0  0  0  0  0  0  0  0  0  0  0  0
   -1.1254    0.1835   -1.3769 H   0  0  0  0  0  0  0  0  0  0  0  0
   -1.5548    0.6750    1.6294 H   0  0  0  0  0  0  0  0  0  0  0  0
   -1.9051    1.8427    0.2006 H   0  0  0  0  0  0  0  0  0  0  0  0
  1  2  1  0
  2  3  2  0
  2  4  1  0
  4  5  1  0
  5  6  1  0
  6  7  1  0
  7  8  1  0
  8  9  2  0
  8  5  1  0
  1 10  1  0
  1 11  1  0
  1 12  1  0
  5 13  1  0
  6 14  1  0
  6 15  1  0
M  END
