
     RDKit          3D

 19 19  0  0  0  0  0  0  0  0999 V2000
    2.4705    0.0023   -0.4354 C   0  0  0  0  0  0  0  0  0  0  0  0
    1.3877   -0.1881    0.5683 C   0  0  0  0  0  0  0  0  0  0  0  0
    1.7345   -0.2833    1.7330 O   0  0  0  0  0  0  0  0  0  0  0  0
   -0.0395   -0.2648    0.2320 C   0  0  0  0  0  0  0  0  0  0  0  0
   -0.7244   -1.4871    0.7813 C   0  0  0  0  0  0  0  0  0  0  0  0
   -0.7161    0.9397    0.7793 C   0  0  0  0  0  0  0  0  0  0  0  0
   -1.5286    1.4094   -0.1501 C   0  0  0  0  0  0  0  0  0  0  0  0
   -1.4054    0.5269   -1.3245 C   0  0  0  0  0  0  0  0  0  0  0  0
   -0.2028   -0.1325   -1.1480 O   0  0  0  0  0  0  0  0  0  0  0  0
    2.9439   -0.9554   -0.7284 H   0  0  0  0  0  0  0  0  0  0  0  0
    3.2053    0.7069    0.0147 H   0  0  0  0  0  0  0  0  0  0  0  0
    2.0336    0.5039   -1.3416 H   0  0  0  0  0  0  0  0  0  0  0  0
   -0.7950   -1.3670    1.8832 H   0  0  0  0  0  0  0  0  0  0  0  0
   -1.7564   -1.4914    0.3918 H   0  0  0  0  0  0  0  0  0  0  0  0
   -0.1698   -2.4241    0.5631 H   0  0  0  0  0  0  0  0  0  0  0  0
   -0.5669    1.3575    1.7690 H   0  0  0  0  0  0  0  0  0  0  0  0
   -2.1851    2.3109   -0.0555 H   0  0  0  0  0  0  0  0  0  0  0  0
   -1.4618    1.0702   -2.2878 H   0  0  0  0  0  0  0  0  0  0  0  0
   -2.2236   -0.2339   -1.2443 H   0  0  0  0  0  0  0  0  0  0  0  0
  1  2  1  0
  2  3  2  0
  2  4  1  0
  4  5  1  0
  4  6  1  0
  6  7  2  0
  7  8  1  0
  8  9  1  0
  9  4  1  0
  1 10  1  0
  1 11  1  0
  1 12  1  0
  5 13  1  0
  5 14  1  0
  5 15  1  0
  6 16  1  0
  7 17  1  0
  8 18  1  0
  8 19  1  0
M  END
