
     RDKit          3D

 21 20  0  0  0  0  0  0  0  0999 V2000
   -1.8735   -1.4559   -0.8432 C   0  0  0  0  0  0  0  0  0  0  0  0
   -1.7667   -0.1136   -0.2120 C   0  0  0  0  0  0  0  0  0  0  0  0
   -2.7342    0.3759    0.3565 O   0  0  0  0  0  0  0  0  0  0  0  0
   -0.4513    0.5751   -0.3118 C   0  0  0  0  0  0  0  0  0  0  0  0
   -0.5898    1.9054    0.3871 C   0  0  0  0  0  0  0  0  0  0  0  0
    0.5785   -0.3126    0.3202 C   0  0  0  0  0  0  0  0  0  0  0  0
    0.6190   -1.5301   -0.3540 O   0  0  0  0  0  0  0  0  0  0  0  0
    1.9695    0.2682    0.2798 C   0  0  0  0  0  0  0  0  0  0  0  0
    2.8045   -0.6714    0.9269 O   0  0  0  0  0  0  0  0  0  0  0  0
   -1.5963   -2.2045   -0.0707 H   0  0  0  0  0  0  0  0  0  0  0  0
   -1.2501   -1.5434   -1.7495 H   0  0  0  0  0  0  0  0  0  0  0  0
   -2.9227   -1.5808   -1.1819 H   0  0  0  0  0  0  0  0  0  0  0  0
   -0.2225    0.6804   -1.3917 H   0  0  0  0  0  0  0  0  0  0  0  0
   -1.1869    1.8140    1.3008 H   0  0  0  0  0  0  0  0  0  0  0  0
   -1.1880    2.5582   -0.3134 H   0  0  0  0  0  0  0  0  0  0  0  0
    0.3632    2.3979    0.6001 H   0  0  0  0  0  0  0  0  0  0  0  0
    0.3462   -0.5380    1.3784 H   0  0  0  0  0  0  0  0  0  0  0  0
    1.0912   -1.4821   -1.2194 H   0  0  0  0  0  0  0  0  0  0  0  0
    2.0091    1.2172    0.8418 H   0  0  0  0  0  0  0  0  0  0  0  0
    2.3184    0.3807   -0.7791 H   0  0  0  0  0  0  0  0  0  0  0  0
    3.6825   -0.7407    0.4938 H   0  0  0  0  0  0  0  0  0  0  0  0
  1  2  1  0
  2  3  2  0
  2  4  1  0
  4  5  1  0
  4  6  1  0
  6  7  1  0
  6  8  1  0
  8  9  1  0
  1 10  1  0
  1 11  1  0
  1 12  1  0
  4 13  1  0
  5 14  1  0
  5 15  1  0
  5 16  1  0
  6 17  1  0
  7 18  1  0
  8 19  1  0
  8 20  1  0
  9 21  1  0
M  END
