
     RDKit          3D

 21 21  0  0  0  0  0  0  0  0999 V2000
    2.8401    0.8632    0.0173 C   0  0  0  0  0  0  0  0  0  0  0  0
    2.1352   -0.4291   -0.0151 C   0  0  0  0  0  0  0  0  0  0  0  0
    2.7097   -1.4417   -0.4114 O   0  0  0  0  0  0  0  0  0  0  0  0
    0.7319   -0.6149    0.4088 C   0  0  0  0  0  0  0  0  0  0  0  0
   -0.1673   -0.6162   -0.8322 C   0  0  0  0  0  0  0  0  0  0  0  0
   -1.0525    0.0925    0.1648 C   0  0  0  0  0  0  0  0  0  0  0  0
   -1.9533   -0.9000    0.8502 C   0  0  0  0  0  0  0  0  0  0  0  0
   -1.8604    1.1939   -0.4608 C   0  0  0  0  0  0  0  0  0  0  0  0
    0.0630    0.4951    0.8567 O   0  0  0  0  0  0  0  0  0  0  0  0
    2.3451    1.6383   -0.6197 H   0  0  0  0  0  0  0  0  0  0  0  0
    3.8575    0.7446   -0.3753 H   0  0  0  0  0  0  0  0  0  0  0  0
    2.9377    1.2912    1.0381 H   0  0  0  0  0  0  0  0  0  0  0  0
    0.6198   -1.5322    1.0264 H   0  0  0  0  0  0  0  0  0  0  0  0
    0.2145    0.0104   -1.6475 H   0  0  0  0  0  0  0  0  0  0  0  0
   -0.4587   -1.6263   -1.1177 H   0  0  0  0  0  0  0  0  0  0  0  0
   -2.6077   -0.4284    1.6125 H   0  0  0  0  0  0  0  0  0  0  0  0
   -2.6611   -1.2935    0.0668 H   0  0  0  0  0  0  0  0  0  0  0  0
   -1.4180   -1.7939    1.2260 H   0  0  0  0  0  0  0  0  0  0  0  0
   -2.3096    0.7808   -1.3989 H   0  0  0  0  0  0  0  0  0  0  0  0
   -2.6690    1.4605    0.2683 H   0  0  0  0  0  0  0  0  0  0  0  0
   -1.2970    2.1059   -0.6571 H   0  0  0  0  0  0  0  0  0  0  0  0
  1  2  1  0
  2  3  2  0
  2  4  1  0
  4  5  1  0
  5  6  1  0
  6  7  1  0
  6  8  1  0
  6  9  1  0
  9  4  1  0
  1 10  1  0
  1 11  1  0
  1 12  1  0
  4 13  1  0
  5 14  1  0
  5 15  1  0
  7 16  1  0
  7 17  1  0
  7 18  1  0
  8 19  1  0
  8 20  1  0
  8 21  1  0
M  END
