
     RDKit          3D

 18 18  0  0  0  0  0  0  0  0999 V2000
    2.8066   -0.2390   -0.5564 C   0  0  0  0  0  0  0  0  0  0  0  0
    1.5191    0.2145    0.0407 C   0  0  0  0  0  0  0  0  0  0  0  0
    1.5006    1.2592    0.6393 O   0  0  0  0  0  0  0  0  0  0  0  0
    0.2644   -0.5786   -0.0792 C   0  0  0  0  0  0  0  0  0  0  0  0
   -0.8598    0.1126    0.6102 C   0  0  0  0  0  0  0  0  0  0  0  0
   -2.1946   -0.5360    0.5935 C   0  0  0  0  0  0  0  0  0  0  0  0
   -2.7676    0.7557    0.5281 O   0  0  0  0  0  0  0  0  0  0  0  0
   -1.6376    1.1060   -0.2460 C   0  0  0  0  0  0  0  0  0  0  0  0
    3.3077   -0.9656    0.1106 H   0  0  0  0  0  0  0  0  0  0  0  0
    3.4679    0.6362   -0.7391 H   0  0  0  0  0  0  0  0  0  0  0  0
    2.6503   -0.7461   -1.5216 H   0  0  0  0  0  0  0  0  0  0  0  0
    0.0162   -0.8160   -1.1338 H   0  0  0  0  0  0  0  0  0  0  0  0
    0.4572   -1.5547    0.4366 H   0  0  0  0  0  0  0  0  0  0  0  0
   -0.5681    0.5466    1.5738 H   0  0  0  0  0  0  0  0  0  0  0  0
   -2.4283   -1.0545   -0.3517 H   0  0  0  0  0  0  0  0  0  0  0  0
   -2.4722   -1.1029    1.4906 H   0  0  0  0  0  0  0  0  0  0  0  0
   -1.3482    2.1570   -0.0897 H   0  0  0  0  0  0  0  0  0  0  0  0
   -1.7134    0.8056   -1.3061 H   0  0  0  0  0  0  0  0  0  0  0  0
  1  2  1  0
  2  3  2  0
  2  4  1  0
  4  5  1  0
  5  6  1  0
  6  7  1  0
  7  8  1  0
  8  5  1  0
  1  9  1  0
  1 10  1  0
  1 11  1  0
  4 12  1  0
  4 13  1  0
  5 14  1  0
  6 15  1  0
  6 16  1  0
  8 17  1  0
  8 18  1  0
M  END
