
     RDKit          3D

 17 16  0  0  0  0  0  0  0  0999 V2000
    2.5087    0.5895   -0.2189 C   0  0  0  0  0  0  0  0  0  0  0  0
    1.3484   -0.1722    0.3582 C   0  0  0  0  0  0  0  0  0  0  0  0
    1.3637   -0.6296    1.4632 O   0  0  0  0  0  0  0  0  0  0  0  0
    0.1545   -0.3405   -0.5061 C   0  0  0  0  0  0  0  0  0  0  0  0
   -1.1149    0.1570    0.1454 C   0  0  0  0  0  0  0  0  0  0  0  0
   -1.4599   -0.5013    1.4040 C   0  0  0  0  0  0  0  0  0  0  0  0
   -0.9964   -0.0593    2.4412 O   0  0  0  0  0  0  0  0  0  0  0  0
   -2.2016   -0.0486   -0.8775 C   0  0  0  0  0  0  0  0  0  0  0  0
   -2.2158    0.6304   -1.8684 O   0  0  0  0  0  0  0  0  0  0  0  0
    2.0594    1.4535   -0.7754 H   0  0  0  0  0  0  0  0  0  0  0  0
    3.1346    1.0231    0.5915 H   0  0  0  0  0  0  0  0  0  0  0  0
    3.1083    0.0091   -0.9245 H   0  0  0  0  0  0  0  0  0  0  0  0
    0.2460    0.2261   -1.4682 H   0  0  0  0  0  0  0  0  0  0  0  0
    0.0775   -1.4177   -0.8221 H   0  0  0  0  0  0  0  0  0  0  0  0
   -0.9576    1.2561    0.3052 H   0  0  0  0  0  0  0  0  0  0  0  0
   -2.1176   -1.3700    1.4323 H   0  0  0  0  0  0  0  0  0  0  0  0
   -2.9375   -0.8058   -0.6800 H   0  0  0  0  0  0  0  0  0  0  0  0
  1  2  1  0
  2  3  2  0
  2  4  1  0
  4  5  1  0
  5  6  1  0
  6  7  2  0
  5  8  1  0
  8  9  2  0
  1 10  1  0
  1 11  1  0
  1 12  1  0
  4 13  1  0
  4 14  1  0
  5 15  1  0
  6 16  1  0
  8 17  1  0
M  END
