
     RDKit          3D

 16 15  0  0  0  0  0  0  0  0999 V2000
    2.5699   -2.3129    0.2184 C   0  0  0  0  0  0  0  0  0  0  0  0
    1.8523   -1.4311   -0.7372 C   0  0  0  0  0  0  0  0  0  0  0  0
    2.2460   -1.4606   -1.9560 O   0  0  0  0  0  0  0  0  0  0  0  0
    0.8071   -0.6095   -0.3051 C   0  0  0  0  0  0  0  0  0  0  0  0
   -0.1861    0.1917    0.0944 C   0  0  0  0  0  0  0  0  0  0  0  0
   -1.1934    1.0058    0.4943 C   0  0  0  0  0  0  0  0  0  0  0  0
   -1.8201    1.7233   -0.7580 C   0  0  0  0  0  0  0  0  0  0  0  0
   -2.7879    2.5711   -0.2292 O   0  0  0  0  0  0  0  0  0  0  0  0
    3.5577   -1.8703    0.4757 H   0  0  0  0  0  0  0  0  0  0  0  0
    2.8043   -3.2552   -0.3519 H   0  0  0  0  0  0  0  0  0  0  0  0
    1.9795   -2.5502    1.1393 H   0  0  0  0  0  0  0  0  0  0  0  0
   -2.0174    0.4917    0.9938 H   0  0  0  0  0  0  0  0  0  0  0  0
   -0.8959    1.9281    1.1052 H   0  0  0  0  0  0  0  0  0  0  0  0
   -1.0113    2.2152   -1.3000 H   0  0  0  0  0  0  0  0  0  0  0  0
   -2.2806    0.9649   -1.3986 H   0  0  0  0  0  0  0  0  0  0  0  0
   -3.6241    2.3980   -0.7058 H   0  0  0  0  0  0  0  0  0  0  0  0
  1  2  1  0
  2  3  2  0
  2  4  1  0
  4  5  3  0
  5  6  1  0
  6  7  1  0
  7  8  1  0
  1  9  1  0
  1 10  1  0
  1 11  1  0
  6 12  1  0
  6 13  1  0
  7 14  1  0
  7 15  1  0
  8 16  1  0
M  END
