
     RDKit          3D

 16 15  0  0  0  0  0  0  0  0999 V2000
    1.9945   -1.0530   -0.0793 C   0  0  0  0  0  0  0  0  0  0  0  0
    1.0447    0.0107   -0.4522 C   0  0  0  0  0  0  0  0  0  0  0  0
    1.3911    0.7911   -1.3223 O   0  0  0  0  0  0  0  0  0  0  0  0
   -0.2936    0.1848    0.1631 C   0  0  0  0  0  0  0  0  0  0  0  0
   -1.1086   -1.0501   -0.2328 C   0  0  0  0  0  0  0  0  0  0  0  0
   -0.9626    1.2897   -0.4056 O   0  0  0  0  0  0  0  0  0  0  0  0
   -1.4361    2.2824    0.4368 C   0  0  0  0  0  0  0  0  0  0  0  0
   -1.2483    2.1538    1.6689 O   0  0  0  0  0  0  0  0  0  0  0  0
    2.8482   -0.6192    0.5140 H   0  0  0  0  0  0  0  0  0  0  0  0
    1.5354   -1.8860    0.4792 H   0  0  0  0  0  0  0  0  0  0  0  0
    2.4722   -1.4547   -1.0097 H   0  0  0  0  0  0  0  0  0  0  0  0
   -0.2403    0.2749    1.2604 H   0  0  0  0  0  0  0  0  0  0  0  0
   -2.1503   -0.7634   -0.5240 H   0  0  0  0  0  0  0  0  0  0  0  0
   -1.2239   -1.7405    0.6291 H   0  0  0  0  0  0  0  0  0  0  0  0
   -0.6757   -1.5463   -1.1274 H   0  0  0  0  0  0  0  0  0  0  0  0
   -1.9468    3.1258    0.0016 H   0  0  0  0  0  0  0  0  0  0  0  0
  1  2  1  0
  2  3  2  0
  2  4  1  0
  4  5  1  0
  4  6  1  0
  6  7  1  0
  7  8  2  0
  1  9  1  0
  1 10  1  0
  1 11  1  0
  4 12  1  0
  5 13  1  0
  5 14  1  0
  5 15  1  0
  7 16  1  0
M  END
