
     RDKit          3D

 15 14  0  0  0  0  0  0  0  0999 V2000
   -2.2984    0.4536   -0.4363 C   0  0  0  0  0  0  0  0  0  0  0  0
   -1.3375   -0.4679    0.2111 C   0  0  0  0  0  0  0  0  0  0  0  0
   -1.6504   -1.6467    0.2814 O   0  0  0  0  0  0  0  0  0  0  0  0
   -0.0377   -0.0198    0.7646 C   0  0  0  0  0  0  0  0  0  0  0  0
    1.0911   -0.3491   -0.1431 C   0  0  0  0  0  0  0  0  0  0  0  0
    2.5002   -0.0102    0.1702 C   0  0  0  0  0  0  0  0  0  0  0  0
    0.8188   -0.9204   -1.1796 O   0  0  0  0  0  0  0  0  0  0  0  0
   -2.7300   -0.0793   -1.3208 H   0  0  0  0  0  0  0  0  0  0  0  0
   -3.1693    0.7018    0.2137 H   0  0  0  0  0  0  0  0  0  0  0  0
   -1.8217    1.3936   -0.7935 H   0  0  0  0  0  0  0  0  0  0  0  0
   -0.1081    1.0676    0.9866 H   0  0  0  0  0  0  0  0  0  0  0  0
    0.1652   -0.5160    1.7317 H   0  0  0  0  0  0  0  0  0  0  0  0
    3.1659   -0.8777    0.2060 H   0  0  0  0  0  0  0  0  0  0  0  0
    2.9263    0.7115   -0.5805 H   0  0  0  0  0  0  0  0  0  0  0  0
    2.4855    0.5591    1.1298 H   0  0  0  0  0  0  0  0  0  0  0  0
  1  2  1  0
  2  3  2  0
  2  4  1  0
  4  5  1  0
  5  6  1  0
  5  7  2  0
  1  8  1  0
  1  9  1  0
  1 10  1  0
  4 11  1  0
  4 12  1  0
  6 13  1  0
  6 14  1  0
  6 15  1  0
M  END
