
     RDKit          3D

 19 18  0  0  0  0  0  0  0  0999 V2000
    2.8823    0.9442    0.3100 C   0  0  0  0  0  0  0  0  0  0  0  0
    1.7243    0.0073    0.2956 C   0  0  0  0  0  0  0  0  0  0  0  0
    1.9090   -1.1069    0.8796 O   0  0  0  0  0  0  0  0  0  0  0  0
    0.4658    0.3381   -0.3412 C   0  0  0  0  0  0  0  0  0  0  0  0
    0.3602    1.4510   -0.8943 O   0  0  0  0  0  0  0  0  0  0  0  0
   -0.6285   -0.6483   -0.3082 C   0  0  0  0  0  0  0  0  0  0  0  0
   -0.9576   -0.9129    1.1354 C   0  0  0  0  0  0  0  0  0  0  0  0
   -1.8236   -0.2143   -1.1121 C   0  0  0  0  0  0  0  0  0  0  0  0
   -2.3828    0.9632   -0.6882 O   0  0  0  0  0  0  0  0  0  0  0  0
    2.7927    1.5721    1.2021 H   0  0  0  0  0  0  0  0  0  0  0  0
    2.7620    1.6092   -0.5861 H   0  0  0  0  0  0  0  0  0  0  0  0
    3.8337    0.3936    0.2350 H   0  0  0  0  0  0  0  0  0  0  0  0
   -0.2735   -1.6104   -0.7560 H   0  0  0  0  0  0  0  0  0  0  0  0
   -1.9795   -1.3675    1.1806 H   0  0  0  0  0  0  0  0  0  0  0  0
   -0.9097    0.0388    1.6984 H   0  0  0  0  0  0  0  0  0  0  0  0
   -0.2659   -1.6619    1.5372 H   0  0  0  0  0  0  0  0  0  0  0  0
   -2.6060   -0.9996   -1.0732 H   0  0  0  0  0  0  0  0  0  0  0  0
   -1.5518   -0.1089   -2.1828 H   0  0  0  0  0  0  0  0  0  0  0  0
   -3.3511    0.9321   -0.5316 H   0  0  0  0  0  0  0  0  0  0  0  0
  1  2  1  0
  2  3  2  0
  2  4  1  0
  4  5  2  0
  4  6  1  0
  6  7  1  0
  6  8  1  0
  8  9  1  0
  1 10  1  0
  1 11  1  0
  1 12  1  0
  6 13  1  0
  7 14  1  0
  7 15  1  0
  7 16  1  0
  8 17  1  0
  8 18  1  0
  9 19  1  0
M  END
