
     RDKit          3D

 21 20  0  0  0  0  0  0  0  0999 V2000
    3.4357   -0.2278   -0.3480 C   0  0  0  0  0  0  0  0  0  0  0  0
    2.1086    0.4110   -0.4470 C   0  0  0  0  0  0  0  0  0  0  0  0
    2.0048    1.4705   -1.0159 O   0  0  0  0  0  0  0  0  0  0  0  0
    0.9178   -0.2314    0.1398 C   0  0  0  0  0  0  0  0  0  0  0  0
   -0.3373    0.5814   -0.0698 C   0  0  0  0  0  0  0  0  0  0  0  0
   -1.5502   -0.0755    0.5294 C   0  0  0  0  0  0  0  0  0  0  0  0
   -2.7291    0.8618    0.2358 C   0  0  0  0  0  0  0  0  0  0  0  0
   -1.8604   -1.3859   -0.0654 C   0  0  0  0  0  0  0  0  0  0  0  0
   -1.4408   -2.3939    0.4701 O   0  0  0  0  0  0  0  0  0  0  0  0
    4.2567    0.5167   -0.1827 H   0  0  0  0  0  0  0  0  0  0  0  0
    3.6071   -0.7973   -1.2778 H   0  0  0  0  0  0  0  0  0  0  0  0
    3.4575   -0.9809    0.4926 H   0  0  0  0  0  0  0  0  0  0  0  0
    0.7220   -1.2441   -0.3014 H   0  0  0  0  0  0  0  0  0  0  0  0
    1.0324   -0.3881    1.2388 H   0  0  0  0  0  0  0  0  0  0  0  0
   -0.5307    0.7465   -1.1542 H   0  0  0  0  0  0  0  0  0  0  0  0
   -0.2360    1.5767    0.4063 H   0  0  0  0  0  0  0  0  0  0  0  0
   -1.4413   -0.1363    1.6453 H   0  0  0  0  0  0  0  0  0  0  0  0
   -2.9536    0.7218   -0.8449 H   0  0  0  0  0  0  0  0  0  0  0  0
   -2.4049    1.9070    0.3931 H   0  0  0  0  0  0  0  0  0  0  0  0
   -3.6100    0.5778    0.8140 H   0  0  0  0  0  0  0  0  0  0  0  0
   -2.4481   -1.5098   -0.9639 H   0  0  0  0  0  0  0  0  0  0  0  0
  1  2  1  0
  2  3  2  0
  2  4  1  0
  4  5  1  0
  5  6  1  0
  6  7  1  0
  6  8  1  0
  8  9  2  0
  1 10  1  0
  1 11  1  0
  1 12  1  0
  4 13  1  0
  4 14  1  0
  5 15  1  0
  5 16  1  0
  6 17  1  0
  7 18  1  0
  7 19  1  0
  7 20  1  0
  8 21  1  0
M  END
