
     RDKit          3D

 19 18  0  0  0  0  0  0  0  0999 V2000
    3.3050    0.3372    0.1647 C   0  0  0  0  0  0  0  0  0  0  0  0
    2.1130   -0.5162    0.4798 C   0  0  0  0  0  0  0  0  0  0  0  0
    2.2531   -1.6182    1.0900 O   0  0  0  0  0  0  0  0  0  0  0  0
    0.8319   -0.1558    0.1306 O   0  0  0  0  0  0  0  0  0  0  0  0
   -0.3057   -0.9495    0.4201 C   0  0  0  0  0  0  0  0  0  0  0  0
   -1.5353   -0.2313   -0.1154 C   0  0  0  0  0  0  0  0  0  0  0  0
   -2.6640   -0.9960    0.1596 O   0  0  0  0  0  0  0  0  0  0  0  0
   -1.6232    1.1285    0.5847 C   0  0  0  0  0  0  0  0  0  0  0  0
   -2.7257    1.8399    0.1703 O   0  0  0  0  0  0  0  0  0  0  0  0
    4.1916   -0.1182    0.6498 H   0  0  0  0  0  0  0  0  0  0  0  0
    3.3829    0.4045   -0.9258 H   0  0  0  0  0  0  0  0  0  0  0  0
    3.1983    1.3483    0.5916 H   0  0  0  0  0  0  0  0  0  0  0  0
   -0.2333   -1.9755    0.0673 H   0  0  0  0  0  0  0  0  0  0  0  0
   -0.4666   -1.0065    1.5369 H   0  0  0  0  0  0  0  0  0  0  0  0
   -1.4898   -0.0984   -1.2133 H   0  0  0  0  0  0  0  0  0  0  0  0
   -2.8599   -1.6407   -0.5638 H   0  0  0  0  0  0  0  0  0  0  0  0
   -1.6065    0.9249    1.6751 H   0  0  0  0  0  0  0  0  0  0  0  0
   -0.7088    1.7122    0.3619 H   0  0  0  0  0  0  0  0  0  0  0  0
   -3.0569    1.6106   -0.7186 H   0  0  0  0  0  0  0  0  0  0  0  0
  1  2  1  0
  2  3  2  0
  2  4  1  0
  4  5  1  0
  5  6  1  0
  6  7  1  0
  6  8  1  0
  8  9  1  0
  1 10  1  0
  1 11  1  0
  1 12  1  0
  5 13  1  0
  5 14  1  0
  6 15  1  0
  7 16  1  0
  8 17  1  0
  8 18  1  0
  9 19  1  0
M  END
