
     RDKit          3D

 19 20  0  0  0  0  0  0  0  0999 V2000
   -2.5693    0.3294    0.2061 C   0  0  0  0  0  0  0  0  0  0  0  0
   -1.2814    0.1581    0.9744 C   0  0  0  0  0  0  0  0  0  0  0  0
   -1.4348    0.2111    2.2060 O   0  0  0  0  0  0  0  0  0  0  0  0
   -0.0971   -0.0316    0.3765 C   0  0  0  0  0  0  0  0  0  0  0  0
    0.3218   -1.1451   -0.5416 C   0  0  0  0  0  0  0  0  0  0  0  0
    1.5254   -0.2492   -0.5063 C   0  0  0  0  0  0  0  0  0  0  0  0
    2.6341   -0.3953   -1.0678 O   0  0  0  0  0  0  0  0  0  0  0  0
    1.2560   -0.1372    0.9833 C   0  0  0  0  0  0  0  0  0  0  0  0
    0.5537    0.8994   -0.6492 C   0  0  0  0  0  0  0  0  0  0  0  0
   -3.1660   -0.5888    0.1916 H   0  0  0  0  0  0  0  0  0  0  0  0
   -3.1229    1.2019    0.6628 H   0  0  0  0  0  0  0  0  0  0  0  0
   -2.3213    0.6296   -0.8295 H   0  0  0  0  0  0  0  0  0  0  0  0
   -0.2230   -1.1285   -1.5141 H   0  0  0  0  0  0  0  0  0  0  0  0
    0.4097   -2.1252   -0.0654 H   0  0  0  0  0  0  0  0  0  0  0  0
    3.4291   -0.1525   -0.5502 H   0  0  0  0  0  0  0  0  0  0  0  0
    1.6794    0.7750    1.4308 H   0  0  0  0  0  0  0  0  0  0  0  0
    1.4971   -1.0490    1.5454 H   0  0  0  0  0  0  0  0  0  0  0  0
    0.8605    1.8527   -0.2035 H   0  0  0  0  0  0  0  0  0  0  0  0
    0.0491    0.9451   -1.6159 H   0  0  0  0  0  0  0  0  0  0  0  0
  1  2  1  0
  2  3  2  0
  2  4  1  0
  4  5  1  0
  5  6  1  0
  6  7  1  0
  6  8  1  0
  6  9  1  0
  8  4  1  0
  9  4  1  0
  1 10  1  0
  1 11  1  0
  1 12  1  0
  5 13  1  0
  5 14  1  0
  7 15  1  0
  8 16  1  0
  8 17  1  0
  9 18  1  0
  9 19  1  0
M  END
