
     RDKit          3D

 19 19  0  0  0  0  0  0  0  0999 V2000
    1.9551    1.0265    0.7270 C   0  0  0  0  0  0  0  0  0  0  0  0
    0.8813    0.8999   -0.2951 C   0  0  0  0  0  0  0  0  0  0  0  0
    0.9824    1.6406   -1.2612 O   0  0  0  0  0  0  0  0  0  0  0  0
   -0.2476   -0.0265   -0.2138 C   0  0  0  0  0  0  0  0  0  0  0  0
   -1.4228    0.3041   -1.1203 C   0  0  0  0  0  0  0  0  0  0  0  0
   -1.8770    1.5721   -0.7489 O   0  0  0  0  0  0  0  0  0  0  0  0
   -0.6541   -0.6451    1.0877 C   0  0  0  0  0  0  0  0  0  0  0  0
    0.0777   -1.4469    0.0789 C   0  0  0  0  0  0  0  0  0  0  0  0
   -0.5988   -2.4380   -0.6307 O   0  0  0  0  0  0  0  0  0  0  0  0
    1.6048    0.8257    1.7544 H   0  0  0  0  0  0  0  0  0  0  0  0
    2.7228    0.2709    0.4910 H   0  0  0  0  0  0  0  0  0  0  0  0
    2.3716    2.0658    0.7371 H   0  0  0  0  0  0  0  0  0  0  0  0
   -1.1619    0.2431   -2.1833 H   0  0  0  0  0  0  0  0  0  0  0  0
   -2.2423   -0.4300   -0.9407 H   0  0  0  0  0  0  0  0  0  0  0  0
   -1.6821    1.7715    0.2001 H   0  0  0  0  0  0  0  0  0  0  0  0
   -1.7402   -0.8852    1.2643 H   0  0  0  0  0  0  0  0  0  0  0  0
   -0.1704   -0.2399    1.9826 H   0  0  0  0  0  0  0  0  0  0  0  0
    1.1301   -1.6822    0.3259 H   0  0  0  0  0  0  0  0  0  0  0  0
    0.0713   -2.8266   -1.2551 H   0  0  0  0  0  0  0  0  0  0  0  0
  1  2  1  0
  2  3  2  0
  2  4  1  0
  4  5  1  0
  5  6  1  0
  4  7  1  0
  7  8  1  0
  8  9  1  0
  8  4  1  0
  1 10  1  0
  1 11  1  0
  1 12  1  0
  5 13  1  0
  5 14  1  0
  6 15  1  0
  7 16  1  0
  7 17  1  0
  8 18  1  0
  9 19  1  0
M  END
