
     RDKit          3D

 19 20  0  0  0  0  0  0  0  0999 V2000
    2.4901    0.0492    0.6916 C   0  0  0  0  0  0  0  0  0  0  0  0
    1.0839   -0.4298    0.8606 C   0  0  0  0  0  0  0  0  0  0  0  0
    0.7626   -1.1604    1.7958 O   0  0  0  0  0  0  0  0  0  0  0  0
    0.0872    0.0002   -0.1300 C   0  0  0  0  0  0  0  0  0  0  0  0
    0.2795   -0.3503   -1.5492 C   0  0  0  0  0  0  0  0  0  0  0  0
   -0.7916   -1.0501   -0.8093 C   0  0  0  0  0  0  0  0  0  0  0  0
   -2.0286   -0.2086   -0.5282 C   0  0  0  0  0  0  0  0  0  0  0  0
   -1.1578    0.6429    0.3775 C   0  0  0  0  0  0  0  0  0  0  0  0
   -1.1714    1.9953    0.1174 O   0  0  0  0  0  0  0  0  0  0  0  0
    3.0532   -0.0274    1.6631 H   0  0  0  0  0  0  0  0  0  0  0  0
    3.0187   -0.4887   -0.1228 H   0  0  0  0  0  0  0  0  0  0  0  0
    2.4181    1.1478    0.4963 H   0  0  0  0  0  0  0  0  0  0  0  0
    1.1995   -0.9095   -1.7884 H   0  0  0  0  0  0  0  0  0  0  0  0
   -0.0821    0.3820   -2.3209 H   0  0  0  0  0  0  0  0  0  0  0  0
   -0.6975   -2.0487   -0.3942 H   0  0  0  0  0  0  0  0  0  0  0  0
   -2.8295   -0.7623   -0.0383 H   0  0  0  0  0  0  0  0  0  0  0  0
   -2.4010    0.3543   -1.4319 H   0  0  0  0  0  0  0  0  0  0  0  0
   -1.4131    0.3813    1.4436 H   0  0  0  0  0  0  0  0  0  0  0  0
   -1.8202    2.4830    0.6962 H   0  0  0  0  0  0  0  0  0  0  0  0
  1  2  1  0
  2  3  2  0
  2  4  1  0
  4  5  1  0
  5  6  1  0
  6  7  1  0
  7  8  1  0
  8  9  1  0
  6  4  1  0
  8  4  1  0
  1 10  1  0
  1 11  1  0
  1 12  1  0
  5 13  1  0
  5 14  1  0
  6 15  1  0
  7 16  1  0
  7 17  1  0
  8 18  1  0
  9 19  1  0
M  END
