
     RDKit          3D

 19 18  0  0  0  0  0  0  0  0999 V2000
    3.0682   -0.4879    0.4802 C   0  0  0  0  0  0  0  0  0  0  0  0
    2.0316    0.1733   -0.3357 C   0  0  0  0  0  0  0  0  0  0  0  0
    2.4020    0.9619   -1.2338 O   0  0  0  0  0  0  0  0  0  0  0  0
    0.6254   -0.0878   -0.0984 C   0  0  0  0  0  0  0  0  0  0  0  0
    0.2780   -0.8852    0.8109 O   0  0  0  0  0  0  0  0  0  0  0  0
   -0.4313    0.5667   -0.9075 C   0  0  0  0  0  0  0  0  0  0  0  0
   -1.8016    0.1171   -0.4495 C   0  0  0  0  0  0  0  0  0  0  0  0
   -2.0376    0.4696    1.0063 C   0  0  0  0  0  0  0  0  0  0  0  0
   -1.8169   -1.2809   -0.5508 O   0  0  0  0  0  0  0  0  0  0  0  0
    3.2529   -1.5121    0.0782 H   0  0  0  0  0  0  0  0  0  0  0  0
    2.6613   -0.6037    1.5157 H   0  0  0  0  0  0  0  0  0  0  0  0
    4.0002    0.1110    0.4898 H   0  0  0  0  0  0  0  0  0  0  0  0
   -0.3263    1.6688   -0.8744 H   0  0  0  0  0  0  0  0  0  0  0  0
   -0.3588    0.2729   -1.9881 H   0  0  0  0  0  0  0  0  0  0  0  0
   -2.5770    0.5274   -1.1093 H   0  0  0  0  0  0  0  0  0  0  0  0
   -2.9878    1.0600    1.1162 H   0  0  0  0  0  0  0  0  0  0  0  0
   -2.1982   -0.4465    1.6301 H   0  0  0  0  0  0  0  0  0  0  0  0
   -1.1708    0.9929    1.4447 H   0  0  0  0  0  0  0  0  0  0  0  0
   -2.6134   -1.6175   -1.0247 H   0  0  0  0  0  0  0  0  0  0  0  0
  1  2  1  0
  2  3  2  0
  2  4  1  0
  4  5  2  0
  4  6  1  0
  6  7  1  0
  7  8  1  0
  7  9  1  0
  1 10  1  0
  1 11  1  0
  1 12  1  0
  6 13  1  0
  6 14  1  0
  7 15  1  0
  8 16  1  0
  8 17  1  0
  8 18  1  0
  9 19  1  0
M  END
