
     RDKit          3D

 17 16  0  0  0  0  0  0  0  0999 V2000
   -2.0181    1.1297    0.3421 C   0  0  0  0  0  0  0  0  0  0  0  0
   -1.9470   -0.3026   -0.0011 C   0  0  0  0  0  0  0  0  0  0  0  0
   -2.7225   -1.0755    0.5222 O   0  0  0  0  0  0  0  0  0  0  0  0
   -0.9503   -0.8097   -0.9684 C   0  0  0  0  0  0  0  0  0  0  0  0
   -1.0369   -2.1745   -1.1610 O   0  0  0  0  0  0  0  0  0  0  0  0
    0.4334   -0.5383   -0.5115 C   0  0  0  0  0  0  0  0  0  0  0  0
    1.5562   -0.2975   -0.1423 C   0  0  0  0  0  0  0  0  0  0  0  0
    2.9190    0.0102    0.2975 C   0  0  0  0  0  0  0  0  0  0  0  0
    2.8792    0.7204    1.5011 O   0  0  0  0  0  0  0  0  0  0  0  0
   -2.9742    1.4104    0.8233 H   0  0  0  0  0  0  0  0  0  0  0  0
   -1.9772    1.6998   -0.6128 H   0  0  0  0  0  0  0  0  0  0  0  0
   -1.2112    1.4432    1.0541 H   0  0  0  0  0  0  0  0  0  0  0  0
   -1.1173   -0.2693   -1.9404 H   0  0  0  0  0  0  0  0  0  0  0  0
   -1.4211   -2.3483   -2.0603 H   0  0  0  0  0  0  0  0  0  0  0  0
    3.4922   -0.9143    0.3672 H   0  0  0  0  0  0  0  0  0  0  0  0
    3.4479    0.6543   -0.4637 H   0  0  0  0  0  0  0  0  0  0  0  0
    2.6479    1.6618    1.2936 H   0  0  0  0  0  0  0  0  0  0  0  0
  1  2  1  0
  2  3  2  0
  2  4  1  0
  4  5  1  0
  4  6  1  0
  6  7  3  0
  7  8  1  0
  8  9  1  0
  1 10  1  0
  1 11  1  0
  1 12  1  0
  4 13  1  0
  5 14  1  0
  8 15  1  0
  8 16  1  0
  9 17  1  0
M  END
