
     RDKit          3D

 19 20  0  0  0  0  0  0  0  0999 V2000
    2.7329    0.8417    0.2611 C   0  0  0  0  0  0  0  0  0  0  0  0
    1.8025    0.1049   -0.6249 C   0  0  0  0  0  0  0  0  0  0  0  0
    2.2173   -0.4632   -1.6784 O   0  0  0  0  0  0  0  0  0  0  0  0
    0.3762   -0.0090   -0.3425 C   0  0  0  0  0  0  0  0  0  0  0  0
   -0.2771    0.5035    0.6991 C   0  0  0  0  0  0  0  0  0  0  0  0
   -1.6533    0.0559    0.4907 C   0  0  0  0  0  0  0  0  0  0  0  0
   -1.8198    0.3403   -1.0133 C   0  0  0  0  0  0  0  0  0  0  0  0
   -0.6864   -0.6903   -1.0958 C   0  0  0  0  0  0  0  0  0  0  0  0
   -1.4470   -1.3796    0.0485 C   0  0  0  0  0  0  0  0  0  0  0  0
    2.6020    1.9432    0.1801 H   0  0  0  0  0  0  0  0  0  0  0  0
    2.5952    0.4802    1.3062 H   0  0  0  0  0  0  0  0  0  0  0  0
    3.7741    0.5821   -0.0355 H   0  0  0  0  0  0  0  0  0  0  0  0
    0.1020    1.1049    1.5088 H   0  0  0  0  0  0  0  0  0  0  0  0
   -2.4407    0.3047    1.1349 H   0  0  0  0  0  0  0  0  0  0  0  0
   -1.5128    1.3705   -1.2070 H   0  0  0  0  0  0  0  0  0  0  0  0
   -2.7777   -0.0022   -1.4238 H   0  0  0  0  0  0  0  0  0  0  0  0
   -0.5210   -1.2062   -1.9852 H   0  0  0  0  0  0  0  0  0  0  0  0
   -0.7222   -1.9615    0.6374 H   0  0  0  0  0  0  0  0  0  0  0  0
   -2.3442   -1.9199   -0.2623 H   0  0  0  0  0  0  0  0  0  0  0  0
  1  2  1  0
  2  3  2  0
  2  4  1  0
  4  5  2  0
  5  6  1  0
  6  7  1  0
  7  8  1  0
  8  9  1  0
  8  4  1  0
  9  6  1  0
  1 10  1  0
  1 11  1  0
  1 12  1  0
  5 13  1  0
  6 14  1  0
  7 15  1  0
  7 16  1  0
  8 17  1  0
  9 18  1  0
  9 19  1  0
M  END
