
     RDKit          3D

 17 17  0  0  0  0  0  0  0  0999 V2000
    2.0857   -0.4081    0.3220 C   0  0  0  0  0  0  0  0  0  0  0  0
    1.0374    0.6251    0.0613 C   0  0  0  0  0  0  0  0  0  0  0  0
    1.3669    1.8030    0.0221 O   0  0  0  0  0  0  0  0  0  0  0  0
   -0.3696    0.2439   -0.1448 C   0  0  0  0  0  0  0  0  0  0  0  0
   -1.2444    1.2809   -0.8180 C   0  0  0  0  0  0  0  0  0  0  0  0
   -1.0889   -0.5291    0.9458 C   0  0  0  0  0  0  0  0  0  0  0  0
   -0.6377   -1.1878   -0.3471 C   0  0  0  0  0  0  0  0  0  0  0  0
    2.0347   -1.1846   -0.4957 H   0  0  0  0  0  0  0  0  0  0  0  0
    3.1000    0.0711    0.3215 H   0  0  0  0  0  0  0  0  0  0  0  0
    1.9719   -0.9167    1.2794 H   0  0  0  0  0  0  0  0  0  0  0  0
   -0.6781    1.6910   -1.6721 H   0  0  0  0  0  0  0  0  0  0  0  0
   -1.3710    2.1345   -0.0951 H   0  0  0  0  0  0  0  0  0  0  0  0
   -2.2381    0.9007   -1.0540 H   0  0  0  0  0  0  0  0  0  0  0  0
   -0.5676   -0.7544    1.8807 H   0  0  0  0  0  0  0  0  0  0  0  0
   -2.1787   -0.3579    1.0870 H   0  0  0  0  0  0  0  0  0  0  0  0
    0.1552   -1.9391   -0.1884 H   0  0  0  0  0  0  0  0  0  0  0  0
   -1.3778   -1.4725   -1.1047 H   0  0  0  0  0  0  0  0  0  0  0  0
  1  2  1  0
  2  3  2  0
  2  4  1  0
  4  5  1  0
  4  6  1  0
  6  7  1  0
  7  4  1  0
  1  8  1  0
  1  9  1  0
  1 10  1  0
  5 11  1  0
  5 12  1  0
  5 13  1  0
  6 14  1  0
  6 15  1  0
  7 16  1  0
  7 17  1  0
M  END
