
     RDKit          3D

 14 14  0  0  0  0  0  0  0  0999 V2000
   -2.0306    0.4245   -0.2404 C   0  0  0  0  0  0  0  0  0  0  0  0
   -0.9771   -0.6192   -0.2935 C   0  0  0  0  0  0  0  0  0  0  0  0
   -1.3572   -1.7740   -0.2027 O   0  0  0  0  0  0  0  0  0  0  0  0
    0.4655   -0.3529   -0.4455 C   0  0  0  0  0  0  0  0  0  0  0  0
    1.2803   -0.3908    0.8189 C   0  0  0  0  0  0  0  0  0  0  0  0
    1.9903    0.7067    0.1357 C   0  0  0  0  0  0  0  0  0  0  0  0
    3.1429    1.1750    0.1503 O   0  0  0  0  0  0  0  0  0  0  0  0
    0.8233    1.0097   -0.5437 O   0  0  0  0  0  0  0  0  0  0  0  0
   -2.8009    0.1042    0.4932 H   0  0  0  0  0  0  0  0  0  0  0  0
   -1.6343    1.4243    0.0161 H   0  0  0  0  0  0  0  0  0  0  0  0
   -2.4467    0.5013   -1.2787 H   0  0  0  0  0  0  0  0  0  0  0  0
    0.9039   -0.9197   -1.2718 H   0  0  0  0  0  0  0  0  0  0  0  0
    1.9112   -1.2739    0.9658 H   0  0  0  0  0  0  0  0  0  0  0  0
    0.7295   -0.0152    1.6962 H   0  0  0  0  0  0  0  0  0  0  0  0
  1  2  1  0
  2  3  2  0
  2  4  1  0
  4  5  1  0
  5  6  1  0
  6  7  2  0
  6  8  1  0
  8  4  1  0
  1  9  1  0
  1 10  1  0
  1 11  1  0
  4 12  1  0
  5 13  1  0
  5 14  1  0
M  END
