
     RDKit          3D

 22 21  0  0  0  0  0  0  0  0999 V2000
    3.2458    0.5982   -0.0027 C   0  0  0  0  0  0  0  0  0  0  0  0
    1.7663    0.4660   -0.3396 C   0  0  0  0  0  0  0  0  0  0  0  0
    1.2190    1.4389   -0.7347 O   0  0  0  0  0  0  0  0  0  0  0  0
    1.1152   -0.8286   -0.1589 C   0  0  0  0  0  0  0  0  0  0  0  0
   -0.3392   -0.9310   -0.3607 C   0  0  0  0  0  0  0  0  0  0  0  0
   -1.2758   -0.2124    0.5040 C   0  0  0  0  0  0  0  0  0  0  0  0
   -1.2593    1.2627    0.5848 C   0  0  0  0  0  0  0  0  0  0  0  0
   -2.6938   -0.5799    0.0008 C   0  0  0  0  0  0  0  0  0  0  0  0
    3.4465    1.4808    0.6109 H   0  0  0  0  0  0  0  0  0  0  0  0
    3.8078    0.6289   -0.9725 H   0  0  0  0  0  0  0  0  0  0  0  0
    3.5064   -0.3040    0.5800 H   0  0  0  0  0  0  0  0  0  0  0  0
    1.6711   -1.5882   -0.8109 H   0  0  0  0  0  0  0  0  0  0  0  0
    1.3291   -1.2440    0.8687 H   0  0  0  0  0  0  0  0  0  0  0  0
   -0.5894   -2.0418   -0.2557 H   0  0  0  0  0  0  0  0  0  0  0  0
   -0.6372   -0.7491   -1.4426 H   0  0  0  0  0  0  0  0  0  0  0  0
   -1.1753   -0.6043    1.5574 H   0  0  0  0  0  0  0  0  0  0  0  0
   -0.5353    1.7206    1.2643 H   0  0  0  0  0  0  0  0  0  0  0  0
   -1.3610    1.7909   -0.4059 H   0  0  0  0  0  0  0  0  0  0  0  0
   -2.2703    1.5551    1.0670 H   0  0  0  0  0  0  0  0  0  0  0  0
   -3.4238   -0.0582    0.6238 H   0  0  0  0  0  0  0  0  0  0  0  0
   -2.7453   -0.1300   -1.0292 H   0  0  0  0  0  0  0  0  0  0  0  0
   -2.8013   -1.6706   -0.0648 H   0  0  0  0  0  0  0  0  0  0  0  0
  1  2  1  0
  2  3  2  0
  2  4  1  0
  4  5  1  0
  5  6  1  0
  6  7  1  0
  6  8  1  0
  1  9  1  0
  1 10  1  0
  1 11  1  0
  4 12  1  0
  4 13  1  0
  5 14  1  0
  5 15  1  0
  6 16  1  0
  7 17  1  0
  7 18  1  0
  7 19  1  0
  8 20  1  0
  8 21  1  0
  8 22  1  0
M  END
