
     RDKit          3D

 20 19  0  0  0  0  0  0  0  0999 V2000
    2.0995   -0.7358    0.6130 C   0  0  0  0  0  0  0  0  0  0  0  0
    0.8059   -0.8547   -0.1051 C   0  0  0  0  0  0  0  0  0  0  0  0
    0.6149   -1.9213   -0.6917 O   0  0  0  0  0  0  0  0  0  0  0  0
   -0.2083    0.2317   -0.1276 C   0  0  0  0  0  0  0  0  0  0  0  0
    0.3635    1.4836   -0.7422 C   0  0  0  0  0  0  0  0  0  0  0  0
   -0.7029    0.5490    1.2874 C   0  0  0  0  0  0  0  0  0  0  0  0
   -1.4241   -0.2712   -0.8866 C   0  0  0  0  0  0  0  0  0  0  0  0
   -1.8765   -1.4024   -0.1698 O   0  0  0  0  0  0  0  0  0  0  0  0
    2.1008   -1.5306    1.3992 H   0  0  0  0  0  0  0  0  0  0  0  0
    2.9050   -0.9081   -0.1344 H   0  0  0  0  0  0  0  0  0  0  0  0
    2.2424    0.2592    1.0710 H   0  0  0  0  0  0  0  0  0  0  0  0
    1.0423    1.2136   -1.5864 H   0  0  0  0  0  0  0  0  0  0  0  0
    0.8737    2.1275    0.0016 H   0  0  0  0  0  0  0  0  0  0  0  0
   -0.4619    2.0786   -1.2190 H   0  0  0  0  0  0  0  0  0  0  0  0
   -1.0188   -0.4255    1.7277 H   0  0  0  0  0  0  0  0  0  0  0  0
    0.0892    1.0063    1.8958 H   0  0  0  0  0  0  0  0  0  0  0  0
   -1.6040    1.1611    1.1632 H   0  0  0  0  0  0  0  0  0  0  0  0
   -2.2318    0.4927   -0.8575 H   0  0  0  0  0  0  0  0  0  0  0  0
   -1.1674   -0.5703   -1.9280 H   0  0  0  0  0  0  0  0  0  0  0  0
   -2.4414   -1.9835   -0.7108 H   0  0  0  0  0  0  0  0  0  0  0  0
  1  2  1  0
  2  3  2  0
  2  4  1  0
  4  5  1  0
  4  6  1  0
  4  7  1  0
  7  8  1  0
  1  9  1  0
  1 10  1  0
  1 11  1  0
  5 12  1  0
  5 13  1  0
  5 14  1  0
  6 15  1  0
  6 16  1  0
  6 17  1  0
  7 18  1  0
  7 19  1  0
  8 20  1  0
M  END
