
     RDKit          3D

 21 21  0  0  0  0  0  0  0  0999 V2000
    3.0075   -0.5604    0.1643 C   0  0  0  0  0  0  0  0  0  0  0  0
    1.5235   -0.6989    0.1304 C   0  0  0  0  0  0  0  0  0  0  0  0
    1.0651   -1.7822    0.4438 O   0  0  0  0  0  0  0  0  0  0  0  0
    0.7447    0.4730   -0.2750 C   0  0  0  0  0  0  0  0  0  0  0  0
   -0.7259    0.2995   -0.2975 C   0  0  0  0  0  0  0  0  0  0  0  0
   -1.3714    1.6212   -0.7425 C   0  0  0  0  0  0  0  0  0  0  0  0
   -1.3352   -0.2524    0.9725 C   0  0  0  0  0  0  0  0  0  0  0  0
   -2.0149   -1.2062    0.0529 C   0  0  0  0  0  0  0  0  0  0  0  0
   -1.2342   -0.7580   -1.0080 O   0  0  0  0  0  0  0  0  0  0  0  0
    3.3949   -0.8819    1.1515 H   0  0  0  0  0  0  0  0  0  0  0  0
    3.3421    0.4871    0.0267 H   0  0  0  0  0  0  0  0  0  0  0  0
    3.4987   -1.1512   -0.6207 H   0  0  0  0  0  0  0  0  0  0  0  0
    0.9789    1.2946    0.4592 H   0  0  0  0  0  0  0  0  0  0  0  0
    1.0932    0.7938   -1.2655 H   0  0  0  0  0  0  0  0  0  0  0  0
   -0.8153    2.4555   -0.2381 H   0  0  0  0  0  0  0  0  0  0  0  0
   -1.1250    1.7010   -1.8317 H   0  0  0  0  0  0  0  0  0  0  0  0
   -2.4442    1.6448   -0.5342 H   0  0  0  0  0  0  0  0  0  0  0  0
   -0.6114   -0.7123    1.6770 H   0  0  0  0  0  0  0  0  0  0  0  0
   -2.0197    0.4777    1.4923 H   0  0  0  0  0  0  0  0  0  0  0  0
   -3.0995   -0.9659   -0.0207 H   0  0  0  0  0  0  0  0  0  0  0  0
   -1.8518   -2.2787    0.2634 H   0  0  0  0  0  0  0  0  0  0  0  0
  1  2  1  0
  2  3  2  0
  2  4  1  0
  4  5  1  0
  5  6  1  0
  5  7  1  0
  7  8  1  0
  8  9  1  0
  9  5  1  0
  1 10  1  0
  1 11  1  0
  1 12  1  0
  4 13  1  0
  4 14  1  0
  6 15  1  0
  6 16  1  0
  6 17  1  0
  7 18  1  0
  7 19  1  0
  8 20  1  0
  8 21  1  0
M  END
