
     RDKit          3D

 23 23  0  0  0  0  0  0  0  0999 V2000
    2.3511    0.8897   -0.2471 C   0  0  0  0  0  0  0  0  0  0  0  0
    1.6081   -0.3349    0.1078 C   0  0  0  0  0  0  0  0  0  0  0  0
    2.1696   -1.0496    0.9617 O   0  0  0  0  0  0  0  0  0  0  0  0
    0.3131   -0.7692   -0.4361 C   0  0  0  0  0  0  0  0  0  0  0  0
   -0.0411   -2.1039    0.1701 C   0  0  0  0  0  0  0  0  0  0  0  0
   -0.7381    0.2743   -0.1693 C   0  0  0  0  0  0  0  0  0  0  0  0
   -0.5404    1.6585   -0.7472 C   0  0  0  0  0  0  0  0  0  0  0  0
   -1.3010    0.2309    1.2291 C   0  0  0  0  0  0  0  0  0  0  0  0
   -2.1618   -0.1319    0.0577 C   0  0  0  0  0  0  0  0  0  0  0  0
    2.2732    1.6011    0.6007 H   0  0  0  0  0  0  0  0  0  0  0  0
    3.4499    0.6076   -0.2699 H   0  0  0  0  0  0  0  0  0  0  0  0
    2.0596    1.3507   -1.2070 H   0  0  0  0  0  0  0  0  0  0  0  0
    0.3419   -0.9290   -1.5365 H   0  0  0  0  0  0  0  0  0  0  0  0
    0.7358   -2.8193   -0.2410 H   0  0  0  0  0  0  0  0  0  0  0  0
   -1.0257   -2.4897   -0.0887 H   0  0  0  0  0  0  0  0  0  0  0  0
    0.1628   -2.0416    1.2673 H   0  0  0  0  0  0  0  0  0  0  0  0
    0.1323    2.2987   -0.1757 H   0  0  0  0  0  0  0  0  0  0  0  0
   -1.5556    2.1478   -0.8493 H   0  0  0  0  0  0  0  0  0  0  0  0
   -0.2302    1.5003   -1.8191 H   0  0  0  0  0  0  0  0  0  0  0  0
   -1.4382    1.2062    1.7354 H   0  0  0  0  0  0  0  0  0  0  0  0
   -1.0879   -0.5870    1.9187 H   0  0  0  0  0  0  0  0  0  0  0  0
   -2.5303   -1.1447   -0.1057 H   0  0  0  0  0  0  0  0  0  0  0  0
   -2.9471    0.6351   -0.1560 H   0  0  0  0  0  0  0  0  0  0  0  0
  1  2  1  0
  2  3  2  0
  2  4  1  0
  4  5  1  0
  4  6  1  0
  6  7  1  0
  6  8  1  0
  8  9  1  0
  9  6  1  0
  1 10  1  0
  1 11  1  0
  1 12  1  0
  4 13  1  0
  5 14  1  0
  5 15  1  0
  5 16  1  0
  7 17  1  0
  7 18  1  0
  7 19  1  0
  8 20  1  0
  8 21  1  0
  9 22  1  0
  9 23  1  0
M  END
