
     RDKit          3D

 21 22  0  0  0  0  0  0  0  0999 V2000
    2.3227   -0.7293   -0.8734 C   0  0  0  0  0  0  0  0  0  0  0  0
    1.5590    0.2344   -0.0305 C   0  0  0  0  0  0  0  0  0  0  0  0
    2.2056    1.2187    0.3293 O   0  0  0  0  0  0  0  0  0  0  0  0
    0.1897    0.1201    0.3823 C   0  0  0  0  0  0  0  0  0  0  0  0
   -0.3111    1.2368    1.2242 C   0  0  0  0  0  0  0  0  0  0  0  0
   -1.4396    1.4497    0.2544 C   0  0  0  0  0  0  0  0  0  0  0  0
   -0.9249    0.3079   -0.5613 C   0  0  0  0  0  0  0  0  0  0  0  0
   -1.5399   -0.9887   -0.1289 C   0  0  0  0  0  0  0  0  0  0  0  0
   -0.3457   -1.2282    0.7715 C   0  0  0  0  0  0  0  0  0  0  0  0
    1.6643   -1.4940   -1.3323 H   0  0  0  0  0  0  0  0  0  0  0  0
    3.1048   -1.2259   -0.2525 H   0  0  0  0  0  0  0  0  0  0  0  0
    2.8769   -0.1340   -1.6297 H   0  0  0  0  0  0  0  0  0  0  0  0
   -0.6290    0.8376    2.2257 H   0  0  0  0  0  0  0  0  0  0  0  0
    0.3118    2.1497    1.2790 H   0  0  0  0  0  0  0  0  0  0  0  0
   -2.4433    1.2590    0.7255 H   0  0  0  0  0  0  0  0  0  0  0  0
   -1.4669    2.4154   -0.2544 H   0  0  0  0  0  0  0  0  0  0  0  0
   -0.7391    0.4612   -1.6109 H   0  0  0  0  0  0  0  0  0  0  0  0
   -2.5082   -0.8390    0.4088 H   0  0  0  0  0  0  0  0  0  0  0  0
   -1.6127   -1.7788   -0.8866 H   0  0  0  0  0  0  0  0  0  0  0  0
    0.3148   -2.0549    0.4585 H   0  0  0  0  0  0  0  0  0  0  0  0
   -0.5891   -1.2179    1.8711 H   0  0  0  0  0  0  0  0  0  0  0  0
  1  2  1  0
  2  3  2  0
  2  4  1  0
  4  5  1  0
  5  6  1  0
  6  7  1  0
  7  8  1  0
  8  9  1  0
  7  4  1  0
  9  4  1  0
  1 10  1  0
  1 11  1  0
  1 12  1  0
  5 13  1  0
  5 14  1  0
  6 15  1  0
  6 16  1  0
  7 17  1  0
  8 18  1  0
  8 19  1  0
  9 20  1  0
  9 21  1  0
M  END
