
     RDKit          3D

 21 21  0  0  0  0  0  0  0  0999 V2000
    3.1435    0.9709   -0.0383 C   0  0  0  0  0  0  0  0  0  0  0  0
    2.1253   -0.0860    0.1865 C   0  0  0  0  0  0  0  0  0  0  0  0
    2.5005   -1.2221    0.3876 O   0  0  0  0  0  0  0  0  0  0  0  0
    0.6924    0.3033    0.1537 C   0  0  0  0  0  0  0  0  0  0  0  0
   -0.1520   -0.4740    1.1665 C   0  0  0  0  0  0  0  0  0  0  0  0
   -0.2834   -0.7134   -0.2957 C   0  0  0  0  0  0  0  0  0  0  0  0
   -1.5765   -0.3425   -0.9449 C   0  0  0  0  0  0  0  0  0  0  0  0
   -2.4728    0.5037   -0.0965 C   0  0  0  0  0  0  0  0  0  0  0  0
   -2.2745   -1.5413   -1.2132 O   0  0  0  0  0  0  0  0  0  0  0  0
    2.8674    1.6727   -0.8324 H   0  0  0  0  0  0  0  0  0  0  0  0
    3.2962    1.4754    0.9462 H   0  0  0  0  0  0  0  0  0  0  0  0
    4.1338    0.5479   -0.3111 H   0  0  0  0  0  0  0  0  0  0  0  0
    0.4416    1.3477   -0.0338 H   0  0  0  0  0  0  0  0  0  0  0  0
    0.3210   -1.2296    1.7949 H   0  0  0  0  0  0  0  0  0  0  0  0
   -0.9059    0.1418    1.7146 H   0  0  0  0  0  0  0  0  0  0  0  0
    0.1538   -1.6671   -0.6865 H   0  0  0  0  0  0  0  0  0  0  0  0
   -1.4122    0.2206   -1.9094 H   0  0  0  0  0  0  0  0  0  0  0  0
   -3.4350    0.6200   -0.6453 H   0  0  0  0  0  0  0  0  0  0  0  0
   -2.7294   -0.0717    0.8257 H   0  0  0  0  0  0  0  0  0  0  0  0
   -1.9912    1.4772    0.1301 H   0  0  0  0  0  0  0  0  0  0  0  0
   -2.4426   -1.9336   -0.2985 H   0  0  0  0  0  0  0  0  0  0  0  0
  1  2  1  0
  2  3  2  0
  2  4  1  0
  4  5  1  0
  5  6  1  0
  6  7  1  0
  7  8  1  0
  7  9  1  0
  6  4  1  0
  1 10  1  0
  1 11  1  0
  1 12  1  0
  4 13  1  0
  5 14  1  0
  5 15  1  0
  6 16  1  0
  7 17  1  0
  8 18  1  0
  8 19  1  0
  8 20  1  0
  9 21  1  0
M  END
