
     RDKit          3D

 21 21  0  0  0  0  0  0  0  0999 V2000
    3.0887    0.3827   -0.0785 C   0  0  0  0  0  0  0  0  0  0  0  0
    1.7380   -0.2632   -0.0718 C   0  0  0  0  0  0  0  0  0  0  0  0
    1.7126   -1.4450   -0.3042 O   0  0  0  0  0  0  0  0  0  0  0  0
    0.6037    0.6095    0.2151 C   0  0  0  0  0  0  0  0  0  0  0  0
   -0.7356   -0.0080    0.2209 C   0  0  0  0  0  0  0  0  0  0  0  0
   -1.8541    1.0002    0.5362 C   0  0  0  0  0  0  0  0  0  0  0  0
   -1.0588   -1.4105    0.3157 C   0  0  0  0  0  0  0  0  0  0  0  0
   -1.0040   -0.8724   -1.0479 C   0  0  0  0  0  0  0  0  0  0  0  0
   -2.1466   -0.5510   -1.7668 O   0  0  0  0  0  0  0  0  0  0  0  0
    3.9008   -0.3407   -0.0573 H   0  0  0  0  0  0  0  0  0  0  0  0
    3.1370    1.0001   -1.0226 H   0  0  0  0  0  0  0  0  0  0  0  0
    3.1049    1.0717    0.8129 H   0  0  0  0  0  0  0  0  0  0  0  0
    0.6041    1.4216   -0.5710 H   0  0  0  0  0  0  0  0  0  0  0  0
    0.8264    1.1554    1.1651 H   0  0  0  0  0  0  0  0  0  0  0  0
   -2.7531    0.4628    0.9440 H   0  0  0  0  0  0  0  0  0  0  0  0
   -2.1759    1.5467   -0.3515 H   0  0  0  0  0  0  0  0  0  0  0  0
   -1.4790    1.6328    1.3475 H   0  0  0  0  0  0  0  0  0  0  0  0
   -0.3421   -2.2175    0.5648 H   0  0  0  0  0  0  0  0  0  0  0  0
   -2.0892   -1.6723    0.6831 H   0  0  0  0  0  0  0  0  0  0  0  0
   -0.1487   -1.1448   -1.6741 H   0  0  0  0  0  0  0  0  0  0  0  0
   -2.9291   -0.3581   -1.1939 H   0  0  0  0  0  0  0  0  0  0  0  0
  1  2  1  0
  2  3  2  0
  2  4  1  0
  4  5  1  0
  5  6  1  0
  5  7  1  0
  7  8  1  0
  8  9  1  0
  8  5  1  0
  1 10  1  0
  1 11  1  0
  1 12  1  0
  4 13  1  0
  4 14  1  0
  6 15  1  0
  6 16  1  0
  6 17  1  0
  7 18  1  0
  7 19  1  0
  8 20  1  0
  9 21  1  0
M  END
