
     RDKit          3D

 21 20  0  0  0  0  0  0  0  0999 V2000
    3.4388   -0.5442    1.2780 C   0  0  0  0  0  0  0  0  0  0  0  0
    2.2509   -1.3882    1.1302 C   0  0  0  0  0  0  0  0  0  0  0  0
    2.3049   -2.5793    1.5349 O   0  0  0  0  0  0  0  0  0  0  0  0
    1.0727   -0.8223    0.5291 C   0  0  0  0  0  0  0  0  0  0  0  0
    0.0860   -0.3253    0.0254 C   0  0  0  0  0  0  0  0  0  0  0  0
   -1.1258    0.2580   -0.5779 C   0  0  0  0  0  0  0  0  0  0  0  0
   -2.1599    0.3930    0.5158 C   0  0  0  0  0  0  0  0  0  0  0  0
   -0.7906    1.6346   -1.1567 C   0  0  0  0  0  0  0  0  0  0  0  0
   -1.6409   -0.5803   -1.7295 C   0  0  0  0  0  0  0  0  0  0  0  0
    3.1045    0.5118    1.3491 H   0  0  0  0  0  0  0  0  0  0  0  0
    4.0766   -0.7007    0.3694 H   0  0  0  0  0  0  0  0  0  0  0  0
    4.0714   -0.8279    2.1447 H   0  0  0  0  0  0  0  0  0  0  0  0
   -1.6799    0.5889    1.4901 H   0  0  0  0  0  0  0  0  0  0  0  0
   -2.7746   -0.5268    0.5349 H   0  0  0  0  0  0  0  0  0  0  0  0
   -2.8418    1.2393    0.2423 H   0  0  0  0  0  0  0  0  0  0  0  0
    0.1087    2.0062   -0.6296 H   0  0  0  0  0  0  0  0  0  0  0  0
   -0.6783    1.6067   -2.2472 H   0  0  0  0  0  0  0  0  0  0  0  0
   -1.6264    2.3046   -0.8654 H   0  0  0  0  0  0  0  0  0  0  0  0
   -0.7950   -0.6961   -2.4385 H   0  0  0  0  0  0  0  0  0  0  0  0
   -1.9959   -1.5718   -1.4080 H   0  0  0  0  0  0  0  0  0  0  0  0
   -2.4056    0.0201   -2.2487 H   0  0  0  0  0  0  0  0  0  0  0  0
  1  2  1  0
  2  3  2  0
  2  4  1  0
  4  5  3  0
  5  6  1  0
  6  7  1  0
  6  8  1  0
  6  9  1  0
  1 10  1  0
  1 11  1  0
  1 12  1  0
  7 13  1  0
  7 14  1  0
  7 15  1  0
  8 16  1  0
  8 17  1  0
  8 18  1  0
  9 19  1  0
  9 20  1  0
  9 21  1  0
M  END
