
     RDKit          3D

 17 16  0  0  0  0  0  0  0  0999 V2000
   -3.2426    0.2050   -0.1093 C   0  0  0  0  0  0  0  0  0  0  0  0
   -1.9281    0.5233   -0.7187 C   0  0  0  0  0  0  0  0  0  0  0  0
   -1.9127    1.3145   -1.6953 O   0  0  0  0  0  0  0  0  0  0  0  0
   -0.6815   -0.0407   -0.2306 C   0  0  0  0  0  0  0  0  0  0  0  0
   -0.7458   -0.8292    0.7507 O   0  0  0  0  0  0  0  0  0  0  0  0
    0.5532    0.2294   -0.7674 O   0  0  0  0  0  0  0  0  0  0  0  0
    1.7729   -0.3161   -0.2975 C   0  0  0  0  0  0  0  0  0  0  0  0
    2.0350    0.0499    1.1420 C   0  0  0  0  0  0  0  0  0  0  0  0
    3.2477   -0.5253    1.5185 O   0  0  0  0  0  0  0  0  0  0  0  0
   -3.7764   -0.5648   -0.7390 H   0  0  0  0  0  0  0  0  0  0  0  0
   -3.1100   -0.1404    0.9359 H   0  0  0  0  0  0  0  0  0  0  0  0
   -3.8641    1.1232   -0.1673 H   0  0  0  0  0  0  0  0  0  0  0  0
    1.8152   -1.4042   -0.4806 H   0  0  0  0  0  0  0  0  0  0  0  0
    2.5799    0.1633   -0.9046 H   0  0  0  0  0  0  0  0  0  0  0  0
    2.2019    1.1591    1.1719 H   0  0  0  0  0  0  0  0  0  0  0  0
    1.2415   -0.2462    1.8323 H   0  0  0  0  0  0  0  0  0  0  0  0
    3.8137   -0.7011    0.7042 H   0  0  0  0  0  0  0  0  0  0  0  0
  1  2  1  0
  2  3  2  0
  2  4  1  0
  4  5  2  0
  4  6  1  0
  6  7  1  0
  7  8  1  0
  8  9  1  0
  1 10  1  0
  1 11  1  0
  1 12  1  0
  7 13  1  0
  7 14  1  0
  8 15  1  0
  8 16  1  0
  9 17  1  0
M  END
