
     RDKit          3D

 17 16  0  0  0  0  0  0  0  0999 V2000
    3.1213    0.4792    0.4354 C   0  0  0  0  0  0  0  0  0  0  0  0
    1.7108    0.7954    0.0817 C   0  0  0  0  0  0  0  0  0  0  0  0
    1.3941    1.8924   -0.2722 O   0  0  0  0  0  0  0  0  0  0  0  0
    0.6996   -0.2681    0.1733 C   0  0  0  0  0  0  0  0  0  0  0  0
   -0.5952    0.1724   -0.1918 O   0  0  0  0  0  0  0  0  0  0  0  0
   -1.6357   -0.7330   -0.1481 C   0  0  0  0  0  0  0  0  0  0  0  0
   -1.3958   -1.9139    0.2138 O   0  0  0  0  0  0  0  0  0  0  0  0
   -3.0359   -0.4089   -0.5022 C   0  0  0  0  0  0  0  0  0  0  0  0
   -3.0783    0.9301   -0.8686 O   0  0  0  0  0  0  0  0  0  0  0  0
    3.7626    1.3880    0.4060 H   0  0  0  0  0  0  0  0  0  0  0  0
    3.1398    0.1330    1.4994 H   0  0  0  0  0  0  0  0  0  0  0  0
    3.5389   -0.3511   -0.1762 H   0  0  0  0  0  0  0  0  0  0  0  0
    0.6620   -0.5850    1.2546 H   0  0  0  0  0  0  0  0  0  0  0  0
    1.0292   -1.1475   -0.4056 H   0  0  0  0  0  0  0  0  0  0  0  0
   -3.6305   -0.5012    0.4372 H   0  0  0  0  0  0  0  0  0  0  0  0
   -3.4734   -1.0827   -1.2491 H   0  0  0  0  0  0  0  0  0  0  0  0
   -2.2137    1.2008   -1.2528 H   0  0  0  0  0  0  0  0  0  0  0  0
  1  2  1  0
  2  3  2  0
  2  4  1  0
  4  5  1  0
  5  6  1  0
  6  7  2  0
  6  8  1  0
  8  9  1  0
  1 10  1  0
  1 11  1  0
  1 12  1  0
  4 13  1  0
  4 14  1  0
  8 15  1  0
  8 16  1  0
  9 17  1  0
M  END
