
     RDKit          3D

 23 22  0  0  0  0  0  0  0  0999 V2000
    2.2599   -0.5035   -0.9819 C   0  0  0  0  0  0  0  0  0  0  0  0
    1.6811    0.0346    0.2746 C   0  0  0  0  0  0  0  0  0  0  0  0
    2.3304   -0.0823    1.2952 O   0  0  0  0  0  0  0  0  0  0  0  0
    0.3604    0.6929    0.2983 C   0  0  0  0  0  0  0  0  0  0  0  0
   -0.0057    1.1484    1.6668 C   0  0  0  0  0  0  0  0  0  0  0  0
   -0.6903   -0.1607   -0.3638 C   0  0  0  0  0  0  0  0  0  0  0  0
   -0.8525   -1.4995    0.3141 C   0  0  0  0  0  0  0  0  0  0  0  0
   -2.0129    0.5063   -0.4585 C   0  0  0  0  0  0  0  0  0  0  0  0
   -0.2544   -0.4422   -1.6673 O   0  0  0  0  0  0  0  0  0  0  0  0
    1.8073   -1.4769   -1.2810 H   0  0  0  0  0  0  0  0  0  0  0  0
    3.3514   -0.6977   -0.8666 H   0  0  0  0  0  0  0  0  0  0  0  0
    2.1785    0.2531   -1.8139 H   0  0  0  0  0  0  0  0  0  0  0  0
    0.4552    1.6151   -0.3411 H   0  0  0  0  0  0  0  0  0  0  0  0
    0.7392    0.7370    2.3890 H   0  0  0  0  0  0  0  0  0  0  0  0
    0.0222    2.2503    1.8052 H   0  0  0  0  0  0  0  0  0  0  0  0
   -0.9933    0.8139    2.0179 H   0  0  0  0  0  0  0  0  0  0  0  0
   -0.9580   -1.3031    1.3973 H   0  0  0  0  0  0  0  0  0  0  0  0
   -0.0366   -2.2077    0.0726 H   0  0  0  0  0  0  0  0  0  0  0  0
   -1.8006   -1.9470   -0.0489 H   0  0  0  0  0  0  0  0  0  0  0  0
   -2.5653    0.4400    0.5061 H   0  0  0  0  0  0  0  0  0  0  0  0
   -1.8611    1.5563   -0.7850 H   0  0  0  0  0  0  0  0  0  0  0  0
   -2.6432   -0.0514   -1.1977 H   0  0  0  0  0  0  0  0  0  0  0  0
   -0.5119    0.3240   -2.2314 H   0  0  0  0  0  0  0  0  0  0  0  0
  1  2  1  0
  2  3  2  0
  2  4  1  0
  4  5  1  0
  4  6  1  0
  6  7  1  0
  6  8  1  0
  6  9  1  0
  1 10  1  0
  1 11  1  0
  1 12  1  0
  4 13  1  0
  5 14  1  0
  5 15  1  0
  5 16  1  0
  7 17  1  0
  7 18  1  0
  7 19  1  0
  8 20  1  0
  8 21  1  0
  8 22  1  0
  9 23  1  0
M  END
