
     RDKit          3D

 19 19  0  0  0  0  0  0  0  0999 V2000
   -1.6424    1.4049    1.1132 C   0  0  0  0  0  0  0  0  0  0  0  0
   -1.5562    0.2414    0.1859 C   0  0  0  0  0  0  0  0  0  0  0  0
   -2.5042   -0.5132    0.1205 O   0  0  0  0  0  0  0  0  0  0  0  0
   -0.3731   -0.0000   -0.6285 C   0  0  0  0  0  0  0  0  0  0  0  0
   -0.5027   -1.2343   -1.4940 C   0  0  0  0  0  0  0  0  0  0  0  0
    0.8788   -1.4282   -1.3013 O   0  0  0  0  0  0  0  0  0  0  0  0
    0.6899   -0.8860   -0.0306 C   0  0  0  0  0  0  0  0  0  0  0  0
    1.8768   -0.1314    0.5254 C   0  0  0  0  0  0  0  0  0  0  0  0
    2.2322    0.9438   -0.2794 O   0  0  0  0  0  0  0  0  0  0  0  0
   -2.2302    2.2231    0.7033 H   0  0  0  0  0  0  0  0  0  0  0  0
   -0.6328    1.7765    1.3801 H   0  0  0  0  0  0  0  0  0  0  0  0
   -2.1256    1.0213    2.0503 H   0  0  0  0  0  0  0  0  0  0  0  0
    0.0031    0.8483   -1.2341 H   0  0  0  0  0  0  0  0  0  0  0  0
   -1.0752   -2.0169   -0.9625 H   0  0  0  0  0  0  0  0  0  0  0  0
   -0.8042   -1.0269   -2.5287 H   0  0  0  0  0  0  0  0  0  0  0  0
    0.2433   -1.6200    0.6372 H   0  0  0  0  0  0  0  0  0  0  0  0
    1.5649    0.2449    1.5262 H   0  0  0  0  0  0  0  0  0  0  0  0
    2.7352   -0.8133    0.6833 H   0  0  0  0  0  0  0  0  0  0  0  0
    3.2224    0.9660   -0.4661 H   0  0  0  0  0  0  0  0  0  0  0  0
  1  2  1  0
  2  3  2  0
  2  4  1  0
  4  5  1  0
  5  6  1  0
  6  7  1  0
  7  8  1  0
  8  9  1  0
  7  4  1  0
  1 10  1  0
  1 11  1  0
  1 12  1  0
  4 13  1  0
  5 14  1  0
  5 15  1  0
  7 16  1  0
  8 17  1  0
  8 18  1  0
  9 19  1  0
M  END
