
     RDKit          3D

 23 23  0  0  0  0  0  0  0  0999 V2000
    3.2332   -0.0951   -0.6735 C   0  0  0  0  0  0  0  0  0  0  0  0
    1.7647   -0.3044   -0.5281 C   0  0  0  0  0  0  0  0  0  0  0  0
    1.2453   -0.9192   -1.4385 O   0  0  0  0  0  0  0  0  0  0  0  0
    1.1202    0.2352    0.6586 C   0  0  0  0  0  0  0  0  0  0  0  0
   -0.3349    0.0412    0.8079 C   0  0  0  0  0  0  0  0  0  0  0  0
   -0.9321   -1.2879    0.8588 C   0  0  0  0  0  0  0  0  0  0  0  0
   -1.7315   -0.9826   -0.3884 C   0  0  0  0  0  0  0  0  0  0  0  0
   -1.1388    0.4077   -0.3961 C   0  0  0  0  0  0  0  0  0  0  0  0
   -2.2015    1.4551   -0.1478 C   0  0  0  0  0  0  0  0  0  0  0  0
    3.6996   -0.7203   -1.4266 H   0  0  0  0  0  0  0  0  0  0  0  0
    3.6718   -0.2270    0.3521 H   0  0  0  0  0  0  0  0  0  0  0  0
    3.4214    0.9804   -0.9411 H   0  0  0  0  0  0  0  0  0  0  0  0
    1.3115    1.3464    0.6782 H   0  0  0  0  0  0  0  0  0  0  0  0
    1.6639   -0.1441    1.5687 H   0  0  0  0  0  0  0  0  0  0  0  0
   -0.6731    0.6671    1.6923 H   0  0  0  0  0  0  0  0  0  0  0  0
   -1.6409   -1.4532    1.7104 H   0  0  0  0  0  0  0  0  0  0  0  0
   -0.2999   -2.1828    0.7511 H   0  0  0  0  0  0  0  0  0  0  0  0
   -2.8324   -0.9810   -0.2497 H   0  0  0  0  0  0  0  0  0  0  0  0
   -1.4218   -1.5565   -1.2864 H   0  0  0  0  0  0  0  0  0  0  0  0
   -0.4952    0.6149   -1.2734 H   0  0  0  0  0  0  0  0  0  0  0  0
   -2.2316    2.1200   -1.0435 H   0  0  0  0  0  0  0  0  0  0  0  0
   -1.9905    2.0032    0.7776 H   0  0  0  0  0  0  0  0  0  0  0  0
   -3.2075    0.9831   -0.0628 H   0  0  0  0  0  0  0  0  0  0  0  0
  1  2  1  0
  2  3  2  0
  2  4  1  0
  4  5  1  0
  5  6  1  0
  6  7  1  0
  7  8  1  0
  8  9  1  0
  8  5  1  0
  1 10  1  0
  1 11  1  0
  1 12  1  0
  4 13  1  0
  4 14  1  0
  5 15  1  0
  6 16  1  0
  6 17  1  0
  7 18  1  0
  7 19  1  0
  8 20  1  0
  9 21  1  0
  9 22  1  0
  9 23  1  0
M  END
