
     RDKit          3D

 19 19  0  0  0  0  0  0  0  0999 V2000
   -2.2758   -0.7202   -0.1206 C   0  0  0  0  0  0  0  0  0  0  0  0
   -0.9885   -0.4982   -0.8469 C   0  0  0  0  0  0  0  0  0  0  0  0
   -0.8318   -0.9648   -1.9534 O   0  0  0  0  0  0  0  0  0  0  0  0
    0.1217    0.2782   -0.2437 C   0  0  0  0  0  0  0  0  0  0  0  0
   -0.0886    1.7262    0.0435 C   0  0  0  0  0  0  0  0  0  0  0  0
    0.7167   -0.4940    0.9329 C   0  0  0  0  0  0  0  0  0  0  0  0
    0.9865    0.1926    2.0901 O   0  0  0  0  0  0  0  0  0  0  0  0
    1.5212   -0.2547   -0.3299 C   0  0  0  0  0  0  0  0  0  0  0  0
    1.6573   -1.3458   -1.2126 O   0  0  0  0  0  0  0  0  0  0  0  0
   -2.9055    0.1247   -0.0332 H   0  0  0  0  0  0  0  0  0  0  0  0
   -1.9859   -1.1363    0.8840 H   0  0  0  0  0  0  0  0  0  0  0  0
   -2.7925   -1.6138   -0.6322 H   0  0  0  0  0  0  0  0  0  0  0  0
    0.5210    2.2406   -0.8087 H   0  0  0  0  0  0  0  0  0  0  0  0
   -1.1206    2.0620   -0.1930 H   0  0  0  0  0  0  0  0  0  0  0  0
    0.3480    2.1286    0.9704 H   0  0  0  0  0  0  0  0  0  0  0  0
    0.3954   -1.5176    1.0893 H   0  0  0  0  0  0  0  0  0  0  0  0
    1.7368    0.8264    2.0133 H   0  0  0  0  0  0  0  0  0  0  0  0
    2.4034    0.4026   -0.1619 H   0  0  0  0  0  0  0  0  0  0  0  0
    2.5811   -1.4365   -1.4874 H   0  0  0  0  0  0  0  0  0  0  0  0
  1  2  1  0
  2  3  2  0
  2  4  1  0
  4  5  1  0
  4  6  1  0
  6  7  1  0
  6  8  1  0
  8  9  1  0
  8  4  1  0
  1 10  1  0
  1 11  1  0
  1 12  1  0
  5 13  1  0
  5 14  1  0
  5 15  1  0
  6 16  1  0
  7 17  1  0
  8 18  1  0
  9 19  1  0
M  END
