
     RDKit          3D

 19 19  0  0  0  0  0  0  0  0999 V2000
   -2.7438   -0.6261    0.2295 C   0  0  0  0  0  0  0  0  0  0  0  0
   -1.5019   -0.4374   -0.5907 C   0  0  0  0  0  0  0  0  0  0  0  0
   -1.5051   -0.8655   -1.7425 O   0  0  0  0  0  0  0  0  0  0  0  0
   -0.2563    0.1908   -0.1149 C   0  0  0  0  0  0  0  0  0  0  0  0
   -0.4321    1.5195    0.6577 C   0  0  0  0  0  0  0  0  0  0  0  0
    0.3184   -0.7852    0.7935 O   0  0  0  0  0  0  0  0  0  0  0  0
    1.0080   -0.2883   -0.4729 C   0  0  0  0  0  0  0  0  0  0  0  0
    2.3851    0.1308   -0.0027 C   0  0  0  0  0  0  0  0  0  0  0  0
    2.8660   -1.0745    0.6119 O   0  0  0  0  0  0  0  0  0  0  0  0
   -2.8796   -1.7747    0.2700 H   0  0  0  0  0  0  0  0  0  0  0  0
   -3.6293   -0.1512   -0.1000 H   0  0  0  0  0  0  0  0  0  0  0  0
   -2.5054   -0.3598    1.3209 H   0  0  0  0  0  0  0  0  0  0  0  0
    0.4574    1.8308    1.1832 H   0  0  0  0  0  0  0  0  0  0  0  0
   -1.3522    1.5324    1.2127 H   0  0  0  0  0  0  0  0  0  0  0  0
   -0.5415    2.2797   -0.2071 H   0  0  0  0  0  0  0  0  0  0  0  0
    1.0637   -1.1856   -1.1820 H   0  0  0  0  0  0  0  0  0  0  0  0
    3.0109    0.3556   -0.8584 H   0  0  0  0  0  0  0  0  0  0  0  0
    2.4159    0.9162    0.7441 H   0  0  0  0  0  0  0  0  0  0  0  0
    3.8219   -1.2077    0.5085 H   0  0  0  0  0  0  0  0  0  0  0  0
  1  2  1  0
  2  3  2  0
  2  4  1  0
  4  5  1  0
  4  6  1  0
  6  7  1  0
  7  8  1  0
  8  9  1  0
  7  4  1  0
  1 10  1  0
  1 11  1  0
  1 12  1  0
  5 13  1  0
  5 14  1  0
  5 15  1  0
  7 16  1  0
  8 17  1  0
  8 18  1  0
  9 19  1  0
M  END
