
     RDKit          3D

 23 23  0  0  0  0  0  0  0  0999 V2000
    2.1301    1.1870    0.2990 C   0  0  0  0  0  0  0  0  0  0  0  0
    1.9923    0.1947   -0.8248 C   0  0  0  0  0  0  0  0  0  0  0  0
    2.8270    0.1818   -1.7214 O   0  0  0  0  0  0  0  0  0  0  0  0
    0.8602   -0.7459   -0.8340 C   0  0  0  0  0  0  0  0  0  0  0  0
    0.8996   -1.6026    0.4024 C   0  0  0  0  0  0  0  0  0  0  0  0
   -0.4241    0.0201   -0.9749 C   0  0  0  0  0  0  0  0  0  0  0  0
   -1.6601   -0.8402   -0.9968 C   0  0  0  0  0  0  0  0  0  0  0  0
   -1.4089    0.0929    0.1334 C   0  0  0  0  0  0  0  0  0  0  0  0
   -2.3231    1.2848    0.2212 C   0  0  0  0  0  0  0  0  0  0  0  0
    1.1757    1.2195    0.8635 H   0  0  0  0  0  0  0  0  0  0  0  0
    2.9817    0.8278    0.9278 H   0  0  0  0  0  0  0  0  0  0  0  0
    2.3438    2.2115   -0.1223 H   0  0  0  0  0  0  0  0  0  0  0  0
    0.9522   -1.4250   -1.7066 H   0  0  0  0  0  0  0  0  0  0  0  0
    1.0617   -1.0242    1.3296 H   0  0  0  0  0  0  0  0  0  0  0  0
   -0.0293   -2.1753    0.5374 H   0  0  0  0  0  0  0  0  0  0  0  0
    1.7538   -2.3010    0.3065 H   0  0  0  0  0  0  0  0  0  0  0  0
   -0.3481    0.8963   -1.6590 H   0  0  0  0  0  0  0  0  0  0  0  0
   -2.4141   -0.5654   -1.7542 H   0  0  0  0  0  0  0  0  0  0  0  0
   -1.5583   -1.9261   -0.8183 H   0  0  0  0  0  0  0  0  0  0  0  0
   -1.0475   -0.2773    1.1094 H   0  0  0  0  0  0  0  0  0  0  0  0
   -3.3087    1.0277   -0.2168 H   0  0  0  0  0  0  0  0  0  0  0  0
   -1.9246    2.1571   -0.3522 H   0  0  0  0  0  0  0  0  0  0  0  0
   -2.5315    1.5816    1.2786 H   0  0  0  0  0  0  0  0  0  0  0  0
  1  2  1  0
  2  3  2  0
  2  4  1  0
  4  5  1  0
  4  6  1  0
  6  7  1  0
  7  8  1  0
  8  9  1  0
  8  6  1  0
  1 10  1  0
  1 11  1  0
  1 12  1  0
  4 13  1  0
  5 14  1  0
  5 15  1  0
  5 16  1  0
  6 17  1  0
  7 18  1  0
  7 19  1  0
  8 20  1  0
  9 21  1  0
  9 22  1  0
  9 23  1  0
M  END
