
     RDKit          3D

 21 21  0  0  0  0  0  0  0  0999 V2000
    3.6983    0.8990    0.6347 C   0  0  0  0  0  0  0  0  0  0  0  0
    2.5888   -0.0442    0.3943 C   0  0  0  0  0  0  0  0  0  0  0  0
    2.8388   -1.2740    0.4652 O   0  0  0  0  0  0  0  0  0  0  0  0
    1.2890    0.3356    0.0955 O   0  0  0  0  0  0  0  0  0  0  0  0
    0.2971   -0.6782   -0.1174 C   0  0  0  0  0  0  0  0  0  0  0  0
   -1.0350   -0.0846   -0.4259 C   0  0  0  0  0  0  0  0  0  0  0  0
   -1.6231    0.8107    0.6262 C   0  0  0  0  0  0  0  0  0  0  0  0
   -2.9627    0.1344    0.3841 C   0  0  0  0  0  0  0  0  0  0  0  0
   -2.1753   -1.0559   -0.1644 C   0  0  0  0  0  0  0  0  0  0  0  0
    4.1734    1.0883   -0.3719 H   0  0  0  0  0  0  0  0  0  0  0  0
    3.3479    1.8657    1.0534 H   0  0  0  0  0  0  0  0  0  0  0  0
    4.4485    0.5063    1.3377 H   0  0  0  0  0  0  0  0  0  0  0  0
    0.6092   -1.3002   -0.9804 H   0  0  0  0  0  0  0  0  0  0  0  0
    0.2481   -1.3641    0.7550 H   0  0  0  0  0  0  0  0  0  0  0  0
   -1.0959    0.3777   -1.4270 H   0  0  0  0  0  0  0  0  0  0  0  0
   -1.2664    0.6495    1.6540 H   0  0  0  0  0  0  0  0  0  0  0  0
   -1.6938    1.8900    0.3579 H   0  0  0  0  0  0  0  0  0  0  0  0
   -3.6029    0.6194   -0.3659 H   0  0  0  0  0  0  0  0  0  0  0  0
   -3.5088   -0.0603    1.3128 H   0  0  0  0  0  0  0  0  0  0  0  0
   -1.9658   -1.8479    0.5589 H   0  0  0  0  0  0  0  0  0  0  0  0
   -2.6093   -1.4671   -1.1075 H   0  0  0  0  0  0  0  0  0  0  0  0
  1  2  1  0
  2  3  2  0
  2  4  1  0
  4  5  1  0
  5  6  1  0
  6  7  1  0
  7  8  1  0
  8  9  1  0
  9  6  1  0
  1 10  1  0
  1 11  1  0
  1 12  1  0
  5 13  1  0
  5 14  1  0
  6 15  1  0
  7 16  1  0
  7 17  1  0
  8 18  1  0
  8 19  1  0
  9 20  1  0
  9 21  1  0
M  END
