
     RDKit          3D

 19 19  0  0  0  0  0  0  0  0999 V2000
    3.1189    0.0515    0.7512 C   0  0  0  0  0  0  0  0  0  0  0  0
    1.6431   -0.1175    0.6838 C   0  0  0  0  0  0  0  0  0  0  0  0
    0.9960   -0.7512    1.4779 O   0  0  0  0  0  0  0  0  0  0  0  0
    0.9259    0.5370   -0.4330 C   0  0  0  0  0  0  0  0  0  0  0  0
   -0.5547    0.2991   -0.4001 C   0  0  0  0  0  0  0  0  0  0  0  0
   -0.8694   -1.0369   -0.4759 O   0  0  0  0  0  0  0  0  0  0  0  0
   -2.2421   -1.0333   -0.1921 C   0  0  0  0  0  0  0  0  0  0  0  0
   -2.4677    0.2509    0.5950 C   0  0  0  0  0  0  0  0  0  0  0  0
   -1.1367    0.6785    0.8028 O   0  0  0  0  0  0  0  0  0  0  0  0
    3.3013    1.1022    1.0661 H   0  0  0  0  0  0  0  0  0  0  0  0
    3.5751   -0.6807    1.4589 H   0  0  0  0  0  0  0  0  0  0  0  0
    3.5362   -0.0915   -0.2694 H   0  0  0  0  0  0  0  0  0  0  0  0
    1.1095    1.6220   -0.5035 H   0  0  0  0  0  0  0  0  0  0  0  0
    1.3079    0.0673   -1.3747 H   0  0  0  0  0  0  0  0  0  0  0  0
   -1.0122    0.9206   -1.1894 H   0  0  0  0  0  0  0  0  0  0  0  0
   -2.4893   -1.9042    0.4592 H   0  0  0  0  0  0  0  0  0  0  0  0
   -2.8131   -1.0133   -1.1319 H   0  0  0  0  0  0  0  0  0  0  0  0
   -2.9182    1.0036   -0.0781 H   0  0  0  0  0  0  0  0  0  0  0  0
   -3.0104    0.0960    1.5251 H   0  0  0  0  0  0  0  0  0  0  0  0
  1  2  1  0
  2  3  2  0
  2  4  1  0
  4  5  1  0
  5  6  1  0
  6  7  1  0
  7  8  1  0
  8  9  1  0
  9  5  1  0
  1 10  1  0
  1 11  1  0
  1 12  1  0
  4 13  1  0
  4 14  1  0
  5 15  1  0
  7 16  1  0
  7 17  1  0
  8 18  1  0
  8 19  1  0
M  END
