
     RDKit          3D

 19 20  0  0  0  0  0  0  0  0999 V2000
    2.5344    0.4555    0.1483 C   0  0  0  0  0  0  0  0  0  0  0  0
    1.3613   -0.3307    0.6228 C   0  0  0  0  0  0  0  0  0  0  0  0
    1.3715   -0.9146    1.6873 O   0  0  0  0  0  0  0  0  0  0  0  0
    0.1683   -0.3866   -0.2398 C   0  0  0  0  0  0  0  0  0  0  0  0
   -0.4999    0.8988   -0.5716 C   0  0  0  0  0  0  0  0  0  0  0  0
   -1.8470    0.3107   -0.2041 C   0  0  0  0  0  0  0  0  0  0  0  0
   -2.6070    1.0427    0.6731 O   0  0  0  0  0  0  0  0  0  0  0  0
   -1.1057   -0.8720    0.3819 C   0  0  0  0  0  0  0  0  0  0  0  0
   -0.3860   -1.7056   -0.6074 C   0  0  0  0  0  0  0  0  0  0  0  0
    2.7795    0.2596   -0.9141 H   0  0  0  0  0  0  0  0  0  0  0  0
    2.2501    1.5322    0.2001 H   0  0  0  0  0  0  0  0  0  0  0  0
    3.4017    0.2720    0.8241 H   0  0  0  0  0  0  0  0  0  0  0  0
   -0.3975    1.2658   -1.5988 H   0  0  0  0  0  0  0  0  0  0  0  0
   -0.2471    1.6871    0.1875 H   0  0  0  0  0  0  0  0  0  0  0  0
   -2.3864   -0.0215   -1.1244 H   0  0  0  0  0  0  0  0  0  0  0  0
   -2.6005    2.0020    0.3658 H   0  0  0  0  0  0  0  0  0  0  0  0
   -1.1055   -1.0609    1.4527 H   0  0  0  0  0  0  0  0  0  0  0  0
   -0.8936   -1.8557   -1.5870 H   0  0  0  0  0  0  0  0  0  0  0  0
    0.2094   -2.5788   -0.3019 H   0  0  0  0  0  0  0  0  0  0  0  0
  1  2  1  0
  2  3  2  0
  2  4  1  0
  4  5  1  0
  5  6  1  0
  6  7  1  0
  6  8  1  0
  8  9  1  0
  8  4  1  0
  9  4  1  0
  1 10  1  0
  1 11  1  0
  1 12  1  0
  5 13  1  0
  5 14  1  0
  6 15  1  0
  7 16  1  0
  8 17  1  0
  9 18  1  0
  9 19  1  0
M  END
