
     RDKit          3D

 20 19  0  0  0  0  0  0  0  0999 V2000
    2.0345    1.0671    0.4716 C   0  0  0  0  0  0  0  0  0  0  0  0
    1.8243   -0.2813   -0.1074 C   0  0  0  0  0  0  0  0  0  0  0  0
    2.7990   -0.8475   -0.5730 O   0  0  0  0  0  0  0  0  0  0  0  0
    0.5380   -0.9695   -0.1559 C   0  0  0  0  0  0  0  0  0  0  0  0
   -0.6145   -0.2170    0.4230 C   0  0  0  0  0  0  0  0  0  0  0  0
   -0.9034    1.0850   -0.2288 C   0  0  0  0  0  0  0  0  0  0  0  0
   -1.8527   -1.1017    0.2343 C   0  0  0  0  0  0  0  0  0  0  0  0
   -0.4383   -0.1085    1.8027 O   0  0  0  0  0  0  0  0  0  0  0  0
    3.1152    1.2108    0.7637 H   0  0  0  0  0  0  0  0  0  0  0  0
    1.8399    1.8854   -0.2604 H   0  0  0  0  0  0  0  0  0  0  0  0
    1.4747    1.2069    1.4262 H   0  0  0  0  0  0  0  0  0  0  0  0
    0.2793   -1.3471   -1.1796 H   0  0  0  0  0  0  0  0  0  0  0  0
    0.6428   -1.9130    0.4592 H   0  0  0  0  0  0  0  0  0  0  0  0
   -0.4924    1.9709    0.2881 H   0  0  0  0  0  0  0  0  0  0  0  0
   -0.5178    1.0731   -1.2716 H   0  0  0  0  0  0  0  0  0  0  0  0
   -1.9970    1.2428   -0.2819 H   0  0  0  0  0  0  0  0  0  0  0  0
   -1.8475   -1.3984   -0.8422 H   0  0  0  0  0  0  0  0  0  0  0  0
   -1.7661   -2.0376    0.8188 H   0  0  0  0  0  0  0  0  0  0  0  0
   -2.7664   -0.5290    0.4295 H   0  0  0  0  0  0  0  0  0  0  0  0
   -1.3517    0.0086    2.1922 H   0  0  0  0  0  0  0  0  0  0  0  0
  1  2  1  0
  2  3  2  0
  2  4  1  0
  4  5  1  0
  5  6  1  0
  5  7  1  0
  5  8  1  0
  1  9  1  0
  1 10  1  0
  1 11  1  0
  4 12  1  0
  4 13  1  0
  6 14  1  0
  6 15  1  0
  6 16  1  0
  7 17  1  0
  7 18  1  0
  7 19  1  0
  8 20  1  0
M  END
