
     RDKit          3D

 23 23  0  0  0  0  0  0  0  0999 V2000
   -2.9356   -0.0260    0.5999 C   0  0  0  0  0  0  0  0  0  0  0  0
   -2.3308    0.3798   -0.7025 C   0  0  0  0  0  0  0  0  0  0  0  0
   -2.8492    1.3020   -1.3012 O   0  0  0  0  0  0  0  0  0  0  0  0
   -1.1401   -0.3736   -1.1693 C   0  0  0  0  0  0  0  0  0  0  0  0
    0.0978    0.4045   -0.8179 C   0  0  0  0  0  0  0  0  0  0  0  0
    0.3255    0.6795    0.6263 C   0  0  0  0  0  0  0  0  0  0  0  0
    1.5897   -0.1423    0.6689 C   0  0  0  0  0  0  0  0  0  0  0  0
    2.8651    0.6123    0.8360 C   0  0  0  0  0  0  0  0  0  0  0  0
    1.3006   -0.5240   -0.7857 C   0  0  0  0  0  0  0  0  0  0  0  0
   -2.7687    0.8018    1.3385 H   0  0  0  0  0  0  0  0  0  0  0  0
   -2.4766   -0.9567    1.0025 H   0  0  0  0  0  0  0  0  0  0  0  0
   -4.0126   -0.2368    0.4355 H   0  0  0  0  0  0  0  0  0  0  0  0
   -1.2050   -0.3915   -2.2937 H   0  0  0  0  0  0  0  0  0  0  0  0
   -1.1808   -1.3970   -0.7942 H   0  0  0  0  0  0  0  0  0  0  0  0
    0.2146    1.2826   -1.4536 H   0  0  0  0  0  0  0  0  0  0  0  0
   -0.4242    0.3395    1.3500 H   0  0  0  0  0  0  0  0  0  0  0  0
    0.5820    1.7590    0.8439 H   0  0  0  0  0  0  0  0  0  0  0  0
    1.5146   -0.9967    1.3607 H   0  0  0  0  0  0  0  0  0  0  0  0
    3.4605    0.5276   -0.1080 H   0  0  0  0  0  0  0  0  0  0  0  0
    2.7425    1.6686    1.1365 H   0  0  0  0  0  0  0  0  0  0  0  0
    3.4992    0.1451    1.6320 H   0  0  0  0  0  0  0  0  0  0  0  0
    1.0524   -1.5949   -0.9013 H   0  0  0  0  0  0  0  0  0  0  0  0
    2.0793   -0.2174   -1.5034 H   0  0  0  0  0  0  0  0  0  0  0  0
  1  2  1  0
  2  3  2  0
  2  4  1  0
  4  5  1  0
  5  6  1  0
  6  7  1  0
  7  8  1  0
  7  9  1  0
  9  5  1  0
  1 10  1  0
  1 11  1  0
  1 12  1  0
  4 13  1  0
  4 14  1  0
  5 15  1  0
  6 16  1  0
  6 17  1  0
  7 18  1  0
  8 19  1  0
  8 20  1  0
  8 21  1  0
  9 22  1  0
  9 23  1  0
M  END
