
     RDKit          3D

 17 18  0  0  0  0  0  0  0  0999 V2000
    2.2769    0.2716    0.5988 C   0  0  0  0  0  0  0  0  0  0  0  0
    0.9399    0.6287    0.1061 C   0  0  0  0  0  0  0  0  0  0  0  0
    0.6506    1.7909   -0.1706 O   0  0  0  0  0  0  0  0  0  0  0  0
   -0.1371   -0.3976   -0.0846 C   0  0  0  0  0  0  0  0  0  0  0  0
    0.2525   -1.6795    0.2436 O   0  0  0  0  0  0  0  0  0  0  0  0
   -1.4264    0.0342    0.6241 C   0  0  0  0  0  0  0  0  0  0  0  0
   -2.0295    0.4721   -0.6742 C   0  0  0  0  0  0  0  0  0  0  0  0
   -1.2819    1.0439   -1.6660 O   0  0  0  0  0  0  0  0  0  0  0  0
   -0.8699   -0.2444   -1.3817 C   0  0  0  0  0  0  0  0  0  0  0  0
    2.9412    1.1570    0.4987 H   0  0  0  0  0  0  0  0  0  0  0  0
    2.7046   -0.5393   -0.0106 H   0  0  0  0  0  0  0  0  0  0  0  0
    2.2931    0.0205    1.6939 H   0  0  0  0  0  0  0  0  0  0  0  0
    1.1047   -1.6556    0.7202 H   0  0  0  0  0  0  0  0  0  0  0  0
   -1.2398    0.8508    1.3730 H   0  0  0  0  0  0  0  0  0  0  0  0
   -1.9330   -0.8570    1.0465 H   0  0  0  0  0  0  0  0  0  0  0  0
   -3.0567    0.2041   -0.9429 H   0  0  0  0  0  0  0  0  0  0  0  0
   -1.1893   -1.1003   -1.9742 H   0  0  0  0  0  0  0  0  0  0  0  0
  1  2  1  0
  2  3  2  0
  2  4  1  0
  4  5  1  0
  4  6  1  0
  6  7  1  0
  7  8  1  0
  8  9  1  0
  9  4  1  0
  9  7  1  0
  1 10  1  0
  1 11  1  0
  1 12  1  0
  5 13  1  0
  6 14  1  0
  6 15  1  0
  7 16  1  0
  9 17  1  0
M  END
