
     RDKit          3D

 19 20  0  0  0  0  0  0  0  0999 V2000
   -2.1009    0.5203   -0.5942 C   0  0  0  0  0  0  0  0  0  0  0  0
   -0.7236    0.0779   -1.0657 C   0  0  0  0  0  0  0  0  0  0  0  0
   -0.4446    0.0903   -2.2087 O   0  0  0  0  0  0  0  0  0  0  0  0
    0.2191   -0.3811   -0.0005 C   0  0  0  0  0  0  0  0  0  0  0  0
    0.5303    0.6814    1.0515 C   0  0  0  0  0  0  0  0  0  0  0  0
    1.4217    1.7520    0.3995 C   0  0  0  0  0  0  0  0  0  0  0  0
    1.8022    0.9147    1.4492 O   0  0  0  0  0  0  0  0  0  0  0  0
   -0.0331   -1.7663    0.5018 C   0  0  0  0  0  0  0  0  0  0  0  0
    1.1988   -1.4453   -0.2666 C   0  0  0  0  0  0  0  0  0  0  0  0
   -2.7055   -0.4613   -0.5789 H   0  0  0  0  0  0  0  0  0  0  0  0
   -2.1154    0.8832    0.4361 H   0  0  0  0  0  0  0  0  0  0  0  0
   -2.5936    1.2133   -1.3174 H   0  0  0  0  0  0  0  0  0  0  0  0
   -0.3624    1.1418    1.5328 H   0  0  0  0  0  0  0  0  0  0  0  0
    2.0247    1.4735   -0.5217 H   0  0  0  0  0  0  0  0  0  0  0  0
    1.2415    2.7929    0.5579 H   0  0  0  0  0  0  0  0  0  0  0  0
   -0.8952   -2.2820    0.0372 H   0  0  0  0  0  0  0  0  0  0  0  0
    0.0237   -1.9553    1.6023 H   0  0  0  0  0  0  0  0  0  0  0  0
    1.3354   -1.8541   -1.3038 H   0  0  0  0  0  0  0  0  0  0  0  0
    2.1769   -1.3959    0.2890 H   0  0  0  0  0  0  0  0  0  0  0  0
  1  2  1  0
  2  3  2  0
  2  4  1  0
  4  5  1  0
  5  6  1  0
  6  7  1  0
  4  8  1  0
  8  9  1  0
  9  4  1  0
  7  5  1  0
  1 10  1  0
  1 11  1  0
  1 12  1  0
  5 13  1  0
  6 14  1  0
  6 15  1  0
  8 16  1  0
  8 17  1  0
  9 18  1  0
  9 19  1  0
M  END
