
     RDKit          3D

 15 17  0  0  0  0  0  0  0  0999 V2000
    2.2635    0.3398    0.1434 C   0  0  0  0  0  0  0  0  0  0  0  0
    1.1216   -0.5007   -0.2900 C   0  0  0  0  0  0  0  0  0  0  0  0
    1.3595   -1.7076   -0.4464 O   0  0  0  0  0  0  0  0  0  0  0  0
   -0.2417    0.0514   -0.5298 C   0  0  0  0  0  0  0  0  0  0  0  0
   -0.2656    1.3888   -0.2970 O   0  0  0  0  0  0  0  0  0  0  0  0
   -1.0429    0.6845    0.5928 C   0  0  0  0  0  0  0  0  0  0  0  0
   -2.3153    0.1524   -0.0007 C   0  0  0  0  0  0  0  0  0  0  0  0
   -2.5616   -1.0311   -0.6513 O   0  0  0  0  0  0  0  0  0  0  0  0
   -1.3113   -0.9472   -0.3448 C   0  0  0  0  0  0  0  0  0  0  0  0
    2.1414    1.3964   -0.2275 H   0  0  0  0  0  0  0  0  0  0  0  0
    2.2229    0.3800    1.2613 H   0  0  0  0  0  0  0  0  0  0  0  0
    3.2372   -0.0491   -0.1842 H   0  0  0  0  0  0  0  0  0  0  0  0
   -0.7673    0.5208    1.6270 H   0  0  0  0  0  0  0  0  0  0  0  0
   -2.7269    0.8843   -0.7263 H   0  0  0  0  0  0  0  0  0  0  0  0
   -1.1137   -1.5626    0.6024 H   0  0  0  0  0  0  0  0  0  0  0  0
  1  2  1  0
  2  3  2  0
  2  4  1  0
  4  5  1  0
  5  6  1  0
  6  7  1  0
  7  8  1  0
  8  9  1  0
  6  4  1  0
  9  7  1  0
  9  4  1  0
  1 10  1  0
  1 11  1  0
  1 12  1  0
  6 13  1  0
  7 14  1  0
  9 15  1  0
M  END
