
     RDKit          3D

 19 18  0  0  0  0  0  0  0  0999 V2000
    2.1786   -0.2340   -0.5043 C   0  0  0  0  0  0  0  0  0  0  0  0
    0.9763    0.5858   -0.2231 C   0  0  0  0  0  0  0  0  0  0  0  0
    1.1585    1.7905   -0.3163 O   0  0  0  0  0  0  0  0  0  0  0  0
   -0.3378    0.1107    0.1364 C   0  0  0  0  0  0  0  0  0  0  0  0
   -1.2710    1.2836    0.3343 C   0  0  0  0  0  0  0  0  0  0  0  0
   -0.8993   -0.6609   -1.0673 C   0  0  0  0  0  0  0  0  0  0  0  0
   -0.4276   -0.8083    1.3080 C   0  0  0  0  0  0  0  0  0  0  0  0
    3.0375    0.2199    0.0002 H   0  0  0  0  0  0  0  0  0  0  0  0
    2.0932   -1.2734   -0.1478 H   0  0  0  0  0  0  0  0  0  0  0  0
    2.3599   -0.1860   -1.6001 H   0  0  0  0  0  0  0  0  0  0  0  0
   -2.1940    0.9636    0.8467 H   0  0  0  0  0  0  0  0  0  0  0  0
   -1.4562    1.7364   -0.6625 H   0  0  0  0  0  0  0  0  0  0  0  0
   -0.7156    2.0463    0.9374 H   0  0  0  0  0  0  0  0  0  0  0  0
   -0.3287   -1.5983   -1.1518 H   0  0  0  0  0  0  0  0  0  0  0  0
   -1.9744   -0.8049   -0.8560 H   0  0  0  0  0  0  0  0  0  0  0  0
   -0.7288   -0.0001   -1.9443 H   0  0  0  0  0  0  0  0  0  0  0  0
   -0.7286   -0.2439    2.2229 H   0  0  0  0  0  0  0  0  0  0  0  0
   -1.2277   -1.5660    1.1530 H   0  0  0  0  0  0  0  0  0  0  0  0
    0.4858   -1.3611    1.5344 H   0  0  0  0  0  0  0  0  0  0  0  0
  1  2  1  0
  2  3  2  0
  2  4  1  0
  4  5  1  0
  4  6  1  0
  4  7  1  0
  1  8  1  0
  1  9  1  0
  1 10  1  0
  5 11  1  0
  5 12  1  0
  5 13  1  0
  6 14  1  0
  6 15  1  0
  6 16  1  0
  7 17  1  0
  7 18  1  0
  7 19  1  0
M  END
