
     RDKit          3D

 19 18  0  0  0  0  0  0  0  0999 V2000
    0.0203    2.0356    0.0870 C   0  0  0  0  0  0  0  0  0  0  0  0
   -0.5113    0.9265   -0.7514 C   0  0  0  0  0  0  0  0  0  0  0  0
   -1.1065    1.3144   -1.7699 O   0  0  0  0  0  0  0  0  0  0  0  0
   -0.3793   -0.4997   -0.4601 C   0  0  0  0  0  0  0  0  0  0  0  0
   -0.9817   -0.8931    0.8715 C   0  0  0  0  0  0  0  0  0  0  0  0
   -2.3419   -0.5954    0.8974 O   0  0  0  0  0  0  0  0  0  0  0  0
    0.9990   -1.0512   -0.6073 C   0  0  0  0  0  0  0  0  0  0  0  0
    2.0242   -0.4505    0.2526 C   0  0  0  0  0  0  0  0  0  0  0  0
    2.5906    0.5659   -0.0686 O   0  0  0  0  0  0  0  0  0  0  0  0
    0.8137    2.6022   -0.4442 H   0  0  0  0  0  0  0  0  0  0  0  0
   -0.7990    2.7981    0.2424 H   0  0  0  0  0  0  0  0  0  0  0  0
    0.3759    1.7155    1.0690 H   0  0  0  0  0  0  0  0  0  0  0  0
   -1.0060   -1.0603   -1.2210 H   0  0  0  0  0  0  0  0  0  0  0  0
   -0.4992   -0.4102    1.7193 H   0  0  0  0  0  0  0  0  0  0  0  0
   -0.7956   -1.9983    0.9856 H   0  0  0  0  0  0  0  0  0  0  0  0
   -2.8473   -0.9532    0.1500 H   0  0  0  0  0  0  0  0  0  0  0  0
    1.2560   -0.9626   -1.7044 H   0  0  0  0  0  0  0  0  0  0  0  0
    0.9068   -2.1659   -0.4342 H   0  0  0  0  0  0  0  0  0  0  0  0
    2.2812   -0.9178    1.1864 H   0  0  0  0  0  0  0  0  0  0  0  0
  1  2  1  0
  2  3  2  0
  2  4  1  0
  4  5  1  0
  5  6  1  0
  4  7  1  0
  7  8  1  0
  8  9  2  0
  1 10  1  0
  1 11  1  0
  1 12  1  0
  4 13  1  0
  5 14  1  0
  5 15  1  0
  6 16  1  0
  7 17  1  0
  7 18  1  0
  8 19  1  0
M  END
