
     RDKit          3D

 16 17  0  0  0  0  0  0  0  0999 V2000
    2.1425    0.4157    0.1001 C   0  0  0  0  0  0  0  0  0  0  0  0
    1.0482    0.0100   -0.8420 C   0  0  0  0  0  0  0  0  0  0  0  0
    1.4284   -0.1583   -2.0128 O   0  0  0  0  0  0  0  0  0  0  0  0
   -0.2446   -0.1612   -0.4623 C   0  0  0  0  0  0  0  0  0  0  0  0
   -0.7727   -1.0805    0.5831 C   0  0  0  0  0  0  0  0  0  0  0  0
   -1.9346   -0.3534   -0.0007 C   0  0  0  0  0  0  0  0  0  0  0  0
   -1.1417    0.9063    0.1207 C   0  0  0  0  0  0  0  0  0  0  0  0
   -1.3100   -0.5275   -1.2411 O   0  0  0  0  0  0  0  0  0  0  0  0
    2.9753    0.9260   -0.4245 H   0  0  0  0  0  0  0  0  0  0  0  0
    1.7669    1.1093    0.8873 H   0  0  0  0  0  0  0  0  0  0  0  0
    2.5751   -0.4933    0.5996 H   0  0  0  0  0  0  0  0  0  0  0  0
   -0.5112   -0.8918    1.6235 H   0  0  0  0  0  0  0  0  0  0  0  0
   -0.7801   -2.1625    0.3421 H   0  0  0  0  0  0  0  0  0  0  0  0
   -2.9148   -0.4886    0.1885 H   0  0  0  0  0  0  0  0  0  0  0  0
   -0.9132    1.2416    1.1294 H   0  0  0  0  0  0  0  0  0  0  0  0
   -1.4136    1.7083   -0.5909 H   0  0  0  0  0  0  0  0  0  0  0  0
  1  2  1  0
  2  3  2  0
  2  4  1  0
  4  5  1  0
  5  6  1  0
  6  7  1  0
  6  8  1  0
  7  4  1  0
  8  4  1  0
  1  9  1  0
  1 10  1  0
  1 11  1  0
  5 12  1  0
  5 13  1  0
  6 14  1  0
  7 15  1  0
  7 16  1  0
M  END
