
     RDKit          3D

 19 19  0  0  0  0  0  0  0  0999 V2000
    2.6587   -0.2237    0.0647 C   0  0  0  0  0  0  0  0  0  0  0  0
    1.3571    0.4311    0.3792 C   0  0  0  0  0  0  0  0  0  0  0  0
    1.3479    1.2127    1.3119 O   0  0  0  0  0  0  0  0  0  0  0  0
    0.1327    0.1783   -0.3656 C   0  0  0  0  0  0  0  0  0  0  0  0
   -0.3105   -1.2719   -0.3406 C   0  0  0  0  0  0  0  0  0  0  0  0
   -1.7651   -1.0796   -0.6995 C   0  0  0  0  0  0  0  0  0  0  0  0
   -2.1705    0.1158   -0.2975 C   0  0  0  0  0  0  0  0  0  0  0  0
   -1.0358    0.8095    0.3543 C   0  0  0  0  0  0  0  0  0  0  0  0
   -1.0478    2.1803    0.1626 O   0  0  0  0  0  0  0  0  0  0  0  0
    2.9868   -0.8135    0.9550 H   0  0  0  0  0  0  0  0  0  0  0  0
    2.5999   -0.8660   -0.8334 H   0  0  0  0  0  0  0  0  0  0  0  0
    3.4501    0.5284   -0.1148 H   0  0  0  0  0  0  0  0  0  0  0  0
    0.1456    0.4957   -1.4197 H   0  0  0  0  0  0  0  0  0  0  0  0
   -0.1985   -1.7367    0.6545 H   0  0  0  0  0  0  0  0  0  0  0  0
    0.2229   -1.8756   -1.0714 H   0  0  0  0  0  0  0  0  0  0  0  0
   -2.4010   -1.7954   -1.2080 H   0  0  0  0  0  0  0  0  0  0  0  0
   -3.1572    0.5845   -0.3927 H   0  0  0  0  0  0  0  0  0  0  0  0
   -1.0312    0.5256    1.4225 H   0  0  0  0  0  0  0  0  0  0  0  0
   -1.7840    2.6005    0.6327 H   0  0  0  0  0  0  0  0  0  0  0  0
  1  2  1  0
  2  3  2  0
  2  4  1  0
  4  5  1  0
  5  6  1  0
  6  7  2  0
  7  8  1  0
  8  9  1  0
  8  4  1  0
  1 10  1  0
  1 11  1  0
  1 12  1  0
  4 13  1  0
  5 14  1  0
  5 15  1  0
  6 16  1  0
  7 17  1  0
  8 18  1  0
  9 19  1  0
M  END
