
     RDKit          3D

 21 21  0  0  0  0  0  0  0  0999 V2000
   -3.3961    1.1350    0.2289 C   0  0  0  0  0  0  0  0  0  0  0  0
   -2.2683    0.1623    0.0491 C   0  0  0  0  0  0  0  0  0  0  0  0
   -2.2911   -0.6863   -0.8828 O   0  0  0  0  0  0  0  0  0  0  0  0
   -1.1689    0.1589    0.8919 O   0  0  0  0  0  0  0  0  0  0  0  0
   -0.1120   -0.7795    0.6942 C   0  0  0  0  0  0  0  0  0  0  0  0
    0.4765   -0.5771   -0.6665 C   0  0  0  0  0  0  0  0  0  0  0  0
    1.0842    0.7265   -1.0446 C   0  0  0  0  0  0  0  0  0  0  0  0
    1.9548   -0.5344   -0.8620 C   0  0  0  0  0  0  0  0  0  0  0  0
    2.8811   -0.4791    0.3343 C   0  0  0  0  0  0  0  0  0  0  0  0
   -3.2794    2.0171   -0.4235 H   0  0  0  0  0  0  0  0  0  0  0  0
   -3.4679    1.4842    1.2625 H   0  0  0  0  0  0  0  0  0  0  0  0
   -4.3204    0.5885   -0.0504 H   0  0  0  0  0  0  0  0  0  0  0  0
   -0.6138   -1.7852    0.7138 H   0  0  0  0  0  0  0  0  0  0  0  0
    0.6077   -0.7472    1.5123 H   0  0  0  0  0  0  0  0  0  0  0  0
   -0.0716   -1.0945   -1.4885 H   0  0  0  0  0  0  0  0  0  0  0  0
    1.2155    1.5360   -0.3009 H   0  0  0  0  0  0  0  0  0  0  0  0
    0.9868    1.1197   -2.0813 H   0  0  0  0  0  0  0  0  0  0  0  0
    2.3983   -0.9543   -1.7935 H   0  0  0  0  0  0  0  0  0  0  0  0
    3.9187   -0.5250   -0.0236 H   0  0  0  0  0  0  0  0  0  0  0  0
    2.6871   -1.2650    1.0739 H   0  0  0  0  0  0  0  0  0  0  0  0
    2.7788    0.4994    0.8714 H   0  0  0  0  0  0  0  0  0  0  0  0
  1  2  1  0
  2  3  2  0
  2  4  1  0
  4  5  1  0
  5  6  1  0
  6  7  1  0
  7  8  1  0
  8  9  1  0
  8  6  1  0
  1 10  1  0
  1 11  1  0
  1 12  1  0
  5 13  1  0
  5 14  1  0
  6 15  1  0
  7 16  1  0
  7 17  1  0
  8 18  1  0
  9 19  1  0
  9 20  1  0
  9 21  1  0
M  END
