
     RDKit          3D

 17 17  0  0  0  0  0  0  0  0999 V2000
    2.5024    0.1600   -0.2029 C   0  0  0  0  0  0  0  0  0  0  0  0
    1.1647   -0.2073   -0.7406 C   0  0  0  0  0  0  0  0  0  0  0  0
    1.0760   -0.4759   -1.9236 O   0  0  0  0  0  0  0  0  0  0  0  0
    0.0166   -0.2300    0.1726 C   0  0  0  0  0  0  0  0  0  0  0  0
   -1.2747   -0.6201   -0.5140 C   0  0  0  0  0  0  0  0  0  0  0  0
   -2.2874   -0.1094    0.5187 C   0  0  0  0  0  0  0  0  0  0  0  0
   -1.7152    1.0913    0.9185 O   0  0  0  0  0  0  0  0  0  0  0  0
   -0.3419    1.1150    0.7020 C   0  0  0  0  0  0  0  0  0  0  0  0
    0.4001    2.1059    0.9273 O   0  0  0  0  0  0  0  0  0  0  0  0
    2.4482    0.4530    0.8604 H   0  0  0  0  0  0  0  0  0  0  0  0
    3.1576   -0.7415   -0.2751 H   0  0  0  0  0  0  0  0  0  0  0  0
    2.9918    0.9472   -0.7836 H   0  0  0  0  0  0  0  0  0  0  0  0
    0.1359   -0.9084    1.0368 H   0  0  0  0  0  0  0  0  0  0  0  0
   -1.3751   -1.6941   -0.6864 H   0  0  0  0  0  0  0  0  0  0  0  0
   -1.3396   -0.0114   -1.4328 H   0  0  0  0  0  0  0  0  0  0  0  0
   -3.2797   -0.0213    0.0593 H   0  0  0  0  0  0  0  0  0  0  0  0
   -2.2799   -0.8530    1.3633 H   0  0  0  0  0  0  0  0  0  0  0  0
  1  2  1  0
  2  3  2  0
  2  4  1  0
  4  5  1  0
  5  6  1  0
  6  7  1  0
  7  8  1  0
  8  9  2  0
  8  4  1  0
  1 10  1  0
  1 11  1  0
  1 12  1  0
  4 13  1  0
  5 14  1  0
  5 15  1  0
  6 16  1  0
  6 17  1  0
M  END
