
     RDKit          3D

 19 20  0  0  0  0  0  0  0  0999 V2000
    2.2536   -0.2304    1.1099 C   0  0  0  0  0  0  0  0  0  0  0  0
    1.5581    0.4667   -0.0080 C   0  0  0  0  0  0  0  0  0  0  0  0
    2.0265    1.4833   -0.5367 O   0  0  0  0  0  0  0  0  0  0  0  0
    0.2813   -0.0693   -0.4944 C   0  0  0  0  0  0  0  0  0  0  0  0
   -0.1768    0.3585   -1.8453 C   0  0  0  0  0  0  0  0  0  0  0  0
   -0.8862    0.8901   -0.6784 C   0  0  0  0  0  0  0  0  0  0  0  0
   -2.0325    0.0627   -0.1325 C   0  0  0  0  0  0  0  0  0  0  0  0
   -1.2613   -0.7255    0.9365 C   0  0  0  0  0  0  0  0  0  0  0  0
   -0.2171   -1.1996    0.1101 O   0  0  0  0  0  0  0  0  0  0  0  0
    1.8053    0.0284    2.1048 H   0  0  0  0  0  0  0  0  0  0  0  0
    3.3285    0.1025    1.1929 H   0  0  0  0  0  0  0  0  0  0  0  0
    2.2073   -1.3413    0.9548 H   0  0  0  0  0  0  0  0  0  0  0  0
   -0.7730   -0.3631   -2.4783 H   0  0  0  0  0  0  0  0  0  0  0  0
    0.5029    1.0162   -2.4033 H   0  0  0  0  0  0  0  0  0  0  0  0
   -0.6934    1.8880   -0.2535 H   0  0  0  0  0  0  0  0  0  0  0  0
   -2.3425   -0.6814   -0.9003 H   0  0  0  0  0  0  0  0  0  0  0  0
   -2.8388    0.6497    0.2876 H   0  0  0  0  0  0  0  0  0  0  0  0
   -0.8888    0.0094    1.6710 H   0  0  0  0  0  0  0  0  0  0  0  0
   -1.8530   -1.5335    1.3629 H   0  0  0  0  0  0  0  0  0  0  0  0
  1  2  1  0
  2  3  2  0
  2  4  1  0
  4  5  1  0
  5  6  1  0
  6  7  1  0
  7  8  1  0
  8  9  1  0
  6  4  1  0
  9  4  1  0
  1 10  1  0
  1 11  1  0
  1 12  1  0
  5 13  1  0
  5 14  1  0
  6 15  1  0
  7 16  1  0
  7 17  1  0
  8 18  1  0
  8 19  1  0
M  END
