
     RDKit          3D

 20 19  0  0  0  0  0  0  0  0999 V2000
    3.1100    0.2041   -0.0576 C   0  0  0  0  0  0  0  0  0  0  0  0
    1.6835   -0.1135   -0.3280 C   0  0  0  0  0  0  0  0  0  0  0  0
    1.4489   -0.8452   -1.3226 O   0  0  0  0  0  0  0  0  0  0  0  0
    0.6314    0.3248    0.4129 O   0  0  0  0  0  0  0  0  0  0  0  0
   -0.7126    0.0640    0.2096 C   0  0  0  0  0  0  0  0  0  0  0  0
   -1.1157    0.5877   -1.1495 C   0  0  0  0  0  0  0  0  0  0  0  0
   -1.5708    0.7483    1.2670 C   0  0  0  0  0  0  0  0  0  0  0  0
   -1.0731   -1.4030    0.2218 C   0  0  0  0  0  0  0  0  0  0  0  0
    3.5722    0.4285   -1.0446 H   0  0  0  0  0  0  0  0  0  0  0  0
    3.5692   -0.7135    0.3741 H   0  0  0  0  0  0  0  0  0  0  0  0
    3.1517    1.0729    0.6278 H   0  0  0  0  0  0  0  0  0  0  0  0
   -1.7438   -0.1537   -1.7108 H   0  0  0  0  0  0  0  0  0  0  0  0
   -0.2050    0.7330   -1.7503 H   0  0  0  0  0  0  0  0  0  0  0  0
   -1.6723    1.5470   -1.0696 H   0  0  0  0  0  0  0  0  0  0  0  0
   -1.7665    1.8014    1.0105 H   0  0  0  0  0  0  0  0  0  0  0  0
   -2.5487    0.2451    1.3990 H   0  0  0  0  0  0  0  0  0  0  0  0
   -1.0414    0.7009    2.2218 H   0  0  0  0  0  0  0  0  0  0  0  0
   -2.1979   -1.4283    0.3280 H   0  0  0  0  0  0  0  0  0  0  0  0
   -0.8554   -1.8809   -0.7377 H   0  0  0  0  0  0  0  0  0  0  0  0
   -0.6638   -1.9197    1.0982 H   0  0  0  0  0  0  0  0  0  0  0  0
  1  2  1  0
  2  3  2  0
  2  4  1  0
  4  5  1  0
  5  6  1  0
  5  7  1  0
  5  8  1  0
  1  9  1  0
  1 10  1  0
  1 11  1  0
  6 12  1  0
  6 13  1  0
  6 14  1  0
  7 15  1  0
  7 16  1  0
  7 17  1  0
  8 18  1  0
  8 19  1  0
  8 20  1  0
M  END
