
     RDKit          3D

 17 19  0  0  0  0  0  0  0  0999 V2000
    2.0041    0.3616    0.6493 C   0  0  0  0  0  0  0  0  0  0  0  0
    1.3419   -0.7585   -0.0968 C   0  0  0  0  0  0  0  0  0  0  0  0
    2.0961   -1.5338   -0.6637 O   0  0  0  0  0  0  0  0  0  0  0  0
   -0.0707   -0.9887   -0.1970 C   0  0  0  0  0  0  0  0  0  0  0  0
   -0.5417   -2.0312   -0.8979 O   0  0  0  0  0  0  0  0  0  0  0  0
   -0.9421   -0.8122   -1.3543 C   0  0  0  0  0  0  0  0  0  0  0  0
   -1.0349    0.5172   -0.7514 C   0  0  0  0  0  0  0  0  0  0  0  0
   -1.7325    1.0693    0.3333 C   0  0  0  0  0  0  0  0  0  0  0  0
   -1.0861   -0.2063    0.6116 C   0  0  0  0  0  0  0  0  0  0  0  0
    1.4085    0.6713    1.5358 H   0  0  0  0  0  0  0  0  0  0  0  0
    2.2647    1.2074   -0.0166 H   0  0  0  0  0  0  0  0  0  0  0  0
    2.9921    0.0083    1.0697 H   0  0  0  0  0  0  0  0  0  0  0  0
   -0.6081   -0.7639   -2.4399 H   0  0  0  0  0  0  0  0  0  0  0  0
   -0.0059    1.0129   -0.8680 H   0  0  0  0  0  0  0  0  0  0  0  0
   -1.3489    1.9166    0.9762 H   0  0  0  0  0  0  0  0  0  0  0  0
   -2.8452    1.2293    0.1969 H   0  0  0  0  0  0  0  0  0  0  0  0
   -1.8914   -0.8992    0.9158 H   0  0  0  0  0  0  0  0  0  0  0  0
  1  2  1  0
  2  3  2  0
  2  4  1  0
  4  5  1  0
  5  6  1  0
  6  7  1  0
  7  8  1  0
  8  9  1  0
  6  4  1  0
  9  7  1  0
  9  4  1  0
  1 10  1  0
  1 11  1  0
  1 12  1  0
  6 13  1  0
  7 14  1  0
  8 15  1  0
  8 16  1  0
  9 17  1  0
M  END
