
     RDKit          3D

 23 22  0  0  0  0  0  0  0  0999 V2000
    3.0430    0.3234   -1.0299 C   0  0  0  0  0  0  0  0  0  0  0  0
    1.6974    0.7385   -0.5387 C   0  0  0  0  0  0  0  0  0  0  0  0
    1.3361    1.8998   -0.5820 O   0  0  0  0  0  0  0  0  0  0  0  0
    0.7482   -0.2585    0.0231 C   0  0  0  0  0  0  0  0  0  0  0  0
    1.3600   -0.9688    1.2144 C   0  0  0  0  0  0  0  0  0  0  0  0
   -0.3819    0.3742    0.3883 O   0  0  0  0  0  0  0  0  0  0  0  0
   -1.5501    0.0153   -0.2181 C   0  0  0  0  0  0  0  0  0  0  0  0
   -2.3114    1.0937   -0.8847 C   0  0  0  0  0  0  0  0  0  0  0  0
   -2.4198   -0.6208    0.8531 C   0  0  0  0  0  0  0  0  0  0  0  0
    2.9273   -0.0386   -2.0711 H   0  0  0  0  0  0  0  0  0  0  0  0
    3.5307   -0.4033   -0.3626 H   0  0  0  0  0  0  0  0  0  0  0  0
    3.6705    1.2365   -1.0429 H   0  0  0  0  0  0  0  0  0  0  0  0
    0.6356   -1.0367   -0.7578 H   0  0  0  0  0  0  0  0  0  0  0  0
    0.5910   -1.0660    1.9907 H   0  0  0  0  0  0  0  0  0  0  0  0
    2.2089   -0.4082    1.6538 H   0  0  0  0  0  0  0  0  0  0  0  0
    1.7394   -1.9734    0.9703 H   0  0  0  0  0  0  0  0  0  0  0  0
   -1.3755   -0.8020   -0.9735 H   0  0  0  0  0  0  0  0  0  0  0  0
   -2.8085    0.7233   -1.8281 H   0  0  0  0  0  0  0  0  0  0  0  0
   -3.1483    1.4172   -0.2303 H   0  0  0  0  0  0  0  0  0  0  0  0
   -1.7296    2.0083   -1.1120 H   0  0  0  0  0  0  0  0  0  0  0  0
   -3.2746   -1.1575    0.3970 H   0  0  0  0  0  0  0  0  0  0  0  0
   -1.7573   -1.3065    1.4324 H   0  0  0  0  0  0  0  0  0  0  0  0
   -2.7310    0.2102    1.5207 H   0  0  0  0  0  0  0  0  0  0  0  0
  1  2  1  0
  2  3  2  0
  2  4  1  0
  4  5  1  0
  4  6  1  0
  6  7  1  0
  7  8  1  0
  7  9  1  0
  1 10  1  0
  1 11  1  0
  1 12  1  0
  4 13  1  0
  5 14  1  0
  5 15  1  0
  5 16  1  0
  7 17  1  0
  8 18  1  0
  8 19  1  0
  8 20  1  0
  9 21  1  0
  9 22  1  0
  9 23  1  0
M  END
