
     RDKit          3D

 19 19  0  0  0  0  0  0  0  0999 V2000
    2.2172    0.5950   -0.7699 C   0  0  0  0  0  0  0  0  0  0  0  0
    1.5691   -0.6630   -0.3013 C   0  0  0  0  0  0  0  0  0  0  0  0
    2.1679   -1.7145   -0.4850 O   0  0  0  0  0  0  0  0  0  0  0  0
    0.2468   -0.5620    0.3576 C   0  0  0  0  0  0  0  0  0  0  0  0
   -0.0703   -1.7296    1.0943 O   0  0  0  0  0  0  0  0  0  0  0  0
   -0.9416    0.0137   -0.3201 C   0  0  0  0  0  0  0  0  0  0  0  0
   -2.3186   -0.5087   -0.0125 C   0  0  0  0  0  0  0  0  0  0  0  0
   -0.2667    0.7109    0.8575 C   0  0  0  0  0  0  0  0  0  0  0  0
    0.2707    1.9387    0.5345 O   0  0  0  0  0  0  0  0  0  0  0  0
    1.6177    1.1413   -1.5224 H   0  0  0  0  0  0  0  0  0  0  0  0
    2.4523    1.2928    0.0930 H   0  0  0  0  0  0  0  0  0  0  0  0
    3.2032    0.4195   -1.2455 H   0  0  0  0  0  0  0  0  0  0  0  0
   -0.1250   -2.5283    0.5253 H   0  0  0  0  0  0  0  0  0  0  0  0
   -0.8672    0.4813   -1.3228 H   0  0  0  0  0  0  0  0  0  0  0  0
   -3.0826    0.3134    0.1004 H   0  0  0  0  0  0  0  0  0  0  0  0
   -2.6806   -1.2770   -0.7165 H   0  0  0  0  0  0  0  0  0  0  0  0
   -2.2517   -0.9731    1.0100 H   0  0  0  0  0  0  0  0  0  0  0  0
   -0.7889    0.6881    1.8382 H   0  0  0  0  0  0  0  0  0  0  0  0
   -0.3517    2.3615   -0.1316 H   0  0  0  0  0  0  0  0  0  0  0  0
  1  2  1  0
  2  3  2  0
  2  4  1  0
  4  5  1  0
  4  6  1  0
  6  7  1  0
  6  8  1  0
  8  9  1  0
  8  4  1  0
  1 10  1  0
  1 11  1  0
  1 12  1  0
  5 13  1  0
  6 14  1  0
  7 15  1  0
  7 16  1  0
  7 17  1  0
  8 18  1  0
  9 19  1  0
M  END
