
     RDKit          3D

 19 19  0  0  0  0  0  0  0  0999 V2000
    2.8981    0.0081    0.1103 C   0  0  0  0  0  0  0  0  0  0  0  0
    1.4659    0.3559   -0.0136 C   0  0  0  0  0  0  0  0  0  0  0  0
    1.1584    1.5027   -0.1779 O   0  0  0  0  0  0  0  0  0  0  0  0
    0.4443   -0.6955    0.0649 C   0  0  0  0  0  0  0  0  0  0  0  0
   -0.9696   -0.2398   -0.0876 C   0  0  0  0  0  0  0  0  0  0  0  0
   -1.9644   -1.3813    0.0106 C   0  0  0  0  0  0  0  0  0  0  0  0
   -3.1598   -1.1710   -0.0935 O   0  0  0  0  0  0  0  0  0  0  0  0
   -1.4120    0.8669   -0.9354 C   0  0  0  0  0  0  0  0  0  0  0  0
   -1.4518    1.0068    0.5775 C   0  0  0  0  0  0  0  0  0  0  0  0
    3.0195   -1.0421   -0.2041 H   0  0  0  0  0  0  0  0  0  0  0  0
    3.5440    0.6222   -0.5671 H   0  0  0  0  0  0  0  0  0  0  0  0
    3.2696    0.2011    1.1371 H   0  0  0  0  0  0  0  0  0  0  0  0
    0.6641   -1.4782   -0.7197 H   0  0  0  0  0  0  0  0  0  0  0  0
    0.5690   -1.2711    1.0278 H   0  0  0  0  0  0  0  0  0  0  0  0
   -1.6580   -2.4070    0.1737 H   0  0  0  0  0  0  0  0  0  0  0  0
   -0.7631    1.6089   -1.4247 H   0  0  0  0  0  0  0  0  0  0  0  0
   -2.3772    0.7614   -1.4864 H   0  0  0  0  0  0  0  0  0  0  0  0
   -0.7764    1.7037    1.0880 H   0  0  0  0  0  0  0  0  0  0  0  0
   -2.5008    1.0482    0.9693 H   0  0  0  0  0  0  0  0  0  0  0  0
  1  2  1  0
  2  3  2  0
  2  4  1  0
  4  5  1  0
  5  6  1  0
  6  7  2  0
  5  8  1  0
  8  9  1  0
  9  5  1  0
  1 10  1  0
  1 11  1  0
  1 12  1  0
  4 13  1  0
  4 14  1  0
  6 15  1  0
  8 16  1  0
  8 17  1  0
  9 18  1  0
  9 19  1  0
M  END
