
     RDKit          3D

 17 18  0  0  0  0  0  0  0  0999 V2000
    2.7845    0.2161    0.0387 C   0  0  0  0  0  0  0  0  0  0  0  0
    1.4062   -0.2701   -0.2238 C   0  0  0  0  0  0  0  0  0  0  0  0
    1.2912   -1.3166   -0.8355 O   0  0  0  0  0  0  0  0  0  0  0  0
    0.1603    0.4288    0.2065 C   0  0  0  0  0  0  0  0  0  0  0  0
   -0.9346   -0.3022    0.7646 C   0  0  0  0  0  0  0  0  0  0  0  0
   -2.3060   -0.1040    0.6115 O   0  0  0  0  0  0  0  0  0  0  0  0
   -2.0490   -0.7702   -0.6201 C   0  0  0  0  0  0  0  0  0  0  0  0
   -0.9616    0.3130   -0.6938 C   0  0  0  0  0  0  0  0  0  0  0  0
   -1.6567    1.5515   -0.7863 O   0  0  0  0  0  0  0  0  0  0  0  0
    3.0950   -0.1562    1.0318 H   0  0  0  0  0  0  0  0  0  0  0  0
    2.7820    1.3185    0.0932 H   0  0  0  0  0  0  0  0  0  0  0  0
    3.4811   -0.1840   -0.6995 H   0  0  0  0  0  0  0  0  0  0  0  0
    0.4312    1.3828    0.7606 H   0  0  0  0  0  0  0  0  0  0  0  0
   -0.7633   -1.4241    0.7847 H   0  0  0  0  0  0  0  0  0  0  0  0
   -2.8623   -0.6106   -1.3268 H   0  0  0  0  0  0  0  0  0  0  0  0
   -1.6951   -1.7924   -0.5433 H   0  0  0  0  0  0  0  0  0  0  0  0
   -2.2028    1.7197    0.0022 H   0  0  0  0  0  0  0  0  0  0  0  0
  1  2  1  0
  2  3  2  0
  2  4  1  0
  4  5  1  0
  5  6  1  0
  6  7  1  0
  7  8  1  0
  8  9  1  0
  8  4  1  0
  8  5  1  0
  1 10  1  0
  1 11  1  0
  1 12  1  0
  4 13  1  0
  5 14  1  0
  7 15  1  0
  7 16  1  0
  9 17  1  0
M  END
