
     RDKit          3D

 21 22  0  0  0  0  0  0  0  0999 V2000
    2.2586    1.2614   -0.1857 C   0  0  0  0  0  0  0  0  0  0  0  0
    1.4606    0.2106   -0.8088 C   0  0  0  0  0  0  0  0  0  0  0  0
    1.6827   -0.1962   -1.9605 O   0  0  0  0  0  0  0  0  0  0  0  0
    0.3132   -0.5218   -0.1726 C   0  0  0  0  0  0  0  0  0  0  0  0
    0.7609   -1.9405    0.1997 C   0  0  0  0  0  0  0  0  0  0  0  0
   -0.5383    0.1004    0.8083 C   0  0  0  0  0  0  0  0  0  0  0  0
   -2.0631    0.0186    0.9134 C   0  0  0  0  0  0  0  0  0  0  0  0
   -1.9122    0.9261   -0.3276 C   0  0  0  0  0  0  0  0  0  0  0  0
   -0.9667   -0.2276   -0.6874 C   0  0  0  0  0  0  0  0  0  0  0  0
    2.6919    1.0350    0.7855 H   0  0  0  0  0  0  0  0  0  0  0  0
    1.6757    2.2178   -0.1267 H   0  0  0  0  0  0  0  0  0  0  0  0
    3.1008    1.4993   -0.8791 H   0  0  0  0  0  0  0  0  0  0  0  0
    1.5468   -1.8543    0.9533 H   0  0  0  0  0  0  0  0  0  0  0  0
   -0.1095   -2.4777    0.6077 H   0  0  0  0  0  0  0  0  0  0  0  0
    1.1302   -2.4614   -0.7323 H   0  0  0  0  0  0  0  0  0  0  0  0
   -0.2746    1.1759    0.9849 H   0  0  0  0  0  0  0  0  0  0  0  0
   -2.4996   -0.9565    0.6809 H   0  0  0  0  0  0  0  0  0  0  0  0
   -2.4506    0.5208    1.7982 H   0  0  0  0  0  0  0  0  0  0  0  0
   -1.4081    1.8651   -0.0831 H   0  0  0  0  0  0  0  0  0  0  0  0
   -2.7817    0.9517   -0.9842 H   0  0  0  0  0  0  0  0  0  0  0  0
   -1.6170   -1.1468   -0.7839 H   0  0  0  0  0  0  0  0  0  0  0  0
  1  2  1  0
  2  3  2  0
  2  4  1  0
  4  5  1  0
  4  6  1  0
  6  7  1  0
  7  8  1  0
  8  9  1  0
  9  4  1  0
  9  6  1  0
  1 10  1  0
  1 11  1  0
  1 12  1  0
  5 13  1  0
  5 14  1  0
  5 15  1  0
  6 16  1  0
  7 17  1  0
  7 18  1  0
  8 19  1  0
  8 20  1  0
  9 21  1  0
M  END
