
     RDKit          3D

 17 18  0  0  0  0  0  0  0  0999 V2000
    2.6715    0.2820    0.2431 C   0  0  0  0  0  0  0  0  0  0  0  0
    1.4418   -0.5401    0.4816 C   0  0  0  0  0  0  0  0  0  0  0  0
    1.4870   -1.7326    0.6141 O   0  0  0  0  0  0  0  0  0  0  0  0
    0.1540    0.1846    0.5481 C   0  0  0  0  0  0  0  0  0  0  0  0
   -1.0530   -0.6862    0.7896 C   0  0  0  0  0  0  0  0  0  0  0  0
   -0.8640   -1.1569   -0.5004 O   0  0  0  0  0  0  0  0  0  0  0  0
   -0.6707    0.1963   -0.6871 C   0  0  0  0  0  0  0  0  0  0  0  0
   -1.8614    0.4154    0.2142 C   0  0  0  0  0  0  0  0  0  0  0  0
   -3.0811    0.1126   -0.3246 O   0  0  0  0  0  0  0  0  0  0  0  0
    2.7893    0.9146    1.1599 H   0  0  0  0  0  0  0  0  0  0  0  0
    2.4127    0.9823   -0.5781 H   0  0  0  0  0  0  0  0  0  0  0  0
    3.5565   -0.3235    0.0385 H   0  0  0  0  0  0  0  0  0  0  0  0
    0.1432    1.1459    1.0586 H   0  0  0  0  0  0  0  0  0  0  0  0
   -1.2299   -1.2344    1.6146 H   0  0  0  0  0  0  0  0  0  0  0  0
   -0.4925    0.6787   -1.5526 H   0  0  0  0  0  0  0  0  0  0  0  0
   -1.8115    1.3415    0.8368 H   0  0  0  0  0  0  0  0  0  0  0  0
   -3.5919   -0.5804    0.1280 H   0  0  0  0  0  0  0  0  0  0  0  0
  1  2  1  0
  2  3  2  0
  2  4  1  0
  4  5  1  0
  5  6  1  0
  6  7  1  0
  7  8  1  0
  8  9  1  0
  7  4  1  0
  8  5  1  0
  1 10  1  0
  1 11  1  0
  1 12  1  0
  4 13  1  0
  5 14  1  0
  7 15  1  0
  8 16  1  0
  9 17  1  0
M  END
