
     RDKit          3D

 19 19  0  0  0  0  0  0  0  0999 V2000
    2.5710   -0.1283   -0.3828 C   0  0  0  0  0  0  0  0  0  0  0  0
    1.5724   -0.8518    0.4271 C   0  0  0  0  0  0  0  0  0  0  0  0
    1.8422   -1.9382    0.8751 O   0  0  0  0  0  0  0  0  0  0  0  0
    0.2468   -0.2430    0.6860 C   0  0  0  0  0  0  0  0  0  0  0  0
   -0.8590   -1.2067    0.4051 C   0  0  0  0  0  0  0  0  0  0  0  0
   -1.7502   -0.7997   -0.5602 O   0  0  0  0  0  0  0  0  0  0  0  0
   -2.1314    0.5228   -0.4421 C   0  0  0  0  0  0  0  0  0  0  0  0
   -0.9737    1.4376   -0.3755 C   0  0  0  0  0  0  0  0  0  0  0  0
    0.1878    0.9569    0.0875 O   0  0  0  0  0  0  0  0  0  0  0  0
    2.2944   -0.1669   -1.4670 H   0  0  0  0  0  0  0  0  0  0  0  0
    3.6090   -0.5145   -0.2377 H   0  0  0  0  0  0  0  0  0  0  0  0
    2.6280    0.9617   -0.1372 H   0  0  0  0  0  0  0  0  0  0  0  0
    0.2287   -0.0599    1.8047 H   0  0  0  0  0  0  0  0  0  0  0  0
   -0.4089   -2.1575    0.0474 H   0  0  0  0  0  0  0  0  0  0  0  0
   -1.4458   -1.4751    1.3093 H   0  0  0  0  0  0  0  0  0  0  0  0
   -2.7479    0.7648   -1.3346 H   0  0  0  0  0  0  0  0  0  0  0  0
   -2.7951    0.6782    0.4378 H   0  0  0  0  0  0  0  0  0  0  0  0
   -1.2724    2.3289    0.2529 H   0  0  0  0  0  0  0  0  0  0  0  0
   -0.7958    1.8907   -1.3958 H   0  0  0  0  0  0  0  0  0  0  0  0
  1  2  1  0
  2  3  2  0
  2  4  1  0
  4  5  1  0
  5  6  1  0
  6  7  1  0
  7  8  1  0
  8  9  1  0
  9  4  1  0
  1 10  1  0
  1 11  1  0
  1 12  1  0
  4 13  1  0
  5 14  1  0
  5 15  1  0
  7 16  1  0
  7 17  1  0
  8 18  1  0
  8 19  1  0
M  END
