
     RDKit          3D

 19 20  0  0  0  0  0  0  0  0999 V2000
   -2.9607    0.2606    0.4804 C   0  0  0  0  0  0  0  0  0  0  0  0
   -1.8532   -0.3579   -0.3064 C   0  0  0  0  0  0  0  0  0  0  0  0
   -2.1437   -1.1369   -1.1766 O   0  0  0  0  0  0  0  0  0  0  0  0
   -0.4769    0.0363    0.0458 C   0  0  0  0  0  0  0  0  0  0  0  0
    0.5920   -0.0602   -1.0219 C   0  0  0  0  0  0  0  0  0  0  0  0
    1.5233   -0.5698    0.0859 C   0  0  0  0  0  0  0  0  0  0  0  0
    2.6669    0.3903    0.2726 C   0  0  0  0  0  0  0  0  0  0  0  0
    0.3530   -0.3301    1.0456 C   0  0  0  0  0  0  0  0  0  0  0  0
   -0.2311    0.9296    1.0497 O   0  0  0  0  0  0  0  0  0  0  0  0
   -2.7004    0.1479    1.5558 H   0  0  0  0  0  0  0  0  0  0  0  0
   -3.0323    1.3606    0.2982 H   0  0  0  0  0  0  0  0  0  0  0  0
   -3.9502   -0.1742    0.2287 H   0  0  0  0  0  0  0  0  0  0  0  0
    0.8423    0.9423   -1.3960 H   0  0  0  0  0  0  0  0  0  0  0  0
    0.3452   -0.8230   -1.7763 H   0  0  0  0  0  0  0  0  0  0  0  0
    1.7887   -1.6219    0.0209 H   0  0  0  0  0  0  0  0  0  0  0  0
    2.9868    0.4695    1.3374 H   0  0  0  0  0  0  0  0  0  0  0  0
    2.4356    1.4025   -0.1424 H   0  0  0  0  0  0  0  0  0  0  0  0
    3.5135    0.0075   -0.3364 H   0  0  0  0  0  0  0  0  0  0  0  0
    0.3011   -0.8729    1.9809 H   0  0  0  0  0  0  0  0  0  0  0  0
  1  2  1  0
  2  3  2  0
  2  4  1  0
  4  5  1  0
  5  6  1  0
  6  7  1  0
  6  8  1  0
  8  9  1  0
  8  4  1  0
  9  4  1  0
  1 10  1  0
  1 11  1  0
  1 12  1  0
  5 13  1  0
  5 14  1  0
  6 15  1  0
  7 16  1  0
  7 17  1  0
  7 18  1  0
  8 19  1  0
M  END
