
     RDKit          3D

 19 19  0  0  0  0  0  0  0  0999 V2000
   -2.8039   -0.0190    0.6753 C   0  0  0  0  0  0  0  0  0  0  0  0
   -1.8390   -0.7873   -0.1587 C   0  0  0  0  0  0  0  0  0  0  0  0
   -2.1467   -1.8644   -0.5791 O   0  0  0  0  0  0  0  0  0  0  0  0
   -0.5165   -0.1256   -0.4114 C   0  0  0  0  0  0  0  0  0  0  0  0
    0.2912   -0.8929   -1.1737 O   0  0  0  0  0  0  0  0  0  0  0  0
    1.6222   -0.8430   -0.9677 C   0  0  0  0  0  0  0  0  0  0  0  0
    2.1425    0.1375    0.0046 C   0  0  0  0  0  0  0  0  0  0  0  0
    1.1106    0.9788    0.6860 C   0  0  0  0  0  0  0  0  0  0  0  0
   -0.0230    0.2097    0.8399 O   0  0  0  0  0  0  0  0  0  0  0  0
   -3.7414   -0.5829    0.8438 H   0  0  0  0  0  0  0  0  0  0  0  0
   -2.3185    0.2947    1.6239 H   0  0  0  0  0  0  0  0  0  0  0  0
   -3.0946    0.8787    0.0566 H   0  0  0  0  0  0  0  0  0  0  0  0
   -0.7654    0.8186   -0.9645 H   0  0  0  0  0  0  0  0  0  0  0  0
    2.1170   -0.6370   -1.9633 H   0  0  0  0  0  0  0  0  0  0  0  0
    1.9795   -1.8811   -0.7095 H   0  0  0  0  0  0  0  0  0  0  0  0
    2.9080    0.8269   -0.4421 H   0  0  0  0  0  0  0  0  0  0  0  0
    2.7095   -0.3974    0.8232 H   0  0  0  0  0  0  0  0  0  0  0  0
    1.4548    1.2438    1.7291 H   0  0  0  0  0  0  0  0  0  0  0  0
    0.9136    1.8815    0.0874 H   0  0  0  0  0  0  0  0  0  0  0  0
  1  2  1  0
  2  3  2  0
  2  4  1  0
  4  5  1  0
  5  6  1  0
  6  7  1  0
  7  8  1  0
  8  9  1  0
  9  4  1  0
  1 10  1  0
  1 11  1  0
  1 12  1  0
  4 13  1  0
  6 14  1  0
  6 15  1  0
  7 16  1  0
  7 17  1  0
  8 18  1  0
  8 19  1  0
M  END
