
     RDKit          3D

 19 18  0  0  0  0  0  0  0  0999 V2000
   -2.9696    0.3051    0.3050 C   0  0  0  0  0  0  0  0  0  0  0  0
   -1.5249    0.5047   -0.1264 C   0  0  0  0  0  0  0  0  0  0  0  0
   -1.1227    1.6288    0.0791 O   0  0  0  0  0  0  0  0  0  0  0  0
   -0.8069   -0.6195   -0.7133 C   0  0  0  0  0  0  0  0  0  0  0  0
    0.6238   -0.4497   -1.0529 C   0  0  0  0  0  0  0  0  0  0  0  0
    1.5689   -0.1631    0.0556 C   0  0  0  0  0  0  0  0  0  0  0  0
    1.2391    1.0127    0.6993 O   0  0  0  0  0  0  0  0  0  0  0  0
    2.9721   -0.0495   -0.4902 C   0  0  0  0  0  0  0  0  0  0  0  0
    3.5802    0.9711   -0.3102 O   0  0  0  0  0  0  0  0  0  0  0  0
   -3.3672   -0.5752   -0.2708 H   0  0  0  0  0  0  0  0  0  0  0  0
   -3.5448    1.2221    0.0622 H   0  0  0  0  0  0  0  0  0  0  0  0
   -3.0353    0.0574    1.3679 H   0  0  0  0  0  0  0  0  0  0  0  0
   -1.3294   -0.8453   -1.6968 H   0  0  0  0  0  0  0  0  0  0  0  0
   -0.9776   -1.5103   -0.0585 H   0  0  0  0  0  0  0  0  0  0  0  0
    0.9425   -1.4276   -1.5392 H   0  0  0  0  0  0  0  0  0  0  0  0
    0.6966    0.2777   -1.8924 H   0  0  0  0  0  0  0  0  0  0  0  0
    1.6014   -0.9960    0.8054 H   0  0  0  0  0  0  0  0  0  0  0  0
    2.0123    1.5101    1.0534 H   0  0  0  0  0  0  0  0  0  0  0  0
    3.4414   -0.8536   -1.0338 H   0  0  0  0  0  0  0  0  0  0  0  0
  1  2  1  0
  2  3  2  0
  2  4  1  0
  4  5  1  0
  5  6  1  0
  6  7  1  0
  6  8  1  0
  8  9  2  0
  1 10  1  0
  1 11  1  0
  1 12  1  0
  4 13  1  0
  4 14  1  0
  5 15  1  0
  5 16  1  0
  6 17  1  0
  7 18  1  0
  8 19  1  0
M  END
