
     RDKit          3D

 19 19  0  0  0  0  0  0  0  0999 V2000
    2.7579    0.2912   -0.2453 C   0  0  0  0  0  0  0  0  0  0  0  0
    1.7400   -0.2369    0.6925 C   0  0  0  0  0  0  0  0  0  0  0  0
    2.1486   -0.6310    1.8282 O   0  0  0  0  0  0  0  0  0  0  0  0
    0.3132   -0.3143    0.3530 C   0  0  0  0  0  0  0  0  0  0  0  0
   -0.6453   -0.7602    1.1078 C   0  0  0  0  0  0  0  0  0  0  0  0
   -1.9352   -0.6760    0.4162 C   0  0  0  0  0  0  0  0  0  0  0  0
   -1.6656    0.2586   -0.7193 C   0  0  0  0  0  0  0  0  0  0  0  0
   -1.9219    1.5713   -0.3293 O   0  0  0  0  0  0  0  0  0  0  0  0
   -0.1796    0.1374   -0.9567 C   0  0  0  0  0  0  0  0  0  0  0  0
    3.6088    0.7340    0.3454 H   0  0  0  0  0  0  0  0  0  0  0  0
    2.3054    1.1073   -0.8351 H   0  0  0  0  0  0  0  0  0  0  0  0
    3.1494   -0.5265   -0.8905 H   0  0  0  0  0  0  0  0  0  0  0  0
   -0.4844   -1.1440    2.1256 H   0  0  0  0  0  0  0  0  0  0  0  0
   -2.7440   -0.2474    1.0600 H   0  0  0  0  0  0  0  0  0  0  0  0
   -2.2519   -1.6850    0.0474 H   0  0  0  0  0  0  0  0  0  0  0  0
   -2.2419   -0.0010   -1.6453 H   0  0  0  0  0  0  0  0  0  0  0  0
   -2.3306    1.6085    0.5669 H   0  0  0  0  0  0  0  0  0  0  0  0
    0.2951    1.1046   -1.1819 H   0  0  0  0  0  0  0  0  0  0  0  0
    0.0821   -0.5904   -1.7397 H   0  0  0  0  0  0  0  0  0  0  0  0
  1  2  1  0
  2  3  2  0
  2  4  1  0
  4  5  2  0
  5  6  1  0
  6  7  1  0
  7  8  1  0
  7  9  1  0
  9  4  1  0
  1 10  1  0
  1 11  1  0
  1 12  1  0
  5 13  1  0
  6 14  1  0
  6 15  1  0
  7 16  1  0
  8 17  1  0
  9 18  1  0
  9 19  1  0
M  END
