
     RDKit          3D

 20 19  0  0  0  0  0  0  0  0999 V2000
    2.8007    0.4961    1.1219 C   0  0  0  0  0  0  0  0  0  0  0  0
    2.2285    0.0842   -0.1851 C   0  0  0  0  0  0  0  0  0  0  0  0
    2.7595    0.2862   -1.2582 O   0  0  0  0  0  0  0  0  0  0  0  0
    0.9220   -0.6166   -0.1780 C   0  0  0  0  0  0  0  0  0  0  0  0
   -0.2377    0.3491   -0.4512 C   0  0  0  0  0  0  0  0  0  0  0  0
   -1.4871   -0.4999   -0.4172 C   0  0  0  0  0  0  0  0  0  0  0  0
   -2.7408    0.2632   -0.6666 C   0  0  0  0  0  0  0  0  0  0  0  0
   -1.5277   -1.1235    0.8359 O   0  0  0  0  0  0  0  0  0  0  0  0
    3.6140    1.2457    0.9302 H   0  0  0  0  0  0  0  0  0  0  0  0
    3.1714   -0.3625    1.7128 H   0  0  0  0  0  0  0  0  0  0  0  0
    1.9793    0.9589    1.7207 H   0  0  0  0  0  0  0  0  0  0  0  0
    0.7251   -1.1313    0.7734 H   0  0  0  0  0  0  0  0  0  0  0  0
    0.9084   -1.3479   -1.0227 H   0  0  0  0  0  0  0  0  0  0  0  0
   -0.0919    0.9150   -1.3666 H   0  0  0  0  0  0  0  0  0  0  0  0
   -0.2113    1.0563    0.4292 H   0  0  0  0  0  0  0  0  0  0  0  0
   -1.3678   -1.3250   -1.1768 H   0  0  0  0  0  0  0  0  0  0  0  0
   -2.5687    1.3435   -0.8626 H   0  0  0  0  0  0  0  0  0  0  0  0
   -3.2752   -0.1699   -1.5367 H   0  0  0  0  0  0  0  0  0  0  0  0
   -3.4476    0.1517    0.1979 H   0  0  0  0  0  0  0  0  0  0  0  0
   -2.1530   -0.5732    1.3996 H   0  0  0  0  0  0  0  0  0  0  0  0
  1  2  1  0
  2  3  2  0
  2  4  1  0
  4  5  1  0
  5  6  1  0
  6  7  1  0
  6  8  1  0
  1  9  1  0
  1 10  1  0
  1 11  1  0
  4 12  1  0
  4 13  1  0
  5 14  1  0
  5 15  1  0
  6 16  1  0
  7 17  1  0
  7 18  1  0
  7 19  1  0
  8 20  1  0
M  END
