
     RDKit          3D

 21 20  0  0  0  0  0  0  0  0999 V2000
    3.4821    0.2275   -0.4366 C   0  0  0  0  0  0  0  0  0  0  0  0
    2.1546   -0.2791   -0.8271 C   0  0  0  0  0  0  0  0  0  0  0  0
    2.0554   -1.0650   -1.7326 O   0  0  0  0  0  0  0  0  0  0  0  0
    0.9601    0.1822   -0.1040 C   0  0  0  0  0  0  0  0  0  0  0  0
   -0.3214   -0.4525   -0.6517 C   0  0  0  0  0  0  0  0  0  0  0  0
   -1.4493    0.1123    0.1825 C   0  0  0  0  0  0  0  0  0  0  0  0
   -1.2006   -0.2526    1.5119 O   0  0  0  0  0  0  0  0  0  0  0  0
   -2.7921   -0.4169   -0.2351 C   0  0  0  0  0  0  0  0  0  0  0  0
   -3.7402    0.1555    0.6249 O   0  0  0  0  0  0  0  0  0  0  0  0
    3.4251    1.2617   -0.0188 H   0  0  0  0  0  0  0  0  0  0  0  0
    4.1493    0.1740   -1.3128 H   0  0  0  0  0  0  0  0  0  0  0  0
    3.9464   -0.3906    0.3745 H   0  0  0  0  0  0  0  0  0  0  0  0
    1.0093   -0.0157    0.9904 H   0  0  0  0  0  0  0  0  0  0  0  0
    0.9209    1.2906   -0.2018 H   0  0  0  0  0  0  0  0  0  0  0  0
   -0.2390   -1.5492   -0.5030 H   0  0  0  0  0  0  0  0  0  0  0  0
   -0.4365   -0.2774   -1.7211 H   0  0  0  0  0  0  0  0  0  0  0  0
   -1.4555    1.2127    0.0440 H   0  0  0  0  0  0  0  0  0  0  0  0
   -1.1841    0.5784    2.0497 H   0  0  0  0  0  0  0  0  0  0  0  0
   -2.8531   -1.5077   -0.2668 H   0  0  0  0  0  0  0  0  0  0  0  0
   -2.9932   -0.0403   -1.2600 H   0  0  0  0  0  0  0  0  0  0  0  0
   -3.4381    1.0519    0.9087 H   0  0  0  0  0  0  0  0  0  0  0  0
  1  2  1  0
  2  3  2  0
  2  4  1  0
  4  5  1  0
  5  6  1  0
  6  7  1  0
  6  8  1  0
  8  9  1  0
  1 10  1  0
  1 11  1  0
  1 12  1  0
  4 13  1  0
  4 14  1  0
  5 15  1  0
  5 16  1  0
  6 17  1  0
  7 18  1  0
  8 19  1  0
  8 20  1  0
  9 21  1  0
M  END
