
     RDKit          3D

 19 18  0  0  0  0  0  0  0  0999 V2000
    2.2089   -0.4001   -0.1160 C   0  0  0  0  0  0  0  0  0  0  0  0
    1.0469    0.2072    0.5709 C   0  0  0  0  0  0  0  0  0  0  0  0
    1.3191    0.9224    1.5220 O   0  0  0  0  0  0  0  0  0  0  0  0
   -0.3494    0.0558    0.2535 C   0  0  0  0  0  0  0  0  0  0  0  0
   -1.1838    0.8615    1.2261 C   0  0  0  0  0  0  0  0  0  0  0  0
   -0.7191   -1.3860    0.5378 C   0  0  0  0  0  0  0  0  0  0  0  0
    0.1096   -2.2172    0.8574 O   0  0  0  0  0  0  0  0  0  0  0  0
   -0.8037    0.4148   -1.1143 C   0  0  0  0  0  0  0  0  0  0  0  0
   -0.2229   -0.2921   -2.1368 O   0  0  0  0  0  0  0  0  0  0  0  0
    2.8437   -0.9344    0.6242 H   0  0  0  0  0  0  0  0  0  0  0  0
    1.9499   -1.1323   -0.8809 H   0  0  0  0  0  0  0  0  0  0  0  0
    2.8133    0.4533   -0.5312 H   0  0  0  0  0  0  0  0  0  0  0  0
   -0.8031    1.9092    1.1679 H   0  0  0  0  0  0  0  0  0  0  0  0
   -2.2206    0.9043    0.7999 H   0  0  0  0  0  0  0  0  0  0  0  0
   -1.1743    0.4510    2.2476 H   0  0  0  0  0  0  0  0  0  0  0  0
   -1.7520   -1.6838    0.4537 H   0  0  0  0  0  0  0  0  0  0  0  0
   -0.6684    1.4958   -1.3273 H   0  0  0  0  0  0  0  0  0  0  0  0
   -1.9015    0.2350   -1.1650 H   0  0  0  0  0  0  0  0  0  0  0  0
   -0.4927    0.1356   -2.9894 H   0  0  0  0  0  0  0  0  0  0  0  0
  1  2  1  0
  2  3  2  0
  2  4  1  0
  4  5  1  0
  4  6  1  0
  6  7  2  0
  4  8  1  0
  8  9  1  0
  1 10  1  0
  1 11  1  0
  1 12  1  0
  5 13  1  0
  5 14  1  0
  5 15  1  0
  6 16  1  0
  8 17  1  0
  8 18  1  0
  9 19  1  0
M  END
