
     RDKit          3D

 21 21  0  0  0  0  0  0  0  0999 V2000
    2.0559   -1.2391   -0.3255 C   0  0  0  0  0  0  0  0  0  0  0  0
    1.2874   -0.0555   -0.7552 C   0  0  0  0  0  0  0  0  0  0  0  0
    1.5139    0.4479   -1.8252 O   0  0  0  0  0  0  0  0  0  0  0  0
    0.2486    0.4972    0.1342 C   0  0  0  0  0  0  0  0  0  0  0  0
    0.3880    1.9887    0.4193 C   0  0  0  0  0  0  0  0  0  0  0  0
    0.0876   -0.1793    1.3420 O   0  0  0  0  0  0  0  0  0  0  0  0
   -1.2688    0.1546    1.2850 C   0  0  0  0  0  0  0  0  0  0  0  0
   -1.1688    0.1699   -0.2164 C   0  0  0  0  0  0  0  0  0  0  0  0
   -1.4450   -1.1695   -0.7930 C   0  0  0  0  0  0  0  0  0  0  0  0
    2.5574   -0.9923    0.6541 H   0  0  0  0  0  0  0  0  0  0  0  0
    1.4111   -2.1389   -0.2196 H   0  0  0  0  0  0  0  0  0  0  0  0
    2.8882   -1.4664   -1.0208 H   0  0  0  0  0  0  0  0  0  0  0  0
    0.9464    2.1065    1.3793 H   0  0  0  0  0  0  0  0  0  0  0  0
    1.0024    2.5000   -0.3496 H   0  0  0  0  0  0  0  0  0  0  0  0
   -0.6020    2.4851    0.4573 H   0  0  0  0  0  0  0  0  0  0  0  0
   -1.4913    1.1356    1.7049 H   0  0  0  0  0  0  0  0  0  0  0  0
   -1.8800   -0.6823    1.6638 H   0  0  0  0  0  0  0  0  0  0  0  0
   -1.7710    0.9719   -0.6652 H   0  0  0  0  0  0  0  0  0  0  0  0
   -0.9844   -1.9858   -0.2331 H   0  0  0  0  0  0  0  0  0  0  0  0
   -2.5595   -1.3356   -0.7383 H   0  0  0  0  0  0  0  0  0  0  0  0
   -1.2161   -1.2129   -1.8979 H   0  0  0  0  0  0  0  0  0  0  0  0
  1  2  1  0
  2  3  2  0
  2  4  1  0
  4  5  1  0
  4  6  1  0
  6  7  1  0
  7  8  1  0
  8  9  1  0
  8  4  1  0
  1 10  1  0
  1 11  1  0
  1 12  1  0
  5 13  1  0
  5 14  1  0
  5 15  1  0
  7 16  1  0
  7 17  1  0
  8 18  1  0
  9 19  1  0
  9 20  1  0
  9 21  1  0
M  END
