
     RDKit          3D

 16 15  0  0  0  0  0  0  0  0999 V2000
   -2.5700    0.0977   -0.3484 C   0  0  0  0  0  0  0  0  0  0  0  0
   -1.4580   -0.7774    0.1255 C   0  0  0  0  0  0  0  0  0  0  0  0
   -1.6022   -1.4888    1.0955 O   0  0  0  0  0  0  0  0  0  0  0  0
   -0.1322   -0.8124   -0.5682 C   0  0  0  0  0  0  0  0  0  0  0  0
    0.8123    0.0464    0.2363 C   0  0  0  0  0  0  0  0  0  0  0  0
    2.1091    0.0726   -0.3537 O   0  0  0  0  0  0  0  0  0  0  0  0
    3.0589    0.8430    0.3120 C   0  0  0  0  0  0  0  0  0  0  0  0
    2.8006    1.4827    1.3700 O   0  0  0  0  0  0  0  0  0  0  0  0
   -2.1745    0.9348   -0.9748 H   0  0  0  0  0  0  0  0  0  0  0  0
   -3.2904   -0.5325   -0.8798 H   0  0  0  0  0  0  0  0  0  0  0  0
   -3.0335    0.5167    0.5913 H   0  0  0  0  0  0  0  0  0  0  0  0
    0.1887   -1.8626   -0.5769 H   0  0  0  0  0  0  0  0  0  0  0  0
   -0.2013   -0.3671   -1.5769 H   0  0  0  0  0  0  0  0  0  0  0  0
    0.4774    1.0757    0.3470 H   0  0  0  0  0  0  0  0  0  0  0  0
    0.9533   -0.3622    1.2727 H   0  0  0  0  0  0  0  0  0  0  0  0
    4.0617    0.9115   -0.0719 H   0  0  0  0  0  0  0  0  0  0  0  0
  1  2  1  0
  2  3  2  0
  2  4  1  0
  4  5  1  0
  5  6  1  0
  6  7  1  0
  7  8  2  0
  1  9  1  0
  1 10  1  0
  1 11  1  0
  4 12  1  0
  4 13  1  0
  5 14  1  0
  5 15  1  0
  7 16  1  0
M  END
