
     RDKit          3D

 21 21  0  0  0  0  0  0  0  0999 V2000
    2.7067    0.7648    0.1202 C   0  0  0  0  0  0  0  0  0  0  0  0
    1.8980   -0.4051   -0.2412 C   0  0  0  0  0  0  0  0  0  0  0  0
    2.3266   -1.5417   -0.0532 O   0  0  0  0  0  0  0  0  0  0  0  0
    0.5436   -0.3055   -0.8424 C   0  0  0  0  0  0  0  0  0  0  0  0
    0.0653    0.9636   -1.0523 O   0  0  0  0  0  0  0  0  0  0  0  0
   -1.2013    0.4982   -0.6417 C   0  0  0  0  0  0  0  0  0  0  0  0
   -1.9334    1.5839    0.0817 C   0  0  0  0  0  0  0  0  0  0  0  0
   -0.5045   -0.5199    0.2322 C   0  0  0  0  0  0  0  0  0  0  0  0
   -1.0613   -1.9187    0.1372 C   0  0  0  0  0  0  0  0  0  0  0  0
    3.7610    0.4556    0.1905 H   0  0  0  0  0  0  0  0  0  0  0  0
    2.4034    1.1082    1.1421 H   0  0  0  0  0  0  0  0  0  0  0  0
    2.5588    1.5556   -0.6394 H   0  0  0  0  0  0  0  0  0  0  0  0
    0.3729   -0.9484   -1.7200 H   0  0  0  0  0  0  0  0  0  0  0  0
   -1.7763    0.0684   -1.4695 H   0  0  0  0  0  0  0  0  0  0  0  0
   -2.9313    1.7616   -0.4034 H   0  0  0  0  0  0  0  0  0  0  0  0
   -2.1017    1.3626    1.1635 H   0  0  0  0  0  0  0  0  0  0  0  0
   -1.4195    2.5695    0.0485 H   0  0  0  0  0  0  0  0  0  0  0  0
   -0.2379   -0.1712    1.2320 H   0  0  0  0  0  0  0  0  0  0  0  0
   -0.1949   -2.5998   -0.0400 H   0  0  0  0  0  0  0  0  0  0  0  0
   -1.7481   -2.0305   -0.7239 H   0  0  0  0  0  0  0  0  0  0  0  0
   -1.5260   -2.2513    1.0889 H   0  0  0  0  0  0  0  0  0  0  0  0
  1  2  1  0
  2  3  2  0
  2  4  1  0
  4  5  1  0
  5  6  1  0
  6  7  1  0
  6  8  1  0
  8  9  1  0
  8  4  1  0
  1 10  1  0
  1 11  1  0
  1 12  1  0
  4 13  1  0
  6 14  1  0
  7 15  1  0
  7 16  1  0
  7 17  1  0
  8 18  1  0
  9 19  1  0
  9 20  1  0
  9 21  1  0
M  END
