
     RDKit          3D

 21 22  0  0  0  0  0  0  0  0999 V2000
    3.2476   -0.1808    0.3870 C   0  0  0  0  0  0  0  0  0  0  0  0
    1.8827    0.3791    0.0601 C   0  0  0  0  0  0  0  0  0  0  0  0
    1.8581    1.3132   -0.6691 O   0  0  0  0  0  0  0  0  0  0  0  0
    0.7437   -0.2758    0.6658 C   0  0  0  0  0  0  0  0  0  0  0  0
   -0.6205    0.2221    0.4064 C   0  0  0  0  0  0  0  0  0  0  0  0
   -1.7182   -0.5795    1.1142 C   0  0  0  0  0  0  0  0  0  0  0  0
   -2.5501   -0.5335   -0.1655 C   0  0  0  0  0  0  0  0  0  0  0  0
   -1.3662    0.1121   -0.8407 C   0  0  0  0  0  0  0  0  0  0  0  0
   -0.9824    1.4441   -0.3058 C   0  0  0  0  0  0  0  0  0  0  0  0
    3.1650   -1.2624    0.6085 H   0  0  0  0  0  0  0  0  0  0  0  0
    3.5620    0.3560    1.3109 H   0  0  0  0  0  0  0  0  0  0  0  0
    3.9493   -0.0572   -0.4522 H   0  0  0  0  0  0  0  0  0  0  0  0
    0.8562   -0.2974    1.7976 H   0  0  0  0  0  0  0  0  0  0  0  0
    0.8282   -1.3824    0.3967 H   0  0  0  0  0  0  0  0  0  0  0  0
   -1.3628   -1.5990    1.3529 H   0  0  0  0  0  0  0  0  0  0  0  0
   -2.1594   -0.1002    1.9840 H   0  0  0  0  0  0  0  0  0  0  0  0
   -3.4105    0.1660    0.0138 H   0  0  0  0  0  0  0  0  0  0  0  0
   -2.8482   -1.5250   -0.5536 H   0  0  0  0  0  0  0  0  0  0  0  0
   -0.9700   -0.2858   -1.7759 H   0  0  0  0  0  0  0  0  0  0  0  0
   -0.2238    2.0288   -0.8097 H   0  0  0  0  0  0  0  0  0  0  0  0
   -1.8809    2.0575    0.0136 H   0  0  0  0  0  0  0  0  0  0  0  0
  1  2  1  0
  2  3  2  0
  2  4  1  0
  4  5  1  0
  5  6  1  0
  6  7  1  0
  7  8  1  0
  8  9  1  0
  8  5  1  0
  9  5  1  0
  1 10  1  0
  1 11  1  0
  1 12  1  0
  4 13  1  0
  4 14  1  0
  6 15  1  0
  6 16  1  0
  7 17  1  0
  7 18  1  0
  8 19  1  0
  9 20  1  0
  9 21  1  0
M  END
