
     RDKit          3D

 17 18  0  0  0  0  0  0  0  0999 V2000
    2.2445   -0.0568    0.2512 C   0  0  0  0  0  0  0  0  0  0  0  0
    1.0170    0.6990    0.5815 C   0  0  0  0  0  0  0  0  0  0  0  0
    1.0054    1.4159    1.5558 O   0  0  0  0  0  0  0  0  0  0  0  0
   -0.1686    0.5792   -0.2622 C   0  0  0  0  0  0  0  0  0  0  0  0
   -0.7361   -0.8427   -0.3719 C   0  0  0  0  0  0  0  0  0  0  0  0
   -0.6767   -1.3902   -1.6294 O   0  0  0  0  0  0  0  0  0  0  0  0
   -2.0562   -0.2834    0.0634 C   0  0  0  0  0  0  0  0  0  0  0  0
   -2.5576    0.8748   -0.4774 O   0  0  0  0  0  0  0  0  0  0  0  0
   -1.4935    0.9510    0.3918 C   0  0  0  0  0  0  0  0  0  0  0  0
    3.1099    0.2772    0.8861 H   0  0  0  0  0  0  0  0  0  0  0  0
    2.5527    0.1667   -0.7952 H   0  0  0  0  0  0  0  0  0  0  0  0
    2.0969   -1.1582    0.2998 H   0  0  0  0  0  0  0  0  0  0  0  0
   -0.0420    1.0195   -1.2823 H   0  0  0  0  0  0  0  0  0  0  0  0
   -0.2549   -1.4753    0.4040 H   0  0  0  0  0  0  0  0  0  0  0  0
    0.2595   -1.4202   -1.9514 H   0  0  0  0  0  0  0  0  0  0  0  0
   -2.7891   -0.8994    0.6034 H   0  0  0  0  0  0  0  0  0  0  0  0
   -1.5112    1.5429    1.2995 H   0  0  0  0  0  0  0  0  0  0  0  0
  1  2  1  0
  2  3  2  0
  2  4  1  0
  4  5  1  0
  5  6  1  0
  5  7  1  0
  7  8  1  0
  8  9  1  0
  9  4  1  0
  9  7  1  0
  1 10  1  0
  1 11  1  0
  1 12  1  0
  4 13  1  0
  5 14  1  0
  6 15  1  0
  7 16  1  0
  9 17  1  0
M  END
