
     RDKit          3D

 19 19  0  0  0  0  0  0  0  0999 V2000
    3.4970   -0.4183    0.1541 C   0  0  0  0  0  0  0  0  0  0  0  0
    2.2173   -0.0468   -0.5463 C   0  0  0  0  0  0  0  0  0  0  0  0
    2.2157    0.6275   -1.5981 O   0  0  0  0  0  0  0  0  0  0  0  0
    0.9924   -0.4391   -0.0504 O   0  0  0  0  0  0  0  0  0  0  0  0
   -0.2367   -0.1130   -0.6753 C   0  0  0  0  0  0  0  0  0  0  0  0
   -1.3252   -0.7200    0.1684 C   0  0  0  0  0  0  0  0  0  0  0  0
   -2.7276   -0.5002   -0.3071 C   0  0  0  0  0  0  0  0  0  0  0  0
   -3.1164   -0.4038    1.0298 O   0  0  0  0  0  0  0  0  0  0  0  0
   -1.8536    0.1650    1.2775 C   0  0  0  0  0  0  0  0  0  0  0  0
    3.3510   -1.2998    0.7971 H   0  0  0  0  0  0  0  0  0  0  0  0
    4.1996   -0.7035   -0.6837 H   0  0  0  0  0  0  0  0  0  0  0  0
    3.9042    0.4230    0.7349 H   0  0  0  0  0  0  0  0  0  0  0  0
   -0.4082    0.9827   -0.7081 H   0  0  0  0  0  0  0  0  0  0  0  0
   -0.3245   -0.5144   -1.6890 H   0  0  0  0  0  0  0  0  0  0  0  0
   -1.0983   -1.7326    0.5535 H   0  0  0  0  0  0  0  0  0  0  0  0
   -3.1540   -1.3510   -0.8518 H   0  0  0  0  0  0  0  0  0  0  0  0
   -2.7836    0.4771   -0.8621 H   0  0  0  0  0  0  0  0  0  0  0  0
   -1.8988    1.2359    0.9745 H   0  0  0  0  0  0  0  0  0  0  0  0
   -1.4503   -0.0378    2.2819 H   0  0  0  0  0  0  0  0  0  0  0  0
  1  2  1  0
  2  3  2  0
  2  4  1  0
  4  5  1  0
  5  6  1  0
  6  7  1  0
  7  8  1  0
  8  9  1  0
  9  6  1  0
  1 10  1  0
  1 11  1  0
  1 12  1  0
  5 13  1  0
  5 14  1  0
  6 15  1  0
  7 16  1  0
  7 17  1  0
  9 18  1  0
  9 19  1  0
M  END
