
     RDKit          3D

 19 18  0  0  0  0  0  0  0  0999 V2000
    2.9581    0.1885   -0.0948 C   0  0  0  0  0  0  0  0  0  0  0  0
    1.5616    0.0069   -0.5338 C   0  0  0  0  0  0  0  0  0  0  0  0
    1.3178   -0.2923   -1.7306 O   0  0  0  0  0  0  0  0  0  0  0  0
    0.4338    0.1601    0.3673 C   0  0  0  0  0  0  0  0  0  0  0  0
    0.6673    0.4574    1.5591 O   0  0  0  0  0  0  0  0  0  0  0  0
   -0.9631   -0.0228   -0.0768 C   0  0  0  0  0  0  0  0  0  0  0  0
   -1.6216   -1.1530    0.6530 C   0  0  0  0  0  0  0  0  0  0  0  0
   -1.7209    1.2796    0.0542 C   0  0  0  0  0  0  0  0  0  0  0  0
   -0.9378   -0.3488   -1.4476 O   0  0  0  0  0  0  0  0  0  0  0  0
    3.6453   -0.2808   -0.8400 H   0  0  0  0  0  0  0  0  0  0  0  0
    3.1479   -0.3896    0.8571 H   0  0  0  0  0  0  0  0  0  0  0  0
    3.2027    1.2755    0.0577 H   0  0  0  0  0  0  0  0  0  0  0  0
   -2.1610   -1.8244   -0.0557 H   0  0  0  0  0  0  0  0  0  0  0  0
   -0.8187   -1.7550    1.1295 H   0  0  0  0  0  0  0  0  0  0  0  0
   -2.3007   -0.8171    1.4615 H   0  0  0  0  0  0  0  0  0  0  0  0
   -1.6476    1.7079    1.0719 H   0  0  0  0  0  0  0  0  0  0  0  0
   -2.7538    1.1311   -0.2965 H   0  0  0  0  0  0  0  0  0  0  0  0
   -1.2344    1.9988   -0.6363 H   0  0  0  0  0  0  0  0  0  0  0  0
   -0.7751   -1.3220   -1.4992 H   0  0  0  0  0  0  0  0  0  0  0  0
  1  2  1  0
  2  3  2  0
  2  4  1  0
  4  5  2  0
  4  6  1  0
  6  7  1  0
  6  8  1  0
  6  9  1  0
  1 10  1  0
  1 11  1  0
  1 12  1  0
  7 13  1  0
  7 14  1  0
  7 15  1  0
  8 16  1  0
  8 17  1  0
  8 18  1  0
  9 19  1  0
M  END
