
     RDKit          3D

 17 17  0  0  0  0  0  0  0  0999 V2000
    2.6063   -0.0077   -0.0701 C   0  0  0  0  0  0  0  0  0  0  0  0
    1.3657    0.5940   -0.6219 C   0  0  0  0  0  0  0  0  0  0  0  0
    1.4214    1.2188   -1.6427 O   0  0  0  0  0  0  0  0  0  0  0  0
    0.0867    0.4250    0.0756 C   0  0  0  0  0  0  0  0  0  0  0  0
   -0.9764    1.0471   -0.5681 O   0  0  0  0  0  0  0  0  0  0  0  0
   -2.0803    0.6174    0.1963 C   0  0  0  0  0  0  0  0  0  0  0  0
   -1.8048   -0.8157    0.5664 C   0  0  0  0  0  0  0  0  0  0  0  0
   -0.3947   -0.9819    0.1101 C   0  0  0  0  0  0  0  0  0  0  0  0
    0.2199   -1.9944   -0.1666 O   0  0  0  0  0  0  0  0  0  0  0  0
    2.9535   -0.8834   -0.6468 H   0  0  0  0  0  0  0  0  0  0  0  0
    3.4045    0.7823   -0.1296 H   0  0  0  0  0  0  0  0  0  0  0  0
    2.4415   -0.3446    0.9720 H   0  0  0  0  0  0  0  0  0  0  0  0
    0.1286    0.7787    1.1293 H   0  0  0  0  0  0  0  0  0  0  0  0
   -3.0341    0.7408   -0.3598 H   0  0  0  0  0  0  0  0  0  0  0  0
   -2.0692    1.2920    1.0997 H   0  0  0  0  0  0  0  0  0  0  0  0
   -1.7722   -0.9400    1.6863 H   0  0  0  0  0  0  0  0  0  0  0  0
   -2.4964   -1.5283    0.1242 H   0  0  0  0  0  0  0  0  0  0  0  0
  1  2  1  0
  2  3  2  0
  2  4  1  0
  4  5  1  0
  5  6  1  0
  6  7  1  0
  7  8  1  0
  8  9  2  0
  8  4  1  0
  1 10  1  0
  1 11  1  0
  1 12  1  0
  4 13  1  0
  6 14  1  0
  6 15  1  0
  7 16  1  0
  7 17  1  0
M  END
