
     RDKit          3D

 21 20  0  0  0  0  0  0  0  0999 V2000
    3.3560   -1.0355    0.0754 C   0  0  0  0  0  0  0  0  0  0  0  0
    2.0292   -0.5291   -0.4003 C   0  0  0  0  0  0  0  0  0  0  0  0
    1.5198   -1.0621   -1.4097 O   0  0  0  0  0  0  0  0  0  0  0  0
    1.3558    0.4889    0.2230 O   0  0  0  0  0  0  0  0  0  0  0  0
    0.1376    1.0388   -0.1082 C   0  0  0  0  0  0  0  0  0  0  0  0
   -1.0719    0.1996   -0.0677 C   0  0  0  0  0  0  0  0  0  0  0  0
   -1.3858   -0.3793    1.2876 C   0  0  0  0  0  0  0  0  0  0  0  0
   -2.2587    1.0965   -0.4530 C   0  0  0  0  0  0  0  0  0  0  0  0
   -0.9788   -0.8676   -0.9437 O   0  0  0  0  0  0  0  0  0  0  0  0
    3.8977   -1.4493   -0.7983 H   0  0  0  0  0  0  0  0  0  0  0  0
    3.9497   -0.2053    0.5231 H   0  0  0  0  0  0  0  0  0  0  0  0
    3.1970   -1.8521    0.8207 H   0  0  0  0  0  0  0  0  0  0  0  0
   -0.0695    1.9848    0.4788 H   0  0  0  0  0  0  0  0  0  0  0  0
    0.2165    1.4300   -1.1731 H   0  0  0  0  0  0  0  0  0  0  0  0
   -1.1206    0.2613    2.1261 H   0  0  0  0  0  0  0  0  0  0  0  0
   -0.9237   -1.4012    1.4145 H   0  0  0  0  0  0  0  0  0  0  0  0
   -2.4838   -0.5629    1.3156 H   0  0  0  0  0  0  0  0  0  0  0  0
   -3.1991    0.6825   -0.0579 H   0  0  0  0  0  0  0  0  0  0  0  0
   -2.0742    2.0688    0.0442 H   0  0  0  0  0  0  0  0  0  0  0  0
   -2.2492    1.2067   -1.5431 H   0  0  0  0  0  0  0  0  0  0  0  0
   -1.8439   -1.1135   -1.3541 H   0  0  0  0  0  0  0  0  0  0  0  0
  1  2  1  0
  2  3  2  0
  2  4  1  0
  4  5  1  0
  5  6  1  0
  6  7  1  0
  6  8  1  0
  6  9  1  0
  1 10  1  0
  1 11  1  0
  1 12  1  0
  5 13  1  0
  5 14  1  0
  7 15  1  0
  7 16  1  0
  7 17  1  0
  8 18  1  0
  8 19  1  0
  8 20  1  0
  9 21  1  0
M  END
