
     RDKit          3D

 23 23  0  0  0  0  0  0  0  0999 V2000
    3.0775   -0.4687    0.1691 C   0  0  0  0  0  0  0  0  0  0  0  0
    1.5876   -0.5860    0.2497 C   0  0  0  0  0  0  0  0  0  0  0  0
    1.2474   -1.6767    0.6548 O   0  0  0  0  0  0  0  0  0  0  0  0
    0.8143    0.5542   -0.1450 C   0  0  0  0  0  0  0  0  0  0  0  0
   -0.6324    0.6139   -0.1459 C   0  0  0  0  0  0  0  0  0  0  0  0
   -1.0562    2.0277   -0.6347 C   0  0  0  0  0  0  0  0  0  0  0  0
   -1.2935    0.2001    1.1872 C   0  0  0  0  0  0  0  0  0  0  0  0
   -1.6656   -0.3718   -0.1737 C   0  0  0  0  0  0  0  0  0  0  0  0
   -1.5272   -1.8434   -0.3548 C   0  0  0  0  0  0  0  0  0  0  0  0
    3.3952   -1.0018   -0.7759 H   0  0  0  0  0  0  0  0  0  0  0  0
    3.4187    0.5738    0.0343 H   0  0  0  0  0  0  0  0  0  0  0  0
    3.5848   -0.9780    1.0029 H   0  0  0  0  0  0  0  0  0  0  0  0
    1.1774    0.8602   -1.1770 H   0  0  0  0  0  0  0  0  0  0  0  0
    1.1808    1.4314    0.4819 H   0  0  0  0  0  0  0  0  0  0  0  0
   -0.6072    2.1764   -1.6193 H   0  0  0  0  0  0  0  0  0  0  0  0
   -0.6190    2.7172    0.1107 H   0  0  0  0  0  0  0  0  0  0  0  0
   -2.1407    2.1278   -0.5940 H   0  0  0  0  0  0  0  0  0  0  0  0
   -0.6969   -0.4640    1.8539 H   0  0  0  0  0  0  0  0  0  0  0  0
   -1.9258    0.9350    1.6869 H   0  0  0  0  0  0  0  0  0  0  0  0
   -2.7036   -0.0137   -0.4637 H   0  0  0  0  0  0  0  0  0  0  0  0
   -0.7667   -2.0873   -1.1444 H   0  0  0  0  0  0  0  0  0  0  0  0
   -2.4658   -2.3104   -0.7873 H   0  0  0  0  0  0  0  0  0  0  0  0
   -1.3831   -2.4157    0.5843 H   0  0  0  0  0  0  0  0  0  0  0  0
  1  2  1  0
  2  3  2  0
  2  4  1  0
  4  5  1  0
  5  6  1  0
  5  7  1  0
  7  8  1  0
  8  9  1  0
  8  5  1  0
  1 10  1  0
  1 11  1  0
  1 12  1  0
  4 13  1  0
  4 14  1  0
  6 15  1  0
  6 16  1  0
  6 17  1  0
  7 18  1  0
  7 19  1  0
  8 20  1  0
  9 21  1  0
  9 22  1  0
  9 23  1  0
M  END
