
     RDKit          3D

 21 22  0  0  0  0  0  0  0  0999 V2000
    3.1683    0.1323   -0.0412 C   0  0  0  0  0  0  0  0  0  0  0  0
    1.7863   -0.2602    0.3445 C   0  0  0  0  0  0  0  0  0  0  0  0
    1.5866   -0.5591    1.5043 O   0  0  0  0  0  0  0  0  0  0  0  0
    0.7001   -0.2855   -0.6441 C   0  0  0  0  0  0  0  0  0  0  0  0
   -0.2700   -1.4924   -0.6193 C   0  0  0  0  0  0  0  0  0  0  0  0
   -0.7072   -0.1459   -0.3135 C   0  0  0  0  0  0  0  0  0  0  0  0
   -1.6967    0.6387   -1.0871 C   0  0  0  0  0  0  0  0  0  0  0  0
   -2.4666    0.8095    0.2268 C   0  0  0  0  0  0  0  0  0  0  0  0
   -1.2569    0.2739    0.9979 C   0  0  0  0  0  0  0  0  0  0  0  0
    3.5178   -0.4965   -0.9098 H   0  0  0  0  0  0  0  0  0  0  0  0
    3.8707    0.0707    0.7960 H   0  0  0  0  0  0  0  0  0  0  0  0
    3.1076    1.2055   -0.3711 H   0  0  0  0  0  0  0  0  0  0  0  0
    0.9923    0.0099   -1.6935 H   0  0  0  0  0  0  0  0  0  0  0  0
   -0.5358   -1.9484   -1.5825 H   0  0  0  0  0  0  0  0  0  0  0  0
   -0.0867   -2.2098    0.1974 H   0  0  0  0  0  0  0  0  0  0  0  0
   -2.2622    0.1407   -1.8811 H   0  0  0  0  0  0  0  0  0  0  0  0
   -1.2298    1.6044   -1.4413 H   0  0  0  0  0  0  0  0  0  0  0  0
   -3.3360    0.1292    0.2208 H   0  0  0  0  0  0  0  0  0  0  0  0
   -2.6751    1.8681    0.3867 H   0  0  0  0  0  0  0  0  0  0  0  0
   -1.5018   -0.5456    1.7067 H   0  0  0  0  0  0  0  0  0  0  0  0
   -0.7049    1.0606    1.5505 H   0  0  0  0  0  0  0  0  0  0  0  0
  1  2  1  0
  2  3  2  0
  2  4  1  0
  4  5  1  0
  5  6  1  0
  6  7  1  0
  7  8  1  0
  8  9  1  0
  6  4  1  0
  9  6  1  0
  1 10  1  0
  1 11  1  0
  1 12  1  0
  4 13  1  0
  5 14  1  0
  5 15  1  0
  7 16  1  0
  7 17  1  0
  8 18  1  0
  8 19  1  0
  9 20  1  0
  9 21  1  0
M  END
