
     RDKit          3D

 21 21  0  0  0  0  0  0  0  0999 V2000
   -3.5970    0.2642   -0.0137 C   0  0  0  0  0  0  0  0  0  0  0  0
   -2.1979    0.7265    0.1348 C   0  0  0  0  0  0  0  0  0  0  0  0
   -1.9473    1.9032    0.2458 O   0  0  0  0  0  0  0  0  0  0  0  0
   -1.1342   -0.2672    0.1439 C   0  0  0  0  0  0  0  0  0  0  0  0
    0.2504    0.3063    0.2998 C   0  0  0  0  0  0  0  0  0  0  0  0
    1.1995   -0.8895    0.2841 C   0  0  0  0  0  0  0  0  0  0  0  0
    2.6031   -0.3990    0.4351 C   0  0  0  0  0  0  0  0  0  0  0  0
    3.1583    0.4911   -0.5133 C   0  0  0  0  0  0  0  0  0  0  0  0
    3.4985   -0.9197   -0.5979 O   0  0  0  0  0  0  0  0  0  0  0  0
   -4.3058    1.0866   -0.2304 H   0  0  0  0  0  0  0  0  0  0  0  0
   -3.6589   -0.5574   -0.7585 H   0  0  0  0  0  0  0  0  0  0  0  0
   -3.8825   -0.1799    0.9849 H   0  0  0  0  0  0  0  0  0  0  0  0
   -1.1427   -0.7813   -0.8619 H   0  0  0  0  0  0  0  0  0  0  0  0
   -1.3118   -1.0013    0.9345 H   0  0  0  0  0  0  0  0  0  0  0  0
    0.5273    0.9896   -0.5192 H   0  0  0  0  0  0  0  0  0  0  0  0
    0.3697    0.8283    1.2583 H   0  0  0  0  0  0  0  0  0  0  0  0
    1.0225   -1.4091   -0.6945 H   0  0  0  0  0  0  0  0  0  0  0  0
    0.8796   -1.5915    1.0626 H   0  0  0  0  0  0  0  0  0  0  0  0
    3.0310   -0.5471    1.4484 H   0  0  0  0  0  0  0  0  0  0  0  0
    4.0258    1.1430   -0.2122 H   0  0  0  0  0  0  0  0  0  0  0  0
    2.6122    0.8043   -1.4067 H   0  0  0  0  0  0  0  0  0  0  0  0
  1  2  1  0
  2  3  2  0
  2  4  1  0
  4  5  1  0
  5  6  1  0
  6  7  1  0
  7  8  1  0
  8  9  1  0
  9  7  1  0
  1 10  1  0
  1 11  1  0
  1 12  1  0
  4 13  1  0
  4 14  1  0
  5 15  1  0
  5 16  1  0
  6 17  1  0
  6 18  1  0
  7 19  1  0
  8 20  1  0
  8 21  1  0
M  END
