
     RDKit          3D

 21 21  0  0  0  0  0  0  0  0999 V2000
    2.6477   -0.4935   -0.2129 C   0  0  0  0  0  0  0  0  0  0  0  0
    1.3640   -0.7232    0.4758 C   0  0  0  0  0  0  0  0  0  0  0  0
    1.2761   -1.6166    1.2807 O   0  0  0  0  0  0  0  0  0  0  0  0
    0.2051    0.1374    0.1754 C   0  0  0  0  0  0  0  0  0  0  0  0
    0.4395    1.2410   -0.8670 C   0  0  0  0  0  0  0  0  0  0  0  0
   -0.7074    0.5723    1.2802 C   0  0  0  0  0  0  0  0  0  0  0  0
   -1.1550   -0.4477    0.2817 C   0  0  0  0  0  0  0  0  0  0  0  0
   -2.2204   -0.1039   -0.7295 C   0  0  0  0  0  0  0  0  0  0  0  0
   -1.2083   -1.7523    0.7876 O   0  0  0  0  0  0  0  0  0  0  0  0
    2.4793   -0.8034   -1.2856 H   0  0  0  0  0  0  0  0  0  0  0  0
    3.4924   -1.0486    0.2265 H   0  0  0  0  0  0  0  0  0  0  0  0
    2.8652    0.6130   -0.2869 H   0  0  0  0  0  0  0  0  0  0  0  0
    0.8145    0.7851   -1.7860 H   0  0  0  0  0  0  0  0  0  0  0  0
   -0.4655    1.8462   -1.0011 H   0  0  0  0  0  0  0  0  0  0  0  0
    1.2606    1.8662   -0.4351 H   0  0  0  0  0  0  0  0  0  0  0  0
   -1.2324    1.5374    1.2172 H   0  0  0  0  0  0  0  0  0  0  0  0
   -0.4887    0.2659    2.3224 H   0  0  0  0  0  0  0  0  0  0  0  0
   -2.9880   -0.8980   -0.7535 H   0  0  0  0  0  0  0  0  0  0  0  0
   -1.8084   -0.0349   -1.7608 H   0  0  0  0  0  0  0  0  0  0  0  0
   -2.7062    0.8584   -0.4824 H   0  0  0  0  0  0  0  0  0  0  0  0
   -1.8639   -1.8008    1.5532 H   0  0  0  0  0  0  0  0  0  0  0  0
  1  2  1  0
  2  3  2  0
  2  4  1  0
  4  5  1  0
  4  6  1  0
  6  7  1  0
  7  8  1  0
  7  9  1  0
  7  4  1  0
  1 10  1  0
  1 11  1  0
  1 12  1  0
  5 13  1  0
  5 14  1  0
  5 15  1  0
  6 16  1  0
  6 17  1  0
  8 18  1  0
  8 19  1  0
  8 20  1  0
  9 21  1  0
M  END
