
     RDKit          3D

 19 19  0  0  0  0  0  0  0  0999 V2000
    3.2407    0.5791   -0.2909 C   0  0  0  0  0  0  0  0  0  0  0  0
    1.9185   -0.0925   -0.3874 C   0  0  0  0  0  0  0  0  0  0  0  0
    1.6982   -0.9334   -1.3057 O   0  0  0  0  0  0  0  0  0  0  0  0
    0.9034    0.1640    0.4941 O   0  0  0  0  0  0  0  0  0  0  0  0
   -0.3675   -0.4297    0.4655 C   0  0  0  0  0  0  0  0  0  0  0  0
   -0.7759   -1.0119    1.7920 C   0  0  0  0  0  0  0  0  0  0  0  0
   -1.9021   -0.1839    1.7787 O   0  0  0  0  0  0  0  0  0  0  0  0
   -1.5270    0.5197    0.6347 C   0  0  0  0  0  0  0  0  0  0  0  0
   -2.5741    0.4047   -0.4679 C   0  0  0  0  0  0  0  0  0  0  0  0
    3.1823    1.3190    0.5391 H   0  0  0  0  0  0  0  0  0  0  0  0
    3.4961    1.1300   -1.2216 H   0  0  0  0  0  0  0  0  0  0  0  0
    4.0638   -0.1251   -0.0728 H   0  0  0  0  0  0  0  0  0  0  0  0
   -0.4510   -1.1461   -0.3747 H   0  0  0  0  0  0  0  0  0  0  0  0
   -0.0673   -0.8276    2.6255 H   0  0  0  0  0  0  0  0  0  0  0  0
   -1.0670   -2.0802    1.7569 H   0  0  0  0  0  0  0  0  0  0  0  0
   -1.2444    1.5671    0.7898 H   0  0  0  0  0  0  0  0  0  0  0  0
   -2.2340    0.8869   -1.3838 H   0  0  0  0  0  0  0  0  0  0  0  0
   -2.8032   -0.6553   -0.6871 H   0  0  0  0  0  0  0  0  0  0  0  0
   -3.4893    0.9155   -0.0769 H   0  0  0  0  0  0  0  0  0  0  0  0
  1  2  1  0
  2  3  2  0
  2  4  1  0
  4  5  1  0
  5  6  1  0
  6  7  1  0
  7  8  1  0
  8  9  1  0
  8  5  1  0
  1 10  1  0
  1 11  1  0
  1 12  1  0
  5 13  1  0
  6 14  1  0
  6 15  1  0
  8 16  1  0
  9 17  1  0
  9 18  1  0
  9 19  1  0
M  END
