
     RDKit          3D

 19 19  0  0  0  0  0  0  0  0999 V2000
   -2.7609   -1.2011    0.3398 C   0  0  0  0  0  0  0  0  0  0  0  0
   -1.5889   -0.4440   -0.1456 C   0  0  0  0  0  0  0  0  0  0  0  0
   -1.1334   -0.6758   -1.2341 O   0  0  0  0  0  0  0  0  0  0  0  0
   -0.9917    0.5873    0.7122 C   0  0  0  0  0  0  0  0  0  0  0  0
   -0.8792    1.9010    0.0295 O   0  0  0  0  0  0  0  0  0  0  0  0
    0.2646    1.2226    0.6388 C   0  0  0  0  0  0  0  0  0  0  0  0
    1.3942    0.9990   -0.2650 C   0  0  0  0  0  0  0  0  0  0  0  0
    2.0203   -0.3663   -0.1847 C   0  0  0  0  0  0  0  0  0  0  0  0
    3.0803   -0.5024   -1.0848 O   0  0  0  0  0  0  0  0  0  0  0  0
   -3.4286   -0.5731    0.9711 H   0  0  0  0  0  0  0  0  0  0  0  0
   -3.3944   -1.5610   -0.5147 H   0  0  0  0  0  0  0  0  0  0  0  0
   -2.4634   -2.1394    0.8877 H   0  0  0  0  0  0  0  0  0  0  0  0
   -1.5902    0.7566    1.6459 H   0  0  0  0  0  0  0  0  0  0  0  0
    0.5710    1.7950    1.5812 H   0  0  0  0  0  0  0  0  0  0  0  0
    2.2492    1.7137   -0.0447 H   0  0  0  0  0  0  0  0  0  0  0  0
    1.1696    1.2660   -1.3497 H   0  0  0  0  0  0  0  0  0  0  0  0
    1.2584   -1.1349   -0.2870 H   0  0  0  0  0  0  0  0  0  0  0  0
    2.4901   -0.4447    0.8473 H   0  0  0  0  0  0  0  0  0  0  0  0
    3.7330   -1.1985   -0.7583 H   0  0  0  0  0  0  0  0  0  0  0  0
  1  2  1  0
  2  3  2  0
  2  4  1  0
  4  5  1  0
  5  6  1  0
  6  7  1  0
  7  8  1  0
  8  9  1  0
  6  4  1  0
  1 10  1  0
  1 11  1  0
  1 12  1  0
  4 13  1  0
  6 14  1  0
  7 15  1  0
  7 16  1  0
  8 17  1  0
  8 18  1  0
  9 19  1  0
M  END
