
     RDKit          3D

 19 19  0  0  0  0  0  0  0  0999 V2000
    2.8307   -0.0977   -0.3215 C   0  0  0  0  0  0  0  0  0  0  0  0
    1.3927   -0.4131   -0.4318 C   0  0  0  0  0  0  0  0  0  0  0  0
    0.8333   -0.7981   -1.4516 O   0  0  0  0  0  0  0  0  0  0  0  0
    0.4796   -0.2674    0.7635 C   0  0  0  0  0  0  0  0  0  0  0  0
   -0.7430    0.5499    0.4046 C   0  0  0  0  0  0  0  0  0  0  0  0
   -0.4059    1.8373   -0.0160 O   0  0  0  0  0  0  0  0  0  0  0  0
   -1.9828    0.2327    1.1122 C   0  0  0  0  0  0  0  0  0  0  0  0
   -1.8682   -0.0532   -0.3552 C   0  0  0  0  0  0  0  0  0  0  0  0
   -1.7705   -1.3429   -0.8287 O   0  0  0  0  0  0  0  0  0  0  0  0
    3.1144    0.3486   -1.3110 H   0  0  0  0  0  0  0  0  0  0  0  0
    3.4774   -0.9616   -0.1030 H   0  0  0  0  0  0  0  0  0  0  0  0
    2.9248    0.7313    0.4186 H   0  0  0  0  0  0  0  0  0  0  0  0
    0.9951    0.2206    1.6027 H   0  0  0  0  0  0  0  0  0  0  0  0
    0.1913   -1.3056    1.0452 H   0  0  0  0  0  0  0  0  0  0  0  0
   -0.1989    1.7771   -0.9782 H   0  0  0  0  0  0  0  0  0  0  0  0
   -2.7148    1.0153    1.4501 H   0  0  0  0  0  0  0  0  0  0  0  0
   -1.9994   -0.6393    1.8067 H   0  0  0  0  0  0  0  0  0  0  0  0
   -2.4567    0.6116   -1.0565 H   0  0  0  0  0  0  0  0  0  0  0  0
   -2.0991   -1.4455   -1.7503 H   0  0  0  0  0  0  0  0  0  0  0  0
  1  2  1  0
  2  3  2  0
  2  4  1  0
  4  5  1  0
  5  6  1  0
  5  7  1  0
  7  8  1  0
  8  9  1  0
  8  5  1  0
  1 10  1  0
  1 11  1  0
  1 12  1  0
  4 13  1  0
  4 14  1  0
  6 15  1  0
  7 16  1  0
  7 17  1  0
  8 18  1  0
  9 19  1  0
M  END
