
     RDKit          3D

 19 18  0  0  0  0  0  0  0  0999 V2000
    3.5658    0.3406   -0.1182 C   0  0  0  0  0  0  0  0  0  0  0  0
    2.3038   -0.1434    0.4686 C   0  0  0  0  0  0  0  0  0  0  0  0
    2.3240   -0.8277    1.5174 O   0  0  0  0  0  0  0  0  0  0  0  0
    1.0306    0.1672   -0.1610 C   0  0  0  0  0  0  0  0  0  0  0  0
    1.0487    0.8560   -1.2118 O   0  0  0  0  0  0  0  0  0  0  0  0
   -0.1817   -0.2891    0.3895 O   0  0  0  0  0  0  0  0  0  0  0  0
   -1.3680    0.0397   -0.2571 C   0  0  0  0  0  0  0  0  0  0  0  0
   -2.3271    0.8106    0.6546 C   0  0  0  0  0  0  0  0  0  0  0  0
   -2.1200   -1.2418   -0.6344 C   0  0  0  0  0  0  0  0  0  0  0  0
    3.8721    1.2924    0.3607 H   0  0  0  0  0  0  0  0  0  0  0  0
    3.4093    0.4914   -1.2225 H   0  0  0  0  0  0  0  0  0  0  0  0
    4.3740   -0.4315   -0.0466 H   0  0  0  0  0  0  0  0  0  0  0  0
   -1.1772    0.6405   -1.1527 H   0  0  0  0  0  0  0  0  0  0  0  0
   -2.4831    0.2046    1.5783 H   0  0  0  0  0  0  0  0  0  0  0  0
   -1.9818    1.8236    0.8650 H   0  0  0  0  0  0  0  0  0  0  0  0
   -3.3129    0.7819    0.1231 H   0  0  0  0  0  0  0  0  0  0  0  0
   -1.6132   -1.7810   -1.4574 H   0  0  0  0  0  0  0  0  0  0  0  0
   -3.1119   -0.9088   -1.0127 H   0  0  0  0  0  0  0  0  0  0  0  0
   -2.2514   -1.8253    0.2806 H   0  0  0  0  0  0  0  0  0  0  0  0
  1  2  1  0
  2  3  2  0
  2  4  1  0
  4  5  2  0
  4  6  1  0
  6  7  1  0
  7  8  1  0
  7  9  1  0
  1 10  1  0
  1 11  1  0
  1 12  1  0
  7 13  1  0
  8 14  1  0
  8 15  1  0
  8 16  1  0
  9 17  1  0
  9 18  1  0
  9 19  1  0
M  END
