
     RDKit          3D

 19 19  0  0  0  0  0  0  0  0999 V2000
    2.6834    0.4608   -0.1820 C   0  0  0  0  0  0  0  0  0  0  0  0
    1.6490   -0.4780   -0.7010 C   0  0  0  0  0  0  0  0  0  0  0  0
    1.9096   -1.1060   -1.7103 O   0  0  0  0  0  0  0  0  0  0  0  0
    0.3753   -0.5774    0.0529 C   0  0  0  0  0  0  0  0  0  0  0  0
   -0.3287    0.7652    0.0910 C   0  0  0  0  0  0  0  0  0  0  0  0
   -1.7475    0.3753   -0.2335 C   0  0  0  0  0  0  0  0  0  0  0  0
   -2.6883    1.0668    0.4884 O   0  0  0  0  0  0  0  0  0  0  0  0
   -1.7152   -1.1113    0.1292 C   0  0  0  0  0  0  0  0  0  0  0  0
   -0.5117   -1.4759   -0.5154 O   0  0  0  0  0  0  0  0  0  0  0  0
    3.1259   -0.0232    0.7204 H   0  0  0  0  0  0  0  0  0  0  0  0
    3.4634    0.6904   -0.9407 H   0  0  0  0  0  0  0  0  0  0  0  0
    2.1611    1.3734    0.1627 H   0  0  0  0  0  0  0  0  0  0  0  0
    0.5812   -0.9450    1.0869 H   0  0  0  0  0  0  0  0  0  0  0  0
    0.0933    1.4890   -0.6259 H   0  0  0  0  0  0  0  0  0  0  0  0
   -0.2471    1.1645    1.1148 H   0  0  0  0  0  0  0  0  0  0  0  0
   -1.9246    0.4640   -1.3163 H   0  0  0  0  0  0  0  0  0  0  0  0
   -2.7845    0.7550    1.4047 H   0  0  0  0  0  0  0  0  0  0  0  0
   -2.5758   -1.6575   -0.2424 H   0  0  0  0  0  0  0  0  0  0  0  0
   -1.5188   -1.2300    1.2165 H   0  0  0  0  0  0  0  0  0  0  0  0
  1  2  1  0
  2  3  2  0
  2  4  1  0
  4  5  1  0
  5  6  1  0
  6  7  1  0
  6  8  1  0
  8  9  1  0
  9  4  1  0
  1 10  1  0
  1 11  1  0
  1 12  1  0
  4 13  1  0
  5 14  1  0
  5 15  1  0
  6 16  1  0
  7 17  1  0
  8 18  1  0
  8 19  1  0
M  END
