
     RDKit          3D

 17 17  0  0  0  0  0  0  0  0999 V2000
    2.5804    0.0078   -0.4439 C   0  0  0  0  0  0  0  0  0  0  0  0
    1.2590   -0.6351   -0.6051 C   0  0  0  0  0  0  0  0  0  0  0  0
    1.0942   -1.4757   -1.4731 O   0  0  0  0  0  0  0  0  0  0  0  0
    0.0851   -0.3133    0.2470 C   0  0  0  0  0  0  0  0  0  0  0  0
   -0.3066    1.1056    0.1613 C   0  0  0  0  0  0  0  0  0  0  0  0
   -1.6311    1.2185    0.1197 C   0  0  0  0  0  0  0  0  0  0  0  0
   -2.2662   -0.1256    0.1738 C   0  0  0  0  0  0  0  0  0  0  0  0
   -1.1391   -1.0061   -0.2013 C   0  0  0  0  0  0  0  0  0  0  0  0
   -1.2158   -2.0685   -0.7581 O   0  0  0  0  0  0  0  0  0  0  0  0
    2.5823    0.5969    0.4925 H   0  0  0  0  0  0  0  0  0  0  0  0
    3.3697   -0.7857   -0.3063 H   0  0  0  0  0  0  0  0  0  0  0  0
    2.8943    0.5928   -1.3218 H   0  0  0  0  0  0  0  0  0  0  0  0
    0.2866   -0.6356    1.2862 H   0  0  0  0  0  0  0  0  0  0  0  0
    0.3586    1.9605    0.1339 H   0  0  0  0  0  0  0  0  0  0  0  0
   -2.2281    2.1379    0.0549 H   0  0  0  0  0  0  0  0  0  0  0  0
   -3.1306   -0.2144   -0.5152 H   0  0  0  0  0  0  0  0  0  0  0  0
   -2.5926   -0.3599    1.2299 H   0  0  0  0  0  0  0  0  0  0  0  0
  1  2  1  0
  2  3  2  0
  2  4  1  0
  4  5  1  0
  5  6  2  0
  6  7  1  0
  7  8  1  0
  8  9  2  0
  8  4  1  0
  1 10  1  0
  1 11  1  0
  1 12  1  0
  4 13  1  0
  5 14  1  0
  6 15  1  0
  7 16  1  0
  7 17  1  0
M  END
