
     RDKit          3D

 19 18  0  0  0  0  0  0  0  0999 V2000
   -3.1576   -0.3675    0.0574 C   0  0  0  0  0  0  0  0  0  0  0  0
   -2.0090    0.5544   -0.0380 C   0  0  0  0  0  0  0  0  0  0  0  0
   -2.1995    1.7029   -0.4597 O   0  0  0  0  0  0  0  0  0  0  0  0
   -0.6276    0.1137    0.3683 C   0  0  0  0  0  0  0  0  0  0  0  0
    0.0997   -0.1992   -0.9073 C   0  0  0  0  0  0  0  0  0  0  0  0
    1.3925   -0.6160   -0.7562 O   0  0  0  0  0  0  0  0  0  0  0  0
    2.2235    0.3022   -0.1385 C   0  0  0  0  0  0  0  0  0  0  0  0
    3.6040   -0.2372   -0.0133 C   0  0  0  0  0  0  0  0  0  0  0  0
    3.9225   -1.3285   -0.3913 O   0  0  0  0  0  0  0  0  0  0  0  0
   -3.1245   -1.2105   -0.6611 H   0  0  0  0  0  0  0  0  0  0  0  0
   -3.1554   -0.8333    1.0654 H   0  0  0  0  0  0  0  0  0  0  0  0
   -4.1032    0.1732   -0.1134 H   0  0  0  0  0  0  0  0  0  0  0  0
   -0.7063   -0.7410    1.0690 H   0  0  0  0  0  0  0  0  0  0  0  0
   -0.1448    0.9856    0.8768 H   0  0  0  0  0  0  0  0  0  0  0  0
   -0.0397    0.6563   -1.6069 H   0  0  0  0  0  0  0  0  0  0  0  0
   -0.4490   -1.0576   -1.3807 H   0  0  0  0  0  0  0  0  0  0  0  0
    1.8347    0.4467    0.9093 H   0  0  0  0  0  0  0  0  0  0  0  0
    2.2462    1.2830   -0.6095 H   0  0  0  0  0  0  0  0  0  0  0  0
    4.3936    0.3728    0.4444 H   0  0  0  0  0  0  0  0  0  0  0  0
  1  2  1  0
  2  3  2  0
  2  4  1  0
  4  5  1  0
  5  6  1  0
  6  7  1  0
  7  8  1  0
  8  9  2  0
  1 10  1  0
  1 11  1  0
  1 12  1  0
  4 13  1  0
  4 14  1  0
  5 15  1  0
  5 16  1  0
  7 17  1  0
  7 18  1  0
  8 19  1  0
M  END
