
     RDKit          3D

 19 19  0  0  0  0  0  0  0  0999 V2000
   -2.4845    0.4543   -0.5666 C   0  0  0  0  0  0  0  0  0  0  0  0
   -1.7260   -0.7999   -0.7332 C   0  0  0  0  0  0  0  0  0  0  0  0
   -2.2583   -1.7535   -1.3047 O   0  0  0  0  0  0  0  0  0  0  0  0
   -0.3490   -1.0180   -0.2626 C   0  0  0  0  0  0  0  0  0  0  0  0
    0.2674    0.1460    0.4212 C   0  0  0  0  0  0  0  0  0  0  0  0
   -0.3830    0.5817    1.5455 O   0  0  0  0  0  0  0  0  0  0  0  0
    1.7324   -0.2014    0.6938 C   0  0  0  0  0  0  0  0  0  0  0  0
    2.7949    0.3527   -0.1471 C   0  0  0  0  0  0  0  0  0  0  0  0
    2.5490    0.8453    1.1809 O   0  0  0  0  0  0  0  0  0  0  0  0
   -2.1514    1.2657   -1.2560 H   0  0  0  0  0  0  0  0  0  0  0  0
   -2.4646    0.7891    0.5042 H   0  0  0  0  0  0  0  0  0  0  0  0
   -3.5560    0.2813   -0.7947 H   0  0  0  0  0  0  0  0  0  0  0  0
   -0.3878   -1.8654    0.4760 H   0  0  0  0  0  0  0  0  0  0  0  0
    0.3346   -1.3485   -1.0730 H   0  0  0  0  0  0  0  0  0  0  0  0
    0.2909    0.9982   -0.3078 H   0  0  0  0  0  0  0  0  0  0  0  0
   -0.4570    1.5693    1.5727 H   0  0  0  0  0  0  0  0  0  0  0  0
    1.9394   -1.1576    1.2234 H   0  0  0  0  0  0  0  0  0  0  0  0
    3.7503   -0.2014   -0.2055 H   0  0  0  0  0  0  0  0  0  0  0  0
    2.5587    1.0619   -0.9665 H   0  0  0  0  0  0  0  0  0  0  0  0
  1  2  1  0
  2  3  2  0
  2  4  1  0
  4  5  1  0
  5  6  1  0
  5  7  1  0
  7  8  1  0
  8  9  1  0
  9  7  1  0
  1 10  1  0
  1 11  1  0
  1 12  1  0
  4 13  1  0
  4 14  1  0
  5 15  1  0
  6 16  1  0
  7 17  1  0
  8 18  1  0
  8 19  1  0
M  END
