
     RDKit          3D

 19 19  0  0  0  0  0  0  0  0999 V2000
    2.0455    0.3879   -0.8600 C   0  0  0  0  0  0  0  0  0  0  0  0
    1.5598   -0.3103    0.3557 C   0  0  0  0  0  0  0  0  0  0  0  0
    2.2618   -1.1903    0.8138 O   0  0  0  0  0  0  0  0  0  0  0  0
    0.2808    0.0055    1.0307 C   0  0  0  0  0  0  0  0  0  0  0  0
    0.1339   -0.8287    2.1346 O   0  0  0  0  0  0  0  0  0  0  0  0
   -0.8276   -0.3772    0.0601 C   0  0  0  0  0  0  0  0  0  0  0  0
   -0.7866   -1.6784   -0.3655 O   0  0  0  0  0  0  0  0  0  0  0  0
   -1.1736    0.7429   -0.9173 C   0  0  0  0  0  0  0  0  0  0  0  0
   -2.1478    0.2789    0.1241 C   0  0  0  0  0  0  0  0  0  0  0  0
    1.5698    1.3692   -1.0253 H   0  0  0  0  0  0  0  0  0  0  0  0
    1.8735   -0.2992   -1.7198 H   0  0  0  0  0  0  0  0  0  0  0  0
    3.1521    0.4805   -0.7629 H   0  0  0  0  0  0  0  0  0  0  0  0
    0.2032    1.0710    1.3248 H   0  0  0  0  0  0  0  0  0  0  0  0
    0.6802   -0.5119    2.8962 H   0  0  0  0  0  0  0  0  0  0  0  0
   -1.3968   -1.8760   -1.1163 H   0  0  0  0  0  0  0  0  0  0  0  0
   -1.2803    0.3780   -1.9506 H   0  0  0  0  0  0  0  0  0  0  0  0
   -0.7827    1.7470   -0.7607 H   0  0  0  0  0  0  0  0  0  0  0  0
   -3.0071   -0.2755   -0.2677 H   0  0  0  0  0  0  0  0  0  0  0  0
   -2.3580    0.8865    1.0059 H   0  0  0  0  0  0  0  0  0  0  0  0
  1  2  1  0
  2  3  2  0
  2  4  1  0
  4  5  1  0
  4  6  1  0
  6  7  1  0
  6  8  1  0
  8  9  1  0
  9  6  1  0
  1 10  1  0
  1 11  1  0
  1 12  1  0
  4 13  1  0
  5 14  1  0
  7 15  1  0
  8 16  1  0
  8 17  1  0
  9 18  1  0
  9 19  1  0
M  END
