
     RDKit          3D

 17 18  0  0  0  0  0  0  0  0999 V2000
    3.1916    0.0567    0.4433 C   0  0  0  0  0  0  0  0  0  0  0  0
    1.8104   -0.3894    0.1230 C   0  0  0  0  0  0  0  0  0  0  0  0
    1.6531   -1.4858   -0.4561 O   0  0  0  0  0  0  0  0  0  0  0  0
    0.6795    0.3500    0.4340 O   0  0  0  0  0  0  0  0  0  0  0  0
   -0.5728   -0.1496    0.0942 C   0  0  0  0  0  0  0  0  0  0  0  0
   -1.5441    0.8597   -0.4344 C   0  0  0  0  0  0  0  0  0  0  0  0
   -2.6254   -0.1090   -0.0942 C   0  0  0  0  0  0  0  0  0  0  0  0
   -1.6733   -0.0370    1.0738 C   0  0  0  0  0  0  0  0  0  0  0  0
   -1.6457    1.3338    0.8641 O   0  0  0  0  0  0  0  0  0  0  0  0
    3.6002   -0.4141    1.3451 H   0  0  0  0  0  0  0  0  0  0  0  0
    3.8867   -0.1844   -0.4014 H   0  0  0  0  0  0  0  0  0  0  0  0
    3.2232    1.1628    0.5404 H   0  0  0  0  0  0  0  0  0  0  0  0
   -0.5843   -1.1388   -0.4199 H   0  0  0  0  0  0  0  0  0  0  0  0
   -1.4508    1.4096   -1.2740 H   0  0  0  0  0  0  0  0  0  0  0  0
   -2.5297   -1.0403   -0.6934 H   0  0  0  0  0  0  0  0  0  0  0  0
   -3.6273    0.2841    0.0601 H   0  0  0  0  0  0  0  0  0  0  0  0
   -1.7912   -0.5083    1.9569 H   0  0  0  0  0  0  0  0  0  0  0  0
  1  2  1  0
  2  3  2  0
  2  4  1  0
  4  5  1  0
  5  6  1  0
  6  7  1  0
  7  8  1  0
  8  9  1  0
  8  5  1  0
  9  6  1  0
  1 10  1  0
  1 11  1  0
  1 12  1  0
  5 13  1  0
  6 14  1  0
  7 15  1  0
  7 16  1  0
  8 17  1  0
M  END
