
     RDKit          3D

 19 18  0  0  0  0  0  0  0  0999 V2000
    3.1772   -0.1102    0.3688 C   0  0  0  0  0  0  0  0  0  0  0  0
    1.9400   -0.5261   -0.3656 C   0  0  0  0  0  0  0  0  0  0  0  0
    1.9383   -1.3942   -1.1957 O   0  0  0  0  0  0  0  0  0  0  0  0
    0.6753    0.1780   -0.0373 C   0  0  0  0  0  0  0  0  0  0  0  0
   -0.4593   -0.3287   -0.8306 C   0  0  0  0  0  0  0  0  0  0  0  0
   -0.3114   -1.2231   -1.6449 O   0  0  0  0  0  0  0  0  0  0  0  0
   -1.8046    0.2419   -0.6519 C   0  0  0  0  0  0  0  0  0  0  0  0
   -2.1655    0.1506    0.8112 C   0  0  0  0  0  0  0  0  0  0  0  0
   -2.7461   -0.3536   -1.4775 O   0  0  0  0  0  0  0  0  0  0  0  0
    3.5206   -0.8948    1.0610 H   0  0  0  0  0  0  0  0  0  0  0  0
    3.0369    0.8645    0.8553 H   0  0  0  0  0  0  0  0  0  0  0  0
    3.9472    0.0653   -0.4390 H   0  0  0  0  0  0  0  0  0  0  0  0
    0.7631    1.2810   -0.1675 H   0  0  0  0  0  0  0  0  0  0  0  0
    0.5098    0.0333    1.0686 H   0  0  0  0  0  0  0  0  0  0  0  0
   -1.8000    1.3359   -0.9240 H   0  0  0  0  0  0  0  0  0  0  0  0
   -1.4816    0.8243    1.3598 H   0  0  0  0  0  0  0  0  0  0  0  0
   -2.0277   -0.9055    1.1455 H   0  0  0  0  0  0  0  0  0  0  0  0
   -3.2209    0.4717    0.9098 H   0  0  0  0  0  0  0  0  0  0  0  0
   -3.4913    0.2896   -1.5938 H   0  0  0  0  0  0  0  0  0  0  0  0
  1  2  1  0
  2  3  2  0
  2  4  1  0
  4  5  1  0
  5  6  2  0
  5  7  1  0
  7  8  1  0
  7  9  1  0
  1 10  1  0
  1 11  1  0
  1 12  1  0
  4 13  1  0
  4 14  1  0
  7 15  1  0
  8 16  1  0
  8 17  1  0
  8 18  1  0
  9 19  1  0
M  END
