
     RDKit          3D

 19 20  0  0  0  0  0  0  0  0999 V2000
    2.8881    0.3119   -0.1389 C   0  0  0  0  0  0  0  0  0  0  0  0
    1.4516    0.4742   -0.4790 C   0  0  0  0  0  0  0  0  0  0  0  0
    1.1491    1.3362   -1.2804 O   0  0  0  0  0  0  0  0  0  0  0  0
    0.4550   -0.3891    0.1453 C   0  0  0  0  0  0  0  0  0  0  0  0
   -0.5599   -1.0263   -0.8345 C   0  0  0  0  0  0  0  0  0  0  0  0
   -1.4704   -1.9180   -0.3446 O   0  0  0  0  0  0  0  0  0  0  0  0
   -1.8843   -1.1412    0.7382 C   0  0  0  0  0  0  0  0  0  0  0  0
   -0.9700   -0.0408    0.2520 C   0  0  0  0  0  0  0  0  0  0  0  0
   -1.5457    1.2316   -0.2697 C   0  0  0  0  0  0  0  0  0  0  0  0
    3.4104    1.3043   -0.1273 H   0  0  0  0  0  0  0  0  0  0  0  0
    3.0386   -0.1837    0.8428 H   0  0  0  0  0  0  0  0  0  0  0  0
    3.4181   -0.3070   -0.9019 H   0  0  0  0  0  0  0  0  0  0  0  0
    0.8152   -1.1540    0.8689 H   0  0  0  0  0  0  0  0  0  0  0  0
   -0.5379   -0.7012   -1.8779 H   0  0  0  0  0  0  0  0  0  0  0  0
   -1.5619   -1.6274    1.6904 H   0  0  0  0  0  0  0  0  0  0  0  0
   -2.9429   -0.8768    0.6658 H   0  0  0  0  0  0  0  0  0  0  0  0
   -1.2977    2.1175    0.3508 H   0  0  0  0  0  0  0  0  0  0  0  0
   -1.2091    1.4759   -1.3041 H   0  0  0  0  0  0  0  0  0  0  0  0
   -2.6464    1.1139   -0.3328 H   0  0  0  0  0  0  0  0  0  0  0  0
  1  2  1  0
  2  3  2  0
  2  4  1  0
  4  5  1  0
  5  6  1  0
  6  7  1  0
  7  8  1  0
  8  9  1  0
  8  4  1  0
  8  5  1  0
  1 10  1  0
  1 11  1  0
  1 12  1  0
  4 13  1  0
  5 14  1  0
  7 15  1  0
  7 16  1  0
  9 17  1  0
  9 18  1  0
  9 19  1  0
M  END
