
     RDKit          3D

 18 17  0  0  0  0  0  0  0  0999 V2000
    3.4178   -0.0989   -0.0992 C   0  0  0  0  0  0  0  0  0  0  0  0
    2.0112    0.0641   -0.6035 C   0  0  0  0  0  0  0  0  0  0  0  0
    1.8186    0.4341   -1.7782 O   0  0  0  0  0  0  0  0  0  0  0  0
    0.9171   -0.1876    0.2077 O   0  0  0  0  0  0  0  0  0  0  0  0
   -0.3832   -0.0102   -0.3434 C   0  0  0  0  0  0  0  0  0  0  0  0
   -1.4576   -0.3258    0.6708 C   0  0  0  0  0  0  0  0  0  0  0  0
   -2.7911   -0.1641   -0.0162 C   0  0  0  0  0  0  0  0  0  0  0  0
   -1.3368    0.5121    1.7752 O   0  0  0  0  0  0  0  0  0  0  0  0
    3.4261   -0.8074    0.7623 H   0  0  0  0  0  0  0  0  0  0  0  0
    3.7264    0.9272    0.2335 H   0  0  0  0  0  0  0  0  0  0  0  0
    4.1131   -0.3850   -0.9001 H   0  0  0  0  0  0  0  0  0  0  0  0
   -0.5450   -0.6569   -1.2388 H   0  0  0  0  0  0  0  0  0  0  0  0
   -0.5465    1.0390   -0.6767 H   0  0  0  0  0  0  0  0  0  0  0  0
   -1.3066   -1.3613    1.0269 H   0  0  0  0  0  0  0  0  0  0  0  0
   -2.6929   -0.1754   -1.1285 H   0  0  0  0  0  0  0  0  0  0  0  0
   -3.2761    0.8077    0.2324 H   0  0  0  0  0  0  0  0  0  0  0  0
   -3.4356   -1.0308    0.2595 H   0  0  0  0  0  0  0  0  0  0  0  0
   -1.6589    1.4194    1.6163 H   0  0  0  0  0  0  0  0  0  0  0  0
  1  2  1  0
  2  3  2  0
  2  4  1  0
  4  5  1  0
  5  6  1  0
  6  7  1  0
  6  8  1  0
  1  9  1  0
  1 10  1  0
  1 11  1  0
  5 12  1  0
  5 13  1  0
  6 14  1  0
  7 15  1  0
  7 16  1  0
  7 17  1  0
  8 18  1  0
M  END
