
     RDKit          3D

 16 16  0  0  0  0  0  0  0  0999 V2000
    2.1184   -0.5669    0.3534 C   0  0  0  0  0  0  0  0  0  0  0  0
    0.9508    0.3764    0.4418 C   0  0  0  0  0  0  0  0  0  0  0  0
    0.7692    0.9523    1.4788 O   0  0  0  0  0  0  0  0  0  0  0  0
    0.0451    0.6008   -0.6989 C   0  0  0  0  0  0  0  0  0  0  0  0
    0.3954   -0.1420   -1.8199 O   0  0  0  0  0  0  0  0  0  0  0  0
   -1.4027    0.3314   -0.3588 C   0  0  0  0  0  0  0  0  0  0  0  0
   -1.8707    0.0199    0.9649 C   0  0  0  0  0  0  0  0  0  0  0  0
   -1.7184   -1.0515   -0.0597 O   0  0  0  0  0  0  0  0  0  0  0  0
    2.2913   -0.8463   -0.7185 H   0  0  0  0  0  0  0  0  0  0  0  0
    2.0116   -1.4327    1.0130 H   0  0  0  0  0  0  0  0  0  0  0  0
    3.0180    0.0561    0.6210 H   0  0  0  0  0  0  0  0  0  0  0  0
    0.1328    1.6687   -0.9905 H   0  0  0  0  0  0  0  0  0  0  0  0
   -0.3929   -0.6174   -2.1742 H   0  0  0  0  0  0  0  0  0  0  0  0
   -2.1437    0.7255   -1.0845 H   0  0  0  0  0  0  0  0  0  0  0  0
   -2.9330    0.2164    1.2144 H   0  0  0  0  0  0  0  0  0  0  0  0
   -1.2709   -0.2906    1.8178 H   0  0  0  0  0  0  0  0  0  0  0  0
  1  2  1  0
  2  3  2  0
  2  4  1  0
  4  5  1  0
  4  6  1  0
  6  7  1  0
  7  8  1  0
  8  6  1  0
  1  9  1  0
  1 10  1  0
  1 11  1  0
  4 12  1  0
  5 13  1  0
  6 14  1  0
  7 15  1  0
  7 16  1  0
M  END
