
     RDKit          3D

 19 19  0  0  0  0  0  0  0  0999 V2000
    3.1320    0.1688    0.5722 C   0  0  0  0  0  0  0  0  0  0  0  0
    1.8735   -0.2037   -0.1778 C   0  0  0  0  0  0  0  0  0  0  0  0
    1.7219   -1.3917   -0.5492 O   0  0  0  0  0  0  0  0  0  0  0  0
    0.9519    0.7782   -0.4184 O   0  0  0  0  0  0  0  0  0  0  0  0
   -0.2500    0.5825   -1.0840 C   0  0  0  0  0  0  0  0  0  0  0  0
   -1.1539   -0.3395   -0.3052 C   0  0  0  0  0  0  0  0  0  0  0  0
   -0.7259   -1.6152   -0.0513 O   0  0  0  0  0  0  0  0  0  0  0  0
   -2.6136   -0.0236   -0.3308 C   0  0  0  0  0  0  0  0  0  0  0  0
   -1.8932    0.3780    0.8754 C   0  0  0  0  0  0  0  0  0  0  0  0
    3.5121    1.1597    0.2322 H   0  0  0  0  0  0  0  0  0  0  0  0
    3.8931   -0.6150    0.3766 H   0  0  0  0  0  0  0  0  0  0  0  0
    2.9018    0.2686    1.6544 H   0  0  0  0  0  0  0  0  0  0  0  0
   -0.0833    0.0745   -2.0815 H   0  0  0  0  0  0  0  0  0  0  0  0
   -0.7385    1.5730   -1.2401 H   0  0  0  0  0  0  0  0  0  0  0  0
   -0.6893   -1.7723    0.9396 H   0  0  0  0  0  0  0  0  0  0  0  0
   -3.3071   -0.8938   -0.2262 H   0  0  0  0  0  0  0  0  0  0  0  0
   -2.9538    0.7260   -1.0806 H   0  0  0  0  0  0  0  0  0  0  0  0
   -1.9967   -0.2534    1.7958 H   0  0  0  0  0  0  0  0  0  0  0  0
   -1.5808    1.3991    1.0991 H   0  0  0  0  0  0  0  0  0  0  0  0
  1  2  1  0
  2  3  2  0
  2  4  1  0
  4  5  1  0
  5  6  1  0
  6  7  1  0
  6  8  1  0
  8  9  1  0
  9  6  1  0
  1 10  1  0
  1 11  1  0
  1 12  1  0
  5 13  1  0
  5 14  1  0
  7 15  1  0
  8 16  1  0
  8 17  1  0
  9 18  1  0
  9 19  1  0
M  END
