
     RDKit          3D

 15 14  0  0  0  0  0  0  0  0999 V2000
    2.6307   -0.0752   -1.3163 C   0  0  0  0  0  0  0  0  0  0  0  0
    2.1238    0.2631    0.0406 C   0  0  0  0  0  0  0  0  0  0  0  0
    2.9722    0.6888    0.8654 O   0  0  0  0  0  0  0  0  0  0  0  0
    0.7322    0.0987    0.3537 C   0  0  0  0  0  0  0  0  0  0  0  0
   -0.4365   -0.0226    0.6291 C   0  0  0  0  0  0  0  0  0  0  0  0
   -1.8671   -0.1627    0.9902 C   0  0  0  0  0  0  0  0  0  0  0  0
   -2.2973   -1.4619    0.7379 O   0  0  0  0  0  0  0  0  0  0  0  0
   -2.6654    0.7611    0.1510 C   0  0  0  0  0  0  0  0  0  0  0  0
   -2.4566    1.9596    0.2104 O   0  0  0  0  0  0  0  0  0  0  0  0
    2.9766   -1.1251   -1.3547 H   0  0  0  0  0  0  0  0  0  0  0  0
    1.8070    0.1062   -2.0667 H   0  0  0  0  0  0  0  0  0  0  0  0
    3.4299    0.6221   -1.5772 H   0  0  0  0  0  0  0  0  0  0  0  0
   -1.9701    0.0651    2.0704 H   0  0  0  0  0  0  0  0  0  0  0  0
   -1.5545   -2.0886    0.7725 H   0  0  0  0  0  0  0  0  0  0  0  0
   -3.4249    0.3714   -0.5064 H   0  0  0  0  0  0  0  0  0  0  0  0
  1  2  1  0
  2  3  2  0
  2  4  1  0
  4  5  3  0
  5  6  1  0
  6  7  1  0
  6  8  1  0
  8  9  2  0
  1 10  1  0
  1 11  1  0
  1 12  1  0
  6 13  1  0
  7 14  1  0
  8 15  1  0
M  END
