
     RDKit          3D

 18 19  0  0  0  0  0  0  0  0999 V2000
    2.2489   -0.1335   -0.6651 C   0  0  0  0  0  0  0  0  0  0  0  0
    1.5605    0.3555    0.5617 C   0  0  0  0  0  0  0  0  0  0  0  0
    2.2734    0.8227    1.4332 O   0  0  0  0  0  0  0  0  0  0  0  0
    0.1203    0.3078    0.7727 C   0  0  0  0  0  0  0  0  0  0  0  0
   -0.5280   -1.0533    0.7487 C   0  0  0  0  0  0  0  0  0  0  0  0
   -1.5401   -0.5480   -0.2167 C   0  0  0  0  0  0  0  0  0  0  0  0
   -2.1888    0.7704   -0.0976 C   0  0  0  0  0  0  0  0  0  0  0  0
   -0.7473    0.6896   -0.3993 C   0  0  0  0  0  0  0  0  0  0  0  0
    3.2183    0.4167   -0.8139 H   0  0  0  0  0  0  0  0  0  0  0  0
    2.5107   -1.2043   -0.5282 H   0  0  0  0  0  0  0  0  0  0  0  0
    1.6534    0.0440   -1.5809 H   0  0  0  0  0  0  0  0  0  0  0  0
   -0.2117    0.8618    1.6679 H   0  0  0  0  0  0  0  0  0  0  0  0
    0.1453   -1.7860    0.2963 H   0  0  0  0  0  0  0  0  0  0  0  0
   -0.9701   -1.3841    1.7237 H   0  0  0  0  0  0  0  0  0  0  0  0
   -1.8295   -1.1978   -1.0564 H   0  0  0  0  0  0  0  0  0  0  0  0
   -2.9172    1.0348   -0.8612 H   0  0  0  0  0  0  0  0  0  0  0  0
   -2.4832    1.1164    0.9325 H   0  0  0  0  0  0  0  0  0  0  0  0
   -0.3149    0.8873   -1.3817 H   0  0  0  0  0  0  0  0  0  0  0  0
  1  2  1  0
  2  3  2  0
  2  4  1  0
  4  5  1  0
  5  6  1  0
  6  7  1  0
  7  8  1  0
  8  4  1  0
  8  6  1  0
  1  9  1  0
  1 10  1  0
  1 11  1  0
  4 12  1  0
  5 13  1  0
  5 14  1  0
  6 15  1  0
  7 16  1  0
  7 17  1  0
  8 18  1  0
M  END
