
     RDKit          3D

 21 21  0  0  0  0  0  0  0  0999 V2000
    1.8597   -1.1223    0.6664 C   0  0  0  0  0  0  0  0  0  0  0  0
    1.3993   -0.2589   -0.4629 C   0  0  0  0  0  0  0  0  0  0  0  0
    2.1782   -0.1690   -1.4025 O   0  0  0  0  0  0  0  0  0  0  0  0
    0.1083    0.4559   -0.4909 C   0  0  0  0  0  0  0  0  0  0  0  0
    0.0562    1.6102   -1.5000 C   0  0  0  0  0  0  0  0  0  0  0  0
   -1.1684   -0.2518   -0.2445 C   0  0  0  0  0  0  0  0  0  0  0  0
   -1.2348   -1.6467    0.2878 C   0  0  0  0  0  0  0  0  0  0  0  0
   -0.6342    0.7617    0.7627 C   0  0  0  0  0  0  0  0  0  0  0  0
   -1.4321    1.9068    0.8400 O   0  0  0  0  0  0  0  0  0  0  0  0
    2.9863   -1.0255    0.7724 H   0  0  0  0  0  0  0  0  0  0  0  0
    1.6687   -2.1859    0.5043 H   0  0  0  0  0  0  0  0  0  0  0  0
    1.4263   -0.7233    1.5842 H   0  0  0  0  0  0  0  0  0  0  0  0
   -0.9031    2.1328   -1.4655 H   0  0  0  0  0  0  0  0  0  0  0  0
    0.3879    1.3006   -2.4947 H   0  0  0  0  0  0  0  0  0  0  0  0
    0.8283    2.3428   -1.1239 H   0  0  0  0  0  0  0  0  0  0  0  0
   -2.0354    0.0303   -0.8863 H   0  0  0  0  0  0  0  0  0  0  0  0
   -0.9920   -2.4193   -0.4749 H   0  0  0  0  0  0  0  0  0  0  0  0
   -0.6854   -1.8035    1.2344 H   0  0  0  0  0  0  0  0  0  0  0  0
   -2.3135   -1.8291    0.5598 H   0  0  0  0  0  0  0  0  0  0  0  0
   -0.2962    0.4019    1.7411 H   0  0  0  0  0  0  0  0  0  0  0  0
   -1.2043    2.4924    1.5932 H   0  0  0  0  0  0  0  0  0  0  0  0
  1  2  1  0
  2  3  2  0
  2  4  1  0
  4  5  1  0
  4  6  1  0
  6  7  1  0
  6  8  1  0
  8  9  1  0
  8  4  1  0
  1 10  1  0
  1 11  1  0
  1 12  1  0
  5 13  1  0
  5 14  1  0
  5 15  1  0
  6 16  1  0
  7 17  1  0
  7 18  1  0
  7 19  1  0
  8 20  1  0
  9 21  1  0
M  END
