
     RDKit          3D

 21 21  0  0  0  0  0  0  0  0999 V2000
    2.9186    0.0677   -0.1667 C   0  0  0  0  0  0  0  0  0  0  0  0
    1.6704    0.5368    0.4553 C   0  0  0  0  0  0  0  0  0  0  0  0
    1.7323    1.0658    1.5524 O   0  0  0  0  0  0  0  0  0  0  0  0
    0.3506    0.3930   -0.1935 C   0  0  0  0  0  0  0  0  0  0  0  0
   -0.0009   -1.0606   -0.4667 C   0  0  0  0  0  0  0  0  0  0  0  0
   -1.4690   -1.2107   -0.1307 C   0  0  0  0  0  0  0  0  0  0  0  0
   -1.9851    0.1305    0.2614 C   0  0  0  0  0  0  0  0  0  0  0  0
   -2.6030    0.8135   -0.7885 O   0  0  0  0  0  0  0  0  0  0  0  0
   -0.7548    0.8515    0.7301 C   0  0  0  0  0  0  0  0  0  0  0  0
    3.7197   -0.0400    0.5936 H   0  0  0  0  0  0  0  0  0  0  0  0
    3.2100    0.7930   -0.9771 H   0  0  0  0  0  0  0  0  0  0  0  0
    2.8074   -0.9623   -0.6152 H   0  0  0  0  0  0  0  0  0  0  0  0
    0.2792    0.9966   -1.1382 H   0  0  0  0  0  0  0  0  0  0  0  0
    0.6084   -1.7633    0.1124 H   0  0  0  0  0  0  0  0  0  0  0  0
    0.0803   -1.2784   -1.5694 H   0  0  0  0  0  0  0  0  0  0  0  0
   -1.5549   -1.8841    0.7513 H   0  0  0  0  0  0  0  0  0  0  0  0
   -2.0623   -1.6345   -0.9560 H   0  0  0  0  0  0  0  0  0  0  0  0
   -2.7439    0.0937    1.0882 H   0  0  0  0  0  0  0  0  0  0  0  0
   -2.8457    1.7094   -0.4257 H   0  0  0  0  0  0  0  0  0  0  0  0
   -0.5041    0.4396    1.7413 H   0  0  0  0  0  0  0  0  0  0  0  0
   -0.8533    1.9430    0.7468 H   0  0  0  0  0  0  0  0  0  0  0  0
  1  2  1  0
  2  3  2  0
  2  4  1  0
  4  5  1  0
  5  6  1  0
  6  7  1  0
  7  8  1  0
  7  9  1  0
  9  4  1  0
  1 10  1  0
  1 11  1  0
  1 12  1  0
  4 13  1  0
  5 14  1  0
  5 15  1  0
  6 16  1  0
  6 17  1  0
  7 18  1  0
  8 19  1  0
  9 20  1  0
  9 21  1  0
M  END
