
     RDKit          3D

 19 19  0  0  0  0  0  0  0  0999 V2000
    2.6905   -0.0901   -0.0048 C   0  0  0  0  0  0  0  0  0  0  0  0
    1.3465   -0.6832   -0.1280 C   0  0  0  0  0  0  0  0  0  0  0  0
    1.2500   -1.9186   -0.2720 O   0  0  0  0  0  0  0  0  0  0  0  0
    0.1320    0.0960   -0.0904 C   0  0  0  0  0  0  0  0  0  0  0  0
    0.1331    1.4219    0.0599 C   0  0  0  0  0  0  0  0  0  0  0  0
   -1.3043    1.8356    0.0472 C   0  0  0  0  0  0  0  0  0  0  0  0
   -1.9121    0.6719    0.5786 O   0  0  0  0  0  0  0  0  0  0  0  0
   -1.2836   -0.2996   -0.1969 C   0  0  0  0  0  0  0  0  0  0  0  0
   -1.5528   -1.6971    0.2848 C   0  0  0  0  0  0  0  0  0  0  0  0
    2.6454    0.7380    0.7454 H   0  0  0  0  0  0  0  0  0  0  0  0
    3.4331   -0.8483    0.2410 H   0  0  0  0  0  0  0  0  0  0  0  0
    2.9596    0.4308   -0.9710 H   0  0  0  0  0  0  0  0  0  0  0  0
    1.0048    2.0520    0.1673 H   0  0  0  0  0  0  0  0  0  0  0  0
   -1.6386    2.0195   -0.9929 H   0  0  0  0  0  0  0  0  0  0  0  0
   -1.4032    2.6912    0.7148 H   0  0  0  0  0  0  0  0  0  0  0  0
   -1.6537   -0.1537   -1.2421 H   0  0  0  0  0  0  0  0  0  0  0  0
   -2.5673   -1.8205    0.7187 H   0  0  0  0  0  0  0  0  0  0  0  0
   -0.7515   -2.0745    0.9551 H   0  0  0  0  0  0  0  0  0  0  0  0
   -1.5277   -2.3710   -0.6146 H   0  0  0  0  0  0  0  0  0  0  0  0
  1  2  1  0
  2  3  2  0
  2  4  1  0
  4  5  2  0
  5  6  1  0
  6  7  1  0
  7  8  1  0
  8  9  1  0
  8  4  1  0
  1 10  1  0
  1 11  1  0
  1 12  1  0
  5 13  1  0
  6 14  1  0
  6 15  1  0
  8 16  1  0
  9 17  1  0
  9 18  1  0
  9 19  1  0
M  END
