
     RDKit          3D

 19 19  0  0  0  0  0  0  0  0999 V2000
   -3.0855   -0.0220    0.1994 C   0  0  0  0  0  0  0  0  0  0  0  0
   -1.6240    0.1017    0.5726 C   0  0  0  0  0  0  0  0  0  0  0  0
   -1.4014   -0.1109    1.7498 O   0  0  0  0  0  0  0  0  0  0  0  0
   -0.6563    0.4473   -0.4572 C   0  0  0  0  0  0  0  0  0  0  0  0
    0.3236    1.5464   -0.0333 C   0  0  0  0  0  0  0  0  0  0  0  0
    0.7658    0.1656   -0.4784 C   0  0  0  0  0  0  0  0  0  0  0  0
    1.5337   -0.5923    0.5309 C   0  0  0  0  0  0  0  0  0  0  0  0
    2.8174   -1.2714    0.2390 C   0  0  0  0  0  0  0  0  0  0  0  0
    1.1007   -0.6691    1.6585 O   0  0  0  0  0  0  0  0  0  0  0  0
   -3.2858    0.5420   -0.7377 H   0  0  0  0  0  0  0  0  0  0  0  0
   -3.2935   -1.0971    0.0130 H   0  0  0  0  0  0  0  0  0  0  0  0
   -3.7223    0.3259    1.0157 H   0  0  0  0  0  0  0  0  0  0  0  0
   -1.1291    0.6135   -1.4696 H   0  0  0  0  0  0  0  0  0  0  0  0
    0.4120    2.4005   -0.7027 H   0  0  0  0  0  0  0  0  0  0  0  0
    0.3878    1.8001    1.0445 H   0  0  0  0  0  0  0  0  0  0  0  0
    1.2581    0.1993   -1.4986 H   0  0  0  0  0  0  0  0  0  0  0  0
    3.6847   -0.7657    0.7512 H   0  0  0  0  0  0  0  0  0  0  0  0
    3.0724   -1.2963   -0.8295 H   0  0  0  0  0  0  0  0  0  0  0  0
    2.8417   -2.3172    0.6467 H   0  0  0  0  0  0  0  0  0  0  0  0
  1  2  1  0
  2  3  2  0
  2  4  1  0
  4  5  1  0
  5  6  1  0
  6  7  1  0
  7  8  1  0
  7  9  2  0
  6  4  1  0
  1 10  1  0
  1 11  1  0
  1 12  1  0
  4 13  1  0
  5 14  1  0
  5 15  1  0
  6 16  1  0
  8 17  1  0
  8 18  1  0
  8 19  1  0
M  END
