
     RDKit          3D

 14 14  0  0  0  0  0  0  0  0999 V2000
    2.1209   -0.1172   -0.4929 C   0  0  0  0  0  0  0  0  0  0  0  0
    0.8689    0.0081    0.2964 C   0  0  0  0  0  0  0  0  0  0  0  0
    0.9649    0.3005    1.4751 O   0  0  0  0  0  0  0  0  0  0  0  0
   -0.4563   -0.2056   -0.2891 C   0  0  0  0  0  0  0  0  0  0  0  0
   -1.6251   -0.6314    0.4972 C   0  0  0  0  0  0  0  0  0  0  0  0
   -1.4885    0.8480    0.1566 C   0  0  0  0  0  0  0  0  0  0  0  0
    2.6071    0.8735   -0.6735 H   0  0  0  0  0  0  0  0  0  0  0  0
    1.9182   -0.5414   -1.4979 H   0  0  0  0  0  0  0  0  0  0  0  0
    2.8945   -0.7284    0.0325 H   0  0  0  0  0  0  0  0  0  0  0  0
   -0.4464   -0.4679   -1.3677 H   0  0  0  0  0  0  0  0  0  0  0  0
   -2.4499   -1.1229   -0.0489 H   0  0  0  0  0  0  0  0  0  0  0  0
   -1.5616   -0.9429    1.5574 H   0  0  0  0  0  0  0  0  0  0  0  0
   -2.0948    1.2592   -0.6732 H   0  0  0  0  0  0  0  0  0  0  0  0
   -1.2517    1.4684    1.0279 H   0  0  0  0  0  0  0  0  0  0  0  0
  1  2  1  0
  2  3  2  0
  2  4  1  0
  4  5  1  0
  5  6  1  0
  6  4  1  0
  1  7  1  0
  1  8  1  0
  1  9  1  0
  4 10  1  0
  5 11  1  0
  5 12  1  0
  6 13  1  0
  6 14  1  0
M  END
