
     RDKit          3D

 17 16  0  0  0  0  0  0  0  0999 V2000
    2.0575    0.4182   -0.2338 C   0  0  0  0  0  0  0  0  0  0  0  0
    0.8838    0.0944    0.6065 C   0  0  0  0  0  0  0  0  0  0  0  0
    1.1015    0.1116    1.8089 O   0  0  0  0  0  0  0  0  0  0  0  0
   -0.4512   -0.2298    0.1598 C   0  0  0  0  0  0  0  0  0  0  0  0
   -0.9583    0.9849   -0.6395 C   0  0  0  0  0  0  0  0  0  0  0  0
   -1.3247   -0.4748    1.3261 C   0  0  0  0  0  0  0  0  0  0  0  0
   -1.3912   -1.5861    1.7887 O   0  0  0  0  0  0  0  0  0  0  0  0
   -0.5905   -1.3887   -0.7313 C   0  0  0  0  0  0  0  0  0  0  0  0
    0.2854   -2.0144   -1.2567 O   0  0  0  0  0  0  0  0  0  0  0  0
    1.8768    0.3386   -1.3112 H   0  0  0  0  0  0  0  0  0  0  0  0
    2.3380    1.4744   -0.0339 H   0  0  0  0  0  0  0  0  0  0  0  0
    2.8958   -0.2178    0.1205 H   0  0  0  0  0  0  0  0  0  0  0  0
   -1.5816    1.5776    0.0745 H   0  0  0  0  0  0  0  0  0  0  0  0
   -0.1015    1.6118   -0.9821 H   0  0  0  0  0  0  0  0  0  0  0  0
   -1.5416    0.6799   -1.5148 H   0  0  0  0  0  0  0  0  0  0  0  0
   -1.8887    0.3294    1.7502 H   0  0  0  0  0  0  0  0  0  0  0  0
   -1.6098   -1.7090   -0.9319 H   0  0  0  0  0  0  0  0  0  0  0  0
  1  2  1  0
  2  3  2  0
  2  4  1  0
  4  5  1  0
  4  6  1  0
  6  7  2  0
  4  8  1  0
  8  9  2  0
  1 10  1  0
  1 11  1  0
  1 12  1  0
  5 13  1  0
  5 14  1  0
  5 15  1  0
  6 16  1  0
  8 17  1  0
M  END
