
     RDKit          3D

 21 21  0  0  0  0  0  0  0  0999 V2000
   -2.7948    0.3074    0.1445 C   0  0  0  0  0  0  0  0  0  0  0  0
   -1.6239   -0.5525   -0.0932 C   0  0  0  0  0  0  0  0  0  0  0  0
   -1.8119   -1.6693   -0.5665 O   0  0  0  0  0  0  0  0  0  0  0  0
   -0.2221   -0.1346    0.2122 C   0  0  0  0  0  0  0  0  0  0  0  0
   -0.1157    1.2407    0.7832 C   0  0  0  0  0  0  0  0  0  0  0  0
    0.5917   -1.1891    0.9325 C   0  0  0  0  0  0  0  0  0  0  0  0
    0.8634   -0.7875   -0.5290 C   0  0  0  0  0  0  0  0  0  0  0  0
    2.2015   -0.1790   -0.7493 C   0  0  0  0  0  0  0  0  0  0  0  0
    2.1482    1.0351   -1.4497 O   0  0  0  0  0  0  0  0  0  0  0  0
   -3.2824   -0.0563    1.0844 H   0  0  0  0  0  0  0  0  0  0  0  0
   -2.5728    1.3752    0.1587 H   0  0  0  0  0  0  0  0  0  0  0  0
   -3.5160    0.1313   -0.6922 H   0  0  0  0  0  0  0  0  0  0  0  0
    0.8424    1.4772    1.2547 H   0  0  0  0  0  0  0  0  0  0  0  0
   -0.8996    1.3139    1.5942 H   0  0  0  0  0  0  0  0  0  0  0  0
   -0.4280    2.0328    0.0435 H   0  0  0  0  0  0  0  0  0  0  0  0
    0.1453   -2.2019    1.0832 H   0  0  0  0  0  0  0  0  0  0  0  0
    1.3259   -0.8871    1.6924 H   0  0  0  0  0  0  0  0  0  0  0  0
    0.5476   -1.5404   -1.3019 H   0  0  0  0  0  0  0  0  0  0  0  0
    2.7115    0.0749    0.2247 H   0  0  0  0  0  0  0  0  0  0  0  0
    2.8314   -0.9062   -1.3031 H   0  0  0  0  0  0  0  0  0  0  0  0
    3.0583    1.1153   -1.8806 H   0  0  0  0  0  0  0  0  0  0  0  0
  1  2  1  0
  2  3  2  0
  2  4  1  0
  4  5  1  0
  4  6  1  0
  6  7  1  0
  7  8  1  0
  8  9  1  0
  7  4  1  0
  1 10  1  0
  1 11  1  0
  1 12  1  0
  5 13  1  0
  5 14  1  0
  5 15  1  0
  6 16  1  0
  6 17  1  0
  7 18  1  0
  8 19  1  0
  8 20  1  0
  9 21  1  0
M  END
