
     RDKit          3D

 19 20  0  0  0  0  0  0  0  0999 V2000
    2.0355   -1.0524   -0.5788 C   0  0  0  0  0  0  0  0  0  0  0  0
    0.6948   -1.2440    0.0301 C   0  0  0  0  0  0  0  0  0  0  0  0
    0.2810   -2.3888    0.1122 O   0  0  0  0  0  0  0  0  0  0  0  0
   -0.0795   -0.0732    0.5065 C   0  0  0  0  0  0  0  0  0  0  0  0
    0.6624    0.8596    1.4253 C   0  0  0  0  0  0  0  0  0  0  0  0
   -1.3113   -0.4041    1.0509 O   0  0  0  0  0  0  0  0  0  0  0  0
   -1.8944    0.5231    0.2021 C   0  0  0  0  0  0  0  0  0  0  0  0
   -1.9682    0.1047   -1.2296 C   0  0  0  0  0  0  0  0  0  0  0  0
   -0.7097    0.6531   -0.6521 C   0  0  0  0  0  0  0  0  0  0  0  0
    2.2586   -1.8382   -1.3322 H   0  0  0  0  0  0  0  0  0  0  0  0
    2.0408   -0.0346   -1.0254 H   0  0  0  0  0  0  0  0  0  0  0  0
    2.7978   -1.1620    0.2148 H   0  0  0  0  0  0  0  0  0  0  0  0
    0.0913    1.0912    2.3596 H   0  0  0  0  0  0  0  0  0  0  0  0
    0.8161    1.8295    0.9090 H   0  0  0  0  0  0  0  0  0  0  0  0
    1.6317    0.4185    1.7746 H   0  0  0  0  0  0  0  0  0  0  0  0
   -2.4651    1.3670    0.5942 H   0  0  0  0  0  0  0  0  0  0  0  0
   -1.9812   -0.9882   -1.4944 H   0  0  0  0  0  0  0  0  0  0  0  0
   -2.5955    0.7112   -1.8830 H   0  0  0  0  0  0  0  0  0  0  0  0
   -0.3052    1.6277   -0.9835 H   0  0  0  0  0  0  0  0  0  0  0  0
  1  2  1  0
  2  3  2  0
  2  4  1  0
  4  5  1  0
  4  6  1  0
  6  7  1  0
  7  8  1  0
  8  9  1  0
  9  4  1  0
  9  7  1  0
  1 10  1  0
  1 11  1  0
  1 12  1  0
  5 13  1  0
  5 14  1  0
  5 15  1  0
  7 16  1  0
  8 17  1  0
  8 18  1  0
  9 19  1  0
M  END
