
     RDKit          3D

 21 21  0  0  0  0  0  0  0  0999 V2000
    2.5875    1.0587    0.4051 C   0  0  0  0  0  0  0  0  0  0  0  0
    1.2634    0.5405    0.8261 C   0  0  0  0  0  0  0  0  0  0  0  0
    0.9450    0.5716    1.9964 O   0  0  0  0  0  0  0  0  0  0  0  0
    0.3472   -0.0060   -0.1726 C   0  0  0  0  0  0  0  0  0  0  0  0
    1.0590   -1.1908   -0.8415 C   0  0  0  0  0  0  0  0  0  0  0  0
   -0.9794   -0.4316    0.3459 C   0  0  0  0  0  0  0  0  0  0  0  0
   -1.9351    0.4405    1.0096 C   0  0  0  0  0  0  0  0  0  0  0  0
   -2.2286    0.0944   -0.3963 C   0  0  0  0  0  0  0  0  0  0  0  0
   -3.2056   -0.8283   -0.7329 O   0  0  0  0  0  0  0  0  0  0  0  0
    2.5227    2.0627   -0.0720 H   0  0  0  0  0  0  0  0  0  0  0  0
    3.0556    0.3981   -0.3789 H   0  0  0  0  0  0  0  0  0  0  0  0
    3.3159    1.0756    1.2650 H   0  0  0  0  0  0  0  0  0  0  0  0
    0.1800    0.7244   -0.9978 H   0  0  0  0  0  0  0  0  0  0  0  0
    1.7941   -1.6445   -0.1306 H   0  0  0  0  0  0  0  0  0  0  0  0
    1.6432   -0.8527   -1.7129 H   0  0  0  0  0  0  0  0  0  0  0  0
    0.3272   -1.9761   -1.1341 H   0  0  0  0  0  0  0  0  0  0  0  0
   -1.0394   -1.5370    0.5665 H   0  0  0  0  0  0  0  0  0  0  0  0
   -2.6361   -0.0311    1.7571 H   0  0  0  0  0  0  0  0  0  0  0  0
   -1.7243    1.4956    1.2700 H   0  0  0  0  0  0  0  0  0  0  0  0
   -2.0476    0.9000   -1.1412 H   0  0  0  0  0  0  0  0  0  0  0  0
   -3.2448   -0.8640   -1.7310 H   0  0  0  0  0  0  0  0  0  0  0  0
  1  2  1  0
  2  3  2  0
  2  4  1  0
  4  5  1  0
  4  6  1  0
  6  7  1  0
  7  8  1  0
  8  9  1  0
  8  6  1  0
  1 10  1  0
  1 11  1  0
  1 12  1  0
  4 13  1  0
  5 14  1  0
  5 15  1  0
  5 16  1  0
  6 17  1  0
  7 18  1  0
  7 19  1  0
  8 20  1  0
  9 21  1  0
M  END
