
     RDKit          3D

 19 19  0  0  0  0  0  0  0  0999 V2000
    2.7649    0.4850    0.6940 C   0  0  0  0  0  0  0  0  0  0  0  0
    1.8234    0.2695   -0.4487 C   0  0  0  0  0  0  0  0  0  0  0  0
    1.9463    0.9202   -1.4547 O   0  0  0  0  0  0  0  0  0  0  0  0
    0.7474   -0.7619   -0.2979 C   0  0  0  0  0  0  0  0  0  0  0  0
   -0.5145   -0.0191    0.0556 C   0  0  0  0  0  0  0  0  0  0  0  0
   -0.8331    0.8816   -0.9618 O   0  0  0  0  0  0  0  0  0  0  0  0
   -2.1835    0.6708   -0.6637 C   0  0  0  0  0  0  0  0  0  0  0  0
   -1.8036   -0.7165   -0.2013 C   0  0  0  0  0  0  0  0  0  0  0  0
   -2.5286   -1.1229    0.9092 O   0  0  0  0  0  0  0  0  0  0  0  0
    3.7355    0.0828    0.3889 H   0  0  0  0  0  0  0  0  0  0  0  0
    2.7977    1.5844    0.9295 H   0  0  0  0  0  0  0  0  0  0  0  0
    2.4332   -0.0522    1.6034 H   0  0  0  0  0  0  0  0  0  0  0  0
    1.0317   -1.5421    0.4071 H   0  0  0  0  0  0  0  0  0  0  0  0
    0.6316   -1.2502   -1.3113 H   0  0  0  0  0  0  0  0  0  0  0  0
   -0.4276    0.4447    1.0518 H   0  0  0  0  0  0  0  0  0  0  0  0
   -2.4745    1.3333    0.1868 H   0  0  0  0  0  0  0  0  0  0  0  0
   -2.8342    0.7370   -1.5411 H   0  0  0  0  0  0  0  0  0  0  0  0
   -1.8016   -1.4725   -0.9884 H   0  0  0  0  0  0  0  0  0  0  0  0
   -2.5107   -0.4718    1.6425 H   0  0  0  0  0  0  0  0  0  0  0  0
  1  2  1  0
  2  3  2  0
  2  4  1  0
  4  5  1  0
  5  6  1  0
  6  7  1  0
  7  8  1  0
  8  9  1  0
  8  5  1  0
  1 10  1  0
  1 11  1  0
  1 12  1  0
  4 13  1  0
  4 14  1  0
  5 15  1  0
  7 16  1  0
  7 17  1  0
  8 18  1  0
  9 19  1  0
M  END
