
     RDKit          3D

 21 20  0  0  0  0  0  0  0  0999 V2000
    3.6195   -0.2983   -0.7854 C   0  0  0  0  0  0  0  0  0  0  0  0
    2.3247   -0.7269   -0.2170 C   0  0  0  0  0  0  0  0  0  0  0  0
    2.2952   -1.7526    0.5237 O   0  0  0  0  0  0  0  0  0  0  0  0
    1.1752    0.0110   -0.5134 O   0  0  0  0  0  0  0  0  0  0  0  0
   -0.0272   -0.4540    0.0624 C   0  0  0  0  0  0  0  0  0  0  0  0
   -1.2108    0.3921   -0.3045 C   0  0  0  0  0  0  0  0  0  0  0  0
   -1.0684    1.8254    0.1381 C   0  0  0  0  0  0  0  0  0  0  0  0
   -2.4156   -0.1942    0.4403 C   0  0  0  0  0  0  0  0  0  0  0  0
   -2.5848   -1.5109    0.0275 O   0  0  0  0  0  0  0  0  0  0  0  0
    4.2315    0.1457    0.0445 H   0  0  0  0  0  0  0  0  0  0  0  0
    3.4898    0.4543   -1.5722 H   0  0  0  0  0  0  0  0  0  0  0  0
    4.1412   -1.2027   -1.1599 H   0  0  0  0  0  0  0  0  0  0  0  0
   -0.2630   -1.4973   -0.2313 H   0  0  0  0  0  0  0  0  0  0  0  0
    0.0364   -0.4618    1.1806 H   0  0  0  0  0  0  0  0  0  0  0  0
   -1.4003    0.3433   -1.3964 H   0  0  0  0  0  0  0  0  0  0  0  0
   -0.3634    2.3929   -0.5009 H   0  0  0  0  0  0  0  0  0  0  0  0
   -0.8038    1.8222    1.2002 H   0  0  0  0  0  0  0  0  0  0  0  0
   -2.0670    2.3098   -0.0038 H   0  0  0  0  0  0  0  0  0  0  0  0
   -2.2357   -0.2072    1.5308 H   0  0  0  0  0  0  0  0  0  0  0  0
   -3.3337    0.3590    0.2510 H   0  0  0  0  0  0  0  0  0  0  0  0
   -3.5397   -1.7499    0.0013 H   0  0  0  0  0  0  0  0  0  0  0  0
  1  2  1  0
  2  3  2  0
  2  4  1  0
  4  5  1  0
  5  6  1  0
  6  7  1  0
  6  8  1  0
  8  9  1  0
  1 10  1  0
  1 11  1  0
  1 12  1  0
  5 13  1  0
  5 14  1  0
  6 15  1  0
  7 16  1  0
  7 17  1  0
  7 18  1  0
  8 19  1  0
  8 20  1  0
  9 21  1  0
M  END
