
     RDKit          3D

 15 14  0  0  0  0  0  0  0  0999 V2000
   -3.2641   -0.7033    0.3790 C   0  0  0  0  0  0  0  0  0  0  0  0
   -2.0076   -1.1375   -0.2752 C   0  0  0  0  0  0  0  0  0  0  0  0
   -2.0484   -2.1200   -1.0633 O   0  0  0  0  0  0  0  0  0  0  0  0
   -0.7820   -0.4404   -0.0034 C   0  0  0  0  0  0  0  0  0  0  0  0
    0.2715    0.1373    0.2274 C   0  0  0  0  0  0  0  0  0  0  0  0
    1.5177    0.7923    0.4999 C   0  0  0  0  0  0  0  0  0  0  0  0
    1.6401    1.6504    1.4298 O   0  0  0  0  0  0  0  0  0  0  0  0
    2.7026    0.4576   -0.3307 C   0  0  0  0  0  0  0  0  0  0  0  0
    3.8172    1.1713    0.0586 O   0  0  0  0  0  0  0  0  0  0  0  0
   -3.7167   -1.5295    0.9884 H   0  0  0  0  0  0  0  0  0  0  0  0
   -4.0488   -0.4323   -0.3672 H   0  0  0  0  0  0  0  0  0  0  0  0
   -3.0593    0.1250    1.0810 H   0  0  0  0  0  0  0  0  0  0  0  0
    2.5168    0.6270   -1.4088 H   0  0  0  0  0  0  0  0  0  0  0  0
    2.9501   -0.6273   -0.2265 H   0  0  0  0  0  0  0  0  0  0  0  0
    3.5108    2.0294    0.4459 H   0  0  0  0  0  0  0  0  0  0  0  0
  1  2  1  0
  2  3  2  0
  2  4  1  0
  4  5  3  0
  5  6  1  0
  6  7  2  0
  6  8  1  0
  8  9  1  0
  1 10  1  0
  1 11  1  0
  1 12  1  0
  8 13  1  0
  8 14  1  0
  9 15  1  0
M  END
