
     RDKit          3D

 21 22  0  0  0  0  0  0  0  0999 V2000
    2.6576   -0.1064   -0.6364 C   0  0  0  0  0  0  0  0  0  0  0  0
    1.2788    0.4109   -0.7135 C   0  0  0  0  0  0  0  0  0  0  0  0
    0.9870    1.2088   -1.5656 O   0  0  0  0  0  0  0  0  0  0  0  0
    0.2846   -0.0515    0.2453 C   0  0  0  0  0  0  0  0  0  0  0  0
   -0.0039   -1.5311    0.2662 C   0  0  0  0  0  0  0  0  0  0  0  0
   -1.4909   -1.1744    0.1993 C   0  0  0  0  0  0  0  0  0  0  0  0
   -1.1302    0.2841    0.2210 C   0  0  0  0  0  0  0  0  0  0  0  0
   -1.7633    1.2562   -0.7023 C   0  0  0  0  0  0  0  0  0  0  0  0
   -0.2680    0.8064    1.3157 C   0  0  0  0  0  0  0  0  0  0  0  0
    3.2425    0.0372   -1.5632 H   0  0  0  0  0  0  0  0  0  0  0  0
    3.1859    0.3183    0.2586 H   0  0  0  0  0  0  0  0  0  0  0  0
    2.5703   -1.2086   -0.4077 H   0  0  0  0  0  0  0  0  0  0  0  0
    0.3834   -2.0307   -0.6432 H   0  0  0  0  0  0  0  0  0  0  0  0
    0.2966   -2.0139    1.2170 H   0  0  0  0  0  0  0  0  0  0  0  0
   -2.0294   -1.5612    1.0802 H   0  0  0  0  0  0  0  0  0  0  0  0
   -1.9037   -1.5199   -0.7489 H   0  0  0  0  0  0  0  0  0  0  0  0
   -2.6578    1.7041   -0.1781 H   0  0  0  0  0  0  0  0  0  0  0  0
   -2.0636    0.8364   -1.6784 H   0  0  0  0  0  0  0  0  0  0  0  0
   -1.0750    2.0856   -0.9001 H   0  0  0  0  0  0  0  0  0  0  0  0
   -0.0123    1.8718    1.2894 H   0  0  0  0  0  0  0  0  0  0  0  0
   -0.4886    0.3780    2.3195 H   0  0  0  0  0  0  0  0  0  0  0  0
  1  2  1  0
  2  3  2  0
  2  4  1  0
  4  5  1  0
  5  6  1  0
  6  7  1  0
  7  8  1  0
  7  9  1  0
  7  4  1  0
  9  4  1  0
  1 10  1  0
  1 11  1  0
  1 12  1  0
  5 13  1  0
  5 14  1  0
  6 15  1  0
  6 16  1  0
  8 17  1  0
  8 18  1  0
  8 19  1  0
  9 20  1  0
  9 21  1  0
M  END
