
     RDKit          3D

 20 20  0  0  0  0  0  0  0  0999 V2000
    2.2536    0.5974   -0.4055 C   0  0  0  0  0  0  0  0  0  0  0  0
    1.4838   -0.6334   -0.6075 C   0  0  0  0  0  0  0  0  0  0  0  0
    1.9290   -1.3904   -1.4944 O   0  0  0  0  0  0  0  0  0  0  0  0
    0.2873   -1.0767    0.0896 C   0  0  0  0  0  0  0  0  0  0  0  0
   -0.1349   -0.5749    1.4067 C   0  0  0  0  0  0  0  0  0  0  0  0
   -0.8542   -0.0651    0.2189 C   0  0  0  0  0  0  0  0  0  0  0  0
   -0.6849    1.3589   -0.1861 C   0  0  0  0  0  0  0  0  0  0  0  0
   -2.2028   -0.6520   -0.1700 C   0  0  0  0  0  0  0  0  0  0  0  0
    2.3127    1.1955   -1.3404 H   0  0  0  0  0  0  0  0  0  0  0  0
    3.3477    0.3676   -0.1912 H   0  0  0  0  0  0  0  0  0  0  0  0
    1.9103    1.2533    0.4094 H   0  0  0  0  0  0  0  0  0  0  0  0
   -0.0301   -2.1218   -0.1796 H   0  0  0  0  0  0  0  0  0  0  0  0
   -0.6012   -1.3079    2.0996 H   0  0  0  0  0  0  0  0  0  0  0  0
    0.4806    0.1760    1.9613 H   0  0  0  0  0  0  0  0  0  0  0  0
   -1.6847    1.8218   -0.3906 H   0  0  0  0  0  0  0  0  0  0  0  0
    0.0179    1.5393   -1.0013 H   0  0  0  0  0  0  0  0  0  0  0  0
   -0.3171    1.9276    0.7182 H   0  0  0  0  0  0  0  0  0  0  0  0
   -2.1892   -0.7351   -1.2788 H   0  0  0  0  0  0  0  0  0  0  0  0
   -2.2814   -1.6715    0.2354 H   0  0  0  0  0  0  0  0  0  0  0  0
   -3.0424   -0.0087    0.1061 H   0  0  0  0  0  0  0  0  0  0  0  0
  1  2  1  0
  2  3  2  0
  2  4  1  0
  4  5  1  0
  5  6  1  0
  6  7  1  0
  6  8  1  0
  6  4  1  0
  1  9  1  0
  1 10  1  0
  1 11  1  0
  4 12  1  0
  5 13  1  0
  5 14  1  0
  7 15  1  0
  7 16  1  0
  7 17  1  0
  8 18  1  0
  8 19  1  0
  8 20  1  0
M  END
