
     RDKit          3D

 19 19  0  0  0  0  0  0  0  0999 V2000
   -2.3709   -0.2558   -0.6946 C   0  0  0  0  0  0  0  0  0  0  0  0
   -1.0974    0.3936   -0.2844 C   0  0  0  0  0  0  0  0  0  0  0  0
   -0.9344    1.5769   -0.5140 O   0  0  0  0  0  0  0  0  0  0  0  0
   -0.0856   -0.4198    0.3824 C   0  0  0  0  0  0  0  0  0  0  0  0
   -0.4409   -1.7526    0.5630 O   0  0  0  0  0  0  0  0  0  0  0  0
    0.5640    0.1658    1.6050 C   0  0  0  0  0  0  0  0  0  0  0  0
    1.8098   -0.2371    1.1391 O   0  0  0  0  0  0  0  0  0  0  0  0
    1.3162   -0.3364   -0.1601 C   0  0  0  0  0  0  0  0  0  0  0  0
    1.6344    0.9073   -0.9530 C   0  0  0  0  0  0  0  0  0  0  0  0
   -2.5942    0.0868   -1.7464 H   0  0  0  0  0  0  0  0  0  0  0  0
   -2.3425   -1.3436   -0.6188 H   0  0  0  0  0  0  0  0  0  0  0  0
   -3.2385    0.1225   -0.0933 H   0  0  0  0  0  0  0  0  0  0  0  0
    0.1824   -2.2099    1.1813 H   0  0  0  0  0  0  0  0  0  0  0  0
    0.4656    1.2469    1.7426 H   0  0  0  0  0  0  0  0  0  0  0  0
    0.2592   -0.3558    2.5560 H   0  0  0  0  0  0  0  0  0  0  0  0
    1.6821   -1.2435   -0.6424 H   0  0  0  0  0  0  0  0  0  0  0  0
    1.0188    0.9703   -1.8901 H   0  0  0  0  0  0  0  0  0  0  0  0
    2.7112    0.8525   -1.2201 H   0  0  0  0  0  0  0  0  0  0  0  0
    1.4608    1.8319   -0.3521 H   0  0  0  0  0  0  0  0  0  0  0  0
  1  2  1  0
  2  3  2  0
  2  4  1  0
  4  5  1  0
  4  6  1  0
  6  7  1  0
  7  8  1  0
  8  9  1  0
  8  4  1  0
  1 10  1  0
  1 11  1  0
  1 12  1  0
  5 13  1  0
  6 14  1  0
  6 15  1  0
  8 16  1  0
  9 17  1  0
  9 18  1  0
  9 19  1  0
M  END
