
     RDKit          3D

 17 16  0  0  0  0  0  0  0  0999 V2000
   -1.2226    2.3292   -0.4114 C   0  0  0  0  0  0  0  0  0  0  0  0
   -0.8485    0.9123   -0.6416 C   0  0  0  0  0  0  0  0  0  0  0  0
   -0.2074    0.6068   -1.6171 O   0  0  0  0  0  0  0  0  0  0  0  0
   -1.2692   -0.1202    0.3359 C   0  0  0  0  0  0  0  0  0  0  0  0
   -0.7738   -1.4574   -0.1160 C   0  0  0  0  0  0  0  0  0  0  0  0
    0.6924   -1.3743   -0.1874 C   0  0  0  0  0  0  0  0  0  0  0  0
    1.8984   -1.3202   -0.2306 C   0  0  0  0  0  0  0  0  0  0  0  0
    3.3494   -1.2802   -0.2860 C   0  0  0  0  0  0  0  0  0  0  0  0
    3.9350   -0.1568   -0.3210 O   0  0  0  0  0  0  0  0  0  0  0  0
   -1.2739    2.5027    0.6789 H   0  0  0  0  0  0  0  0  0  0  0  0
   -0.4491    2.9899   -0.8773 H   0  0  0  0  0  0  0  0  0  0  0  0
   -2.2348    2.5628   -0.8399 H   0  0  0  0  0  0  0  0  0  0  0  0
   -2.3909   -0.1917    0.3812 H   0  0  0  0  0  0  0  0  0  0  0  0
   -0.9153    0.1427    1.3440 H   0  0  0  0  0  0  0  0  0  0  0  0
   -1.0679   -2.2755    0.5680 H   0  0  0  0  0  0  0  0  0  0  0  0
   -1.1746   -1.7121   -1.1138 H   0  0  0  0  0  0  0  0  0  0  0  0
    3.9527   -2.1581   -0.2989 H   0  0  0  0  0  0  0  0  0  0  0  0
  1  2  1  0
  2  3  2  0
  2  4  1  0
  4  5  1  0
  5  6  1  0
  6  7  3  0
  7  8  1  0
  8  9  2  0
  1 10  1  0
  1 11  1  0
  1 12  1  0
  4 13  1  0
  4 14  1  0
  5 15  1  0
  5 16  1  0
  8 17  1  0
M  END
