
     RDKit          3D

 23 22  0  0  0  0  0  0  0  0999 V2000
    1.6684   -1.6927    0.4506 C   0  0  0  0  0  0  0  0  0  0  0  0
    1.5376   -0.3603   -0.2157 C   0  0  0  0  0  0  0  0  0  0  0  0
    2.1412   -0.2687   -1.2726 O   0  0  0  0  0  0  0  0  0  0  0  0
    0.7823    0.7794    0.2806 C   0  0  0  0  0  0  0  0  0  0  0  0
    0.9621    1.9313   -0.7068 C   0  0  0  0  0  0  0  0  0  0  0  0
   -0.6259    0.6024    0.6775 C   0  0  0  0  0  0  0  0  0  0  0  0
   -1.6140    0.1542   -0.3381 C   0  0  0  0  0  0  0  0  0  0  0  0
   -1.2510   -1.2001   -0.8777 C   0  0  0  0  0  0  0  0  0  0  0  0
   -2.8550   -0.0252    0.3165 O   0  0  0  0  0  0  0  0  0  0  0  0
    1.5008   -2.4857   -0.3210 H   0  0  0  0  0  0  0  0  0  0  0  0
    2.7096   -1.8302    0.8069 H   0  0  0  0  0  0  0  0  0  0  0  0
    0.9349   -1.8500    1.2463 H   0  0  0  0  0  0  0  0  0  0  0  0
    1.3423    1.1396    1.2051 H   0  0  0  0  0  0  0  0  0  0  0  0
    0.2823    2.7635   -0.5105 H   0  0  0  0  0  0  0  0  0  0  0  0
    0.7771    1.5032   -1.7164 H   0  0  0  0  0  0  0  0  0  0  0  0
    2.0302    2.2267   -0.6929 H   0  0  0  0  0  0  0  0  0  0  0  0
   -0.9952    1.6009    1.0743 H   0  0  0  0  0  0  0  0  0  0  0  0
   -0.6680   -0.0416    1.5922 H   0  0  0  0  0  0  0  0  0  0  0  0
   -1.7252    0.9099   -1.1550 H   0  0  0  0  0  0  0  0  0  0  0  0
   -1.1267   -1.8625    0.0170 H   0  0  0  0  0  0  0  0  0  0  0  0
   -2.1159   -1.6566   -1.4374 H   0  0  0  0  0  0  0  0  0  0  0  0
   -0.3741   -1.1800   -1.5101 H   0  0  0  0  0  0  0  0  0  0  0  0
   -3.3177    0.8424    0.4316 H   0  0  0  0  0  0  0  0  0  0  0  0
  1  2  1  0
  2  3  2  0
  2  4  1  0
  4  5  1  0
  4  6  1  0
  6  7  1  0
  7  8  1  0
  7  9  1  0
  1 10  1  0
  1 11  1  0
  1 12  1  0
  4 13  1  0
  5 14  1  0
  5 15  1  0
  5 16  1  0
  6 17  1  0
  6 18  1  0
  7 19  1  0
  8 20  1  0
  8 21  1  0
  8 22  1  0
  9 23  1  0
M  END
