
     RDKit          3D

 21 20  0  0  0  0  0  0  0  0999 V2000
   -3.5889    0.3586   -0.4288 C   0  0  0  0  0  0  0  0  0  0  0  0
   -2.3571    0.1617    0.3578 C   0  0  0  0  0  0  0  0  0  0  0  0
   -2.4095    0.0830    1.5587 O   0  0  0  0  0  0  0  0  0  0  0  0
   -1.0597    0.0616   -0.3356 C   0  0  0  0  0  0  0  0  0  0  0  0
   -0.0029   -0.1223    0.5520 O   0  0  0  0  0  0  0  0  0  0  0  0
    1.1871   -0.2111   -0.1280 C   0  0  0  0  0  0  0  0  0  0  0  0
    1.9071   -1.5131    0.2053 C   0  0  0  0  0  0  0  0  0  0  0  0
    2.1070    0.9318    0.2955 C   0  0  0  0  0  0  0  0  0  0  0  0
    3.3174    0.8869   -0.3606 O   0  0  0  0  0  0  0  0  0  0  0  0
   -3.7584   -0.5903   -1.0039 H   0  0  0  0  0  0  0  0  0  0  0  0
   -3.3705    1.1474   -1.2031 H   0  0  0  0  0  0  0  0  0  0  0  0
   -4.4687    0.6191    0.1852 H   0  0  0  0  0  0  0  0  0  0  0  0
   -0.8468    0.9946   -0.9140 H   0  0  0  0  0  0  0  0  0  0  0  0
   -1.1282   -0.7469   -1.0836 H   0  0  0  0  0  0  0  0  0  0  0  0
    1.0653   -0.1193   -1.2327 H   0  0  0  0  0  0  0  0  0  0  0  0
    1.9724   -1.5895    1.2944 H   0  0  0  0  0  0  0  0  0  0  0  0
    2.9275   -1.4805   -0.2345 H   0  0  0  0  0  0  0  0  0  0  0  0
    1.3987   -2.3786   -0.2691 H   0  0  0  0  0  0  0  0  0  0  0  0
    1.6263    1.9145    0.1247 H   0  0  0  0  0  0  0  0  0  0  0  0
    2.3127    0.8811    1.3901 H   0  0  0  0  0  0  0  0  0  0  0  0
    3.1693    0.7114   -1.3118 H   0  0  0  0  0  0  0  0  0  0  0  0
  1  2  1  0
  2  3  2  0
  2  4  1  0
  4  5  1  0
  5  6  1  0
  6  7  1  0
  6  8  1  0
  8  9  1  0
  1 10  1  0
  1 11  1  0
  1 12  1  0
  4 13  1  0
  4 14  1  0
  6 15  1  0
  7 16  1  0
  7 17  1  0
  7 18  1  0
  8 19  1  0
  8 20  1  0
  9 21  1  0
M  END
