
     RDKit          3D

 15 14  0  0  0  0  0  0  0  0999 V2000
   -1.4152    0.5556    0.9359 C   0  0  0  0  0  0  0  0  0  0  0  0
   -1.6436   -0.4232   -0.1664 C   0  0  0  0  0  0  0  0  0  0  0  0
   -2.8164   -0.6004   -0.5295 O   0  0  0  0  0  0  0  0  0  0  0  0
   -0.5263   -1.1629   -0.8111 C   0  0  0  0  0  0  0  0  0  0  0  0
    0.7409   -0.8363   -0.3272 O   0  0  0  0  0  0  0  0  0  0  0  0
    1.3505    0.3951   -0.3758 C   0  0  0  0  0  0  0  0  0  0  0  0
    0.7342    1.3409   -0.9040 O   0  0  0  0  0  0  0  0  0  0  0  0
    2.6734    0.5520    0.1817 C   0  0  0  0  0  0  0  0  0  0  0  0
    3.2846   -0.4074    0.7111 O   0  0  0  0  0  0  0  0  0  0  0  0
   -1.5900    1.5679    0.5169 H   0  0  0  0  0  0  0  0  0  0  0  0
   -0.4221    0.4447    1.4048 H   0  0  0  0  0  0  0  0  0  0  0  0
   -2.2340    0.4250    1.6919 H   0  0  0  0  0  0  0  0  0  0  0  0
   -0.5939   -1.1211   -1.9187 H   0  0  0  0  0  0  0  0  0  0  0  0
   -0.6966   -2.2490   -0.5543 H   0  0  0  0  0  0  0  0  0  0  0  0
    3.1544    1.5191    0.1446 H   0  0  0  0  0  0  0  0  0  0  0  0
  1  2  1  0
  2  3  2  0
  2  4  1  0
  4  5  1  0
  5  6  1  0
  6  7  2  0
  6  8  1  0
  8  9  2  0
  1 10  1  0
  1 11  1  0
  1 12  1  0
  4 13  1  0
  4 14  1  0
  8 15  1  0
M  END
