
     RDKit          3D

 14 13  0  0  0  0  0  0  0  0999 V2000
   -2.6444   -0.7624   -0.3506 C   0  0  0  0  0  0  0  0  0  0  0  0
   -1.7210   -0.8317    0.8016 C   0  0  0  0  0  0  0  0  0  0  0  0
   -2.1620   -1.2413    1.9050 O   0  0  0  0  0  0  0  0  0  0  0  0
   -0.3240   -0.4417    0.6965 C   0  0  0  0  0  0  0  0  0  0  0  0
    0.8303   -0.1086    0.5920 C   0  0  0  0  0  0  0  0  0  0  0  0
    2.2239    0.3149    0.4631 C   0  0  0  0  0  0  0  0  0  0  0  0
    2.3664    1.4716   -0.4525 C   0  0  0  0  0  0  0  0  0  0  0  0
    1.3604    1.9239   -0.9725 O   0  0  0  0  0  0  0  0  0  0  0  0
   -2.6231   -1.6939   -0.9481 H   0  0  0  0  0  0  0  0  0  0  0  0
   -2.3750    0.0641   -1.0531 H   0  0  0  0  0  0  0  0  0  0  0  0
   -3.6606   -0.6208    0.0292 H   0  0  0  0  0  0  0  0  0  0  0  0
    2.8214   -0.5215    0.0164 H   0  0  0  0  0  0  0  0  0  0  0  0
    2.6049    0.5093    1.4814 H   0  0  0  0  0  0  0  0  0  0  0  0
    3.3029    1.9382   -0.6877 H   0  0  0  0  0  0  0  0  0  0  0  0
  1  2  1  0
  2  3  2  0
  2  4  1  0
  4  5  3  0
  5  6  1  0
  6  7  1  0
  7  8  2  0
  1  9  1  0
  1 10  1  0
  1 11  1  0
  6 12  1  0
  6 13  1  0
  7 14  1  0
M  END
