
     RDKit          3D

 16 16  0  0  0  0  0  0  0  0999 V2000
    2.3448   -0.1938   -0.2302 C   0  0  0  0  0  0  0  0  0  0  0  0
    1.1664   -0.3873    0.6585 C   0  0  0  0  0  0  0  0  0  0  0  0
    1.1613   -1.1306    1.6224 O   0  0  0  0  0  0  0  0  0  0  0  0
   -0.0658    0.3660    0.3522 C   0  0  0  0  0  0  0  0  0  0  0  0
   -0.6828   -0.0697   -0.9702 C   0  0  0  0  0  0  0  0  0  0  0  0
   -1.9984    0.3588   -0.7959 O   0  0  0  0  0  0  0  0  0  0  0  0
   -2.2808    0.1923    0.5382 C   0  0  0  0  0  0  0  0  0  0  0  0
   -1.0938    0.1144    1.2343 O   0  0  0  0  0  0  0  0  0  0  0  0
    3.1747   -0.8905    0.0350 H   0  0  0  0  0  0  0  0  0  0  0  0
    2.7216    0.8494   -0.0905 H   0  0  0  0  0  0  0  0  0  0  0  0
    2.0981   -0.3123   -1.2958 H   0  0  0  0  0  0  0  0  0  0  0  0
    0.1122    1.4500    0.2776 H   0  0  0  0  0  0  0  0  0  0  0  0
   -0.6944   -1.1686   -1.0579 H   0  0  0  0  0  0  0  0  0  0  0  0
   -0.1904    0.4329   -1.8252 H   0  0  0  0  0  0  0  0  0  0  0  0
   -2.9196   -0.7193    0.6775 H   0  0  0  0  0  0  0  0  0  0  0  0
   -2.8532    1.1082    0.8700 H   0  0  0  0  0  0  0  0  0  0  0  0
  1  2  1  0
  2  3  2  0
  2  4  1  0
  4  5  1  0
  5  6  1  0
  6  7  1  0
  7  8  1  0
  8  4  1  0
  1  9  1  0
  1 10  1  0
  1 11  1  0
  4 12  1  0
  5 13  1  0
  5 14  1  0
  7 15  1  0
  7 16  1  0
M  END
