
     RDKit          3D

 17 17  0  0  0  0  0  0  0  0999 V2000
    3.2524   -0.1512    1.1610 C   0  0  0  0  0  0  0  0  0  0  0  0
    1.9722    0.0922    0.4128 C   0  0  0  0  0  0  0  0  0  0  0  0
    2.0497    0.6062   -0.6677 O   0  0  0  0  0  0  0  0  0  0  0  0
    0.6715   -0.2906    0.9946 C   0  0  0  0  0  0  0  0  0  0  0  0
   -0.3881    0.0629    0.0515 C   0  0  0  0  0  0  0  0  0  0  0  0
   -1.2881    0.3656   -0.7224 C   0  0  0  0  0  0  0  0  0  0  0  0
   -2.3792    0.7279   -1.6279 C   0  0  0  0  0  0  0  0  0  0  0  0
   -3.1920   -0.3446   -2.2604 C   0  0  0  0  0  0  0  0  0  0  0  0
   -3.7055    0.2781   -1.1320 O   0  0  0  0  0  0  0  0  0  0  0  0
    3.9834   -0.6016    0.4794 H   0  0  0  0  0  0  0  0  0  0  0  0
    3.6404    0.8787    1.4075 H   0  0  0  0  0  0  0  0  0  0  0  0
    3.0692   -0.7226    2.0847 H   0  0  0  0  0  0  0  0  0  0  0  0
    0.7113   -1.4023    1.1595 H   0  0  0  0  0  0  0  0  0  0  0  0
    0.4706    0.2263    1.9713 H   0  0  0  0  0  0  0  0  0  0  0  0
   -2.3919    1.7638   -1.9758 H   0  0  0  0  0  0  0  0  0  0  0  0
   -3.7028   -0.1111   -3.1938 H   0  0  0  0  0  0  0  0  0  0  0  0
   -2.7731   -1.3778   -2.1548 H   0  0  0  0  0  0  0  0  0  0  0  0
  1  2  1  0
  2  3  2  0
  2  4  1  0
  4  5  1  0
  5  6  3  0
  6  7  1  0
  7  8  1  0
  8  9  1  0
  9  7  1  0
  1 10  1  0
  1 11  1  0
  1 12  1  0
  4 13  1  0
  4 14  1  0
  7 15  1  0
  8 16  1  0
  8 17  1  0
M  END
