
     RDKit          3D

 23 23  0  0  0  0  0  0  0  0999 V2000
    3.6786   -0.2122   -0.4273 C   0  0  0  0  0  0  0  0  0  0  0  0
    2.5491    0.5977    0.0925 C   0  0  0  0  0  0  0  0  0  0  0  0
    2.7267    1.7969    0.2154 O   0  0  0  0  0  0  0  0  0  0  0  0
    1.2725   -0.0413    0.4400 C   0  0  0  0  0  0  0  0  0  0  0  0
    0.1524    0.3053   -0.5197 C   0  0  0  0  0  0  0  0  0  0  0  0
   -1.0775   -0.4051   -0.0539 C   0  0  0  0  0  0  0  0  0  0  0  0
   -2.3168   -0.1643   -0.9255 C   0  0  0  0  0  0  0  0  0  0  0  0
   -3.1116   -0.2729    0.3851 C   0  0  0  0  0  0  0  0  0  0  0  0
   -1.8617    0.3407    1.0373 C   0  0  0  0  0  0  0  0  0  0  0  0
    4.3457   -0.5833    0.3717 H   0  0  0  0  0  0  0  0  0  0  0  0
    3.3125   -1.1439   -0.9515 H   0  0  0  0  0  0  0  0  0  0  0  0
    4.2276    0.3542   -1.2063 H   0  0  0  0  0  0  0  0  0  0  0  0
    1.3847   -1.1370    0.5636 H   0  0  0  0  0  0  0  0  0  0  0  0
    0.9635    0.3372    1.4468 H   0  0  0  0  0  0  0  0  0  0  0  0
   -0.0510    1.3944   -0.5213 H   0  0  0  0  0  0  0  0  0  0  0  0
    0.3673   -0.0221   -1.5567 H   0  0  0  0  0  0  0  0  0  0  0  0
   -0.9797   -1.4696    0.1658 H   0  0  0  0  0  0  0  0  0  0  0  0
   -2.4220    0.8479   -1.3086 H   0  0  0  0  0  0  0  0  0  0  0  0
   -2.5152   -0.9679   -1.6419 H   0  0  0  0  0  0  0  0  0  0  0  0
   -4.0140    0.3379    0.4300 H   0  0  0  0  0  0  0  0  0  0  0  0
   -3.2041   -1.3349    0.7338 H   0  0  0  0  0  0  0  0  0  0  0  0
   -1.7636    1.4322    0.8281 H   0  0  0  0  0  0  0  0  0  0  0  0
   -1.6634    0.0101    2.0538 H   0  0  0  0  0  0  0  0  0  0  0  0
  1  2  1  0
  2  3  2  0
  2  4  1  0
  4  5  1  0
  5  6  1  0
  6  7  1  0
  7  8  1  0
  8  9  1  0
  9  6  1  0
  1 10  1  0
  1 11  1  0
  1 12  1  0
  4 13  1  0
  4 14  1  0
  5 15  1  0
  5 16  1  0
  6 17  1  0
  7 18  1  0
  7 19  1  0
  8 20  1  0
  8 21  1  0
  9 22  1  0
  9 23  1  0
M  END
