
     RDKit          3D

 21 20  0  0  0  0  0  0  0  0999 V2000
    3.9796    0.7193    0.0338 C   0  0  0  0  0  0  0  0  0  0  0  0
    2.8050   -0.1595   -0.1546 C   0  0  0  0  0  0  0  0  0  0  0  0
    3.0044   -1.3347   -0.5180 O   0  0  0  0  0  0  0  0  0  0  0  0
    1.4952    0.2543    0.0513 O   0  0  0  0  0  0  0  0  0  0  0  0
    0.4296   -0.6669   -0.1566 C   0  0  0  0  0  0  0  0  0  0  0  0
   -0.8540    0.0714    0.1446 C   0  0  0  0  0  0  0  0  0  0  0  0
   -2.0703   -0.8027   -0.0398 C   0  0  0  0  0  0  0  0  0  0  0  0
   -3.2815    0.0739    0.2981 C   0  0  0  0  0  0  0  0  0  0  0  0
   -3.3293    1.1661   -0.5480 O   0  0  0  0  0  0  0  0  0  0  0  0
    4.2180    1.1387   -0.9857 H   0  0  0  0  0  0  0  0  0  0  0  0
    3.8448    1.4980    0.7829 H   0  0  0  0  0  0  0  0  0  0  0  0
    4.8566    0.1045    0.3070 H   0  0  0  0  0  0  0  0  0  0  0  0
    0.4430   -0.9645   -1.2139 H   0  0  0  0  0  0  0  0  0  0  0  0
    0.5823   -1.5455    0.4677 H   0  0  0  0  0  0  0  0  0  0  0  0
   -0.9062    0.9735   -0.4963 H   0  0  0  0  0  0  0  0  0  0  0  0
   -0.8703    0.4335    1.1929 H   0  0  0  0  0  0  0  0  0  0  0  0
   -2.1648   -1.2216   -1.0436 H   0  0  0  0  0  0  0  0  0  0  0  0
   -2.0346   -1.5749    0.7662 H   0  0  0  0  0  0  0  0  0  0  0  0
   -3.2059    0.4360    1.3296 H   0  0  0  0  0  0  0  0  0  0  0  0
   -4.2020   -0.4989    0.1654 H   0  0  0  0  0  0  0  0  0  0  0  0
   -2.7398    1.8998   -0.1872 H   0  0  0  0  0  0  0  0  0  0  0  0
  1  2  1  0
  2  3  2  0
  2  4  1  0
  4  5  1  0
  5  6  1  0
  6  7  1  0
  7  8  1  0
  8  9  1  0
  1 10  1  0
  1 11  1  0
  1 12  1  0
  5 13  1  0
  5 14  1  0
  6 15  1  0
  6 16  1  0
  7 17  1  0
  7 18  1  0
  8 19  1  0
  8 20  1  0
  9 21  1  0
M  END
