
     RDKit          3D

 21 22  0  0  0  0  0  0  0  0999 V2000
    2.7757   -0.4035   -0.8815 C   0  0  0  0  0  0  0  0  0  0  0  0
    1.8489    0.5349   -0.1687 C   0  0  0  0  0  0  0  0  0  0  0  0
    2.4114    1.5485    0.2817 O   0  0  0  0  0  0  0  0  0  0  0  0
    0.5326    0.2972   -0.0323 C   0  0  0  0  0  0  0  0  0  0  0  0
   -0.1355   -0.8708    0.6488 C   0  0  0  0  0  0  0  0  0  0  0  0
   -1.2908   -0.0099    0.1819 C   0  0  0  0  0  0  0  0  0  0  0  0
   -2.6238   -0.2416    0.3225 C   0  0  0  0  0  0  0  0  0  0  0  0
   -0.4786    1.1662    0.6675 C   0  0  0  0  0  0  0  0  0  0  0  0
   -0.5013    0.1183   -1.1112 C   0  0  0  0  0  0  0  0  0  0  0  0
    2.6861   -0.3275   -1.9783 H   0  0  0  0  0  0  0  0  0  0  0  0
    2.4657   -1.4368   -0.5472 H   0  0  0  0  0  0  0  0  0  0  0  0
    3.8147   -0.2884   -0.5854 H   0  0  0  0  0  0  0  0  0  0  0  0
    0.0037   -0.8410    1.7266 H   0  0  0  0  0  0  0  0  0  0  0  0
   -0.0289   -1.8413    0.1370 H   0  0  0  0  0  0  0  0  0  0  0  0
   -2.9017   -1.2820    0.6722 H   0  0  0  0  0  0  0  0  0  0  0  0
   -3.1562    0.4221    1.0692 H   0  0  0  0  0  0  0  0  0  0  0  0
   -3.2421   -0.1069   -0.6158 H   0  0  0  0  0  0  0  0  0  0  0  0
   -0.7023    2.1338    0.1876 H   0  0  0  0  0  0  0  0  0  0  0  0
   -0.3361    1.2176    1.7687 H   0  0  0  0  0  0  0  0  0  0  0  0
   -0.7582    1.0228   -1.6621 H   0  0  0  0  0  0  0  0  0  0  0  0
   -0.3833   -0.8116   -1.6861 H   0  0  0  0  0  0  0  0  0  0  0  0
  1  2  1  0
  2  3  2  0
  2  4  1  0
  4  5  1  0
  5  6  1  0
  6  7  1  0
  6  8  1  0
  6  9  1  0
  8  4  1  0
  9  4  1  0
  1 10  1  0
  1 11  1  0
  1 12  1  0
  5 13  1  0
  5 14  1  0
  7 15  1  0
  7 16  1  0
  7 17  1  0
  8 18  1  0
  8 19  1  0
  9 20  1  0
  9 21  1  0
M  END
