
     RDKit          3D

 15 14  0  0  0  0  0  0  0  0999 V2000
   -1.9119   -1.1736    0.5155 C   0  0  0  0  0  0  0  0  0  0  0  0
   -1.1877   -0.6949   -0.7143 C   0  0  0  0  0  0  0  0  0  0  0  0
   -1.1879   -1.3855   -1.7096 O   0  0  0  0  0  0  0  0  0  0  0  0
   -0.5166    0.6177   -0.6206 C   0  0  0  0  0  0  0  0  0  0  0  0
   -0.1027    1.0310   -1.8674 O   0  0  0  0  0  0  0  0  0  0  0  0
    0.7585    0.5212    0.2054 C   0  0  0  0  0  0  0  0  0  0  0  0
    1.7057    0.4633    0.8317 C   0  0  0  0  0  0  0  0  0  0  0  0
    2.8832    0.3907    1.6402 C   0  0  0  0  0  0  0  0  0  0  0  0
    3.5739   -0.6322    1.8710 O   0  0  0  0  0  0  0  0  0  0  0  0
   -2.5867   -2.0380    0.2915 H   0  0  0  0  0  0  0  0  0  0  0  0
   -2.5142   -0.2936    0.9033 H   0  0  0  0  0  0  0  0  0  0  0  0
   -1.2181   -1.4514    1.3228 H   0  0  0  0  0  0  0  0  0  0  0  0
   -1.1690    1.3468   -0.1151 H   0  0  0  0  0  0  0  0  0  0  0  0
    0.1778    1.9999   -1.8215 H   0  0  0  0  0  0  0  0  0  0  0  0
    3.2957    1.2986    2.1726 H   0  0  0  0  0  0  0  0  0  0  0  0
  1  2  1  0
  2  3  2  0
  2  4  1  0
  4  5  1  0
  4  6  1  0
  6  7  3  0
  7  8  1  0
  8  9  2  0
  1 10  1  0
  1 11  1  0
  1 12  1  0
  4 13  1  0
  5 14  1  0
  8 15  1  0
M  END
