
     RDKit          3D

 22 21  0  0  0  0  0  0  0  0999 V2000
    2.4093   -0.4448    0.0434 C   0  0  0  0  0  0  0  0  0  0  0  0
    1.5567   -0.1949   -1.1248 C   0  0  0  0  0  0  0  0  0  0  0  0
    2.1606   -0.2313   -2.2133 O   0  0  0  0  0  0  0  0  0  0  0  0
    0.1331    0.0838   -1.1821 C   0  0  0  0  0  0  0  0  0  0  0  0
   -0.6428    0.1150    0.0807 C   0  0  0  0  0  0  0  0  0  0  0  0
   -0.6402   -1.1718    0.8704 C   0  0  0  0  0  0  0  0  0  0  0  0
   -0.3352    1.3101    0.9524 C   0  0  0  0  0  0  0  0  0  0  0  0
   -2.1162    0.2955   -0.3378 C   0  0  0  0  0  0  0  0  0  0  0  0
    1.9750   -1.0214    0.8545 H   0  0  0  0  0  0  0  0  0  0  0  0
    3.3525   -1.0045   -0.2320 H   0  0  0  0  0  0  0  0  0  0  0  0
    2.8021    0.5578    0.3819 H   0  0  0  0  0  0  0  0  0  0  0  0
    0.0129    1.1067   -1.6515 H   0  0  0  0  0  0  0  0  0  0  0  0
   -0.4240   -0.5859   -1.9042 H   0  0  0  0  0  0  0  0  0  0  0  0
   -0.1430   -1.9543    0.2588 H   0  0  0  0  0  0  0  0  0  0  0  0
   -1.6642   -1.5430    1.0905 H   0  0  0  0  0  0  0  0  0  0  0  0
   -0.1797   -1.0563    1.8725 H   0  0  0  0  0  0  0  0  0  0  0  0
    0.7144    1.5954    0.9573 H   0  0  0  0  0  0  0  0  0  0  0  0
   -0.9669    2.1848    0.6407 H   0  0  0  0  0  0  0  0  0  0  0  0
   -0.6514    1.0658    1.9874 H   0  0  0  0  0  0  0  0  0  0  0  0
   -2.2299    1.1841   -0.9972 H   0  0  0  0  0  0  0  0  0  0  0  0
   -2.3597   -0.6546   -0.9001 H   0  0  0  0  0  0  0  0  0  0  0  0
   -2.7633    0.3638    0.5526 H   0  0  0  0  0  0  0  0  0  0  0  0
  1  2  1  0
  2  3  2  0
  2  4  1  0
  4  5  1  0
  5  6  1  0
  5  7  1  0
  5  8  1  0
  1  9  1  0
  1 10  1  0
  1 11  1  0
  4 12  1  0
  4 13  1  0
  6 14  1  0
  6 15  1  0
  6 16  1  0
  7 17  1  0
  7 18  1  0
  7 19  1  0
  8 20  1  0
  8 21  1  0
  8 22  1  0
M  END
