
     RDKit          3D

 21 21  0  0  0  0  0  0  0  0999 V2000
    2.4492    0.5270   -0.4373 C   0  0  0  0  0  0  0  0  0  0  0  0
    1.0182    0.2274   -0.6569 C   0  0  0  0  0  0  0  0  0  0  0  0
    0.5201    0.5365   -1.7211 O   0  0  0  0  0  0  0  0  0  0  0  0
    0.2632   -0.4223    0.4023 C   0  0  0  0  0  0  0  0  0  0  0  0
    1.0700   -0.6658    1.5114 O   0  0  0  0  0  0  0  0  0  0  0  0
   -0.5366   -1.6497   -0.0183 C   0  0  0  0  0  0  0  0  0  0  0  0
   -1.7280   -0.6975   -0.1958 C   0  0  0  0  0  0  0  0  0  0  0  0
   -1.0302    0.1905    0.8268 C   0  0  0  0  0  0  0  0  0  0  0  0
   -1.2078    1.6523    0.6496 C   0  0  0  0  0  0  0  0  0  0  0  0
    3.0577   -0.2235   -0.9840 H   0  0  0  0  0  0  0  0  0  0  0  0
    2.7233    0.4746    0.6543 H   0  0  0  0  0  0  0  0  0  0  0  0
    2.7614    1.5146   -0.7860 H   0  0  0  0  0  0  0  0  0  0  0  0
    1.1239   -1.6272    1.7020 H   0  0  0  0  0  0  0  0  0  0  0  0
   -0.2148   -2.1177   -0.9481 H   0  0  0  0  0  0  0  0  0  0  0  0
   -0.6946   -2.3061    0.8537 H   0  0  0  0  0  0  0  0  0  0  0  0
   -1.8117   -0.2628   -1.1910 H   0  0  0  0  0  0  0  0  0  0  0  0
   -2.6762   -1.1273    0.2118 H   0  0  0  0  0  0  0  0  0  0  0  0
   -1.3092   -0.1405    1.8480 H   0  0  0  0  0  0  0  0  0  0  0  0
   -0.3836    2.1831    1.1794 H   0  0  0  0  0  0  0  0  0  0  0  0
   -2.1418    1.9556    1.1684 H   0  0  0  0  0  0  0  0  0  0  0  0
   -1.2525    1.9786   -0.4099 H   0  0  0  0  0  0  0  0  0  0  0  0
  1  2  1  0
  2  3  2  0
  2  4  1  0
  4  5  1  0
  4  6  1  0
  6  7  1  0
  7  8  1  0
  8  9  1  0
  8  4  1  0
  1 10  1  0
  1 11  1  0
  1 12  1  0
  5 13  1  0
  6 14  1  0
  6 15  1  0
  7 16  1  0
  7 17  1  0
  8 18  1  0
  9 19  1  0
  9 20  1  0
  9 21  1  0
M  END
