
     RDKit          3D

 18 18  0  0  0  0  0  0  0  0999 V2000
    2.7171    0.3593   -0.2574 C   0  0  0  0  0  0  0  0  0  0  0  0
    1.6028    0.0775    0.6943 C   0  0  0  0  0  0  0  0  0  0  0  0
    1.8883   -0.1562    1.8845 O   0  0  0  0  0  0  0  0  0  0  0  0
    0.2158    0.0735    0.2527 C   0  0  0  0  0  0  0  0  0  0  0  0
   -0.2440    0.3006   -0.9645 C   0  0  0  0  0  0  0  0  0  0  0  0
   -1.7204    0.2021   -0.9927 C   0  0  0  0  0  0  0  0  0  0  0  0
   -1.9535   -0.7619    0.1766 C   0  0  0  0  0  0  0  0  0  0  0  0
   -0.9501   -0.2030    1.1646 C   0  0  0  0  0  0  0  0  0  0  0  0
    2.4066    0.0072   -1.2845 H   0  0  0  0  0  0  0  0  0  0  0  0
    3.5817   -0.2571    0.0669 H   0  0  0  0  0  0  0  0  0  0  0  0
    2.9633    1.4517   -0.2875 H   0  0  0  0  0  0  0  0  0  0  0  0
    0.3820    0.5241   -1.8044 H   0  0  0  0  0  0  0  0  0  0  0  0
   -2.1513    1.1711   -0.6688 H   0  0  0  0  0  0  0  0  0  0  0  0
   -2.1290   -0.1730   -1.9306 H   0  0  0  0  0  0  0  0  0  0  0  0
   -2.9947   -0.6891    0.5457 H   0  0  0  0  0  0  0  0  0  0  0  0
   -1.6417   -1.7663   -0.1112 H   0  0  0  0  0  0  0  0  0  0  0  0
   -1.2894    0.7696    1.5624 H   0  0  0  0  0  0  0  0  0  0  0  0
   -0.6836   -0.9301    1.9540 H   0  0  0  0  0  0  0  0  0  0  0  0
  1  2  1  0
  2  3  2  0
  2  4  1  0
  4  5  2  0
  5  6  1  0
  6  7  1  0
  7  8  1  0
  8  4  1  0
  1  9  1  0
  1 10  1  0
  1 11  1  0
  5 12  1  0
  6 13  1  0
  6 14  1  0
  7 15  1  0
  7 16  1  0
  8 17  1  0
  8 18  1  0
M  END
