
     RDKit          3D

 18 18  0  0  0  0  0  0  0  0999 V2000
    2.8329   -0.2549   -0.0751 C   0  0  0  0  0  0  0  0  0  0  0  0
    1.4763    0.0801    0.4123 C   0  0  0  0  0  0  0  0  0  0  0  0
    1.3685    0.7906    1.3858 O   0  0  0  0  0  0  0  0  0  0  0  0
    0.3046   -0.4400   -0.2733 C   0  0  0  0  0  0  0  0  0  0  0  0
   -1.0044   -0.0358    0.3072 C   0  0  0  0  0  0  0  0  0  0  0  0
   -1.2260   -0.4252    1.6457 O   0  0  0  0  0  0  0  0  0  0  0  0
   -1.8083    1.0741   -0.2406 C   0  0  0  0  0  0  0  0  0  0  0  0
   -2.1972   -0.3070   -0.6340 C   0  0  0  0  0  0  0  0  0  0  0  0
    3.2217   -1.2051    0.3897 H   0  0  0  0  0  0  0  0  0  0  0  0
    3.5183    0.5927    0.1056 H   0  0  0  0  0  0  0  0  0  0  0  0
    2.8399   -0.4775   -1.1820 H   0  0  0  0  0  0  0  0  0  0  0  0
    0.3538   -1.5642   -0.2307 H   0  0  0  0  0  0  0  0  0  0  0  0
    0.3028   -0.2002   -1.3597 H   0  0  0  0  0  0  0  0  0  0  0  0
   -1.0769    0.3990    2.1793 H   0  0  0  0  0  0  0  0  0  0  0  0
   -1.3563    1.7443   -1.0212 H   0  0  0  0  0  0  0  0  0  0  0  0
   -2.4797    1.6166    0.4550 H   0  0  0  0  0  0  0  0  0  0  0  0
   -1.9910   -0.5845   -1.6669 H   0  0  0  0  0  0  0  0  0  0  0  0
   -3.0789   -0.8029   -0.1970 H   0  0  0  0  0  0  0  0  0  0  0  0
  1  2  1  0
  2  3  2  0
  2  4  1  0
  4  5  1  0
  5  6  1  0
  5  7  1  0
  7  8  1  0
  8  5  1  0
  1  9  1  0
  1 10  1  0
  1 11  1  0
  4 12  1  0
  4 13  1  0
  6 14  1  0
  7 15  1  0
  7 16  1  0
  8 17  1  0
  8 18  1  0
M  END
