
     RDKit          3D

 17 17  0  0  0  0  0  0  0  0999 V2000
    3.3456   -0.0505    0.0233 C   0  0  0  0  0  0  0  0  0  0  0  0
    2.3476    0.7945   -0.6740 C   0  0  0  0  0  0  0  0  0  0  0  0
    2.7745    1.7280   -1.3873 O   0  0  0  0  0  0  0  0  0  0  0  0
    0.9586    0.4992   -0.4952 C   0  0  0  0  0  0  0  0  0  0  0  0
   -0.2128    0.2292   -0.3391 C   0  0  0  0  0  0  0  0  0  0  0  0
   -1.6311   -0.1202   -0.1361 C   0  0  0  0  0  0  0  0  0  0  0  0
   -1.8635   -1.3838    0.6512 C   0  0  0  0  0  0  0  0  0  0  0  0
   -2.5657    1.0051   -0.0874 C   0  0  0  0  0  0  0  0  0  0  0  0
   -2.4887    0.0957   -1.2551 O   0  0  0  0  0  0  0  0  0  0  0  0
    4.0604   -0.4369   -0.7549 H   0  0  0  0  0  0  0  0  0  0  0  0
    3.9072    0.6178    0.7075 H   0  0  0  0  0  0  0  0  0  0  0  0
    2.8764   -0.8576    0.5866 H   0  0  0  0  0  0  0  0  0  0  0  0
   -2.8722   -1.8175    0.4608 H   0  0  0  0  0  0  0  0  0  0  0  0
   -1.7628   -1.1573    1.7415 H   0  0  0  0  0  0  0  0  0  0  0  0
   -1.1103   -2.1225    0.3033 H   0  0  0  0  0  0  0  0  0  0  0  0
   -3.5836    0.9550    0.3202 H   0  0  0  0  0  0  0  0  0  0  0  0
   -2.1796    2.0219   -0.3284 H   0  0  0  0  0  0  0  0  0  0  0  0
  1  2  1  0
  2  3  2  0
  2  4  1  0
  4  5  3  0
  5  6  1  0
  6  7  1  0
  6  8  1  0
  8  9  1  0
  9  6  1  0
  1 10  1  0
  1 11  1  0
  1 12  1  0
  7 13  1  0
  7 14  1  0
  7 15  1  0
  8 16  1  0
  8 17  1  0
M  END
