
     RDKit          3D

 21 21  0  0  0  0  0  0  0  0999 V2000
    3.4147   -0.0499    0.1472 C   0  0  0  0  0  0  0  0  0  0  0  0
    2.0246   -0.5216   -0.1344 C   0  0  0  0  0  0  0  0  0  0  0  0
    1.6523   -1.6696    0.1315 O   0  0  0  0  0  0  0  0  0  0  0  0
    1.1417    0.3511   -0.7047 O   0  0  0  0  0  0  0  0  0  0  0  0
   -0.1823    0.1508   -1.0421 C   0  0  0  0  0  0  0  0  0  0  0  0
   -1.1651   -0.0732    0.0427 C   0  0  0  0  0  0  0  0  0  0  0  0
   -2.5873   -0.3068   -0.5170 C   0  0  0  0  0  0  0  0  0  0  0  0
   -1.0941    1.0720    1.0618 C   0  0  0  0  0  0  0  0  0  0  0  0
   -0.9457   -0.3727    1.4387 C   0  0  0  0  0  0  0  0  0  0  0  0
    4.0779   -0.9130    0.4355 H   0  0  0  0  0  0  0  0  0  0  0  0
    3.8712    0.4374   -0.7346 H   0  0  0  0  0  0  0  0  0  0  0  0
    3.4256    0.6898    0.9812 H   0  0  0  0  0  0  0  0  0  0  0  0
   -0.3206   -0.6307   -1.8392 H   0  0  0  0  0  0  0  0  0  0  0  0
   -0.5179    1.0997   -1.5720 H   0  0  0  0  0  0  0  0  0  0  0  0
   -2.5015   -0.8639   -1.4699 H   0  0  0  0  0  0  0  0  0  0  0  0
   -3.0815    0.6654   -0.6948 H   0  0  0  0  0  0  0  0  0  0  0  0
   -3.1462   -0.9392    0.2169 H   0  0  0  0  0  0  0  0  0  0  0  0
   -2.0175    1.6200    1.2409 H   0  0  0  0  0  0  0  0  0  0  0  0
   -0.1877    1.6709    1.1542 H   0  0  0  0  0  0  0  0  0  0  0  0
   -1.8426   -0.7322    2.0200 H   0  0  0  0  0  0  0  0  0  0  0  0
   -0.0180   -0.6843    1.9087 H   0  0  0  0  0  0  0  0  0  0  0  0
  1  2  1  0
  2  3  2  0
  2  4  1  0
  4  5  1  0
  5  6  1  0
  6  7  1  0
  6  8  1  0
  8  9  1  0
  9  6  1  0
  1 10  1  0
  1 11  1  0
  1 12  1  0
  5 13  1  0
  5 14  1  0
  7 15  1  0
  7 16  1  0
  7 17  1  0
  8 18  1  0
  8 19  1  0
  9 20  1  0
  9 21  1  0
M  END
