
     RDKit          3D

 17 17  0  0  0  0  0  0  0  0999 V2000
    3.1047   -0.3986   -0.0705 C   0  0  0  0  0  0  0  0  0  0  0  0
    1.7878    0.1135    0.4171 C   0  0  0  0  0  0  0  0  0  0  0  0
    1.6853    0.7762    1.4707 O   0  0  0  0  0  0  0  0  0  0  0  0
    0.5990   -0.1070   -0.2564 O   0  0  0  0  0  0  0  0  0  0  0  0
   -0.6481    0.3388    0.1414 C   0  0  0  0  0  0  0  0  0  0  0  0
   -1.6019    0.9041   -0.8114 C   0  0  0  0  0  0  0  0  0  0  0  0
   -2.6808    0.0644   -0.2050 C   0  0  0  0  0  0  0  0  0  0  0  0
   -3.8785    0.0220   -0.1121 O   0  0  0  0  0  0  0  0  0  0  0  0
   -1.6045   -0.8318    0.3209 C   0  0  0  0  0  0  0  0  0  0  0  0
    2.9681   -1.2513   -0.7609 H   0  0  0  0  0  0  0  0  0  0  0  0
    3.7138    0.4220   -0.5052 H   0  0  0  0  0  0  0  0  0  0  0  0
    3.7089   -0.8042    0.7879 H   0  0  0  0  0  0  0  0  0  0  0  0
   -0.6044    0.9160    1.0943 H   0  0  0  0  0  0  0  0  0  0  0  0
   -1.5193    0.6668   -1.8778 H   0  0  0  0  0  0  0  0  0  0  0  0
   -1.8849    1.9871   -0.6724 H   0  0  0  0  0  0  0  0  0  0  0  0
   -1.4242   -1.6902   -0.3325 H   0  0  0  0  0  0  0  0  0  0  0  0
   -1.7210   -1.1278    1.3719 H   0  0  0  0  0  0  0  0  0  0  0  0
  1  2  1  0
  2  3  2  0
  2  4  1  0
  4  5  1  0
  5  6  1  0
  6  7  1  0
  7  8  2  0
  7  9  1  0
  9  5  1  0
  1 10  1  0
  1 11  1  0
  1 12  1  0
  5 13  1  0
  6 14  1  0
  6 15  1  0
  9 16  1  0
  9 17  1  0
M  END
