
     RDKit          3D

 21 21  0  0  0  0  0  0  0  0999 V2000
    2.3062   -0.3282    0.7728 C   0  0  0  0  0  0  0  0  0  0  0  0
    1.2569    0.4443    0.0147 C   0  0  0  0  0  0  0  0  0  0  0  0
    1.5339    1.5780   -0.3330 O   0  0  0  0  0  0  0  0  0  0  0  0
   -0.0469   -0.1232   -0.3018 C   0  0  0  0  0  0  0  0  0  0  0  0
    0.0191   -1.3700   -1.1492 C   0  0  0  0  0  0  0  0  0  0  0  0
   -0.8197   -0.4348    0.9692 C   0  0  0  0  0  0  0  0  0  0  0  0
   -1.6615    0.7731    1.1301 C   0  0  0  0  0  0  0  0  0  0  0  0
   -1.6932    1.4879    0.0347 C   0  0  0  0  0  0  0  0  0  0  0  0
   -0.8821    0.8870   -1.0466 C   0  0  0  0  0  0  0  0  0  0  0  0
    3.0251    0.3914    1.2394 H   0  0  0  0  0  0  0  0  0  0  0  0
    2.8249   -0.9433   -0.0101 H   0  0  0  0  0  0  0  0  0  0  0  0
    1.8426   -0.9644    1.5496 H   0  0  0  0  0  0  0  0  0  0  0  0
    0.6981   -2.1366   -0.7575 H   0  0  0  0  0  0  0  0  0  0  0  0
    0.3490   -1.0650   -2.1785 H   0  0  0  0  0  0  0  0  0  0  0  0
   -1.0107   -1.7650   -1.2612 H   0  0  0  0  0  0  0  0  0  0  0  0
   -0.1428   -0.5898    1.8303 H   0  0  0  0  0  0  0  0  0  0  0  0
   -1.4125   -1.3670    0.8679 H   0  0  0  0  0  0  0  0  0  0  0  0
   -2.1795    1.0163    2.0520 H   0  0  0  0  0  0  0  0  0  0  0  0
   -2.2504    2.4201   -0.0771 H   0  0  0  0  0  0  0  0  0  0  0  0
   -0.2660    1.6903   -1.5184 H   0  0  0  0  0  0  0  0  0  0  0  0
   -1.4904    0.3988   -1.8273 H   0  0  0  0  0  0  0  0  0  0  0  0
  1  2  1  0
  2  3  2  0
  2  4  1  0
  4  5  1  0
  4  6  1  0
  6  7  1  0
  7  8  2  0
  8  9  1  0
  9  4  1  0
  1 10  1  0
  1 11  1  0
  1 12  1  0
  5 13  1  0
  5 14  1  0
  5 15  1  0
  6 16  1  0
  6 17  1  0
  7 18  1  0
  8 19  1  0
  9 20  1  0
  9 21  1  0
M  END
