
     RDKit          3D

 19 18  0  0  0  0  0  0  0  0999 V2000
    2.7789    0.3882    0.0282 C   0  0  0  0  0  0  0  0  0  0  0  0
    1.5699   -0.3217    0.5179 C   0  0  0  0  0  0  0  0  0  0  0  0
    1.5478   -0.7535    1.6568 O   0  0  0  0  0  0  0  0  0  0  0  0
    0.3753   -0.5233   -0.3467 C   0  0  0  0  0  0  0  0  0  0  0  0
    0.5580    0.0243   -1.6084 O   0  0  0  0  0  0  0  0  0  0  0  0
   -0.8762    0.0392    0.3038 C   0  0  0  0  0  0  0  0  0  0  0  0
   -0.8088    1.4013    0.4473 O   0  0  0  0  0  0  0  0  0  0  0  0
   -2.0752   -0.4245   -0.4762 C   0  0  0  0  0  0  0  0  0  0  0  0
   -3.2722   -0.0728    0.0806 O   0  0  0  0  0  0  0  0  0  0  0  0
    2.5779    0.9414   -0.9110 H   0  0  0  0  0  0  0  0  0  0  0  0
    3.1117    1.1728    0.7626 H   0  0  0  0  0  0  0  0  0  0  0  0
    3.6577   -0.2934   -0.0838 H   0  0  0  0  0  0  0  0  0  0  0  0
    0.2049   -1.6106   -0.4876 H   0  0  0  0  0  0  0  0  0  0  0  0
    0.2533   -0.5796   -2.3341 H   0  0  0  0  0  0  0  0  0  0  0  0
   -0.9528   -0.3999    1.3294 H   0  0  0  0  0  0  0  0  0  0  0  0
   -1.3442    1.7718    1.1728 H   0  0  0  0  0  0  0  0  0  0  0  0
   -2.0174   -1.5238   -0.6053 H   0  0  0  0  0  0  0  0  0  0  0  0
   -2.0411    0.0036   -1.5108 H   0  0  0  0  0  0  0  0  0  0  0  0
   -3.2474    0.7605    0.6062 H   0  0  0  0  0  0  0  0  0  0  0  0
  1  2  1  0
  2  3  2  0
  2  4  1  0
  4  5  1  0
  4  6  1  0
  6  7  1  0
  6  8  1  0
  8  9  1  0
  1 10  1  0
  1 11  1  0
  1 12  1  0
  4 13  1  0
  5 14  1  0
  6 15  1  0
  7 16  1  0
  8 17  1  0
  8 18  1  0
  9 19  1  0
M  END
