
     RDKit          3D

 19 19  0  0  0  0  0  0  0  0999 V2000
    2.6954   -0.1037   -0.6309 C   0  0  0  0  0  0  0  0  0  0  0  0
    1.6272    0.3076    0.3305 C   0  0  0  0  0  0  0  0  0  0  0  0
    1.8174    1.1443    1.1739 O   0  0  0  0  0  0  0  0  0  0  0  0
    0.2997   -0.3409    0.2324 C   0  0  0  0  0  0  0  0  0  0  0  0
   -0.5829    0.2400    1.2955 C   0  0  0  0  0  0  0  0  0  0  0  0
   -1.8076    0.4470    0.8347 C   0  0  0  0  0  0  0  0  0  0  0  0
   -1.8377    0.0158   -0.5782 C   0  0  0  0  0  0  0  0  0  0  0  0
   -2.1843   -1.3525   -0.5548 O   0  0  0  0  0  0  0  0  0  0  0  0
   -0.4136    0.1920   -1.0298 C   0  0  0  0  0  0  0  0  0  0  0  0
    3.2991    0.8135   -0.8272 H   0  0  0  0  0  0  0  0  0  0  0  0
    3.3322   -0.8361   -0.1047 H   0  0  0  0  0  0  0  0  0  0  0  0
    2.2181   -0.4901   -1.5421 H   0  0  0  0  0  0  0  0  0  0  0  0
    0.3274   -1.4324    0.2472 H   0  0  0  0  0  0  0  0  0  0  0  0
   -0.2619    0.4624    2.3101 H   0  0  0  0  0  0  0  0  0  0  0  0
   -2.6540    0.8640    1.3971 H   0  0  0  0  0  0  0  0  0  0  0  0
   -2.5545    0.5915   -1.1953 H   0  0  0  0  0  0  0  0  0  0  0  0
   -2.9641   -1.4027    0.0602 H   0  0  0  0  0  0  0  0  0  0  0  0
   -0.2098    1.2670   -1.1012 H   0  0  0  0  0  0  0  0  0  0  0  0
   -0.1461   -0.3870   -1.9144 H   0  0  0  0  0  0  0  0  0  0  0  0
  1  2  1  0
  2  3  2  0
  2  4  1  0
  4  5  1  0
  5  6  2  0
  6  7  1  0
  7  8  1  0
  7  9  1  0
  9  4  1  0
  1 10  1  0
  1 11  1  0
  1 12  1  0
  4 13  1  0
  5 14  1  0
  6 15  1  0
  7 16  1  0
  8 17  1  0
  9 18  1  0
  9 19  1  0
M  END
