
     RDKit          3D

 21 20  0  0  0  0  0  0  0  0999 V2000
    2.4484   -0.4034   -0.2007 C   0  0  0  0  0  0  0  0  0  0  0  0
    1.5566    0.6806    0.2657 C   0  0  0  0  0  0  0  0  0  0  0  0
    1.9247    1.8446    0.1041 O   0  0  0  0  0  0  0  0  0  0  0  0
    0.2429    0.4899    0.9206 C   0  0  0  0  0  0  0  0  0  0  0  0
   -0.2017    1.7840    1.3085 O   0  0  0  0  0  0  0  0  0  0  0  0
   -0.7256    0.0335   -0.1820 C   0  0  0  0  0  0  0  0  0  0  0  0
   -0.4292   -1.3833   -0.5487 C   0  0  0  0  0  0  0  0  0  0  0  0
   -2.1501    0.0611    0.3718 C   0  0  0  0  0  0  0  0  0  0  0  0
   -0.6015    0.9309   -1.2154 O   0  0  0  0  0  0  0  0  0  0  0  0
    3.4454    0.0816   -0.4284 H   0  0  0  0  0  0  0  0  0  0  0  0
    2.5592   -1.1554    0.6023 H   0  0  0  0  0  0  0  0  0  0  0  0
    2.1470   -0.9042   -1.1173 H   0  0  0  0  0  0  0  0  0  0  0  0
    0.2488   -0.1806    1.7747 H   0  0  0  0  0  0  0  0  0  0  0  0
   -0.4884    2.2729    0.4724 H   0  0  0  0  0  0  0  0  0  0  0  0
   -0.0931   -1.4912   -1.6167 H   0  0  0  0  0  0  0  0  0  0  0  0
   -1.3156   -2.0476   -0.4240 H   0  0  0  0  0  0  0  0  0  0  0  0
    0.3223   -1.7881    0.1533 H   0  0  0  0  0  0  0  0  0  0  0  0
   -2.3415   -0.8591    0.9553 H   0  0  0  0  0  0  0  0  0  0  0  0
   -2.8577    0.1102   -0.4645 H   0  0  0  0  0  0  0  0  0  0  0  0
   -2.2920    0.9373    1.0627 H   0  0  0  0  0  0  0  0  0  0  0  0
   -1.3990    0.9864   -1.7937 H   0  0  0  0  0  0  0  0  0  0  0  0
  1  2  1  0
  2  3  2  0
  2  4  1  0
  4  5  1  0
  4  6  1  0
  6  7  1  0
  6  8  1  0
  6  9  1  0
  1 10  1  0
  1 11  1  0
  1 12  1  0
  4 13  1  0
  5 14  1  0
  7 15  1  0
  7 16  1  0
  7 17  1  0
  8 18  1  0
  8 19  1  0
  8 20  1  0
  9 21  1  0
M  END
