
     RDKit          3D

 19 19  0  0  0  0  0  0  0  0999 V2000
    3.2146    0.3859   -0.4110 C   0  0  0  0  0  0  0  0  0  0  0  0
    2.0314   -0.1602    0.3098 C   0  0  0  0  0  0  0  0  0  0  0  0
    2.2377   -1.0750    1.0903 O   0  0  0  0  0  0  0  0  0  0  0  0
    0.6656    0.3672    0.1031 C   0  0  0  0  0  0  0  0  0  0  0  0
   -0.0235    0.6168    1.3794 O   0  0  0  0  0  0  0  0  0  0  0  0
   -0.5242   -0.4131    0.4318 C   0  0  0  0  0  0  0  0  0  0  0  0
   -1.8600    0.0536   -0.0911 C   0  0  0  0  0  0  0  0  0  0  0  0
   -2.5441   -0.9598   -0.9456 C   0  0  0  0  0  0  0  0  0  0  0  0
   -1.6693    1.2699   -0.7339 O   0  0  0  0  0  0  0  0  0  0  0  0
    4.0113    0.6648    0.3372 H   0  0  0  0  0  0  0  0  0  0  0  0
    3.5952   -0.3988   -1.1091 H   0  0  0  0  0  0  0  0  0  0  0  0
    2.9811    1.3098   -0.9671 H   0  0  0  0  0  0  0  0  0  0  0  0
    0.5522    1.1947   -0.6172 H   0  0  0  0  0  0  0  0  0  0  0  0
   -0.4099   -1.4343    0.8224 H   0  0  0  0  0  0  0  0  0  0  0  0
   -2.5569    0.2744    0.7702 H   0  0  0  0  0  0  0  0  0  0  0  0
   -3.6442   -0.7236   -0.9774 H   0  0  0  0  0  0  0  0  0  0  0  0
   -2.2128   -0.9591   -2.0053 H   0  0  0  0  0  0  0  0  0  0  0  0
   -2.4665   -1.9534   -0.4733 H   0  0  0  0  0  0  0  0  0  0  0  0
   -1.3778    1.9400   -0.0636 H   0  0  0  0  0  0  0  0  0  0  0  0
  1  2  1  0
  2  3  2  0
  2  4  1  0
  4  5  1  0
  5  6  1  0
  6  7  1  0
  7  8  1  0
  7  9  1  0
  6  4  1  0
  1 10  1  0
  1 11  1  0
  1 12  1  0
  4 13  1  0
  6 14  1  0
  7 15  1  0
  8 16  1  0
  8 17  1  0
  8 18  1  0
  9 19  1  0
M  END
