
     RDKit          3D

 17 17  0  0  0  0  0  0  0  0999 V2000
    2.6852   -0.4302    0.2509 C   0  0  0  0  0  0  0  0  0  0  0  0
    1.2339   -0.5649    0.0885 C   0  0  0  0  0  0  0  0  0  0  0  0
    0.6907   -1.6878    0.1626 O   0  0  0  0  0  0  0  0  0  0  0  0
    0.4035    0.5883   -0.1591 C   0  0  0  0  0  0  0  0  0  0  0  0
    1.0126    1.7122   -0.2336 O   0  0  0  0  0  0  0  0  0  0  0  0
   -1.0442    0.5805   -0.3288 C   0  0  0  0  0  0  0  0  0  0  0  0
   -1.6076    1.8218   -0.6975 O   0  0  0  0  0  0  0  0  0  0  0  0
   -1.8141   -0.6270   -0.7008 C   0  0  0  0  0  0  0  0  0  0  0  0
   -1.8260   -0.2117    0.7343 C   0  0  0  0  0  0  0  0  0  0  0  0
    2.9783    0.6191    0.5328 H   0  0  0  0  0  0  0  0  0  0  0  0
    3.2647   -0.6655   -0.6633 H   0  0  0  0  0  0  0  0  0  0  0  0
    3.0899   -1.0557    1.0850 H   0  0  0  0  0  0  0  0  0  0  0  0
   -0.9806    2.5404   -0.3724 H   0  0  0  0  0  0  0  0  0  0  0  0
   -1.3295   -1.5792   -0.9874 H   0  0  0  0  0  0  0  0  0  0  0  0
   -2.7546   -0.4436   -1.2706 H   0  0  0  0  0  0  0  0  0  0  0  0
   -2.7336    0.2962    1.1601 H   0  0  0  0  0  0  0  0  0  0  0  0
   -1.2686   -0.8929    1.3992 H   0  0  0  0  0  0  0  0  0  0  0  0
  1  2  1  0
  2  3  2  0
  2  4  1  0
  4  5  2  0
  4  6  1  0
  6  7  1  0
  6  8  1  0
  8  9  1  0
  9  6  1  0
  1 10  1  0
  1 11  1  0
  1 12  1  0
  7 13  1  0
  8 14  1  0
  8 15  1  0
  9 16  1  0
  9 17  1  0
M  END
