
     RDKit          3D

 21 21  0  0  0  0  0  0  0  0999 V2000
    2.8896   -0.0465   -0.3213 C   0  0  0  0  0  0  0  0  0  0  0  0
    1.9193   -0.1661    0.8221 C   0  0  0  0  0  0  0  0  0  0  0  0
    2.2370    0.3097    1.8937 O   0  0  0  0  0  0  0  0  0  0  0  0
    0.6312   -0.8369    0.6216 C   0  0  0  0  0  0  0  0  0  0  0  0
   -0.2936   -0.0787   -0.2840 C   0  0  0  0  0  0  0  0  0  0  0  0
   -1.6133   -0.8509   -0.4307 C   0  0  0  0  0  0  0  0  0  0  0  0
   -2.3453    0.2853    0.2530 C   0  0  0  0  0  0  0  0  0  0  0  0
   -1.0570    1.0702    0.2693 C   0  0  0  0  0  0  0  0  0  0  0  0
   -1.1169    2.0865   -0.7083 O   0  0  0  0  0  0  0  0  0  0  0  0
    2.7998   -0.9251   -0.9954 H   0  0  0  0  0  0  0  0  0  0  0  0
    3.9301    0.0288   -0.0029 H   0  0  0  0  0  0  0  0  0  0  0  0
    2.5920    0.9082   -0.8473 H   0  0  0  0  0  0  0  0  0  0  0  0
    0.7633   -1.8541    0.1846 H   0  0  0  0  0  0  0  0  0  0  0  0
    0.1239   -0.9263    1.6239 H   0  0  0  0  0  0  0  0  0  0  0  0
    0.1732    0.0806   -1.3003 H   0  0  0  0  0  0  0  0  0  0  0  0
   -1.9107   -1.0353   -1.4789 H   0  0  0  0  0  0  0  0  0  0  0  0
   -1.6740   -1.7868    0.1506 H   0  0  0  0  0  0  0  0  0  0  0  0
   -2.7503    0.0082    1.2328 H   0  0  0  0  0  0  0  0  0  0  0  0
   -3.1339    0.7204   -0.3937 H   0  0  0  0  0  0  0  0  0  0  0  0
   -0.7685    1.4090    1.2582 H   0  0  0  0  0  0  0  0  0  0  0  0
   -1.3960    1.5999   -1.5472 H   0  0  0  0  0  0  0  0  0  0  0  0
  1  2  1  0
  2  3  2  0
  2  4  1  0
  4  5  1  0
  5  6  1  0
  6  7  1  0
  7  8  1  0
  8  9  1  0
  8  5  1  0
  1 10  1  0
  1 11  1  0
  1 12  1  0
  4 13  1  0
  4 14  1  0
  5 15  1  0
  6 16  1  0
  6 17  1  0
  7 18  1  0
  7 19  1  0
  8 20  1  0
  9 21  1  0
M  END
