
     RDKit          3D

 19 18  0  0  0  0  0  0  0  0999 V2000
    3.7743    0.4669   -0.5636 C   0  0  0  0  0  0  0  0  0  0  0  0
    2.4133   -0.0291   -0.1703 C   0  0  0  0  0  0  0  0  0  0  0  0
    2.3359   -0.9596    0.5819 O   0  0  0  0  0  0  0  0  0  0  0  0
    1.2366    0.6479   -0.7248 C   0  0  0  0  0  0  0  0  0  0  0  0
    0.0317   -0.0054   -0.2036 C   0  0  0  0  0  0  0  0  0  0  0  0
   -0.9753   -0.5315    0.2343 C   0  0  0  0  0  0  0  0  0  0  0  0
   -2.1920   -1.1532    0.7734 C   0  0  0  0  0  0  0  0  0  0  0  0
   -3.3717   -0.2912    0.3290 C   0  0  0  0  0  0  0  0  0  0  0  0
   -3.2117    0.9952    0.8303 O   0  0  0  0  0  0  0  0  0  0  0  0
    3.8701    0.3579   -1.6808 H   0  0  0  0  0  0  0  0  0  0  0  0
    4.5703   -0.0712   -0.0207 H   0  0  0  0  0  0  0  0  0  0  0  0
    3.8130    1.5778   -0.3861 H   0  0  0  0  0  0  0  0  0  0  0  0
    1.2740    0.6176   -1.8341 H   0  0  0  0  0  0  0  0  0  0  0  0
    1.1860    1.7017   -0.4156 H   0  0  0  0  0  0  0  0  0  0  0  0
   -2.3323   -2.1816    0.3602 H   0  0  0  0  0  0  0  0  0  0  0  0
   -2.1506   -1.1271    1.8610 H   0  0  0  0  0  0  0  0  0  0  0  0
   -3.2776   -0.2092   -0.7859 H   0  0  0  0  0  0  0  0  0  0  0  0
   -4.3379   -0.7355    0.5804 H   0  0  0  0  0  0  0  0  0  0  0  0
   -2.6560    0.9295    1.6642 H   0  0  0  0  0  0  0  0  0  0  0  0
  1  2  1  0
  2  3  2  0
  2  4  1  0
  4  5  1  0
  5  6  3  0
  6  7  1  0
  7  8  1  0
  8  9  1  0
  1 10  1  0
  1 11  1  0
  1 12  1  0
  4 13  1  0
  4 14  1  0
  7 15  1  0
  7 16  1  0
  8 17  1  0
  8 18  1  0
  9 19  1  0
M  END
