
     RDKit          3D

 13 12  0  0  0  0  0  0  0  0999 V2000
   -2.1206    0.1354    0.0249 C   0  0  0  0  0  0  0  0  0  0  0  0
   -0.7053    0.0930   -0.3932 C   0  0  0  0  0  0  0  0  0  0  0  0
   -0.4464    0.3633   -1.5873 O   0  0  0  0  0  0  0  0  0  0  0  0
    0.3195   -0.2458    0.5421 C   0  0  0  0  0  0  0  0  0  0  0  0
    0.0083   -0.5107    1.7361 O   0  0  0  0  0  0  0  0  0  0  0  0
    1.7673   -0.3168    0.2255 C   0  0  0  0  0  0  0  0  0  0  0  0
    2.0184   -0.0094   -1.1140 O   0  0  0  0  0  0  0  0  0  0  0  0
   -2.8149    0.2455   -0.8428 H   0  0  0  0  0  0  0  0  0  0  0  0
   -2.2496    1.0294    0.6823 H   0  0  0  0  0  0  0  0  0  0  0  0
   -2.3330   -0.8089    0.5827 H   0  0  0  0  0  0  0  0  0  0  0  0
    2.1036   -1.3429    0.4816 H   0  0  0  0  0  0  0  0  0  0  0  0
    2.2740    0.4018    0.9028 H   0  0  0  0  0  0  0  0  0  0  0  0
    2.1786    0.9659   -1.2407 H   0  0  0  0  0  0  0  0  0  0  0  0
  1  2  1  0
  2  3  2  0
  2  4  1  0
  4  5  2  0
  4  6  1  0
  6  7  1  0
  1  8  1  0
  1  9  1  0
  1 10  1  0
  6 11  1  0
  6 12  1  0
  7 13  1  0
M  END
