
     RDKit          3D

 19 19  0  0  0  0  0  0  0  0999 V2000
    2.1614   -0.7008    0.4435 C   0  0  0  0  0  0  0  0  0  0  0  0
    1.1251   -0.0637   -0.4269 C   0  0  0  0  0  0  0  0  0  0  0  0
    1.4161    0.1441   -1.6169 O   0  0  0  0  0  0  0  0  0  0  0  0
   -0.1917    0.3475    0.0307 C   0  0  0  0  0  0  0  0  0  0  0  0
   -1.1476   -0.6857    0.5612 C   0  0  0  0  0  0  0  0  0  0  0  0
   -1.5109   -1.6677   -0.4606 C   0  0  0  0  0  0  0  0  0  0  0  0
   -1.2749   -2.8809   -0.4340 O   0  0  0  0  0  0  0  0  0  0  0  0
   -0.7366    1.6065   -0.6680 C   0  0  0  0  0  0  0  0  0  0  0  0
   -0.3333    1.6568    0.7423 C   0  0  0  0  0  0  0  0  0  0  0  0
    3.1701   -0.4286   -0.0055 H   0  0  0  0  0  0  0  0  0  0  0  0
    2.1716   -0.2517    1.4827 H   0  0  0  0  0  0  0  0  0  0  0  0
    2.1296   -1.7904    0.4862 H   0  0  0  0  0  0  0  0  0  0  0  0
   -0.5924   -1.1845    1.4130 H   0  0  0  0  0  0  0  0  0  0  0  0
   -2.0419   -0.2038    1.0491 H   0  0  0  0  0  0  0  0  0  0  0  0
   -2.0367   -1.3251   -1.3725 H   0  0  0  0  0  0  0  0  0  0  0  0
   -0.0586    2.0974   -1.4086 H   0  0  0  0  0  0  0  0  0  0  0  0
   -1.7903    1.4326   -1.0005 H   0  0  0  0  0  0  0  0  0  0  0  0
    0.6465    2.1159    0.9912 H   0  0  0  0  0  0  0  0  0  0  0  0
   -1.1054    1.7821    1.5147 H   0  0  0  0  0  0  0  0  0  0  0  0
  1  2  1  0
  2  3  2  0
  2  4  1  0
  4  5  1  0
  5  6  1  0
  6  7  2  0
  4  8  1  0
  8  9  1  0
  9  4  1  0
  1 10  1  0
  1 11  1  0
  1 12  1  0
  5 13  1  0
  5 14  1  0
  6 15  1  0
  8 16  1  0
  8 17  1  0
  9 18  1  0
  9 19  1  0
M  END
