
     RDKit          3D

 19 19  0  0  0  0  0  0  0  0999 V2000
    2.4144   -0.4602    0.9302 C   0  0  0  0  0  0  0  0  0  0  0  0
    1.4608    0.6428    0.6099 C   0  0  0  0  0  0  0  0  0  0  0  0
    1.1656    1.4852    1.4470 O   0  0  0  0  0  0  0  0  0  0  0  0
    0.8386    0.7529   -0.7388 C   0  0  0  0  0  0  0  0  0  0  0  0
   -0.6229    0.3189   -0.7211 C   0  0  0  0  0  0  0  0  0  0  0  0
   -0.9019   -1.0883   -0.2963 C   0  0  0  0  0  0  0  0  0  0  0  0
   -1.3329    0.0979    0.5458 C   0  0  0  0  0  0  0  0  0  0  0  0
   -2.7971    0.3014    0.5717 C   0  0  0  0  0  0  0  0  0  0  0  0
   -3.4690    0.2124   -0.4255 O   0  0  0  0  0  0  0  0  0  0  0  0
    3.3932    0.0269    1.1761 H   0  0  0  0  0  0  0  0  0  0  0  0
    2.1167   -0.9948    1.8591 H   0  0  0  0  0  0  0  0  0  0  0  0
    2.4732   -1.1517    0.0866 H   0  0  0  0  0  0  0  0  0  0  0  0
    1.3480    0.0120   -1.4235 H   0  0  0  0  0  0  0  0  0  0  0  0
    0.9596    1.7504   -1.1934 H   0  0  0  0  0  0  0  0  0  0  0  0
   -1.2248    0.7345   -1.5647 H   0  0  0  0  0  0  0  0  0  0  0  0
   -1.6715   -1.6491   -0.8677 H   0  0  0  0  0  0  0  0  0  0  0  0
   -0.1051   -1.7243    0.0934 H   0  0  0  0  0  0  0  0  0  0  0  0
   -0.7736    0.1979    1.5177 H   0  0  0  0  0  0  0  0  0  0  0  0
   -3.2713    0.5352    1.5070 H   0  0  0  0  0  0  0  0  0  0  0  0
  1  2  1  0
  2  3  2  0
  2  4  1  0
  4  5  1  0
  5  6  1  0
  6  7  1  0
  7  8  1  0
  8  9  2  0
  7  5  1  0
  1 10  1  0
  1 11  1  0
  1 12  1  0
  4 13  1  0
  4 14  1  0
  5 15  1  0
  6 16  1  0
  6 17  1  0
  7 18  1  0
  8 19  1  0
M  END
