
     RDKit          3D

 17 18  0  0  0  0  0  0  0  0999 V2000
    2.5816    0.5265    0.1684 C   0  0  0  0  0  0  0  0  0  0  0  0
    1.5910   -0.4853   -0.2809 C   0  0  0  0  0  0  0  0  0  0  0  0
    1.9624   -1.5615   -0.8074 O   0  0  0  0  0  0  0  0  0  0  0  0
    0.1601   -0.2232   -0.1070 C   0  0  0  0  0  0  0  0  0  0  0  0
   -0.3901    0.8574    0.4277 C   0  0  0  0  0  0  0  0  0  0  0  0
   -1.8722    0.7510    0.4272 C   0  0  0  0  0  0  0  0  0  0  0  0
   -2.3640    0.8516   -0.9191 O   0  0  0  0  0  0  0  0  0  0  0  0
   -2.1715   -0.3770   -0.3363 C   0  0  0  0  0  0  0  0  0  0  0  0
   -0.9092   -1.1469   -0.5101 C   0  0  0  0  0  0  0  0  0  0  0  0
    2.8765    1.1221   -0.7381 H   0  0  0  0  0  0  0  0  0  0  0  0
    3.4559    0.0187    0.6303 H   0  0  0  0  0  0  0  0  0  0  0  0
    2.1174    1.2353    0.8870 H   0  0  0  0  0  0  0  0  0  0  0  0
    0.1343    1.7081    0.8160 H   0  0  0  0  0  0  0  0  0  0  0  0
   -2.4391    1.2616    1.2050 H   0  0  0  0  0  0  0  0  0  0  0  0
   -3.0937   -1.0091   -0.3299 H   0  0  0  0  0  0  0  0  0  0  0  0
   -0.7477   -1.5229   -1.5381 H   0  0  0  0  0  0  0  0  0  0  0  0
   -0.8917   -2.0063    0.1810 H   0  0  0  0  0  0  0  0  0  0  0  0
  1  2  1  0
  2  3  2  0
  2  4  1  0
  4  5  2  0
  5  6  1  0
  6  7  1  0
  7  8  1  0
  8  9  1  0
  9  4  1  0
  8  6  1  0
  1 10  1  0
  1 11  1  0
  1 12  1  0
  5 13  1  0
  6 14  1  0
  8 15  1  0
  9 16  1  0
  9 17  1  0
M  END
