
     RDKit          3D

 19 20  0  0  0  0  0  0  0  0999 V2000
    2.6635    0.1070    0.0627 C   0  0  0  0  0  0  0  0  0  0  0  0
    1.7347    0.4908   -1.0318 C   0  0  0  0  0  0  0  0  0  0  0  0
    2.2089    0.8397   -2.0946 O   0  0  0  0  0  0  0  0  0  0  0  0
    0.2823    0.4530   -0.8445 C   0  0  0  0  0  0  0  0  0  0  0  0
   -0.1923   -0.7251   -0.0082 C   0  0  0  0  0  0  0  0  0  0  0  0
   -1.6651   -0.9787    0.0266 C   0  0  0  0  0  0  0  0  0  0  0  0
   -1.8378    0.4421    0.5457 C   0  0  0  0  0  0  0  0  0  0  0  0
   -2.3100    0.4300    1.8465 O   0  0  0  0  0  0  0  0  0  0  0  0
   -0.3447    0.6466    0.4851 C   0  0  0  0  0  0  0  0  0  0  0  0
    3.7121    0.2618   -0.1813 H   0  0  0  0  0  0  0  0  0  0  0  0
    2.3262    0.6282    0.9848 H   0  0  0  0  0  0  0  0  0  0  0  0
    2.5457   -0.9914    0.3003 H   0  0  0  0  0  0  0  0  0  0  0  0
   -0.3472    0.7547   -1.7100 H   0  0  0  0  0  0  0  0  0  0  0  0
    0.5307   -1.4446    0.3857 H   0  0  0  0  0  0  0  0  0  0  0  0
   -2.0699   -1.1587   -0.9783 H   0  0  0  0  0  0  0  0  0  0  0  0
   -1.9408   -1.7728    0.7391 H   0  0  0  0  0  0  0  0  0  0  0  0
   -2.3872    1.0987   -0.1617 H   0  0  0  0  0  0  0  0  0  0  0  0
   -3.1132   -0.1445    1.8882 H   0  0  0  0  0  0  0  0  0  0  0  0
    0.2041    1.0632    1.3278 H   0  0  0  0  0  0  0  0  0  0  0  0
  1  2  1  0
  2  3  2  0
  2  4  1  0
  4  5  1  0
  5  6  1  0
  6  7  1  0
  7  8  1  0
  7  9  1  0
  9  4  1  0
  9  5  1  0
  1 10  1  0
  1 11  1  0
  1 12  1  0
  4 13  1  0
  5 14  1  0
  6 15  1  0
  6 16  1  0
  7 17  1  0
  8 18  1  0
  9 19  1  0
M  END
