
     RDKit          3D

 21 21  0  0  0  0  0  0  0  0999 V2000
    2.8869    0.8075   -0.3243 C   0  0  0  0  0  0  0  0  0  0  0  0
    1.8269   -0.0139    0.3391 C   0  0  0  0  0  0  0  0  0  0  0  0
    1.5414    0.2556    1.4931 O   0  0  0  0  0  0  0  0  0  0  0  0
    1.1499   -1.1159   -0.3837 C   0  0  0  0  0  0  0  0  0  0  0  0
   -0.3400   -0.9628   -0.4197 C   0  0  0  0  0  0  0  0  0  0  0  0
   -1.0968   -0.9084    0.8484 C   0  0  0  0  0  0  0  0  0  0  0  0
   -1.9704    0.0281   -0.0007 C   0  0  0  0  0  0  0  0  0  0  0  0
   -2.3812    1.2919    0.6887 C   0  0  0  0  0  0  0  0  0  0  0  0
   -0.7964    0.2845   -0.7503 O   0  0  0  0  0  0  0  0  0  0  0  0
    2.4625    1.8576   -0.3139 H   0  0  0  0  0  0  0  0  0  0  0  0
    3.8586    0.7641    0.1836 H   0  0  0  0  0  0  0  0  0  0  0  0
    3.0244    0.4931   -1.3767 H   0  0  0  0  0  0  0  0  0  0  0  0
    1.5296   -1.1429   -1.4213 H   0  0  0  0  0  0  0  0  0  0  0  0
    1.4724   -2.0727    0.0844 H   0  0  0  0  0  0  0  0  0  0  0  0
   -0.7561   -1.7327   -1.1125 H   0  0  0  0  0  0  0  0  0  0  0  0
   -0.6648   -0.4275    1.7289 H   0  0  0  0  0  0  0  0  0  0  0  0
   -1.7227   -1.8213    1.0660 H   0  0  0  0  0  0  0  0  0  0  0  0
   -2.7329   -0.4946   -0.5801 H   0  0  0  0  0  0  0  0  0  0  0  0
   -2.7717    1.9788   -0.0971 H   0  0  0  0  0  0  0  0  0  0  0  0
   -1.4281    1.7821    1.0627 H   0  0  0  0  0  0  0  0  0  0  0  0
   -3.0915    1.1493    1.5113 H   0  0  0  0  0  0  0  0  0  0  0  0
  1  2  1  0
  2  3  2  0
  2  4  1  0
  4  5  1  0
  5  6  1  0
  6  7  1  0
  7  8  1  0
  7  9  1  0
  9  5  1  0
  1 10  1  0
  1 11  1  0
  1 12  1  0
  4 13  1  0
  4 14  1  0
  5 15  1  0
  6 16  1  0
  6 17  1  0
  7 18  1  0
  8 19  1  0
  8 20  1  0
  8 21  1  0
M  END
