
     RDKit          3D

 19 20  0  0  0  0  0  0  0  0999 V2000
    2.6445   -0.3709    0.5550 C   0  0  0  0  0  0  0  0  0  0  0  0
    2.0109    0.8871    0.0685 C   0  0  0  0  0  0  0  0  0  0  0  0
    2.6826    1.8974    0.2001 O   0  0  0  0  0  0  0  0  0  0  0  0
    0.6777    0.9591   -0.5330 C   0  0  0  0  0  0  0  0  0  0  0  0
    0.0495   -0.2156   -1.1835 C   0  0  0  0  0  0  0  0  0  0  0  0
   -1.2786   -0.1112   -1.5502 O   0  0  0  0  0  0  0  0  0  0  0  0
   -1.7819    0.3135   -0.3222 C   0  0  0  0  0  0  0  0  0  0  0  0
   -2.7148   -0.6526    0.3594 C   0  0  0  0  0  0  0  0  0  0  0  0
   -0.3916    0.2076    0.2302 C   0  0  0  0  0  0  0  0  0  0  0  0
    2.6720   -0.3029    1.6694 H   0  0  0  0  0  0  0  0  0  0  0  0
    3.7010   -0.3535    0.2172 H   0  0  0  0  0  0  0  0  0  0  0  0
    2.1074   -1.2747    0.2116 H   0  0  0  0  0  0  0  0  0  0  0  0
    0.3499    1.9666   -0.8432 H   0  0  0  0  0  0  0  0  0  0  0  0
    0.5477   -1.1739   -1.3026 H   0  0  0  0  0  0  0  0  0  0  0  0
   -2.1963    1.3302   -0.4333 H   0  0  0  0  0  0  0  0  0  0  0  0
   -2.2154   -1.1718    1.2029 H   0  0  0  0  0  0  0  0  0  0  0  0
   -3.5531   -0.0684    0.7939 H   0  0  0  0  0  0  0  0  0  0  0  0
   -3.1813   -1.3659   -0.3541 H   0  0  0  0  0  0  0  0  0  0  0  0
   -0.1302   -0.5002    1.0141 H   0  0  0  0  0  0  0  0  0  0  0  0
  1  2  1  0
  2  3  2  0
  2  4  1  0
  4  5  1  0
  5  6  1  0
  6  7  1  0
  7  8  1  0
  7  9  1  0
  9  4  1  0
  9  5  1  0
  1 10  1  0
  1 11  1  0
  1 12  1  0
  4 13  1  0
  5 14  1  0
  7 15  1  0
  8 16  1  0
  8 17  1  0
  8 18  1  0
  9 19  1  0
M  END
