
     RDKit          3D

 17 17  0  0  0  0  0  0  0  0999 V2000
    2.4295   -0.3271    0.1837 C   0  0  0  0  0  0  0  0  0  0  0  0
    1.6936    0.8738   -0.2803 C   0  0  0  0  0  0  0  0  0  0  0  0
    2.2033    1.9611   -0.1770 O   0  0  0  0  0  0  0  0  0  0  0  0
    0.3376    0.7414   -0.8669 C   0  0  0  0  0  0  0  0  0  0  0  0
   -0.6820    0.5082    0.2278 C   0  0  0  0  0  0  0  0  0  0  0  0
   -0.5322   -0.6207    1.0314 O   0  0  0  0  0  0  0  0  0  0  0  0
   -1.4482   -0.8101    0.0324 C   0  0  0  0  0  0  0  0  0  0  0  0
   -2.8874   -0.6966    0.2549 C   0  0  0  0  0  0  0  0  0  0  0  0
   -3.6571   -1.2579   -0.5536 O   0  0  0  0  0  0  0  0  0  0  0  0
    3.1770    0.0019    0.9527 H   0  0  0  0  0  0  0  0  0  0  0  0
    1.7564   -1.1096    0.6086 H   0  0  0  0  0  0  0  0  0  0  0  0
    3.0069   -0.7068   -0.6786 H   0  0  0  0  0  0  0  0  0  0  0  0
    0.3034   -0.0334   -1.6656 H   0  0  0  0  0  0  0  0  0  0  0  0
    0.0234    1.7004   -1.3736 H   0  0  0  0  0  0  0  0  0  0  0  0
   -1.2182    1.3832    0.5717 H   0  0  0  0  0  0  0  0  0  0  0  0
   -1.1344   -1.4373   -0.8288 H   0  0  0  0  0  0  0  0  0  0  0  0
   -3.3717   -0.1705    1.0585 H   0  0  0  0  0  0  0  0  0  0  0  0
  1  2  1  0
  2  3  2  0
  2  4  1  0
  4  5  1  0
  5  6  1  0
  6  7  1  0
  7  8  1  0
  8  9  2  0
  7  5  1  0
  1 10  1  0
  1 11  1  0
  1 12  1  0
  4 13  1  0
  4 14  1  0
  5 15  1  0
  7 16  1  0
  8 17  1  0
M  END
