
     RDKit          3D

 19 20  0  0  0  0  0  0  0  0999 V2000
    2.5754    0.0694    0.0247 C   0  0  0  0  0  0  0  0  0  0  0  0
    1.2149   -0.5783    0.1097 C   0  0  0  0  0  0  0  0  0  0  0  0
    1.1341   -1.7191   -0.2457 O   0  0  0  0  0  0  0  0  0  0  0  0
    0.1203    0.2436    0.6171 C   0  0  0  0  0  0  0  0  0  0  0  0
   -0.1712    1.5066   -0.1982 C   0  0  0  0  0  0  0  0  0  0  0  0
   -1.6042    1.0359   -0.2818 C   0  0  0  0  0  0  0  0  0  0  0  0
   -2.2618    0.6324    0.8688 O   0  0  0  0  0  0  0  0  0  0  0  0
   -1.2743   -0.1882    0.3364 C   0  0  0  0  0  0  0  0  0  0  0  0
   -1.6025   -1.5672   -0.1187 C   0  0  0  0  0  0  0  0  0  0  0  0
    3.3806   -0.6801    0.0357 H   0  0  0  0  0  0  0  0  0  0  0  0
    2.7112    0.7691    0.8966 H   0  0  0  0  0  0  0  0  0  0  0  0
    2.5502    0.6964   -0.8784 H   0  0  0  0  0  0  0  0  0  0  0  0
    0.2423    0.4916    1.7001 H   0  0  0  0  0  0  0  0  0  0  0  0
    0.0047    2.4456    0.3254 H   0  0  0  0  0  0  0  0  0  0  0  0
    0.3437    1.3957   -1.1838 H   0  0  0  0  0  0  0  0  0  0  0  0
   -2.2208    1.2369   -1.1500 H   0  0  0  0  0  0  0  0  0  0  0  0
   -1.0181   -2.3487    0.4139 H   0  0  0  0  0  0  0  0  0  0  0  0
   -2.6933   -1.7659    0.0361 H   0  0  0  0  0  0  0  0  0  0  0  0
   -1.4312   -1.6757   -1.2066 H   0  0  0  0  0  0  0  0  0  0  0  0
  1  2  1  0
  2  3  2  0
  2  4  1  0
  4  5  1  0
  5  6  1  0
  6  7  1  0
  7  8  1  0
  8  9  1  0
  8  4  1  0
  8  6  1  0
  1 10  1  0
  1 11  1  0
  1 12  1  0
  4 13  1  0
  5 14  1  0
  5 15  1  0
  6 16  1  0
  9 17  1  0
  9 18  1  0
  9 19  1  0
M  END
