
     RDKit          3D

 23 23  0  0  0  0  0  0  0  0999 V2000
    2.6629    0.3153    0.1650 C   0  0  0  0  0  0  0  0  0  0  0  0
    1.2221    0.6066    0.4499 C   0  0  0  0  0  0  0  0  0  0  0  0
    0.9516    1.0367    1.5379 O   0  0  0  0  0  0  0  0  0  0  0  0
    0.2522    0.3381   -0.6380 C   0  0  0  0  0  0  0  0  0  0  0  0
    0.3380   -1.1371   -0.9773 C   0  0  0  0  0  0  0  0  0  0  0  0
   -0.7998   -1.8130   -0.2518 C   0  0  0  0  0  0  0  0  0  0  0  0
   -1.3377   -0.7431    0.6837 C   0  0  0  0  0  0  0  0  0  0  0  0
   -1.1739    0.4823   -0.1939 C   0  0  0  0  0  0  0  0  0  0  0  0
   -1.4718    1.7601    0.5111 C   0  0  0  0  0  0  0  0  0  0  0  0
    3.3425    0.9102    0.8050 H   0  0  0  0  0  0  0  0  0  0  0  0
    2.8725    0.5494   -0.8853 H   0  0  0  0  0  0  0  0  0  0  0  0
    2.9151   -0.7474    0.3417 H   0  0  0  0  0  0  0  0  0  0  0  0
    0.4836    0.9723   -1.5186 H   0  0  0  0  0  0  0  0  0  0  0  0
    0.2853   -1.2941   -2.0728 H   0  0  0  0  0  0  0  0  0  0  0  0
    1.2770   -1.6011   -0.6145 H   0  0  0  0  0  0  0  0  0  0  0  0
   -0.5038   -2.7279    0.2681 H   0  0  0  0  0  0  0  0  0  0  0  0
   -1.6061   -1.9872   -1.0156 H   0  0  0  0  0  0  0  0  0  0  0  0
   -2.3948   -0.9230    0.9541 H   0  0  0  0  0  0  0  0  0  0  0  0
   -0.6705   -0.6462    1.5397 H   0  0  0  0  0  0  0  0  0  0  0  0
   -1.8142    0.3098   -1.0876 H   0  0  0  0  0  0  0  0  0  0  0  0
   -0.6610    2.4965    0.5009 H   0  0  0  0  0  0  0  0  0  0  0  0
   -1.8397    1.5957    1.5385 H   0  0  0  0  0  0  0  0  0  0  0  0
   -2.3299    2.2470   -0.0403 H   0  0  0  0  0  0  0  0  0  0  0  0
  1  2  1  0
  2  3  2  0
  2  4  1  0
  4  5  1  0
  5  6  1  0
  6  7  1  0
  7  8  1  0
  8  9  1  0
  8  4  1  0
  1 10  1  0
  1 11  1  0
  1 12  1  0
  4 13  1  0
  5 14  1  0
  5 15  1  0
  6 16  1  0
  6 17  1  0
  7 18  1  0
  7 19  1  0
  8 20  1  0
  9 21  1  0
  9 22  1  0
  9 23  1  0
M  END
