
     RDKit          3D

 19 19  0  0  0  0  0  0  0  0999 V2000
    2.2275    0.8638    0.1856 C   0  0  0  0  0  0  0  0  0  0  0  0
    1.5809   -0.4459    0.2576 C   0  0  0  0  0  0  0  0  0  0  0  0
    2.3273   -1.4537    0.4630 O   0  0  0  0  0  0  0  0  0  0  0  0
    0.1711   -0.6637    0.1126 C   0  0  0  0  0  0  0  0  0  0  0  0
   -0.7679    0.2165   -0.1025 C   0  0  0  0  0  0  0  0  0  0  0  0
   -0.6716    1.6782   -0.2600 C   0  0  0  0  0  0  0  0  0  0  0  0
   -2.0814   -0.5133   -0.1733 C   0  0  0  0  0  0  0  0  0  0  0  0
   -1.7970   -1.6136    0.6511 O   0  0  0  0  0  0  0  0  0  0  0  0
   -0.5454   -2.0071    0.1814 C   0  0  0  0  0  0  0  0  0  0  0  0
    2.3185    1.1632   -0.8863 H   0  0  0  0  0  0  0  0  0  0  0  0
    1.7079    1.5911    0.8062 H   0  0  0  0  0  0  0  0  0  0  0  0
    3.3135    0.7923    0.5305 H   0  0  0  0  0  0  0  0  0  0  0  0
    0.1370    2.0226   -0.9156 H   0  0  0  0  0  0  0  0  0  0  0  0
   -1.6753    2.0646   -0.6421 H   0  0  0  0  0  0  0  0  0  0  0  0
   -0.5624    2.1966    0.7411 H   0  0  0  0  0  0  0  0  0  0  0  0
   -2.1807   -0.8737   -1.2221 H   0  0  0  0  0  0  0  0  0  0  0  0
   -2.9104    0.0924    0.1783 H   0  0  0  0  0  0  0  0  0  0  0  0
   -0.5948   -2.4687   -0.8087 H   0  0  0  0  0  0  0  0  0  0  0  0
    0.0033   -2.6414    0.9033 H   0  0  0  0  0  0  0  0  0  0  0  0
  1  2  1  0
  2  3  2  0
  2  4  1  0
  4  5  2  0
  5  6  1  0
  5  7  1  0
  7  8  1  0
  8  9  1  0
  9  4  1  0
  1 10  1  0
  1 11  1  0
  1 12  1  0
  6 13  1  0
  6 14  1  0
  6 15  1  0
  7 16  1  0
  7 17  1  0
  9 18  1  0
  9 19  1  0
M  END
