
     RDKit          3D

 19 19  0  0  0  0  0  0  0  0999 V2000
   -2.3749    0.8146   -0.5201 C   0  0  0  0  0  0  0  0  0  0  0  0
   -1.3059    1.1226    0.4698 C   0  0  0  0  0  0  0  0  0  0  0  0
   -1.3210    2.2364    0.9592 O   0  0  0  0  0  0  0  0  0  0  0  0
   -0.2638    0.1722    0.8717 C   0  0  0  0  0  0  0  0  0  0  0  0
   -0.4591   -1.2895    0.8155 C   0  0  0  0  0  0  0  0  0  0  0  0
    0.3139   -0.6186   -0.3127 C   0  0  0  0  0  0  0  0  0  0  0  0
    1.8127   -0.7893   -0.3644 C   0  0  0  0  0  0  0  0  0  0  0  0
    2.5355    0.4824   -0.4269 C   0  0  0  0  0  0  0  0  0  0  0  0
    3.7516    0.4936   -0.4727 O   0  0  0  0  0  0  0  0  0  0  0  0
   -2.4851   -0.2786   -0.6664 H   0  0  0  0  0  0  0  0  0  0  0  0
   -2.0731    1.3271   -1.4659 H   0  0  0  0  0  0  0  0  0  0  0  0
   -3.3084    1.3048   -0.1746 H   0  0  0  0  0  0  0  0  0  0  0  0
    0.4620    0.5532    1.6212 H   0  0  0  0  0  0  0  0  0  0  0  0
   -1.4394   -1.7484    0.5896 H   0  0  0  0  0  0  0  0  0  0  0  0
    0.1756   -1.9065    1.4649 H   0  0  0  0  0  0  0  0  0  0  0  0
   -0.2254   -0.6039   -1.2590 H   0  0  0  0  0  0  0  0  0  0  0  0
    2.0629   -1.3854   -1.2649 H   0  0  0  0  0  0  0  0  0  0  0  0
    2.1195   -1.3121    0.5697 H   0  0  0  0  0  0  0  0  0  0  0  0
    2.0223    1.4252   -0.4341 H   0  0  0  0  0  0  0  0  0  0  0  0
  1  2  1  0
  2  3  2  0
  2  4  1  0
  4  5  1  0
  5  6  1  0
  6  7  1  0
  7  8  1  0
  8  9  2  0
  6  4  1  0
  1 10  1  0
  1 11  1  0
  1 12  1  0
  4 13  1  0
  5 14  1  0
  5 15  1  0
  6 16  1  0
  7 17  1  0
  7 18  1  0
  8 19  1  0
M  END
