
     RDKit          3D

 23 23  0  0  0  0  0  0  0  0999 V2000
    2.5194    1.0388    0.4360 C   0  0  0  0  0  0  0  0  0  0  0  0
    1.6068    0.0460   -0.2112 C   0  0  0  0  0  0  0  0  0  0  0  0
    2.0802   -1.0421   -0.4589 O   0  0  0  0  0  0  0  0  0  0  0  0
    0.2005    0.3497   -0.5421 C   0  0  0  0  0  0  0  0  0  0  0  0
   -0.4957   -0.8382   -1.1585 C   0  0  0  0  0  0  0  0  0  0  0  0
   -0.1079   -2.1411   -0.5455 C   0  0  0  0  0  0  0  0  0  0  0  0
   -1.7668   -0.3448   -0.4465 C   0  0  0  0  0  0  0  0  0  0  0  0
   -0.8066    0.2584    0.5656 C   0  0  0  0  0  0  0  0  0  0  0  0
   -1.3058    1.5666    1.1141 C   0  0  0  0  0  0  0  0  0  0  0  0
    3.1793    1.5366   -0.3049 H   0  0  0  0  0  0  0  0  0  0  0  0
    1.9377    1.7784    1.0352 H   0  0  0  0  0  0  0  0  0  0  0  0
    3.1603    0.4898    1.1486 H   0  0  0  0  0  0  0  0  0  0  0  0
    0.1189    1.2770   -1.1678 H   0  0  0  0  0  0  0  0  0  0  0  0
   -0.5863   -0.8151   -2.2586 H   0  0  0  0  0  0  0  0  0  0  0  0
   -0.9928   -2.8532   -0.5050 H   0  0  0  0  0  0  0  0  0  0  0  0
    0.2474   -2.0712    0.4824 H   0  0  0  0  0  0  0  0  0  0  0  0
    0.6160   -2.6875   -1.1869 H   0  0  0  0  0  0  0  0  0  0  0  0
   -2.3326    0.4011   -1.0489 H   0  0  0  0  0  0  0  0  0  0  0  0
   -2.4009   -1.1555   -0.0538 H   0  0  0  0  0  0  0  0  0  0  0  0
   -0.5387   -0.4381    1.3539 H   0  0  0  0  0  0  0  0  0  0  0  0
   -1.8516    1.3348    2.0536 H   0  0  0  0  0  0  0  0  0  0  0  0
   -2.0309    2.0673    0.4115 H   0  0  0  0  0  0  0  0  0  0  0  0
   -0.4501    2.2424    1.2879 H   0  0  0  0  0  0  0  0  0  0  0  0
  1  2  1  0
  2  3  2  0
  2  4  1  0
  4  5  1  0
  5  6  1  0
  5  7  1  0
  7  8  1  0
  8  9  1  0
  8  4  1  0
  1 10  1  0
  1 11  1  0
  1 12  1  0
  4 13  1  0
  5 14  1  0
  6 15  1  0
  6 16  1  0
  6 17  1  0
  7 18  1  0
  7 19  1  0
  8 20  1  0
  9 21  1  0
  9 22  1  0
  9 23  1  0
M  END
