
     RDKit          3D

 11 10  0  0  0  0  0  0  0  0999 V2000
   -2.0789   -0.1429   -0.1833 C   0  0  0  0  0  0  0  0  0  0  0  0
   -0.8030   -0.8090    0.2404 C   0  0  0  0  0  0  0  0  0  0  0  0
   -0.8301   -1.8016    1.0180 O   0  0  0  0  0  0  0  0  0  0  0  0
    0.4188   -0.2673   -0.2755 C   0  0  0  0  0  0  0  0  0  0  0  0
    1.4711    0.1866   -0.6986 C   0  0  0  0  0  0  0  0  0  0  0  0
    2.6911    0.7349   -1.1894 C   0  0  0  0  0  0  0  0  0  0  0  0
    2.6458    1.4670   -2.1995 O   0  0  0  0  0  0  0  0  0  0  0  0
   -1.8790    0.8751   -0.5544 H   0  0  0  0  0  0  0  0  0  0  0  0
   -2.6820   -0.0306    0.7409 H   0  0  0  0  0  0  0  0  0  0  0  0
   -2.5980   -0.7653   -0.9406 H   0  0  0  0  0  0  0  0  0  0  0  0
    3.6443    0.5530   -0.7387 H   0  0  0  0  0  0  0  0  0  0  0  0
  1  2  1  0
  2  3  2  0
  2  4  1  0
  4  5  3  0
  5  6  1  0
  6  7  2  0
  1  8  1  0
  1  9  1  0
  1 10  1  0
  6 11  1  0
M  END
