
     RDKit          3D

 16 17  0  0  0  0  0  0  0  0999 V2000
    2.3811   -0.3989   -0.2905 C   0  0  0  0  0  0  0  0  0  0  0  0
    1.2971   -0.3246    0.7248 C   0  0  0  0  0  0  0  0  0  0  0  0
    1.3184   -0.9387    1.7718 O   0  0  0  0  0  0  0  0  0  0  0  0
    0.1296    0.5425    0.4473 C   0  0  0  0  0  0  0  0  0  0  0  0
   -0.8448    0.5780    1.4143 O   0  0  0  0  0  0  0  0  0  0  0  0
   -1.7869    0.6628    0.3632 C   0  0  0  0  0  0  0  0  0  0  0  0
   -2.0856   -0.6143   -0.2968 C   0  0  0  0  0  0  0  0  0  0  0  0
   -0.8049    0.0316   -0.5906 C   0  0  0  0  0  0  0  0  0  0  0  0
    1.9232   -0.2451   -1.2876 H   0  0  0  0  0  0  0  0  0  0  0  0
    2.9522   -1.3502   -0.2375 H   0  0  0  0  0  0  0  0  0  0  0  0
    3.0434    0.4804   -0.1181 H   0  0  0  0  0  0  0  0  0  0  0  0
    0.4409    1.6000    0.2021 H   0  0  0  0  0  0  0  0  0  0  0  0
   -2.2635    1.6102    0.1401 H   0  0  0  0  0  0  0  0  0  0  0  0
   -2.1482   -1.5144    0.3354 H   0  0  0  0  0  0  0  0  0  0  0  0
   -2.8823   -0.5648   -1.0897 H   0  0  0  0  0  0  0  0  0  0  0  0
   -0.6698    0.4455   -1.6067 H   0  0  0  0  0  0  0  0  0  0  0  0
  1  2  1  0
  2  3  2  0
  2  4  1  0
  4  5  1  0
  5  6  1  0
  6  7  1  0
  7  8  1  0
  8  4  1  0
  8  6  1  0
  1  9  1  0
  1 10  1  0
  1 11  1  0
  4 12  1  0
  6 13  1  0
  7 14  1  0
  7 15  1  0
  8 16  1  0
M  END
