
     RDKit          3D

 18 18  0  0  0  0  0  0  0  0999 V2000
    2.0330    0.1838   -0.7184 C   0  0  0  0  0  0  0  0  0  0  0  0
    1.3291    0.2531    0.5662 C   0  0  0  0  0  0  0  0  0  0  0  0
    1.9043    0.9898    1.3607 O   0  0  0  0  0  0  0  0  0  0  0  0
    0.1315   -0.3641    1.0440 C   0  0  0  0  0  0  0  0  0  0  0  0
   -0.0886    0.0317    2.3642 O   0  0  0  0  0  0  0  0  0  0  0  0
   -1.1482   -0.2836    0.3486 C   0  0  0  0  0  0  0  0  0  0  0  0
   -1.5112   -0.7185   -0.9846 C   0  0  0  0  0  0  0  0  0  0  0  0
   -1.1689    0.7532   -0.7966 C   0  0  0  0  0  0  0  0  0  0  0  0
    3.0829   -0.1894   -0.5287 H   0  0  0  0  0  0  0  0  0  0  0  0
    2.1682    1.2075   -1.1224 H   0  0  0  0  0  0  0  0  0  0  0  0
    1.6198   -0.4402   -1.4811 H   0  0  0  0  0  0  0  0  0  0  0  0
    0.3647   -1.4756    1.1498 H   0  0  0  0  0  0  0  0  0  0  0  0
   -1.0265   -0.1374    2.6251 H   0  0  0  0  0  0  0  0  0  0  0  0
   -2.0015   -0.1814    1.0543 H   0  0  0  0  0  0  0  0  0  0  0  0
   -2.5849   -0.8696   -1.2180 H   0  0  0  0  0  0  0  0  0  0  0  0
   -0.8922   -1.3309   -1.6547 H   0  0  0  0  0  0  0  0  0  0  0  0
   -1.9897    1.4998   -0.7756 H   0  0  0  0  0  0  0  0  0  0  0  0
   -0.2218    1.0718   -1.2329 H   0  0  0  0  0  0  0  0  0  0  0  0
  1  2  1  0
  2  3  2  0
  2  4  1  0
  4  5  1  0
  4  6  1  0
  6  7  1  0
  7  8  1  0
  8  6  1  0
  1  9  1  0
  1 10  1  0
  1 11  1  0
  4 12  1  0
  5 13  1  0
  6 14  1  0
  7 15  1  0
  7 16  1  0
  8 17  1  0
  8 18  1  0
M  END
