
     RDKit          3D

 15 16  0  0  0  0  0  0  0  0999 V2000
    2.0109   -0.0316   -0.6216 C   0  0  0  0  0  0  0  0  0  0  0  0
    1.0769    0.7093    0.2656 C   0  0  0  0  0  0  0  0  0  0  0  0
    1.5146    1.7353    0.7769 O   0  0  0  0  0  0  0  0  0  0  0  0
   -0.2916    0.3026    0.5581 C   0  0  0  0  0  0  0  0  0  0  0  0
   -0.7715   -1.1005    0.2961 C   0  0  0  0  0  0  0  0  0  0  0  0
   -2.0354   -0.4942   -0.1867 C   0  0  0  0  0  0  0  0  0  0  0  0
   -3.1127   -0.8218   -0.6221 O   0  0  0  0  0  0  0  0  0  0  0  0
   -1.4463    0.8410    0.0839 C   0  0  0  0  0  0  0  0  0  0  0  0
   -1.0450    1.0789    1.3938 O   0  0  0  0  0  0  0  0  0  0  0  0
    3.0202   -0.0055   -0.1154 H   0  0  0  0  0  0  0  0  0  0  0  0
    1.7298   -1.0897   -0.7617 H   0  0  0  0  0  0  0  0  0  0  0  0
    2.0539    0.5158   -1.5806 H   0  0  0  0  0  0  0  0  0  0  0  0
   -0.9283   -1.6308    1.2814 H   0  0  0  0  0  0  0  0  0  0  0  0
   -0.1964   -1.6766   -0.4360 H   0  0  0  0  0  0  0  0  0  0  0  0
   -1.5790    1.6678   -0.6193 H   0  0  0  0  0  0  0  0  0  0  0  0
  1  2  1  0
  2  3  2  0
  2  4  1  0
  4  5  1  0
  5  6  1  0
  6  7  2  0
  6  8  1  0
  8  9  1  0
  8  4  1  0
  9  4  1  0
  1 10  1  0
  1 11  1  0
  1 12  1  0
  5 13  1  0
  5 14  1  0
  8 15  1  0
M  END
