
     RDKit          3D

 19 18  0  0  0  0  0  0  0  0999 V2000
   -2.0656    0.8610    0.4784 C   0  0  0  0  0  0  0  0  0  0  0  0
   -0.9723    0.4817   -0.4433 C   0  0  0  0  0  0  0  0  0  0  0  0
   -1.0580    0.6620   -1.6465 O   0  0  0  0  0  0  0  0  0  0  0  0
    0.2954   -0.1419    0.0461 C   0  0  0  0  0  0  0  0  0  0  0  0
    0.3058   -0.3079    1.4155 O   0  0  0  0  0  0  0  0  0  0  0  0
    0.3542   -1.5268   -0.5782 C   0  0  0  0  0  0  0  0  0  0  0  0
   -0.7969   -2.2006   -0.1087 O   0  0  0  0  0  0  0  0  0  0  0  0
    1.4512    0.7201   -0.4120 C   0  0  0  0  0  0  0  0  0  0  0  0
    1.2981    1.9596    0.2257 O   0  0  0  0  0  0  0  0  0  0  0  0
   -2.6160   -0.0380    0.8790 H   0  0  0  0  0  0  0  0  0  0  0  0
   -2.7791    1.4962   -0.0837 H   0  0  0  0  0  0  0  0  0  0  0  0
   -1.6452    1.4683    1.3330 H   0  0  0  0  0  0  0  0  0  0  0  0
    1.2583   -0.1774    1.7087 H   0  0  0  0  0  0  0  0  0  0  0  0
    0.3830   -1.4821   -1.6759 H   0  0  0  0  0  0  0  0  0  0  0  0
    1.2545   -2.0607   -0.2232 H   0  0  0  0  0  0  0  0  0  0  0  0
   -0.6241   -3.1329    0.1045 H   0  0  0  0  0  0  0  0  0  0  0  0
    2.4293    0.2704   -0.2048 H   0  0  0  0  0  0  0  0  0  0  0  0
    1.3962    0.9223   -1.4943 H   0  0  0  0  0  0  0  0  0  0  0  0
    2.1316    2.2266    0.6798 H   0  0  0  0  0  0  0  0  0  0  0  0
  1  2  1  0
  2  3  2  0
  2  4  1  0
  4  5  1  0
  4  6  1  0
  6  7  1  0
  4  8  1  0
  8  9  1  0
  1 10  1  0
  1 11  1  0
  1 12  1  0
  5 13  1  0
  6 14  1  0
  6 15  1  0
  7 16  1  0
  8 17  1  0
  8 18  1  0
  9 19  1  0
M  END
