
     RDKit          3D

 21 21  0  0  0  0  0  0  0  0999 V2000
    2.8429    0.0732   -0.1758 C   0  0  0  0  0  0  0  0  0  0  0  0
    1.5909    0.0209   -0.9705 C   0  0  0  0  0  0  0  0  0  0  0  0
    1.6222    0.3967   -2.1246 O   0  0  0  0  0  0  0  0  0  0  0  0
    0.3630   -0.4757   -0.3535 C   0  0  0  0  0  0  0  0  0  0  0  0
   -0.0263    0.3644    0.8439 C   0  0  0  0  0  0  0  0  0  0  0  0
   -1.4539    0.3598    0.2973 C   0  0  0  0  0  0  0  0  0  0  0  0
   -2.2692   -0.6769    1.0399 C   0  0  0  0  0  0  0  0  0  0  0  0
   -0.9305   -0.1266   -1.0343 C   0  0  0  0  0  0  0  0  0  0  0  0
   -0.8501    0.8220   -2.0335 O   0  0  0  0  0  0  0  0  0  0  0  0
    3.0922    1.1053    0.1394 H   0  0  0  0  0  0  0  0  0  0  0  0
    2.7875   -0.5368    0.7526 H   0  0  0  0  0  0  0  0  0  0  0  0
    3.6980   -0.3428   -0.7554 H   0  0  0  0  0  0  0  0  0  0  0  0
    0.3676   -1.5461   -0.0825 H   0  0  0  0  0  0  0  0  0  0  0  0
    0.1047   -0.1562    1.7990 H   0  0  0  0  0  0  0  0  0  0  0  0
    0.3935    1.3926    0.8088 H   0  0  0  0  0  0  0  0  0  0  0  0
   -1.9225    1.3618    0.2696 H   0  0  0  0  0  0  0  0  0  0  0  0
   -3.0695   -1.1074    0.3729 H   0  0  0  0  0  0  0  0  0  0  0  0
   -2.7372   -0.1555    1.9110 H   0  0  0  0  0  0  0  0  0  0  0  0
   -1.5886   -1.4741    1.4061 H   0  0  0  0  0  0  0  0  0  0  0  0
   -1.5082   -0.9966   -1.3793 H   0  0  0  0  0  0  0  0  0  0  0  0
   -0.5064    1.6982   -1.7335 H   0  0  0  0  0  0  0  0  0  0  0  0
  1  2  1  0
  2  3  2  0
  2  4  1  0
  4  5  1  0
  5  6  1  0
  6  7  1  0
  6  8  1  0
  8  9  1  0
  8  4  1  0
  1 10  1  0
  1 11  1  0
  1 12  1  0
  4 13  1  0
  5 14  1  0
  5 15  1  0
  6 16  1  0
  7 17  1  0
  7 18  1  0
  7 19  1  0
  8 20  1  0
  9 21  1  0
M  END
