
     RDKit          3D

 19 19  0  0  0  0  0  0  0  0999 V2000
   -2.7817    0.3548    0.2940 C   0  0  0  0  0  0  0  0  0  0  0  0
   -1.6696   -0.6348    0.2465 C   0  0  0  0  0  0  0  0  0  0  0  0
   -2.0017   -1.8480    0.3590 O   0  0  0  0  0  0  0  0  0  0  0  0
   -0.2751   -0.2512    0.0810 C   0  0  0  0  0  0  0  0  0  0  0  0
    0.0682    1.0024   -0.0353 C   0  0  0  0  0  0  0  0  0  0  0  0
    1.5101    1.4008   -0.2065 C   0  0  0  0  0  0  0  0  0  0  0  0
    2.2746    0.4829    0.5052 O   0  0  0  0  0  0  0  0  0  0  0  0
    2.1491   -0.7409   -0.1661 C   0  0  0  0  0  0  0  0  0  0  0  0
    0.7614   -1.2953    0.0445 C   0  0  0  0  0  0  0  0  0  0  0  0
   -2.5761    1.2640   -0.2872 H   0  0  0  0  0  0  0  0  0  0  0  0
   -3.0556    0.6236    1.3280 H   0  0  0  0  0  0  0  0  0  0  0  0
   -3.7163   -0.0890   -0.1622 H   0  0  0  0  0  0  0  0  0  0  0  0
   -0.6324    1.8220   -0.0181 H   0  0  0  0  0  0  0  0  0  0  0  0
    1.6809    2.4398    0.1342 H   0  0  0  0  0  0  0  0  0  0  0  0
    1.8197    1.3237   -1.2710 H   0  0  0  0  0  0  0  0  0  0  0  0
    2.9112   -1.4389    0.2272 H   0  0  0  0  0  0  0  0  0  0  0  0
    2.2731   -0.5168   -1.2438 H   0  0  0  0  0  0  0  0  0  0  0  0
    0.7171   -1.9221    0.9735 H   0  0  0  0  0  0  0  0  0  0  0  0
    0.5433   -1.9769   -0.8028 H   0  0  0  0  0  0  0  0  0  0  0  0
  1  2  1  0
  2  3  2  0
  2  4  1  0
  4  5  2  0
  5  6  1  0
  6  7  1  0
  7  8  1  0
  8  9  1  0
  9  4  1  0
  1 10  1  0
  1 11  1  0
  1 12  1  0
  5 13  1  0
  6 14  1  0
  6 15  1  0
  8 16  1  0
  8 17  1  0
  9 18  1  0
  9 19  1  0
M  END
