
     RDKit          3D

 19 20  0  0  0  0  0  0  0  0999 V2000
    2.8561    0.1084    0.3189 C   0  0  0  0  0  0  0  0  0  0  0  0
    1.4870    0.3298   -0.2008 C   0  0  0  0  0  0  0  0  0  0  0  0
    1.2389    1.2096   -1.0066 O   0  0  0  0  0  0  0  0  0  0  0  0
    0.3606   -0.5237    0.2492 C   0  0  0  0  0  0  0  0  0  0  0  0
   -0.5413   -0.9968   -0.9193 C   0  0  0  0  0  0  0  0  0  0  0  0
   -1.0253   -0.1035    0.1028 C   0  0  0  0  0  0  0  0  0  0  0  0
   -1.5115    1.2684   -0.0612 C   0  0  0  0  0  0  0  0  0  0  0  0
   -2.5844    0.9479    0.8058 O   0  0  0  0  0  0  0  0  0  0  0  0
   -2.1117   -0.3614    1.0637 C   0  0  0  0  0  0  0  0  0  0  0  0
    2.8761   -0.3270    1.3332 H   0  0  0  0  0  0  0  0  0  0  0  0
    3.4467    1.0646    0.2949 H   0  0  0  0  0  0  0  0  0  0  0  0
    3.4434   -0.5984   -0.3337 H   0  0  0  0  0  0  0  0  0  0  0  0
    0.6528   -1.3072    0.9842 H   0  0  0  0  0  0  0  0  0  0  0  0
   -0.3314   -0.6020   -1.9217 H   0  0  0  0  0  0  0  0  0  0  0  0
   -0.7925   -2.0811   -0.8794 H   0  0  0  0  0  0  0  0  0  0  0  0
   -1.8363    1.5035   -1.0774 H   0  0  0  0  0  0  0  0  0  0  0  0
   -0.9422    2.0941    0.4066 H   0  0  0  0  0  0  0  0  0  0  0  0
   -1.8374   -0.5235    2.1251 H   0  0  0  0  0  0  0  0  0  0  0  0
   -2.8475   -1.1016    0.6697 H   0  0  0  0  0  0  0  0  0  0  0  0
  1  2  1  0
  2  3  2  0
  2  4  1  0
  4  5  1  0
  5  6  1  0
  6  7  1  0
  7  8  1  0
  8  9  1  0
  6  4  1  0
  9  6  1  0
  1 10  1  0
  1 11  1  0
  1 12  1  0
  4 13  1  0
  5 14  1  0
  5 15  1  0
  7 16  1  0
  7 17  1  0
  9 18  1  0
  9 19  1  0
M  END
