
     RDKit          3D

 21 21  0  0  0  0  0  0  0  0999 V2000
   -1.9671    0.8657    1.0066 C   0  0  0  0  0  0  0  0  0  0  0  0
   -1.8691    0.0381   -0.2230 C   0  0  0  0  0  0  0  0  0  0  0  0
   -2.9184   -0.1816   -0.8048 O   0  0  0  0  0  0  0  0  0  0  0  0
   -0.6434   -0.5216   -0.7794 C   0  0  0  0  0  0  0  0  0  0  0  0
   -0.8408   -1.2485   -1.9266 O   0  0  0  0  0  0  0  0  0  0  0  0
    0.2976   -1.2060    0.1742 C   0  0  0  0  0  0  0  0  0  0  0  0
    1.4264   -0.3096   -0.2138 C   0  0  0  0  0  0  0  0  0  0  0  0
    2.0681    0.3414    0.9792 C   0  0  0  0  0  0  0  0  0  0  0  0
    0.4427    0.5460   -0.9705 C   0  0  0  0  0  0  0  0  0  0  0  0
   -2.8892    0.5999    1.5375 H   0  0  0  0  0  0  0  0  0  0  0  0
   -1.9609    1.9309    0.6766 H   0  0  0  0  0  0  0  0  0  0  0  0
   -1.0891    0.7505    1.6695 H   0  0  0  0  0  0  0  0  0  0  0  0
   -0.3452   -0.8915   -2.6859 H   0  0  0  0  0  0  0  0  0  0  0  0
    0.5233   -2.2562   -0.1366 H   0  0  0  0  0  0  0  0  0  0  0  0
   -0.0383   -1.1950    1.2107 H   0  0  0  0  0  0  0  0  0  0  0  0
    2.2128   -0.7892   -0.8398 H   0  0  0  0  0  0  0  0  0  0  0  0
    2.5385   -0.4889    1.5822 H   0  0  0  0  0  0  0  0  0  0  0  0
    1.3121    0.7905    1.6238 H   0  0  0  0  0  0  0  0  0  0  0  0
    2.8836    1.0313    0.6840 H   0  0  0  0  0  0  0  0  0  0  0  0
    0.6920    0.6969   -2.0448 H   0  0  0  0  0  0  0  0  0  0  0  0
    0.1641    1.4971   -0.5193 H   0  0  0  0  0  0  0  0  0  0  0  0
  1  2  1  0
  2  3  2  0
  2  4  1  0
  4  5  1  0
  4  6  1  0
  6  7  1  0
  7  8  1  0
  7  9  1  0
  9  4  1  0
  1 10  1  0
  1 11  1  0
  1 12  1  0
  5 13  1  0
  6 14  1  0
  6 15  1  0
  7 16  1  0
  8 17  1  0
  8 18  1  0
  8 19  1  0
  9 20  1  0
  9 21  1  0
M  END
