
     RDKit          3D

 19 19  0  0  0  0  0  0  0  0999 V2000
    2.5087    0.2650   -0.4500 C   0  0  0  0  0  0  0  0  0  0  0  0
    1.2669   -0.5072   -0.1581 C   0  0  0  0  0  0  0  0  0  0  0  0
    1.2154   -1.6734   -0.5077 O   0  0  0  0  0  0  0  0  0  0  0  0
    0.1077    0.0906    0.5348 C   0  0  0  0  0  0  0  0  0  0  0  0
   -0.3978    1.2721   -0.2965 C   0  0  0  0  0  0  0  0  0  0  0  0
   -1.0383    0.5826   -1.3275 O   0  0  0  0  0  0  0  0  0  0  0  0
   -1.9486   -0.1636   -0.5746 C   0  0  0  0  0  0  0  0  0  0  0  0
   -1.0718   -0.8421    0.4520 C   0  0  0  0  0  0  0  0  0  0  0  0
   -1.7052   -1.0242    1.6631 O   0  0  0  0  0  0  0  0  0  0  0  0
    2.3068    1.3310   -0.2550 H   0  0  0  0  0  0  0  0  0  0  0  0
    2.7633    0.1555   -1.5259 H   0  0  0  0  0  0  0  0  0  0  0  0
    3.3068   -0.1458    0.2131 H   0  0  0  0  0  0  0  0  0  0  0  0
    0.3329    0.3978    1.5742 H   0  0  0  0  0  0  0  0  0  0  0  0
    0.3939    1.9304   -0.6301 H   0  0  0  0  0  0  0  0  0  0  0  0
   -1.1818    1.8015    0.3067 H   0  0  0  0  0  0  0  0  0  0  0  0
   -2.6732    0.5302   -0.1505 H   0  0  0  0  0  0  0  0  0  0  0  0
   -2.3813   -0.9136   -1.2619 H   0  0  0  0  0  0  0  0  0  0  0  0
   -0.7942   -1.8415    0.0580 H   0  0  0  0  0  0  0  0  0  0  0  0
   -1.0103   -1.2451    2.3358 H   0  0  0  0  0  0  0  0  0  0  0  0
  1  2  1  0
  2  3  2  0
  2  4  1  0
  4  5  1  0
  5  6  1  0
  6  7  1  0
  7  8  1  0
  8  9  1  0
  8  4  1  0
  1 10  1  0
  1 11  1  0
  1 12  1  0
  4 13  1  0
  5 14  1  0
  5 15  1  0
  7 16  1  0
  7 17  1  0
  8 18  1  0
  9 19  1  0
M  END
