
     RDKit          3D

 21 21  0  0  0  0  0  0  0  0999 V2000
    3.3845    0.0016   -0.4867 C   0  0  0  0  0  0  0  0  0  0  0  0
    2.1175   -0.5058    0.1263 C   0  0  0  0  0  0  0  0  0  0  0  0
    2.0543   -1.5389    0.7352 O   0  0  0  0  0  0  0  0  0  0  0  0
    0.9065    0.3396   -0.0511 C   0  0  0  0  0  0  0  0  0  0  0  0
   -0.2430   -0.3305    0.6255 C   0  0  0  0  0  0  0  0  0  0  0  0
   -1.5340    0.4159    0.5251 C   0  0  0  0  0  0  0  0  0  0  0  0
   -2.0741    0.6774   -0.8354 C   0  0  0  0  0  0  0  0  0  0  0  0
   -3.3513    0.3951   -0.2904 O   0  0  0  0  0  0  0  0  0  0  0  0
   -2.7035   -0.5739    0.4845 C   0  0  0  0  0  0  0  0  0  0  0  0
    4.2026   -0.5991   -0.0652 H   0  0  0  0  0  0  0  0  0  0  0  0
    3.4536    1.0811   -0.2437 H   0  0  0  0  0  0  0  0  0  0  0  0
    3.3314   -0.0696   -1.5989 H   0  0  0  0  0  0  0  0  0  0  0  0
    0.7195    0.5657   -1.1165 H   0  0  0  0  0  0  0  0  0  0  0  0
    1.1151    1.3056    0.4618 H   0  0  0  0  0  0  0  0  0  0  0  0
    0.0109   -0.3981    1.7169 H   0  0  0  0  0  0  0  0  0  0  0  0
   -0.3323   -1.3902    0.2872 H   0  0  0  0  0  0  0  0  0  0  0  0
   -1.6574    1.2535    1.2064 H   0  0  0  0  0  0  0  0  0  0  0  0
   -1.8615   -0.0969   -1.5974 H   0  0  0  0  0  0  0  0  0  0  0  0
   -1.9829    1.7129   -1.2114 H   0  0  0  0  0  0  0  0  0  0  0  0
   -3.1481   -0.7926    1.4518 H   0  0  0  0  0  0  0  0  0  0  0  0
   -2.4077   -1.4531   -0.1240 H   0  0  0  0  0  0  0  0  0  0  0  0
  1  2  1  0
  2  3  2  0
  2  4  1  0
  4  5  1  0
  5  6  1  0
  6  7  1  0
  7  8  1  0
  8  9  1  0
  9  6  1  0
  1 10  1  0
  1 11  1  0
  1 12  1  0
  4 13  1  0
  4 14  1  0
  5 15  1  0
  5 16  1  0
  6 17  1  0
  7 18  1  0
  7 19  1  0
  9 20  1  0
  9 21  1  0
M  END
