
     RDKit          3D

 23 22  0  0  0  0  0  0  0  0999 V2000
    3.3289    0.9739    0.2193 C   0  0  0  0  0  0  0  0  0  0  0  0
    2.8799   -0.3901   -0.1700 C   0  0  0  0  0  0  0  0  0  0  0  0
    3.6811   -1.3018   -0.1265 O   0  0  0  0  0  0  0  0  0  0  0  0
    1.5041   -0.6963   -0.6127 C   0  0  0  0  0  0  0  0  0  0  0  0
    0.4512    0.0798    0.1390 C   0  0  0  0  0  0  0  0  0  0  0  0
   -0.8822   -0.3337   -0.4435 C   0  0  0  0  0  0  0  0  0  0  0  0
   -2.0453    0.3712    0.2283 C   0  0  0  0  0  0  0  0  0  0  0  0
   -3.2980   -0.1423   -0.4740 C   0  0  0  0  0  0  0  0  0  0  0  0
   -2.1232   -0.0481    1.5707 O   0  0  0  0  0  0  0  0  0  0  0  0
    4.2665    1.2449   -0.3351 H   0  0  0  0  0  0  0  0  0  0  0  0
    3.4757    0.9734    1.3154 H   0  0  0  0  0  0  0  0  0  0  0  0
    2.5833    1.7554   -0.0963 H   0  0  0  0  0  0  0  0  0  0  0  0
    1.4400   -0.5228   -1.6945 H   0  0  0  0  0  0  0  0  0  0  0  0
    1.3069   -1.7822   -0.3830 H   0  0  0  0  0  0  0  0  0  0  0  0
    0.4511   -0.2065    1.2266 H   0  0  0  0  0  0  0  0  0  0  0  0
    0.5419    1.1602    0.0617 H   0  0  0  0  0  0  0  0  0  0  0  0
   -0.8955   -0.0338   -1.5214 H   0  0  0  0  0  0  0  0  0  0  0  0
   -0.9620   -1.4146   -0.3293 H   0  0  0  0  0  0  0  0  0  0  0  0
   -1.9555    1.4538    0.2130 H   0  0  0  0  0  0  0  0  0  0  0  0
   -3.2157   -1.2452   -0.5555 H   0  0  0  0  0  0  0  0  0  0  0  0
   -4.2198    0.2073    0.0079 H   0  0  0  0  0  0  0  0  0  0  0  0
   -3.2513    0.2339   -1.5338 H   0  0  0  0  0  0  0  0  0  0  0  0
   -3.0620   -0.3363    1.7917 H   0  0  0  0  0  0  0  0  0  0  0  0
  1  2  1  0
  2  3  2  0
  2  4  1  0
  4  5  1  0
  5  6  1  0
  6  7  1  0
  7  8  1  0
  7  9  1  0
  1 10  1  0
  1 11  1  0
  1 12  1  0
  4 13  1  0
  4 14  1  0
  5 15  1  0
  5 16  1  0
  6 17  1  0
  6 18  1  0
  7 19  1  0
  8 20  1  0
  8 21  1  0
  8 22  1  0
  9 23  1  0
M  END
