
     RDKit          3D

 19 20  0  0  0  0  0  0  0  0999 V2000
    3.0031    0.5328    0.4784 C   0  0  0  0  0  0  0  0  0  0  0  0
    1.6407    0.4733   -0.0775 C   0  0  0  0  0  0  0  0  0  0  0  0
    1.2933    1.4254   -0.7909 O   0  0  0  0  0  0  0  0  0  0  0  0
    0.6940   -0.6423    0.1712 C   0  0  0  0  0  0  0  0  0  0  0  0
   -0.6060   -0.3766   -0.5496 C   0  0  0  0  0  0  0  0  0  0  0  0
   -1.4066    0.8370   -0.2375 C   0  0  0  0  0  0  0  0  0  0  0  0
   -2.6669   -0.0250   -0.3467 C   0  0  0  0  0  0  0  0  0  0  0  0
   -1.7546   -1.2205   -0.4813 C   0  0  0  0  0  0  0  0  0  0  0  0
   -0.9351   -1.2202   -1.5784 O   0  0  0  0  0  0  0  0  0  0  0  0
    3.1074   -0.0906    1.4098 H   0  0  0  0  0  0  0  0  0  0  0  0
    3.7427    0.0963   -0.2401 H   0  0  0  0  0  0  0  0  0  0  0  0
    3.2255    1.5803    0.7372 H   0  0  0  0  0  0  0  0  0  0  0  0
    1.1247   -1.6256   -0.1061 H   0  0  0  0  0  0  0  0  0  0  0  0
    0.4732   -0.6512    1.2662 H   0  0  0  0  0  0  0  0  0  0  0  0
   -1.2404    1.1475    0.8234 H   0  0  0  0  0  0  0  0  0  0  0  0
   -1.3619    1.6837   -0.9239 H   0  0  0  0  0  0  0  0  0  0  0  0
   -3.1811    0.1619   -1.3164 H   0  0  0  0  0  0  0  0  0  0  0  0
   -3.3061   -0.0151    0.5428 H   0  0  0  0  0  0  0  0  0  0  0  0
   -1.8460   -2.0710    0.1875 H   0  0  0  0  0  0  0  0  0  0  0  0
  1  2  1  0
  2  3  2  0
  2  4  1  0
  4  5  1  0
  5  6  1  0
  6  7  1  0
  7  8  1  0
  8  9  1  0
  8  5  1  0
  9  5  1  0
  1 10  1  0
  1 11  1  0
  1 12  1  0
  4 13  1  0
  4 14  1  0
  6 15  1  0
  6 16  1  0
  7 17  1  0
  7 18  1  0
  8 19  1  0
M  END
