
     RDKit          3D

 19 18  0  0  0  0  0  0  0  0999 V2000
   -1.9127    1.0880   -0.4997 C   0  0  0  0  0  0  0  0  0  0  0  0
   -1.1818    0.4234    0.6123 C   0  0  0  0  0  0  0  0  0  0  0  0
   -1.0857    1.0007    1.6704 O   0  0  0  0  0  0  0  0  0  0  0  0
   -0.5924   -0.9039    0.4376 C   0  0  0  0  0  0  0  0  0  0  0  0
   -0.1514   -1.3805    1.7117 O   0  0  0  0  0  0  0  0  0  0  0  0
    0.5953   -1.0020   -0.4553 C   0  0  0  0  0  0  0  0  0  0  0  0
    1.8075   -0.2486   -0.0696 C   0  0  0  0  0  0  0  0  0  0  0  0
    1.6919    1.2134    0.0353 C   0  0  0  0  0  0  0  0  0  0  0  0
    2.6292    1.9286    0.3896 O   0  0  0  0  0  0  0  0  0  0  0  0
   -2.4000    2.0418   -0.1457 H   0  0  0  0  0  0  0  0  0  0  0  0
   -1.2399    1.2324   -1.3464 H   0  0  0  0  0  0  0  0  0  0  0  0
   -2.7615    0.4580   -0.8666 H   0  0  0  0  0  0  0  0  0  0  0  0
   -1.3514   -1.6253    0.0690 H   0  0  0  0  0  0  0  0  0  0  0  0
   -0.8994   -1.8896    2.1043 H   0  0  0  0  0  0  0  0  0  0  0  0
    0.8813   -2.0988   -0.4580 H   0  0  0  0  0  0  0  0  0  0  0  0
    0.3059   -0.8277   -1.5317 H   0  0  0  0  0  0  0  0  0  0  0  0
    2.2216   -0.6966    0.8830 H   0  0  0  0  0  0  0  0  0  0  0  0
    2.6539   -0.4530   -0.8041 H   0  0  0  0  0  0  0  0  0  0  0  0
    0.7895    1.7398   -0.1903 H   0  0  0  0  0  0  0  0  0  0  0  0
  1  2  1  0
  2  3  2  0
  2  4  1  0
  4  5  1  0
  4  6  1  0
  6  7  1  0
  7  8  1  0
  8  9  2  0
  1 10  1  0
  1 11  1  0
  1 12  1  0
  4 13  1  0
  5 14  1  0
  6 15  1  0
  6 16  1  0
  7 17  1  0
  7 18  1  0
  8 19  1  0
M  END
