
     RDKit          3D

 19 20  0  0  0  0  0  0  0  0999 V2000
    2.4688   -0.2899    0.7709 C   0  0  0  0  0  0  0  0  0  0  0  0
    1.3695    0.4182    0.0647 C   0  0  0  0  0  0  0  0  0  0  0  0
    1.3517    1.6355    0.0620 O   0  0  0  0  0  0  0  0  0  0  0  0
    0.2849   -0.2922   -0.6422 C   0  0  0  0  0  0  0  0  0  0  0  0
   -0.7031    0.6994   -1.2742 C   0  0  0  0  0  0  0  0  0  0  0  0
   -1.9533    0.1757   -0.5637 C   0  0  0  0  0  0  0  0  0  0  0  0
   -1.5130    0.1577    0.8676 C   0  0  0  0  0  0  0  0  0  0  0  0
   -0.6914   -0.9673    0.2911 C   0  0  0  0  0  0  0  0  0  0  0  0
   -1.7752   -1.2050   -0.5719 O   0  0  0  0  0  0  0  0  0  0  0  0
    2.9124   -1.1054    0.1662 H   0  0  0  0  0  0  0  0  0  0  0  0
    2.0992   -0.6609    1.7640 H   0  0  0  0  0  0  0  0  0  0  0  0
    3.2856    0.4218    1.0070 H   0  0  0  0  0  0  0  0  0  0  0  0
    0.6110   -0.9594   -1.4382 H   0  0  0  0  0  0  0  0  0  0  0  0
   -0.4979    1.7261   -0.9559 H   0  0  0  0  0  0  0  0  0  0  0  0
   -0.7721    0.5701   -2.3601 H   0  0  0  0  0  0  0  0  0  0  0  0
   -2.8924    0.5884   -0.8366 H   0  0  0  0  0  0  0  0  0  0  0  0
   -2.2849   -0.2060    1.5449 H   0  0  0  0  0  0  0  0  0  0  0  0
   -0.9397    1.0507    1.1833 H   0  0  0  0  0  0  0  0  0  0  0  0
   -0.3601   -1.7576    0.9211 H   0  0  0  0  0  0  0  0  0  0  0  0
  1  2  1  0
  2  3  2  0
  2  4  1  0
  4  5  1  0
  5  6  1  0
  6  7  1  0
  7  8  1  0
  8  9  1  0
  8  4  1  0
  9  6  1  0
  1 10  1  0
  1 11  1  0
  1 12  1  0
  4 13  1  0
  5 14  1  0
  5 15  1  0
  6 16  1  0
  7 17  1  0
  7 18  1  0
  8 19  1  0
M  END
