
     RDKit          3D

 17 17  0  0  0  0  0  0  0  0999 V2000
    2.6773   -0.4071   -0.2651 C   0  0  0  0  0  0  0  0  0  0  0  0
    1.2196   -0.1878   -0.3976 C   0  0  0  0  0  0  0  0  0  0  0  0
    0.6627   -0.5972   -1.4007 O   0  0  0  0  0  0  0  0  0  0  0  0
    0.4323    0.5081    0.6461 C   0  0  0  0  0  0  0  0  0  0  0  0
   -1.0055    0.6348    0.3426 C   0  0  0  0  0  0  0  0  0  0  0  0
   -1.7905   -0.6223    0.1441 C   0  0  0  0  0  0  0  0  0  0  0  0
   -2.5473    0.2708   -0.7455 C   0  0  0  0  0  0  0  0  0  0  0  0
   -3.7133    0.3831   -1.1368 O   0  0  0  0  0  0  0  0  0  0  0  0
   -1.3776    0.9596   -0.9741 O   0  0  0  0  0  0  0  0  0  0  0  0
    3.1374   -0.1906   -1.2557 H   0  0  0  0  0  0  0  0  0  0  0  0
    3.1472    0.2867    0.4576 H   0  0  0  0  0  0  0  0  0  0  0  0
    2.8971   -1.4293    0.0694 H   0  0  0  0  0  0  0  0  0  0  0  0
    0.5384   -0.0018    1.6365 H   0  0  0  0  0  0  0  0  0  0  0  0
    0.8681    1.5119    0.7764 H   0  0  0  0  0  0  0  0  0  0  0  0
   -1.5164    1.3067    1.0517 H   0  0  0  0  0  0  0  0  0  0  0  0
   -2.3270   -1.0034    1.0319 H   0  0  0  0  0  0  0  0  0  0  0  0
   -1.3026   -1.4222   -0.4408 H   0  0  0  0  0  0  0  0  0  0  0  0
  1  2  1  0
  2  3  2  0
  2  4  1  0
  4  5  1  0
  5  6  1  0
  6  7  1  0
  7  8  2  0
  7  9  1  0
  9  5  1  0
  1 10  1  0
  1 11  1  0
  1 12  1  0
  4 13  1  0
  4 14  1  0
  5 15  1  0
  6 16  1  0
  6 17  1  0
M  END
