
     RDKit          3D

 18 18  0  0  0  0  0  0  0  0999 V2000
   -2.7504    0.3927    0.4175 C   0  0  0  0  0  0  0  0  0  0  0  0
   -1.3990    0.8790    0.0416 C   0  0  0  0  0  0  0  0  0  0  0  0
   -1.0971    1.9923    0.4283 O   0  0  0  0  0  0  0  0  0  0  0  0
   -0.4178    0.1032   -0.7612 C   0  0  0  0  0  0  0  0  0  0  0  0
    0.6592   -0.5464    0.0400 C   0  0  0  0  0  0  0  0  0  0  0  0
    1.5981    0.2050    0.8782 C   0  0  0  0  0  0  0  0  0  0  0  0
    2.0728   -0.2725   -0.4317 C   0  0  0  0  0  0  0  0  0  0  0  0
    2.9217   -1.3609   -0.5720 O   0  0  0  0  0  0  0  0  0  0  0  0
   -2.7833   -0.7091    0.5414 H   0  0  0  0  0  0  0  0  0  0  0  0
   -3.0113    0.8590    1.3886 H   0  0  0  0  0  0  0  0  0  0  0  0
   -3.5287    0.7015   -0.3118 H   0  0  0  0  0  0  0  0  0  0  0  0
   -0.9572   -0.6964   -1.3452 H   0  0  0  0  0  0  0  0  0  0  0  0
    0.0388    0.7856   -1.4789 H   0  0  0  0  0  0  0  0  0  0  0  0
    0.4601   -1.6087    0.3103 H   0  0  0  0  0  0  0  0  0  0  0  0
    2.0456   -0.3457    1.7560 H   0  0  0  0  0  0  0  0  0  0  0  0
    1.5516    1.2861    1.0500 H   0  0  0  0  0  0  0  0  0  0  0  0
    2.2374    0.5081   -1.2005 H   0  0  0  0  0  0  0  0  0  0  0  0
    2.3596   -2.1728   -0.7508 H   0  0  0  0  0  0  0  0  0  0  0  0
  1  2  1  0
  2  3  2  0
  2  4  1  0
  4  5  1  0
  5  6  1  0
  6  7  1  0
  7  8  1  0
  7  5  1  0
  1  9  1  0
  1 10  1  0
  1 11  1  0
  4 12  1  0
  4 13  1  0
  5 14  1  0
  6 15  1  0
  6 16  1  0
  7 17  1  0
  8 18  1  0
M  END
