
     RDKit          3D

 25 24  0  0  0  0  0  0  0  0999 V2000
    1.8218    1.6681    0.3936 C   0  0  0  0  0  0  0  0  0  0  0  0
    1.3202    0.6774   -0.5982 C   0  0  0  0  0  0  0  0  0  0  0  0
    1.3371    1.0285   -1.7661 O   0  0  0  0  0  0  0  0  0  0  0  0
    0.8255   -0.6479   -0.2790 C   0  0  0  0  0  0  0  0  0  0  0  0
    2.0035   -1.3920    0.4049 C   0  0  0  0  0  0  0  0  0  0  0  0
   -0.3296   -0.8105    0.6092 C   0  0  0  0  0  0  0  0  0  0  0  0
   -1.6307   -0.2285    0.2423 C   0  0  0  0  0  0  0  0  0  0  0  0
   -1.6259    1.2673    0.0897 C   0  0  0  0  0  0  0  0  0  0  0  0
   -2.2234   -0.8030   -1.0290 C   0  0  0  0  0  0  0  0  0  0  0  0
    2.8398    2.0402    0.1049 H   0  0  0  0  0  0  0  0  0  0  0  0
    1.9318    1.2005    1.3750 H   0  0  0  0  0  0  0  0  0  0  0  0
    1.1824    2.5894    0.4062 H   0  0  0  0  0  0  0  0  0  0  0  0
    0.7173   -1.2286   -1.2291 H   0  0  0  0  0  0  0  0  0  0  0  0
    2.0034   -1.1074    1.4778 H   0  0  0  0  0  0  0  0  0  0  0  0
    2.9597   -1.0316   -0.0160 H   0  0  0  0  0  0  0  0  0  0  0  0
    1.9014   -2.4865    0.2504 H   0  0  0  0  0  0  0  0  0  0  0  0
   -0.0525   -0.5258    1.6515 H   0  0  0  0  0  0  0  0  0  0  0  0
   -0.4996   -1.9318    0.7020 H   0  0  0  0  0  0  0  0  0  0  0  0
   -2.4228   -0.4368    1.0258 H   0  0  0  0  0  0  0  0  0  0  0  0
   -1.1393    1.5511   -0.8594 H   0  0  0  0  0  0  0  0  0  0  0  0
   -0.9881    1.6843    0.9032 H   0  0  0  0  0  0  0  0  0  0  0  0
   -2.6621    1.6861    0.1629 H   0  0  0  0  0  0  0  0  0  0  0  0
   -2.2408   -1.9089   -1.0308 H   0  0  0  0  0  0  0  0  0  0  0  0
   -3.2867   -0.4806   -1.0572 H   0  0  0  0  0  0  0  0  0  0  0  0
   -1.7426   -0.3730   -1.9345 H   0  0  0  0  0  0  0  0  0  0  0  0
  1  2  1  0
  2  3  2  0
  2  4  1  0
  4  5  1  0
  4  6  1  0
  6  7  1  0
  7  8  1  0
  7  9  1  0
  1 10  1  0
  1 11  1  0
  1 12  1  0
  4 13  1  0
  5 14  1  0
  5 15  1  0
  5 16  1  0
  6 17  1  0
  6 18  1  0
  7 19  1  0
  8 20  1  0
  8 21  1  0
  8 22  1  0
  9 23  1  0
  9 24  1  0
  9 25  1  0
M  END
