
     RDKit          3D

 16 15  0  0  0  0  0  0  0  0999 V2000
   -2.7309    0.2520   -0.6820 C   0  0  0  0  0  0  0  0  0  0  0  0
   -1.6836   -0.7927   -0.6217 C   0  0  0  0  0  0  0  0  0  0  0  0
   -1.5058   -1.4944   -1.5935 O   0  0  0  0  0  0  0  0  0  0  0  0
   -0.8782   -0.9777    0.5816 C   0  0  0  0  0  0  0  0  0  0  0  0
    0.4295   -0.3095    0.3884 C   0  0  0  0  0  0  0  0  0  0  0  0
    1.4871    0.2431    0.2200 C   0  0  0  0  0  0  0  0  0  0  0  0
    2.7701    0.9165    0.0122 C   0  0  0  0  0  0  0  0  0  0  0  0
    3.7162    0.0926   -0.5443 O   0  0  0  0  0  0  0  0  0  0  0  0
   -3.5895   -0.0306   -1.3285 H   0  0  0  0  0  0  0  0  0  0  0  0
   -3.1207    0.4115    0.3339 H   0  0  0  0  0  0  0  0  0  0  0  0
   -2.2985    1.2171   -1.0104 H   0  0  0  0  0  0  0  0  0  0  0  0
   -1.4061   -0.5940    1.4762 H   0  0  0  0  0  0  0  0  0  0  0  0
   -0.6303   -2.0411    0.7949 H   0  0  0  0  0  0  0  0  0  0  0  0
    2.5831    1.8356   -0.6020 H   0  0  0  0  0  0  0  0  0  0  0  0
    3.1921    1.3012    0.9801 H   0  0  0  0  0  0  0  0  0  0  0  0
    3.6654   -0.0296   -1.5061 H   0  0  0  0  0  0  0  0  0  0  0  0
  1  2  1  0
  2  3  2  0
  2  4  1  0
  4  5  1  0
  5  6  3  0
  6  7  1  0
  7  8  1  0
  1  9  1  0
  1 10  1  0
  1 11  1  0
  4 12  1  0
  4 13  1  0
  7 14  1  0
  7 15  1  0
  8 16  1  0
M  END
