
     RDKit          3D

 16 17  0  0  0  0  0  0  0  0999 V2000
    2.4144    0.1822   -0.1201 C   0  0  0  0  0  0  0  0  0  0  0  0
    1.1323    0.3714   -0.8076 C   0  0  0  0  0  0  0  0  0  0  0  0
    1.0136    1.2224   -1.6777 O   0  0  0  0  0  0  0  0  0  0  0  0
   -0.0511   -0.4396   -0.4884 C   0  0  0  0  0  0  0  0  0  0  0  0
   -1.2988   -0.2853   -1.3053 C   0  0  0  0  0  0  0  0  0  0  0  0
   -2.0293    0.0410   -0.0097 C   0  0  0  0  0  0  0  0  0  0  0  0
   -0.7842   -0.3007    0.7327 C   0  0  0  0  0  0  0  0  0  0  0  0
   -0.0432   -1.4153    0.4587 O   0  0  0  0  0  0  0  0  0  0  0  0
    2.2840    0.4403    0.9496 H   0  0  0  0  0  0  0  0  0  0  0  0
    2.7765   -0.8582   -0.2053 H   0  0  0  0  0  0  0  0  0  0  0  0
    3.1898    0.8516   -0.5719 H   0  0  0  0  0  0  0  0  0  0  0  0
   -1.7278   -1.2188   -1.7268 H   0  0  0  0  0  0  0  0  0  0  0  0
   -1.2013    0.5488   -2.0118 H   0  0  0  0  0  0  0  0  0  0  0  0
   -2.9293   -0.5409    0.1854 H   0  0  0  0  0  0  0  0  0  0  0  0
   -2.2644    1.1252    0.0024 H   0  0  0  0  0  0  0  0  0  0  0  0
   -0.4812    0.2758    1.6216 H   0  0  0  0  0  0  0  0  0  0  0  0
  1  2  1  0
  2  3  2  0
  2  4  1  0
  4  5  1  0
  5  6  1  0
  6  7  1  0
  7  8  1  0
  7  4  1  0
  8  4  1  0
  1  9  1  0
  1 10  1  0
  1 11  1  0
  5 12  1  0
  5 13  1  0
  6 14  1  0
  6 15  1  0
  7 16  1  0
M  END
