
     RDKit          3D

 19 19  0  0  0  0  0  0  0  0999 V2000
   -2.6094    0.6813   -0.1229 C   0  0  0  0  0  0  0  0  0  0  0  0
   -1.7259   -0.3933    0.3772 C   0  0  0  0  0  0  0  0  0  0  0  0
   -2.2262   -1.4565    0.6969 O   0  0  0  0  0  0  0  0  0  0  0  0
   -0.2451   -0.2487    0.5138 C   0  0  0  0  0  0  0  0  0  0  0  0
    0.3820   -1.2658   -0.4067 C   0  0  0  0  0  0  0  0  0  0  0  0
    1.8419   -1.0276   -0.4207 C   0  0  0  0  0  0  0  0  0  0  0  0
    2.2966    0.1761   -0.1447 C   0  0  0  0  0  0  0  0  0  0  0  0
    1.4095    1.3191    0.1835 C   0  0  0  0  0  0  0  0  0  0  0  0
    0.0716    1.0380    0.0902 O   0  0  0  0  0  0  0  0  0  0  0  0
   -3.2953    0.9552    0.7018 H   0  0  0  0  0  0  0  0  0  0  0  0
   -3.2602    0.2305   -0.9190 H   0  0  0  0  0  0  0  0  0  0  0  0
   -2.0682    1.5353   -0.5442 H   0  0  0  0  0  0  0  0  0  0  0  0
   -0.0041   -0.4331    1.5680 H   0  0  0  0  0  0  0  0  0  0  0  0
    0.0015   -1.0923   -1.4244 H   0  0  0  0  0  0  0  0  0  0  0  0
    0.1812   -2.2872   -0.0294 H   0  0  0  0  0  0  0  0  0  0  0  0
    2.5383   -1.8504   -0.6598 H   0  0  0  0  0  0  0  0  0  0  0  0
    3.3709    0.3475   -0.1561 H   0  0  0  0  0  0  0  0  0  0  0  0
    1.6649    2.1324   -0.5367 H   0  0  0  0  0  0  0  0  0  0  0  0
    1.6758    1.6395    1.2331 H   0  0  0  0  0  0  0  0  0  0  0  0
  1  2  1  0
  2  3  2  0
  2  4  1  0
  4  5  1  0
  5  6  1  0
  6  7  2  0
  7  8  1  0
  8  9  1  0
  9  4  1  0
  1 10  1  0
  1 11  1  0
  1 12  1  0
  4 13  1  0
  5 14  1  0
  5 15  1  0
  6 16  1  0
  7 17  1  0
  8 18  1  0
  8 19  1  0
M  END
