
     RDKit          3D

 19 19  0  0  0  0  0  0  0  0999 V2000
    3.5006    0.9062    1.0729 C   0  0  0  0  0  0  0  0  0  0  0  0
    2.1152    0.5151    0.7780 C   0  0  0  0  0  0  0  0  0  0  0  0
    1.2436    0.5111    1.6167 O   0  0  0  0  0  0  0  0  0  0  0  0
    1.7843    0.1060   -0.6289 C   0  0  0  0  0  0  0  0  0  0  0  0
    0.3598   -0.2512   -0.7403 C   0  0  0  0  0  0  0  0  0  0  0  0
   -0.8082   -0.5531   -0.8126 C   0  0  0  0  0  0  0  0  0  0  0  0
   -2.2369   -0.9281   -0.9065 C   0  0  0  0  0  0  0  0  0  0  0  0
   -3.2790    0.0910   -0.6734 C   0  0  0  0  0  0  0  0  0  0  0  0
   -3.0125   -0.8913    0.4074 C   0  0  0  0  0  0  0  0  0  0  0  0
    3.4795    1.8353    1.6939 H   0  0  0  0  0  0  0  0  0  0  0  0
    4.0529    0.1147    1.6480 H   0  0  0  0  0  0  0  0  0  0  0  0
    4.0710    1.1140    0.1537 H   0  0  0  0  0  0  0  0  0  0  0  0
    2.4529   -0.7262   -0.8783 H   0  0  0  0  0  0  0  0  0  0  0  0
    1.9314    1.0012   -1.2608 H   0  0  0  0  0  0  0  0  0  0  0  0
   -2.4551   -1.7049   -1.6397 H   0  0  0  0  0  0  0  0  0  0  0  0
   -4.2260    0.0462   -1.2474 H   0  0  0  0  0  0  0  0  0  0  0  0
   -2.8976    1.1267   -0.4907 H   0  0  0  0  0  0  0  0  0  0  0  0
   -3.6500   -1.7584    0.5958 H   0  0  0  0  0  0  0  0  0  0  0  0
   -2.4258   -0.5542    1.3121 H   0  0  0  0  0  0  0  0  0  0  0  0
  1  2  1  0
  2  3  2  0
  2  4  1  0
  4  5  1  0
  5  6  3  0
  6  7  1  0
  7  8  1  0
  8  9  1  0
  9  7  1  0
  1 10  1  0
  1 11  1  0
  1 12  1  0
  4 13  1  0
  4 14  1  0
  7 15  1  0
  8 16  1  0
  8 17  1  0
  9 18  1  0
  9 19  1  0
M  END
