
     RDKit          3D

 13 12  0  0  0  0  0  0  0  0999 V2000
   -2.6837   -0.1198   -1.9534 C   0  0  0  0  0  0  0  0  0  0  0  0
   -2.3277   -0.0669   -0.5182 C   0  0  0  0  0  0  0  0  0  0  0  0
   -3.2638   -0.0687    0.3217 O   0  0  0  0  0  0  0  0  0  0  0  0
   -0.9576   -0.0150   -0.0901 C   0  0  0  0  0  0  0  0  0  0  0  0
    0.1925    0.0294    0.2915 C   0  0  0  0  0  0  0  0  0  0  0  0
    1.5339    0.0580    0.7453 C   0  0  0  0  0  0  0  0  0  0  0  0
    2.6813    0.0967    1.1478 C   0  0  0  0  0  0  0  0  0  0  0  0
    4.0293    0.1415    1.6434 C   0  0  0  0  0  0  0  0  0  0  0  0
    4.5325    1.1727    2.1710 O   0  0  0  0  0  0  0  0  0  0  0  0
   -3.3719   -0.9783   -2.0800 H   0  0  0  0  0  0  0  0  0  0  0  0
   -3.2203    0.7896   -2.2728 H   0  0  0  0  0  0  0  0  0  0  0  0
   -1.7651   -0.2753   -2.5580 H   0  0  0  0  0  0  0  0  0  0  0  0
    4.6206   -0.7637    1.5485 H   0  0  0  0  0  0  0  0  0  0  0  0
  1  2  1  0
  2  3  2  0
  2  4  1  0
  4  5  3  0
  5  6  1  0
  6  7  3  0
  7  8  1  0
  8  9  2  0
  1 10  1  0
  1 11  1  0
  1 12  1  0
  8 13  1  0
M  END
