
     RDKit          3D

 19 20  0  0  0  0  0  0  0  0999 V2000
    2.1653    0.2403    0.1421 C   0  0  0  0  0  0  0  0  0  0  0  0
    1.3427   -0.2002   -1.0077 C   0  0  0  0  0  0  0  0  0  0  0  0
    1.9080   -0.3872   -2.0712 O   0  0  0  0  0  0  0  0  0  0  0  0
   -0.0849   -0.4129   -0.9145 C   0  0  0  0  0  0  0  0  0  0  0  0
   -0.9743    0.7429   -0.5232 C   0  0  0  0  0  0  0  0  0  0  0  0
   -0.5532    1.1103    0.8444 C   0  0  0  0  0  0  0  0  0  0  0  0
   -0.3301   -0.0811    1.4183 C   0  0  0  0  0  0  0  0  0  0  0  0
   -0.6723   -1.0336    0.3109 C   0  0  0  0  0  0  0  0  0  0  0  0
   -1.9788   -0.3769   -0.1831 C   0  0  0  0  0  0  0  0  0  0  0  0
    3.2552    0.2287   -0.0868 H   0  0  0  0  0  0  0  0  0  0  0  0
    1.8621    1.2603    0.4157 H   0  0  0  0  0  0  0  0  0  0  0  0
    2.0670   -0.4554    1.0225 H   0  0  0  0  0  0  0  0  0  0  0  0
   -0.5477   -0.9063   -1.8200 H   0  0  0  0  0  0  0  0  0  0  0  0
   -1.2618    1.4647   -1.2277 H   0  0  0  0  0  0  0  0  0  0  0  0
   -0.4681    2.1170    1.2222 H   0  0  0  0  0  0  0  0  0  0  0  0
    0.0104   -0.2983    2.4252 H   0  0  0  0  0  0  0  0  0  0  0  0
   -0.6703   -2.0660    0.4816 H   0  0  0  0  0  0  0  0  0  0  0  0
   -2.6613   -0.0848    0.6219 H   0  0  0  0  0  0  0  0  0  0  0  0
   -2.4078   -0.8613   -1.0703 H   0  0  0  0  0  0  0  0  0  0  0  0
  1  2  1  0
  2  3  2  0
  2  4  1  0
  4  5  1  0
  5  6  1  0
  6  7  2  0
  7  8  1  0
  8  9  1  0
  8  4  1  0
  9  5  1  0
  1 10  1  0
  1 11  1  0
  1 12  1  0
  4 13  1  0
  5 14  1  0
  6 15  1  0
  7 16  1  0
  8 17  1  0
  9 18  1  0
  9 19  1  0
M  END
