
     RDKit          3D

 21 20  0  0  0  0  0  0  0  0999 V2000
    3.0296    0.3477   -0.3334 C   0  0  0  0  0  0  0  0  0  0  0  0
    1.7854   -0.3333    0.1140 C   0  0  0  0  0  0  0  0  0  0  0  0
    1.8175   -1.3873    0.7217 O   0  0  0  0  0  0  0  0  0  0  0  0
    0.4936    0.2903   -0.1905 C   0  0  0  0  0  0  0  0  0  0  0  0
   -0.6780   -0.4955    0.3141 C   0  0  0  0  0  0  0  0  0  0  0  0
   -0.7810   -1.8727   -0.2433 C   0  0  0  0  0  0  0  0  0  0  0  0
   -1.9328    0.2493    0.0175 C   0  0  0  0  0  0  0  0  0  0  0  0
   -2.1415    1.6303    0.5880 C   0  0  0  0  0  0  0  0  0  0  0  0
   -2.7912   -0.2306   -0.6733 O   0  0  0  0  0  0  0  0  0  0  0  0
    3.9078   -0.0092    0.2525 H   0  0  0  0  0  0  0  0  0  0  0  0
    3.2635    0.0737   -1.3960 H   0  0  0  0  0  0  0  0  0  0  0  0
    2.9338    1.4495   -0.2342 H   0  0  0  0  0  0  0  0  0  0  0  0
    0.4638    1.2881    0.2932 H   0  0  0  0  0  0  0  0  0  0  0  0
    0.4074    0.4313   -1.2998 H   0  0  0  0  0  0  0  0  0  0  0  0
   -0.5977   -0.5279    1.4300 H   0  0  0  0  0  0  0  0  0  0  0  0
   -1.5642   -1.8798   -1.0456 H   0  0  0  0  0  0  0  0  0  0  0  0
   -1.1604   -2.5399    0.5824 H   0  0  0  0  0  0  0  0  0  0  0  0
    0.1432   -2.2988   -0.6307 H   0  0  0  0  0  0  0  0  0  0  0  0
   -1.4574    1.8095    1.4362 H   0  0  0  0  0  0  0  0  0  0  0  0
   -1.9650    2.3344   -0.2331 H   0  0  0  0  0  0  0  0  0  0  0  0
   -3.1765    1.6710    0.9705 H   0  0  0  0  0  0  0  0  0  0  0  0
  1  2  1  0
  2  3  2  0
  2  4  1  0
  4  5  1  0
  5  6  1  0
  5  7  1  0
  7  8  1  0
  7  9  2  0
  1 10  1  0
  1 11  1  0
  1 12  1  0
  4 13  1  0
  4 14  1  0
  5 15  1  0
  6 16  1  0
  6 17  1  0
  6 18  1  0
  8 19  1  0
  8 20  1  0
  8 21  1  0
M  END
