
     RDKit          3D

 13 12  0  0  0  0  0  0  0  0999 V2000
   -2.6583   -0.5558    0.5224 C   0  0  0  0  0  0  0  0  0  0  0  0
   -1.8427    0.3089   -0.3136 C   0  0  0  0  0  0  0  0  0  0  0  0
   -2.4406    1.0482   -1.1976 O   0  0  0  0  0  0  0  0  0  0  0  0
   -0.4322    0.3790   -0.1989 C   0  0  0  0  0  0  0  0  0  0  0  0
    0.8276    0.4527   -0.0770 C   0  0  0  0  0  0  0  0  0  0  0  0
    2.1801    0.5236    0.0349 C   0  0  0  0  0  0  0  0  0  0  0  0
    2.7581    1.2441    0.9660 O   0  0  0  0  0  0  0  0  0  0  0  0
    3.1403   -0.1591   -0.8103 C   0  0  0  0  0  0  0  0  0  0  0  0
    2.7811   -0.8846   -1.7723 O   0  0  0  0  0  0  0  0  0  0  0  0
   -2.2193   -0.3925    1.5771 H   0  0  0  0  0  0  0  0  0  0  0  0
   -2.5752   -1.6201    0.2125 H   0  0  0  0  0  0  0  0  0  0  0  0
   -3.7476   -0.2549    0.5536 H   0  0  0  0  0  0  0  0  0  0  0  0
    4.2287   -0.0894   -0.6732 H   0  0  0  0  0  0  0  0  0  0  0  0
  1  2  1  0
  2  3  2  0
  2  4  1  0
  4  5  3  0
  5  6  1  0
  6  7  2  0
  6  8  1  0
  8  9  2  0
  1 10  1  0
  1 11  1  0
  1 12  1  0
  8 13  1  0
M  END
