
     RDKit          3D

 19 20  0  0  0  0  0  0  0  0999 V2000
    2.5563    0.0588    0.1287 C   0  0  0  0  0  0  0  0  0  0  0  0
    1.2617   -0.1230    0.8367 C   0  0  0  0  0  0  0  0  0  0  0  0
    1.1982    0.1912    2.0054 O   0  0  0  0  0  0  0  0  0  0  0  0
    0.1315   -0.6708    0.0894 C   0  0  0  0  0  0  0  0  0  0  0  0
   -0.3349    0.0989   -1.1129 C   0  0  0  0  0  0  0  0  0  0  0  0
   -1.6488   -0.6113   -0.9408 C   0  0  0  0  0  0  0  0  0  0  0  0
   -1.2411   -0.2137    0.4807 C   0  0  0  0  0  0  0  0  0  0  0  0
   -1.8854   -0.4375    1.5223 O   0  0  0  0  0  0  0  0  0  0  0  0
   -0.8668    1.1081   -0.1345 C   0  0  0  0  0  0  0  0  0  0  0  0
    3.2519    0.6568    0.7148 H   0  0  0  0  0  0  0  0  0  0  0  0
    3.0276   -0.9626    0.0315 H   0  0  0  0  0  0  0  0  0  0  0  0
    2.3733    0.4702   -0.8945 H   0  0  0  0  0  0  0  0  0  0  0  0
    0.2582   -1.7346   -0.1487 H   0  0  0  0  0  0  0  0  0  0  0  0
    0.1607    0.2715   -1.9617 H   0  0  0  0  0  0  0  0  0  0  0  0
   -1.5390   -1.6774   -1.1705 H   0  0  0  0  0  0  0  0  0  0  0  0
   -2.5455   -0.0953   -1.2955 H   0  0  0  0  0  0  0  0  0  0  0  0
   -2.2858    0.3264    2.0188 H   0  0  0  0  0  0  0  0  0  0  0  0
   -0.1253    1.7109    0.3890 H   0  0  0  0  0  0  0  0  0  0  0  0
   -1.7467    1.6335   -0.5581 H   0  0  0  0  0  0  0  0  0  0  0  0
  1  2  1  0
  2  3  2  0
  2  4  1  0
  4  5  1  0
  5  6  1  0
  6  7  1  0
  7  8  1  0
  7  9  1  0
  7  4  1  0
  9  5  1  0
  1 10  1  0
  1 11  1  0
  1 12  1  0
  4 13  1  0
  5 14  1  0
  6 15  1  0
  6 16  1  0
  8 17  1  0
  9 18  1  0
  9 19  1  0
M  END
