
     RDKit          3D

 19 20  0  0  0  0  0  0  0  0999 V2000
   -2.6321    0.2481    0.8640 C   0  0  0  0  0  0  0  0  0  0  0  0
   -2.0064   -0.5802   -0.2007 C   0  0  0  0  0  0  0  0  0  0  0  0
   -2.3532   -1.6989   -0.4539 O   0  0  0  0  0  0  0  0  0  0  0  0
   -0.8849    0.0550   -0.9728 C   0  0  0  0  0  0  0  0  0  0  0  0
    0.3166    0.0339   -0.0402 C   0  0  0  0  0  0  0  0  0  0  0  0
    1.6220    0.5859   -0.4446 C   0  0  0  0  0  0  0  0  0  0  0  0
    2.7389    0.3180    0.5463 C   0  0  0  0  0  0  0  0  0  0  0  0
    2.4376   -1.0617    0.5396 O   0  0  0  0  0  0  0  0  0  0  0  0
    1.4359   -0.8607   -0.4069 C   0  0  0  0  0  0  0  0  0  0  0  0
   -1.8806    1.0021    1.2586 H   0  0  0  0  0  0  0  0  0  0  0  0
   -3.5402    0.7485    0.4815 H   0  0  0  0  0  0  0  0  0  0  0  0
   -2.8526   -0.3938    1.7617 H   0  0  0  0  0  0  0  0  0  0  0  0
   -1.1856    1.0880   -1.2389 H   0  0  0  0  0  0  0  0  0  0  0  0
   -0.6836   -0.5750   -1.8847 H   0  0  0  0  0  0  0  0  0  0  0  0
    0.1058    0.1133    1.0674 H   0  0  0  0  0  0  0  0  0  0  0  0
    1.7965    1.2005   -1.3201 H   0  0  0  0  0  0  0  0  0  0  0  0
    2.4275    0.7147    1.5536 H   0  0  0  0  0  0  0  0  0  0  0  0
    3.7313    0.5665    0.1898 H   0  0  0  0  0  0  0  0  0  0  0  0
    1.4073   -1.5039   -1.2997 H   0  0  0  0  0  0  0  0  0  0  0  0
  1  2  1  0
  2  3  2  0
  2  4  1  0
  4  5  1  0
  5  6  1  0
  6  7  1  0
  7  8  1  0
  8  9  1  0
  9  5  1  0
  9  6  1  0
  1 10  1  0
  1 11  1  0
  1 12  1  0
  4 13  1  0
  4 14  1  0
  5 15  1  0
  6 16  1  0
  7 17  1  0
  7 18  1  0
  9 19  1  0
M  END
