
     RDKit          3D

 21 21  0  0  0  0  0  0  0  0999 V2000
    2.4029    0.3458   -0.7992 C   0  0  0  0  0  0  0  0  0  0  0  0
    1.5269   -0.6420   -0.1175 C   0  0  0  0  0  0  0  0  0  0  0  0
    1.9643   -1.7390    0.1147 O   0  0  0  0  0  0  0  0  0  0  0  0
    0.1396   -0.3099    0.2828 C   0  0  0  0  0  0  0  0  0  0  0  0
   -0.6317   -1.4777    0.8431 C   0  0  0  0  0  0  0  0  0  0  0  0
   -0.7084   -2.4826   -0.1002 O   0  0  0  0  0  0  0  0  0  0  0  0
    0.0242    1.0165    0.9940 C   0  0  0  0  0  0  0  0  0  0  0  0
   -0.5349    0.8059   -0.4055 C   0  0  0  0  0  0  0  0  0  0  0  0
   -2.0147    0.9507   -0.4852 C   0  0  0  0  0  0  0  0  0  0  0  0
    2.5609    1.1670   -0.0437 H   0  0  0  0  0  0  0  0  0  0  0  0
    1.9412    0.7416   -1.7255 H   0  0  0  0  0  0  0  0  0  0  0  0
    3.3659   -0.1035   -1.0309 H   0  0  0  0  0  0  0  0  0  0  0  0
   -1.5961   -1.2026    1.2795 H   0  0  0  0  0  0  0  0  0  0  0  0
    0.0120   -1.8795    1.6754 H   0  0  0  0  0  0  0  0  0  0  0  0
   -1.4710   -2.3889   -0.7006 H   0  0  0  0  0  0  0  0  0  0  0  0
   -0.6797    1.1184    1.8360 H   0  0  0  0  0  0  0  0  0  0  0  0
    0.9217    1.6778    1.0733 H   0  0  0  0  0  0  0  0  0  0  0  0
    0.0294    1.2948   -1.2088 H   0  0  0  0  0  0  0  0  0  0  0  0
   -2.2692    1.9615   -0.0496 H   0  0  0  0  0  0  0  0  0  0  0  0
   -2.3992    0.9403   -1.5351 H   0  0  0  0  0  0  0  0  0  0  0  0
   -2.5842    0.2056    0.1031 H   0  0  0  0  0  0  0  0  0  0  0  0
  1  2  1  0
  2  3  2  0
  2  4  1  0
  4  5  1  0
  5  6  1  0
  4  7  1  0
  7  8  1  0
  8  9  1  0
  8  4  1  0
  1 10  1  0
  1 11  1  0
  1 12  1  0
  5 13  1  0
  5 14  1  0
  6 15  1  0
  7 16  1  0
  7 17  1  0
  8 18  1  0
  9 19  1  0
  9 20  1  0
  9 21  1  0
M  END
