
     RDKit          3D

 23 23  0  0  0  0  0  0  0  0999 V2000
   -3.1289    0.6515    0.1342 C   0  0  0  0  0  0  0  0  0  0  0  0
   -1.9057    0.4094   -0.6511 C   0  0  0  0  0  0  0  0  0  0  0  0
   -2.0057    0.2337   -1.8476 O   0  0  0  0  0  0  0  0  0  0  0  0
   -0.5388    0.3732   -0.0191 C   0  0  0  0  0  0  0  0  0  0  0  0
   -0.6224   -0.7708    1.0064 C   0  0  0  0  0  0  0  0  0  0  0  0
    0.4457    0.0145   -1.0741 C   0  0  0  0  0  0  0  0  0  0  0  0
    1.8723   -0.0651   -0.6863 C   0  0  0  0  0  0  0  0  0  0  0  0
    2.4520   -0.9502    0.3180 C   0  0  0  0  0  0  0  0  0  0  0  0
    2.4259    0.5773    0.5338 C   0  0  0  0  0  0  0  0  0  0  0  0
   -3.9246    1.1374   -0.4302 H   0  0  0  0  0  0  0  0  0  0  0  0
   -2.8479    1.3549    0.9611 H   0  0  0  0  0  0  0  0  0  0  0  0
   -3.5390   -0.2656    0.6018 H   0  0  0  0  0  0  0  0  0  0  0  0
   -0.3431    1.3312    0.4572 H   0  0  0  0  0  0  0  0  0  0  0  0
   -0.3782   -1.7072    0.5086 H   0  0  0  0  0  0  0  0  0  0  0  0
   -0.0311   -0.5011    1.8856 H   0  0  0  0  0  0  0  0  0  0  0  0
   -1.6754   -0.8504    1.3643 H   0  0  0  0  0  0  0  0  0  0  0  0
    0.1759   -0.9645   -1.5756 H   0  0  0  0  0  0  0  0  0  0  0  0
    0.3606    0.7470   -1.9334 H   0  0  0  0  0  0  0  0  0  0  0  0
    2.5496    0.1049   -1.5913 H   0  0  0  0  0  0  0  0  0  0  0  0
    3.5033   -1.3321    0.1580 H   0  0  0  0  0  0  0  0  0  0  0  0
    1.9244   -1.5543    1.0520 H   0  0  0  0  0  0  0  0  0  0  0  0
    1.8223    0.9077    1.3745 H   0  0  0  0  0  0  0  0  0  0  0  0
    3.4089    1.1186    0.4900 H   0  0  0  0  0  0  0  0  0  0  0  0
  1  2  1  0
  2  3  2  0
  2  4  1  0
  4  5  1  0
  4  6  1  0
  6  7  1  0
  7  8  1  0
  8  9  1  0
  9  7  1  0
  1 10  1  0
  1 11  1  0
  1 12  1  0
  4 13  1  0
  5 14  1  0
  5 15  1  0
  5 16  1  0
  6 17  1  0
  6 18  1  0
  7 19  1  0
  8 20  1  0
  8 21  1  0
  9 22  1  0
  9 23  1  0
M  END
