
     RDKit          3D

 19 18  0  0  0  0  0  0  0  0999 V2000
    3.2527    0.1034    0.4457 C   0  0  0  0  0  0  0  0  0  0  0  0
    2.0564    0.3162   -0.4311 C   0  0  0  0  0  0  0  0  0  0  0  0
    2.2344    0.7559   -1.5478 O   0  0  0  0  0  0  0  0  0  0  0  0
    0.7402   -0.0286    0.1358 C   0  0  0  0  0  0  0  0  0  0  0  0
   -0.3130    0.1874   -0.7119 O   0  0  0  0  0  0  0  0  0  0  0  0
   -1.4857   -0.1773   -0.0547 C   0  0  0  0  0  0  0  0  0  0  0  0
   -2.4546    0.9645    0.0888 C   0  0  0  0  0  0  0  0  0  0  0  0
   -2.0777   -1.3352   -0.7750 C   0  0  0  0  0  0  0  0  0  0  0  0
   -3.1121   -1.8185   -0.3699 O   0  0  0  0  0  0  0  0  0  0  0  0
    3.6986    1.1085    0.6146 H   0  0  0  0  0  0  0  0  0  0  0  0
    2.9961   -0.3080    1.4243 H   0  0  0  0  0  0  0  0  0  0  0  0
    3.9483   -0.6031   -0.0407 H   0  0  0  0  0  0  0  0  0  0  0  0
    0.6243    0.5265    1.0854 H   0  0  0  0  0  0  0  0  0  0  0  0
    0.7872   -1.1255    0.4011 H   0  0  0  0  0  0  0  0  0  0  0  0
   -1.2700   -0.5507    0.9895 H   0  0  0  0  0  0  0  0  0  0  0  0
   -3.1927    0.6866    0.8767 H   0  0  0  0  0  0  0  0  0  0  0  0
   -1.8872    1.8333    0.4869 H   0  0  0  0  0  0  0  0  0  0  0  0
   -2.9360    1.2269   -0.8750 H   0  0  0  0  0  0  0  0  0  0  0  0
   -1.6093   -1.7622   -1.6563 H   0  0  0  0  0  0  0  0  0  0  0  0
  1  2  1  0
  2  3  2  0
  2  4  1  0
  4  5  1  0
  5  6  1  0
  6  7  1  0
  6  8  1  0
  8  9  2  0
  1 10  1  0
  1 11  1  0
  1 12  1  0
  4 13  1  0
  4 14  1  0
  6 15  1  0
  7 16  1  0
  7 17  1  0
  7 18  1  0
  8 19  1  0
M  END
