
     RDKit          3D

 21 21  0  0  0  0  0  0  0  0999 V2000
    2.5409   -0.2836   -0.4645 C   0  0  0  0  0  0  0  0  0  0  0  0
    1.3700   -0.3985    0.4602 C   0  0  0  0  0  0  0  0  0  0  0  0
    1.5952   -1.0641    1.4822 O   0  0  0  0  0  0  0  0  0  0  0  0
    0.0631    0.2174    0.1940 C   0  0  0  0  0  0  0  0  0  0  0  0
    0.1362    1.7247    0.0608 C   0  0  0  0  0  0  0  0  0  0  0  0
   -0.8223   -0.0639    1.3664 C   0  0  0  0  0  0  0  0  0  0  0  0
   -1.9327   -0.6563    0.9949 C   0  0  0  0  0  0  0  0  0  0  0  0
   -1.9917   -0.8744   -0.4600 C   0  0  0  0  0  0  0  0  0  0  0  0
   -0.6697   -0.3599   -0.9654 C   0  0  0  0  0  0  0  0  0  0  0  0
    2.3552    0.4019   -1.2894 H   0  0  0  0  0  0  0  0  0  0  0  0
    3.3832    0.1360    0.1562 H   0  0  0  0  0  0  0  0  0  0  0  0
    2.8844   -1.2929   -0.7656 H   0  0  0  0  0  0  0  0  0  0  0  0
    0.4329    1.9684   -0.9893 H   0  0  0  0  0  0  0  0  0  0  0  0
    0.7677    2.1954    0.8109 H   0  0  0  0  0  0  0  0  0  0  0  0
   -0.8963    2.1056    0.2029 H   0  0  0  0  0  0  0  0  0  0  0  0
   -0.5234    0.2140    2.3779 H   0  0  0  0  0  0  0  0  0  0  0  0
   -2.7401   -0.9634    1.6749 H   0  0  0  0  0  0  0  0  0  0  0  0
   -2.1519   -1.9479   -0.6906 H   0  0  0  0  0  0  0  0  0  0  0  0
   -2.8151   -0.2786   -0.9435 H   0  0  0  0  0  0  0  0  0  0  0  0
   -0.8255    0.4193   -1.7461 H   0  0  0  0  0  0  0  0  0  0  0  0
   -0.1600   -1.1993   -1.4668 H   0  0  0  0  0  0  0  0  0  0  0  0
  1  2  1  0
  2  3  2  0
  2  4  1  0
  4  5  1  0
  4  6  1  0
  6  7  2  0
  7  8  1  0
  8  9  1  0
  9  4  1  0
  1 10  1  0
  1 11  1  0
  1 12  1  0
  5 13  1  0
  5 14  1  0
  5 15  1  0
  6 16  1  0
  7 17  1  0
  8 18  1  0
  8 19  1  0
  9 20  1  0
  9 21  1  0
M  END
