
     RDKit          3D

 17 17  0  0  0  0  0  0  0  0999 V2000
   -3.1152   -0.0838   -0.0703 C   0  0  0  0  0  0  0  0  0  0  0  0
   -1.7975    0.4482    0.3059 C   0  0  0  0  0  0  0  0  0  0  0  0
   -1.6497    1.3981    1.1044 O   0  0  0  0  0  0  0  0  0  0  0  0
   -0.6556   -0.1120   -0.2355 O   0  0  0  0  0  0  0  0  0  0  0  0
    0.6161    0.3885    0.1166 C   0  0  0  0  0  0  0  0  0  0  0  0
    1.4708   -0.7676    0.6317 C   0  0  0  0  0  0  0  0  0  0  0  0
    2.5546   -0.3303   -0.3159 C   0  0  0  0  0  0  0  0  0  0  0  0
    1.5779    0.5786   -0.9628 C   0  0  0  0  0  0  0  0  0  0  0  0
    1.5988    1.2182   -1.9912 O   0  0  0  0  0  0  0  0  0  0  0  0
   -3.0556   -0.4883   -1.1180 H   0  0  0  0  0  0  0  0  0  0  0  0
   -3.4629   -0.8789    0.6277 H   0  0  0  0  0  0  0  0  0  0  0  0
   -3.8522    0.7386   -0.0694 H   0  0  0  0  0  0  0  0  0  0  0  0
    0.6255    1.2255    0.8270 H   0  0  0  0  0  0  0  0  0  0  0  0
    1.0914   -1.7723    0.3381 H   0  0  0  0  0  0  0  0  0  0  0  0
    1.7486   -0.6482    1.6819 H   0  0  0  0  0  0  0  0  0  0  0  0
    2.8924   -1.0976   -1.0482 H   0  0  0  0  0  0  0  0  0  0  0  0
    3.4127    0.1833    0.1780 H   0  0  0  0  0  0  0  0  0  0  0  0
  1  2  1  0
  2  3  2  0
  2  4  1  0
  4  5  1  0
  5  6  1  0
  6  7  1  0
  7  8  1  0
  8  9  2  0
  8  5  1  0
  1 10  1  0
  1 11  1  0
  1 12  1  0
  5 13  1  0
  6 14  1  0
  6 15  1  0
  7 16  1  0
  7 17  1  0
M  END
