
     RDKit          3D

 15 14  0  0  0  0  0  0  0  0999 V2000
    2.3797    0.5937    1.0367 C   0  0  0  0  0  0  0  0  0  0  0  0
    1.4379   -0.3173    0.3205 C   0  0  0  0  0  0  0  0  0  0  0  0
    1.9033   -1.4319   -0.0318 O   0  0  0  0  0  0  0  0  0  0  0  0
    0.1268    0.0256    0.0506 O   0  0  0  0  0  0  0  0  0  0  0  0
   -0.6787   -0.9091   -0.6321 C   0  0  0  0  0  0  0  0  0  0  0  0
   -2.0283   -0.3418   -0.8131 C   0  0  0  0  0  0  0  0  0  0  0  0
   -2.9217   -1.0022   -1.4005 O   0  0  0  0  0  0  0  0  0  0  0  0
   -2.3181    0.9824   -0.3093 C   0  0  0  0  0  0  0  0  0  0  0  0
   -1.4325    1.6474    0.2775 O   0  0  0  0  0  0  0  0  0  0  0  0
    3.2827    0.6686    0.3784 H   0  0  0  0  0  0  0  0  0  0  0  0
    1.9604    1.6111    1.1640 H   0  0  0  0  0  0  0  0  0  0  0  0
    2.5986    0.1084    2.0053 H   0  0  0  0  0  0  0  0  0  0  0  0
   -0.2200   -1.2214   -1.6059 H   0  0  0  0  0  0  0  0  0  0  0  0
   -0.8010   -1.8341   -0.0145 H   0  0  0  0  0  0  0  0  0  0  0  0
   -3.2891    1.4207   -0.4259 H   0  0  0  0  0  0  0  0  0  0  0  0
  1  2  1  0
  2  3  2  0
  2  4  1  0
  4  5  1  0
  5  6  1  0
  6  7  2  0
  6  8  1  0
  8  9  2  0
  1 10  1  0
  1 11  1  0
  1 12  1  0
  5 13  1  0
  5 14  1  0
  8 15  1  0
M  END
