
     RDKit          3D

 19 19  0  0  0  0  0  0  0  0999 V2000
    2.5332    0.1934   -0.5501 C   0  0  0  0  0  0  0  0  0  0  0  0
    1.4930   -0.7537   -0.0741 C   0  0  0  0  0  0  0  0  0  0  0  0
    1.6453   -1.9474   -0.2429 O   0  0  0  0  0  0  0  0  0  0  0  0
    0.2853   -0.2636    0.5968 C   0  0  0  0  0  0  0  0  0  0  0  0
   -0.6118   -1.3856    0.9844 C   0  0  0  0  0  0  0  0  0  0  0  0
   -0.5146   -2.4213    0.3455 O   0  0  0  0  0  0  0  0  0  0  0  0
   -0.5228    0.6502   -0.3063 C   0  0  0  0  0  0  0  0  0  0  0  0
   -1.7824    1.1851    0.3388 C   0  0  0  0  0  0  0  0  0  0  0  0
   -1.8486    0.2008   -0.7794 C   0  0  0  0  0  0  0  0  0  0  0  0
    2.4319    1.1867   -0.0545 H   0  0  0  0  0  0  0  0  0  0  0  0
    3.5456   -0.2031   -0.2920 H   0  0  0  0  0  0  0  0  0  0  0  0
    2.4799    0.3661   -1.6301 H   0  0  0  0  0  0  0  0  0  0  0  0
    0.6190    0.3179    1.4973 H   0  0  0  0  0  0  0  0  0  0  0  0
   -1.3283   -1.3055    1.7974 H   0  0  0  0  0  0  0  0  0  0  0  0
    0.0696    1.3999   -0.8758 H   0  0  0  0  0  0  0  0  0  0  0  0
   -2.0869    2.2335    0.1370 H   0  0  0  0  0  0  0  0  0  0  0  0
   -2.0232    0.8705    1.3810 H   0  0  0  0  0  0  0  0  0  0  0  0
   -2.1029   -0.8654   -0.5567 H   0  0  0  0  0  0  0  0  0  0  0  0
   -2.2814    0.5416   -1.7314 H   0  0  0  0  0  0  0  0  0  0  0  0
  1  2  1  0
  2  3  2  0
  2  4  1  0
  4  5  1  0
  5  6  2  0
  4  7  1  0
  7  8  1  0
  8  9  1  0
  9  7  1  0
  1 10  1  0
  1 11  1  0
  1 12  1  0
  4 13  1  0
  5 14  1  0
  7 15  1  0
  8 16  1  0
  8 17  1  0
  9 18  1  0
  9 19  1  0
M  END
