
     RDKit          3D

 21 21  0  0  0  0  0  0  0  0999 V2000
    2.6684   -0.6832    0.8316 C   0  0  0  0  0  0  0  0  0  0  0  0
    1.4857    0.1672    0.5342 C   0  0  0  0  0  0  0  0  0  0  0  0
    1.2354    1.1277    1.2393 O   0  0  0  0  0  0  0  0  0  0  0  0
    0.6324   -0.1584   -0.6048 C   0  0  0  0  0  0  0  0  0  0  0  0
   -0.0259    0.8783   -1.4344 C   0  0  0  0  0  0  0  0  0  0  0  0
   -0.8213    0.0517   -0.4426 C   0  0  0  0  0  0  0  0  0  0  0  0
   -1.6981   -1.0626   -0.9845 C   0  0  0  0  0  0  0  0  0  0  0  0
   -1.4237    0.8178    0.6717 C   0  0  0  0  0  0  0  0  0  0  0  0
   -1.1665    0.3321    1.9375 O   0  0  0  0  0  0  0  0  0  0  0  0
    3.5409   -0.0978    1.1807 H   0  0  0  0  0  0  0  0  0  0  0  0
    2.9884   -1.1849   -0.1050 H   0  0  0  0  0  0  0  0  0  0  0  0
    2.4171   -1.4340    1.6208 H   0  0  0  0  0  0  0  0  0  0  0  0
    0.9564   -1.0609   -1.1955 H   0  0  0  0  0  0  0  0  0  0  0  0
   -0.2747    0.6699   -2.4760 H   0  0  0  0  0  0  0  0  0  0  0  0
    0.2116    1.9314   -1.1825 H   0  0  0  0  0  0  0  0  0  0  0  0
   -2.7150   -0.9968   -0.6040 H   0  0  0  0  0  0  0  0  0  0  0  0
   -1.6195   -1.0237   -2.0954 H   0  0  0  0  0  0  0  0  0  0  0  0
   -1.1999   -2.0241   -0.6740 H   0  0  0  0  0  0  0  0  0  0  0  0
   -2.5317    0.8749    0.5203 H   0  0  0  0  0  0  0  0  0  0  0  0
   -1.0964    1.8994    0.6816 H   0  0  0  0  0  0  0  0  0  0  0  0
   -1.5634    0.9761    2.5808 H   0  0  0  0  0  0  0  0  0  0  0  0
  1  2  1  0
  2  3  2  0
  2  4  1  0
  4  5  1  0
  5  6  1  0
  6  7  1  0
  6  8  1  0
  8  9  1  0
  6  4  1  0
  1 10  1  0
  1 11  1  0
  1 12  1  0
  4 13  1  0
  5 14  1  0
  5 15  1  0
  7 16  1  0
  7 17  1  0
  7 18  1  0
  8 19  1  0
  8 20  1  0
  9 21  1  0
M  END
