
     RDKit          3D

 21 22  0  0  0  0  0  0  0  0999 V2000
    3.1899    0.1346    0.2749 C   0  0  0  0  0  0  0  0  0  0  0  0
    1.7634    0.4894    0.0588 C   0  0  0  0  0  0  0  0  0  0  0  0
    1.3785    1.5712    0.4632 O   0  0  0  0  0  0  0  0  0  0  0  0
    0.8058   -0.4462   -0.6370 C   0  0  0  0  0  0  0  0  0  0  0  0
   -0.5299    0.1944   -0.6945 C   0  0  0  0  0  0  0  0  0  0  0  0
   -1.1268    0.5285    0.6250 C   0  0  0  0  0  0  0  0  0  0  0  0
   -1.5112   -0.8900    0.7662 C   0  0  0  0  0  0  0  0  0  0  0  0
   -1.7613   -0.6124   -0.6869 C   0  0  0  0  0  0  0  0  0  0  0  0
   -2.4345    0.6390   -0.1524 C   0  0  0  0  0  0  0  0  0  0  0  0
    3.4701    0.1305    1.3502 H   0  0  0  0  0  0  0  0  0  0  0  0
    3.8012    0.8864   -0.2939 H   0  0  0  0  0  0  0  0  0  0  0  0
    3.4187   -0.8608   -0.1751 H   0  0  0  0  0  0  0  0  0  0  0  0
    1.2420   -0.5628   -1.6618 H   0  0  0  0  0  0  0  0  0  0  0  0
    0.8649   -1.3939   -0.0791 H   0  0  0  0  0  0  0  0  0  0  0  0
   -0.5479    1.0286   -1.4473 H   0  0  0  0  0  0  0  0  0  0  0  0
   -0.8156    1.1872    1.3087 H   0  0  0  0  0  0  0  0  0  0  0  0
   -0.7832   -1.6639    0.9620 H   0  0  0  0  0  0  0  0  0  0  0  0
   -2.4667   -0.9642    1.3458 H   0  0  0  0  0  0  0  0  0  0  0  0
   -2.1420   -1.2337   -1.3700 H   0  0  0  0  0  0  0  0  0  0  0  0
   -3.2976    0.3603    0.4636 H   0  0  0  0  0  0  0  0  0  0  0  0
   -2.5175    1.4783   -0.8345 H   0  0  0  0  0  0  0  0  0  0  0  0
  1  2  1  0
  2  3  2  0
  2  4  1  0
  4  5  1  0
  5  6  1  0
  6  7  1  0
  7  8  1  0
  8  9  1  0
  8  5  1  0
  9  6  1  0
  1 10  1  0
  1 11  1  0
  1 12  1  0
  4 13  1  0
  4 14  1  0
  5 15  1  0
  6 16  1  0
  7 17  1  0
  7 18  1  0
  8 19  1  0
  9 20  1  0
  9 21  1  0
M  END
