
     RDKit          3D

 19 18  0  0  0  0  0  0  0  0999 V2000
   -3.2979    1.3357    0.7231 C   0  0  0  0  0  0  0  0  0  0  0  0
   -2.4878    0.1340    0.4271 C   0  0  0  0  0  0  0  0  0  0  0  0
   -3.0411   -0.9345    0.3110 O   0  0  0  0  0  0  0  0  0  0  0  0
   -1.0437    0.2484    0.2794 C   0  0  0  0  0  0  0  0  0  0  0  0
   -0.3663   -1.0738   -0.0217 C   0  0  0  0  0  0  0  0  0  0  0  0
    1.0780   -0.8685   -0.1540 C   0  0  0  0  0  0  0  0  0  0  0  0
    2.2731   -0.7062   -0.2831 C   0  0  0  0  0  0  0  0  0  0  0  0
    3.7161   -0.5197   -0.4591 C   0  0  0  0  0  0  0  0  0  0  0  0
    4.0734   -0.5032   -1.8088 O   0  0  0  0  0  0  0  0  0  0  0  0
   -3.0429    2.1449   -0.0178 H   0  0  0  0  0  0  0  0  0  0  0  0
   -2.9565    1.7300    1.7068 H   0  0  0  0  0  0  0  0  0  0  0  0
   -4.3775    1.1801    0.6699 H   0  0  0  0  0  0  0  0  0  0  0  0
   -0.8318    0.9088   -0.6073 H   0  0  0  0  0  0  0  0  0  0  0  0
   -0.5281    0.7012    1.1458 H   0  0  0  0  0  0  0  0  0  0  0  0
   -0.7173   -1.4947   -0.9841 H   0  0  0  0  0  0  0  0  0  0  0  0
   -0.5691   -1.8145    0.7765 H   0  0  0  0  0  0  0  0  0  0  0  0
    4.2329   -1.3021    0.0907 H   0  0  0  0  0  0  0  0  0  0  0  0
    4.0415    0.4775   -0.0405 H   0  0  0  0  0  0  0  0  0  0  0  0
    3.8448    0.3565   -2.2338 H   0  0  0  0  0  0  0  0  0  0  0  0
  1  2  1  0
  2  3  2  0
  2  4  1  0
  4  5  1  0
  5  6  1  0
  6  7  3  0
  7  8  1  0
  8  9  1  0
  1 10  1  0
  1 11  1  0
  1 12  1  0
  4 13  1  0
  4 14  1  0
  5 15  1  0
  5 16  1  0
  8 17  1  0
  8 18  1  0
  9 19  1  0
M  END
