
     RDKit          3D

 16 16  0  0  0  0  0  0  0  0999 V2000
    2.2424    0.1077   -0.2168 C   0  0  0  0  0  0  0  0  0  0  0  0
    1.0905   -0.7681    0.0695 C   0  0  0  0  0  0  0  0  0  0  0  0
    1.2484   -1.6617    0.8847 O   0  0  0  0  0  0  0  0  0  0  0  0
   -0.2418   -0.6452   -0.5568 C   0  0  0  0  0  0  0  0  0  0  0  0
   -0.4044    0.3636   -1.4711 O   0  0  0  0  0  0  0  0  0  0  0  0
   -1.1279    1.1395   -0.5373 C   0  0  0  0  0  0  0  0  0  0  0  0
   -1.2214   -0.0221    0.4199 C   0  0  0  0  0  0  0  0  0  0  0  0
   -2.4491   -0.6653    0.4634 O   0  0  0  0  0  0  0  0  0  0  0  0
    2.5195    0.6964    0.6929 H   0  0  0  0  0  0  0  0  0  0  0  0
    3.1166   -0.5577   -0.4125 H   0  0  0  0  0  0  0  0  0  0  0  0
    2.0631    0.8313   -1.0166 H   0  0  0  0  0  0  0  0  0  0  0  0
   -0.6254   -1.6287   -0.9185 H   0  0  0  0  0  0  0  0  0  0  0  0
   -2.0950    1.4992   -0.9140 H   0  0  0  0  0  0  0  0  0  0  0  0
   -0.4370    1.9196   -0.1499 H   0  0  0  0  0  0  0  0  0  0  0  0
   -0.8357    0.1442    1.4321 H   0  0  0  0  0  0  0  0  0  0  0  0
   -2.8427   -0.7527   -0.4400 H   0  0  0  0  0  0  0  0  0  0  0  0
  1  2  1  0
  2  3  2  0
  2  4  1  0
  4  5  1  0
  5  6  1  0
  6  7  1  0
  7  8  1  0
  7  4  1  0
  1  9  1  0
  1 10  1  0
  1 11  1  0
  4 12  1  0
  6 13  1  0
  6 14  1  0
  7 15  1  0
  8 16  1  0
M  END
