
     RDKit          3D

 18 18  0  0  0  0  0  0  0  0999 V2000
   -1.8338    1.2528   -0.2077 C   0  0  0  0  0  0  0  0  0  0  0  0
   -1.2384   -0.1014   -0.3109 C   0  0  0  0  0  0  0  0  0  0  0  0
   -1.6564   -0.8265   -1.2037 O   0  0  0  0  0  0  0  0  0  0  0  0
   -0.1974   -0.5428    0.6181 C   0  0  0  0  0  0  0  0  0  0  0  0
    0.2531   -1.9763    0.3042 C   0  0  0  0  0  0  0  0  0  0  0  0
    1.0609   -1.3770   -0.6938 O   0  0  0  0  0  0  0  0  0  0  0  0
    1.2261   -0.3360    0.2102 C   0  0  0  0  0  0  0  0  0  0  0  0
    1.5643    1.0022   -0.3798 C   0  0  0  0  0  0  0  0  0  0  0  0
   -1.0288    2.0093   -0.1017 H   0  0  0  0  0  0  0  0  0  0  0  0
   -2.4318    1.5163   -1.1089 H   0  0  0  0  0  0  0  0  0  0  0  0
   -2.5354    1.3394    0.6512 H   0  0  0  0  0  0  0  0  0  0  0  0
   -0.4410   -0.3807    1.6810 H   0  0  0  0  0  0  0  0  0  0  0  0
   -0.5253   -2.6309   -0.0792 H   0  0  0  0  0  0  0  0  0  0  0  0
    0.8594   -2.3460    1.1558 H   0  0  0  0  0  0  0  0  0  0  0  0
    1.9280   -0.6088    0.9952 H   0  0  0  0  0  0  0  0  0  0  0  0
    0.9541    1.2844   -1.2459 H   0  0  0  0  0  0  0  0  0  0  0  0
    2.6519    0.9621   -0.6586 H   0  0  0  0  0  0  0  0  0  0  0  0
    1.3905    1.7598    0.4180 H   0  0  0  0  0  0  0  0  0  0  0  0
  1  2  1  0
  2  3  2  0
  2  4  1  0
  4  5  1  0
  5  6  1  0
  6  7  1  0
  7  8  1  0
  7  4  1  0
  1  9  1  0
  1 10  1  0
  1 11  1  0
  4 12  1  0
  5 13  1  0
  5 14  1  0
  7 15  1  0
  8 16  1  0
  8 17  1  0
  8 18  1  0
M  END
