
     RDKit          3D

 19 20  0  0  0  0  0  0  0  0999 V2000
    3.0971    0.1750   -0.2556 C   0  0  0  0  0  0  0  0  0  0  0  0
    1.7351    0.4243    0.2354 C   0  0  0  0  0  0  0  0  0  0  0  0
    1.5214    1.3566    0.9760 O   0  0  0  0  0  0  0  0  0  0  0  0
    0.6326   -0.4645   -0.1772 C   0  0  0  0  0  0  0  0  0  0  0  0
   -0.6720   -0.0463    0.4265 C   0  0  0  0  0  0  0  0  0  0  0  0
   -1.8092   -0.9293    0.0261 C   0  0  0  0  0  0  0  0  0  0  0  0
   -2.7363    0.1911    0.3597 C   0  0  0  0  0  0  0  0  0  0  0  0
   -1.5928    0.7562   -0.4266 C   0  0  0  0  0  0  0  0  0  0  0  0
   -1.7124   -0.3608   -1.2389 O   0  0  0  0  0  0  0  0  0  0  0  0
    3.7172    1.1036   -0.2176 H   0  0  0  0  0  0  0  0  0  0  0  0
    3.6171   -0.5685    0.4027 H   0  0  0  0  0  0  0  0  0  0  0  0
    3.1246   -0.2308   -1.2901 H   0  0  0  0  0  0  0  0  0  0  0  0
    0.8820   -1.5060    0.1787 H   0  0  0  0  0  0  0  0  0  0  0  0
    0.5928   -0.5503   -1.2851 H   0  0  0  0  0  0  0  0  0  0  0  0
   -0.5772    0.2278    1.4765 H   0  0  0  0  0  0  0  0  0  0  0  0
   -1.9267   -1.9077    0.2344 H   0  0  0  0  0  0  0  0  0  0  0  0
   -3.7203    0.1774   -0.1230 H   0  0  0  0  0  0  0  0  0  0  0  0
   -2.6922    0.4408    1.4260 H   0  0  0  0  0  0  0  0  0  0  0  0
   -1.4809    1.7114   -0.7280 H   0  0  0  0  0  0  0  0  0  0  0  0
  1  2  1  0
  2  3  2  0
  2  4  1  0
  4  5  1  0
  5  6  1  0
  6  7  1  0
  7  8  1  0
  8  9  1  0
  8  5  1  0
  9  6  1  0
  1 10  1  0
  1 11  1  0
  1 12  1  0
  4 13  1  0
  4 14  1  0
  5 15  1  0
  6 16  1  0
  7 17  1  0
  7 18  1  0
  8 19  1  0
M  END
