
     RDKit          3D

 19 20  0  0  0  0  0  0  0  0999 V2000
    2.8810    0.2881    0.2899 C   0  0  0  0  0  0  0  0  0  0  0  0
    1.4489    0.4286   -0.0614 C   0  0  0  0  0  0  0  0  0  0  0  0
    1.1109    1.4031   -0.7019 O   0  0  0  0  0  0  0  0  0  0  0  0
    0.4794   -0.5803    0.3546 C   0  0  0  0  0  0  0  0  0  0  0  0
   -0.5708   -0.9571   -0.6172 C   0  0  0  0  0  0  0  0  0  0  0  0
   -1.3937    0.0719   -1.3297 C   0  0  0  0  0  0  0  0  0  0  0  0
   -1.6776    0.8226   -0.0444 C   0  0  0  0  0  0  0  0  0  0  0  0
   -0.9236   -0.2423    0.6925 C   0  0  0  0  0  0  0  0  0  0  0  0
   -1.6178   -1.0371    1.5932 O   0  0  0  0  0  0  0  0  0  0  0  0
    3.1394   -0.7440    0.6092 H   0  0  0  0  0  0  0  0  0  0  0  0
    3.5515    0.5849   -0.5674 H   0  0  0  0  0  0  0  0  0  0  0  0
    3.1066    0.9420    1.1631 H   0  0  0  0  0  0  0  0  0  0  0  0
    0.8938   -1.4305    0.9358 H   0  0  0  0  0  0  0  0  0  0  0  0
   -0.8733   -1.9945   -0.7457 H   0  0  0  0  0  0  0  0  0  0  0  0
   -0.8392    0.7360   -2.0341 H   0  0  0  0  0  0  0  0  0  0  0  0
   -2.3013   -0.3460   -1.8022 H   0  0  0  0  0  0  0  0  0  0  0  0
   -1.3038    1.8432    0.0109 H   0  0  0  0  0  0  0  0  0  0  0  0
   -2.7595    0.7841    0.2115 H   0  0  0  0  0  0  0  0  0  0  0  0
   -2.3508   -0.5725    2.0432 H   0  0  0  0  0  0  0  0  0  0  0  0
  1  2  1  0
  2  3  2  0
  2  4  1  0
  4  5  1  0
  5  6  1  0
  6  7  1  0
  7  8  1  0
  8  9  1  0
  8  4  1  0
  8  5  1  0
  1 10  1  0
  1 11  1  0
  1 12  1  0
  4 13  1  0
  5 14  1  0
  6 15  1  0
  6 16  1  0
  7 17  1  0
  7 18  1  0
  9 19  1  0
M  END
