
     RDKit          3D

 16 15  0  0  0  0  0  0  0  0999 V2000
    2.3733    1.0088    0.0329 C   0  0  0  0  0  0  0  0  0  0  0  0
    1.0392    0.5136    0.4533 C   0  0  0  0  0  0  0  0  0  0  0  0
    0.4325    1.1674    1.3253 O   0  0  0  0  0  0  0  0  0  0  0  0
    0.4720   -0.6798   -0.1304 C   0  0  0  0  0  0  0  0  0  0  0  0
    1.1207   -1.3006   -1.0327 O   0  0  0  0  0  0  0  0  0  0  0  0
   -0.8491   -1.2082    0.2830 C   0  0  0  0  0  0  0  0  0  0  0  0
   -1.9802   -0.4328   -0.3992 C   0  0  0  0  0  0  0  0  0  0  0  0
   -1.8532    0.8755    0.0117 O   0  0  0  0  0  0  0  0  0  0  0  0
    2.4331    2.1224    0.0728 H   0  0  0  0  0  0  0  0  0  0  0  0
    2.6486    0.6773   -0.9981 H   0  0  0  0  0  0  0  0  0  0  0  0
    3.1462    0.5664    0.7064 H   0  0  0  0  0  0  0  0  0  0  0  0
   -0.9959   -1.2276    1.3760 H   0  0  0  0  0  0  0  0  0  0  0  0
   -0.9806   -2.2672   -0.0528 H   0  0  0  0  0  0  0  0  0  0  0  0
   -2.9683   -0.8168   -0.0994 H   0  0  0  0  0  0  0  0  0  0  0  0
   -1.8732   -0.5114   -1.5172 H   0  0  0  0  0  0  0  0  0  0  0  0
   -2.1651    1.5129   -0.6760 H   0  0  0  0  0  0  0  0  0  0  0  0
  1  2  1  0
  2  3  2  0
  2  4  1  0
  4  5  2  0
  4  6  1  0
  6  7  1  0
  7  8  1  0
  1  9  1  0
  1 10  1  0
  1 11  1  0
  6 12  1  0
  6 13  1  0
  7 14  1  0
  7 15  1  0
  8 16  1  0
M  END
