
     RDKit          3D

 17 17  0  0  0  0  0  0  0  0999 V2000
    2.1212   -0.5050   -0.3218 C   0  0  0  0  0  0  0  0  0  0  0  0
    0.8924   -0.2232    0.4402 C   0  0  0  0  0  0  0  0  0  0  0  0
    0.6599   -0.8103    1.5013 O   0  0  0  0  0  0  0  0  0  0  0  0
   -0.1364    0.7550   -0.0227 C   0  0  0  0  0  0  0  0  0  0  0  0
    0.2202    2.1818   -0.1410 C   0  0  0  0  0  0  0  0  0  0  0  0
    1.3146    2.6420   -0.2068 O   0  0  0  0  0  0  0  0  0  0  0  0
   -0.6536    0.3774   -1.3132 O   0  0  0  0  0  0  0  0  0  0  0  0
   -1.4903    0.1967   -0.2139 C   0  0  0  0  0  0  0  0  0  0  0  0
   -1.7345   -1.2994    0.0016 C   0  0  0  0  0  0  0  0  0  0  0  0
    2.2726    0.1881   -1.1567 H   0  0  0  0  0  0  0  0  0  0  0  0
    1.9354   -1.5717   -0.7732 H   0  0  0  0  0  0  0  0  0  0  0  0
    3.0328   -0.7131    0.2891 H   0  0  0  0  0  0  0  0  0  0  0  0
   -0.6259    2.9133   -0.1707 H   0  0  0  0  0  0  0  0  0  0  0  0
   -2.3608    0.8416   -0.0504 H   0  0  0  0  0  0  0  0  0  0  0  0
   -2.7173   -1.5512   -0.5015 H   0  0  0  0  0  0  0  0  0  0  0  0
   -0.9395   -1.9061   -0.5269 H   0  0  0  0  0  0  0  0  0  0  0  0
   -1.7909   -1.5160    1.0541 H   0  0  0  0  0  0  0  0  0  0  0  0
  1  2  1  0
  2  3  2  0
  2  4  1  0
  4  5  1  0
  5  6  2  0
  4  7  1  0
  7  8  1  0
  8  9  1  0
  8  4  1  0
  1 10  1  0
  1 11  1  0
  1 12  1  0
  5 13  1  0
  8 14  1  0
  9 15  1  0
  9 16  1  0
  9 17  1  0
M  END
