
     RDKit          3D

 19 18  0  0  0  0  0  0  0  0999 V2000
    3.5754    0.9800   -0.0320 C   0  0  0  0  0  0  0  0  0  0  0  0
    2.1434    0.6572    0.1354 C   0  0  0  0  0  0  0  0  0  0  0  0
    1.5093    1.1439    1.0434 O   0  0  0  0  0  0  0  0  0  0  0  0
    1.4968   -0.2659   -0.8186 C   0  0  0  0  0  0  0  0  0  0  0  0
    0.0732   -0.4850   -0.4752 C   0  0  0  0  0  0  0  0  0  0  0  0
   -1.1006   -0.6794   -0.2083 C   0  0  0  0  0  0  0  0  0  0  0  0
   -2.5051   -0.9268    0.0902 C   0  0  0  0  0  0  0  0  0  0  0  0
   -3.1086    0.3501    0.6362 C   0  0  0  0  0  0  0  0  0  0  0  0
   -2.6579   -1.8897    1.0866 O   0  0  0  0  0  0  0  0  0  0  0  0
    4.0855    0.8961    0.9660 H   0  0  0  0  0  0  0  0  0  0  0  0
    3.7653    2.0108   -0.4053 H   0  0  0  0  0  0  0  0  0  0  0  0
    4.0329    0.2126   -0.6699 H   0  0  0  0  0  0  0  0  0  0  0  0
    1.6120    0.1590   -1.8329 H   0  0  0  0  0  0  0  0  0  0  0  0
    2.0235   -1.2487   -0.8245 H   0  0  0  0  0  0  0  0  0  0  0  0
   -3.0231   -1.1532   -0.8447 H   0  0  0  0  0  0  0  0  0  0  0  0
   -2.5688    0.7060    1.5407 H   0  0  0  0  0  0  0  0  0  0  0  0
   -4.1400    0.0733    1.0056 H   0  0  0  0  0  0  0  0  0  0  0  0
   -3.2594    1.1329   -0.1227 H   0  0  0  0  0  0  0  0  0  0  0  0
   -1.9537   -1.6733    1.7777 H   0  0  0  0  0  0  0  0  0  0  0  0
  1  2  1  0
  2  3  2  0
  2  4  1  0
  4  5  1  0
  5  6  3  0
  6  7  1  0
  7  8  1  0
  7  9  1  0
  1 10  1  0
  1 11  1  0
  1 12  1  0
  4 13  1  0
  4 14  1  0
  7 15  1  0
  8 16  1  0
  8 17  1  0
  8 18  1  0
  9 19  1  0
M  END
