
     RDKit          3D

 17 17  0  0  0  0  0  0  0  0999 V2000
   -3.3444   -0.2377   -1.0493 C   0  0  0  0  0  0  0  0  0  0  0  0
   -2.1688    0.6437   -0.8206 C   0  0  0  0  0  0  0  0  0  0  0  0
   -2.0929    1.8212   -1.2611 O   0  0  0  0  0  0  0  0  0  0  0  0
   -1.0406    0.1702   -0.0651 C   0  0  0  0  0  0  0  0  0  0  0  0
   -0.0893   -0.2095    0.5799 C   0  0  0  0  0  0  0  0  0  0  0  0
    1.0539   -0.6855    1.3802 C   0  0  0  0  0  0  0  0  0  0  0  0
    1.8607   -1.5920    0.5541 O   0  0  0  0  0  0  0  0  0  0  0  0
    2.3654   -0.3394    0.9403 C   0  0  0  0  0  0  0  0  0  0  0  0
    2.5131    0.6921   -0.1585 C   0  0  0  0  0  0  0  0  0  0  0  0
   -4.0541   -0.1463   -0.2135 H   0  0  0  0  0  0  0  0  0  0  0  0
   -3.8099   -0.0210   -2.0432 H   0  0  0  0  0  0  0  0  0  0  0  0
   -2.9934   -1.3080   -1.0544 H   0  0  0  0  0  0  0  0  0  0  0  0
    0.8448   -1.1439    2.3693 H   0  0  0  0  0  0  0  0  0  0  0  0
    3.2341   -0.3831    1.6318 H   0  0  0  0  0  0  0  0  0  0  0  0
    1.9813    0.3178   -1.0685 H   0  0  0  0  0  0  0  0  0  0  0  0
    2.1568    1.6920    0.1561 H   0  0  0  0  0  0  0  0  0  0  0  0
    3.5833    0.7296   -0.4324 H   0  0  0  0  0  0  0  0  0  0  0  0
  1  2  1  0
  2  3  2  0
  2  4  1  0
  4  5  3  0
  5  6  1  0
  6  7  1  0
  7  8  1  0
  8  9  1  0
  8  6  1  0
  1 10  1  0
  1 11  1  0
  1 12  1  0
  6 13  1  0
  8 14  1  0
  9 15  1  0
  9 16  1  0
  9 17  1  0
M  END
