
     RDKit          3D

 19 18  0  0  0  0  0  0  0  0999 V2000
    2.8948    1.8835   -0.6065 C   0  0  0  0  0  0  0  0  0  0  0  0
    2.5286    0.4553   -0.3132 C   0  0  0  0  0  0  0  0  0  0  0  0
    3.4111   -0.4373   -0.2551 O   0  0  0  0  0  0  0  0  0  0  0  0
    1.1688    0.0492   -0.0883 C   0  0  0  0  0  0  0  0  0  0  0  0
    0.0177   -0.2819    0.0853 C   0  0  0  0  0  0  0  0  0  0  0  0
   -1.3828   -0.7066    0.2934 C   0  0  0  0  0  0  0  0  0  0  0  0
   -1.4387   -1.6330    1.4916 C   0  0  0  0  0  0  0  0  0  0  0  0
   -1.9012   -1.4290   -0.9125 C   0  0  0  0  0  0  0  0  0  0  0  0
   -2.0978    0.4591    0.5698 O   0  0  0  0  0  0  0  0  0  0  0  0
    3.5297    2.2203    0.2548 H   0  0  0  0  0  0  0  0  0  0  0  0
    1.9730    2.4948   -0.6224 H   0  0  0  0  0  0  0  0  0  0  0  0
    3.4042    1.9725   -1.5721 H   0  0  0  0  0  0  0  0  0  0  0  0
   -1.4585   -2.6670    1.1187 H   0  0  0  0  0  0  0  0  0  0  0  0
   -0.4850   -1.5286    2.0679 H   0  0  0  0  0  0  0  0  0  0  0  0
   -2.3204   -1.4220    2.1294 H   0  0  0  0  0  0  0  0  0  0  0  0
   -1.0922   -1.4876   -1.6665 H   0  0  0  0  0  0  0  0  0  0  0  0
   -2.1406   -2.5016   -0.6586 H   0  0  0  0  0  0  0  0  0  0  0  0
   -2.8231   -0.9297   -1.3229 H   0  0  0  0  0  0  0  0  0  0  0  0
   -1.7876    1.2245    0.0072 H   0  0  0  0  0  0  0  0  0  0  0  0
  1  2  1  0
  2  3  2  0
  2  4  1  0
  4  5  3  0
  5  6  1  0
  6  7  1  0
  6  8  1  0
  6  9  1  0
  1 10  1  0
  1 11  1  0
  1 12  1  0
  7 13  1  0
  7 14  1  0
  7 15  1  0
  8 16  1  0
  8 17  1  0
  8 18  1  0
  9 19  1  0
M  END
