
     RDKit          3D

 21 21  0  0  0  0  0  0  0  0999 V2000
    2.6275   -0.2083    0.6409 C   0  0  0  0  0  0  0  0  0  0  0  0
    1.1607   -0.0266    0.6442 C   0  0  0  0  0  0  0  0  0  0  0  0
    0.5884    0.2423    1.6795 O   0  0  0  0  0  0  0  0  0  0  0  0
    0.3926   -0.1701   -0.5998 C   0  0  0  0  0  0  0  0  0  0  0  0
    1.1864   -0.4864   -1.7223 O   0  0  0  0  0  0  0  0  0  0  0  0
   -0.7602    0.7139   -0.9085 C   0  0  0  0  0  0  0  0  0  0  0  0
   -1.2087    1.8109   -0.0029 C   0  0  0  0  0  0  0  0  0  0  0  0
   -0.9837   -0.7231   -0.5476 C   0  0  0  0  0  0  0  0  0  0  0  0
   -1.6607   -1.0806    0.7310 C   0  0  0  0  0  0  0  0  0  0  0  0
    3.1370    0.3043    1.4698 H   0  0  0  0  0  0  0  0  0  0  0  0
    2.8432   -1.3122    0.7040 H   0  0  0  0  0  0  0  0  0  0  0  0
    2.9924    0.1391   -0.3672 H   0  0  0  0  0  0  0  0  0  0  0  0
    1.5317   -1.4272   -1.6578 H   0  0  0  0  0  0  0  0  0  0  0  0
   -0.9930    0.9268   -1.9867 H   0  0  0  0  0  0  0  0  0  0  0  0
   -1.2031    1.5942    1.0610 H   0  0  0  0  0  0  0  0  0  0  0  0
   -2.2271    2.1368   -0.3622 H   0  0  0  0  0  0  0  0  0  0  0  0
   -0.5409    2.6950   -0.1597 H   0  0  0  0  0  0  0  0  0  0  0  0
   -1.2080   -1.4660   -1.3707 H   0  0  0  0  0  0  0  0  0  0  0  0
   -1.6697   -0.3290    1.5134 H   0  0  0  0  0  0  0  0  0  0  0  0
   -1.2664   -2.0269    1.1833 H   0  0  0  0  0  0  0  0  0  0  0  0
   -2.7382   -1.3067    0.4788 H   0  0  0  0  0  0  0  0  0  0  0  0
  1  2  1  0
  2  3  2  0
  2  4  1  0
  4  5  1  0
  4  6  1  0
  6  7  1  0
  6  8  1  0
  8  9  1  0
  8  4  1  0
  1 10  1  0
  1 11  1  0
  1 12  1  0
  5 13  1  0
  6 14  1  0
  7 15  1  0
  7 16  1  0
  7 17  1  0
  8 18  1  0
  9 19  1  0
  9 20  1  0
  9 21  1  0
M  END
