
     RDKit          3D

 15 15  0  0  0  0  0  0  0  0999 V2000
   -2.2900   -0.3893    0.2144 C   0  0  0  0  0  0  0  0  0  0  0  0
   -1.3275    0.6281   -0.2728 C   0  0  0  0  0  0  0  0  0  0  0  0
   -1.7428    1.7083   -0.7727 O   0  0  0  0  0  0  0  0  0  0  0  0
    0.1092    0.4035   -0.1851 C   0  0  0  0  0  0  0  0  0  0  0  0
    0.6794   -0.6920    0.3201 C   0  0  0  0  0  0  0  0  0  0  0  0
    2.1591   -0.5594    0.2402 C   0  0  0  0  0  0  0  0  0  0  0  0
    2.3923    0.6997   -0.3511 O   0  0  0  0  0  0  0  0  0  0  0  0
    1.1669    1.2824   -0.6087 C   0  0  0  0  0  0  0  0  0  0  0  0
    1.0206    2.4078   -1.1330 O   0  0  0  0  0  0  0  0  0  0  0  0
   -2.6884   -0.1403    1.2024 H   0  0  0  0  0  0  0  0  0  0  0  0
   -1.7723   -1.3893    0.2207 H   0  0  0  0  0  0  0  0  0  0  0  0
   -3.1421   -0.5042   -0.4872 H   0  0  0  0  0  0  0  0  0  0  0  0
    0.2076   -1.5739    0.7381 H   0  0  0  0  0  0  0  0  0  0  0  0
    2.6064   -0.5347    1.2643 H   0  0  0  0  0  0  0  0  0  0  0  0
    2.6218   -1.3467   -0.3896 H   0  0  0  0  0  0  0  0  0  0  0  0
  1  2  1  0
  2  3  2  0
  2  4  1  0
  4  5  2  0
  5  6  1  0
  6  7  1  0
  7  8  1  0
  8  9  2  0
  8  4  1  0
  1 10  1  0
  1 11  1  0
  1 12  1  0
  5 13  1  0
  6 14  1  0
  6 15  1  0
M  END
