
     RDKit          3D

 17 17  0  0  0  0  0  0  0  0999 V2000
    3.1510    0.1794    0.3633 C   0  0  0  0  0  0  0  0  0  0  0  0
    1.8493   -0.2260   -0.2563 C   0  0  0  0  0  0  0  0  0  0  0  0
    1.9194   -0.8581   -1.3387 O   0  0  0  0  0  0  0  0  0  0  0  0
    0.6259    0.0491    0.2808 O   0  0  0  0  0  0  0  0  0  0  0  0
   -0.5644   -0.3677   -0.3644 C   0  0  0  0  0  0  0  0  0  0  0  0
   -1.7627   -0.7387    0.4085 C   0  0  0  0  0  0  0  0  0  0  0  0
   -1.8089   -0.6412    1.7904 O   0  0  0  0  0  0  0  0  0  0  0  0
   -1.6940    0.5987   -0.3161 C   0  0  0  0  0  0  0  0  0  0  0  0
   -2.5733    0.7238   -1.3923 O   0  0  0  0  0  0  0  0  0  0  0  0
    3.0205    0.6105    1.3616 H   0  0  0  0  0  0  0  0  0  0  0  0
    3.8052   -0.7007    0.3910 H   0  0  0  0  0  0  0  0  0  0  0  0
    3.5535    0.9944   -0.2992 H   0  0  0  0  0  0  0  0  0  0  0  0
   -0.4206   -0.9257   -1.3244 H   0  0  0  0  0  0  0  0  0  0  0  0
   -2.4427   -1.5238   -0.0016 H   0  0  0  0  0  0  0  0  0  0  0  0
   -2.7056   -0.2402    2.0060 H   0  0  0  0  0  0  0  0  0  0  0  0
   -1.5899    1.5251    0.3182 H   0  0  0  0  0  0  0  0  0  0  0  0
   -2.3627    1.5412   -1.8912 H   0  0  0  0  0  0  0  0  0  0  0  0
  1  2  1  0
  2  3  2  0
  2  4  1  0
  4  5  1  0
  5  6  1  0
  6  7  1  0
  6  8  1  0
  8  9  1  0
  8  5  1  0
  1 10  1  0
  1 11  1  0
  1 12  1  0
  5 13  1  0
  6 14  1  0
  7 15  1  0
  8 16  1  0
  9 17  1  0
M  END
