
     RDKit          3D

 21 21  0  0  0  0  0  0  0  0999 V2000
    3.8157   -0.1381   -0.0421 C   0  0  0  0  0  0  0  0  0  0  0  0
    2.5078    0.5570    0.0435 C   0  0  0  0  0  0  0  0  0  0  0  0
    2.5178    1.8087    0.1560 O   0  0  0  0  0  0  0  0  0  0  0  0
    1.2830   -0.0845    0.0075 O   0  0  0  0  0  0  0  0  0  0  0  0
    0.0408    0.5486    0.0864 C   0  0  0  0  0  0  0  0  0  0  0  0
   -0.9040   -0.0432    1.1383 C   0  0  0  0  0  0  0  0  0  0  0  0
   -2.0249    0.2456    0.1605 C   0  0  0  0  0  0  0  0  0  0  0  0
   -3.0149   -0.8971    0.1508 C   0  0  0  0  0  0  0  0  0  0  0  0
   -0.9829    0.1740   -0.9381 C   0  0  0  0  0  0  0  0  0  0  0  0
    3.7912   -0.9842   -0.7628 H   0  0  0  0  0  0  0  0  0  0  0  0
    4.5961    0.5664   -0.3995 H   0  0  0  0  0  0  0  0  0  0  0  0
    4.1004   -0.5989    0.9481 H   0  0  0  0  0  0  0  0  0  0  0  0
    0.0726    1.6709    0.1865 H   0  0  0  0  0  0  0  0  0  0  0  0
   -0.6626   -1.1136    1.2812 H   0  0  0  0  0  0  0  0  0  0  0  0
   -0.9451    0.5598    2.0720 H   0  0  0  0  0  0  0  0  0  0  0  0
   -2.4387    1.2367    0.3555 H   0  0  0  0  0  0  0  0  0  0  0  0
   -2.4032   -1.8272   -0.0381 H   0  0  0  0  0  0  0  0  0  0  0  0
   -3.7764   -0.7603   -0.6161 H   0  0  0  0  0  0  0  0  0  0  0  0
   -3.4885   -0.9768    1.1534 H   0  0  0  0  0  0  0  0  0  0  0  0
   -0.8830   -0.8713   -1.2896 H   0  0  0  0  0  0  0  0  0  0  0  0
   -1.2015    0.9275   -1.7162 H   0  0  0  0  0  0  0  0  0  0  0  0
  1  2  1  0
  2  3  2  0
  2  4  1  0
  4  5  1  0
  5  6  1  0
  6  7  1  0
  7  8  1  0
  7  9  1  0
  9  5  1  0
  1 10  1  0
  1 11  1  0
  1 12  1  0
  5 13  1  0
  6 14  1  0
  6 15  1  0
  7 16  1  0
  8 17  1  0
  8 18  1  0
  8 19  1  0
  9 20  1  0
  9 21  1  0
M  END
