
     RDKit          3D

 19 19  0  0  0  0  0  0  0  0999 V2000
   -2.4387    0.5331   -0.0912 C   0  0  0  0  0  0  0  0  0  0  0  0
   -1.7211   -0.5422    0.6280 C   0  0  0  0  0  0  0  0  0  0  0  0
   -2.3677   -1.4946    1.0469 O   0  0  0  0  0  0  0  0  0  0  0  0
   -0.2647   -0.5460    0.8715 C   0  0  0  0  0  0  0  0  0  0  0  0
    0.5444   -0.7037   -0.4046 C   0  0  0  0  0  0  0  0  0  0  0  0
    1.9894   -0.7055   -0.0442 C   0  0  0  0  0  0  0  0  0  0  0  0
    2.5315    0.3670   -0.7322 O   0  0  0  0  0  0  0  0  0  0  0  0
    1.4829    1.2713   -0.7540 C   0  0  0  0  0  0  0  0  0  0  0  0
    0.3967    0.4604   -1.1708 O   0  0  0  0  0  0  0  0  0  0  0  0
   -2.0697    1.5212    0.3054 H   0  0  0  0  0  0  0  0  0  0  0  0
   -2.2814    0.4834   -1.2118 H   0  0  0  0  0  0  0  0  0  0  0  0
   -3.5447    0.4153    0.0522 H   0  0  0  0  0  0  0  0  0  0  0  0
    0.0018    0.3885    1.3939 H   0  0  0  0  0  0  0  0  0  0  0  0
    0.0018   -1.4249    1.5320 H   0  0  0  0  0  0  0  0  0  0  0  0
    0.2677   -1.6126   -0.9306 H   0  0  0  0  0  0  0  0  0  0  0  0
    2.4895   -1.6747   -0.2564 H   0  0  0  0  0  0  0  0  0  0  0  0
    2.1578   -0.4661    1.0494 H   0  0  0  0  0  0  0  0  0  0  0  0
    1.6213    2.0559   -1.5165 H   0  0  0  0  0  0  0  0  0  0  0  0
    1.2032    1.6741    0.2329 H   0  0  0  0  0  0  0  0  0  0  0  0
  1  2  1  0
  2  3  2  0
  2  4  1  0
  4  5  1  0
  5  6  1  0
  6  7  1  0
  7  8  1  0
  8  9  1  0
  9  5  1  0
  1 10  1  0
  1 11  1  0
  1 12  1  0
  4 13  1  0
  4 14  1  0
  5 15  1  0
  6 16  1  0
  6 17  1  0
  8 18  1  0
  8 19  1  0
M  END
