
     RDKit          3D

 19 20  0  0  0  0  0  0  0  0999 V2000
    2.9570    0.1224    0.0120 C   0  0  0  0  0  0  0  0  0  0  0  0
    1.6163   -0.0820   -0.5735 C   0  0  0  0  0  0  0  0  0  0  0  0
    1.4770   -0.0759   -1.7709 O   0  0  0  0  0  0  0  0  0  0  0  0
    0.4697   -0.2901    0.3107 C   0  0  0  0  0  0  0  0  0  0  0  0
   -0.8293   -0.4850   -0.3832 C   0  0  0  0  0  0  0  0  0  0  0  0
   -1.4670    0.4651   -1.2761 C   0  0  0  0  0  0  0  0  0  0  0  0
   -1.9396    0.4635    0.1266 C   0  0  0  0  0  0  0  0  0  0  0  0
   -2.1891   -0.7788    0.9139 C   0  0  0  0  0  0  0  0  0  0  0  0
   -1.6163   -1.6043   -0.0526 O   0  0  0  0  0  0  0  0  0  0  0  0
    3.3034   -0.8564    0.4434 H   0  0  0  0  0  0  0  0  0  0  0  0
    3.6837    0.5414   -0.7095 H   0  0  0  0  0  0  0  0  0  0  0  0
    2.8809    0.8008    0.9110 H   0  0  0  0  0  0  0  0  0  0  0  0
    0.4567    0.5722    1.0409 H   0  0  0  0  0  0  0  0  0  0  0  0
    0.6286   -1.1895    0.9765 H   0  0  0  0  0  0  0  0  0  0  0  0
   -0.8805    1.3102   -1.6461 H   0  0  0  0  0  0  0  0  0  0  0  0
   -2.1544    0.0339   -2.0555 H   0  0  0  0  0  0  0  0  0  0  0  0
   -1.6290    1.3345    0.7305 H   0  0  0  0  0  0  0  0  0  0  0  0
   -1.5283   -0.8179    1.8298 H   0  0  0  0  0  0  0  0  0  0  0  0
   -3.2398   -1.0086    1.1721 H   0  0  0  0  0  0  0  0  0  0  0  0
  1  2  1  0
  2  3  2  0
  2  4  1  0
  4  5  1  0
  5  6  1  0
  6  7  1  0
  7  8  1  0
  8  9  1  0
  7  5  1  0
  9  5  1  0
  1 10  1  0
  1 11  1  0
  1 12  1  0
  4 13  1  0
  4 14  1  0
  6 15  1  0
  6 16  1  0
  7 17  1  0
  8 18  1  0
  8 19  1  0
M  END
