
     RDKit          3D

 19 20  0  0  0  0  0  0  0  0999 V2000
    3.1426   -0.4852   -0.2759 C   0  0  0  0  0  0  0  0  0  0  0  0
    1.7871    0.1122   -0.1890 C   0  0  0  0  0  0  0  0  0  0  0  0
    1.6620    1.2445   -0.6755 O   0  0  0  0  0  0  0  0  0  0  0  0
    0.6255   -0.5896    0.4428 C   0  0  0  0  0  0  0  0  0  0  0  0
    0.0880    0.1920    1.5465 O   0  0  0  0  0  0  0  0  0  0  0  0
   -0.6242   -0.0756    0.4062 C   0  0  0  0  0  0  0  0  0  0  0  0
   -1.1049    1.0017   -0.5040 C   0  0  0  0  0  0  0  0  0  0  0  0
   -2.5112    0.4740   -0.3232 C   0  0  0  0  0  0  0  0  0  0  0  0
   -1.9817   -0.6124    0.5901 C   0  0  0  0  0  0  0  0  0  0  0  0
    3.1171   -1.5942   -0.2260 H   0  0  0  0  0  0  0  0  0  0  0  0
    3.6046   -0.1745   -1.2299 H   0  0  0  0  0  0  0  0  0  0  0  0
    3.7749   -0.0623    0.5412 H   0  0  0  0  0  0  0  0  0  0  0  0
    0.9015   -1.5947    0.8307 H   0  0  0  0  0  0  0  0  0  0  0  0
   -0.9261    2.0213   -0.1080 H   0  0  0  0  0  0  0  0  0  0  0  0
   -0.7886    0.8716   -1.5743 H   0  0  0  0  0  0  0  0  0  0  0  0
   -2.9855    0.1095   -1.2539 H   0  0  0  0  0  0  0  0  0  0  0  0
   -3.1269    1.2561    0.2008 H   0  0  0  0  0  0  0  0  0  0  0  0
   -2.4346   -0.4825    1.6140 H   0  0  0  0  0  0  0  0  0  0  0  0
   -2.2196   -1.6121    0.1872 H   0  0  0  0  0  0  0  0  0  0  0  0
  1  2  1  0
  2  3  2  0
  2  4  1  0
  4  5  1  0
  5  6  1  0
  6  7  1  0
  7  8  1  0
  8  9  1  0
  6  4  1  0
  9  6  1  0
  1 10  1  0
  1 11  1  0
  1 12  1  0
  4 13  1  0
  7 14  1  0
  7 15  1  0
  8 16  1  0
  8 17  1  0
  9 18  1  0
  9 19  1  0
M  END
