
     RDKit          3D

 19 20  0  0  0  0  0  0  0  0999 V2000
   -2.5803   -0.2931    0.2276 C   0  0  0  0  0  0  0  0  0  0  0  0
   -1.1367   -0.6139    0.3636 C   0  0  0  0  0  0  0  0  0  0  0  0
   -0.8252   -1.4871    1.1455 O   0  0  0  0  0  0  0  0  0  0  0  0
   -0.1202    0.0974   -0.4178 C   0  0  0  0  0  0  0  0  0  0  0  0
   -0.5013    1.0826   -1.2962 O   0  0  0  0  0  0  0  0  0  0  0  0
    0.3326    2.0294   -0.6589 C   0  0  0  0  0  0  0  0  0  0  0  0
    0.9370    0.9196    0.1711 C   0  0  0  0  0  0  0  0  0  0  0  0
    1.2784   -0.3668   -0.5083 C   0  0  0  0  0  0  0  0  0  0  0  0
    1.8222   -1.4657    0.3410 C   0  0  0  0  0  0  0  0  0  0  0  0
   -2.7480    0.6800   -0.2751 H   0  0  0  0  0  0  0  0  0  0  0  0
   -3.0027   -0.2153    1.2437 H   0  0  0  0  0  0  0  0  0  0  0  0
   -3.1426   -1.1095   -0.2810 H   0  0  0  0  0  0  0  0  0  0  0  0
    1.0190    2.5097   -1.3842 H   0  0  0  0  0  0  0  0  0  0  0  0
   -0.2701    2.6870   -0.0285 H   0  0  0  0  0  0  0  0  0  0  0  0
    1.1175    1.0447    1.2365 H   0  0  0  0  0  0  0  0  0  0  0  0
    1.7563   -0.2766   -1.5228 H   0  0  0  0  0  0  0  0  0  0  0  0
    2.9480   -1.3864    0.3001 H   0  0  0  0  0  0  0  0  0  0  0  0
    1.5978   -2.4843   -0.0519 H   0  0  0  0  0  0  0  0  0  0  0  0
    1.5184   -1.3515    1.3954 H   0  0  0  0  0  0  0  0  0  0  0  0
  1  2  1  0
  2  3  2  0
  2  4  1  0
  4  5  1  0
  5  6  1  0
  6  7  1  0
  7  8  1  0
  8  9  1  0
  7  4  1  0
  8  4  1  0
  1 10  1  0
  1 11  1  0
  1 12  1  0
  6 13  1  0
  6 14  1  0
  7 15  1  0
  8 16  1  0
  9 17  1  0
  9 18  1  0
  9 19  1  0
M  END
