
     RDKit          3D

 18 17  0  0  0  0  0  0  0  0999 V2000
    2.8769   -0.3560    0.1259 C   0  0  0  0  0  0  0  0  0  0  0  0
    1.4494   -0.6850   -0.0991 C   0  0  0  0  0  0  0  0  0  0  0  0
    1.1539   -1.9015   -0.2464 O   0  0  0  0  0  0  0  0  0  0  0  0
    0.4586    0.3488   -0.1446 C   0  0  0  0  0  0  0  0  0  0  0  0
    0.8176    1.5447    0.0096 O   0  0  0  0  0  0  0  0  0  0  0  0
   -0.9879    0.1103   -0.3643 C   0  0  0  0  0  0  0  0  0  0  0  0
   -1.7751    1.3889   -0.3603 C   0  0  0  0  0  0  0  0  0  0  0  0
   -1.5579   -0.9054    0.5793 C   0  0  0  0  0  0  0  0  0  0  0  0
    3.5558   -1.0441   -0.4416 H   0  0  0  0  0  0  0  0  0  0  0  0
    3.1766   -0.4431    1.1896 H   0  0  0  0  0  0  0  0  0  0  0  0
    3.1306    0.6656   -0.2167 H   0  0  0  0  0  0  0  0  0  0  0  0
   -1.0790   -0.3120   -1.4007 H   0  0  0  0  0  0  0  0  0  0  0  0
   -1.6260    1.9933    0.5505 H   0  0  0  0  0  0  0  0  0  0  0  0
   -1.4924    1.9865   -1.2506 H   0  0  0  0  0  0  0  0  0  0  0  0
   -2.8597    1.0908   -0.4498 H   0  0  0  0  0  0  0  0  0  0  0  0
   -2.1336   -1.7004    0.0595 H   0  0  0  0  0  0  0  0  0  0  0  0
   -0.8063   -1.3925    1.2160 H   0  0  0  0  0  0  0  0  0  0  0  0
   -2.3014   -0.3890    1.2437 H   0  0  0  0  0  0  0  0  0  0  0  0
  1  2  1  0
  2  3  2  0
  2  4  1  0
  4  5  2  0
  4  6  1  0
  6  7  1  0
  6  8  1  0
  1  9  1  0
  1 10  1  0
  1 11  1  0
  6 12  1  0
  7 13  1  0
  7 14  1  0
  7 15  1  0
  8 16  1  0
  8 17  1  0
  8 18  1  0
M  END
