
     RDKit          3D

 17 17  0  0  0  0  0  0  0  0999 V2000
    2.0451    0.6180    0.3462 C   0  0  0  0  0  0  0  0  0  0  0  0
    1.0201   -0.4222    0.2823 C   0  0  0  0  0  0  0  0  0  0  0  0
    1.3888   -1.5703    0.5510 O   0  0  0  0  0  0  0  0  0  0  0  0
   -0.3993   -0.2293   -0.0696 C   0  0  0  0  0  0  0  0  0  0  0  0
   -1.2235   -1.4786   -0.0543 C   0  0  0  0  0  0  0  0  0  0  0  0
   -0.6974    0.7545   -1.1463 C   0  0  0  0  0  0  0  0  0  0  0  0
   -0.5783    1.7862   -0.1906 O   0  0  0  0  0  0  0  0  0  0  0  0
   -0.9719    0.8729    0.7746 C   0  0  0  0  0  0  0  0  0  0  0  0
   -1.5557    0.8861    1.8912 O   0  0  0  0  0  0  0  0  0  0  0  0
    2.9879    0.2063   -0.0874 H   0  0  0  0  0  0  0  0  0  0  0  0
    1.7526    1.5806   -0.1129 H   0  0  0  0  0  0  0  0  0  0  0  0
    2.2144    0.8491    1.4395 H   0  0  0  0  0  0  0  0  0  0  0  0
   -2.0095   -1.4154   -0.8290 H   0  0  0  0  0  0  0  0  0  0  0  0
   -0.5766   -2.3366   -0.3161 H   0  0  0  0  0  0  0  0  0  0  0  0
   -1.6649   -1.5865    0.9725 H   0  0  0  0  0  0  0  0  0  0  0  0
    0.0250    0.8099   -1.9846 H   0  0  0  0  0  0  0  0  0  0  0  0
   -1.7567    0.6755   -1.4666 H   0  0  0  0  0  0  0  0  0  0  0  0
  1  2  1  0
  2  3  2  0
  2  4  1  0
  4  5  1  0
  4  6  1  0
  6  7  1  0
  7  8  1  0
  8  9  2  0
  8  4  1  0
  1 10  1  0
  1 11  1  0
  1 12  1  0
  5 13  1  0
  5 14  1  0
  5 15  1  0
  6 16  1  0
  6 17  1  0
M  END
