
     RDKit          3D

 21 21  0  0  0  0  0  0  0  0999 V2000
   -3.8887   -0.1682    0.4326 C   0  0  0  0  0  0  0  0  0  0  0  0
   -2.5409    0.4560    0.3155 C   0  0  0  0  0  0  0  0  0  0  0  0
   -2.4803    1.6711    0.4029 O   0  0  0  0  0  0  0  0  0  0  0  0
   -1.3747   -0.4104    0.1043 C   0  0  0  0  0  0  0  0  0  0  0  0
   -0.1346    0.4920    0.0224 C   0  0  0  0  0  0  0  0  0  0  0  0
    0.9401   -0.3543   -0.1759 O   0  0  0  0  0  0  0  0  0  0  0  0
    2.1484    0.2945   -0.2738 C   0  0  0  0  0  0  0  0  0  0  0  0
    3.2837   -0.4143    0.4515 C   0  0  0  0  0  0  0  0  0  0  0  0
    3.2882   -0.2530   -1.0376 C   0  0  0  0  0  0  0  0  0  0  0  0
   -4.4800    0.4183    1.1346 H   0  0  0  0  0  0  0  0  0  0  0  0
   -3.7674   -1.2286    0.7800 H   0  0  0  0  0  0  0  0  0  0  0  0
   -4.3552   -0.1439   -0.5777 H   0  0  0  0  0  0  0  0  0  0  0  0
   -1.2707   -1.0996    0.9669 H   0  0  0  0  0  0  0  0  0  0  0  0
   -1.4363   -1.0364   -0.7965 H   0  0  0  0  0  0  0  0  0  0  0  0
   -0.0339    1.0454    0.9799 H   0  0  0  0  0  0  0  0  0  0  0  0
   -0.2053    1.1648   -0.8551 H   0  0  0  0  0  0  0  0  0  0  0  0
    2.0751    1.3992   -0.1784 H   0  0  0  0  0  0  0  0  0  0  0  0
    3.8908    0.2408    1.0911 H   0  0  0  0  0  0  0  0  0  0  0  0
    3.1192   -1.4249    0.8565 H   0  0  0  0  0  0  0  0  0  0  0  0
    3.1854   -1.1322   -1.6958 H   0  0  0  0  0  0  0  0  0  0  0  0
    4.0371    0.4837   -1.4036 H   0  0  0  0  0  0  0  0  0  0  0  0
  1  2  1  0
  2  3  2  0
  2  4  1  0
  4  5  1  0
  5  6  1  0
  6  7  1  0
  7  8  1  0
  8  9  1  0
  9  7  1  0
  1 10  1  0
  1 11  1  0
  1 12  1  0
  4 13  1  0
  4 14  1  0
  5 15  1  0
  5 16  1  0
  7 17  1  0
  8 18  1  0
  8 19  1  0
  9 20  1  0
  9 21  1  0
M  END
