
     RDKit          3D

 19 19  0  0  0  0  0  0  0  0999 V2000
   -2.4116   -0.0725   -0.3217 C   0  0  0  0  0  0  0  0  0  0  0  0
   -1.2238    0.5478    0.3263 C   0  0  0  0  0  0  0  0  0  0  0  0
   -1.4407    1.5644    0.9834 O   0  0  0  0  0  0  0  0  0  0  0  0
    0.1433    0.0004    0.2065 C   0  0  0  0  0  0  0  0  0  0  0  0
    0.3303   -1.4069    0.7243 C   0  0  0  0  0  0  0  0  0  0  0  0
    0.7894    0.2359   -1.1543 C   0  0  0  0  0  0  0  0  0  0  0  0
    2.0073    0.6647   -0.3878 C   0  0  0  0  0  0  0  0  0  0  0  0
    1.1497    0.9132    0.8137 C   0  0  0  0  0  0  0  0  0  0  0  0
    1.1850    1.5456    1.8403 O   0  0  0  0  0  0  0  0  0  0  0  0
   -2.7084    0.6112   -1.1487 H   0  0  0  0  0  0  0  0  0  0  0  0
   -2.1865   -1.0939   -0.6772 H   0  0  0  0  0  0  0  0  0  0  0  0
   -3.2337   -0.0636    0.4206 H   0  0  0  0  0  0  0  0  0  0  0  0
    1.1797   -1.9159    0.2294 H   0  0  0  0  0  0  0  0  0  0  0  0
    0.6007   -1.3128    1.8083 H   0  0  0  0  0  0  0  0  0  0  0  0
   -0.5852   -2.0134    0.6780 H   0  0  0  0  0  0  0  0  0  0  0  0
    0.9723   -0.7178   -1.7220 H   0  0  0  0  0  0  0  0  0  0  0  0
    0.2812    1.0273   -1.7252 H   0  0  0  0  0  0  0  0  0  0  0  0
    2.4413    1.6319   -0.7152 H   0  0  0  0  0  0  0  0  0  0  0  0
    2.7095   -0.1456   -0.1785 H   0  0  0  0  0  0  0  0  0  0  0  0
  1  2  1  0
  2  3  2  0
  2  4  1  0
  4  5  1  0
  4  6  1  0
  6  7  1  0
  7  8  1  0
  8  9  2  0
  8  4  1  0
  1 10  1  0
  1 11  1  0
  1 12  1  0
  5 13  1  0
  5 14  1  0
  5 15  1  0
  6 16  1  0
  6 17  1  0
  7 18  1  0
  7 19  1  0
M  END
