
     RDKit          3D

 21 22  0  0  0  0  0  0  0  0999 V2000
    2.7595   -0.3592    0.1700 C   0  0  0  0  0  0  0  0  0  0  0  0
    1.3317   -0.6269    0.4333 C   0  0  0  0  0  0  0  0  0  0  0  0
    0.9585   -1.7649    0.5804 O   0  0  0  0  0  0  0  0  0  0  0  0
    0.3407    0.4659    0.5224 C   0  0  0  0  0  0  0  0  0  0  0  0
    0.3288    1.2212   -0.8125 C   0  0  0  0  0  0  0  0  0  0  0  0
   -0.9962    0.5221   -1.0948 C   0  0  0  0  0  0  0  0  0  0  0  0
   -2.1065    0.9628   -0.2260 C   0  0  0  0  0  0  0  0  0  0  0  0
   -1.0966    0.0796    0.3799 C   0  0  0  0  0  0  0  0  0  0  0  0
   -1.5007   -1.3414    0.6483 C   0  0  0  0  0  0  0  0  0  0  0  0
    2.9881    0.7214    0.0938 H   0  0  0  0  0  0  0  0  0  0  0  0
    3.1058   -0.8076   -0.7936 H   0  0  0  0  0  0  0  0  0  0  0  0
    3.3657   -0.7457    1.0315 H   0  0  0  0  0  0  0  0  0  0  0  0
    0.4914    1.1510    1.3839 H   0  0  0  0  0  0  0  0  0  0  0  0
    1.1463    0.9810   -1.4880 H   0  0  0  0  0  0  0  0  0  0  0  0
    0.1270    2.3052   -0.6908 H   0  0  0  0  0  0  0  0  0  0  0  0
   -1.0466   -0.3056   -1.7910 H   0  0  0  0  0  0  0  0  0  0  0  0
   -2.1180    2.0721   -0.0168 H   0  0  0  0  0  0  0  0  0  0  0  0
   -3.0956    0.5477   -0.4060 H   0  0  0  0  0  0  0  0  0  0  0  0
   -1.2256   -1.9802   -0.2225 H   0  0  0  0  0  0  0  0  0  0  0  0
   -1.1380   -1.7190    1.6079 H   0  0  0  0  0  0  0  0  0  0  0  0
   -2.6198   -1.3794    0.6904 H   0  0  0  0  0  0  0  0  0  0  0  0
  1  2  1  0
  2  3  2  0
  2  4  1  0
  4  5  1  0
  5  6  1  0
  6  7  1  0
  7  8  1  0
  8  9  1  0
  8  4  1  0
  8  6  1  0
  1 10  1  0
  1 11  1  0
  1 12  1  0
  4 13  1  0
  5 14  1  0
  5 15  1  0
  6 16  1  0
  7 17  1  0
  7 18  1  0
  9 19  1  0
  9 20  1  0
  9 21  1  0
M  END
