
     RDKit          3D

 23 23  0  0  0  0  0  0  0  0999 V2000
    2.7084   -0.6923   -0.2705 C   0  0  0  0  0  0  0  0  0  0  0  0
    2.1601    0.6126    0.1602 C   0  0  0  0  0  0  0  0  0  0  0  0
    2.9486    1.4689    0.5229 O   0  0  0  0  0  0  0  0  0  0  0  0
    0.7280    0.9337    0.1757 C   0  0  0  0  0  0  0  0  0  0  0  0
   -0.1293    0.0532    1.0588 C   0  0  0  0  0  0  0  0  0  0  0  0
   -1.1157   -0.0350   -0.0955 C   0  0  0  0  0  0  0  0  0  0  0  0
   -2.1598    1.0612   -0.0881 C   0  0  0  0  0  0  0  0  0  0  0  0
   -1.6873   -1.4125   -0.2381 C   0  0  0  0  0  0  0  0  0  0  0  0
    0.0335    0.2967   -1.0211 C   0  0  0  0  0  0  0  0  0  0  0  0
    1.9615   -1.5101   -0.2608 H   0  0  0  0  0  0  0  0  0  0  0  0
    3.5856   -1.0019    0.3696 H   0  0  0  0  0  0  0  0  0  0  0  0
    3.1482   -0.5845   -1.2970 H   0  0  0  0  0  0  0  0  0  0  0  0
    0.5011    1.9824    0.3441 H   0  0  0  0  0  0  0  0  0  0  0  0
   -0.5291    0.5990    1.9503 H   0  0  0  0  0  0  0  0  0  0  0  0
    0.3197   -0.9021    1.3601 H   0  0  0  0  0  0  0  0  0  0  0  0
   -2.9838    0.7583   -0.7490 H   0  0  0  0  0  0  0  0  0  0  0  0
   -2.6033    1.1099    0.9478 H   0  0  0  0  0  0  0  0  0  0  0  0
   -1.7055    2.0250   -0.3836 H   0  0  0  0  0  0  0  0  0  0  0  0
   -1.4473   -1.7827   -1.2459 H   0  0  0  0  0  0  0  0  0  0  0  0
   -2.7971   -1.4287   -0.1509 H   0  0  0  0  0  0  0  0  0  0  0  0
   -1.3022   -2.1118    0.5296 H   0  0  0  0  0  0  0  0  0  0  0  0
    0.5910   -0.5491   -1.4285 H   0  0  0  0  0  0  0  0  0  0  0  0
   -0.2254    1.1097   -1.7538 H   0  0  0  0  0  0  0  0  0  0  0  0
  1  2  1  0
  2  3  2  0
  2  4  1  0
  4  5  1  0
  5  6  1  0
  6  7  1  0
  6  8  1  0
  6  9  1  0
  9  4  1  0
  1 10  1  0
  1 11  1  0
  1 12  1  0
  4 13  1  0
  5 14  1  0
  5 15  1  0
  7 16  1  0
  7 17  1  0
  7 18  1  0
  8 19  1  0
  8 20  1  0
  8 21  1  0
  9 22  1  0
  9 23  1  0
M  END
