
     RDKit          3D

 19 20  0  0  0  0  0  0  0  0999 V2000
    2.6017    0.2880    0.3396 C   0  0  0  0  0  0  0  0  0  0  0  0
    1.4604    0.3171   -0.5964 C   0  0  0  0  0  0  0  0  0  0  0  0
    1.5750    1.0213   -1.5965 O   0  0  0  0  0  0  0  0  0  0  0  0
    0.2357   -0.4826   -0.3152 C   0  0  0  0  0  0  0  0  0  0  0  0
   -0.4247   -0.1012    0.9801 C   0  0  0  0  0  0  0  0  0  0  0  0
   -1.8636    0.2272    0.6581 C   0  0  0  0  0  0  0  0  0  0  0  0
   -2.0973   -0.1061   -0.7774 C   0  0  0  0  0  0  0  0  0  0  0  0
   -1.8090   -1.3482   -1.2914 O   0  0  0  0  0  0  0  0  0  0  0  0
   -0.7942   -0.3519   -1.3849 C   0  0  0  0  0  0  0  0  0  0  0  0
    3.5573    0.4295   -0.2454 H   0  0  0  0  0  0  0  0  0  0  0  0
    2.6803   -0.7534    0.7576 H   0  0  0  0  0  0  0  0  0  0  0  0
    2.5256    0.9985    1.1642 H   0  0  0  0  0  0  0  0  0  0  0  0
    0.5634   -1.5500   -0.2908 H   0  0  0  0  0  0  0  0  0  0  0  0
    0.1092    0.7754    1.4140 H   0  0  0  0  0  0  0  0  0  0  0  0
   -0.3240   -0.9367    1.7006 H   0  0  0  0  0  0  0  0  0  0  0  0
   -2.5771   -0.2373    1.3600 H   0  0  0  0  0  0  0  0  0  0  0  0
   -1.9727    1.3468    0.7558 H   0  0  0  0  0  0  0  0  0  0  0  0
   -2.9040    0.4303   -1.3114 H   0  0  0  0  0  0  0  0  0  0  0  0
   -0.5422    0.0332   -2.3816 H   0  0  0  0  0  0  0  0  0  0  0  0
  1  2  1  0
  2  3  2  0
  2  4  1  0
  4  5  1  0
  5  6  1  0
  6  7  1  0
  7  8  1  0
  8  9  1  0
  9  4  1  0
  9  7  1  0
  1 10  1  0
  1 11  1  0
  1 12  1  0
  4 13  1  0
  5 14  1  0
  5 15  1  0
  6 16  1  0
  6 17  1  0
  7 18  1  0
  9 19  1  0
M  END
