
     RDKit          3D

 17 17  0  0  0  0  0  0  0  0999 V2000
   -2.4601    0.0147    0.0314 C   0  0  0  0  0  0  0  0  0  0  0  0
   -1.1907   -0.2259   -0.6797 C   0  0  0  0  0  0  0  0  0  0  0  0
   -1.1880   -0.9165   -1.6670 O   0  0  0  0  0  0  0  0  0  0  0  0
    0.0370    0.3731   -0.1794 C   0  0  0  0  0  0  0  0  0  0  0  0
    1.2937    0.0637   -0.9850 C   0  0  0  0  0  0  0  0  0  0  0  0
    2.0228    0.2037    0.3607 C   0  0  0  0  0  0  0  0  0  0  0  0
    0.7344   -0.3915    0.9542 C   0  0  0  0  0  0  0  0  0  0  0  0
   -2.5679    1.1201    0.2223 H   0  0  0  0  0  0  0  0  0  0  0  0
   -2.4861   -0.5289    0.9980 H   0  0  0  0  0  0  0  0  0  0  0  0
   -3.3503   -0.2939   -0.5369 H   0  0  0  0  0  0  0  0  0  0  0  0
    0.0076    1.4634    0.0111 H   0  0  0  0  0  0  0  0  0  0  0  0
    1.5667    0.8049   -1.7285 H   0  0  0  0  0  0  0  0  0  0  0  0
    1.3754   -1.0076   -1.2893 H   0  0  0  0  0  0  0  0  0  0  0  0
    2.9077   -0.4188    0.4710 H   0  0  0  0  0  0  0  0  0  0  0  0
    2.1104    1.2664    0.6973 H   0  0  0  0  0  0  0  0  0  0  0  0
    0.6920   -1.4781    0.7853 H   0  0  0  0  0  0  0  0  0  0  0  0
    0.4952   -0.0488    1.9584 H   0  0  0  0  0  0  0  0  0  0  0  0
  1  2  1  0
  2  3  2  0
  2  4  1  0
  4  5  1  0
  5  6  1  0
  6  7  1  0
  7  4  1  0
  1  8  1  0
  1  9  1  0
  1 10  1  0
  4 11  1  0
  5 12  1  0
  5 13  1  0
  6 14  1  0
  6 15  1  0
  7 16  1  0
  7 17  1  0
M  END
