
     RDKit          3D

 15 15  0  0  0  0  0  0  0  0999 V2000
    2.0630    0.2643   -0.2918 C   0  0  0  0  0  0  0  0  0  0  0  0
    0.7607    0.6038    0.3676 C   0  0  0  0  0  0  0  0  0  0  0  0
    0.5808    1.7886    0.6036 O   0  0  0  0  0  0  0  0  0  0  0  0
   -0.2380   -0.4541    0.7056 C   0  0  0  0  0  0  0  0  0  0  0  0
   -0.8648   -0.9892   -0.5630 C   0  0  0  0  0  0  0  0  0  0  0  0
   -2.1242   -0.3542   -0.6772 O   0  0  0  0  0  0  0  0  0  0  0  0
   -2.1513    0.6554    0.2814 C   0  0  0  0  0  0  0  0  0  0  0  0
   -2.7973    1.7581    0.2088 O   0  0  0  0  0  0  0  0  0  0  0  0
   -1.3370    0.2033    1.3093 O   0  0  0  0  0  0  0  0  0  0  0  0
    2.8022    0.1359    0.5282 H   0  0  0  0  0  0  0  0  0  0  0  0
    2.4048    1.0887   -0.9594 H   0  0  0  0  0  0  0  0  0  0  0  0
    1.9416   -0.6642   -0.8777 H   0  0  0  0  0  0  0  0  0  0  0  0
    0.1866   -1.2489    1.3413 H   0  0  0  0  0  0  0  0  0  0  0  0
   -0.9485   -2.0909   -0.5180 H   0  0  0  0  0  0  0  0  0  0  0  0
   -0.2786   -0.6966   -1.4585 H   0  0  0  0  0  0  0  0  0  0  0  0
  1  2  1  0
  2  3  2  0
  2  4  1  0
  4  5  1  0
  5  6  1  0
  6  7  1  0
  7  8  2  0
  7  9  1  0
  9  4  1  0
  1 10  1  0
  1 11  1  0
  1 12  1  0
  4 13  1  0
  5 14  1  0
  5 15  1  0
M  END
