
     RDKit          3D

 21 21  0  0  0  0  0  0  0  0999 V2000
    2.7961    0.4974    0.4488 C   0  0  0  0  0  0  0  0  0  0  0  0
    1.3712    0.9098    0.2781 C   0  0  0  0  0  0  0  0  0  0  0  0
    0.9411    1.7497    1.0149 O   0  0  0  0  0  0  0  0  0  0  0  0
    0.5256    0.2999   -0.7651 C   0  0  0  0  0  0  0  0  0  0  0  0
    0.4221   -1.2137   -0.5489 C   0  0  0  0  0  0  0  0  0  0  0  0
   -0.4451   -1.3860    0.4924 O   0  0  0  0  0  0  0  0  0  0  0  0
   -1.1927   -0.2562    0.6730 C   0  0  0  0  0  0  0  0  0  0  0  0
   -2.6638   -0.5034    0.8593 C   0  0  0  0  0  0  0  0  0  0  0  0
   -0.9163    0.6788   -0.4876 C   0  0  0  0  0  0  0  0  0  0  0  0
    2.9848   -0.4473   -0.1012 H   0  0  0  0  0  0  0  0  0  0  0  0
    3.4584    1.3009    0.0707 H   0  0  0  0  0  0  0  0  0  0  0  0
    3.0549    0.3844    1.5338 H   0  0  0  0  0  0  0  0  0  0  0  0
    0.8384    0.5420   -1.7938 H   0  0  0  0  0  0  0  0  0  0  0  0
   -0.0943   -1.5929   -1.4780 H   0  0  0  0  0  0  0  0  0  0  0  0
    1.3992   -1.6865   -0.4374 H   0  0  0  0  0  0  0  0  0  0  0  0
   -0.7855    0.2663    1.5876 H   0  0  0  0  0  0  0  0  0  0  0  0
   -3.2415   -0.5349   -0.0640 H   0  0  0  0  0  0  0  0  0  0  0  0
   -2.7546   -1.4441    1.4663 H   0  0  0  0  0  0  0  0  0  0  0  0
   -3.1075    0.2960    1.5094 H   0  0  0  0  0  0  0  0  0  0  0  0
   -1.5704    0.3967   -1.3462 H   0  0  0  0  0  0  0  0  0  0  0  0
   -1.0201    1.7432   -0.2143 H   0  0  0  0  0  0  0  0  0  0  0  0
  1  2  1  0
  2  3  2  0
  2  4  1  0
  4  5  1  0
  5  6  1  0
  6  7  1  0
  7  8  1  0
  7  9  1  0
  9  4  1  0
  1 10  1  0
  1 11  1  0
  1 12  1  0
  4 13  1  0
  5 14  1  0
  5 15  1  0
  7 16  1  0
  8 17  1  0
  8 18  1  0
  8 19  1  0
  9 20  1  0
  9 21  1  0
M  END
