
     RDKit          3D

 23 22  0  0  0  0  0  0  0  0999 V2000
    3.4880    0.6449   -0.0012 C   0  0  0  0  0  0  0  0  0  0  0  0
    2.1482    0.3701    0.5198 C   0  0  0  0  0  0  0  0  0  0  0  0
    1.8796    0.6916    1.7045 O   0  0  0  0  0  0  0  0  0  0  0  0
    1.1342   -0.2305   -0.2119 O   0  0  0  0  0  0  0  0  0  0  0  0
   -0.1140   -0.4564    0.3600 C   0  0  0  0  0  0  0  0  0  0  0  0
   -0.3536   -1.9744    0.3612 C   0  0  0  0  0  0  0  0  0  0  0  0
   -1.2501    0.1289   -0.4604 C   0  0  0  0  0  0  0  0  0  0  0  0
   -1.1438    1.6076   -0.6353 C   0  0  0  0  0  0  0  0  0  0  0  0
   -2.5340   -0.2931    0.2388 C   0  0  0  0  0  0  0  0  0  0  0  0
    4.2079    0.6894    0.8339 H   0  0  0  0  0  0  0  0  0  0  0  0
    3.5087    1.6649   -0.4796 H   0  0  0  0  0  0  0  0  0  0  0  0
    3.8601   -0.1069   -0.7202 H   0  0  0  0  0  0  0  0  0  0  0  0
   -0.1221   -0.0980    1.3957 H   0  0  0  0  0  0  0  0  0  0  0  0
   -1.2047   -2.1724    1.0758 H   0  0  0  0  0  0  0  0  0  0  0  0
   -0.6859   -2.2216   -0.6702 H   0  0  0  0  0  0  0  0  0  0  0  0
    0.5551   -2.5094    0.6512 H   0  0  0  0  0  0  0  0  0  0  0  0
   -1.2245   -0.4198   -1.4399 H   0  0  0  0  0  0  0  0  0  0  0  0
   -1.4070    1.8308   -1.7111 H   0  0  0  0  0  0  0  0  0  0  0  0
   -0.1770    2.0421   -0.3893 H   0  0  0  0  0  0  0  0  0  0  0  0
   -1.9648    2.0983   -0.0485 H   0  0  0  0  0  0  0  0  0  0  0  0
   -2.7459   -1.3631   -0.0437 H   0  0  0  0  0  0  0  0  0  0  0  0
   -3.3992    0.3221   -0.0860 H   0  0  0  0  0  0  0  0  0  0  0  0
   -2.4554   -0.2451    1.3348 H   0  0  0  0  0  0  0  0  0  0  0  0
  1  2  1  0
  2  3  2  0
  2  4  1  0
  4  5  1  0
  5  6  1  0
  5  7  1  0
  7  8  1  0
  7  9  1  0
  1 10  1  0
  1 11  1  0
  1 12  1  0
  5 13  1  0
  6 14  1  0
  6 15  1  0
  6 16  1  0
  7 17  1  0
  8 18  1  0
  8 19  1  0
  8 20  1  0
  9 21  1  0
  9 22  1  0
  9 23  1  0
M  END
