
     RDKit          3D

 17 18  0  0  0  0  0  0  0  0999 V2000
    2.2065    0.1463    0.3357 C   0  0  0  0  0  0  0  0  0  0  0  0
    0.9067    0.8139    0.0700 C   0  0  0  0  0  0  0  0  0  0  0  0
    0.6568    1.8387    0.6606 O   0  0  0  0  0  0  0  0  0  0  0  0
   -0.0066    0.1669   -0.9154 C   0  0  0  0  0  0  0  0  0  0  0  0
   -1.4152    0.6889   -0.6800 C   0  0  0  0  0  0  0  0  0  0  0  0
   -1.4724    0.1919    0.7579 C   0  0  0  0  0  0  0  0  0  0  0  0
   -0.8918   -0.9885    0.7466 C   0  0  0  0  0  0  0  0  0  0  0  0
   -0.4768   -1.2783   -0.5972 C   0  0  0  0  0  0  0  0  0  0  0  0
    0.4526   -0.9217   -1.4463 O   0  0  0  0  0  0  0  0  0  0  0  0
    2.0666   -0.9522    0.2185 H   0  0  0  0  0  0  0  0  0  0  0  0
    2.5918    0.3833    1.3481 H   0  0  0  0  0  0  0  0  0  0  0  0
    2.9653    0.4205   -0.4504 H   0  0  0  0  0  0  0  0  0  0  0  0
   -1.3704    1.7849   -0.7325 H   0  0  0  0  0  0  0  0  0  0  0  0
   -2.1396    0.2120   -1.3261 H   0  0  0  0  0  0  0  0  0  0  0  0
   -1.9068    0.7336    1.5658 H   0  0  0  0  0  0  0  0  0  0  0  0
   -0.7723   -1.5987    1.6301 H   0  0  0  0  0  0  0  0  0  0  0  0
   -1.3944   -1.6416   -1.1852 H   0  0  0  0  0  0  0  0  0  0  0  0
  1  2  1  0
  2  3  2  0
  2  4  1  0
  4  5  1  0
  5  6  1  0
  6  7  2  0
  7  8  1  0
  8  9  1  0
  8  4  1  0
  9  4  1  0
  1 10  1  0
  1 11  1  0
  1 12  1  0
  5 13  1  0
  5 14  1  0
  6 15  1  0
  7 16  1  0
  8 17  1  0
M  END
