
     RDKit          3D

 17 16  0  0  0  0  0  0  0  0999 V2000
   -3.4449    1.1336    0.3147 C   0  0  0  0  0  0  0  0  0  0  0  0
   -2.2908    0.7932   -0.5853 C   0  0  0  0  0  0  0  0  0  0  0  0
   -2.4302    1.0686   -1.8041 O   0  0  0  0  0  0  0  0  0  0  0  0
   -1.1401    0.2038   -0.0653 O   0  0  0  0  0  0  0  0  0  0  0  0
   -0.1034   -0.0831   -0.9806 C   0  0  0  0  0  0  0  0  0  0  0  0
    1.0420   -0.6946   -0.3231 C   0  0  0  0  0  0  0  0  0  0  0  0
    1.9842   -1.2199    0.2150 C   0  0  0  0  0  0  0  0  0  0  0  0
    3.1280   -1.8864    0.8821 C   0  0  0  0  0  0  0  0  0  0  0  0
    4.3332   -1.2870    0.5398 O   0  0  0  0  0  0  0  0  0  0  0  0
   -3.1971    2.0225    0.9296 H   0  0  0  0  0  0  0  0  0  0  0  0
   -3.5773    0.2934    1.0534 H   0  0  0  0  0  0  0  0  0  0  0  0
   -4.3804    1.2193   -0.2413 H   0  0  0  0  0  0  0  0  0  0  0  0
    0.1806    0.8909   -1.4678 H   0  0  0  0  0  0  0  0  0  0  0  0
   -0.5437   -0.7490   -1.7588 H   0  0  0  0  0  0  0  0  0  0  0  0
    3.1718   -2.9575    0.5482 H   0  0  0  0  0  0  0  0  0  0  0  0
    2.9584   -1.8609    1.9629 H   0  0  0  0  0  0  0  0  0  0  0  0
    4.3098   -0.3256    0.7806 H   0  0  0  0  0  0  0  0  0  0  0  0
  1  2  1  0
  2  3  2  0
  2  4  1  0
  4  5  1  0
  5  6  1  0
  6  7  3  0
  7  8  1  0
  8  9  1  0
  1 10  1  0
  1 11  1  0
  1 12  1  0
  5 13  1  0
  5 14  1  0
  8 15  1  0
  8 16  1  0
  9 17  1  0
M  END
