
     RDKit          3D

 21 20  0  0  0  0  0  0  0  0999 V2000
   -1.3622    1.7836    0.2215 C   0  0  0  0  0  0  0  0  0  0  0  0
   -1.1051    0.4855   -0.4224 C   0  0  0  0  0  0  0  0  0  0  0  0
   -1.9314    0.1871   -1.3141 O   0  0  0  0  0  0  0  0  0  0  0  0
   -0.0385   -0.4713   -0.1577 C   0  0  0  0  0  0  0  0  0  0  0  0
   -0.2523   -1.7474   -1.0064 C   0  0  0  0  0  0  0  0  0  0  0  0
   -0.1236   -0.9701    1.2944 C   0  0  0  0  0  0  0  0  0  0  0  0
    1.3579   -0.0410   -0.4511 C   0  0  0  0  0  0  0  0  0  0  0  0
    1.8544    1.1311    0.2787 C   0  0  0  0  0  0  0  0  0  0  0  0
    1.4615    2.2417    0.0041 O   0  0  0  0  0  0  0  0  0  0  0  0
   -0.9300    1.9350    1.2049 H   0  0  0  0  0  0  0  0  0  0  0  0
   -2.4878    1.8932    0.3889 H   0  0  0  0  0  0  0  0  0  0  0  0
   -1.1548    2.5850   -0.5327 H   0  0  0  0  0  0  0  0  0  0  0  0
    0.3345   -1.6351   -1.9242 H   0  0  0  0  0  0  0  0  0  0  0  0
   -0.0331   -2.6652   -0.4314 H   0  0  0  0  0  0  0  0  0  0  0  0
   -1.3166   -1.7533   -1.2877 H   0  0  0  0  0  0  0  0  0  0  0  0
    0.3406   -0.1842    1.9159 H   0  0  0  0  0  0  0  0  0  0  0  0
    0.4513   -1.8941    1.3476 H   0  0  0  0  0  0  0  0  0  0  0  0
   -1.2000   -1.1082    1.5091 H   0  0  0  0  0  0  0  0  0  0  0  0
    1.4970    0.0690   -1.5649 H   0  0  0  0  0  0  0  0  0  0  0  0
    2.0430   -0.9014   -0.1704 H   0  0  0  0  0  0  0  0  0  0  0  0
    2.5951    1.0601    1.0979 H   0  0  0  0  0  0  0  0  0  0  0  0
  1  2  1  0
  2  3  2  0
  2  4  1  0
  4  5  1  0
  4  6  1  0
  4  7  1  0
  7  8  1  0
  8  9  2  0
  1 10  1  0
  1 11  1  0
  1 12  1  0
  5 13  1  0
  5 14  1  0
  5 15  1  0
  6 16  1  0
  6 17  1  0
  6 18  1  0
  7 19  1  0
  7 20  1  0
  8 21  1  0
M  END
