
     RDKit          3D

 23 23  0  0  0  0  0  0  0  0999 V2000
    2.4715    1.3544   -0.0018 C   0  0  0  0  0  0  0  0  0  0  0  0
    1.0708    0.9117   -0.1785 C   0  0  0  0  0  0  0  0  0  0  0  0
    0.2983    1.6586   -0.7320 O   0  0  0  0  0  0  0  0  0  0  0  0
    0.6390   -0.3906    0.3039 C   0  0  0  0  0  0  0  0  0  0  0  0
    1.4082   -1.5315   -0.3368 C   0  0  0  0  0  0  0  0  0  0  0  0
   -0.8110   -0.6852    0.1951 C   0  0  0  0  0  0  0  0  0  0  0  0
   -1.7488    0.2381    0.9323 C   0  0  0  0  0  0  0  0  0  0  0  0
   -2.4619    0.5515   -0.3503 C   0  0  0  0  0  0  0  0  0  0  0  0
   -1.5294   -0.3790   -1.0718 C   0  0  0  0  0  0  0  0  0  0  0  0
    2.8147    2.0050   -0.8359 H   0  0  0  0  0  0  0  0  0  0  0  0
    3.1934    0.5227    0.0752 H   0  0  0  0  0  0  0  0  0  0  0  0
    2.6079    1.9594    0.9324 H   0  0  0  0  0  0  0  0  0  0  0  0
    0.9014   -0.4441    1.4022 H   0  0  0  0  0  0  0  0  0  0  0  0
    1.6417   -1.3134   -1.4093 H   0  0  0  0  0  0  0  0  0  0  0  0
    0.8006   -2.4616   -0.2715 H   0  0  0  0  0  0  0  0  0  0  0  0
    2.3463   -1.7192    0.2258 H   0  0  0  0  0  0  0  0  0  0  0  0
   -0.9977   -1.7428    0.5266 H   0  0  0  0  0  0  0  0  0  0  0  0
   -2.4096   -0.2605    1.6698 H   0  0  0  0  0  0  0  0  0  0  0  0
   -1.1775    1.0764    1.3703 H   0  0  0  0  0  0  0  0  0  0  0  0
   -3.5419    0.2284   -0.3246 H   0  0  0  0  0  0  0  0  0  0  0  0
   -2.4487    1.6113   -0.6756 H   0  0  0  0  0  0  0  0  0  0  0  0
   -2.1309   -1.2543   -1.4610 H   0  0  0  0  0  0  0  0  0  0  0  0
   -0.9367    0.0648   -1.8996 H   0  0  0  0  0  0  0  0  0  0  0  0
  1  2  1  0
  2  3  2  0
  2  4  1  0
  4  5  1  0
  4  6  1  0
  6  7  1  0
  7  8  1  0
  8  9  1  0
  9  6  1  0
  1 10  1  0
  1 11  1  0
  1 12  1  0
  4 13  1  0
  5 14  1  0
  5 15  1  0
  5 16  1  0
  6 17  1  0
  7 18  1  0
  7 19  1  0
  8 20  1  0
  8 21  1  0
  9 22  1  0
  9 23  1  0
M  END
