
     RDKit          3D

 17 18  0  0  0  0  0  0  0  0999 V2000
    2.0762    0.6853   -0.0528 C   0  0  0  0  0  0  0  0  0  0  0  0
    1.1688   -0.4525   -0.2672 C   0  0  0  0  0  0  0  0  0  0  0  0
    1.6936   -1.5606   -0.3994 O   0  0  0  0  0  0  0  0  0  0  0  0
   -0.2913   -0.3782   -0.3358 C   0  0  0  0  0  0  0  0  0  0  0  0
   -1.0708   -1.6416   -0.5616 C   0  0  0  0  0  0  0  0  0  0  0  0
   -1.8433   -1.3808    0.5482 O   0  0  0  0  0  0  0  0  0  0  0  0
   -1.1518   -0.2243    0.8533 C   0  0  0  0  0  0  0  0  0  0  0  0
   -1.0566    0.8659   -0.2280 C   0  0  0  0  0  0  0  0  0  0  0  0
   -0.5318    2.0448    0.2387 O   0  0  0  0  0  0  0  0  0  0  0  0
    3.0896    0.4735   -0.4999 H   0  0  0  0  0  0  0  0  0  0  0  0
    2.2641    0.7565    1.0462 H   0  0  0  0  0  0  0  0  0  0  0  0
    1.6727    1.6438   -0.4562 H   0  0  0  0  0  0  0  0  0  0  0  0
   -1.6826   -1.5614   -1.5031 H   0  0  0  0  0  0  0  0  0  0  0  0
   -0.4343   -2.5451   -0.5018 H   0  0  0  0  0  0  0  0  0  0  0  0
   -0.7815   -0.0137    1.8500 H   0  0  0  0  0  0  0  0  0  0  0  0
   -2.0326    0.9565   -0.7599 H   0  0  0  0  0  0  0  0  0  0  0  0
   -1.0883    2.3316    1.0294 H   0  0  0  0  0  0  0  0  0  0  0  0
  1  2  1  0
  2  3  2  0
  2  4  1  0
  4  5  1  0
  5  6  1  0
  6  7  1  0
  7  8  1  0
  8  9  1  0
  7  4  1  0
  8  4  1  0
  1 10  1  0
  1 11  1  0
  1 12  1  0
  5 13  1  0
  5 14  1  0
  7 15  1  0
  8 16  1  0
  9 17  1  0
M  END
