
     RDKit          3D

 17 17  0  0  0  0  0  0  0  0999 V2000
    3.2103    0.0871    0.1348 C   0  0  0  0  0  0  0  0  0  0  0  0
    1.8254    0.5256   -0.1603 C   0  0  0  0  0  0  0  0  0  0  0  0
    1.6590    1.7412   -0.3266 O   0  0  0  0  0  0  0  0  0  0  0  0
    0.6659   -0.3809   -0.2639 C   0  0  0  0  0  0  0  0  0  0  0  0
   -0.0865   -0.1099   -1.4781 O   0  0  0  0  0  0  0  0  0  0  0  0
   -0.6522    0.1546   -0.1057 C   0  0  0  0  0  0  0  0  0  0  0  0
   -1.8846   -0.6219    0.0364 C   0  0  0  0  0  0  0  0  0  0  0  0
   -3.1856    0.0511    0.3376 C   0  0  0  0  0  0  0  0  0  0  0  0
   -1.8696   -1.8358   -0.0892 O   0  0  0  0  0  0  0  0  0  0  0  0
    3.4605    0.4189    1.1617 H   0  0  0  0  0  0  0  0  0  0  0  0
    3.9530    0.4928   -0.5833 H   0  0  0  0  0  0  0  0  0  0  0  0
    3.2485   -1.0353    0.0410 H   0  0  0  0  0  0  0  0  0  0  0  0
    0.8967   -1.4530   -0.1023 H   0  0  0  0  0  0  0  0  0  0  0  0
   -0.7561    1.2685    0.0258 H   0  0  0  0  0  0  0  0  0  0  0  0
   -4.0518   -0.5222   -0.0224 H   0  0  0  0  0  0  0  0  0  0  0  0
   -3.2365    0.1528    1.4408 H   0  0  0  0  0  0  0  0  0  0  0  0
   -3.1964    1.0662   -0.1522 H   0  0  0  0  0  0  0  0  0  0  0  0
  1  2  1  0
  2  3  2  0
  2  4  1  0
  4  5  1  0
  5  6  1  0
  6  7  1  0
  7  8  1  0
  7  9  2  0
  6  4  1  0
  1 10  1  0
  1 11  1  0
  1 12  1  0
  4 13  1  0
  6 14  1  0
  8 15  1  0
  8 16  1  0
  8 17  1  0
M  END
