
     RDKit          3D

 21 21  0  0  0  0  0  0  0  0999 V2000
    2.7236   -0.0459   -0.3106 C   0  0  0  0  0  0  0  0  0  0  0  0
    1.3701    0.5757   -0.3958 C   0  0  0  0  0  0  0  0  0  0  0  0
    1.2138    1.5406   -1.1238 O   0  0  0  0  0  0  0  0  0  0  0  0
    0.2116    0.0600    0.3739 C   0  0  0  0  0  0  0  0  0  0  0  0
   -0.0820   -1.3666    0.0081 C   0  0  0  0  0  0  0  0  0  0  0  0
   -1.2266   -1.2304   -0.9550 C   0  0  0  0  0  0  0  0  0  0  0  0
   -1.8456   -0.0405   -0.7209 O   0  0  0  0  0  0  0  0  0  0  0  0
   -1.0367    0.7774    0.0116 C   0  0  0  0  0  0  0  0  0  0  0  0
   -1.8074    1.3051    1.1938 C   0  0  0  0  0  0  0  0  0  0  0  0
    3.4492    0.4843   -0.9576 H   0  0  0  0  0  0  0  0  0  0  0  0
    2.7066   -1.1231   -0.5896 H   0  0  0  0  0  0  0  0  0  0  0  0
    3.0948    0.0702    0.7331 H   0  0  0  0  0  0  0  0  0  0  0  0
    0.4530    0.0804    1.4540 H   0  0  0  0  0  0  0  0  0  0  0  0
   -0.3163   -2.0068    0.8651 H   0  0  0  0  0  0  0  0  0  0  0  0
    0.7791   -1.7897   -0.5586 H   0  0  0  0  0  0  0  0  0  0  0  0
   -0.8676   -1.2437   -2.0095 H   0  0  0  0  0  0  0  0  0  0  0  0
   -1.9584   -2.0615   -0.8165 H   0  0  0  0  0  0  0  0  0  0  0  0
   -0.7837    1.6674   -0.6239 H   0  0  0  0  0  0  0  0  0  0  0  0
   -1.1485    1.6382    2.0276 H   0  0  0  0  0  0  0  0  0  0  0  0
   -2.3958    2.1902    0.8663 H   0  0  0  0  0  0  0  0  0  0  0  0
   -2.5333    0.5186    1.5286 H   0  0  0  0  0  0  0  0  0  0  0  0
  1  2  1  0
  2  3  2  0
  2  4  1  0
  4  5  1  0
  5  6  1  0
  6  7  1  0
  7  8  1  0
  8  9  1  0
  8  4  1  0
  1 10  1  0
  1 11  1  0
  1 12  1  0
  4 13  1  0
  5 14  1  0
  5 15  1  0
  6 16  1  0
  6 17  1  0
  8 18  1  0
  9 19  1  0
  9 20  1  0
  9 21  1  0
M  END
