
     RDKit          3D

 21 20  0  0  0  0  0  0  0  0999 V2000
    3.2984    0.0958   -0.2650 C   0  0  0  0  0  0  0  0  0  0  0  0
    1.8292   -0.0449   -0.4662 C   0  0  0  0  0  0  0  0  0  0  0  0
    1.3958    0.1325   -1.5921 O   0  0  0  0  0  0  0  0  0  0  0  0
    1.0010   -0.3863    0.6971 C   0  0  0  0  0  0  0  0  0  0  0  0
   -0.4582   -0.5059    0.4002 C   0  0  0  0  0  0  0  0  0  0  0  0
   -0.6523   -1.5026   -0.5460 O   0  0  0  0  0  0  0  0  0  0  0  0
   -1.0953    0.7467   -0.0934 C   0  0  0  0  0  0  0  0  0  0  0  0
   -2.5734    0.4369   -0.3413 C   0  0  0  0  0  0  0  0  0  0  0  0
   -3.1488    0.0243    0.8588 O   0  0  0  0  0  0  0  0  0  0  0  0
    3.8696   -0.0845   -1.2035 H   0  0  0  0  0  0  0  0  0  0  0  0
    3.6896   -0.6576    0.4726 H   0  0  0  0  0  0  0  0  0  0  0  0
    3.5075    1.0812    0.1772 H   0  0  0  0  0  0  0  0  0  0  0  0
    1.2138    0.3304    1.5171 H   0  0  0  0  0  0  0  0  0  0  0  0
    1.3456   -1.3794    1.0723 H   0  0  0  0  0  0  0  0  0  0  0  0
   -0.9705   -0.8045    1.3388 H   0  0  0  0  0  0  0  0  0  0  0  0
   -0.6672   -1.1135   -1.4681 H   0  0  0  0  0  0  0  0  0  0  0  0
   -1.0461    1.5276    0.6877 H   0  0  0  0  0  0  0  0  0  0  0  0
   -0.6625    1.1545   -1.0121 H   0  0  0  0  0  0  0  0  0  0  0  0
   -2.6574   -0.4411   -1.0402 H   0  0  0  0  0  0  0  0  0  0  0  0
   -3.0953    1.2694   -0.8192 H   0  0  0  0  0  0  0  0  0  0  0  0
   -4.1236    0.1213    0.8798 H   0  0  0  0  0  0  0  0  0  0  0  0
  1  2  1  0
  2  3  2  0
  2  4  1  0
  4  5  1  0
  5  6  1  0
  5  7  1  0
  7  8  1  0
  8  9  1  0
  1 10  1  0
  1 11  1  0
  1 12  1  0
  4 13  1  0
  4 14  1  0
  5 15  1  0
  6 16  1  0
  7 17  1  0
  7 18  1  0
  8 19  1  0
  8 20  1  0
  9 21  1  0
M  END
