
     RDKit          3D

 23 22  0  0  0  0  0  0  0  0999 V2000
    4.0210    0.3787    0.6652 C   0  0  0  0  0  0  0  0  0  0  0  0
    2.6633   -0.2083    0.3935 C   0  0  0  0  0  0  0  0  0  0  0  0
    2.3095   -1.2419    0.9753 O   0  0  0  0  0  0  0  0  0  0  0  0
    1.8154    0.3896   -0.4909 O   0  0  0  0  0  0  0  0  0  0  0  0
    0.5209   -0.0390   -0.8441 C   0  0  0  0  0  0  0  0  0  0  0  0
   -0.3384   -0.0380    0.3717 C   0  0  0  0  0  0  0  0  0  0  0  0
   -1.7594   -0.4836    0.0915 C   0  0  0  0  0  0  0  0  0  0  0  0
   -2.4472    0.3982   -0.9036 C   0  0  0  0  0  0  0  0  0  0  0  0
   -2.5165   -0.3285    1.4182 C   0  0  0  0  0  0  0  0  0  0  0  0
    3.9136    1.4443    0.9253 H   0  0  0  0  0  0  0  0  0  0  0  0
    4.6241    0.2896   -0.2747 H   0  0  0  0  0  0  0  0  0  0  0  0
    4.5022   -0.1844    1.4969 H   0  0  0  0  0  0  0  0  0  0  0  0
    0.5776   -1.0277   -1.3479 H   0  0  0  0  0  0  0  0  0  0  0  0
    0.1437    0.6957   -1.6070 H   0  0  0  0  0  0  0  0  0  0  0  0
    0.0793   -0.6853    1.1478 H   0  0  0  0  0  0  0  0  0  0  0  0
   -0.4217    1.0316    0.7125 H   0  0  0  0  0  0  0  0  0  0  0  0
   -1.8239   -1.5575   -0.1648 H   0  0  0  0  0  0  0  0  0  0  0  0
   -2.6576   -0.1442   -1.8680 H   0  0  0  0  0  0  0  0  0  0  0  0
   -1.8470    1.3118   -1.0875 H   0  0  0  0  0  0  0  0  0  0  0  0
   -3.4522    0.7466   -0.5444 H   0  0  0  0  0  0  0  0  0  0  0  0
   -2.0622   -1.0162    2.1567 H   0  0  0  0  0  0  0  0  0  0  0  0
   -3.5955   -0.4422    1.2919 H   0  0  0  0  0  0  0  0  0  0  0  0
   -2.2492    0.7105    1.7686 H   0  0  0  0  0  0  0  0  0  0  0  0
  1  2  1  0
  2  3  2  0
  2  4  1  0
  4  5  1  0
  5  6  1  0
  6  7  1  0
  7  8  1  0
  7  9  1  0
  1 10  1  0
  1 11  1  0
  1 12  1  0
  5 13  1  0
  5 14  1  0
  6 15  1  0
  6 16  1  0
  7 17  1  0
  8 18  1  0
  8 19  1  0
  8 20  1  0
  9 21  1  0
  9 22  1  0
  9 23  1  0
M  END
