
     RDKit          3D

 19 19  0  0  0  0  0  0  0  0999 V2000
    3.1733   -0.3034    0.1519 C   0  0  0  0  0  0  0  0  0  0  0  0
    1.7574   -0.6179   -0.1669 C   0  0  0  0  0  0  0  0  0  0  0  0
    1.3984   -1.7891   -0.4761 O   0  0  0  0  0  0  0  0  0  0  0  0
    0.7472    0.4420   -0.1258 C   0  0  0  0  0  0  0  0  0  0  0  0
    1.0828    1.6157    0.1797 O   0  0  0  0  0  0  0  0  0  0  0  0
   -0.6579    0.1784   -0.4322 C   0  0  0  0  0  0  0  0  0  0  0  0
   -1.3262   -0.8563    0.4887 C   0  0  0  0  0  0  0  0  0  0  0  0
   -2.5721    0.0247    0.3557 C   0  0  0  0  0  0  0  0  0  0  0  0
   -1.5755    1.1853    0.2319 C   0  0  0  0  0  0  0  0  0  0  0  0
    3.5830   -1.0207    0.8890 H   0  0  0  0  0  0  0  0  0  0  0  0
    3.7248   -0.3387   -0.8174 H   0  0  0  0  0  0  0  0  0  0  0  0
    3.2197    0.6940    0.6185 H   0  0  0  0  0  0  0  0  0  0  0  0
   -0.9246    0.0443   -1.4934 H   0  0  0  0  0  0  0  0  0  0  0  0
   -0.8938   -0.7815    1.5082 H   0  0  0  0  0  0  0  0  0  0  0  0
   -1.4143   -1.8514    0.0602 H   0  0  0  0  0  0  0  0  0  0  0  0
   -3.2131    0.0589    1.2310 H   0  0  0  0  0  0  0  0  0  0  0  0
   -3.0326   -0.1569   -0.6223 H   0  0  0  0  0  0  0  0  0  0  0  0
   -1.1638    1.4563    1.2451 H   0  0  0  0  0  0  0  0  0  0  0  0
   -1.9126    2.0163   -0.3837 H   0  0  0  0  0  0  0  0  0  0  0  0
  1  2  1  0
  2  3  2  0
  2  4  1  0
  4  5  2  0
  4  6  1  0
  6  7  1  0
  7  8  1  0
  8  9  1  0
  9  6  1  0
  1 10  1  0
  1 11  1  0
  1 12  1  0
  6 13  1  0
  7 14  1  0
  7 15  1  0
  8 16  1  0
  8 17  1  0
  9 18  1  0
  9 19  1  0
M  END
