
     RDKit          3D

 16 16  0  0  0  0  0  0  0  0999 V2000
    3.2371   -0.6206    0.2838 C   0  0  0  0  0  0  0  0  0  0  0  0
    2.3392    0.5164   -0.1269 C   0  0  0  0  0  0  0  0  0  0  0  0
    2.8382    1.4388   -0.8063 O   0  0  0  0  0  0  0  0  0  0  0  0
    0.9542    0.5240    0.2591 C   0  0  0  0  0  0  0  0  0  0  0  0
   -0.2134    0.5349    0.6062 C   0  0  0  0  0  0  0  0  0  0  0  0
   -1.6161    0.5325    1.0318 C   0  0  0  0  0  0  0  0  0  0  0  0
   -2.3749   -0.7410    0.7691 C   0  0  0  0  0  0  0  0  0  0  0  0
   -2.6516    0.5606    0.0086 C   0  0  0  0  0  0  0  0  0  0  0  0
    3.5619   -0.5358    1.3214 H   0  0  0  0  0  0  0  0  0  0  0  0
    4.1300   -0.6512   -0.3716 H   0  0  0  0  0  0  0  0  0  0  0  0
    2.6653   -1.5543    0.1010 H   0  0  0  0  0  0  0  0  0  0  0  0
   -1.8066    1.0847    1.9693 H   0  0  0  0  0  0  0  0  0  0  0  0
   -3.1124   -1.1081    1.4776 H   0  0  0  0  0  0  0  0  0  0  0  0
   -1.8520   -1.5303    0.1760 H   0  0  0  0  0  0  0  0  0  0  0  0
   -2.4482    0.5541   -1.0793 H   0  0  0  0  0  0  0  0  0  0  0  0
   -3.6507    0.9955    0.2549 H   0  0  0  0  0  0  0  0  0  0  0  0
  1  2  1  0
  2  3  2  0
  2  4  1  0
  4  5  3  0
  5  6  1  0
  6  7  1  0
  7  8  1  0
  8  6  1  0
  1  9  1  0
  1 10  1  0
  1 11  1  0
  6 12  1  0
  7 13  1  0
  7 14  1  0
  8 15  1  0
  8 16  1  0
M  END
