
     RDKit          3D

 17 17  0  0  0  0  0  0  0  0999 V2000
    2.6749    0.8965   -0.2511 C   0  0  0  0  0  0  0  0  0  0  0  0
    1.3659    0.2510    0.0566 C   0  0  0  0  0  0  0  0  0  0  0  0
    1.0016    0.3102    1.2739 O   0  0  0  0  0  0  0  0  0  0  0  0
    0.5496   -0.4028   -0.9420 C   0  0  0  0  0  0  0  0  0  0  0  0
    0.9443   -0.4386   -2.1269 O   0  0  0  0  0  0  0  0  0  0  0  0
   -0.7193   -1.0096   -0.5541 C   0  0  0  0  0  0  0  0  0  0  0  0
   -1.9674   -0.2689   -0.9566 C   0  0  0  0  0  0  0  0  0  0  0  0
   -1.9697    0.0668    0.5198 C   0  0  0  0  0  0  0  0  0  0  0  0
   -0.9794   -0.8682    0.7849 O   0  0  0  0  0  0  0  0  0  0  0  0
    2.5765    1.8991   -0.6716 H   0  0  0  0  0  0  0  0  0  0  0  0
    3.3252    0.9324    0.6475 H   0  0  0  0  0  0  0  0  0  0  0  0
    3.1690    0.2253   -1.0062 H   0  0  0  0  0  0  0  0  0  0  0  0
   -0.7456   -2.0725   -0.9185 H   0  0  0  0  0  0  0  0  0  0  0  0
   -2.8046   -0.9742   -1.1790 H   0  0  0  0  0  0  0  0  0  0  0  0
   -1.8403    0.5709   -1.6427 H   0  0  0  0  0  0  0  0  0  0  0  0
   -2.9107   -0.2399    1.0513 H   0  0  0  0  0  0  0  0  0  0  0  0
   -1.6702    1.1225    0.7208 H   0  0  0  0  0  0  0  0  0  0  0  0
  1  2  1  0
  2  3  2  0
  2  4  1  0
  4  5  2  0
  4  6  1  0
  6  7  1  0
  7  8  1  0
  8  9  1  0
  9  6  1  0
  1 10  1  0
  1 11  1  0
  1 12  1  0
  6 13  1  0
  7 14  1  0
  7 15  1  0
  8 16  1  0
  8 17  1  0
M  END
