
     RDKit          3D

 21 21  0  0  0  0  0  0  0  0999 V2000
    2.9193   -0.4039   -0.8639 C   0  0  0  0  0  0  0  0  0  0  0  0
    1.5204   -0.0944   -1.2417 C   0  0  0  0  0  0  0  0  0  0  0  0
    1.1163   -0.4069   -2.3394 O   0  0  0  0  0  0  0  0  0  0  0  0
    0.6718    0.5937   -0.2403 C   0  0  0  0  0  0  0  0  0  0  0  0
   -0.6980    0.8482   -0.7295 C   0  0  0  0  0  0  0  0  0  0  0  0
   -1.5873    0.2355    0.0261 C   0  0  0  0  0  0  0  0  0  0  0  0
   -3.0623    0.2635   -0.1611 C   0  0  0  0  0  0  0  0  0  0  0  0
   -0.9206   -0.5122    1.1252 C   0  0  0  0  0  0  0  0  0  0  0  0
    0.5466   -0.2621    0.9944 C   0  0  0  0  0  0  0  0  0  0  0  0
    3.3586    0.4407   -0.2633 H   0  0  0  0  0  0  0  0  0  0  0  0
    2.9528   -1.2994   -0.2043 H   0  0  0  0  0  0  0  0  0  0  0  0
    3.5447   -0.5546   -1.7774 H   0  0  0  0  0  0  0  0  0  0  0  0
    1.1805    1.5413    0.0807 H   0  0  0  0  0  0  0  0  0  0  0  0
   -0.9150    1.4598   -1.5952 H   0  0  0  0  0  0  0  0  0  0  0  0
   -3.5883   -0.4084    0.5137 H   0  0  0  0  0  0  0  0  0  0  0  0
   -3.3315   -0.0407   -1.2125 H   0  0  0  0  0  0  0  0  0  0  0  0
   -3.3744    1.3267   -0.0689 H   0  0  0  0  0  0  0  0  0  0  0  0
   -1.3024   -0.1567    2.1046 H   0  0  0  0  0  0  0  0  0  0  0  0
   -1.1321   -1.5885    0.9511 H   0  0  0  0  0  0  0  0  0  0  0  0
    1.1435   -1.2158    0.8908 H   0  0  0  0  0  0  0  0  0  0  0  0
    0.9574    0.2340    1.9053 H   0  0  0  0  0  0  0  0  0  0  0  0
  1  2  1  0
  2  3  2  0
  2  4  1  0
  4  5  1  0
  5  6  2  0
  6  7  1  0
  6  8  1  0
  8  9  1  0
  9  4  1  0
  1 10  1  0
  1 11  1  0
  1 12  1  0
  4 13  1  0
  5 14  1  0
  7 15  1  0
  7 16  1  0
  7 17  1  0
  8 18  1  0
  8 19  1  0
  9 20  1  0
  9 21  1  0
M  END
