
     RDKit          3D

 21 22  0  0  0  0  0  0  0  0999 V2000
    2.2592   -0.6598    0.7290 C   0  0  0  0  0  0  0  0  0  0  0  0
    1.4673    0.2773   -0.1536 C   0  0  0  0  0  0  0  0  0  0  0  0
    2.0969    1.1977   -0.6139 O   0  0  0  0  0  0  0  0  0  0  0  0
    0.0447    0.0936   -0.4395 C   0  0  0  0  0  0  0  0  0  0  0  0
   -0.4945    1.2121   -1.2737 C   0  0  0  0  0  0  0  0  0  0  0  0
   -0.4974    1.9244    0.0955 C   0  0  0  0  0  0  0  0  0  0  0  0
   -1.0719    0.6234    0.5067 C   0  0  0  0  0  0  0  0  0  0  0  0
   -0.6258   -0.7212    0.5378 C   0  0  0  0  0  0  0  0  0  0  0  0
   -1.3826   -1.9207   -0.0585 C   0  0  0  0  0  0  0  0  0  0  0  0
    3.2503   -0.7855    0.2986 H   0  0  0  0  0  0  0  0  0  0  0  0
    1.6833   -1.6313    0.6806 H   0  0  0  0  0  0  0  0  0  0  0  0
    2.2870   -0.2865    1.7781 H   0  0  0  0  0  0  0  0  0  0  0  0
    0.2086    1.6101   -1.9949 H   0  0  0  0  0  0  0  0  0  0  0  0
   -1.5501    1.1168   -1.5913 H   0  0  0  0  0  0  0  0  0  0  0  0
    0.4454    2.2502    0.4891 H   0  0  0  0  0  0  0  0  0  0  0  0
   -1.2134    2.7733    0.1222 H   0  0  0  0  0  0  0  0  0  0  0  0
   -2.1318    0.6187    0.0573 H   0  0  0  0  0  0  0  0  0  0  0  0
   -0.1126   -1.0542    1.4811 H   0  0  0  0  0  0  0  0  0  0  0  0
   -0.6770   -2.4783   -0.7164 H   0  0  0  0  0  0  0  0  0  0  0  0
   -2.2547   -1.5519   -0.6439 H   0  0  0  0  0  0  0  0  0  0  0  0
   -1.7310   -2.6081    0.7094 H   0  0  0  0  0  0  0  0  0  0  0  0
  1  2  1  0
  2  3  2  0
  2  4  1  0
  4  5  1  0
  5  6  1  0
  6  7  1  0
  7  8  1  0
  8  9  1  0
  7  4  1  0
  8  4  1  0
  1 10  1  0
  1 11  1  0
  1 12  1  0
  5 13  1  0
  5 14  1  0
  6 15  1  0
  6 16  1  0
  7 17  1  0
  8 18  1  0
  9 19  1  0
  9 20  1  0
  9 21  1  0
M  END
