
     RDKit          3D

 19 18  0  0  0  0  0  0  0  0999 V2000
   -3.2501    0.3463   -0.5252 C   0  0  0  0  0  0  0  0  0  0  0  0
   -2.1940   -0.5444    0.0682 C   0  0  0  0  0  0  0  0  0  0  0  0
   -2.4736   -1.3660    0.9264 O   0  0  0  0  0  0  0  0  0  0  0  0
   -0.7991   -0.3855   -0.4311 C   0  0  0  0  0  0  0  0  0  0  0  0
   -0.0470    0.4781    0.5395 C   0  0  0  0  0  0  0  0  0  0  0  0
    1.2843    0.7275    0.2128 O   0  0  0  0  0  0  0  0  0  0  0  0
    2.2363   -0.2548    0.0696 C   0  0  0  0  0  0  0  0  0  0  0  0
    3.6687    0.0548   -0.2867 C   0  0  0  0  0  0  0  0  0  0  0  0
    1.8724   -1.4482    0.2483 O   0  0  0  0  0  0  0  0  0  0  0  0
   -4.2481    0.1375   -0.1414 H   0  0  0  0  0  0  0  0  0  0  0  0
   -2.9922    1.4026   -0.3057 H   0  0  0  0  0  0  0  0  0  0  0  0
   -3.1726    0.2471   -1.6384 H   0  0  0  0  0  0  0  0  0  0  0  0
   -0.8148    0.1166   -1.4073 H   0  0  0  0  0  0  0  0  0  0  0  0
   -0.3026   -1.3769   -0.5711 H   0  0  0  0  0  0  0  0  0  0  0  0
   -0.1807    0.0365    1.5520 H   0  0  0  0  0  0  0  0  0  0  0  0
   -0.5667    1.4793    0.5562 H   0  0  0  0  0  0  0  0  0  0  0  0
    3.6845    0.8170   -1.0663 H   0  0  0  0  0  0  0  0  0  0  0  0
    4.1620   -0.8963   -0.5471 H   0  0  0  0  0  0  0  0  0  0  0  0
    4.1335    0.4289    0.6484 H   0  0  0  0  0  0  0  0  0  0  0  0
  1  2  1  0
  2  3  2  0
  2  4  1  0
  4  5  1  0
  5  6  1  0
  6  7  1  0
  7  8  1  0
  7  9  2  0
  1 10  1  0
  1 11  1  0
  1 12  1  0
  4 13  1  0
  4 14  1  0
  5 15  1  0
  5 16  1  0
  8 17  1  0
  8 18  1  0
  8 19  1  0
M  END
