
     RDKit          3D

 18 18  0  0  0  0  0  0  0  0999 V2000
    3.1047   -0.0446   -0.2397 C   0  0  0  0  0  0  0  0  0  0  0  0
    1.7644    0.5711   -0.2729 C   0  0  0  0  0  0  0  0  0  0  0  0
    1.6458    1.7232   -0.5870 O   0  0  0  0  0  0  0  0  0  0  0  0
    0.5955   -0.2555    0.0847 C   0  0  0  0  0  0  0  0  0  0  0  0
   -0.7044    0.5142    0.0036 C   0  0  0  0  0  0  0  0  0  0  0  0
   -1.8077   -0.4073    0.3811 C   0  0  0  0  0  0  0  0  0  0  0  0
   -3.1871   -0.0672    0.4283 C   0  0  0  0  0  0  0  0  0  0  0  0
   -2.6488   -0.7093   -0.8002 O   0  0  0  0  0  0  0  0  0  0  0  0
    3.0988   -1.0615    0.2187 H   0  0  0  0  0  0  0  0  0  0  0  0
    3.4752   -0.1995   -1.2944 H   0  0  0  0  0  0  0  0  0  0  0  0
    3.8615    0.5646    0.2952 H   0  0  0  0  0  0  0  0  0  0  0  0
    0.6542   -0.6454    1.1377 H   0  0  0  0  0  0  0  0  0  0  0  0
    0.5730   -1.1329   -0.5683 H   0  0  0  0  0  0  0  0  0  0  0  0
   -0.8330    1.0014   -0.9877 H   0  0  0  0  0  0  0  0  0  0  0  0
   -0.6401    1.3429    0.7369 H   0  0  0  0  0  0  0  0  0  0  0  0
   -1.4775   -1.3581    0.8633 H   0  0  0  0  0  0  0  0  0  0  0  0
   -3.5782    0.9440    0.2117 H   0  0  0  0  0  0  0  0  0  0  0  0
   -3.8965   -0.7801    0.8817 H   0  0  0  0  0  0  0  0  0  0  0  0
  1  2  1  0
  2  3  2  0
  2  4  1  0
  4  5  1  0
  5  6  1  0
  6  7  1  0
  7  8  1  0
  8  6  1  0
  1  9  1  0
  1 10  1  0
  1 11  1  0
  4 12  1  0
  4 13  1  0
  5 14  1  0
  5 15  1  0
  6 16  1  0
  7 17  1  0
  7 18  1  0
M  END
