
     RDKit          3D

 16 16  0  0  0  0  0  0  0  0999 V2000
   -2.3928    0.4539   -0.1255 C   0  0  0  0  0  0  0  0  0  0  0  0
   -0.9427    0.2957   -0.5213 C   0  0  0  0  0  0  0  0  0  0  0  0
   -0.4963    0.9095   -1.4423 O   0  0  0  0  0  0  0  0  0  0  0  0
   -0.0970   -0.6270    0.2501 C   0  0  0  0  0  0  0  0  0  0  0  0
    1.0733   -1.3380   -0.2991 C   0  0  0  0  0  0  0  0  0  0  0  0
    1.2431   -0.1567    0.6752 C   0  0  0  0  0  0  0  0  0  0  0  0
    1.9419    1.0218    0.1491 C   0  0  0  0  0  0  0  0  0  0  0  0
    1.8978    1.3958   -0.9894 O   0  0  0  0  0  0  0  0  0  0  0  0
   -2.5279    0.2553    0.9561 H   0  0  0  0  0  0  0  0  0  0  0  0
   -3.0283   -0.2589   -0.6803 H   0  0  0  0  0  0  0  0  0  0  0  0
   -2.6635    1.5118   -0.2915 H   0  0  0  0  0  0  0  0  0  0  0  0
   -0.7016   -1.1699    1.0340 H   0  0  0  0  0  0  0  0  0  0  0  0
    1.4137   -1.1379   -1.3383 H   0  0  0  0  0  0  0  0  0  0  0  0
    1.2770   -2.3481    0.0959 H   0  0  0  0  0  0  0  0  0  0  0  0
    1.4520   -0.4212    1.7667 H   0  0  0  0  0  0  0  0  0  0  0  0
    2.5513    1.6138    0.8299 H   0  0  0  0  0  0  0  0  0  0  0  0
  1  2  1  0
  2  3  2  0
  2  4  1  0
  4  5  1  0
  5  6  1  0
  6  7  1  0
  7  8  2  0
  6  4  1  0
  1  9  1  0
  1 10  1  0
  1 11  1  0
  4 12  1  0
  5 13  1  0
  5 14  1  0
  6 15  1  0
  7 16  1  0
M  END
