
     RDKit          3D

 18 18  0  0  0  0  0  0  0  0999 V2000
    2.1167    0.0294    0.2380 C   0  0  0  0  0  0  0  0  0  0  0  0
    1.0084   -0.2905   -0.6815 C   0  0  0  0  0  0  0  0  0  0  0  0
    1.2007   -0.7706   -1.7673 O   0  0  0  0  0  0  0  0  0  0  0  0
   -0.3654   -0.0026   -0.2296 C   0  0  0  0  0  0  0  0  0  0  0  0
   -0.5851    1.4539    0.0761 C   0  0  0  0  0  0  0  0  0  0  0  0
   -1.4713   -0.6199   -1.0457 C   0  0  0  0  0  0  0  0  0  0  0  0
   -1.4729   -1.6893   -0.1648 O   0  0  0  0  0  0  0  0  0  0  0  0
   -0.7826   -0.9714    0.8375 C   0  0  0  0  0  0  0  0  0  0  0  0
    3.1034   -0.2142   -0.1991 H   0  0  0  0  0  0  0  0  0  0  0  0
    1.9686   -0.5019    1.2179 H   0  0  0  0  0  0  0  0  0  0  0  0
    2.0248    1.1142    0.4937 H   0  0  0  0  0  0  0  0  0  0  0  0
   -0.2503    1.6994    1.0876 H   0  0  0  0  0  0  0  0  0  0  0  0
    0.0874    2.0253   -0.6270 H   0  0  0  0  0  0  0  0  0  0  0  0
   -1.6097    1.7804   -0.1678 H   0  0  0  0  0  0  0  0  0  0  0  0
   -2.3872   -0.0094   -0.9514 H   0  0  0  0  0  0  0  0  0  0  0  0
   -1.1765   -0.8185   -2.0766 H   0  0  0  0  0  0  0  0  0  0  0  0
   -1.4187   -0.5838    1.6372 H   0  0  0  0  0  0  0  0  0  0  0  0
    0.0096   -1.6305    1.2377 H   0  0  0  0  0  0  0  0  0  0  0  0
  1  2  1  0
  2  3  2  0
  2  4  1  0
  4  5  1  0
  4  6  1  0
  6  7  1  0
  7  8  1  0
  8  4  1  0
  1  9  1  0
  1 10  1  0
  1 11  1  0
  5 12  1  0
  5 13  1  0
  5 14  1  0
  6 15  1  0
  6 16  1  0
  8 17  1  0
  8 18  1  0
M  END
