
     RDKit          3D

 19 18  0  0  0  0  0  0  0  0999 V2000
    2.0174    0.8097   -0.0218 C   0  0  0  0  0  0  0  0  0  0  0  0
    1.1281   -0.3484    0.0857 C   0  0  0  0  0  0  0  0  0  0  0  0
    1.6494   -1.4722    0.0356 O   0  0  0  0  0  0  0  0  0  0  0  0
   -0.3282   -0.3344    0.2486 C   0  0  0  0  0  0  0  0  0  0  0  0
   -0.7934   -1.0441    1.5032 C   0  0  0  0  0  0  0  0  0  0  0  0
   -1.0265   -1.0503   -0.9211 C   0  0  0  0  0  0  0  0  0  0  0  0
   -0.9000    0.9569    0.2858 O   0  0  0  0  0  0  0  0  0  0  0  0
   -0.8391    1.8937   -0.7083 C   0  0  0  0  0  0  0  0  0  0  0  0
   -0.2315    1.6100   -1.7559 O   0  0  0  0  0  0  0  0  0  0  0  0
    2.3471    0.9755   -1.0737 H   0  0  0  0  0  0  0  0  0  0  0  0
    1.5629    1.7628    0.3117 H   0  0  0  0  0  0  0  0  0  0  0  0
    2.9727    0.6878    0.5485 H   0  0  0  0  0  0  0  0  0  0  0  0
    0.0418   -1.5401    2.0358 H   0  0  0  0  0  0  0  0  0  0  0  0
   -1.2533   -0.3476    2.2382 H   0  0  0  0  0  0  0  0  0  0  0  0
   -1.5543   -1.8254    1.3046 H   0  0  0  0  0  0  0  0  0  0  0  0
   -0.4056   -0.8222   -1.8101 H   0  0  0  0  0  0  0  0  0  0  0  0
   -1.0346   -2.1214   -0.6688 H   0  0  0  0  0  0  0  0  0  0  0  0
   -2.0238   -0.6354   -1.1087 H   0  0  0  0  0  0  0  0  0  0  0  0
   -1.3290    2.8450   -0.5292 H   0  0  0  0  0  0  0  0  0  0  0  0
  1  2  1  0
  2  3  2  0
  2  4  1  0
  4  5  1  0
  4  6  1  0
  4  7  1  0
  7  8  1  0
  8  9  2  0
  1 10  1  0
  1 11  1  0
  1 12  1  0
  5 13  1  0
  5 14  1  0
  5 15  1  0
  6 16  1  0
  6 17  1  0
  6 18  1  0
  8 19  1  0
M  END
