
     RDKit          3D

 21 20  0  0  0  0  0  0  0  0999 V2000
   -3.7350    0.2999   -0.2993 C   0  0  0  0  0  0  0  0  0  0  0  0
   -2.3132    0.6702   -0.5478 C   0  0  0  0  0  0  0  0  0  0  0  0
   -2.1043    1.5623   -1.3454 O   0  0  0  0  0  0  0  0  0  0  0  0
   -1.2714   -0.0690    0.1883 C   0  0  0  0  0  0  0  0  0  0  0  0
    0.0099    0.3336   -0.0980 O   0  0  0  0  0  0  0  0  0  0  0  0
    0.8883   -0.4343    0.6540 C   0  0  0  0  0  0  0  0  0  0  0  0
    2.3297   -0.0700    0.4126 C   0  0  0  0  0  0  0  0  0  0  0  0
    2.6606   -0.3775   -1.0384 C   0  0  0  0  0  0  0  0  0  0  0  0
    2.6245    1.2330    0.7187 O   0  0  0  0  0  0  0  0  0  0  0  0
   -4.1211   -0.4138   -1.0555 H   0  0  0  0  0  0  0  0  0  0  0  0
   -3.8384   -0.1975    0.7110 H   0  0  0  0  0  0  0  0  0  0  0  0
   -4.3501    1.2199   -0.2231 H   0  0  0  0  0  0  0  0  0  0  0  0
   -1.3698   -1.1533   -0.0915 H   0  0  0  0  0  0  0  0  0  0  0  0
   -1.5214   -0.0236    1.2675 H   0  0  0  0  0  0  0  0  0  0  0  0
    0.6618   -0.2907    1.7452 H   0  0  0  0  0  0  0  0  0  0  0  0
    0.7061   -1.4908    0.4137 H   0  0  0  0  0  0  0  0  0  0  0  0
    2.9792   -0.7281    1.0238 H   0  0  0  0  0  0  0  0  0  0  0  0
    2.6885   -1.4677   -1.2233 H   0  0  0  0  0  0  0  0  0  0  0  0
    3.6710    0.0528   -1.2917 H   0  0  0  0  0  0  0  0  0  0  0  0
    1.8669    0.0353   -1.6987 H   0  0  0  0  0  0  0  0  0  0  0  0
    3.5382    1.3093    1.1299 H   0  0  0  0  0  0  0  0  0  0  0  0
  1  2  1  0
  2  3  2  0
  2  4  1  0
  4  5  1  0
  5  6  1  0
  6  7  1  0
  7  8  1  0
  7  9  1  0
  1 10  1  0
  1 11  1  0
  1 12  1  0
  4 13  1  0
  4 14  1  0
  6 15  1  0
  6 16  1  0
  7 17  1  0
  8 18  1  0
  8 19  1  0
  8 20  1  0
  9 21  1  0
M  END
