
     RDKit          3D

 16 16  0  0  0  0  0  0  0  0999 V2000
    2.1777    0.3237   -0.4503 C   0  0  0  0  0  0  0  0  0  0  0  0
    1.3693   -0.6078    0.3325 C   0  0  0  0  0  0  0  0  0  0  0  0
    1.8600   -1.2387    1.2461 O   0  0  0  0  0  0  0  0  0  0  0  0
   -0.0661   -0.8094    0.0365 C   0  0  0  0  0  0  0  0  0  0  0  0
   -0.9076   -0.3712    1.1736 C   0  0  0  0  0  0  0  0  0  0  0  0
   -1.8484    0.4136    0.6818 C   0  0  0  0  0  0  0  0  0  0  0  0
   -1.6654    0.5259   -0.8077 C   0  0  0  0  0  0  0  0  0  0  0  0
   -0.4107    0.0065   -1.0378 O   0  0  0  0  0  0  0  0  0  0  0  0
    3.2086   -0.0513   -0.6495 H   0  0  0  0  0  0  0  0  0  0  0  0
    1.7332    0.5889   -1.4310 H   0  0  0  0  0  0  0  0  0  0  0  0
    2.3095    1.3033    0.0949 H   0  0  0  0  0  0  0  0  0  0  0  0
   -0.1997   -1.8836   -0.2000 H   0  0  0  0  0  0  0  0  0  0  0  0
   -0.7942   -0.6281    2.2040 H   0  0  0  0  0  0  0  0  0  0  0  0
   -2.6257    0.8979    1.2569 H   0  0  0  0  0  0  0  0  0  0  0  0
   -1.6866    1.5811   -1.1134 H   0  0  0  0  0  0  0  0  0  0  0  0
   -2.4540   -0.0508   -1.3365 H   0  0  0  0  0  0  0  0  0  0  0  0
  1  2  1  0
  2  3  2  0
  2  4  1  0
  4  5  1  0
  5  6  2  0
  6  7  1  0
  7  8  1  0
  8  4  1  0
  1  9  1  0
  1 10  1  0
  1 11  1  0
  4 12  1  0
  5 13  1  0
  6 14  1  0
  7 15  1  0
  7 16  1  0
M  END
