
     RDKit          3D

 23 22  0  0  0  0  0  0  0  0999 V2000
    2.2448   -0.9920    0.8461 C   0  0  0  0  0  0  0  0  0  0  0  0
    1.4697    0.2690    0.7554 C   0  0  0  0  0  0  0  0  0  0  0  0
    1.8898    1.2177    1.3855 O   0  0  0  0  0  0  0  0  0  0  0  0
    0.2313    0.4528   -0.0411 C   0  0  0  0  0  0  0  0  0  0  0  0
    0.5982    0.1654   -1.4816 C   0  0  0  0  0  0  0  0  0  0  0  0
   -0.2060    1.8810    0.0260 C   0  0  0  0  0  0  0  0  0  0  0  0
   -0.7873   -0.5052    0.5010 C   0  0  0  0  0  0  0  0  0  0  0  0
   -2.1121   -0.4525   -0.1957 C   0  0  0  0  0  0  0  0  0  0  0  0
   -2.9414   -1.3921    0.4179 O   0  0  0  0  0  0  0  0  0  0  0  0
    2.1815   -1.6032   -0.0752 H   0  0  0  0  0  0  0  0  0  0  0  0
    1.9371   -1.5844    1.7470 H   0  0  0  0  0  0  0  0  0  0  0  0
    3.3188   -0.7572    0.9955 H   0  0  0  0  0  0  0  0  0  0  0  0
    1.0792   -0.8103   -1.6155 H   0  0  0  0  0  0  0  0  0  0  0  0
   -0.2510    0.3477   -2.1793 H   0  0  0  0  0  0  0  0  0  0  0  0
    1.3747    0.9314   -1.7548 H   0  0  0  0  0  0  0  0  0  0  0  0
   -0.1813    2.3986   -0.9682 H   0  0  0  0  0  0  0  0  0  0  0  0
    0.4741    2.5027    0.6771 H   0  0  0  0  0  0  0  0  0  0  0  0
   -1.2219    2.0219    0.4268 H   0  0  0  0  0  0  0  0  0  0  0  0
   -0.4024   -1.5195    0.4593 H   0  0  0  0  0  0  0  0  0  0  0  0
   -0.9538   -0.2407    1.5643 H   0  0  0  0  0  0  0  0  0  0  0  0
   -2.6251    0.5362   -0.0569 H   0  0  0  0  0  0  0  0  0  0  0  0
   -2.0297   -0.6799   -1.2823 H   0  0  0  0  0  0  0  0  0  0  0  0
   -3.0869   -2.1874   -0.1513 H   0  0  0  0  0  0  0  0  0  0  0  0
  1  2  1  0
  2  3  2  0
  2  4  1  0
  4  5  1  0
  4  6  1  0
  4  7  1  0
  7  8  1  0
  8  9  1  0
  1 10  1  0
  1 11  1  0
  1 12  1  0
  5 13  1  0
  5 14  1  0
  5 15  1  0
  6 16  1  0
  6 17  1  0
  6 18  1  0
  7 19  1  0
  7 20  1  0
  8 21  1  0
  8 22  1  0
  9 23  1  0
M  END
