
     RDKit          3D

 21 21  0  0  0  0  0  0  0  0999 V2000
    2.5686    0.5859   -0.6707 C   0  0  0  0  0  0  0  0  0  0  0  0
    2.1265   -0.6410   -0.0052 C   0  0  0  0  0  0  0  0  0  0  0  0
    3.0312   -1.3314    0.4809 O   0  0  0  0  0  0  0  0  0  0  0  0
    0.7691   -1.1568    0.1596 C   0  0  0  0  0  0  0  0  0  0  0  0
   -0.3436   -0.3054   -0.3358 C   0  0  0  0  0  0  0  0  0  0  0  0
   -1.6110   -1.0835   -0.0494 C   0  0  0  0  0  0  0  0  0  0  0  0
   -2.5813   -0.2717    0.3219 C   0  0  0  0  0  0  0  0  0  0  0  0
   -2.0759    1.0974    0.3204 C   0  0  0  0  0  0  0  0  0  0  0  0
   -0.5836    0.9305    0.5080 C   0  0  0  0  0  0  0  0  0  0  0  0
    1.8083    1.2058   -1.1275 H   0  0  0  0  0  0  0  0  0  0  0  0
    3.1928    1.2202    0.0225 H   0  0  0  0  0  0  0  0  0  0  0  0
    3.2534    0.2927   -1.5231 H   0  0  0  0  0  0  0  0  0  0  0  0
    0.7214   -2.1120   -0.4512 H   0  0  0  0  0  0  0  0  0  0  0  0
    0.5580   -1.5104    1.1991 H   0  0  0  0  0  0  0  0  0  0  0  0
   -0.3118   -0.1279   -1.4028 H   0  0  0  0  0  0  0  0  0  0  0  0
   -1.7148   -2.1596   -0.1344 H   0  0  0  0  0  0  0  0  0  0  0  0
   -3.6115   -0.5051    0.5990 H   0  0  0  0  0  0  0  0  0  0  0  0
   -2.5247    1.7506    1.0928 H   0  0  0  0  0  0  0  0  0  0  0  0
   -2.2230    1.5001   -0.7074 H   0  0  0  0  0  0  0  0  0  0  0  0
   -0.3083    0.7660    1.5495 H   0  0  0  0  0  0  0  0  0  0  0  0
   -0.1399    1.8555    0.0621 H   0  0  0  0  0  0  0  0  0  0  0  0
  1  2  1  0
  2  3  2  0
  2  4  1  0
  4  5  1  0
  5  6  1  0
  6  7  2  0
  7  8  1  0
  8  9  1  0
  9  5  1  0
  1 10  1  0
  1 11  1  0
  1 12  1  0
  4 13  1  0
  4 14  1  0
  5 15  1  0
  6 16  1  0
  7 17  1  0
  8 18  1  0
  8 19  1  0
  9 20  1  0
  9 21  1  0
M  END
