
     RDKit          3D

 23 23  0  0  0  0  0  0  0  0999 V2000
   -2.4833    1.4143    0.5156 C   0  0  0  0  0  0  0  0  0  0  0  0
   -1.4375    0.9335   -0.4088 C   0  0  0  0  0  0  0  0  0  0  0  0
   -1.3396    1.5038   -1.4834 O   0  0  0  0  0  0  0  0  0  0  0  0
   -0.5145   -0.1769   -0.1234 C   0  0  0  0  0  0  0  0  0  0  0  0
   -1.1770   -1.5142    0.1367 C   0  0  0  0  0  0  0  0  0  0  0  0
    0.5835   -0.3319   -1.1551 C   0  0  0  0  0  0  0  0  0  0  0  0
    1.5440   -0.5789   -0.0121 C   0  0  0  0  0  0  0  0  0  0  0  0
    2.8790    0.1020   -0.1503 C   0  0  0  0  0  0  0  0  0  0  0  0
    0.5613    0.1069    0.8975 C   0  0  0  0  0  0  0  0  0  0  0  0
   -3.4687    1.0369    0.1328 H   0  0  0  0  0  0  0  0  0  0  0  0
   -2.3046    1.1200    1.5660 H   0  0  0  0  0  0  0  0  0  0  0  0
   -2.5238    2.5247    0.4276 H   0  0  0  0  0  0  0  0  0  0  0  0
   -1.9081   -1.3521    0.9539 H   0  0  0  0  0  0  0  0  0  0  0  0
   -0.4188   -2.2187    0.5010 H   0  0  0  0  0  0  0  0  0  0  0  0
   -1.6391   -1.8347   -0.8132 H   0  0  0  0  0  0  0  0  0  0  0  0
    0.4221   -1.1958   -1.8329 H   0  0  0  0  0  0  0  0  0  0  0  0
    0.7941    0.6347   -1.6548 H   0  0  0  0  0  0  0  0  0  0  0  0
    1.6709   -1.6494    0.1686 H   0  0  0  0  0  0  0  0  0  0  0  0
    3.5049   -0.2259    0.7015 H   0  0  0  0  0  0  0  0  0  0  0  0
    2.7838    1.2147   -0.1905 H   0  0  0  0  0  0  0  0  0  0  0  0
    3.3381   -0.2193   -1.1128 H   0  0  0  0  0  0  0  0  0  0  0  0
    0.7601    1.1717    1.1070 H   0  0  0  0  0  0  0  0  0  0  0  0
    0.3734   -0.4654    1.8292 H   0  0  0  0  0  0  0  0  0  0  0  0
  1  2  1  0
  2  3  2  0
  2  4  1  0
  4  5  1  0
  4  6  1  0
  6  7  1  0
  7  8  1  0
  7  9  1  0
  9  4  1  0
  1 10  1  0
  1 11  1  0
  1 12  1  0
  5 13  1  0
  5 14  1  0
  5 15  1  0
  6 16  1  0
  6 17  1  0
  7 18  1  0
  8 19  1  0
  8 20  1  0
  8 21  1  0
  9 22  1  0
  9 23  1  0
M  END
