
     RDKit          3D

 21 21  0  0  0  0  0  0  0  0999 V2000
    2.9909    0.3131    0.2030 C   0  0  0  0  0  0  0  0  0  0  0  0
    1.7256   -0.4614    0.1484 C   0  0  0  0  0  0  0  0  0  0  0  0
    1.6626   -1.4349    0.9043 O   0  0  0  0  0  0  0  0  0  0  0  0
    0.5920   -0.1429   -0.7220 C   0  0  0  0  0  0  0  0  0  0  0  0
   -0.5605   -1.1117   -0.5580 C   0  0  0  0  0  0  0  0  0  0  0  0
   -1.5071   -0.0062   -0.1943 C   0  0  0  0  0  0  0  0  0  0  0  0
   -2.0725   -0.0763    1.2153 C   0  0  0  0  0  0  0  0  0  0  0  0
   -2.5174    0.2541   -1.0938 O   0  0  0  0  0  0  0  0  0  0  0  0
   -0.3284    0.9539   -0.2475 C   0  0  0  0  0  0  0  0  0  0  0  0
    3.2734    0.4515    1.2867 H   0  0  0  0  0  0  0  0  0  0  0  0
    2.9101    1.3051   -0.2563 H   0  0  0  0  0  0  0  0  0  0  0  0
    3.7884   -0.3214   -0.2343 H   0  0  0  0  0  0  0  0  0  0  0  0
    0.8148    0.0023   -1.7956 H   0  0  0  0  0  0  0  0  0  0  0  0
   -0.8608   -1.6402   -1.4781 H   0  0  0  0  0  0  0  0  0  0  0  0
   -0.3934   -1.8708    0.2469 H   0  0  0  0  0  0  0  0  0  0  0  0
   -3.1597   -0.2872    1.2172 H   0  0  0  0  0  0  0  0  0  0  0  0
   -1.9190    0.9232    1.6693 H   0  0  0  0  0  0  0  0  0  0  0  0
   -1.5720   -0.8408    1.8103 H   0  0  0  0  0  0  0  0  0  0  0  0
   -2.2659    0.8273   -1.8421 H   0  0  0  0  0  0  0  0  0  0  0  0
   -0.5395    1.7541   -0.9967 H   0  0  0  0  0  0  0  0  0  0  0  0
   -0.0617    1.4094    0.7172 H   0  0  0  0  0  0  0  0  0  0  0  0
  1  2  1  0
  2  3  2  0
  2  4  1  0
  4  5  1  0
  5  6  1  0
  6  7  1  0
  6  8  1  0
  6  9  1  0
  9  4  1  0
  1 10  1  0
  1 11  1  0
  1 12  1  0
  4 13  1  0
  5 14  1  0
  5 15  1  0
  7 16  1  0
  7 17  1  0
  7 18  1  0
  8 19  1  0
  9 20  1  0
  9 21  1  0
M  END
