
     RDKit          3D

 21 21  0  0  0  0  0  0  0  0999 V2000
   -3.3766   -0.0395   -0.1637 C   0  0  0  0  0  0  0  0  0  0  0  0
   -2.2467   -0.5691    0.6409 C   0  0  0  0  0  0  0  0  0  0  0  0
   -2.4179   -1.0498    1.7489 O   0  0  0  0  0  0  0  0  0  0  0  0
   -0.8346   -0.5384    0.1289 C   0  0  0  0  0  0  0  0  0  0  0  0
   -0.1717    0.6492    0.8157 C   0  0  0  0  0  0  0  0  0  0  0  0
    1.2489    0.7054    0.3219 C   0  0  0  0  0  0  0  0  0  0  0  0
    1.1856    0.8826   -1.1687 O   0  0  0  0  0  0  0  0  0  0  0  0
    1.8419   -0.2545   -0.5684 C   0  0  0  0  0  0  0  0  0  0  0  0
    3.3282   -0.2142   -0.7748 C   0  0  0  0  0  0  0  0  0  0  0  0
   -3.3389   -0.4616   -1.1882 H   0  0  0  0  0  0  0  0  0  0  0  0
   -4.3174   -0.3289    0.3400 H   0  0  0  0  0  0  0  0  0  0  0  0
   -3.2962    1.0751   -0.1822 H   0  0  0  0  0  0  0  0  0  0  0  0
   -0.3091   -1.4770    0.4504 H   0  0  0  0  0  0  0  0  0  0  0  0
   -0.7798   -0.3621   -0.9488 H   0  0  0  0  0  0  0  0  0  0  0  0
   -0.6750    1.5751    0.4432 H   0  0  0  0  0  0  0  0  0  0  0  0
   -0.2581    0.6142    1.8975 H   0  0  0  0  0  0  0  0  0  0  0  0
    1.9149    1.5119    0.7380 H   0  0  0  0  0  0  0  0  0  0  0  0
    1.3281   -1.1936   -0.8472 H   0  0  0  0  0  0  0  0  0  0  0  0
    3.6348    0.5281   -1.5675 H   0  0  0  0  0  0  0  0  0  0  0  0
    3.7449   -1.1851   -1.1242 H   0  0  0  0  0  0  0  0  0  0  0  0
    3.7948    0.1322    0.1629 H   0  0  0  0  0  0  0  0  0  0  0  0
  1  2  1  0
  2  3  2  0
  2  4  1  0
  4  5  1  0
  5  6  1  0
  6  7  1  0
  7  8  1  0
  8  9  1  0
  8  6  1  0
  1 10  1  0
  1 11  1  0
  1 12  1  0
  4 13  1  0
  4 14  1  0
  5 15  1  0
  5 16  1  0
  6 17  1  0
  8 18  1  0
  9 19  1  0
  9 20  1  0
  9 21  1  0
M  END
