
     RDKit          3D

 21 21  0  0  0  0  0  0  0  0999 V2000
   -0.4306    0.8200   -1.2079 C   0  0  0  0  0  0  0  0  0  0  0  0
    0.0568   -0.0072   -0.0227 C   0  0  0  0  0  0  0  0  0  0  0  0
    0.3617    0.9668    1.0825 C   0  0  0  0  0  0  0  0  0  0  0  0
    1.2512   -0.8419   -0.3800 C   0  0  0  0  0  0  0  0  0  0  0  0
    2.4274   -0.1053   -0.8370 C   0  0  0  0  0  0  0  0  0  0  0  0
    3.2120    0.3885   -0.0581 O   0  0  0  0  0  0  0  0  0  0  0  0
   -1.0699   -0.9485    0.3456 C   0  0  0  0  0  0  0  0  0  0  0  0
   -2.3685   -0.5241    0.7481 C   0  0  0  0  0  0  0  0  0  0  0  0
   -1.4443   -0.9765    1.7048 O   0  0  0  0  0  0  0  0  0  0  0  0
   -1.3160    1.3885   -0.8360 H   0  0  0  0  0  0  0  0  0  0  0  0
   -0.6450    0.2069   -2.0922 H   0  0  0  0  0  0  0  0  0  0  0  0
    0.3583    1.5893   -1.4013 H   0  0  0  0  0  0  0  0  0  0  0  0
    1.4303    0.8500    1.3479 H   0  0  0  0  0  0  0  0  0  0  0  0
    0.2212    2.0443    0.7614 H   0  0  0  0  0  0  0  0  0  0  0  0
   -0.3022    0.8325    1.9628 H   0  0  0  0  0  0  0  0  0  0  0  0
    0.9625   -1.5868   -1.1650 H   0  0  0  0  0  0  0  0  0  0  0  0
    1.4758   -1.4809    0.5213 H   0  0  0  0  0  0  0  0  0  0  0  0
    2.6090    0.0061   -1.8799 H   0  0  0  0  0  0  0  0  0  0  0  0
   -0.9389   -1.9709   -0.0575 H   0  0  0  0  0  0  0  0  0  0  0  0
   -2.6209    0.5491    0.8454 H   0  0  0  0  0  0  0  0  0  0  0  0
   -3.2300   -1.2000    0.6179 H   0  0  0  0  0  0  0  0  0  0  0  0
  1  2  1  0
  2  3  1  0
  2  4  1  0
  4  5  1  0
  5  6  2  0
  2  7  1  0
  7  8  1  0
  8  9  1  0
  9  7  1  0
  1 10  1  0
  1 11  1  0
  1 12  1  0
  3 13  1  0
  3 14  1  0
  3 15  1  0
  4 16  1  0
  4 17  1  0
  5 18  1  0
  7 19  1  0
  8 20  1  0
  8 21  1  0
M  END
