
     RDKit          3D

 23 23  0  0  0  0  0  0  0  0999 V2000
   -2.2825   -1.0868   -0.0125 C   0  0  0  0  0  0  0  0  0  0  0  0
   -1.4256    0.1019   -0.3567 C   0  0  0  0  0  0  0  0  0  0  0  0
   -1.9209    1.3159    0.4435 C   0  0  0  0  0  0  0  0  0  0  0  0
    0.0096   -0.1288   -0.1642 C   0  0  0  0  0  0  0  0  0  0  0  0
    0.8214   -0.0912   -1.2174 C   0  0  0  0  0  0  0  0  0  0  0  0
    2.2657   -0.3356   -0.9396 C   0  0  0  0  0  0  0  0  0  0  0  0
    2.6293    0.4493    0.2748 C   0  0  0  0  0  0  0  0  0  0  0  0
    1.8136    0.2978    1.3555 O   0  0  0  0  0  0  0  0  0  0  0  0
    0.6521   -0.4095    1.1480 C   0  0  0  0  0  0  0  0  0  0  0  0
   -2.1663   -1.4198    1.0369 H   0  0  0  0  0  0  0  0  0  0  0  0
   -3.3439   -0.7784   -0.1194 H   0  0  0  0  0  0  0  0  0  0  0  0
   -2.1031   -1.9149   -0.7210 H   0  0  0  0  0  0  0  0  0  0  0  0
   -1.6448    0.3586   -1.4136 H   0  0  0  0  0  0  0  0  0  0  0  0
   -1.6306    1.2492    1.5016 H   0  0  0  0  0  0  0  0  0  0  0  0
   -3.0286    1.3192    0.2961 H   0  0  0  0  0  0  0  0  0  0  0  0
   -1.5320    2.2045   -0.0821 H   0  0  0  0  0  0  0  0  0  0  0  0
    0.4124    0.1089   -2.2003 H   0  0  0  0  0  0  0  0  0  0  0  0
    2.8953    0.0117   -1.7795 H   0  0  0  0  0  0  0  0  0  0  0  0
    2.4055   -1.4245   -0.7637 H   0  0  0  0  0  0  0  0  0  0  0  0
    2.6175    1.5432   -0.0081 H   0  0  0  0  0  0  0  0  0  0  0  0
    3.7116    0.2570    0.5286 H   0  0  0  0  0  0  0  0  0  0  0  0
   -0.0328   -0.1327    2.0021 H   0  0  0  0  0  0  0  0  0  0  0  0
    0.8771   -1.4950    1.1762 H   0  0  0  0  0  0  0  0  0  0  0  0
  1  2  1  0
  2  3  1  0
  2  4  1  0
  4  5  2  0
  5  6  1  0
  6  7  1  0
  7  8  1  0
  8  9  1  0
  9  4  1  0
  1 10  1  0
  1 11  1  0
  1 12  1  0
  2 13  1  0
  3 14  1  0
  3 15  1  0
  3 16  1  0
  5 17  1  0
  6 18  1  0
  6 19  1  0
  7 20  1  0
  7 21  1  0
  9 22  1  0
  9 23  1  0
M  END
