
     RDKit          3D

 21 20  0  0  0  0  0  0  0  0999 V2000
   -0.5447    1.3345   -0.2689 C   0  0  0  0  0  0  0  0  0  0  0  0
   -0.6817   -0.0323    0.3772 C   0  0  0  0  0  0  0  0  0  0  0  0
   -1.4384   -0.9055   -0.5656 C   0  0  0  0  0  0  0  0  0  0  0  0
   -1.5511    0.1501    1.5746 C   0  0  0  0  0  0  0  0  0  0  0  0
   -2.2793    1.1057    1.7450 O   0  0  0  0  0  0  0  0  0  0  0  0
    0.6314   -0.5294    0.8383 C   0  0  0  0  0  0  0  0  0  0  0  0
    1.1352    0.3811    1.7727 O   0  0  0  0  0  0  0  0  0  0  0  0
    1.6714   -0.7144   -0.2176 C   0  0  0  0  0  0  0  0  0  0  0  0
    1.9884    0.4773   -0.8723 O   0  0  0  0  0  0  0  0  0  0  0  0
    0.3532    1.8714    0.0579 H   0  0  0  0  0  0  0  0  0  0  0  0
   -0.5339    1.2676   -1.3844 H   0  0  0  0  0  0  0  0  0  0  0  0
   -1.4137    1.9820   -0.0178 H   0  0  0  0  0  0  0  0  0  0  0  0
   -1.7702   -1.8273   -0.0152 H   0  0  0  0  0  0  0  0  0  0  0  0
   -2.3788   -0.3706   -0.8252 H   0  0  0  0  0  0  0  0  0  0  0  0
   -0.9378   -1.1243   -1.5088 H   0  0  0  0  0  0  0  0  0  0  0  0
   -1.5300   -0.6171    2.3366 H   0  0  0  0  0  0  0  0  0  0  0  0
    0.5305   -1.4929    1.3822 H   0  0  0  0  0  0  0  0  0  0  0  0
    1.7556    1.0289    1.3553 H   0  0  0  0  0  0  0  0  0  0  0  0
    2.6187   -1.0830    0.2284 H   0  0  0  0  0  0  0  0  0  0  0  0
    1.4066   -1.4382   -1.0039 H   0  0  0  0  0  0  0  0  0  0  0  0
    2.9687    0.5364   -1.0615 H   0  0  0  0  0  0  0  0  0  0  0  0
  1  2  1  0
  2  3  1  0
  2  4  1  0
  4  5  2  0
  2  6  1  0
  6  7  1  0
  6  8  1  0
  8  9  1  0
  1 10  1  0
  1 11  1  0
  1 12  1  0
  3 13  1  0
  3 14  1  0
  3 15  1  0
  4 16  1  0
  6 17  1  0
  7 18  1  0
  8 19  1  0
  8 20  1  0
  9 21  1  0
M  END
