
     RDKit          3D

 23 24  0  0  0  0  0  0  0  0999 V2000
    1.6664   -1.2544    0.1169 C   0  0  0  0  0  0  0  0  0  0  0  0
    0.9863    0.0952    0.2377 C   0  0  0  0  0  0  0  0  0  0  0  0
    1.4525    0.9145   -0.9103 C   0  0  0  0  0  0  0  0  0  0  0  0
   -0.4978   -0.0407    0.3670 C   0  0  0  0  0  0  0  0  0  0  0  0
   -0.8533   -0.8484    1.5999 C   0  0  0  0  0  0  0  0  0  0  0  0
   -1.3039    1.2054    0.3254 C   0  0  0  0  0  0  0  0  0  0  0  0
   -1.7469    0.8307   -1.0559 C   0  0  0  0  0  0  0  0  0  0  0  0
   -2.4906   -0.3134   -1.1356 O   0  0  0  0  0  0  0  0  0  0  0  0
   -1.1548   -0.5189   -0.8750 C   0  0  0  0  0  0  0  0  0  0  0  0
    1.5389   -1.8853    1.0013 H   0  0  0  0  0  0  0  0  0  0  0  0
    2.7644   -1.0229   -0.0088 H   0  0  0  0  0  0  0  0  0  0  0  0
    1.3838   -1.7596   -0.8394 H   0  0  0  0  0  0  0  0  0  0  0  0
    1.3595    0.5680    1.1738 H   0  0  0  0  0  0  0  0  0  0  0  0
    0.9515    1.8915   -1.0226 H   0  0  0  0  0  0  0  0  0  0  0  0
    1.3908    0.2938   -1.8305 H   0  0  0  0  0  0  0  0  0  0  0  0
    2.5314    1.1362   -0.7618 H   0  0  0  0  0  0  0  0  0  0  0  0
   -0.4134   -1.8585    1.5932 H   0  0  0  0  0  0  0  0  0  0  0  0
   -0.4907   -0.3432    2.5220 H   0  0  0  0  0  0  0  0  0  0  0  0
   -1.9792   -0.9179    1.6441 H   0  0  0  0  0  0  0  0  0  0  0  0
   -2.2072    1.2230    1.0040 H   0  0  0  0  0  0  0  0  0  0  0  0
   -0.7765    2.1626    0.4401 H   0  0  0  0  0  0  0  0  0  0  0  0
   -1.5354    1.4624   -1.9234 H   0  0  0  0  0  0  0  0  0  0  0  0
   -0.5757   -1.0201   -1.6621 H   0  0  0  0  0  0  0  0  0  0  0  0
  1  2  1  0
  2  3  1  0
  2  4  1  0
  4  5  1  0
  4  6  1  0
  6  7  1  0
  7  8  1  0
  8  9  1  0
  9  4  1  0
  9  7  1  0
  1 10  1  0
  1 11  1  0
  1 12  1  0
  2 13  1  0
  3 14  1  0
  3 15  1  0
  3 16  1  0
  5 17  1  0
  5 18  1  0
  5 19  1  0
  6 20  1  0
  6 21  1  0
  7 22  1  0
  9 23  1  0
M  END
