
     RDKit          3D

 25 25  0  0  0  0  0  0  0  0999 V2000
   -1.3038    0.5971    1.3712 C   0  0  0  0  0  0  0  0  0  0  0  0
   -1.3365    0.5480   -0.1108 C   0  0  0  0  0  0  0  0  0  0  0  0
   -2.4368   -0.4294   -0.5131 C   0  0  0  0  0  0  0  0  0  0  0  0
   -0.0661    0.0707   -0.7568 C   0  0  0  0  0  0  0  0  0  0  0  0
    0.3242   -1.3124   -0.3469 C   0  0  0  0  0  0  0  0  0  0  0  0
    1.8059   -1.2866   -0.0589 C   0  0  0  0  0  0  0  0  0  0  0  0
    2.1891    0.1478    0.1197 C   0  0  0  0  0  0  0  0  0  0  0  0
    1.0992    0.9750   -0.5516 C   0  0  0  0  0  0  0  0  0  0  0  0
    0.8387    2.0535    0.2854 O   0  0  0  0  0  0  0  0  0  0  0  0
   -0.3101    0.7190    1.8223 H   0  0  0  0  0  0  0  0  0  0  0  0
   -1.9147    1.4627    1.7077 H   0  0  0  0  0  0  0  0  0  0  0  0
   -1.8167   -0.3027    1.8228 H   0  0  0  0  0  0  0  0  0  0  0  0
   -1.5431    1.5648   -0.5137 H   0  0  0  0  0  0  0  0  0  0  0  0
   -2.9370    0.0139   -1.3909 H   0  0  0  0  0  0  0  0  0  0  0  0
   -1.9909   -1.4287   -0.7706 H   0  0  0  0  0  0  0  0  0  0  0  0
   -3.1555   -0.6069    0.3060 H   0  0  0  0  0  0  0  0  0  0  0  0
   -0.2748    0.0452   -1.8662 H   0  0  0  0  0  0  0  0  0  0  0  0
    0.0662   -2.0565   -1.1282 H   0  0  0  0  0  0  0  0  0  0  0  0
   -0.2356   -1.5521    0.5887 H   0  0  0  0  0  0  0  0  0  0  0  0
    1.9762   -1.8952    0.8782 H   0  0  0  0  0  0  0  0  0  0  0  0
    2.3975   -1.7837   -0.8584 H   0  0  0  0  0  0  0  0  0  0  0  0
    2.2679    0.3672    1.2042 H   0  0  0  0  0  0  0  0  0  0  0  0
    3.1580    0.3486   -0.4199 H   0  0  0  0  0  0  0  0  0  0  0  0
    1.4792    1.4144   -1.5100 H   0  0  0  0  0  0  0  0  0  0  0  0
    1.7194    2.3262    0.6898 H   0  0  0  0  0  0  0  0  0  0  0  0
  1  2  1  0
  2  3  1  0
  2  4  1  0
  4  5  1  0
  5  6  1  0
  6  7  1  0
  7  8  1  0
  8  9  1  0
  8  4  1  0
  1 10  1  0
  1 11  1  0
  1 12  1  0
  2 13  1  0
  3 14  1  0
  3 15  1  0
  3 16  1  0
  4 17  1  0
  5 18  1  0
  5 19  1  0
  6 20  1  0
  6 21  1  0
  7 22  1  0
  7 23  1  0
  8 24  1  0
  9 25  1  0
M  END
