
     RDKit          3D

 23 22  0  0  0  0  0  0  0  0999 V2000
   -0.9351    1.4859    0.1739 C   0  0  0  0  0  0  0  0  0  0  0  0
   -1.2297    0.0105    0.0896 C   0  0  0  0  0  0  0  0  0  0  0  0
   -2.5906   -0.2318    0.7212 C   0  0  0  0  0  0  0  0  0  0  0  0
   -1.3449   -0.4400   -1.3499 C   0  0  0  0  0  0  0  0  0  0  0  0
   -0.2371   -0.8216    0.8666 C   0  0  0  0  0  0  0  0  0  0  0  0
    1.1257   -0.6626    0.4057 C   0  0  0  0  0  0  0  0  0  0  0  0
    2.2541   -0.5104    0.0235 C   0  0  0  0  0  0  0  0  0  0  0  0
    3.6388   -0.3297   -0.4639 C   0  0  0  0  0  0  0  0  0  0  0  0
    4.2039    0.7194    0.2739 O   0  0  0  0  0  0  0  0  0  0  0  0
   -1.8629    2.0532    0.3975 H   0  0  0  0  0  0  0  0  0  0  0  0
   -0.5664    1.9012   -0.8026 H   0  0  0  0  0  0  0  0  0  0  0  0
   -0.1940    1.7263    0.9485 H   0  0  0  0  0  0  0  0  0  0  0  0
   -2.4999    0.0846    1.7865 H   0  0  0  0  0  0  0  0  0  0  0  0
   -3.3297    0.3493    0.1533 H   0  0  0  0  0  0  0  0  0  0  0  0
   -2.7732   -1.3328    0.6636 H   0  0  0  0  0  0  0  0  0  0  0  0
   -1.1361   -1.5339   -1.3655 H   0  0  0  0  0  0  0  0  0  0  0  0
   -2.3934   -0.3103   -1.6894 H   0  0  0  0  0  0  0  0  0  0  0  0
   -0.6231    0.0869   -2.0047 H   0  0  0  0  0  0  0  0  0  0  0  0
   -0.5966   -1.8765    0.8061 H   0  0  0  0  0  0  0  0  0  0  0  0
   -0.3606   -0.5306    1.9416 H   0  0  0  0  0  0  0  0  0  0  0  0
    3.6675   -0.0758   -1.5294 H   0  0  0  0  0  0  0  0  0  0  0  0
    4.2333   -1.2371   -0.3159 H   0  0  0  0  0  0  0  0  0  0  0  0
    3.5500    1.4759    0.2698 H   0  0  0  0  0  0  0  0  0  0  0  0
  1  2  1  0
  2  3  1  0
  2  4  1  0
  2  5  1  0
  5  6  1  0
  6  7  3  0
  7  8  1  0
  8  9  1  0
  1 10  1  0
  1 11  1  0
  1 12  1  0
  3 13  1  0
  3 14  1  0
  3 15  1  0
  4 16  1  0
  4 17  1  0
  4 18  1  0
  5 19  1  0
  5 20  1  0
  8 21  1  0
  8 22  1  0
  9 23  1  0
M  END
