
     RDKit          3D

 21 20  0  0  0  0  0  0  0  0999 V2000
    1.0217   -0.7217    1.2039 C   0  0  0  0  0  0  0  0  0  0  0  0
    1.2700   -0.1908   -0.1584 C   0  0  0  0  0  0  0  0  0  0  0  0
    2.5596    0.6077   -0.2695 C   0  0  0  0  0  0  0  0  0  0  0  0
    0.1528    0.5591   -0.7031 C   0  0  0  0  0  0  0  0  0  0  0  0
    0.2966    1.8145   -0.7608 O   0  0  0  0  0  0  0  0  0  0  0  0
   -1.0960   -0.0111   -1.1759 C   0  0  0  0  0  0  0  0  0  0  0  0
   -2.0625   -0.5652   -0.2033 C   0  0  0  0  0  0  0  0  0  0  0  0
   -2.4694    0.4443    0.8140 C   0  0  0  0  0  0  0  0  0  0  0  0
   -2.0795    1.5856    0.8562 O   0  0  0  0  0  0  0  0  0  0  0  0
    1.1306    0.0811    2.0000 H   0  0  0  0  0  0  0  0  0  0  0  0
    1.6723   -1.5866    1.4851 H   0  0  0  0  0  0  0  0  0  0  0  0
   -0.0140   -1.0586    1.2980 H   0  0  0  0  0  0  0  0  0  0  0  0
    1.4855   -1.1152   -0.8020 H   0  0  0  0  0  0  0  0  0  0  0  0
    2.7366    1.2490    0.6212 H   0  0  0  0  0  0  0  0  0  0  0  0
    2.5258    1.2803   -1.1434 H   0  0  0  0  0  0  0  0  0  0  0  0
    3.4353   -0.0994   -0.3058 H   0  0  0  0  0  0  0  0  0  0  0  0
   -0.8229   -0.8481   -1.8796 H   0  0  0  0  0  0  0  0  0  0  0  0
   -1.6436    0.7134   -1.8407 H   0  0  0  0  0  0  0  0  0  0  0  0
   -3.0298   -0.7084   -0.8380 H   0  0  0  0  0  0  0  0  0  0  0  0
   -1.8851   -1.5504    0.2084 H   0  0  0  0  0  0  0  0  0  0  0  0
   -3.1840    0.1205    1.5938 H   0  0  0  0  0  0  0  0  0  0  0  0
  1  2  1  0
  2  3  1  0
  2  4  1  0
  4  5  2  0
  4  6  1  0
  6  7  1  0
  7  8  1  0
  8  9  2  0
  1 10  1  0
  1 11  1  0
  1 12  1  0
  2 13  1  0
  3 14  1  0
  3 15  1  0
  3 16  1  0
  6 17  1  0
  6 18  1  0
  7 19  1  0
  7 20  1  0
  8 21  1  0
M  END
