
     RDKit          3D

 25 25  0  0  0  0  0  0  0  0999 V2000
    1.6717   -0.2764   -1.3013 C   0  0  0  0  0  0  0  0  0  0  0  0
    1.0067   -0.0978    0.0240 C   0  0  0  0  0  0  0  0  0  0  0  0
    1.6256    1.1017    0.7028 C   0  0  0  0  0  0  0  0  0  0  0  0
   -0.4783   -0.0485   -0.0205 C   0  0  0  0  0  0  0  0  0  0  0  0
   -1.1192    1.0254   -0.8234 C   0  0  0  0  0  0  0  0  0  0  0  0
   -0.8124    1.0285   -2.1572 O   0  0  0  0  0  0  0  0  0  0  0  0
   -1.0942   -1.4223   -0.1256 C   0  0  0  0  0  0  0  0  0  0  0  0
   -1.0480   -1.4997    1.3909 C   0  0  0  0  0  0  0  0  0  0  0  0
   -1.0268    0.0074    1.4124 C   0  0  0  0  0  0  0  0  0  0  0  0
    2.7823   -0.2343   -1.1080 H   0  0  0  0  0  0  0  0  0  0  0  0
    1.5057   -1.3238   -1.6763 H   0  0  0  0  0  0  0  0  0  0  0  0
    1.4557    0.4762   -2.0467 H   0  0  0  0  0  0  0  0  0  0  0  0
    1.2911   -0.9866    0.6484 H   0  0  0  0  0  0  0  0  0  0  0  0
    2.7021    1.1254    0.4004 H   0  0  0  0  0  0  0  0  0  0  0  0
    1.1519    2.0578    0.4106 H   0  0  0  0  0  0  0  0  0  0  0  0
    1.6180    0.9257    1.7964 H   0  0  0  0  0  0  0  0  0  0  0  0
   -0.8405    2.0123   -0.3547 H   0  0  0  0  0  0  0  0  0  0  0  0
   -2.2249    0.9447   -0.6770 H   0  0  0  0  0  0  0  0  0  0  0  0
   -1.1777    1.8244   -2.5745 H   0  0  0  0  0  0  0  0  0  0  0  0
   -0.3835   -2.1142   -0.5967 H   0  0  0  0  0  0  0  0  0  0  0  0
   -2.0999   -1.4660   -0.5613 H   0  0  0  0  0  0  0  0  0  0  0  0
   -1.9525   -1.9213    1.8494 H   0  0  0  0  0  0  0  0  0  0  0  0
   -0.1416   -1.9939    1.7763 H   0  0  0  0  0  0  0  0  0  0  0  0
   -2.0621    0.3935    1.4750 H   0  0  0  0  0  0  0  0  0  0  0  0
   -0.3491    0.4615    2.1364 H   0  0  0  0  0  0  0  0  0  0  0  0
  1  2  1  0
  2  3  1  0
  2  4  1  0
  4  5  1  0
  5  6  1  0
  4  7  1  0
  7  8  1  0
  8  9  1  0
  9  4  1  0
  1 10  1  0
  1 11  1  0
  1 12  1  0
  2 13  1  0
  3 14  1  0
  3 15  1  0
  3 16  1  0
  5 17  1  0
  5 18  1  0
  6 19  1  0
  7 20  1  0
  7 21  1  0
  8 22  1  0
  8 23  1  0
  9 24  1  0
  9 25  1  0
M  END
