
     RDKit          3D

 23 22  0  0  0  0  0  0  0  0999 V2000
   -1.5583    0.5277   -1.0578 C   0  0  0  0  0  0  0  0  0  0  0  0
   -1.1849   -0.4025    0.0668 C   0  0  0  0  0  0  0  0  0  0  0  0
   -2.1103   -0.1161    1.2376 C   0  0  0  0  0  0  0  0  0  0  0  0
   -3.4128   -0.3472    0.8024 O   0  0  0  0  0  0  0  0  0  0  0  0
    0.2673   -0.1898    0.4967 C   0  0  0  0  0  0  0  0  0  0  0  0
    1.1242   -0.4713   -0.7191 C   0  0  0  0  0  0  0  0  0  0  0  0
    2.5916   -0.2969   -0.4311 C   0  0  0  0  0  0  0  0  0  0  0  0
    2.9272    1.0800    0.0090 C   0  0  0  0  0  0  0  0  0  0  0  0
    4.0980    1.3076    0.2631 O   0  0  0  0  0  0  0  0  0  0  0  0
   -1.1782    1.5577   -0.9145 H   0  0  0  0  0  0  0  0  0  0  0  0
   -1.1720    0.1218   -2.0138 H   0  0  0  0  0  0  0  0  0  0  0  0
   -2.6863    0.5180   -1.1083 H   0  0  0  0  0  0  0  0  0  0  0  0
   -1.3554   -1.4381   -0.2952 H   0  0  0  0  0  0  0  0  0  0  0  0
   -1.9455    0.9583    1.5060 H   0  0  0  0  0  0  0  0  0  0  0  0
   -1.8766   -0.7497    2.1097 H   0  0  0  0  0  0  0  0  0  0  0  0
   -3.4609   -1.0238    0.0889 H   0  0  0  0  0  0  0  0  0  0  0  0
    0.5319   -0.8287    1.3436 H   0  0  0  0  0  0  0  0  0  0  0  0
    0.3695    0.8836    0.7486 H   0  0  0  0  0  0  0  0  0  0  0  0
    0.9849   -1.5215   -1.0552 H   0  0  0  0  0  0  0  0  0  0  0  0
    0.8184    0.1704   -1.5692 H   0  0  0  0  0  0  0  0  0  0  0  0
    2.8830   -1.0684    0.3126 H   0  0  0  0  0  0  0  0  0  0  0  0
    3.1368   -0.5309   -1.3685 H   0  0  0  0  0  0  0  0  0  0  0  0
    2.2084    1.8599    0.1104 H   0  0  0  0  0  0  0  0  0  0  0  0
  1  2  1  0
  2  3  1  0
  3  4  1  0
  2  5  1  0
  5  6  1  0
  6  7  1  0
  7  8  1  0
  8  9  2  0
  1 10  1  0
  1 11  1  0
  1 12  1  0
  2 13  1  0
  3 14  1  0
  3 15  1  0
  4 16  1  0
  5 17  1  0
  5 18  1  0
  6 19  1  0
  6 20  1  0
  7 21  1  0
  7 22  1  0
  8 23  1  0
M  END
