
     RDKit          3D

 19 18  0  0  0  0  0  0  0  0999 V2000
    1.7601   -1.3891    0.2796 C   0  0  0  0  0  0  0  0  0  0  0  0
    0.8086   -0.3824   -0.3700 C   0  0  0  0  0  0  0  0  0  0  0  0
    1.5136    0.8516   -0.7391 C   0  0  0  0  0  0  0  0  0  0  0  0
    2.6894    1.0631   -0.4910 O   0  0  0  0  0  0  0  0  0  0  0  0
   -0.2381   -0.0770    0.6661 C   0  0  0  0  0  0  0  0  0  0  0  0
   -1.2827    0.9129    0.2109 C   0  0  0  0  0  0  0  0  0  0  0  0
   -2.1482    1.0638    1.2944 O   0  0  0  0  0  0  0  0  0  0  0  0
   -2.0619    0.3963   -0.9398 C   0  0  0  0  0  0  0  0  0  0  0  0
   -1.5348    0.1847   -2.0412 O   0  0  0  0  0  0  0  0  0  0  0  0
    2.7587   -1.3594   -0.1930 H   0  0  0  0  0  0  0  0  0  0  0  0
    1.2813   -2.3804    0.2011 H   0  0  0  0  0  0  0  0  0  0  0  0
    1.8252   -1.1408    1.3548 H   0  0  0  0  0  0  0  0  0  0  0  0
    0.4116   -0.8385   -1.2944 H   0  0  0  0  0  0  0  0  0  0  0  0
    0.9783    1.6212   -1.2571 H   0  0  0  0  0  0  0  0  0  0  0  0
   -0.8034   -1.0100    0.9492 H   0  0  0  0  0  0  0  0  0  0  0  0
    0.2881    0.2618    1.5770 H   0  0  0  0  0  0  0  0  0  0  0  0
   -0.8333    1.8926   -0.0437 H   0  0  0  0  0  0  0  0  0  0  0  0
   -2.2941    0.1290    1.6454 H   0  0  0  0  0  0  0  0  0  0  0  0
   -3.1183    0.2005   -0.8092 H   0  0  0  0  0  0  0  0  0  0  0  0
  1  2  1  0
  2  3  1  0
  3  4  2  0
  2  5  1  0
  5  6  1  0
  6  7  1  0
  6  8  1  0
  8  9  2  0
  1 10  1  0
  1 11  1  0
  1 12  1  0
  2 13  1  0
  3 14  1  0
  5 15  1  0
  5 16  1  0
  6 17  1  0
  7 18  1  0
  8 19  1  0
M  END
