
     RDKit          3D

 23 23  0  0  0  0  0  0  0  0999 V2000
   -1.3184    1.1213    0.8326 C   0  0  0  0  0  0  0  0  0  0  0  0
   -1.2221    0.2128   -0.3656 C   0  0  0  0  0  0  0  0  0  0  0  0
   -2.2026   -0.9067   -0.2812 C   0  0  0  0  0  0  0  0  0  0  0  0
    0.1935   -0.2796   -0.5101 C   0  0  0  0  0  0  0  0  0  0  0  0
    0.3887   -1.1152   -1.5726 O   0  0  0  0  0  0  0  0  0  0  0  0
    0.7071   -0.8935    0.7361 C   0  0  0  0  0  0  0  0  0  0  0  0
    1.9426   -0.4888    0.9679 C   0  0  0  0  0  0  0  0  0  0  0  0
    2.3961    0.4437   -0.0993 C   0  0  0  0  0  0  0  0  0  0  0  0
    1.1092    0.9339   -0.6944 C   0  0  0  0  0  0  0  0  0  0  0  0
   -1.3373    2.2052    0.5276 H   0  0  0  0  0  0  0  0  0  0  0  0
   -0.4803    1.0167    1.5292 H   0  0  0  0  0  0  0  0  0  0  0  0
   -2.2734    0.9685    1.3964 H   0  0  0  0  0  0  0  0  0  0  0  0
   -1.4714    0.8284   -1.2560 H   0  0  0  0  0  0  0  0  0  0  0  0
   -3.0675   -0.7915   -0.9814 H   0  0  0  0  0  0  0  0  0  0  0  0
   -2.6252   -0.9970    0.7282 H   0  0  0  0  0  0  0  0  0  0  0  0
   -1.7537   -1.9003   -0.5239 H   0  0  0  0  0  0  0  0  0  0  0  0
    0.4163   -2.0633   -1.2841 H   0  0  0  0  0  0  0  0  0  0  0  0
    0.1562   -1.5699    1.3617 H   0  0  0  0  0  0  0  0  0  0  0  0
    2.5280   -0.8034    1.8221 H   0  0  0  0  0  0  0  0  0  0  0  0
    3.0069   -0.1415   -0.8287 H   0  0  0  0  0  0  0  0  0  0  0  0
    3.0212    1.2649    0.2736 H   0  0  0  0  0  0  0  0  0  0  0  0
    0.7000    1.7197   -0.0334 H   0  0  0  0  0  0  0  0  0  0  0  0
    1.1860    1.2358   -1.7445 H   0  0  0  0  0  0  0  0  0  0  0  0
  1  2  1  0
  2  3  1  0
  2  4  1  0
  4  5  1  0
  4  6  1  0
  6  7  2  0
  7  8  1  0
  8  9  1  0
  9  4  1  0
  1 10  1  0
  1 11  1  0
  1 12  1  0
  2 13  1  0
  3 14  1  0
  3 15  1  0
  3 16  1  0
  5 17  1  0
  6 18  1  0
  7 19  1  0
  8 20  1  0
  8 21  1  0
  9 22  1  0
  9 23  1  0
M  END
