
     RDKit          3D

 23 24  0  0  0  0  0  0  0  0999 V2000
   -2.1610   -0.8147    0.5163 C   0  0  0  0  0  0  0  0  0  0  0  0
   -1.2822    0.4149    0.3916 C   0  0  0  0  0  0  0  0  0  0  0  0
   -2.0817    1.4497   -0.3621 C   0  0  0  0  0  0  0  0  0  0  0  0
   -0.0332    0.0142   -0.2886 C   0  0  0  0  0  0  0  0  0  0  0  0
    0.7503   -1.0592    0.4593 C   0  0  0  0  0  0  0  0  0  0  0  0
    1.9997   -0.2995    0.7411 C   0  0  0  0  0  0  0  0  0  0  0  0
    3.1576    0.0093    0.0181 C   0  0  0  0  0  0  0  0  0  0  0  0
    2.0055    0.3537   -0.7037 C   0  0  0  0  0  0  0  0  0  0  0  0
    0.8849    1.0801   -0.4567 O   0  0  0  0  0  0  0  0  0  0  0  0
   -1.7885   -1.5499    1.2252 H   0  0  0  0  0  0  0  0  0  0  0  0
   -2.3143   -1.3197   -0.4593 H   0  0  0  0  0  0  0  0  0  0  0  0
   -3.1663   -0.4457    0.8385 H   0  0  0  0  0  0  0  0  0  0  0  0
   -1.1174    0.7849    1.4214 H   0  0  0  0  0  0  0  0  0  0  0  0
   -1.6734    2.4532   -0.2075 H   0  0  0  0  0  0  0  0  0  0  0  0
   -3.1473    1.3574   -0.0157 H   0  0  0  0  0  0  0  0  0  0  0  0
   -2.1192    1.1974   -1.4501 H   0  0  0  0  0  0  0  0  0  0  0  0
   -0.2346   -0.3669   -1.3040 H   0  0  0  0  0  0  0  0  0  0  0  0
    0.2397   -1.3819    1.3689 H   0  0  0  0  0  0  0  0  0  0  0  0
    0.9032   -1.9586   -0.1720 H   0  0  0  0  0  0  0  0  0  0  0  0
    1.7631    0.4226    1.5872 H   0  0  0  0  0  0  0  0  0  0  0  0
    3.8190   -0.8346   -0.3195 H   0  0  0  0  0  0  0  0  0  0  0  0
    3.8279    0.8520    0.3551 H   0  0  0  0  0  0  0  0  0  0  0  0
    1.7683   -0.3589   -1.5572 H   0  0  0  0  0  0  0  0  0  0  0  0
  1  2  1  0
  2  3  1  0
  2  4  1  0
  4  5  1  0
  5  6  1  0
  6  7  1  0
  7  8  1  0
  8  9  1  0
  9  4  1  0
  8  6  1  0
  1 10  1  0
  1 11  1  0
  1 12  1  0
  2 13  1  0
  3 14  1  0
  3 15  1  0
  3 16  1  0
  4 17  1  0
  5 18  1  0
  5 19  1  0
  6 20  1  0
  7 21  1  0
  7 22  1  0
  8 23  1  0
M  END
