
     RDKit          3D

 21 21  0  0  0  0  0  0  0  0999 V2000
   -1.5587   -1.0353   -0.5734 C   0  0  0  0  0  0  0  0  0  0  0  0
   -1.0736    0.0501    0.3321 C   0  0  0  0  0  0  0  0  0  0  0  0
   -1.7570    1.3472    0.0105 C   0  0  0  0  0  0  0  0  0  0  0  0
   -1.4200   -0.2931    1.6462 O   0  0  0  0  0  0  0  0  0  0  0  0
    0.4222    0.2258    0.2920 C   0  0  0  0  0  0  0  0  0  0  0  0
    1.0957   -0.9396    0.6564 O   0  0  0  0  0  0  0  0  0  0  0  0
    2.4278   -0.5229    0.4295 C   0  0  0  0  0  0  0  0  0  0  0  0
    2.2448    0.1932   -0.9143 C   0  0  0  0  0  0  0  0  0  0  0  0
    0.8980    0.5484   -0.9582 O   0  0  0  0  0  0  0  0  0  0  0  0
   -2.5280   -1.4049   -0.1640 H   0  0  0  0  0  0  0  0  0  0  0  0
   -0.8523   -1.9023   -0.5484 H   0  0  0  0  0  0  0  0  0  0  0  0
   -1.7599   -0.6998   -1.6043 H   0  0  0  0  0  0  0  0  0  0  0  0
   -1.1630    2.2251    0.3716 H   0  0  0  0  0  0  0  0  0  0  0  0
   -2.7430    1.3842    0.5253 H   0  0  0  0  0  0  0  0  0  0  0  0
   -1.9813    1.4528   -1.0764 H   0  0  0  0  0  0  0  0  0  0  0  0
   -2.1500   -0.9760    1.6358 H   0  0  0  0  0  0  0  0  0  0  0  0
    0.7410    1.0284    0.9877 H   0  0  0  0  0  0  0  0  0  0  0  0
    2.6560    0.1907    1.2334 H   0  0  0  0  0  0  0  0  0  0  0  0
    3.1127   -1.3627    0.3448 H   0  0  0  0  0  0  0  0  0  0  0  0
    2.4631   -0.5663   -1.6909 H   0  0  0  0  0  0  0  0  0  0  0  0
    2.9254    1.0570   -0.9353 H   0  0  0  0  0  0  0  0  0  0  0  0
  1  2  1  0
  2  3  1  0
  2  4  1  0
  2  5  1  0
  5  6  1  0
  6  7  1  0
  7  8  1  0
  8  9  1  0
  9  5  1  0
  1 10  1  0
  1 11  1  0
  1 12  1  0
  3 13  1  0
  3 14  1  0
  3 15  1  0
  4 16  1  0
  5 17  1  0
  7 18  1  0
  7 19  1  0
  8 20  1  0
  8 21  1  0
M  END
