
     RDKit          3D

 23 22  0  0  0  0  0  0  0  0999 V2000
    2.2689   -0.6103   -1.0413 C   0  0  0  0  0  0  0  0  0  0  0  0
    1.9308    0.4237   -0.0096 C   0  0  0  0  0  0  0  0  0  0  0  0
    2.9677    0.5130    1.0623 C   0  0  0  0  0  0  0  0  0  0  0  0
    3.6828    1.4717    1.2218 O   0  0  0  0  0  0  0  0  0  0  0  0
    0.6070    0.1889    0.6561 C   0  0  0  0  0  0  0  0  0  0  0  0
   -0.4586    0.1897   -0.2190 O   0  0  0  0  0  0  0  0  0  0  0  0
   -1.6331   -0.0309    0.4616 C   0  0  0  0  0  0  0  0  0  0  0  0
   -2.6208    1.1210    0.2507 C   0  0  0  0  0  0  0  0  0  0  0  0
   -2.3519   -1.2826   -0.0050 C   0  0  0  0  0  0  0  0  0  0  0  0
    3.3740   -0.8128   -0.9392 H   0  0  0  0  0  0  0  0  0  0  0  0
    2.0954   -0.1630   -2.0592 H   0  0  0  0  0  0  0  0  0  0  0  0
    1.7080   -1.5398   -0.9108 H   0  0  0  0  0  0  0  0  0  0  0  0
    1.8884    1.4327   -0.4776 H   0  0  0  0  0  0  0  0  0  0  0  0
    3.0805   -0.3277    1.7283 H   0  0  0  0  0  0  0  0  0  0  0  0
    0.6403   -0.7532    1.2771 H   0  0  0  0  0  0  0  0  0  0  0  0
    0.4945    1.0072    1.4218 H   0  0  0  0  0  0  0  0  0  0  0  0
   -1.4068   -0.1512    1.5391 H   0  0  0  0  0  0  0  0  0  0  0  0
   -3.5287    0.8505    0.8446 H   0  0  0  0  0  0  0  0  0  0  0  0
   -2.1837    2.0837    0.5828 H   0  0  0  0  0  0  0  0  0  0  0  0
   -2.8260    1.1660   -0.8316 H   0  0  0  0  0  0  0  0  0  0  0  0
   -2.7987   -1.7942    0.8725 H   0  0  0  0  0  0  0  0  0  0  0  0
   -3.2242   -1.0335   -0.6709 H   0  0  0  0  0  0  0  0  0  0  0  0
   -1.7059   -1.9491   -0.6033 H   0  0  0  0  0  0  0  0  0  0  0  0
  1  2  1  0
  2  3  1  0
  3  4  2  0
  2  5  1  0
  5  6  1  0
  6  7  1  0
  7  8  1  0
  7  9  1  0
  1 10  1  0
  1 11  1  0
  1 12  1  0
  2 13  1  0
  3 14  1  0
  5 15  1  0
  5 16  1  0
  7 17  1  0
  8 18  1  0
  8 19  1  0
  8 20  1  0
  9 21  1  0
  9 22  1  0
  9 23  1  0
M  END
