
     RDKit          3D

 21 20  0  0  0  0  0  0  0  0999 V2000
   -1.6399   -0.9062    0.6578 C   0  0  0  0  0  0  0  0  0  0  0  0
   -0.5196   -0.2900   -0.1370 C   0  0  0  0  0  0  0  0  0  0  0  0
   -0.4530   -1.0861   -1.4475 C   0  0  0  0  0  0  0  0  0  0  0  0
    0.7572   -0.4579    0.6504 C   0  0  0  0  0  0  0  0  0  0  0  0
    1.9422    0.1467   -0.0984 C   0  0  0  0  0  0  0  0  0  0  0  0
    1.7257    1.5130   -0.3087 O   0  0  0  0  0  0  0  0  0  0  0  0
   -0.7115    1.0366   -0.4832 O   0  0  0  0  0  0  0  0  0  0  0  0
   -0.8888    2.0977    0.3640 C   0  0  0  0  0  0  0  0  0  0  0  0
   -0.8798    1.8641    1.5951 O   0  0  0  0  0  0  0  0  0  0  0  0
   -1.6862   -0.5529    1.6998 H   0  0  0  0  0  0  0  0  0  0  0  0
   -1.4285   -2.0023    0.7106 H   0  0  0  0  0  0  0  0  0  0  0  0
   -2.5710   -0.7933    0.0966 H   0  0  0  0  0  0  0  0  0  0  0  0
    0.2605   -0.6420   -2.1588 H   0  0  0  0  0  0  0  0  0  0  0  0
   -0.2593   -2.1442   -1.2225 H   0  0  0  0  0  0  0  0  0  0  0  0
   -1.5053   -1.0442   -1.8540 H   0  0  0  0  0  0  0  0  0  0  0  0
    1.0073   -1.5226    0.8203 H   0  0  0  0  0  0  0  0  0  0  0  0
    0.6252    0.0750    1.6048 H   0  0  0  0  0  0  0  0  0  0  0  0
    1.9733   -0.3644   -1.0866 H   0  0  0  0  0  0  0  0  0  0  0  0
    2.8533   -0.0420    0.4984 H   0  0  0  0  0  0  0  0  0  0  0  0
    2.4251    2.0373    0.1610 H   0  0  0  0  0  0  0  0  0  0  0  0
   -1.0270    3.0778   -0.0623 H   0  0  0  0  0  0  0  0  0  0  0  0
  1  2  1  0
  2  3  1  0
  2  4  1  0
  4  5  1  0
  5  6  1  0
  2  7  1  0
  7  8  1  0
  8  9  2  0
  1 10  1  0
  1 11  1  0
  1 12  1  0
  3 13  1  0
  3 14  1  0
  3 15  1  0
  4 16  1  0
  4 17  1  0
  5 18  1  0
  5 19  1  0
  6 20  1  0
  8 21  1  0
M  END
