
     RDKit          3D

 25 24  0  0  0  0  0  0  0  0999 V2000
   -2.0446   -0.8256    0.7727 C   0  0  0  0  0  0  0  0  0  0  0  0
   -0.8925    0.2073    0.6541 C   0  0  0  0  0  0  0  0  0  0  0  0
   -1.2350    1.0627   -0.5317 C   0  0  0  0  0  0  0  0  0  0  0  0
   -2.4882    1.6559   -0.2265 O   0  0  0  0  0  0  0  0  0  0  0  0
    0.3284   -0.6312    0.5373 C   0  0  0  0  0  0  0  0  0  0  0  0
    0.3029   -1.5315   -0.6850 C   0  0  0  0  0  0  0  0  0  0  0  0
    1.6355   -0.0255    0.8446 C   0  0  0  0  0  0  0  0  0  0  0  0
    2.0985    1.1365    0.0648 C   0  0  0  0  0  0  0  0  0  0  0  0
    2.2006    0.8825   -1.2934 O   0  0  0  0  0  0  0  0  0  0  0  0
   -2.3597   -1.1418   -0.2440 H   0  0  0  0  0  0  0  0  0  0  0  0
   -2.8841   -0.2543    1.2068 H   0  0  0  0  0  0  0  0  0  0  0  0
   -1.6874   -1.6495    1.4057 H   0  0  0  0  0  0  0  0  0  0  0  0
   -0.8768    0.7649    1.5915 H   0  0  0  0  0  0  0  0  0  0  0  0
   -0.5683    1.9380   -0.6172 H   0  0  0  0  0  0  0  0  0  0  0  0
   -1.3494    0.5168   -1.4634 H   0  0  0  0  0  0  0  0  0  0  0  0
   -3.1548    1.4701   -0.9130 H   0  0  0  0  0  0  0  0  0  0  0  0
    0.1953   -1.4046    1.3833 H   0  0  0  0  0  0  0  0  0  0  0  0
    1.1443   -2.2582   -0.5783 H   0  0  0  0  0  0  0  0  0  0  0  0
   -0.6230   -2.1407   -0.6268 H   0  0  0  0  0  0  0  0  0  0  0  0
    0.3268   -0.9699   -1.6265 H   0  0  0  0  0  0  0  0  0  0  0  0
    2.4054   -0.8439    0.6999 H   0  0  0  0  0  0  0  0  0  0  0  0
    1.6905    0.1880    1.9323 H   0  0  0  0  0  0  0  0  0  0  0  0
    3.1679    1.3276    0.4218 H   0  0  0  0  0  0  0  0  0  0  0  0
    1.6041    2.0872    0.2220 H   0  0  0  0  0  0  0  0  0  0  0  0
    3.0634    0.4390   -1.5379 H   0  0  0  0  0  0  0  0  0  0  0  0
  1  2  1  0
  2  3  1  0
  3  4  1  0
  2  5  1  0
  5  6  1  0
  5  7  1  0
  7  8  1  0
  8  9  1  0
  1 10  1  0
  1 11  1  0
  1 12  1  0
  2 13  1  0
  3 14  1  0
  3 15  1  0
  4 16  1  0
  5 17  1  0
  6 18  1  0
  6 19  1  0
  6 20  1  0
  7 21  1  0
  7 22  1  0
  8 23  1  0
  8 24  1  0
  9 25  1  0
M  END
