
     RDKit          3D

 23 23  0  0  0  0  0  0  0  0999 V2000
   -1.4274   -1.1620    0.5564 C   0  0  0  0  0  0  0  0  0  0  0  0
   -1.1146    0.2601    0.1685 C   0  0  0  0  0  0  0  0  0  0  0  0
   -1.7649    1.1784    1.2162 C   0  0  0  0  0  0  0  0  0  0  0  0
   -1.7862    0.5661   -1.1328 C   0  0  0  0  0  0  0  0  0  0  0  0
    0.2231    0.5156    0.2075 O   0  0  0  0  0  0  0  0  0  0  0  0
    1.0009   -0.2583   -0.6261 C   0  0  0  0  0  0  0  0  0  0  0  0
    2.4468    0.2102   -0.4056 C   0  0  0  0  0  0  0  0  0  0  0  0
    3.4697   -0.6880   -0.0055 C   0  0  0  0  0  0  0  0  0  0  0  0
    2.8610    0.0263    1.0140 O   0  0  0  0  0  0  0  0  0  0  0  0
   -1.1032   -1.8473   -0.2676 H   0  0  0  0  0  0  0  0  0  0  0  0
   -0.8466   -1.4583    1.4568 H   0  0  0  0  0  0  0  0  0  0  0  0
   -2.5062   -1.3012    0.6672 H   0  0  0  0  0  0  0  0  0  0  0  0
   -2.7805    0.8718    1.4469 H   0  0  0  0  0  0  0  0  0  0  0  0
   -1.0794    1.1833    2.1071 H   0  0  0  0  0  0  0  0  0  0  0  0
   -1.6883    2.2030    0.7793 H   0  0  0  0  0  0  0  0  0  0  0  0
   -2.8848    0.6944   -0.9051 H   0  0  0  0  0  0  0  0  0  0  0  0
   -1.7422   -0.2670   -1.8606 H   0  0  0  0  0  0  0  0  0  0  0  0
   -1.4679    1.5345   -1.5625 H   0  0  0  0  0  0  0  0  0  0  0  0
    0.9732   -1.3281   -0.4159 H   0  0  0  0  0  0  0  0  0  0  0  0
    0.7722   -0.0122   -1.6814 H   0  0  0  0  0  0  0  0  0  0  0  0
    2.6398    1.2748   -0.6327 H   0  0  0  0  0  0  0  0  0  0  0  0
    4.5288   -0.4213   -0.1784 H   0  0  0  0  0  0  0  0  0  0  0  0
    3.2767   -1.7751    0.0544 H   0  0  0  0  0  0  0  0  0  0  0  0
  1  2  1  0
  2  3  1  0
  2  4  1  0
  2  5  1  0
  5  6  1  0
  6  7  1  0
  7  8  1  0
  8  9  1  0
  9  7  1  0
  1 10  1  0
  1 11  1  0
  1 12  1  0
  3 13  1  0
  3 14  1  0
  3 15  1  0
  4 16  1  0
  4 17  1  0
  4 18  1  0
  6 19  1  0
  6 20  1  0
  7 21  1  0
  8 22  1  0
  8 23  1  0
M  END
