
     RDKit          3D

 21 20  0  0  0  0  0  0  0  0999 V2000
   -0.6339    1.2546   -0.5542 C   0  0  0  0  0  0  0  0  0  0  0  0
   -0.4896   -0.0543    0.1613 C   0  0  0  0  0  0  0  0  0  0  0  0
   -0.9472   -1.1548   -0.7694 C   0  0  0  0  0  0  0  0  0  0  0  0
   -1.3972   -0.0169    1.3882 C   0  0  0  0  0  0  0  0  0  0  0  0
    0.9092   -0.3011    0.6634 C   0  0  0  0  0  0  0  0  0  0  0  0
    1.9146   -0.3178   -0.4736 C   0  0  0  0  0  0  0  0  0  0  0  0
    1.8721    0.9095   -1.1066 O   0  0  0  0  0  0  0  0  0  0  0  0
   -0.1058    2.0939   -0.0347 H   0  0  0  0  0  0  0  0  0  0  0  0
   -1.7263    1.5343   -0.4854 H   0  0  0  0  0  0  0  0  0  0  0  0
   -0.3873    1.1993   -1.6312 H   0  0  0  0  0  0  0  0  0  0  0  0
   -0.6843   -2.1603   -0.3931 H   0  0  0  0  0  0  0  0  0  0  0  0
   -2.0632   -1.1063   -0.7889 H   0  0  0  0  0  0  0  0  0  0  0  0
   -0.5271   -0.9640   -1.7960 H   0  0  0  0  0  0  0  0  0  0  0  0
   -1.0163   -0.7178    2.1762 H   0  0  0  0  0  0  0  0  0  0  0  0
   -2.4096   -0.3444    1.0765 H   0  0  0  0  0  0  0  0  0  0  0  0
   -1.4507    1.0166    1.8147 H   0  0  0  0  0  0  0  0  0  0  0  0
    1.2253    0.4714    1.3888 H   0  0  0  0  0  0  0  0  0  0  0  0
    0.9364   -1.3080    1.1271 H   0  0  0  0  0  0  0  0  0  0  0  0
    1.7053   -1.1549   -1.1658 H   0  0  0  0  0  0  0  0  0  0  0  0
    2.9290   -0.4469   -0.0445 H   0  0  0  0  0  0  0  0  0  0  0  0
    2.3466    1.5679   -0.5527 H   0  0  0  0  0  0  0  0  0  0  0  0
  1  2  1  0
  2  3  1  0
  2  4  1  0
  2  5  1  0
  5  6  1  0
  6  7  1  0
  1  8  1  0
  1  9  1  0
  1 10  1  0
  3 11  1  0
  3 12  1  0
  3 13  1  0
  4 14  1  0
  4 15  1  0
  4 16  1  0
  5 17  1  0
  5 18  1  0
  6 19  1  0
  6 20  1  0
  7 21  1  0
M  END
