
     RDKit          3D

 21 21  0  0  0  0  0  0  0  0999 V2000
    1.5735   -0.3104    1.5401 C   0  0  0  0  0  0  0  0  0  0  0  0
    0.5077   -0.6119    0.5184 C   0  0  0  0  0  0  0  0  0  0  0  0
    1.2090   -0.9130   -0.8140 C   0  0  0  0  0  0  0  0  0  0  0  0
    2.0029    0.2779   -1.2216 C   0  0  0  0  0  0  0  0  0  0  0  0
    2.6533    0.2854   -2.2506 O   0  0  0  0  0  0  0  0  0  0  0  0
   -0.4350    0.5031    0.2754 C   0  0  0  0  0  0  0  0  0  0  0  0
   -1.2202    1.0283    1.2909 O   0  0  0  0  0  0  0  0  0  0  0  0
   -1.9017    0.1855    0.4540 C   0  0  0  0  0  0  0  0  0  0  0  0
   -2.7878    0.7236   -0.6390 C   0  0  0  0  0  0  0  0  0  0  0  0
    1.2454   -0.7620    2.5219 H   0  0  0  0  0  0  0  0  0  0  0  0
    1.7136    0.7702    1.6006 H   0  0  0  0  0  0  0  0  0  0  0  0
    2.5300   -0.7602    1.2078 H   0  0  0  0  0  0  0  0  0  0  0  0
   -0.0499   -1.5322    0.7648 H   0  0  0  0  0  0  0  0  0  0  0  0
    0.4523   -1.1463   -1.5813 H   0  0  0  0  0  0  0  0  0  0  0  0
    1.8595   -1.7966   -0.6428 H   0  0  0  0  0  0  0  0  0  0  0  0
    2.0194    1.1626   -0.6125 H   0  0  0  0  0  0  0  0  0  0  0  0
   -0.1565    1.2598   -0.4940 H   0  0  0  0  0  0  0  0  0  0  0  0
   -2.1904   -0.7774    0.8750 H   0  0  0  0  0  0  0  0  0  0  0  0
   -2.4453    1.6791   -1.0468 H   0  0  0  0  0  0  0  0  0  0  0  0
   -2.7420   -0.0179   -1.4773 H   0  0  0  0  0  0  0  0  0  0  0  0
   -3.8379    0.7523   -0.2691 H   0  0  0  0  0  0  0  0  0  0  0  0
  1  2  1  0
  2  3  1  0
  3  4  1  0
  4  5  2  0
  2  6  1  0
  6  7  1  0
  7  8  1  0
  8  9  1  0
  8  6  1  0
  1 10  1  0
  1 11  1  0
  1 12  1  0
  2 13  1  0
  3 14  1  0
  3 15  1  0
  4 16  1  0
  6 17  1  0
  8 18  1  0
  9 19  1  0
  9 20  1  0
  9 21  1  0
M  END
