
     RDKit          3D

 19 18  0  0  0  0  0  0  0  0999 V2000
   -2.0878    1.0098    0.8157 C   0  0  0  0  0  0  0  0  0  0  0  0
   -1.2338    0.3925   -0.2635 C   0  0  0  0  0  0  0  0  0  0  0  0
   -1.7096   -1.0150   -0.5404 C   0  0  0  0  0  0  0  0  0  0  0  0
    0.1948    0.4320    0.1509 C   0  0  0  0  0  0  0  0  0  0  0  0
    0.4718    0.9229    1.2320 O   0  0  0  0  0  0  0  0  0  0  0  0
    1.2876   -0.1023   -0.7008 C   0  0  0  0  0  0  0  0  0  0  0  0
    2.5132    0.0865   -0.0245 O   0  0  0  0  0  0  0  0  0  0  0  0
    3.7071   -0.3238   -0.5960 C   0  0  0  0  0  0  0  0  0  0  0  0
    3.6275   -0.8634   -1.7317 O   0  0  0  0  0  0  0  0  0  0  0  0
   -2.4168    0.2717    1.5713 H   0  0  0  0  0  0  0  0  0  0  0  0
   -2.9724    1.5248    0.3934 H   0  0  0  0  0  0  0  0  0  0  0  0
   -1.4579    1.7952    1.3036 H   0  0  0  0  0  0  0  0  0  0  0  0
   -1.3723    0.9966   -1.1765 H   0  0  0  0  0  0  0  0  0  0  0  0
   -1.8037   -1.6258    0.3673 H   0  0  0  0  0  0  0  0  0  0  0  0
   -2.7308   -0.9119   -0.9917 H   0  0  0  0  0  0  0  0  0  0  0  0
   -1.0703   -1.5240   -1.2691 H   0  0  0  0  0  0  0  0  0  0  0  0
    1.0962   -1.2041   -0.7990 H   0  0  0  0  0  0  0  0  0  0  0  0
    1.2849    0.3268   -1.7210 H   0  0  0  0  0  0  0  0  0  0  0  0
    4.6723   -0.1883   -0.0904 H   0  0  0  0  0  0  0  0  0  0  0  0
  1  2  1  0
  2  3  1  0
  2  4  1  0
  4  5  2  0
  4  6  1  0
  6  7  1  0
  7  8  1  0
  8  9  2  0
  1 10  1  0
  1 11  1  0
  1 12  1  0
  2 13  1  0
  3 14  1  0
  3 15  1  0
  3 16  1  0
  6 17  1  0
  6 18  1  0
  8 19  1  0
M  END
