
     RDKit          3D

 23 23  0  0  0  0  0  0  0  0999 V2000
   -2.2688   -0.0029    1.2397 C   0  0  0  0  0  0  0  0  0  0  0  0
   -1.2401    0.2744    0.1499 C   0  0  0  0  0  0  0  0  0  0  0  0
   -1.6158   -0.5811   -1.0416 C   0  0  0  0  0  0  0  0  0  0  0  0
   -2.9027   -0.1911   -1.4251 O   0  0  0  0  0  0  0  0  0  0  0  0
    0.1006   -0.1255    0.7031 C   0  0  0  0  0  0  0  0  0  0  0  0
    1.2214    0.0885   -0.2557 C   0  0  0  0  0  0  0  0  0  0  0  0
    2.5392   -0.3369    0.3718 C   0  0  0  0  0  0  0  0  0  0  0  0
    3.0040    0.7729   -0.5510 C   0  0  0  0  0  0  0  0  0  0  0  0
    1.7328    1.3646   -0.3563 O   0  0  0  0  0  0  0  0  0  0  0  0
   -2.1580   -1.0964    1.4834 H   0  0  0  0  0  0  0  0  0  0  0  0
   -3.2992    0.1523    0.8725 H   0  0  0  0  0  0  0  0  0  0  0  0
   -2.0289    0.5365    2.1636 H   0  0  0  0  0  0  0  0  0  0  0  0
   -1.2695    1.3288   -0.1860 H   0  0  0  0  0  0  0  0  0  0  0  0
   -0.9100   -0.4504   -1.8871 H   0  0  0  0  0  0  0  0  0  0  0  0
   -1.6842   -1.6352   -0.7042 H   0  0  0  0  0  0  0  0  0  0  0  0
   -2.9323    0.7329   -1.7611 H   0  0  0  0  0  0  0  0  0  0  0  0
    0.0576   -1.1978    0.9575 H   0  0  0  0  0  0  0  0  0  0  0  0
    0.2555    0.4332    1.6420 H   0  0  0  0  0  0  0  0  0  0  0  0
    1.0257   -0.3566   -1.2492 H   0  0  0  0  0  0  0  0  0  0  0  0
    2.5676   -0.0688    1.4477 H   0  0  0  0  0  0  0  0  0  0  0  0
    2.8312   -1.3485    0.1005 H   0  0  0  0  0  0  0  0  0  0  0  0
    3.8409    1.3439   -0.1397 H   0  0  0  0  0  0  0  0  0  0  0  0
    3.1330    0.3632   -1.5745 H   0  0  0  0  0  0  0  0  0  0  0  0
  1  2  1  0
  2  3  1  0
  3  4  1  0
  2  5  1  0
  5  6  1  0
  6  7  1  0
  7  8  1  0
  8  9  1  0
  9  6  1  0
  1 10  1  0
  1 11  1  0
  1 12  1  0
  2 13  1  0
  3 14  1  0
  3 15  1  0
  4 16  1  0
  5 17  1  0
  5 18  1  0
  6 19  1  0
  7 20  1  0
  7 21  1  0
  8 22  1  0
  8 23  1  0
M  END
