
     RDKit          3D

 24 24  0  0  0  0  0  0  0  0999 V2000
   -1.9940    0.5035    0.8251 C   0  0  0  0  0  0  0  0  0  0  0  0
   -1.3983   -0.2574   -0.3712 C   0  0  0  0  0  0  0  0  0  0  0  0
   -1.3668    0.6981   -1.5144 C   0  0  0  0  0  0  0  0  0  0  0  0
   -0.0358   -0.7173    0.0677 C   0  0  0  0  0  0  0  0  0  0  0  0
    0.7508   -1.5001   -0.9599 C   0  0  0  0  0  0  0  0  0  0  0  0
    1.9937   -0.8414   -0.3429 C   0  0  0  0  0  0  0  0  0  0  0  0
    1.0560    0.3268   -0.0045 C   0  0  0  0  0  0  0  0  0  0  0  0
    1.4416    0.9324    1.3099 C   0  0  0  0  0  0  0  0  0  0  0  0
   -2.9904    0.8858    0.5869 H   0  0  0  0  0  0  0  0  0  0  0  0
   -1.2562    1.2884    1.0829 H   0  0  0  0  0  0  0  0  0  0  0  0
   -2.0002   -0.2066    1.6903 H   0  0  0  0  0  0  0  0  0  0  0  0
   -2.0481   -1.1223   -0.5335 H   0  0  0  0  0  0  0  0  0  0  0  0
   -1.3797    1.7312   -1.1677 H   0  0  0  0  0  0  0  0  0  0  0  0
   -2.3149    0.5486   -2.0985 H   0  0  0  0  0  0  0  0  0  0  0  0
   -0.5476    0.5463   -2.2261 H   0  0  0  0  0  0  0  0  0  0  0  0
   -0.0033   -1.2120    1.0578 H   0  0  0  0  0  0  0  0  0  0  0  0
    0.7644   -2.5913   -0.8245 H   0  0  0  0  0  0  0  0  0  0  0  0
    0.6082   -1.1329   -1.9982 H   0  0  0  0  0  0  0  0  0  0  0  0
    2.2490   -1.3698    0.5826 H   0  0  0  0  0  0  0  0  0  0  0  0
    2.7843   -0.6028   -1.0477 H   0  0  0  0  0  0  0  0  0  0  0  0
    1.0240    1.0013   -0.8676 H   0  0  0  0  0  0  0  0  0  0  0  0
    0.9386    0.3176    2.1107 H   0  0  0  0  0  0  0  0  0  0  0  0
    1.1771    1.9924    1.4147 H   0  0  0  0  0  0  0  0  0  0  0  0
    2.5476    0.7812    1.4470 H   0  0  0  0  0  0  0  0  0  0  0  0
  1  2  1  0
  2  3  1  0
  2  4  1  0
  4  5  1  0
  5  6  1  0
  6  7  1  0
  7  8  1  0
  7  4  1  0
  1  9  1  0
  1 10  1  0
  1 11  1  0
  2 12  1  0
  3 13  1  0
  3 14  1  0
  3 15  1  0
  4 16  1  0
  5 17  1  0
  5 18  1  0
  6 19  1  0
  6 20  1  0
  7 21  1  0
  8 22  1  0
  8 23  1  0
  8 24  1  0
M  END
