
     RDKit          3D

 23 23  0  0  0  0  0  0  0  0999 V2000
   -1.7718    0.9225   -0.9628 C   0  0  0  0  0  0  0  0  0  0  0  0
   -1.1029   -0.3978   -0.6404 C   0  0  0  0  0  0  0  0  0  0  0  0
   -1.6827   -1.0400    0.5906 C   0  0  0  0  0  0  0  0  0  0  0  0
   -1.5732   -0.2935    1.7283 O   0  0  0  0  0  0  0  0  0  0  0  0
    0.3917   -0.2547   -0.5876 C   0  0  0  0  0  0  0  0  0  0  0  0
    1.0678    0.6485    0.3558 C   0  0  0  0  0  0  0  0  0  0  0  0
    2.2614    1.4415   -0.1350 C   0  0  0  0  0  0  0  0  0  0  0  0
    1.2011   -0.8487    0.4931 C   0  0  0  0  0  0  0  0  0  0  0  0
    2.4898   -1.3269    0.2387 O   0  0  0  0  0  0  0  0  0  0  0  0
   -2.0670    1.4753   -0.0538 H   0  0  0  0  0  0  0  0  0  0  0  0
   -2.6452    0.7785   -1.6485 H   0  0  0  0  0  0  0  0  0  0  0  0
   -1.0756    1.6008   -1.5271 H   0  0  0  0  0  0  0  0  0  0  0  0
   -1.3463   -1.0769   -1.4850 H   0  0  0  0  0  0  0  0  0  0  0  0
   -2.7792   -1.1756    0.3836 H   0  0  0  0  0  0  0  0  0  0  0  0
   -1.2901   -2.0608    0.7532 H   0  0  0  0  0  0  0  0  0  0  0  0
   -2.2622   -0.4412    2.3930 H   0  0  0  0  0  0  0  0  0  0  0  0
    0.8601   -0.3059   -1.6038 H   0  0  0  0  0  0  0  0  0  0  0  0
    0.5557    1.1329    1.2060 H   0  0  0  0  0  0  0  0  0  0  0  0
    1.8811    2.1771   -0.8727 H   0  0  0  0  0  0  0  0  0  0  0  0
    2.9659    0.7218   -0.5818 H   0  0  0  0  0  0  0  0  0  0  0  0
    2.7682    1.9850    0.6816 H   0  0  0  0  0  0  0  0  0  0  0  0
    0.6512   -1.3817    1.2921 H   0  0  0  0  0  0  0  0  0  0  0  0
    2.5021   -2.2801   -0.0175 H   0  0  0  0  0  0  0  0  0  0  0  0
  1  2  1  0
  2  3  1  0
  3  4  1  0
  2  5  1  0
  5  6  1  0
  6  7  1  0
  6  8  1  0
  8  9  1  0
  8  5  1  0
  1 10  1  0
  1 11  1  0
  1 12  1  0
  2 13  1  0
  3 14  1  0
  3 15  1  0
  4 16  1  0
  5 17  1  0
  6 18  1  0
  7 19  1  0
  7 20  1  0
  7 21  1  0
  8 22  1  0
  9 23  1  0
M  END
