
     RDKit          3D

 21 20  0  0  0  0  0  0  0  0999 V2000
   -1.5053   -1.0903    0.6803 C   0  0  0  0  0  0  0  0  0  0  0  0
   -1.4024   -0.3342   -0.6048 C   0  0  0  0  0  0  0  0  0  0  0  0
   -1.4632    1.1486   -0.3173 C   0  0  0  0  0  0  0  0  0  0  0  0
   -2.6762    1.4359    0.3066 O   0  0  0  0  0  0  0  0  0  0  0  0
   -0.2369   -0.7233   -1.4484 C   0  0  0  0  0  0  0  0  0  0  0  0
    1.0048   -0.4996   -0.7455 C   0  0  0  0  0  0  0  0  0  0  0  0
    2.0579   -0.2897   -0.1562 C   0  0  0  0  0  0  0  0  0  0  0  0
    3.3191   -0.0187    0.5346 C   0  0  0  0  0  0  0  0  0  0  0  0
    3.0833    0.3041    1.8503 O   0  0  0  0  0  0  0  0  0  0  0  0
   -1.2242   -2.1496    0.5391 H   0  0  0  0  0  0  0  0  0  0  0  0
   -0.9129   -0.6649    1.5093 H   0  0  0  0  0  0  0  0  0  0  0  0
   -2.5839   -1.0228    1.0090 H   0  0  0  0  0  0  0  0  0  0  0  0
   -2.3328   -0.5668   -1.1975 H   0  0  0  0  0  0  0  0  0  0  0  0
   -0.5876    1.5020    0.2628 H   0  0  0  0  0  0  0  0  0  0  0  0
   -1.4569    1.7494   -1.2613 H   0  0  0  0  0  0  0  0  0  0  0  0
   -2.6760    2.3371    0.6984 H   0  0  0  0  0  0  0  0  0  0  0  0
   -0.3738   -1.7809   -1.7528 H   0  0  0  0  0  0  0  0  0  0  0  0
   -0.3080   -0.1335   -2.4008 H   0  0  0  0  0  0  0  0  0  0  0  0
    3.9866   -0.9231    0.5354 H   0  0  0  0  0  0  0  0  0  0  0  0
    3.9193    0.7631   -0.0092 H   0  0  0  0  0  0  0  0  0  0  0  0
    2.3693    0.9572    1.9680 H   0  0  0  0  0  0  0  0  0  0  0  0
  1  2  1  0
  2  3  1  0
  3  4  1  0
  2  5  1  0
  5  6  1  0
  6  7  3  0
  7  8  1  0
  8  9  1  0
  1 10  1  0
  1 11  1  0
  1 12  1  0
  2 13  1  0
  3 14  1  0
  3 15  1  0
  4 16  1  0
  5 17  1  0
  5 18  1  0
  8 19  1  0
  8 20  1  0
  9 21  1  0
M  END
