
     RDKit          3D

 25 25  0  0  0  0  0  0  0  0999 V2000
   -0.8440   -0.1948    1.3458 C   0  0  0  0  0  0  0  0  0  0  0  0
   -1.3205    0.0388   -0.0661 C   0  0  0  0  0  0  0  0  0  0  0  0
   -2.5836   -0.8093   -0.3322 C   0  0  0  0  0  0  0  0  0  0  0  0
   -1.8406    1.4624   -0.1197 C   0  0  0  0  0  0  0  0  0  0  0  0
   -0.4056   -0.2837   -0.9666 O   0  0  0  0  0  0  0  0  0  0  0  0
    0.7893    0.2856   -1.1105 C   0  0  0  0  0  0  0  0  0  0  0  0
    1.7865    0.2367   -0.0067 C   0  0  0  0  0  0  0  0  0  0  0  0
    2.3308   -0.9961    0.5654 C   0  0  0  0  0  0  0  0  0  0  0  0
    3.1999   -0.3038   -0.4372 C   0  0  0  0  0  0  0  0  0  0  0  0
   -0.1137    0.5592    1.6790 H   0  0  0  0  0  0  0  0  0  0  0  0
   -0.3634   -1.2008    1.4777 H   0  0  0  0  0  0  0  0  0  0  0  0
   -1.7515   -0.1636    2.0137 H   0  0  0  0  0  0  0  0  0  0  0  0
   -2.3892   -1.8708   -0.1794 H   0  0  0  0  0  0  0  0  0  0  0  0
   -2.8637   -0.5835   -1.3875 H   0  0  0  0  0  0  0  0  0  0  0  0
   -3.4113   -0.4173    0.3057 H   0  0  0  0  0  0  0  0  0  0  0  0
   -1.1039    2.1940    0.2406 H   0  0  0  0  0  0  0  0  0  0  0  0
   -2.6945    1.4951    0.5912 H   0  0  0  0  0  0  0  0  0  0  0  0
   -2.2315    1.6431   -1.1187 H   0  0  0  0  0  0  0  0  0  0  0  0
    1.2643   -0.1750   -2.0422 H   0  0  0  0  0  0  0  0  0  0  0  0
    0.7455    1.3792   -1.4264 H   0  0  0  0  0  0  0  0  0  0  0  0
    1.8798    1.1708    0.6335 H   0  0  0  0  0  0  0  0  0  0  0  0
    1.9087   -1.9951    0.3007 H   0  0  0  0  0  0  0  0  0  0  0  0
    2.7126   -0.9780    1.6106 H   0  0  0  0  0  0  0  0  0  0  0  0
    3.2351   -0.7815   -1.4362 H   0  0  0  0  0  0  0  0  0  0  0  0
    4.0646    0.2885   -0.1347 H   0  0  0  0  0  0  0  0  0  0  0  0
  1  2  1  0
  2  3  1  0
  2  4  1  0
  2  5  1  0
  5  6  1  0
  6  7  1  0
  7  8  1  0
  8  9  1  0
  9  7  1  0
  1 10  1  0
  1 11  1  0
  1 12  1  0
  3 13  1  0
  3 14  1  0
  3 15  1  0
  4 16  1  0
  4 17  1  0
  4 18  1  0
  6 19  1  0
  6 20  1  0
  7 21  1  0
  8 22  1  0
  8 23  1  0
  9 24  1  0
  9 25  1  0
M  END
