
     RDKit          3D

 25 25  0  0  0  0  0  0  0  0999 V2000
    0.5225   -1.6772    0.6596 C   0  0  0  0  0  0  0  0  0  0  0  0
    0.5742   -0.2384    0.1096 C   0  0  0  0  0  0  0  0  0  0  0  0
    1.4351    0.5701    1.0521 C   0  0  0  0  0  0  0  0  0  0  0  0
    1.2933   -0.3524   -1.1982 C   0  0  0  0  0  0  0  0  0  0  0  0
    1.4247    0.8628   -1.8182 O   0  0  0  0  0  0  0  0  0  0  0  0
   -0.8299    0.2461    0.0439 C   0  0  0  0  0  0  0  0  0  0  0  0
   -1.5557    0.2665    1.3812 C   0  0  0  0  0  0  0  0  0  0  0  0
   -1.5986   -0.1708   -1.1791 C   0  0  0  0  0  0  0  0  0  0  0  0
   -1.3041    1.2825   -0.9098 C   0  0  0  0  0  0  0  0  0  0  0  0
    1.3616   -1.8283    1.3680 H   0  0  0  0  0  0  0  0  0  0  0  0
    0.5746   -2.4179   -0.1642 H   0  0  0  0  0  0  0  0  0  0  0  0
   -0.4326   -1.8385    1.2078 H   0  0  0  0  0  0  0  0  0  0  0  0
    1.1763    0.4237    2.1093 H   0  0  0  0  0  0  0  0  0  0  0  0
    2.4809    0.2219    0.9237 H   0  0  0  0  0  0  0  0  0  0  0  0
    1.4151    1.6416    0.7846 H   0  0  0  0  0  0  0  0  0  0  0  0
    2.3072   -0.7868   -0.9397 H   0  0  0  0  0  0  0  0  0  0  0  0
    0.8552   -1.1398   -1.8751 H   0  0  0  0  0  0  0  0  0  0  0  0
    2.1377    1.3881   -1.3606 H   0  0  0  0  0  0  0  0  0  0  0  0
   -1.7591    1.3480    1.6156 H   0  0  0  0  0  0  0  0  0  0  0  0
   -2.5388   -0.2411    1.3063 H   0  0  0  0  0  0  0  0  0  0  0  0
   -0.9494   -0.1332    2.2007 H   0  0  0  0  0  0  0  0  0  0  0  0
   -1.0886   -0.5779   -2.0522 H   0  0  0  0  0  0  0  0  0  0  0  0
   -2.6368   -0.5607   -1.0578 H   0  0  0  0  0  0  0  0  0  0  0  0
   -2.2263    1.8547   -0.6507 H   0  0  0  0  0  0  0  0  0  0  0  0
   -0.6384    1.8571   -1.5572 H   0  0  0  0  0  0  0  0  0  0  0  0
  1  2  1  0
  2  3  1  0
  2  4  1  0
  4  5  1  0
  2  6  1  0
  6  7  1  0
  6  8  1  0
  8  9  1  0
  9  6  1  0
  1 10  1  0
  1 11  1  0
  1 12  1  0
  3 13  1  0
  3 14  1  0
  3 15  1  0
  4 16  1  0
  4 17  1  0
  5 18  1  0
  7 19  1  0
  7 20  1  0
  7 21  1  0
  8 22  1  0
  8 23  1  0
  9 24  1  0
  9 25  1  0
M  END
