
     RDKit          3D

 19 19  0  0  0  0  0  0  0  0999 V2000
   -1.5450   -0.8642    0.4551 C   0  0  0  0  0  0  0  0  0  0  0  0
   -1.1300    0.1669   -0.5077 C   0  0  0  0  0  0  0  0  0  0  0  0
   -1.8379    1.4658   -0.1916 C   0  0  0  0  0  0  0  0  0  0  0  0
   -1.2509    2.3742    0.3732 O   0  0  0  0  0  0  0  0  0  0  0  0
    0.3220    0.4866   -0.5791 C   0  0  0  0  0  0  0  0  0  0  0  0
    0.8894    0.9550    0.6068 O   0  0  0  0  0  0  0  0  0  0  0  0
    2.0901    0.3705    0.1923 C   0  0  0  0  0  0  0  0  0  0  0  0
    1.3114   -0.6009   -0.6917 C   0  0  0  0  0  0  0  0  0  0  0  0
    1.0981   -1.7745   -0.0068 O   0  0  0  0  0  0  0  0  0  0  0  0
   -1.7517   -1.8576   -0.0427 H   0  0  0  0  0  0  0  0  0  0  0  0
   -2.5410   -0.5720    0.8851 H   0  0  0  0  0  0  0  0  0  0  0  0
   -0.8862   -1.0359    1.3124 H   0  0  0  0  0  0  0  0  0  0  0  0
   -1.4588   -0.1462   -1.5252 H   0  0  0  0  0  0  0  0  0  0  0  0
   -2.8828    1.5983   -0.4683 H   0  0  0  0  0  0  0  0  0  0  0  0
    0.4954    1.2514   -1.3696 H   0  0  0  0  0  0  0  0  0  0  0  0
    2.5986   -0.1079    1.0554 H   0  0  0  0  0  0  0  0  0  0  0  0
    2.7709    1.0254   -0.3629 H   0  0  0  0  0  0  0  0  0  0  0  0
    1.7430   -0.7457   -1.6799 H   0  0  0  0  0  0  0  0  0  0  0  0
    1.9653   -1.9893    0.4657 H   0  0  0  0  0  0  0  0  0  0  0  0
  1  2  1  0
  2  3  1  0
  3  4  2  0
  2  5  1  0
  5  6  1  0
  6  7  1  0
  7  8  1  0
  8  9  1  0
  8  5  1  0
  1 10  1  0
  1 11  1  0
  1 12  1  0
  2 13  1  0
  3 14  1  0
  5 15  1  0
  7 16  1  0
  7 17  1  0
  8 18  1  0
  9 19  1  0
M  END
