
     RDKit          3D

 25 26  0  0  0  0  0  0  0  0999 V2000
    1.8419   -0.9155    1.0233 C   0  0  0  0  0  0  0  0  0  0  0  0
    0.9372   -0.6769   -0.1748 C   0  0  0  0  0  0  0  0  0  0  0  0
    1.8226   -0.0514   -1.2492 C   0  0  0  0  0  0  0  0  0  0  0  0
   -0.2365    0.1736    0.1560 C   0  0  0  0  0  0  0  0  0  0  0  0
    0.2577    1.5239    0.6542 C   0  0  0  0  0  0  0  0  0  0  0  0
   -1.3969   -0.3915    0.8608 C   0  0  0  0  0  0  0  0  0  0  0  0
   -1.7972   -1.0518   -0.4163 C   0  0  0  0  0  0  0  0  0  0  0  0
   -1.3191    0.2854   -0.8558 C   0  0  0  0  0  0  0  0  0  0  0  0
   -2.1909    0.7718    0.2797 C   0  0  0  0  0  0  0  0  0  0  0  0
    1.8805   -1.9989    1.2936 H   0  0  0  0  0  0  0  0  0  0  0  0
    2.8925   -0.6104    0.8410 H   0  0  0  0  0  0  0  0  0  0  0  0
    1.4981   -0.3469    1.9082 H   0  0  0  0  0  0  0  0  0  0  0  0
    0.6207   -1.6428   -0.6027 H   0  0  0  0  0  0  0  0  0  0  0  0
    2.6107    0.5726   -0.7384 H   0  0  0  0  0  0  0  0  0  0  0  0
    2.3849   -0.8570   -1.7656 H   0  0  0  0  0  0  0  0  0  0  0  0
    1.2587    0.4950   -2.0022 H   0  0  0  0  0  0  0  0  0  0  0  0
    1.3573    1.5581    0.7915 H   0  0  0  0  0  0  0  0  0  0  0  0
   -0.1857    1.7988    1.6269 H   0  0  0  0  0  0  0  0  0  0  0  0
    0.0217    2.2483   -0.1530 H   0  0  0  0  0  0  0  0  0  0  0  0
   -1.4934   -0.7378    1.7940 H   0  0  0  0  0  0  0  0  0  0  0  0
   -2.9264   -1.0625   -0.5056 H   0  0  0  0  0  0  0  0  0  0  0  0
   -1.3189   -1.9567   -0.7460 H   0  0  0  0  0  0  0  0  0  0  0  0
   -1.2823    0.6674   -1.7785 H   0  0  0  0  0  0  0  0  0  0  0  0
   -3.2437    0.4568    0.1439 H   0  0  0  0  0  0  0  0  0  0  0  0
   -1.9934    1.7483    0.6836 H   0  0  0  0  0  0  0  0  0  0  0  0
  1  2  1  0
  2  3  1  0
  2  4  1  0
  4  5  1  0
  4  6  1  0
  6  7  1  0
  7  8  1  0
  8  9  1  0
  8  4  1  0
  9  6  1  0
  1 10  1  0
  1 11  1  0
  1 12  1  0
  2 13  1  0
  3 14  1  0
  3 15  1  0
  3 16  1  0
  5 17  1  0
  5 18  1  0
  5 19  1  0
  6 20  1  0
  7 21  1  0
  7 22  1  0
  8 23  1  0
  9 24  1  0
  9 25  1  0
M  END
