
     RDKit          3D

 25 25  0  0  0  0  0  0  0  0999 V2000
    1.8965    1.2730   -0.2991 C   0  0  0  0  0  0  0  0  0  0  0  0
    1.5308   -0.1888   -0.4243 C   0  0  0  0  0  0  0  0  0  0  0  0
    2.4486   -1.0123    0.4174 C   0  0  0  0  0  0  0  0  0  0  0  0
    0.1029   -0.3569   -0.0866 C   0  0  0  0  0  0  0  0  0  0  0  0
   -0.3698   -1.1520    0.8657 C   0  0  0  0  0  0  0  0  0  0  0  0
   -1.8754   -1.0490    0.9030 C   0  0  0  0  0  0  0  0  0  0  0  0
   -2.1434   -0.6762   -0.5565 C   0  0  0  0  0  0  0  0  0  0  0  0
   -1.0221    0.3417   -0.7648 C   0  0  0  0  0  0  0  0  0  0  0  0
   -1.3996    1.6281   -0.0827 C   0  0  0  0  0  0  0  0  0  0  0  0
    2.9947    1.3606   -0.4646 H   0  0  0  0  0  0  0  0  0  0  0  0
    1.6458    1.6820    0.7013 H   0  0  0  0  0  0  0  0  0  0  0  0
    1.3000    1.8242   -1.0495 H   0  0  0  0  0  0  0  0  0  0  0  0
    1.7182   -0.4607   -1.4971 H   0  0  0  0  0  0  0  0  0  0  0  0
    2.5728   -0.6510    1.4494 H   0  0  0  0  0  0  0  0  0  0  0  0
    2.0657   -2.0750    0.4237 H   0  0  0  0  0  0  0  0  0  0  0  0
    3.4300   -1.0545   -0.0742 H   0  0  0  0  0  0  0  0  0  0  0  0
    0.1950   -1.7922    1.5354 H   0  0  0  0  0  0  0  0  0  0  0  0
   -2.3466   -2.0095    1.1153 H   0  0  0  0  0  0  0  0  0  0  0  0
   -2.1472   -0.2340    1.5759 H   0  0  0  0  0  0  0  0  0  0  0  0
   -3.1298   -0.2478   -0.7102 H   0  0  0  0  0  0  0  0  0  0  0  0
   -1.9400   -1.5849   -1.1603 H   0  0  0  0  0  0  0  0  0  0  0  0
   -0.8383    0.5452   -1.8203 H   0  0  0  0  0  0  0  0  0  0  0  0
   -0.9472    2.5128   -0.5647 H   0  0  0  0  0  0  0  0  0  0  0  0
   -2.5144    1.7683   -0.1998 H   0  0  0  0  0  0  0  0  0  0  0  0
   -1.2271    1.6090    1.0105 H   0  0  0  0  0  0  0  0  0  0  0  0
  1  2  1  0
  2  3  1  0
  2  4  1  0
  4  5  2  0
  5  6  1  0
  6  7  1  0
  7  8  1  0
  8  9  1  0
  8  4  1  0
  1 10  1  0
  1 11  1  0
  1 12  1  0
  2 13  1  0
  3 14  1  0
  3 15  1  0
  3 16  1  0
  5 17  1  0
  6 18  1  0
  6 19  1  0
  7 20  1  0
  7 21  1  0
  8 22  1  0
  9 23  1  0
  9 24  1  0
  9 25  1  0
M  END
