
     RDKit          3D

 25 26  0  0  0  0  0  0  0  0999 V2000
   -2.3651    0.8610   -0.1329 C   0  0  0  0  0  0  0  0  0  0  0  0
   -1.2681    0.0074    0.4326 C   0  0  0  0  0  0  0  0  0  0  0  0
   -1.8483   -1.3935    0.6130 C   0  0  0  0  0  0  0  0  0  0  0  0
   -0.0494   -0.1072   -0.3611 C   0  0  0  0  0  0  0  0  0  0  0  0
    0.6777    1.2029   -0.6404 C   0  0  0  0  0  0  0  0  0  0  0  0
    2.0310    0.8349   -0.0645 C   0  0  0  0  0  0  0  0  0  0  0  0
    2.2641   -0.6119   -0.4534 C   0  0  0  0  0  0  0  0  0  0  0  0
    1.0120   -0.8370    0.4020 C   0  0  0  0  0  0  0  0  0  0  0  0
    1.5860    0.2518    1.2860 C   0  0  0  0  0  0  0  0  0  0  0  0
   -2.6232    0.6278   -1.1709 H   0  0  0  0  0  0  0  0  0  0  0  0
   -3.2831    0.5916    0.4717 H   0  0  0  0  0  0  0  0  0  0  0  0
   -2.2240    1.9368    0.0101 H   0  0  0  0  0  0  0  0  0  0  0  0
   -1.0558    0.3729    1.4579 H   0  0  0  0  0  0  0  0  0  0  0  0
   -2.1012   -1.6161    1.6521 H   0  0  0  0  0  0  0  0  0  0  0  0
   -2.7679   -1.5252   -0.0110 H   0  0  0  0  0  0  0  0  0  0  0  0
   -1.1434   -2.1772    0.2642 H   0  0  0  0  0  0  0  0  0  0  0  0
   -0.1830   -0.6447   -1.3283 H   0  0  0  0  0  0  0  0  0  0  0  0
    0.2875    2.0439   -0.0821 H   0  0  0  0  0  0  0  0  0  0  0  0
    0.7202    1.4323   -1.7205 H   0  0  0  0  0  0  0  0  0  0  0  0
    2.8258    1.5256   -0.0752 H   0  0  0  0  0  0  0  0  0  0  0  0
    3.1820   -0.9812    0.0233 H   0  0  0  0  0  0  0  0  0  0  0  0
    2.1093   -0.8493   -1.5083 H   0  0  0  0  0  0  0  0  0  0  0  0
    0.8432   -1.7972    0.7983 H   0  0  0  0  0  0  0  0  0  0  0  0
    2.4957   -0.0445    1.8474 H   0  0  0  0  0  0  0  0  0  0  0  0
    0.8781    0.8960    1.8001 H   0  0  0  0  0  0  0  0  0  0  0  0
  1  2  1  0
  2  3  1  0
  2  4  1  0
  4  5  1  0
  5  6  1  0
  6  7  1  0
  7  8  1  0
  8  9  1  0
  8  4  1  0
  9  6  1  0
  1 10  1  0
  1 11  1  0
  1 12  1  0
  2 13  1  0
  3 14  1  0
  3 15  1  0
  3 16  1  0
  4 17  1  0
  5 18  1  0
  5 19  1  0
  6 20  1  0
  7 21  1  0
  7 22  1  0
  8 23  1  0
  9 24  1  0
  9 25  1  0
M  END
