
     RDKit          3D

 23 24  0  0  0  0  0  0  0  0999 V2000
   -2.5728   -1.2090    0.7108 C   0  0  0  0  0  0  0  0  0  0  0  0
   -1.8097   -0.1299   -0.0194 C   0  0  0  0  0  0  0  0  0  0  0  0
   -2.5796    1.1622    0.1795 C   0  0  0  0  0  0  0  0  0  0  0  0
   -0.5276    0.0285    0.4208 O   0  0  0  0  0  0  0  0  0  0  0  0
    0.4323   -0.1043   -0.5997 C   0  0  0  0  0  0  0  0  0  0  0  0
    1.5481    0.7666   -0.6834 C   0  0  0  0  0  0  0  0  0  0  0  0
    3.0030    0.4181   -1.0201 C   0  0  0  0  0  0  0  0  0  0  0  0
    2.8835   -0.1575    0.4124 C   0  0  0  0  0  0  0  0  0  0  0  0
    1.6400   -0.7600   -0.2511 C   0  0  0  0  0  0  0  0  0  0  0  0
   -2.4087   -2.2086    0.3221 H   0  0  0  0  0  0  0  0  0  0  0  0
   -3.6554   -0.9702    0.5996 H   0  0  0  0  0  0  0  0  0  0  0  0
   -2.3426   -1.1624    1.7939 H   0  0  0  0  0  0  0  0  0  0  0  0
   -1.8278   -0.3364   -1.1231 H   0  0  0  0  0  0  0  0  0  0  0  0
   -2.3423    1.8126   -0.6759 H   0  0  0  0  0  0  0  0  0  0  0  0
   -3.6678    0.8824    0.0632 H   0  0  0  0  0  0  0  0  0  0  0  0
   -2.3847    1.6185    1.1649 H   0  0  0  0  0  0  0  0  0  0  0  0
   -0.0880   -0.3195   -1.5822 H   0  0  0  0  0  0  0  0  0  0  0  0
    1.6120    1.4914    0.1913 H   0  0  0  0  0  0  0  0  0  0  0  0
    3.6391    1.3016   -1.0928 H   0  0  0  0  0  0  0  0  0  0  0  0
    3.1398   -0.3738   -1.7517 H   0  0  0  0  0  0  0  0  0  0  0  0
    3.6477   -0.8910    0.6397 H   0  0  0  0  0  0  0  0  0  0  0  0
    2.6179    0.5786    1.1708 H   0  0  0  0  0  0  0  0  0  0  0  0
    2.0436   -1.4379   -1.0714 H   0  0  0  0  0  0  0  0  0  0  0  0
  1  2  1  0
  2  3  1  0
  2  4  1  0
  4  5  1  0
  5  6  1  0
  6  7  1  0
  7  8  1  0
  8  9  1  0
  9  5  1  0
  9  6  1  0
  1 10  1  0
  1 11  1  0
  1 12  1  0
  2 13  1  0
  3 14  1  0
  3 15  1  0
  3 16  1  0
  5 17  1  0
  6 18  1  0
  7 19  1  0
  7 20  1  0
  8 21  1  0
  8 22  1  0
  9 23  1  0
M  END
