
     RDKit          3D

 25 25  0  0  0  0  0  0  0  0999 V2000
   -1.1651   -0.6511   -1.2766 C   0  0  0  0  0  0  0  0  0  0  0  0
   -1.0307    0.0523    0.0376 C   0  0  0  0  0  0  0  0  0  0  0  0
   -1.5509   -0.8594    1.1191 C   0  0  0  0  0  0  0  0  0  0  0  0
   -1.9857    1.2529   -0.0054 C   0  0  0  0  0  0  0  0  0  0  0  0
    0.3243    0.5902    0.3065 C   0  0  0  0  0  0  0  0  0  0  0  0
    0.6710    1.4996   -0.6657 O   0  0  0  0  0  0  0  0  0  0  0  0
    1.3809   -0.4677    0.4932 C   0  0  0  0  0  0  0  0  0  0  0  0
    2.8098    0.0384    0.7756 C   0  0  0  0  0  0  0  0  0  0  0  0
    2.4413   -0.4571   -0.6021 C   0  0  0  0  0  0  0  0  0  0  0  0
   -2.2140   -1.0691   -1.3097 H   0  0  0  0  0  0  0  0  0  0  0  0
   -0.5057   -1.5349   -1.3716 H   0  0  0  0  0  0  0  0  0  0  0  0
   -1.1106    0.0329   -2.1504 H   0  0  0  0  0  0  0  0  0  0  0  0
   -1.5454   -0.3780    2.1142 H   0  0  0  0  0  0  0  0  0  0  0  0
   -1.0560   -1.8441    1.1379 H   0  0  0  0  0  0  0  0  0  0  0  0
   -2.6285   -1.0518    0.8823 H   0  0  0  0  0  0  0  0  0  0  0  0
   -1.7457    1.7589   -0.9760 H   0  0  0  0  0  0  0  0  0  0  0  0
   -1.6900    1.9203    0.8117 H   0  0  0  0  0  0  0  0  0  0  0  0
   -3.0324    0.9354    0.0710 H   0  0  0  0  0  0  0  0  0  0  0  0
    0.2763    1.1568    1.2744 H   0  0  0  0  0  0  0  0  0  0  0  0
    0.5320    1.0824   -1.5490 H   0  0  0  0  0  0  0  0  0  0  0  0
    1.1201   -1.4743    0.8319 H   0  0  0  0  0  0  0  0  0  0  0  0
    2.9124    1.1548    0.8937 H   0  0  0  0  0  0  0  0  0  0  0  0
    3.4532   -0.5742    1.4154 H   0  0  0  0  0  0  0  0  0  0  0  0
    2.9314   -1.4111   -0.8712 H   0  0  0  0  0  0  0  0  0  0  0  0
    2.4081    0.2980   -1.3869 H   0  0  0  0  0  0  0  0  0  0  0  0
  1  2  1  0
  2  3  1  0
  2  4  1  0
  2  5  1  0
  5  6  1  0
  5  7  1  0
  7  8  1  0
  8  9  1  0
  9  7  1  0
  1 10  1  0
  1 11  1  0
  1 12  1  0
  3 13  1  0
  3 14  1  0
  3 15  1  0
  4 16  1  0
  4 17  1  0
  4 18  1  0
  5 19  1  0
  6 20  1  0
  7 21  1  0
  8 22  1  0
  8 23  1  0
  9 24  1  0
  9 25  1  0
M  END
