
     RDKit          3D

 21 21  0  0  0  0  0  0  0  0999 V2000
   -1.0455    1.2467   -1.0921 C   0  0  0  0  0  0  0  0  0  0  0  0
   -0.8532    0.1759   -0.0802 C   0  0  0  0  0  0  0  0  0  0  0  0
   -2.0642   -0.7331   -0.1157 C   0  0  0  0  0  0  0  0  0  0  0  0
   -0.8532    0.7983    1.1898 O   0  0  0  0  0  0  0  0  0  0  0  0
    0.3944   -0.6150   -0.2106 C   0  0  0  0  0  0  0  0  0  0  0  0
    0.4428   -1.5805    0.7942 O   0  0  0  0  0  0  0  0  0  0  0  0
    1.6510    0.2217   -0.2214 C   0  0  0  0  0  0  0  0  0  0  0  0
    2.7063    0.0383    0.7487 C   0  0  0  0  0  0  0  0  0  0  0  0
    2.8270   -0.6600   -0.4621 O   0  0  0  0  0  0  0  0  0  0  0  0
   -0.7229    0.9564   -2.1238 H   0  0  0  0  0  0  0  0  0  0  0  0
   -2.1170    1.5276   -1.1689 H   0  0  0  0  0  0  0  0  0  0  0  0
   -0.4872    2.1747   -0.8106 H   0  0  0  0  0  0  0  0  0  0  0  0
   -2.1285   -1.2957   -1.0685 H   0  0  0  0  0  0  0  0  0  0  0  0
   -2.9970   -0.1198   -0.0085 H   0  0  0  0  0  0  0  0  0  0  0  0
   -1.9883   -1.4369    0.7303 H   0  0  0  0  0  0  0  0  0  0  0  0
   -1.4482    0.3426    1.8214 H   0  0  0  0  0  0  0  0  0  0  0  0
    0.3761   -1.1866   -1.1732 H   0  0  0  0  0  0  0  0  0  0  0  0
    0.5899   -1.1643    1.7010 H   0  0  0  0  0  0  0  0  0  0  0  0
    1.7160    1.0429   -0.9619 H   0  0  0  0  0  0  0  0  0  0  0  0
    2.5431   -0.5775    1.6558 H   0  0  0  0  0  0  0  0  0  0  0  0
    3.4588    0.8441    0.8563 H   0  0  0  0  0  0  0  0  0  0  0  0
  1  2  1  0
  2  3  1  0
  2  4  1  0
  2  5  1  0
  5  6  1  0
  5  7  1  0
  7  8  1  0
  8  9  1  0
  9  7  1  0
  1 10  1  0
  1 11  1  0
  1 12  1  0
  3 13  1  0
  3 14  1  0
  3 15  1  0
  4 16  1  0
  5 17  1  0
  6 18  1  0
  7 19  1  0
  8 20  1  0
  8 21  1  0
M  END
