
     RDKit          3D

 25 26  0  0  0  0  0  0  0  0999 V2000
    2.1694    0.3187    0.5675 C   0  0  0  0  0  0  0  0  0  0  0  0
    1.0739   -0.5959    0.0247 C   0  0  0  0  0  0  0  0  0  0  0  0
    1.7237   -1.5721   -0.9089 C   0  0  0  0  0  0  0  0  0  0  0  0
    0.0687    0.2841   -0.6559 C   0  0  0  0  0  0  0  0  0  0  0  0
   -0.5857    1.3207    0.2274 C   0  0  0  0  0  0  0  0  0  0  0  0
   -1.1845    0.5712    1.3880 C   0  0  0  0  0  0  0  0  0  0  0  0
   -1.7579   -0.6372    0.6188 C   0  0  0  0  0  0  0  0  0  0  0  0
   -1.3377   -0.2646   -0.7661 C   0  0  0  0  0  0  0  0  0  0  0  0
   -1.7385    1.2240   -0.7876 C   0  0  0  0  0  0  0  0  0  0  0  0
    3.1617    0.0810    0.1154 H   0  0  0  0  0  0  0  0  0  0  0  0
    1.9808    1.3840    0.3319 H   0  0  0  0  0  0  0  0  0  0  0  0
    2.2915    0.1466    1.6569 H   0  0  0  0  0  0  0  0  0  0  0  0
    0.6243   -1.1589    0.8485 H   0  0  0  0  0  0  0  0  0  0  0  0
    2.8001   -1.6712   -0.6573 H   0  0  0  0  0  0  0  0  0  0  0  0
    1.2969   -2.5967   -0.8066 H   0  0  0  0  0  0  0  0  0  0  0  0
    1.6832   -1.2579   -1.9713 H   0  0  0  0  0  0  0  0  0  0  0  0
    0.4197    0.7295   -1.5852 H   0  0  0  0  0  0  0  0  0  0  0  0
   -0.1324    2.2619    0.3674 H   0  0  0  0  0  0  0  0  0  0  0  0
   -2.0043    1.1759    1.8203 H   0  0  0  0  0  0  0  0  0  0  0  0
   -0.4625    0.2521    2.1388 H   0  0  0  0  0  0  0  0  0  0  0  0
   -1.3642   -1.5709    1.0038 H   0  0  0  0  0  0  0  0  0  0  0  0
   -2.8656   -0.6597    0.7070 H   0  0  0  0  0  0  0  0  0  0  0  0
   -1.6086   -0.8516   -1.6050 H   0  0  0  0  0  0  0  0  0  0  0  0
   -1.5325    1.7136   -1.7434 H   0  0  0  0  0  0  0  0  0  0  0  0
   -2.7194    1.3735   -0.3292 H   0  0  0  0  0  0  0  0  0  0  0  0
  1  2  1  0
  2  3  1  0
  2  4  1  0
  4  5  1  0
  5  6  1  0
  6  7  1  0
  7  8  1  0
  8  9  1  0
  8  4  1  0
  9  5  1  0
  1 10  1  0
  1 11  1  0
  1 12  1  0
  2 13  1  0
  3 14  1  0
  3 15  1  0
  3 16  1  0
  4 17  1  0
  5 18  1  0
  6 19  1  0
  6 20  1  0
  7 21  1  0
  7 22  1  0
  8 23  1  0
  9 24  1  0
  9 25  1  0
M  END
