
     RDKit          3D

 21 20  0  0  0  0  0  0  0  0999 V2000
   -3.0763    0.1983    0.5842 C   0  0  0  0  0  0  0  0  0  0  0  0
   -2.1190   -0.6948   -0.2056 C   0  0  0  0  0  0  0  0  0  0  0  0
   -2.2090   -0.3803   -1.6723 C   0  0  0  0  0  0  0  0  0  0  0  0
   -0.7375   -0.4546    0.2293 C   0  0  0  0  0  0  0  0  0  0  0  0
    0.4073   -0.2393    0.5895 C   0  0  0  0  0  0  0  0  0  0  0  0
    1.7756   -0.0069    1.0124 C   0  0  0  0  0  0  0  0  0  0  0  0
    2.6881    0.3664   -0.1167 C   0  0  0  0  0  0  0  0  0  0  0  0
    4.0491    0.5835    0.3942 C   0  0  0  0  0  0  0  0  0  0  0  0
    4.3903    0.4779    1.5561 O   0  0  0  0  0  0  0  0  0  0  0  0
   -3.2675   -0.2277    1.5933 H   0  0  0  0  0  0  0  0  0  0  0  0
   -4.0330    0.3207    0.0495 H   0  0  0  0  0  0  0  0  0  0  0  0
   -2.5850    1.1929    0.7827 H   0  0  0  0  0  0  0  0  0  0  0  0
   -2.4191   -1.7477   -0.0460 H   0  0  0  0  0  0  0  0  0  0  0  0
   -1.2076   -0.4474   -2.1697 H   0  0  0  0  0  0  0  0  0  0  0  0
   -2.5947    0.6718   -1.8082 H   0  0  0  0  0  0  0  0  0  0  0  0
   -2.8911   -1.1106   -2.1558 H   0  0  0  0  0  0  0  0  0  0  0  0
    2.1870   -0.9469    1.4635 H   0  0  0  0  0  0  0  0  0  0  0  0
    1.7940    0.7522    1.7948 H   0  0  0  0  0  0  0  0  0  0  0  0
    2.3052    1.2738   -0.6601 H   0  0  0  0  0  0  0  0  0  0  0  0
    2.7188   -0.4450   -0.8782 H   0  0  0  0  0  0  0  0  0  0  0  0
    4.8245    0.8637   -0.3263 H   0  0  0  0  0  0  0  0  0  0  0  0
  1  2  1  0
  2  3  1  0
  2  4  1  0
  4  5  3  0
  5  6  1  0
  6  7  1  0
  7  8  1  0
  8  9  2  0
  1 10  1  0
  1 11  1  0
  1 12  1  0
  2 13  1  0
  3 14  1  0
  3 15  1  0
  3 16  1  0
  6 17  1  0
  6 18  1  0
  7 19  1  0
  7 20  1  0
  8 21  1  0
M  END
