
     RDKit          3D

 19 18  0  0  0  0  0  0  0  0999 V2000
    1.2660   -1.1328    0.2193 C   0  0  0  0  0  0  0  0  0  0  0  0
    0.6608    0.1847   -0.1279 C   0  0  0  0  0  0  0  0  0  0  0  0
    0.6277    1.0045    1.1387 C   0  0  0  0  0  0  0  0  0  0  0  0
    0.4414    0.4846    2.2325 O   0  0  0  0  0  0  0  0  0  0  0  0
    1.5186    0.9436   -1.0852 C   0  0  0  0  0  0  0  0  0  0  0  0
    1.0261    1.7645   -1.8436 O   0  0  0  0  0  0  0  0  0  0  0  0
   -0.7108    0.0989   -0.7239 C   0  0  0  0  0  0  0  0  0  0  0  0
   -1.7143   -0.5596    0.1945 C   0  0  0  0  0  0  0  0  0  0  0  0
   -2.9427   -0.5650   -0.5015 O   0  0  0  0  0  0  0  0  0  0  0  0
    0.5956   -1.9942    0.1295 H   0  0  0  0  0  0  0  0  0  0  0  0
    2.1471   -1.3496   -0.4446 H   0  0  0  0  0  0  0  0  0  0  0  0
    1.7056   -1.1454    1.2591 H   0  0  0  0  0  0  0  0  0  0  0  0
    0.7666    2.0795    1.1305 H   0  0  0  0  0  0  0  0  0  0  0  0
    2.5886    0.7986   -1.1427 H   0  0  0  0  0  0  0  0  0  0  0  0
   -1.0594    1.1361   -0.9082 H   0  0  0  0  0  0  0  0  0  0  0  0
   -0.6388   -0.3972   -1.7012 H   0  0  0  0  0  0  0  0  0  0  0  0
   -1.3958   -1.6097    0.3481 H   0  0  0  0  0  0  0  0  0  0  0  0
   -1.7944   -0.0617    1.1679 H   0  0  0  0  0  0  0  0  0  0  0  0
   -3.0881    0.3203   -0.9490 H   0  0  0  0  0  0  0  0  0  0  0  0
  1  2  1  0
  2  3  1  0
  3  4  2  0
  2  5  1  0
  5  6  2  0
  2  7  1  0
  7  8  1  0
  8  9  1  0
  1 10  1  0
  1 11  1  0
  1 12  1  0
  3 13  1  0
  5 14  1  0
  7 15  1  0
  7 16  1  0
  8 17  1  0
  8 18  1  0
  9 19  1  0
M  END
