
     RDKit          3D

 23 23  0  0  0  0  0  0  0  0999 V2000
    1.5496   -1.6518   -0.2377 C   0  0  0  0  0  0  0  0  0  0  0  0
    0.9710   -0.2653   -0.4162 C   0  0  0  0  0  0  0  0  0  0  0  0
    2.0189    0.7122    0.1092 C   0  0  0  0  0  0  0  0  0  0  0  0
    3.2089    0.5667   -0.6259 O   0  0  0  0  0  0  0  0  0  0  0  0
   -0.2675   -0.0943    0.4361 C   0  0  0  0  0  0  0  0  0  0  0  0
   -1.4225   -1.0637    0.1435 C   0  0  0  0  0  0  0  0  0  0  0  0
   -1.5394    0.3700   -0.1476 C   0  0  0  0  0  0  0  0  0  0  0  0
   -2.4331    1.1857    0.7687 C   0  0  0  0  0  0  0  0  0  0  0  0
   -1.5080    0.8444   -1.4648 O   0  0  0  0  0  0  0  0  0  0  0  0
    2.6425   -1.6711   -0.4935 H   0  0  0  0  0  0  0  0  0  0  0  0
    1.0597   -2.4021   -0.8740 H   0  0  0  0  0  0  0  0  0  0  0  0
    1.4451   -1.8944    0.8512 H   0  0  0  0  0  0  0  0  0  0  0  0
    0.8072   -0.0915   -1.4789 H   0  0  0  0  0  0  0  0  0  0  0  0
    2.2663    0.4981    1.1685 H   0  0  0  0  0  0  0  0  0  0  0  0
    1.6657    1.7556   -0.0482 H   0  0  0  0  0  0  0  0  0  0  0  0
    3.1645    1.1454   -1.4063 H   0  0  0  0  0  0  0  0  0  0  0  0
   -0.0598    0.0965    1.5184 H   0  0  0  0  0  0  0  0  0  0  0  0
   -1.9703   -1.4764    1.0378 H   0  0  0  0  0  0  0  0  0  0  0  0
   -1.2114   -1.8237   -0.6084 H   0  0  0  0  0  0  0  0  0  0  0  0
   -2.0137    1.2178    1.8043 H   0  0  0  0  0  0  0  0  0  0  0  0
   -3.4474    0.7244    0.7711 H   0  0  0  0  0  0  0  0  0  0  0  0
   -2.5086    2.2370    0.3729 H   0  0  0  0  0  0  0  0  0  0  0  0
   -2.4179    1.0805   -1.7901 H   0  0  0  0  0  0  0  0  0  0  0  0
  1  2  1  0
  2  3  1  0
  3  4  1  0
  2  5  1  0
  5  6  1  0
  6  7  1  0
  7  8  1  0
  7  9  1  0
  7  5  1  0
  1 10  1  0
  1 11  1  0
  1 12  1  0
  2 13  1  0
  3 14  1  0
  3 15  1  0
  4 16  1  0
  5 17  1  0
  6 18  1  0
  6 19  1  0
  8 20  1  0
  8 21  1  0
  8 22  1  0
  9 23  1  0
M  END
