
     RDKit          3D

 23 23  0  0  0  0  0  0  0  0999 V2000
   -1.0110   -1.1513   -0.9484 C   0  0  0  0  0  0  0  0  0  0  0  0
   -0.6566   -0.1297    0.1008 C   0  0  0  0  0  0  0  0  0  0  0  0
   -1.8699   -0.1308    1.0558 C   0  0  0  0  0  0  0  0  0  0  0  0
   -0.6412    1.2208   -0.5268 C   0  0  0  0  0  0  0  0  0  0  0  0
   -0.3179    2.2427    0.3607 O   0  0  0  0  0  0  0  0  0  0  0  0
    0.5052   -0.4849    0.9478 C   0  0  0  0  0  0  0  0  0  0  0  0
    1.8111   -0.6999    0.2824 C   0  0  0  0  0  0  0  0  0  0  0  0
    2.5530    0.2518   -0.5018 C   0  0  0  0  0  0  0  0  0  0  0  0
    1.8916   -0.8965   -1.0935 O   0  0  0  0  0  0  0  0  0  0  0  0
   -0.9564   -2.1540   -0.4815 H   0  0  0  0  0  0  0  0  0  0  0  0
   -2.0868   -0.9757   -1.2116 H   0  0  0  0  0  0  0  0  0  0  0  0
   -0.4061   -1.0876   -1.8519 H   0  0  0  0  0  0  0  0  0  0  0  0
   -1.7986    0.8071    1.6152 H   0  0  0  0  0  0  0  0  0  0  0  0
   -1.8906   -1.0307    1.6746 H   0  0  0  0  0  0  0  0  0  0  0  0
   -2.7560   -0.0595    0.3848 H   0  0  0  0  0  0  0  0  0  0  0  0
   -0.1101    1.2749   -1.4943 H   0  0  0  0  0  0  0  0  0  0  0  0
   -1.7207    1.4332   -0.8076 H   0  0  0  0  0  0  0  0  0  0  0  0
    0.3761    2.7984   -0.1194 H   0  0  0  0  0  0  0  0  0  0  0  0
    0.5641    0.3031    1.7577 H   0  0  0  0  0  0  0  0  0  0  0  0
    0.2016   -1.4076    1.5275 H   0  0  0  0  0  0  0  0  0  0  0  0
    2.4443   -1.4735    0.8223 H   0  0  0  0  0  0  0  0  0  0  0  0
    3.6756    0.1794   -0.5369 H   0  0  0  0  0  0  0  0  0  0  0  0
    2.1992    1.1701   -0.9560 H   0  0  0  0  0  0  0  0  0  0  0  0
  1  2  1  0
  2  3  1  0
  2  4  1  0
  4  5  1  0
  2  6  1  0
  6  7  1  0
  7  8  1  0
  8  9  1  0
  9  7  1  0
  1 10  1  0
  1 11  1  0
  1 12  1  0
  3 13  1  0
  3 14  1  0
  3 15  1  0
  4 16  1  0
  4 17  1  0
  5 18  1  0
  6 19  1  0
  6 20  1  0
  7 21  1  0
  8 22  1  0
  8 23  1  0
M  END
