
     RDKit          3D

 22 21  0  0  0  0  0  0  0  0999 V2000
    1.4737   -1.1137   -0.2394 C   0  0  0  0  0  0  0  0  0  0  0  0
    0.9822    0.1250    0.4507 C   0  0  0  0  0  0  0  0  0  0  0  0
    1.9839    1.2435    0.3294 C   0  0  0  0  0  0  0  0  0  0  0  0
    3.1819    0.8506    0.9127 O   0  0  0  0  0  0  0  0  0  0  0  0
   -0.3859    0.5438   -0.0003 C   0  0  0  0  0  0  0  0  0  0  0  0
   -1.3491   -0.5604    0.2909 C   0  0  0  0  0  0  0  0  0  0  0  0
   -2.7723   -0.1919   -0.1491 C   0  0  0  0  0  0  0  0  0  0  0  0
   -2.7466    0.0488   -1.5216 O   0  0  0  0  0  0  0  0  0  0  0  0
    2.5391   -1.2614    0.0922 H   0  0  0  0  0  0  0  0  0  0  0  0
    0.9170   -2.0039    0.0769 H   0  0  0  0  0  0  0  0  0  0  0  0
    1.5181   -1.0113   -1.3376 H   0  0  0  0  0  0  0  0  0  0  0  0
    0.9066   -0.1230    1.5420 H   0  0  0  0  0  0  0  0  0  0  0  0
    2.1237    1.5206   -0.7462 H   0  0  0  0  0  0  0  0  0  0  0  0
    1.6139    2.1119    0.9175 H   0  0  0  0  0  0  0  0  0  0  0  0
    3.7697    0.3792    0.2625 H   0  0  0  0  0  0  0  0  0  0  0  0
   -0.4014    0.8677   -1.0574 H   0  0  0  0  0  0  0  0  0  0  0  0
   -0.6835    1.4202    0.6221 H   0  0  0  0  0  0  0  0  0  0  0  0
   -1.4208   -0.6545    1.4126 H   0  0  0  0  0  0  0  0  0  0  0  0
   -1.0641   -1.5399   -0.0933 H   0  0  0  0  0  0  0  0  0  0  0  0
   -3.4519   -1.0522    0.0212 H   0  0  0  0  0  0  0  0  0  0  0  0
   -3.1632    0.6491    0.4379 H   0  0  0  0  0  0  0  0  0  0  0  0
   -3.5709   -0.2483   -1.9791 H   0  0  0  0  0  0  0  0  0  0  0  0
  1  2  1  0
  2  3  1  0
  3  4  1  0
  2  5  1  0
  5  6  1  0
  6  7  1  0
  7  8  1  0
  1  9  1  0
  1 10  1  0
  1 11  1  0
  2 12  1  0
  3 13  1  0
  3 14  1  0
  4 15  1  0
  5 16  1  0
  5 17  1  0
  6 18  1  0
  6 19  1  0
  7 20  1  0
  7 21  1  0
  8 22  1  0
M  END
