
     RDKit          3D

 25 26  0  0  0  0  0  0  0  0999 V2000
   -2.0058    0.5327    1.5668 C   0  0  0  0  0  0  0  0  0  0  0  0
   -1.4285   -0.1244    0.3511 C   0  0  0  0  0  0  0  0  0  0  0  0
   -2.5274   -0.4018   -0.6644 C   0  0  0  0  0  0  0  0  0  0  0  0
   -0.3922    0.7213   -0.3520 C   0  0  0  0  0  0  0  0  0  0  0  0
    0.8145    1.0858    0.4871 C   0  0  0  0  0  0  0  0  0  0  0  0
    1.5891    0.0571   -0.2719 C   0  0  0  0  0  0  0  0  0  0  0  0
    2.4366   -0.9500    0.3152 C   0  0  0  0  0  0  0  0  0  0  0  0
    2.9951    0.1626   -0.6090 C   0  0  0  0  0  0  0  0  0  0  0  0
    0.4852   -0.1792   -1.2353 C   0  0  0  0  0  0  0  0  0  0  0  0
   -3.0112    0.0811    1.7419 H   0  0  0  0  0  0  0  0  0  0  0  0
   -1.3806    0.3482    2.4622 H   0  0  0  0  0  0  0  0  0  0  0  0
   -2.1477    1.6038    1.4020 H   0  0  0  0  0  0  0  0  0  0  0  0
   -1.0243   -1.1118    0.6534 H   0  0  0  0  0  0  0  0  0  0  0  0
   -2.3999    0.1884   -1.5929 H   0  0  0  0  0  0  0  0  0  0  0  0
   -2.5587   -1.4699   -0.9600 H   0  0  0  0  0  0  0  0  0  0  0  0
   -3.5261   -0.0907   -0.2382 H   0  0  0  0  0  0  0  0  0  0  0  0
   -0.8085    1.5985   -0.8824 H   0  0  0  0  0  0  0  0  0  0  0  0
    1.2166    2.1169    0.2702 H   0  0  0  0  0  0  0  0  0  0  0  0
    0.7107    0.9496    1.5627 H   0  0  0  0  0  0  0  0  0  0  0  0
    2.5237   -1.9722   -0.1083 H   0  0  0  0  0  0  0  0  0  0  0  0
    2.7089   -0.8932    1.3862 H   0  0  0  0  0  0  0  0  0  0  0  0
    3.3020   -0.1580   -1.6294 H   0  0  0  0  0  0  0  0  0  0  0  0
    3.5857    0.9654   -0.0979 H   0  0  0  0  0  0  0  0  0  0  0  0
    0.1172   -1.1994   -1.3364 H   0  0  0  0  0  0  0  0  0  0  0  0
    0.7252    0.3173   -2.2207 H   0  0  0  0  0  0  0  0  0  0  0  0
  1  2  1  0
  2  3  1  0
  2  4  1  0
  4  5  1  0
  5  6  1  0
  6  7  1  0
  7  8  1  0
  6  9  1  0
  9  4  1  0
  8  6  1  0
  1 10  1  0
  1 11  1  0
  1 12  1  0
  2 13  1  0
  3 14  1  0
  3 15  1  0
  3 16  1  0
  4 17  1  0
  5 18  1  0
  5 19  1  0
  7 20  1  0
  7 21  1  0
  8 22  1  0
  8 23  1  0
  9 24  1  0
  9 25  1  0
M  END
