
     RDKit          3D

 23 23  0  0  0  0  0  0  0  0999 V2000
   -0.2259    2.1055    0.0093 C   0  0  0  0  0  0  0  0  0  0  0  0
    0.0674    0.6437   -0.4664 C   0  0  0  0  0  0  0  0  0  0  0  0
    1.4562    0.4436   -0.0371 C   0  0  0  0  0  0  0  0  0  0  0  0
    2.1905   -0.8011   -0.2677 C   0  0  0  0  0  0  0  0  0  0  0  0
    1.6969   -1.9396    0.3345 O   0  0  0  0  0  0  0  0  0  0  0  0
   -1.0217   -0.2204    0.0683 C   0  0  0  0  0  0  0  0  0  0  0  0
   -1.1281   -1.6855   -0.1999 C   0  0  0  0  0  0  0  0  0  0  0  0
   -2.3681    0.4762    0.1209 C   0  0  0  0  0  0  0  0  0  0  0  0
   -1.6088    0.2832    1.2383 O   0  0  0  0  0  0  0  0  0  0  0  0
   -0.7024    2.0578    1.0035 H   0  0  0  0  0  0  0  0  0  0  0  0
    0.7094    2.6807    0.1138 H   0  0  0  0  0  0  0  0  0  0  0  0
   -0.8647    2.5587   -0.7783 H   0  0  0  0  0  0  0  0  0  0  0  0
    0.0169    0.6240   -1.5761 H   0  0  0  0  0  0  0  0  0  0  0  0
    2.0387    1.2649   -0.5829 H   0  0  0  0  0  0  0  0  0  0  0  0
    1.6243    0.7631    1.0425 H   0  0  0  0  0  0  0  0  0  0  0  0
    2.4202   -0.9533   -1.3482 H   0  0  0  0  0  0  0  0  0  0  0  0
    3.2300   -0.6842    0.1799 H   0  0  0  0  0  0  0  0  0  0  0  0
    1.9761   -2.7345   -0.2096 H   0  0  0  0  0  0  0  0  0  0  0  0
   -2.2037   -1.9157   -0.4503 H   0  0  0  0  0  0  0  0  0  0  0  0
   -0.9271   -2.2349    0.7315 H   0  0  0  0  0  0  0  0  0  0  0  0
   -0.5650   -2.0586   -1.0450 H   0  0  0  0  0  0  0  0  0  0  0  0
   -2.5106    1.4658   -0.3294 H   0  0  0  0  0  0  0  0  0  0  0  0
   -3.3007   -0.1393    0.0412 H   0  0  0  0  0  0  0  0  0  0  0  0
  1  2  1  0
  2  3  1  0
  3  4  1  0
  4  5  1  0
  2  6  1  0
  6  7  1  0
  6  8  1  0
  8  9  1  0
  9  6  1  0
  1 10  1  0
  1 11  1  0
  1 12  1  0
  2 13  1  0
  3 14  1  0
  3 15  1  0
  4 16  1  0
  4 17  1  0
  5 18  1  0
  7 19  1  0
  7 20  1  0
  7 21  1  0
  8 22  1  0
  8 23  1  0
M  END
