
     RDKit          3D

 19 18  0  0  0  0  0  0  0  0999 V2000
   -0.7438   -1.3179   -0.2355 C   0  0  0  0  0  0  0  0  0  0  0  0
   -0.3525   -0.0177    0.3997 C   0  0  0  0  0  0  0  0  0  0  0  0
   -1.5766    0.9020    0.3547 C   0  0  0  0  0  0  0  0  0  0  0  0
   -2.6503    0.3751    1.0323 O   0  0  0  0  0  0  0  0  0  0  0  0
    0.7397    0.6923   -0.3583 C   0  0  0  0  0  0  0  0  0  0  0  0
    2.0042   -0.1187   -0.4579 C   0  0  0  0  0  0  0  0  0  0  0  0
    2.4945   -0.3991    0.8064 O   0  0  0  0  0  0  0  0  0  0  0  0
   -0.4638   -1.2994   -1.3083 H   0  0  0  0  0  0  0  0  0  0  0  0
   -0.2249   -2.1622    0.3016 H   0  0  0  0  0  0  0  0  0  0  0  0
   -1.8488   -1.4875   -0.2156 H   0  0  0  0  0  0  0  0  0  0  0  0
   -0.1053   -0.1696    1.4751 H   0  0  0  0  0  0  0  0  0  0  0  0
   -1.3071    1.9023    0.7741 H   0  0  0  0  0  0  0  0  0  0  0  0
   -1.8810    1.0802   -0.7030 H   0  0  0  0  0  0  0  0  0  0  0  0
   -3.4993    0.4950    0.5109 H   0  0  0  0  0  0  0  0  0  0  0  0
    0.9791    1.6287    0.1818 H   0  0  0  0  0  0  0  0  0  0  0  0
    0.3482    0.9588   -1.3477 H   0  0  0  0  0  0  0  0  0  0  0  0
    1.8401   -1.0888   -0.9723 H   0  0  0  0  0  0  0  0  0  0  0  0
    2.7545    0.5097   -0.9770 H   0  0  0  0  0  0  0  0  0  0  0  0
    3.4932   -0.4830    0.7426 H   0  0  0  0  0  0  0  0  0  0  0  0
  1  2  1  0
  2  3  1  0
  3  4  1  0
  2  5  1  0
  5  6  1  0
  6  7  1  0
  1  8  1  0
  1  9  1  0
  1 10  1  0
  2 11  1  0
  3 12  1  0
  3 13  1  0
  4 14  1  0
  5 15  1  0
  5 16  1  0
  6 17  1  0
  6 18  1  0
  7 19  1  0
M  END
