
     RDKit          3D

 25 25  0  0  0  0  0  0  0  0999 V2000
   -1.8163   -1.4485    0.5062 C   0  0  0  0  0  0  0  0  0  0  0  0
   -1.2635   -0.0355    0.4602 C   0  0  0  0  0  0  0  0  0  0  0  0
   -1.8508    0.6614   -0.7193 C   0  0  0  0  0  0  0  0  0  0  0  0
   -1.6392    0.6153    1.6234 O   0  0  0  0  0  0  0  0  0  0  0  0
    0.2282   -0.1319    0.4334 C   0  0  0  0  0  0  0  0  0  0  0  0
    0.9270    1.1941    0.3867 C   0  0  0  0  0  0  0  0  0  0  0  0
    2.3504    0.7839    0.0352 C   0  0  0  0  0  0  0  0  0  0  0  0
    2.2516   -0.5955   -0.5781 C   0  0  0  0  0  0  0  0  0  0  0  0
    0.7573   -0.7703   -0.8350 C   0  0  0  0  0  0  0  0  0  0  0  0
   -1.0158   -2.2095    0.5866 H   0  0  0  0  0  0  0  0  0  0  0  0
   -2.4734   -1.6680   -0.3697 H   0  0  0  0  0  0  0  0  0  0  0  0
   -2.4642   -1.6019    1.4093 H   0  0  0  0  0  0  0  0  0  0  0  0
   -2.9513    0.5190   -0.7092 H   0  0  0  0  0  0  0  0  0  0  0  0
   -1.4811    0.2844   -1.6865 H   0  0  0  0  0  0  0  0  0  0  0  0
   -1.7032    1.7779   -0.6388 H   0  0  0  0  0  0  0  0  0  0  0  0
   -2.0479    1.5052    1.4205 H   0  0  0  0  0  0  0  0  0  0  0  0
    0.5844   -0.6850    1.3132 H   0  0  0  0  0  0  0  0  0  0  0  0
    0.5077    1.8709   -0.3930 H   0  0  0  0  0  0  0  0  0  0  0  0
    0.8708    1.6830    1.3818 H   0  0  0  0  0  0  0  0  0  0  0  0
    2.9627    0.7563    0.9746 H   0  0  0  0  0  0  0  0  0  0  0  0
    2.8443    1.5001   -0.6379 H   0  0  0  0  0  0  0  0  0  0  0  0
    2.5876   -1.3328    0.1703 H   0  0  0  0  0  0  0  0  0  0  0  0
    2.8490   -0.7024   -1.4870 H   0  0  0  0  0  0  0  0  0  0  0  0
    0.5124   -0.1470   -1.7141 H   0  0  0  0  0  0  0  0  0  0  0  0
    0.4734   -1.8234   -0.9327 H   0  0  0  0  0  0  0  0  0  0  0  0
  1  2  1  0
  2  3  1  0
  2  4  1  0
  2  5  1  0
  5  6  1  0
  6  7  1  0
  7  8  1  0
  8  9  1  0
  9  5  1  0
  1 10  1  0
  1 11  1  0
  1 12  1  0
  3 13  1  0
  3 14  1  0
  3 15  1  0
  4 16  1  0
  5 17  1  0
  6 18  1  0
  6 19  1  0
  7 20  1  0
  7 21  1  0
  8 22  1  0
  8 23  1  0
  9 24  1  0
  9 25  1  0
M  END
