
     RDKit          3D

 21 21  0  0  0  0  0  0  0  0999 V2000
   -2.1675    0.9961    0.7481 C   0  0  0  0  0  0  0  0  0  0  0  0
   -1.3522   -0.2392    0.4172 C   0  0  0  0  0  0  0  0  0  0  0  0
   -1.8419   -0.8250   -0.8809 C   0  0  0  0  0  0  0  0  0  0  0  0
    0.0845    0.1998    0.2868 C   0  0  0  0  0  0  0  0  0  0  0  0
    0.9880   -0.9447   -0.0412 C   0  0  0  0  0  0  0  0  0  0  0  0
    0.6311   -2.0778   -0.1862 O   0  0  0  0  0  0  0  0  0  0  0  0
    2.4363   -0.6329   -0.1952 C   0  0  0  0  0  0  0  0  0  0  0  0
    2.8838    0.7072   -0.3312 C   0  0  0  0  0  0  0  0  0  0  0  0
    3.0060    0.0349    0.9960 O   0  0  0  0  0  0  0  0  0  0  0  0
   -1.5262    1.8815    0.9462 H   0  0  0  0  0  0  0  0  0  0  0  0
   -2.7791    0.8357    1.6623 H   0  0  0  0  0  0  0  0  0  0  0  0
   -2.8326    1.2558   -0.1139 H   0  0  0  0  0  0  0  0  0  0  0  0
   -1.4958   -0.9651    1.2206 H   0  0  0  0  0  0  0  0  0  0  0  0
   -2.9587   -0.7951   -0.8915 H   0  0  0  0  0  0  0  0  0  0  0  0
   -1.5472   -1.8807   -1.0104 H   0  0  0  0  0  0  0  0  0  0  0  0
   -1.4679   -0.1658   -1.7010 H   0  0  0  0  0  0  0  0  0  0  0  0
    0.2131    0.9979   -0.4629 H   0  0  0  0  0  0  0  0  0  0  0  0
    0.4539    0.6133    1.2484 H   0  0  0  0  0  0  0  0  0  0  0  0
    3.1326   -1.4770   -0.4414 H   0  0  0  0  0  0  0  0  0  0  0  0
    2.2175    1.5645   -0.2409 H   0  0  0  0  0  0  0  0  0  0  0  0
    3.9223    0.9164   -0.6883 H   0  0  0  0  0  0  0  0  0  0  0  0
  1  2  1  0
  2  3  1  0
  2  4  1  0
  4  5  1  0
  5  6  2  0
  5  7  1  0
  7  8  1  0
  8  9  1  0
  9  7  1  0
  1 10  1  0
  1 11  1  0
  1 12  1  0
  2 13  1  0
  3 14  1  0
  3 15  1  0
  3 16  1  0
  4 17  1  0
  4 18  1  0
  7 19  1  0
  8 20  1  0
  8 21  1  0
M  END
