
     RDKit          3D

 25 24  0  0  0  0  0  0  0  0999 V2000
    1.8936    0.4098   -0.8365 C   0  0  0  0  0  0  0  0  0  0  0  0
    1.2851    0.0313    0.4517 C   0  0  0  0  0  0  0  0  0  0  0  0
    1.7801   -1.3589    0.8767 C   0  0  0  0  0  0  0  0  0  0  0  0
   -0.1827    0.0862    0.5686 C   0  0  0  0  0  0  0  0  0  0  0  0
   -0.7149    1.4833    0.3203 C   0  0  0  0  0  0  0  0  0  0  0  0
   -0.4076    1.9642   -0.9344 O   0  0  0  0  0  0  0  0  0  0  0  0
   -0.9399   -0.9263   -0.2466 C   0  0  0  0  0  0  0  0  0  0  0  0
   -2.4330   -0.7512   -0.0275 C   0  0  0  0  0  0  0  0  0  0  0  0
   -0.7264   -0.7421   -1.6193 O   0  0  0  0  0  0  0  0  0  0  0  0
    1.8893    1.5336   -0.9524 H   0  0  0  0  0  0  0  0  0  0  0  0
    1.5118   -0.0823   -1.7300 H   0  0  0  0  0  0  0  0  0  0  0  0
    2.9828    0.1493   -0.7928 H   0  0  0  0  0  0  0  0  0  0  0  0
    1.7095    0.7228    1.2306 H   0  0  0  0  0  0  0  0  0  0  0  0
    1.3082   -2.0963    0.2279 H   0  0  0  0  0  0  0  0  0  0  0  0
    1.4044   -1.5468    1.9151 H   0  0  0  0  0  0  0  0  0  0  0  0
    2.8845   -1.4029    0.9013 H   0  0  0  0  0  0  0  0  0  0  0  0
   -0.4457   -0.1200    1.6419 H   0  0  0  0  0  0  0  0  0  0  0  0
   -0.1738    2.1424    1.0609 H   0  0  0  0  0  0  0  0  0  0  0  0
   -1.7905    1.5549    0.5562 H   0  0  0  0  0  0  0  0  0  0  0  0
   -0.4488    2.9532   -0.8949 H   0  0  0  0  0  0  0  0  0  0  0  0
   -0.7179   -1.9627    0.0329 H   0  0  0  0  0  0  0  0  0  0  0  0
   -2.8114    0.0201   -0.7265 H   0  0  0  0  0  0  0  0  0  0  0  0
   -2.5360   -0.3192    0.9999 H   0  0  0  0  0  0  0  0  0  0  0  0
   -2.9651   -1.7188   -0.1155 H   0  0  0  0  0  0  0  0  0  0  0  0
   -1.3554   -0.0234   -1.9075 H   0  0  0  0  0  0  0  0  0  0  0  0
  1  2  1  0
  2  3  1  0
  2  4  1  0
  4  5  1  0
  5  6  1  0
  4  7  1  0
  7  8  1  0
  7  9  1  0
  1 10  1  0
  1 11  1  0
  1 12  1  0
  2 13  1  0
  3 14  1  0
  3 15  1  0
  3 16  1  0
  4 17  1  0
  5 18  1  0
  5 19  1  0
  6 20  1  0
  7 21  1  0
  8 22  1  0
  8 23  1  0
  8 24  1  0
  9 25  1  0
M  END
