
     RDKit          3D

 25 25  0  0  0  0  0  0  0  0999 V2000
   -1.5451    1.3323    0.3157 C   0  0  0  0  0  0  0  0  0  0  0  0
   -1.0756   -0.0923    0.1535 C   0  0  0  0  0  0  0  0  0  0  0  0
   -1.9726   -0.9548    1.0212 C   0  0  0  0  0  0  0  0  0  0  0  0
   -1.2021   -0.4766   -1.3109 C   0  0  0  0  0  0  0  0  0  0  0  0
    0.3227   -0.2998    0.6584 C   0  0  0  0  0  0  0  0  0  0  0  0
    1.3413    0.5525   -0.0513 C   0  0  0  0  0  0  0  0  0  0  0  0
    2.7230    0.2702    0.5307 C   0  0  0  0  0  0  0  0  0  0  0  0
    3.2243    0.4157   -0.7656 O   0  0  0  0  0  0  0  0  0  0  0  0
    2.0198   -0.1233   -1.2243 C   0  0  0  0  0  0  0  0  0  0  0  0
   -2.6337    1.3385    0.6115 H   0  0  0  0  0  0  0  0  0  0  0  0
   -1.4936    1.8961   -0.6332 H   0  0  0  0  0  0  0  0  0  0  0  0
   -1.0245    1.8531    1.1491 H   0  0  0  0  0  0  0  0  0  0  0  0
   -1.8186   -0.6126    2.0662 H   0  0  0  0  0  0  0  0  0  0  0  0
   -1.6361   -2.0153    0.9266 H   0  0  0  0  0  0  0  0  0  0  0  0
   -3.0260   -0.8264    0.7098 H   0  0  0  0  0  0  0  0  0  0  0  0
   -1.2436    0.4481   -1.9220 H   0  0  0  0  0  0  0  0  0  0  0  0
   -2.1864   -0.9950   -1.4250 H   0  0  0  0  0  0  0  0  0  0  0  0
   -0.3836   -1.1231   -1.6558 H   0  0  0  0  0  0  0  0  0  0  0  0
    0.3141   -0.1092    1.7491 H   0  0  0  0  0  0  0  0  0  0  0  0
    0.5914   -1.3585    0.4585 H   0  0  0  0  0  0  0  0  0  0  0  0
    1.1046    1.6114   -0.1720 H   0  0  0  0  0  0  0  0  0  0  0  0
    2.8006   -0.7836    0.8757 H   0  0  0  0  0  0  0  0  0  0  0  0
    3.0923    1.0386    1.2316 H   0  0  0  0  0  0  0  0  0  0  0  0
    1.9483   -1.2334   -1.0824 H   0  0  0  0  0  0  0  0  0  0  0  0
    1.7592    0.2476   -2.2152 H   0  0  0  0  0  0  0  0  0  0  0  0
  1  2  1  0
  2  3  1  0
  2  4  1  0
  2  5  1  0
  5  6  1  0
  6  7  1  0
  7  8  1  0
  8  9  1  0
  9  6  1  0
  1 10  1  0
  1 11  1  0
  1 12  1  0
  3 13  1  0
  3 14  1  0
  3 15  1  0
  4 16  1  0
  4 17  1  0
  4 18  1  0
  5 19  1  0
  5 20  1  0
  6 21  1  0
  7 22  1  0
  7 23  1  0
  9 24  1  0
  9 25  1  0
M  END
