
     RDKit          3D

 23 23  0  0  0  0  0  0  0  0999 V2000
   -2.1517   -1.0137    0.6397 C   0  0  0  0  0  0  0  0  0  0  0  0
   -1.2282    0.1921    0.4302 C   0  0  0  0  0  0  0  0  0  0  0  0
   -2.1044    1.2981   -0.1167 C   0  0  0  0  0  0  0  0  0  0  0  0
   -0.1893   -0.2206   -0.5628 C   0  0  0  0  0  0  0  0  0  0  0  0
    0.6569   -1.4123   -0.1111 C   0  0  0  0  0  0  0  0  0  0  0  0
    1.2496   -0.0721   -0.3339 C   0  0  0  0  0  0  0  0  0  0  0  0
    1.8417    0.6126    0.8404 C   0  0  0  0  0  0  0  0  0  0  0  0
    3.3212    0.5665    0.7315 C   0  0  0  0  0  0  0  0  0  0  0  0
    3.8448    0.0220   -0.2216 O   0  0  0  0  0  0  0  0  0  0  0  0
   -2.3965   -1.3657   -0.4008 H   0  0  0  0  0  0  0  0  0  0  0  0
   -1.5791   -1.7835    1.1590 H   0  0  0  0  0  0  0  0  0  0  0  0
   -3.0916   -0.7257    1.1309 H   0  0  0  0  0  0  0  0  0  0  0  0
   -0.8156    0.5099    1.3980 H   0  0  0  0  0  0  0  0  0  0  0  0
   -1.5274    1.9504   -0.8000 H   0  0  0  0  0  0  0  0  0  0  0  0
   -2.5978    1.8819    0.6955 H   0  0  0  0  0  0  0  0  0  0  0  0
   -2.9519    0.8904   -0.7313 H   0  0  0  0  0  0  0  0  0  0  0  0
   -0.5722   -0.2493   -1.6217 H   0  0  0  0  0  0  0  0  0  0  0  0
    0.5641   -1.7517    0.9343 H   0  0  0  0  0  0  0  0  0  0  0  0
    0.7324   -2.2186   -0.8439 H   0  0  0  0  0  0  0  0  0  0  0  0
    1.8782   -0.0009   -1.2700 H   0  0  0  0  0  0  0  0  0  0  0  0
    1.5640    1.7057    0.8168 H   0  0  0  0  0  0  0  0  0  0  0  0
    1.5578    0.1825    1.8190 H   0  0  0  0  0  0  0  0  0  0  0  0
    3.9950    1.0021    1.4728 H   0  0  0  0  0  0  0  0  0  0  0  0
  1  2  1  0
  2  3  1  0
  2  4  1  0
  4  5  1  0
  5  6  1  0
  6  7  1  0
  7  8  1  0
  8  9  2  0
  6  4  1  0
  1 10  1  0
  1 11  1  0
  1 12  1  0
  2 13  1  0
  3 14  1  0
  3 15  1  0
  3 16  1  0
  4 17  1  0
  5 18  1  0
  5 19  1  0
  6 20  1  0
  7 21  1  0
  7 22  1  0
  8 23  1  0
M  END
