
     RDKit          3D

 24 24  0  0  0  0  0  0  0  0999 V2000
   -1.3887   -1.1134    1.1025 C   0  0  0  0  0  0  0  0  0  0  0  0
   -0.8461   -0.0262    0.1994 C   0  0  0  0  0  0  0  0  0  0  0  0
   -1.7978    0.0675   -0.9848 C   0  0  0  0  0  0  0  0  0  0  0  0
   -0.8521    1.2789    0.9009 C   0  0  0  0  0  0  0  0  0  0  0  0
    0.4864   -0.4689   -0.3073 C   0  0  0  0  0  0  0  0  0  0  0  0
    1.2078    0.4704   -1.2299 C   0  0  0  0  0  0  0  0  0  0  0  0
    2.5069   -0.0333   -0.5826 C   0  0  0  0  0  0  0  0  0  0  0  0
    1.6459   -0.3200    0.6570 C   0  0  0  0  0  0  0  0  0  0  0  0
   -0.7876   -1.2524    2.0031 H   0  0  0  0  0  0  0  0  0  0  0  0
   -2.4481   -0.8566    1.3481 H   0  0  0  0  0  0  0  0  0  0  0  0
   -1.3867   -2.0549    0.4786 H   0  0  0  0  0  0  0  0  0  0  0  0
   -1.8347   -0.9442   -1.4403 H   0  0  0  0  0  0  0  0  0  0  0  0
   -2.8000    0.2637   -0.5654 H   0  0  0  0  0  0  0  0  0  0  0  0
   -1.4719    0.8548   -1.6899 H   0  0  0  0  0  0  0  0  0  0  0  0
   -0.5780    2.0984    0.1979 H   0  0  0  0  0  0  0  0  0  0  0  0
   -1.8826    1.4842    1.2512 H   0  0  0  0  0  0  0  0  0  0  0  0
   -0.1969    1.2844    1.7897 H   0  0  0  0  0  0  0  0  0  0  0  0
    0.4584   -1.4820   -0.7307 H   0  0  0  0  0  0  0  0  0  0  0  0
    1.2342    0.1813   -2.2998 H   0  0  0  0  0  0  0  0  0  0  0  0
    1.0801    1.5418   -1.0313 H   0  0  0  0  0  0  0  0  0  0  0  0
    3.2737    0.7303   -0.4411 H   0  0  0  0  0  0  0  0  0  0  0  0
    2.8604   -0.9783   -1.0488 H   0  0  0  0  0  0  0  0  0  0  0  0
    1.8725   -1.2882    1.1329 H   0  0  0  0  0  0  0  0  0  0  0  0
    1.6446    0.5627    1.2906 H   0  0  0  0  0  0  0  0  0  0  0  0
  1  2  1  0
  2  3  1  0
  2  4  1  0
  2  5  1  0
  5  6  1  0
  6  7  1  0
  7  8  1  0
  8  5  1  0
  1  9  1  0
  1 10  1  0
  1 11  1  0
  3 12  1  0
  3 13  1  0
  3 14  1  0
  4 15  1  0
  4 16  1  0
  4 17  1  0
  5 18  1  0
  6 19  1  0
  6 20  1  0
  7 21  1  0
  7 22  1  0
  8 23  1  0
  8 24  1  0
M  END
