
     RDKit          3D

 19 19  0  0  0  0  0  0  0  0999 V2000
   -2.1490    0.5430    0.4827 C   0  0  0  0  0  0  0  0  0  0  0  0
   -1.0881   -0.0706   -0.3704 C   0  0  0  0  0  0  0  0  0  0  0  0
   -0.8038   -1.5074   -0.0706 C   0  0  0  0  0  0  0  0  0  0  0  0
    0.1929    0.7632   -0.3763 C   0  0  0  0  0  0  0  0  0  0  0  0
    1.1404    0.1670   -1.1696 O   0  0  0  0  0  0  0  0  0  0  0  0
    2.3271    0.0580   -0.4522 C   0  0  0  0  0  0  0  0  0  0  0  0
    2.0407    0.5370    0.9114 C   0  0  0  0  0  0  0  0  0  0  0  0
    2.8484    0.5814    1.8500 O   0  0  0  0  0  0  0  0  0  0  0  0
    0.7173    0.9174    0.9278 O   0  0  0  0  0  0  0  0  0  0  0  0
   -2.1508    0.1857    1.5225 H   0  0  0  0  0  0  0  0  0  0  0  0
   -3.1692    0.3573    0.0728 H   0  0  0  0  0  0  0  0  0  0  0  0
   -2.0273    1.6614    0.4499 H   0  0  0  0  0  0  0  0  0  0  0  0
   -1.4593   -0.0294   -1.4345 H   0  0  0  0  0  0  0  0  0  0  0  0
    0.2223   -1.7663   -0.3860 H   0  0  0  0  0  0  0  0  0  0  0  0
   -0.9260   -1.7269    1.0165 H   0  0  0  0  0  0  0  0  0  0  0  0
   -1.4897   -2.1660   -0.6764 H   0  0  0  0  0  0  0  0  0  0  0  0
   -0.0327    1.7694   -0.7845 H   0  0  0  0  0  0  0  0  0  0  0  0
    2.7357   -0.9730   -0.4846 H   0  0  0  0  0  0  0  0  0  0  0  0
    3.0709    0.6989   -0.9801 H   0  0  0  0  0  0  0  0  0  0  0  0
  1  2  1  0
  2  3  1  0
  2  4  1  0
  4  5  1  0
  5  6  1  0
  6  7  1  0
  7  8  2  0
  7  9  1  0
  9  4  1  0
  1 10  1  0
  1 11  1  0
  1 12  1  0
  2 13  1  0
  3 14  1  0
  3 15  1  0
  3 16  1  0
  4 17  1  0
  6 18  1  0
  6 19  1  0
M  END
