
     RDKit          3D

 21 21  0  0  0  0  0  0  0  0999 V2000
    1.6210    1.3773   -0.9193 C   0  0  0  0  0  0  0  0  0  0  0  0
    0.7731    0.7756    0.1756 C   0  0  0  0  0  0  0  0  0  0  0  0
    1.4639   -0.4248    0.7706 C   0  0  0  0  0  0  0  0  0  0  0  0
   -0.6271    0.4656   -0.2838 C   0  0  0  0  0  0  0  0  0  0  0  0
   -1.4191   -0.1265    0.8393 C   0  0  0  0  0  0  0  0  0  0  0  0
   -2.0048   -1.4251    0.3330 C   0  0  0  0  0  0  0  0  0  0  0  0
   -1.5291   -1.5908   -0.9785 O   0  0  0  0  0  0  0  0  0  0  0  0
   -0.6958   -0.5408   -1.3381 C   0  0  0  0  0  0  0  0  0  0  0  0
   -0.0943   -0.4998   -2.4424 O   0  0  0  0  0  0  0  0  0  0  0  0
    1.1682    2.3369   -1.2533 H   0  0  0  0  0  0  0  0  0  0  0  0
    1.8177    0.6784   -1.7499 H   0  0  0  0  0  0  0  0  0  0  0  0
    2.6108    1.6127   -0.4528 H   0  0  0  0  0  0  0  0  0  0  0  0
    0.6839    1.5563    0.9676 H   0  0  0  0  0  0  0  0  0  0  0  0
    2.4524   -0.5868    0.2565 H   0  0  0  0  0  0  0  0  0  0  0  0
    1.7007   -0.2865    1.8459 H   0  0  0  0  0  0  0  0  0  0  0  0
    0.9002   -1.3715    0.6091 H   0  0  0  0  0  0  0  0  0  0  0  0
   -1.0928    1.4013   -0.6279 H   0  0  0  0  0  0  0  0  0  0  0  0
   -2.2042    0.5762    1.2035 H   0  0  0  0  0  0  0  0  0  0  0  0
   -0.7523   -0.3007    1.7195 H   0  0  0  0  0  0  0  0  0  0  0  0
   -1.6656   -2.2406    1.0146 H   0  0  0  0  0  0  0  0  0  0  0  0
   -3.1068   -1.3865    0.3108 H   0  0  0  0  0  0  0  0  0  0  0  0
  1  2  1  0
  2  3  1  0
  2  4  1  0
  4  5  1  0
  5  6  1  0
  6  7  1  0
  7  8  1  0
  8  9  2  0
  8  4  1  0
  1 10  1  0
  1 11  1  0
  1 12  1  0
  2 13  1  0
  3 14  1  0
  3 15  1  0
  3 16  1  0
  4 17  1  0
  5 18  1  0
  5 19  1  0
  6 20  1  0
  6 21  1  0
M  END
