
     RDKit          3D

 23 22  0  0  0  0  0  0  0  0999 V2000
   -0.8563   -0.7242   -1.4075 C   0  0  0  0  0  0  0  0  0  0  0  0
   -0.5733   -0.4375    0.0219 C   0  0  0  0  0  0  0  0  0  0  0  0
   -0.7888   -1.7918    0.7481 C   0  0  0  0  0  0  0  0  0  0  0  0
   -1.5841    0.4719    0.6415 C   0  0  0  0  0  0  0  0  0  0  0  0
   -1.7255    1.7063    0.0871 O   0  0  0  0  0  0  0  0  0  0  0  0
    0.8402   -0.0925    0.3436 C   0  0  0  0  0  0  0  0  0  0  0  0
    1.4160    1.1015   -0.3382 C   0  0  0  0  0  0  0  0  0  0  0  0
    2.8105    1.2367    0.1404 C   0  0  0  0  0  0  0  0  0  0  0  0
    3.0181    1.6305    1.2607 O   0  0  0  0  0  0  0  0  0  0  0  0
   -0.4544   -0.0059   -2.1221 H   0  0  0  0  0  0  0  0  0  0  0  0
   -0.5864   -1.7729   -1.6699 H   0  0  0  0  0  0  0  0  0  0  0  0
   -1.9755   -0.6820   -1.5411 H   0  0  0  0  0  0  0  0  0  0  0  0
   -0.6962   -1.5165    1.8315 H   0  0  0  0  0  0  0  0  0  0  0  0
   -1.8041   -2.0885    0.4830 H   0  0  0  0  0  0  0  0  0  0  0  0
   -0.0116   -2.5101    0.4486 H   0  0  0  0  0  0  0  0  0  0  0  0
   -2.5825   -0.0483    0.5472 H   0  0  0  0  0  0  0  0  0  0  0  0
   -1.4091    0.5079    1.7479 H   0  0  0  0  0  0  0  0  0  0  0  0
   -1.4284    1.8542   -0.8166 H   0  0  0  0  0  0  0  0  0  0  0  0
    1.5215   -0.9516    0.1733 H   0  0  0  0  0  0  0  0  0  0  0  0
    0.8958    0.1140    1.4570 H   0  0  0  0  0  0  0  0  0  0  0  0
    1.4458    0.9616   -1.4390 H   0  0  0  0  0  0  0  0  0  0  0  0
    0.8869    2.0458   -0.1092 H   0  0  0  0  0  0  0  0  0  0  0  0
    3.6416    0.9911   -0.4880 H   0  0  0  0  0  0  0  0  0  0  0  0
  1  2  1  0
  2  3  1  0
  2  4  1  0
  4  5  1  0
  2  6  1  0
  6  7  1  0
  7  8  1  0
  8  9  2  0
  1 10  1  0
  1 11  1  0
  1 12  1  0
  3 13  1  0
  3 14  1  0
  3 15  1  0
  4 16  1  0
  4 17  1  0
  5 18  1  0
  6 19  1  0
  6 20  1  0
  7 21  1  0
  7 22  1  0
  8 23  1  0
M  END
