
     RDKit          3D

 20 20  0  0  0  0  0  0  0  0999 V2000
   -1.7271   -1.3671   -0.4195 C   0  0  0  0  0  0  0  0  0  0  0  0
   -0.9303   -0.1569    0.0756 C   0  0  0  0  0  0  0  0  0  0  0  0
   -1.4503    1.1306   -0.4548 C   0  0  0  0  0  0  0  0  0  0  0  0
   -1.0131   -0.1012    1.4832 O   0  0  0  0  0  0  0  0  0  0  0  0
    0.5076   -0.4317   -0.2579 C   0  0  0  0  0  0  0  0  0  0  0  0
    1.4012    0.7029    0.1862 C   0  0  0  0  0  0  0  0  0  0  0  0
    2.8683    0.4804   -0.1252 C   0  0  0  0  0  0  0  0  0  0  0  0
    2.0817    1.4308   -0.7897 O   0  0  0  0  0  0  0  0  0  0  0  0
   -1.3636   -1.6733   -1.4253 H   0  0  0  0  0  0  0  0  0  0  0  0
   -2.7931   -1.1156   -0.4118 H   0  0  0  0  0  0  0  0  0  0  0  0
   -1.4562   -2.1911    0.2692 H   0  0  0  0  0  0  0  0  0  0  0  0
   -1.5583    1.9184    0.3455 H   0  0  0  0  0  0  0  0  0  0  0  0
   -0.8022    1.5755   -1.2431 H   0  0  0  0  0  0  0  0  0  0  0  0
   -2.5005    0.9872   -0.8326 H   0  0  0  0  0  0  0  0  0  0  0  0
   -0.5757   -0.9259    1.8237 H   0  0  0  0  0  0  0  0  0  0  0  0
    0.6741   -0.6096   -1.3291 H   0  0  0  0  0  0  0  0  0  0  0  0
    0.7849   -1.3784    0.2686 H   0  0  0  0  0  0  0  0  0  0  0  0
    1.1292    1.2571    1.0936 H   0  0  0  0  0  0  0  0  0  0  0  0
    3.1484   -0.3699   -0.7596 H   0  0  0  0  0  0  0  0  0  0  0  0
    3.5750    0.8381    0.6557 H   0  0  0  0  0  0  0  0  0  0  0  0
  1  2  1  0
  2  3  1  0
  2  4  1  0
  2  5  1  0
  5  6  1  0
  6  7  1  0
  7  8  1  0
  8  6  1  0
  1  9  1  0
  1 10  1  0
  1 11  1  0
  3 12  1  0
  3 13  1  0
  3 14  1  0
  4 15  1  0
  5 16  1  0
  5 17  1  0
  6 18  1  0
  7 19  1  0
  7 20  1  0
M  END
