
     RDKit          3D

 23 24  0  0  0  0  0  0  0  0999 V2000
    2.0867    1.0000    0.6199 C   0  0  0  0  0  0  0  0  0  0  0  0
    1.4477    0.1698   -0.4814 C   0  0  0  0  0  0  0  0  0  0  0  0
    2.1376   -1.1564   -0.5263 C   0  0  0  0  0  0  0  0  0  0  0  0
   -0.0156    0.0186   -0.2531 C   0  0  0  0  0  0  0  0  0  0  0  0
   -0.6592   -1.1628   -0.1027 C   0  0  0  0  0  0  0  0  0  0  0  0
   -2.0520   -0.7584    0.0910 C   0  0  0  0  0  0  0  0  0  0  0  0
   -2.2014    0.3389   -0.9739 C   0  0  0  0  0  0  0  0  0  0  0  0
   -1.0988    0.9951   -0.1331 C   0  0  0  0  0  0  0  0  0  0  0  0
   -1.8956    0.4273    1.0514 C   0  0  0  0  0  0  0  0  0  0  0  0
    1.3338    1.6423    1.1147 H   0  0  0  0  0  0  0  0  0  0  0  0
    2.9256    1.5723    0.1707 H   0  0  0  0  0  0  0  0  0  0  0  0
    2.5081    0.3246    1.4111 H   0  0  0  0  0  0  0  0  0  0  0  0
    1.5962    0.7063   -1.4455 H   0  0  0  0  0  0  0  0  0  0  0  0
    1.5510   -1.9420   -1.0437 H   0  0  0  0  0  0  0  0  0  0  0  0
    2.4816   -1.4886    0.4919 H   0  0  0  0  0  0  0  0  0  0  0  0
    3.0949   -1.0754   -1.1192 H   0  0  0  0  0  0  0  0  0  0  0  0
   -0.2539   -2.1657   -0.1196 H   0  0  0  0  0  0  0  0  0  0  0  0
   -2.8363   -1.4320    0.2368 H   0  0  0  0  0  0  0  0  0  0  0  0
   -1.9069    0.0493   -1.9787 H   0  0  0  0  0  0  0  0  0  0  0  0
   -3.1644    0.8646   -0.8549 H   0  0  0  0  0  0  0  0  0  0  0  0
   -0.9563    2.0269   -0.1977 H   0  0  0  0  0  0  0  0  0  0  0  0
   -1.2834    0.1077    1.8989 H   0  0  0  0  0  0  0  0  0  0  0  0
   -2.8393    0.9378    1.2489 H   0  0  0  0  0  0  0  0  0  0  0  0
  1  2  1  0
  2  3  1  0
  2  4  1  0
  4  5  2  0
  5  6  1  0
  6  7  1  0
  7  8  1  0
  8  9  1  0
  8  4  1  0
  9  6  1  0
  1 10  1  0
  1 11  1  0
  1 12  1  0
  2 13  1  0
  3 14  1  0
  3 15  1  0
  3 16  1  0
  5 17  1  0
  6 18  1  0
  7 19  1  0
  7 20  1  0
  8 21  1  0
  9 22  1  0
  9 23  1  0
M  END
