
     RDKit          3D

 22 22  0  0  0  0  0  0  0  0999 V2000
    2.3627    0.0982   -0.6234 C   0  0  0  0  0  0  0  0  0  0  0  0
    1.0447   -0.1617    0.1360 C   0  0  0  0  0  0  0  0  0  0  0  0
    0.6683   -1.5696   -0.2120 C   0  0  0  0  0  0  0  0  0  0  0  0
    1.3826   -0.0892    1.4967 O   0  0  0  0  0  0  0  0  0  0  0  0
    0.0525    0.8918   -0.1597 C   0  0  0  0  0  0  0  0  0  0  0  0
   -1.2410    0.7168    0.5416 C   0  0  0  0  0  0  0  0  0  0  0  0
   -2.0579   -0.4758    0.3002 C   0  0  0  0  0  0  0  0  0  0  0  0
   -2.5690    0.8539   -0.1437 C   0  0  0  0  0  0  0  0  0  0  0  0
    3.1665   -0.3688   -0.0302 H   0  0  0  0  0  0  0  0  0  0  0  0
    2.3420   -0.4736   -1.5969 H   0  0  0  0  0  0  0  0  0  0  0  0
    2.5312    1.1720   -0.7750 H   0  0  0  0  0  0  0  0  0  0  0  0
    0.3181   -1.5996   -1.2472 H   0  0  0  0  0  0  0  0  0  0  0  0
    1.6482   -2.1510   -0.1276 H   0  0  0  0  0  0  0  0  0  0  0  0
    0.0256   -2.0726    0.5348 H   0  0  0  0  0  0  0  0  0  0  0  0
    1.5970    0.8431    1.7190 H   0  0  0  0  0  0  0  0  0  0  0  0
    0.4773    1.9183    0.0613 H   0  0  0  0  0  0  0  0  0  0  0  0
   -0.1086    0.9444   -1.2821 H   0  0  0  0  0  0  0  0  0  0  0  0
   -1.2579    1.2036    1.5594 H   0  0  0  0  0  0  0  0  0  0  0  0
   -2.5719   -0.9494    1.1777 H   0  0  0  0  0  0  0  0  0  0  0  0
   -1.8722   -1.1729   -0.5085 H   0  0  0  0  0  0  0  0  0  0  0  0
   -3.4436    1.2837    0.3852 H   0  0  0  0  0  0  0  0  0  0  0  0
   -2.4948    1.1583   -1.2056 H   0  0  0  0  0  0  0  0  0  0  0  0
  1  2  1  0
  2  3  1  0
  2  4  1  0
  2  5  1  0
  5  6  1  0
  6  7  1  0
  7  8  1  0
  8  6  1  0
  1  9  1  0
  1 10  1  0
  1 11  1  0
  3 12  1  0
  3 13  1  0
  3 14  1  0
  4 15  1  0
  5 16  1  0
  5 17  1  0
  6 18  1  0
  7 19  1  0
  7 20  1  0
  8 21  1  0
  8 22  1  0
M  END
