
     RDKit          3D

 20 19  0  0  0  0  0  0  0  0999 V2000
   -1.7574   -0.2840   -0.6373 C   0  0  0  0  0  0  0  0  0  0  0  0
   -0.4234    0.0953    0.0558 C   0  0  0  0  0  0  0  0  0  0  0  0
   -0.2888   -0.8489    1.1911 C   0  0  0  0  0  0  0  0  0  0  0  0
   -0.6324    1.4861    0.6133 C   0  0  0  0  0  0  0  0  0  0  0  0
    0.5898    0.0340   -1.0094 C   0  0  0  0  0  0  0  0  0  0  0  0
    1.8971    0.3279   -0.7774 O   0  0  0  0  0  0  0  0  0  0  0  0
    2.8385   -0.2776   -0.0147 C   0  0  0  0  0  0  0  0  0  0  0  0
    2.5281   -1.3136    0.6200 O   0  0  0  0  0  0  0  0  0  0  0  0
   -2.4776   -0.6067    0.1117 H   0  0  0  0  0  0  0  0  0  0  0  0
   -2.1191    0.6097   -1.1878 H   0  0  0  0  0  0  0  0  0  0  0  0
   -1.5345   -1.0858   -1.3865 H   0  0  0  0  0  0  0  0  0  0  0  0
    0.3957   -0.5395    2.0055 H   0  0  0  0  0  0  0  0  0  0  0  0
   -1.2921   -0.9609    1.7216 H   0  0  0  0  0  0  0  0  0  0  0  0
   -0.0493   -1.8936    0.8983 H   0  0  0  0  0  0  0  0  0  0  0  0
   -1.6218    1.4846    1.1393 H   0  0  0  0  0  0  0  0  0  0  0  0
    0.1115    1.7917    1.3420 H   0  0  0  0  0  0  0  0  0  0  0  0
   -0.7389    2.1759   -0.2493 H   0  0  0  0  0  0  0  0  0  0  0  0
    0.4625   -1.0105   -1.4830 H   0  0  0  0  0  0  0  0  0  0  0  0
    0.2308    0.7100   -1.8390 H   0  0  0  0  0  0  0  0  0  0  0  0
    3.8813    0.1059    0.0741 H   0  0  0  0  0  0  0  0  0  0  0  0
  1  2  1  0
  2  3  1  0
  2  4  1  0
  2  5  1  0
  5  6  1  0
  6  7  1  0
  7  8  2  0
  1  9  1  0
  1 10  1  0
  1 11  1  0
  3 12  1  0
  3 13  1  0
  3 14  1  0
  4 15  1  0
  4 16  1  0
  4 17  1  0
  5 18  1  0
  5 19  1  0
  7 20  1  0
M  END
