
     RDKit          3D

 25 25  0  0  0  0  0  0  0  0999 V2000
   -1.3125    1.4118    0.4884 C   0  0  0  0  0  0  0  0  0  0  0  0
   -1.1893    0.1042   -0.2670 C   0  0  0  0  0  0  0  0  0  0  0  0
   -2.0189    0.1822   -1.5490 C   0  0  0  0  0  0  0  0  0  0  0  0
   -1.8072   -0.9830    0.5857 C   0  0  0  0  0  0  0  0  0  0  0  0
    0.2573   -0.2080   -0.6011 C   0  0  0  0  0  0  0  0  0  0  0  0
    1.0135   -0.3045    0.7077 C   0  0  0  0  0  0  0  0  0  0  0  0
    2.4505   -0.6071    0.5462 C   0  0  0  0  0  0  0  0  0  0  0  0
    3.4114    0.1744   -0.1563 C   0  0  0  0  0  0  0  0  0  0  0  0
    3.3192    0.3259    1.3088 O   0  0  0  0  0  0  0  0  0  0  0  0
   -2.3582    1.7707    0.3211 H   0  0  0  0  0  0  0  0  0  0  0  0
   -0.5568    2.1299    0.1253 H   0  0  0  0  0  0  0  0  0  0  0  0
   -1.2073    1.2206    1.5896 H   0  0  0  0  0  0  0  0  0  0  0  0
   -1.8230    1.1122   -2.0973 H   0  0  0  0  0  0  0  0  0  0  0  0
   -1.7158   -0.7242   -2.1402 H   0  0  0  0  0  0  0  0  0  0  0  0
   -3.0767    0.0537   -1.3135 H   0  0  0  0  0  0  0  0  0  0  0  0
   -2.8550   -1.2176    0.2393 H   0  0  0  0  0  0  0  0  0  0  0  0
   -1.9428   -0.6407    1.6511 H   0  0  0  0  0  0  0  0  0  0  0  0
   -1.2093   -1.8927    0.4998 H   0  0  0  0  0  0  0  0  0  0  0  0
    0.6481    0.5732   -1.2523 H   0  0  0  0  0  0  0  0  0  0  0  0
    0.2806   -1.2076   -1.0705 H   0  0  0  0  0  0  0  0  0  0  0  0
    0.5075   -1.1188    1.2836 H   0  0  0  0  0  0  0  0  0  0  0  0
    0.8810    0.6162    1.2781 H   0  0  0  0  0  0  0  0  0  0  0  0
    2.7532   -1.6427    0.8594 H   0  0  0  0  0  0  0  0  0  0  0  0
    3.1610    1.1190   -0.6434 H   0  0  0  0  0  0  0  0  0  0  0  0
    4.3894   -0.2473   -0.3932 H   0  0  0  0  0  0  0  0  0  0  0  0
  1  2  1  0
  2  3  1  0
  2  4  1  0
  2  5  1  0
  5  6  1  0
  6  7  1  0
  7  8  1  0
  8  9  1  0
  9  7  1  0
  1 10  1  0
  1 11  1  0
  1 12  1  0
  3 13  1  0
  3 14  1  0
  3 15  1  0
  4 16  1  0
  4 17  1  0
  4 18  1  0
  5 19  1  0
  5 20  1  0
  6 21  1  0
  6 22  1  0
  7 23  1  0
  8 24  1  0
  8 25  1  0
M  END
