
     RDKit          3D

 18 17  0  0  0  0  0  0  0  0999 V2000
   -1.0682    1.2986    0.0037 C   0  0  0  0  0  0  0  0  0  0  0  0
   -0.5054   -0.0501   -0.3277 C   0  0  0  0  0  0  0  0  0  0  0  0
   -1.5120   -1.0859    0.1934 C   0  0  0  0  0  0  0  0  0  0  0  0
    0.7936   -0.3539    0.3359 C   0  0  0  0  0  0  0  0  0  0  0  0
    1.9056    0.5887    0.0052 C   0  0  0  0  0  0  0  0  0  0  0  0
    1.1896   -1.6307   -0.1317 O   0  0  0  0  0  0  0  0  0  0  0  0
   -1.9603    1.4453   -0.6701 H   0  0  0  0  0  0  0  0  0  0  0  0
   -0.3927    2.1363   -0.2176 H   0  0  0  0  0  0  0  0  0  0  0  0
   -1.4740    1.3151    1.0308 H   0  0  0  0  0  0  0  0  0  0  0  0
   -0.4137   -0.2119   -1.4148 H   0  0  0  0  0  0  0  0  0  0  0  0
   -2.3696   -1.1338   -0.4886 H   0  0  0  0  0  0  0  0  0  0  0  0
   -1.8426   -0.8124    1.2188 H   0  0  0  0  0  0  0  0  0  0  0  0
   -0.9639   -2.0520    0.2206 H   0  0  0  0  0  0  0  0  0  0  0  0
    0.6354   -0.4918    1.4314 H   0  0  0  0  0  0  0  0  0  0  0  0
    2.3773    0.8875    0.9875 H   0  0  0  0  0  0  0  0  0  0  0  0
    2.7251    0.1180   -0.5819 H   0  0  0  0  0  0  0  0  0  0  0  0
    1.5884    1.5282   -0.4667 H   0  0  0  0  0  0  0  0  0  0  0  0
    1.2874   -1.4951   -1.1284 H   0  0  0  0  0  0  0  0  0  0  0  0
  1  2  1  0
  2  3  1  0
  2  4  1  0
  4  5  1  0
  4  6  1  0
  1  7  1  0
  1  8  1  0
  1  9  1  0
  2 10  1  0
  3 11  1  0
  3 12  1  0
  3 13  1  0
  4 14  1  0
  5 15  1  0
  5 16  1  0
  5 17  1  0
  6 18  1  0
M  END
