
     RDKit          3D

 25 25  0  0  0  0  0  0  0  0999 V2000
   -1.9405    0.8054   -0.5708 C   0  0  0  0  0  0  0  0  0  0  0  0
   -1.3355   -0.5002   -0.1025 C   0  0  0  0  0  0  0  0  0  0  0  0
   -1.6517   -0.7405    1.3124 C   0  0  0  0  0  0  0  0  0  0  0  0
    0.0937   -0.5130   -0.4880 C   0  0  0  0  0  0  0  0  0  0  0  0
    0.7995   -1.8075   -0.0554 C   0  0  0  0  0  0  0  0  0  0  0  0
    2.1110   -1.5017   -0.3086 O   0  0  0  0  0  0  0  0  0  0  0  0
    2.3291   -0.1800   -0.0027 C   0  0  0  0  0  0  0  0  0  0  0  0
    0.9741    0.4823    0.1720 C   0  0  0  0  0  0  0  0  0  0  0  0
    0.9901    1.8477   -0.4750 C   0  0  0  0  0  0  0  0  0  0  0  0
   -3.0536    0.7753   -0.4535 H   0  0  0  0  0  0  0  0  0  0  0  0
   -1.7222    0.9092   -1.6722 H   0  0  0  0  0  0  0  0  0  0  0  0
   -1.5141    1.6892   -0.0551 H   0  0  0  0  0  0  0  0  0  0  0  0
   -1.8451   -1.2984   -0.7164 H   0  0  0  0  0  0  0  0  0  0  0  0
   -2.1310   -1.7357    1.4792 H   0  0  0  0  0  0  0  0  0  0  0  0
   -0.8114   -0.6798    2.0173 H   0  0  0  0  0  0  0  0  0  0  0  0
   -2.4133    0.0068    1.6821 H   0  0  0  0  0  0  0  0  0  0  0  0
    0.2478   -0.4418   -1.5826 H   0  0  0  0  0  0  0  0  0  0  0  0
    0.4504   -2.6665   -0.6550 H   0  0  0  0  0  0  0  0  0  0  0  0
    0.6396   -1.9034    1.0166 H   0  0  0  0  0  0  0  0  0  0  0  0
    2.9584   -0.0349    0.8992 H   0  0  0  0  0  0  0  0  0  0  0  0
    2.8399    0.3393   -0.8270 H   0  0  0  0  0  0  0  0  0  0  0  0
    0.8110    0.5405    1.2688 H   0  0  0  0  0  0  0  0  0  0  0  0
    2.0539    2.1226   -0.7457 H   0  0  0  0  0  0  0  0  0  0  0  0
    0.6790    2.5826    0.2879 H   0  0  0  0  0  0  0  0  0  0  0  0
    0.4409    1.9023   -1.4252 H   0  0  0  0  0  0  0  0  0  0  0  0
  1  2  1  0
  2  3  1  0
  2  4  1  0
  4  5  1  0
  5  6  1  0
  6  7  1  0
  7  8  1  0
  8  9  1  0
  8  4  1  0
  1 10  1  0
  1 11  1  0
  1 12  1  0
  2 13  1  0
  3 14  1  0
  3 15  1  0
  3 16  1  0
  4 17  1  0
  5 18  1  0
  5 19  1  0
  7 20  1  0
  7 21  1  0
  8 22  1  0
  9 23  1  0
  9 24  1  0
  9 25  1  0
M  END
