
     RDKit          3D

 23 24  0  0  0  0  0  0  0  0999 V2000
   -1.6230   -1.0852   -0.6623 C   0  0  0  0  0  0  0  0  0  0  0  0
   -1.4800    0.0568    0.2835 C   0  0  0  0  0  0  0  0  0  0  0  0
   -2.1705    1.2633   -0.3421 C   0  0  0  0  0  0  0  0  0  0  0  0
   -0.0433    0.4344    0.5675 C   0  0  0  0  0  0  0  0  0  0  0  0
    0.8966   -0.5311    1.1657 C   0  0  0  0  0  0  0  0  0  0  0  0
    0.7642   -1.8501    0.6980 O   0  0  0  0  0  0  0  0  0  0  0  0
    1.5741   -1.4072   -0.3669 C   0  0  0  0  0  0  0  0  0  0  0  0
    1.0676   -0.0161   -0.2738 C   0  0  0  0  0  0  0  0  0  0  0  0
    2.1444    1.0499   -0.5004 C   0  0  0  0  0  0  0  0  0  0  0  0
   -1.7711   -2.0220   -0.0566 H   0  0  0  0  0  0  0  0  0  0  0  0
   -2.5672   -1.0043   -1.2745 H   0  0  0  0  0  0  0  0  0  0  0  0
   -0.8046   -1.2100   -1.3643 H   0  0  0  0  0  0  0  0  0  0  0  0
   -1.9968   -0.1255    1.2570 H   0  0  0  0  0  0  0  0  0  0  0  0
   -1.7239    2.2130    0.0573 H   0  0  0  0  0  0  0  0  0  0  0  0
   -2.0665    1.2709   -1.4406 H   0  0  0  0  0  0  0  0  0  0  0  0
   -3.2459    1.3031   -0.0581 H   0  0  0  0  0  0  0  0  0  0  0  0
    0.0052    1.4466    1.0757 H   0  0  0  0  0  0  0  0  0  0  0  0
    1.7023   -0.2570    1.8322 H   0  0  0  0  0  0  0  0  0  0  0  0
    1.4764   -1.9511   -1.2983 H   0  0  0  0  0  0  0  0  0  0  0  0
    2.6390   -1.4658    0.0090 H   0  0  0  0  0  0  0  0  0  0  0  0
    2.0926    1.2810   -1.5842 H   0  0  0  0  0  0  0  0  0  0  0  0
    1.9750    1.9489    0.0960 H   0  0  0  0  0  0  0  0  0  0  0  0
    3.1554    0.6576   -0.2995 H   0  0  0  0  0  0  0  0  0  0  0  0
  1  2  1  0
  2  3  1  0
  2  4  1  0
  4  5  1  0
  5  6  1  0
  6  7  1  0
  7  8  1  0
  8  9  1  0
  8  4  1  0
  8  5  1  0
  1 10  1  0
  1 11  1  0
  1 12  1  0
  2 13  1  0
  3 14  1  0
  3 15  1  0
  3 16  1  0
  4 17  1  0
  5 18  1  0
  7 19  1  0
  7 20  1  0
  9 21  1  0
  9 22  1  0
  9 23  1  0
M  END
