
     RDKit          3D

 19 19  0  0  0  0  0  0  0  0999 V2000
   -1.3365   -1.1403   -0.3373 C   0  0  0  0  0  0  0  0  0  0  0  0
   -0.6424   -0.0683    0.4789 C   0  0  0  0  0  0  0  0  0  0  0  0
   -1.4556    1.1948    0.3368 C   0  0  0  0  0  0  0  0  0  0  0  0
    0.7662    0.0892    0.0263 C   0  0  0  0  0  0  0  0  0  0  0  0
    1.6121   -1.1592    0.1514 C   0  0  0  0  0  0  0  0  0  0  0  0
    1.4230    1.3336   -0.2181 C   0  0  0  0  0  0  0  0  0  0  0  0
    0.7655    0.6496   -1.3631 O   0  0  0  0  0  0  0  0  0  0  0  0
   -1.6522   -0.7472   -1.3450 H   0  0  0  0  0  0  0  0  0  0  0  0
   -2.2830   -1.4774    0.1567 H   0  0  0  0  0  0  0  0  0  0  0  0
   -0.6434   -1.9847   -0.4352 H   0  0  0  0  0  0  0  0  0  0  0  0
   -0.6445   -0.3997    1.5317 H   0  0  0  0  0  0  0  0  0  0  0  0
   -0.9164    2.0544    0.7748 H   0  0  0  0  0  0  0  0  0  0  0  0
   -2.3832    1.0538    0.9292 H   0  0  0  0  0  0  0  0  0  0  0  0
   -1.7189    1.3663   -0.7415 H   0  0  0  0  0  0  0  0  0  0  0  0
    2.5573   -0.9314    0.7041 H   0  0  0  0  0  0  0  0  0  0  0  0
    1.0801   -1.9902    0.6561 H   0  0  0  0  0  0  0  0  0  0  0  0
    1.9419   -1.5032   -0.8648 H   0  0  0  0  0  0  0  0  0  0  0  0
    1.0152    2.3352   -0.0280 H   0  0  0  0  0  0  0  0  0  0  0  0
    2.5147    1.3245   -0.4130 H   0  0  0  0  0  0  0  0  0  0  0  0
  1  2  1  0
  2  3  1  0
  2  4  1  0
  4  5  1  0
  4  6  1  0
  6  7  1  0
  7  4  1  0
  1  8  1  0
  1  9  1  0
  1 10  1  0
  2 11  1  0
  3 12  1  0
  3 13  1  0
  3 14  1  0
  5 15  1  0
  5 16  1  0
  5 17  1  0
  6 18  1  0
  6 19  1  0
M  END
