
     RDKit          3D

 23 24  0  0  0  0  0  0  0  0999 V2000
    2.0323   -0.8759    0.3341 C   0  0  0  0  0  0  0  0  0  0  0  0
    1.1815    0.2045   -0.2517 C   0  0  0  0  0  0  0  0  0  0  0  0
    1.9282    1.5134   -0.1673 C   0  0  0  0  0  0  0  0  0  0  0  0
    0.8970   -0.1263   -1.5786 O   0  0  0  0  0  0  0  0  0  0  0  0
   -0.1173    0.3776    0.5436 C   0  0  0  0  0  0  0  0  0  0  0  0
   -1.0393   -0.6989    0.6744 C   0  0  0  0  0  0  0  0  0  0  0  0
   -2.1252   -1.1365   -0.3233 C   0  0  0  0  0  0  0  0  0  0  0  0
   -2.7479    0.1615    0.2393 C   0  0  0  0  0  0  0  0  0  0  0  0
   -1.3383    0.6462   -0.1194 C   0  0  0  0  0  0  0  0  0  0  0  0
    2.8750   -0.4661    0.9636 H   0  0  0  0  0  0  0  0  0  0  0  0
    2.4884   -1.5479   -0.4240 H   0  0  0  0  0  0  0  0  0  0  0  0
    1.3953   -1.4828    1.0083 H   0  0  0  0  0  0  0  0  0  0  0  0
    1.7416    1.9588    0.8516 H   0  0  0  0  0  0  0  0  0  0  0  0
    3.0227    1.3038   -0.2404 H   0  0  0  0  0  0  0  0  0  0  0  0
    1.6536    2.2119   -0.9751 H   0  0  0  0  0  0  0  0  0  0  0  0
    1.7539   -0.4824   -1.9508 H   0  0  0  0  0  0  0  0  0  0  0  0
    0.1211    1.0058    1.4561 H   0  0  0  0  0  0  0  0  0  0  0  0
   -1.5480   -0.7492    1.6892 H   0  0  0  0  0  0  0  0  0  0  0  0
   -1.8438   -1.0411   -1.3750 H   0  0  0  0  0  0  0  0  0  0  0  0
   -2.6292   -2.0496   -0.0219 H   0  0  0  0  0  0  0  0  0  0  0  0
   -2.9131    0.1396    1.3116 H   0  0  0  0  0  0  0  0  0  0  0  0
   -3.5157    0.6052   -0.3941 H   0  0  0  0  0  0  0  0  0  0  0  0
   -1.2727    0.5285   -1.2501 H   0  0  0  0  0  0  0  0  0  0  0  0
  1  2  1  0
  2  3  1  0
  2  4  1  0
  2  5  1  0
  5  6  1  0
  6  7  1  0
  7  8  1  0
  8  9  1  0
  9  5  1  0
  9  6  1  0
  1 10  1  0
  1 11  1  0
  1 12  1  0
  3 13  1  0
  3 14  1  0
  3 15  1  0
  4 16  1  0
  5 17  1  0
  6 18  1  0
  7 19  1  0
  7 20  1  0
  8 21  1  0
  8 22  1  0
  9 23  1  0
M  END
