
     RDKit          3D

 25 25  0  0  0  0  0  0  0  0999 V2000
   -2.4864   -0.0686    0.7769 C   0  0  0  0  0  0  0  0  0  0  0  0
   -1.0409    0.3636    0.5769 C   0  0  0  0  0  0  0  0  0  0  0  0
   -1.0247    1.5417   -0.3333 C   0  0  0  0  0  0  0  0  0  0  0  0
   -0.1999   -0.8010    0.1363 C   0  0  0  0  0  0  0  0  0  0  0  0
   -0.6661   -1.3912   -1.1671 C   0  0  0  0  0  0  0  0  0  0  0  0
    1.2591   -0.5990    0.2233 C   0  0  0  0  0  0  0  0  0  0  0  0
    1.9507    0.4674   -0.5234 C   0  0  0  0  0  0  0  0  0  0  0  0
    2.8911    0.2686    0.6803 C   0  0  0  0  0  0  0  0  0  0  0  0
    1.6952    0.0429    1.4063 O   0  0  0  0  0  0  0  0  0  0  0  0
   -2.5145   -1.1090    1.1500 H   0  0  0  0  0  0  0  0  0  0  0  0
   -2.9647    0.6369    1.4833 H   0  0  0  0  0  0  0  0  0  0  0  0
   -2.9831   -0.0388   -0.2069 H   0  0  0  0  0  0  0  0  0  0  0  0
   -0.6755    0.6579    1.5942 H   0  0  0  0  0  0  0  0  0  0  0  0
   -0.4986    2.4336    0.0863 H   0  0  0  0  0  0  0  0  0  0  0  0
   -2.0874    1.9134   -0.4400 H   0  0  0  0  0  0  0  0  0  0  0  0
   -0.6967    1.2985   -1.3605 H   0  0  0  0  0  0  0  0  0  0  0  0
   -0.4374   -1.6061    0.9110 H   0  0  0  0  0  0  0  0  0  0  0  0
   -1.5620   -0.8393   -1.5442 H   0  0  0  0  0  0  0  0  0  0  0  0
    0.1898   -1.2997   -1.8825 H   0  0  0  0  0  0  0  0  0  0  0  0
   -0.9079   -2.4614   -1.1187 H   0  0  0  0  0  0  0  0  0  0  0  0
    1.8761   -1.5462    0.1556 H   0  0  0  0  0  0  0  0  0  0  0  0
    2.4174    0.1622   -1.4831 H   0  0  0  0  0  0  0  0  0  0  0  0
    1.5552    1.4683   -0.6069 H   0  0  0  0  0  0  0  0  0  0  0  0
    3.4755   -0.6560    0.5041 H   0  0  0  0  0  0  0  0  0  0  0  0
    3.4359    1.1612    0.9821 H   0  0  0  0  0  0  0  0  0  0  0  0
  1  2  1  0
  2  3  1  0
  2  4  1  0
  4  5  1  0
  4  6  1  0
  6  7  1  0
  7  8  1  0
  8  9  1  0
  9  6  1  0
  1 10  1  0
  1 11  1  0
  1 12  1  0
  2 13  1  0
  3 14  1  0
  3 15  1  0
  3 16  1  0
  4 17  1  0
  5 18  1  0
  5 19  1  0
  5 20  1  0
  6 21  1  0
  7 22  1  0
  7 23  1  0
  8 24  1  0
  8 25  1  0
M  END
