
     RDKit          3D

 25 25  0  0  0  0  0  0  0  0999 V2000
   -2.8179   -0.6902   -0.1493 C   0  0  0  0  0  0  0  0  0  0  0  0
   -1.4938    0.0407   -0.3406 C   0  0  0  0  0  0  0  0  0  0  0  0
   -1.8137    1.5089   -0.1711 C   0  0  0  0  0  0  0  0  0  0  0  0
   -0.5493   -0.3233    0.5538 O   0  0  0  0  0  0  0  0  0  0  0  0
    0.6386   -0.8160    0.1600 C   0  0  0  0  0  0  0  0  0  0  0  0
    0.9640   -2.2170    0.5623 C   0  0  0  0  0  0  0  0  0  0  0  0
    1.7302    0.1575    0.5482 C   0  0  0  0  0  0  0  0  0  0  0  0
    1.6474    1.5717   -0.0574 C   0  0  0  0  0  0  0  0  0  0  0  0
    2.7715    0.6188   -0.3658 C   0  0  0  0  0  0  0  0  0  0  0  0
   -3.3721   -0.1889    0.6838 H   0  0  0  0  0  0  0  0  0  0  0  0
   -3.4331   -0.5409   -1.0591 H   0  0  0  0  0  0  0  0  0  0  0  0
   -2.6837   -1.7311    0.1436 H   0  0  0  0  0  0  0  0  0  0  0  0
   -1.1731   -0.0932   -1.4048 H   0  0  0  0  0  0  0  0  0  0  0  0
   -2.8433    1.6998    0.1902 H   0  0  0  0  0  0  0  0  0  0  0  0
   -1.1452    1.9864    0.6029 H   0  0  0  0  0  0  0  0  0  0  0  0
   -1.6398    2.0918   -1.1004 H   0  0  0  0  0  0  0  0  0  0  0  0
    0.6376   -0.8319   -0.9739 H   0  0  0  0  0  0  0  0  0  0  0  0
    0.1267   -2.8809    0.7082 H   0  0  0  0  0  0  0  0  0  0  0  0
    1.6849   -2.6941   -0.1332 H   0  0  0  0  0  0  0  0  0  0  0  0
    1.5139   -2.1526    1.5468 H   0  0  0  0  0  0  0  0  0  0  0  0
    1.8809    0.1811    1.6537 H   0  0  0  0  0  0  0  0  0  0  0  0
    1.8126    2.4320    0.6020 H   0  0  0  0  0  0  0  0  0  0  0  0
    0.9532    1.7430   -0.8982 H   0  0  0  0  0  0  0  0  0  0  0  0
    3.7424    0.9205    0.0767 H   0  0  0  0  0  0  0  0  0  0  0  0
    2.8610    0.2078   -1.3786 H   0  0  0  0  0  0  0  0  0  0  0  0
  1  2  1  0
  2  3  1  0
  2  4  1  0
  4  5  1  0
  5  6  1  0
  5  7  1  0
  7  8  1  0
  8  9  1  0
  9  7  1  0
  1 10  1  0
  1 11  1  0
  1 12  1  0
  2 13  1  0
  3 14  1  0
  3 15  1  0
  3 16  1  0
  5 17  1  0
  6 18  1  0
  6 19  1  0
  6 20  1  0
  7 21  1  0
  8 22  1  0
  8 23  1  0
  9 24  1  0
  9 25  1  0
M  END
