
     RDKit          3D

 21 21  0  0  0  0  0  0  0  0999 V2000
    0.9281   -1.2278   -0.9421 C   0  0  0  0  0  0  0  0  0  0  0  0
    0.8048    0.2016   -0.5288 C   0  0  0  0  0  0  0  0  0  0  0  0
    1.9847    0.6922    0.2714 C   0  0  0  0  0  0  0  0  0  0  0  0
    2.1888   -0.0033    1.4366 O   0  0  0  0  0  0  0  0  0  0  0  0
   -0.4844    0.4710    0.1807 C   0  0  0  0  0  0  0  0  0  0  0  0
   -1.7571    0.1983   -0.5869 C   0  0  0  0  0  0  0  0  0  0  0  0
   -2.7344    1.1809   -0.4816 O   0  0  0  0  0  0  0  0  0  0  0  0
   -1.3857   -0.6075    0.6296 C   0  0  0  0  0  0  0  0  0  0  0  0
   -2.1970   -0.3531    1.7384 O   0  0  0  0  0  0  0  0  0  0  0  0
    1.8672   -1.4111   -1.4812 H   0  0  0  0  0  0  0  0  0  0  0  0
    0.7889   -1.9453   -0.1143 H   0  0  0  0  0  0  0  0  0  0  0  0
    0.1070   -1.4271   -1.6820 H   0  0  0  0  0  0  0  0  0  0  0  0
    0.7898    0.8149   -1.4719 H   0  0  0  0  0  0  0  0  0  0  0  0
    1.7697    1.7545    0.5502 H   0  0  0  0  0  0  0  0  0  0  0  0
    2.9196    0.7152   -0.3147 H   0  0  0  0  0  0  0  0  0  0  0  0
    3.0638    0.2762    1.8042 H   0  0  0  0  0  0  0  0  0  0  0  0
   -0.4606    1.3887    0.8212 H   0  0  0  0  0  0  0  0  0  0  0  0
   -1.6740   -0.3403   -1.5650 H   0  0  0  0  0  0  0  0  0  0  0  0
   -2.2770    2.0521   -0.3764 H   0  0  0  0  0  0  0  0  0  0  0  0
   -1.1474   -1.6842    0.4725 H   0  0  0  0  0  0  0  0  0  0  0  0
   -3.0947   -0.7459    1.6402 H   0  0  0  0  0  0  0  0  0  0  0  0
  1  2  1  0
  2  3  1  0
  3  4  1  0
  2  5  1  0
  5  6  1  0
  6  7  1  0
  6  8  1  0
  8  9  1  0
  8  5  1  0
  1 10  1  0
  1 11  1  0
  1 12  1  0
  2 13  1  0
  3 14  1  0
  3 15  1  0
  4 16  1  0
  5 17  1  0
  6 18  1  0
  7 19  1  0
  8 20  1  0
  9 21  1  0
M  END
