
     RDKit          3D

 23 23  0  0  0  0  0  0  0  0999 V2000
   -1.7666    1.2731    0.4772 C   0  0  0  0  0  0  0  0  0  0  0  0
   -0.9919    0.3246   -0.4190 C   0  0  0  0  0  0  0  0  0  0  0  0
   -1.8996   -0.8692   -0.6998 C   0  0  0  0  0  0  0  0  0  0  0  0
    0.1776   -0.1934    0.3695 C   0  0  0  0  0  0  0  0  0  0  0  0
   -0.1510   -0.8826    1.5250 O   0  0  0  0  0  0  0  0  0  0  0  0
    1.2668    0.8324    0.6374 C   0  0  0  0  0  0  0  0  0  0  0  0
    2.2433   -0.3485    0.5106 C   0  0  0  0  0  0  0  0  0  0  0  0
    1.2159   -0.9380   -0.4663 C   0  0  0  0  0  0  0  0  0  0  0  0
    1.4051   -0.3718   -1.7217 O   0  0  0  0  0  0  0  0  0  0  0  0
   -1.2476    2.2319    0.6124 H   0  0  0  0  0  0  0  0  0  0  0  0
   -1.8844    0.7481    1.4535 H   0  0  0  0  0  0  0  0  0  0  0  0
   -2.7874    1.4595    0.0950 H   0  0  0  0  0  0  0  0  0  0  0  0
   -0.6262    0.8019   -1.3356 H   0  0  0  0  0  0  0  0  0  0  0  0
   -1.4762   -1.5224   -1.5009 H   0  0  0  0  0  0  0  0  0  0  0  0
   -1.9603   -1.4228    0.2831 H   0  0  0  0  0  0  0  0  0  0  0  0
   -2.9284   -0.5577   -0.9303 H   0  0  0  0  0  0  0  0  0  0  0  0
   -0.1304   -0.2224    2.2769 H   0  0  0  0  0  0  0  0  0  0  0  0
    1.3751    1.5519   -0.2052 H   0  0  0  0  0  0  0  0  0  0  0  0
    1.2203    1.2638    1.6401 H   0  0  0  0  0  0  0  0  0  0  0  0
    3.2075   -0.1026    0.0740 H   0  0  0  0  0  0  0  0  0  0  0  0
    2.2454   -0.8774    1.4905 H   0  0  0  0  0  0  0  0  0  0  0  0
    1.1307   -2.0252   -0.4423 H   0  0  0  0  0  0  0  0  0  0  0  0
    2.3623   -0.1532   -1.8176 H   0  0  0  0  0  0  0  0  0  0  0  0
  1  2  1  0
  2  3  1  0
  2  4  1  0
  4  5  1  0
  4  6  1  0
  6  7  1  0
  7  8  1  0
  8  9  1  0
  8  4  1  0
  1 10  1  0
  1 11  1  0
  1 12  1  0
  2 13  1  0
  3 14  1  0
  3 15  1  0
  3 16  1  0
  5 17  1  0
  6 18  1  0
  6 19  1  0
  7 20  1  0
  7 21  1  0
  8 22  1  0
  9 23  1  0
M  END
