
     RDKit          3D

 21 21  0  0  0  0  0  0  0  0999 V2000
   -1.7296    0.6617    0.8243 C   0  0  0  0  0  0  0  0  0  0  0  0
   -1.2051   -0.4240   -0.0910 C   0  0  0  0  0  0  0  0  0  0  0  0
   -2.2055   -0.6257   -1.2044 C   0  0  0  0  0  0  0  0  0  0  0  0
    0.1238   -0.0401   -0.5663 C   0  0  0  0  0  0  0  0  0  0  0  0
    0.3534    0.1014   -1.7571 O   0  0  0  0  0  0  0  0  0  0  0  0
    1.2238    0.1869    0.3790 C   0  0  0  0  0  0  0  0  0  0  0  0
    0.8950    0.0086    1.7218 O   0  0  0  0  0  0  0  0  0  0  0  0
    2.5424   -0.4739   -0.0716 C   0  0  0  0  0  0  0  0  0  0  0  0
    2.4070    1.0052    0.0160 C   0  0  0  0  0  0  0  0  0  0  0  0
   -1.2799    1.6244    0.4635 H   0  0  0  0  0  0  0  0  0  0  0  0
   -2.8451    0.7380    0.7365 H   0  0  0  0  0  0  0  0  0  0  0  0
   -1.4010    0.4271    1.8423 H   0  0  0  0  0  0  0  0  0  0  0  0
   -1.1834   -1.3638    0.4929 H   0  0  0  0  0  0  0  0  0  0  0  0
   -3.1795   -0.8665   -0.7068 H   0  0  0  0  0  0  0  0  0  0  0  0
   -1.9420   -1.4951   -1.8213 H   0  0  0  0  0  0  0  0  0  0  0  0
   -2.3833    0.3003   -1.7866 H   0  0  0  0  0  0  0  0  0  0  0  0
    0.8155   -0.9658    1.9388 H   0  0  0  0  0  0  0  0  0  0  0  0
    3.0646   -1.0473    0.7025 H   0  0  0  0  0  0  0  0  0  0  0  0
    2.6039   -0.8732   -1.0981 H   0  0  0  0  0  0  0  0  0  0  0  0
    2.9011    1.5083    0.8913 H   0  0  0  0  0  0  0  0  0  0  0  0
    2.4237    1.6134   -0.9058 H   0  0  0  0  0  0  0  0  0  0  0  0
  1  2  1  0
  2  3  1  0
  2  4  1  0
  4  5  2  0
  4  6  1  0
  6  7  1  0
  6  8  1  0
  8  9  1  0
  9  6  1  0
  1 10  1  0
  1 11  1  0
  1 12  1  0
  2 13  1  0
  3 14  1  0
  3 15  1  0
  3 16  1  0
  7 17  1  0
  8 18  1  0
  8 19  1  0
  9 20  1  0
  9 21  1  0
M  END
