
     RDKit          3D

 20 19  0  0  0  0  0  0  0  0999 V2000
   -1.3891    0.2181   -1.1214 C   0  0  0  0  0  0  0  0  0  0  0  0
   -0.7502   -0.7215   -0.1731 C   0  0  0  0  0  0  0  0  0  0  0  0
   -1.6910   -1.1186    0.8994 C   0  0  0  0  0  0  0  0  0  0  0  0
   -2.4449   -0.2769    1.3472 O   0  0  0  0  0  0  0  0  0  0  0  0
    0.5363   -0.2372    0.4285 C   0  0  0  0  0  0  0  0  0  0  0  0
    0.4023    1.0274    1.2066 C   0  0  0  0  0  0  0  0  0  0  0  0
    1.5611   -0.1268   -0.6891 C   0  0  0  0  0  0  0  0  0  0  0  0
    2.7884    0.3157   -0.2279 O   0  0  0  0  0  0  0  0  0  0  0  0
   -1.0174    0.1551   -2.1668 H   0  0  0  0  0  0  0  0  0  0  0  0
   -2.4902   -0.0220   -1.1537 H   0  0  0  0  0  0  0  0  0  0  0  0
   -1.3342    1.2852   -0.8415 H   0  0  0  0  0  0  0  0  0  0  0  0
   -0.5035   -1.6632   -0.7358 H   0  0  0  0  0  0  0  0  0  0  0  0
   -1.7341   -2.1250    1.2994 H   0  0  0  0  0  0  0  0  0  0  0  0
    0.8918   -1.0407    1.1213 H   0  0  0  0  0  0  0  0  0  0  0  0
    0.8244    1.9177    0.6588 H   0  0  0  0  0  0  0  0  0  0  0  0
   -0.6541    1.2190    1.4829 H   0  0  0  0  0  0  0  0  0  0  0  0
    0.9454    0.9419    2.1936 H   0  0  0  0  0  0  0  0  0  0  0  0
    1.1704    0.4688   -1.5401 H   0  0  0  0  0  0  0  0  0  0  0  0
    1.7304   -1.1686   -1.0813 H   0  0  0  0  0  0  0  0  0  0  0  0
    3.1585    0.9516   -0.9071 H   0  0  0  0  0  0  0  0  0  0  0  0
  1  2  1  0
  2  3  1  0
  3  4  2  0
  2  5  1  0
  5  6  1  0
  5  7  1  0
  7  8  1  0
  1  9  1  0
  1 10  1  0
  1 11  1  0
  2 12  1  0
  3 13  1  0
  5 14  1  0
  6 15  1  0
  6 16  1  0
  6 17  1  0
  7 18  1  0
  7 19  1  0
  8 20  1  0
M  END
