
     RDKit          3D

 23 23  0  0  0  0  0  0  0  0999 V2000
   -2.4328    0.3630    0.8729 C   0  0  0  0  0  0  0  0  0  0  0  0
   -1.5788    0.0367   -0.3348 C   0  0  0  0  0  0  0  0  0  0  0  0
   -2.1379    0.7052   -1.5693 C   0  0  0  0  0  0  0  0  0  0  0  0
   -0.2432    0.2740   -0.1416 O   0  0  0  0  0  0  0  0  0  0  0  0
    0.5146   -0.9132   -0.2276 C   0  0  0  0  0  0  0  0  0  0  0  0
    1.9697   -0.6059   -0.0101 C   0  0  0  0  0  0  0  0  0  0  0  0
    2.8123   -1.7071   -0.0732 O   0  0  0  0  0  0  0  0  0  0  0  0
    2.2411    0.4714    1.0199 C   0  0  0  0  0  0  0  0  0  0  0  0
    2.5528    0.6925   -0.4162 C   0  0  0  0  0  0  0  0  0  0  0  0
   -3.4775    0.5837    0.5152 H   0  0  0  0  0  0  0  0  0  0  0  0
   -2.3993   -0.4959    1.5517 H   0  0  0  0  0  0  0  0  0  0  0  0
   -2.0834    1.3095    1.3576 H   0  0  0  0  0  0  0  0  0  0  0  0
   -1.7062   -1.0718   -0.5141 H   0  0  0  0  0  0  0  0  0  0  0  0
   -3.1060    0.2013   -1.7927 H   0  0  0  0  0  0  0  0  0  0  0  0
   -2.3296    1.7687   -1.4548 H   0  0  0  0  0  0  0  0  0  0  0  0
   -1.4246    0.5723   -2.4066 H   0  0  0  0  0  0  0  0  0  0  0  0
    0.3250   -1.4206   -1.2053 H   0  0  0  0  0  0  0  0  0  0  0  0
    0.2113   -1.6253    0.5761 H   0  0  0  0  0  0  0  0  0  0  0  0
    2.3425   -2.5238   -0.3778 H   0  0  0  0  0  0  0  0  0  0  0  0
    1.4002    1.0021    1.4913 H   0  0  0  0  0  0  0  0  0  0  0  0
    3.0840    0.2978    1.7373 H   0  0  0  0  0  0  0  0  0  0  0  0
    1.8753    1.3647   -0.9959 H   0  0  0  0  0  0  0  0  0  0  0  0
    3.5903    0.7206   -0.7934 H   0  0  0  0  0  0  0  0  0  0  0  0
  1  2  1  0
  2  3  1  0
  2  4  1  0
  4  5  1  0
  5  6  1  0
  6  7  1  0
  6  8  1  0
  8  9  1  0
  9  6  1  0
  1 10  1  0
  1 11  1  0
  1 12  1  0
  2 13  1  0
  3 14  1  0
  3 15  1  0
  3 16  1  0
  5 17  1  0
  5 18  1  0
  7 19  1  0
  8 20  1  0
  8 21  1  0
  9 22  1  0
  9 23  1  0
M  END
