
     RDKit          3D

 23 23  0  0  0  0  0  0  0  0999 V2000
   -1.0844    0.4560   -1.3209 C   0  0  0  0  0  0  0  0  0  0  0  0
   -0.7194   -0.0011    0.0582 C   0  0  0  0  0  0  0  0  0  0  0  0
   -1.2435   -1.4179    0.1993 C   0  0  0  0  0  0  0  0  0  0  0  0
   -1.4715    0.8557    1.0491 C   0  0  0  0  0  0  0  0  0  0  0  0
    0.7553   -0.0265    0.3154 C   0  0  0  0  0  0  0  0  0  0  0  0
    1.0982   -0.4519    1.5992 O   0  0  0  0  0  0  0  0  0  0  0  0
    1.6096   -0.4471   -0.8362 C   0  0  0  0  0  0  0  0  0  0  0  0
    1.6803    0.9554   -0.2899 C   0  0  0  0  0  0  0  0  0  0  0  0
    2.8791    1.2363    0.3868 O   0  0  0  0  0  0  0  0  0  0  0  0
   -2.2044    0.5073   -1.3567 H   0  0  0  0  0  0  0  0  0  0  0  0
   -0.8019   -0.2626   -2.1175 H   0  0  0  0  0  0  0  0  0  0  0  0
   -0.7422    1.4895   -1.5478 H   0  0  0  0  0  0  0  0  0  0  0  0
   -0.4635   -2.0777   -0.2625 H   0  0  0  0  0  0  0  0  0  0  0  0
   -1.3670   -1.6138    1.2828 H   0  0  0  0  0  0  0  0  0  0  0  0
   -2.2144   -1.5324   -0.3496 H   0  0  0  0  0  0  0  0  0  0  0  0
   -0.8491    1.6846    1.4293 H   0  0  0  0  0  0  0  0  0  0  0  0
   -2.3911    1.2976    0.6113 H   0  0  0  0  0  0  0  0  0  0  0  0
   -1.7922    0.2595    1.9264 H   0  0  0  0  0  0  0  0  0  0  0  0
    1.2342   -1.4131    1.6716 H   0  0  0  0  0  0  0  0  0  0  0  0
    2.4255   -1.1672   -0.6011 H   0  0  0  0  0  0  0  0  0  0  0  0
    1.1972   -0.5589   -1.8393 H   0  0  0  0  0  0  0  0  0  0  0  0
    1.3294    1.8046   -0.9021 H   0  0  0  0  0  0  0  0  0  0  0  0
    3.1357    0.4239    0.8941 H   0  0  0  0  0  0  0  0  0  0  0  0
  1  2  1  0
  2  3  1  0
  2  4  1  0
  2  5  1  0
  5  6  1  0
  5  7  1  0
  7  8  1  0
  8  9  1  0
  8  5  1  0
  1 10  1  0
  1 11  1  0
  1 12  1  0
  3 13  1  0
  3 14  1  0
  3 15  1  0
  4 16  1  0
  4 17  1  0
  4 18  1  0
  6 19  1  0
  7 20  1  0
  7 21  1  0
  8 22  1  0
  9 23  1  0
M  END
