
     RDKit          3D

 23 23  0  0  0  0  0  0  0  0999 V2000
   -1.0891   -1.4627   -0.1074 C   0  0  0  0  0  0  0  0  0  0  0  0
   -0.6463   -0.0515   -0.0430 C   0  0  0  0  0  0  0  0  0  0  0  0
   -1.0200    0.6451   -1.3405 C   0  0  0  0  0  0  0  0  0  0  0  0
   -1.4198    0.6505    1.0827 C   0  0  0  0  0  0  0  0  0  0  0  0
    0.8026    0.1682    0.1983 C   0  0  0  0  0  0  0  0  0  0  0  0
    1.2075    1.5958    0.2562 C   0  0  0  0  0  0  0  0  0  0  0  0
    2.3662    1.9283    0.4481 O   0  0  0  0  0  0  0  0  0  0  0  0
    1.6735   -0.8080    0.8733 C   0  0  0  0  0  0  0  0  0  0  0  0
    1.7802   -0.6786   -0.6177 C   0  0  0  0  0  0  0  0  0  0  0  0
   -2.1514   -1.5112    0.2642 H   0  0  0  0  0  0  0  0  0  0  0  0
   -1.1527   -1.8206   -1.1691 H   0  0  0  0  0  0  0  0  0  0  0  0
   -0.5014   -2.1834    0.4536 H   0  0  0  0  0  0  0  0  0  0  0  0
   -0.1269    0.8972   -1.9446 H   0  0  0  0  0  0  0  0  0  0  0  0
   -1.5231    1.6235   -1.1304 H   0  0  0  0  0  0  0  0  0  0  0  0
   -1.7004    0.0357   -1.9476 H   0  0  0  0  0  0  0  0  0  0  0  0
   -2.2234    1.2851    0.6877 H   0  0  0  0  0  0  0  0  0  0  0  0
   -1.9078   -0.1023    1.7477 H   0  0  0  0  0  0  0  0  0  0  0  0
   -0.7530    1.2692    1.6960 H   0  0  0  0  0  0  0  0  0  0  0  0
    0.4840    2.3868    0.1293 H   0  0  0  0  0  0  0  0  0  0  0  0
    1.3425   -1.7855    1.2321 H   0  0  0  0  0  0  0  0  0  0  0  0
    2.5141   -0.3854    1.4901 H   0  0  0  0  0  0  0  0  0  0  0  0
    2.7043   -0.2393   -0.9856 H   0  0  0  0  0  0  0  0  0  0  0  0
    1.3406   -1.4570   -1.2735 H   0  0  0  0  0  0  0  0  0  0  0  0
  1  2  1  0
  2  3  1  0
  2  4  1  0
  2  5  1  0
  5  6  1  0
  6  7  2  0
  5  8  1  0
  8  9  1  0
  9  5  1  0
  1 10  1  0
  1 11  1  0
  1 12  1  0
  3 13  1  0
  3 14  1  0
  3 15  1  0
  4 16  1  0
  4 17  1  0
  4 18  1  0
  6 19  1  0
  8 20  1  0
  8 21  1  0
  9 22  1  0
  9 23  1  0
M  END
