
     RDKit          3D

 21 20  0  0  0  0  0  0  0  0999 V2000
   -1.5559    0.6671    0.8871 C   0  0  0  0  0  0  0  0  0  0  0  0
   -0.8832   -0.1022   -0.2115 C   0  0  0  0  0  0  0  0  0  0  0  0
   -1.7509   -1.3308   -0.5163 C   0  0  0  0  0  0  0  0  0  0  0  0
   -0.8815    0.7331   -1.4662 C   0  0  0  0  0  0  0  0  0  0  0  0
    0.3716   -0.6045    0.1271 O   0  0  0  0  0  0  0  0  0  0  0  0
    1.4673    0.1538    0.5158 C   0  0  0  0  0  0  0  0  0  0  0  0
    1.2734    1.3908    0.5534 O   0  0  0  0  0  0  0  0  0  0  0  0
    2.7750   -0.4755    0.8607 C   0  0  0  0  0  0  0  0  0  0  0  0
    3.7284    0.4318    1.2180 O   0  0  0  0  0  0  0  0  0  0  0  0
   -1.9201   -0.0934    1.6386 H   0  0  0  0  0  0  0  0  0  0  0  0
   -0.9106    1.4124    1.3804 H   0  0  0  0  0  0  0  0  0  0  0  0
   -2.4788    1.1314    0.4816 H   0  0  0  0  0  0  0  0  0  0  0  0
   -1.1880   -1.8754   -1.3170 H   0  0  0  0  0  0  0  0  0  0  0  0
   -2.7424   -1.0531   -0.8851 H   0  0  0  0  0  0  0  0  0  0  0  0
   -1.7508   -1.9941    0.3590 H   0  0  0  0  0  0  0  0  0  0  0  0
   -0.7283    1.8046   -1.2393 H   0  0  0  0  0  0  0  0  0  0  0  0
   -1.8893    0.6543   -1.9368 H   0  0  0  0  0  0  0  0  0  0  0  0
   -0.1615    0.3474   -2.2234 H   0  0  0  0  0  0  0  0  0  0  0  0
    2.5650   -1.1226    1.7570 H   0  0  0  0  0  0  0  0  0  0  0  0
    3.1686   -1.1092    0.0463 H   0  0  0  0  0  0  0  0  0  0  0  0
    3.4921    1.0343    1.9412 H   0  0  0  0  0  0  0  0  0  0  0  0
  1  2  1  0
  2  3  1  0
  2  4  1  0
  2  5  1  0
  5  6  1  0
  6  7  2  0
  6  8  1  0
  8  9  1  0
  1 10  1  0
  1 11  1  0
  1 12  1  0
  3 13  1  0
  3 14  1  0
  3 15  1  0
  4 16  1  0
  4 17  1  0
  4 18  1  0
  8 19  1  0
  8 20  1  0
  9 21  1  0
M  END
