
     RDKit          3D

 20 20  0  0  0  0  0  0  0  0999 V2000
    1.5778   -1.3314   -0.2183 C   0  0  0  0  0  0  0  0  0  0  0  0
    1.1090   -0.0721    0.4624 C   0  0  0  0  0  0  0  0  0  0  0  0
    1.8735    1.0818   -0.2055 C   0  0  0  0  0  0  0  0  0  0  0  0
   -0.3329    0.1415    0.0985 C   0  0  0  0  0  0  0  0  0  0  0  0
   -1.2135   -0.9796    0.5226 C   0  0  0  0  0  0  0  0  0  0  0  0
   -2.3978   -0.4351    0.7846 C   0  0  0  0  0  0  0  0  0  0  0  0
   -2.2464    1.0415    0.5187 C   0  0  0  0  0  0  0  0  0  0  0  0
   -0.8935    1.2148    0.8173 O   0  0  0  0  0  0  0  0  0  0  0  0
    2.6591   -1.2366   -0.3980 H   0  0  0  0  0  0  0  0  0  0  0  0
    1.3298   -2.2329    0.3879 H   0  0  0  0  0  0  0  0  0  0  0  0
    1.0693   -1.3898   -1.2067 H   0  0  0  0  0  0  0  0  0  0  0  0
    1.3152   -0.0354    1.5284 H   0  0  0  0  0  0  0  0  0  0  0  0
    2.9544    0.9238    0.0102 H   0  0  0  0  0  0  0  0  0  0  0  0
    1.7103    0.9371   -1.3000 H   0  0  0  0  0  0  0  0  0  0  0  0
    1.5225    2.0565    0.1510 H   0  0  0  0  0  0  0  0  0  0  0  0
   -0.4600    0.3910   -0.9654 H   0  0  0  0  0  0  0  0  0  0  0  0
   -1.0067   -2.0394    0.6219 H   0  0  0  0  0  0  0  0  0  0  0  0
   -3.3017   -0.9109    1.1186 H   0  0  0  0  0  0  0  0  0  0  0  0
   -2.9002    1.6377    1.1767 H   0  0  0  0  0  0  0  0  0  0  0  0
   -2.3682    1.2376   -0.5512 H   0  0  0  0  0  0  0  0  0  0  0  0
  1  2  1  0
  2  3  1  0
  2  4  1  0
  4  5  1  0
  5  6  2  0
  6  7  1  0
  7  8  1  0
  8  4  1  0
  1  9  1  0
  1 10  1  0
  1 11  1  0
  2 12  1  0
  3 13  1  0
  3 14  1  0
  3 15  1  0
  4 16  1  0
  5 17  1  0
  6 18  1  0
  7 19  1  0
  7 20  1  0
M  END
