
     RDKit          3D

 22 23  0  0  0  0  0  0  0  0999 V2000
    1.6552   -1.1391    0.3059 C   0  0  0  0  0  0  0  0  0  0  0  0
    0.7447    0.0836    0.4894 C   0  0  0  0  0  0  0  0  0  0  0  0
    1.6610    1.2732    0.2439 C   0  0  0  0  0  0  0  0  0  0  0  0
   -0.3290    0.0116   -0.5195 C   0  0  0  0  0  0  0  0  0  0  0  0
   -1.2633    1.1820   -0.4271 C   0  0  0  0  0  0  0  0  0  0  0  0
   -1.8867    0.3394    0.6832 C   0  0  0  0  0  0  0  0  0  0  0  0
   -1.6780   -0.7316   -0.2965 C   0  0  0  0  0  0  0  0  0  0  0  0
   -0.5727   -1.3300   -0.9483 C   0  0  0  0  0  0  0  0  0  0  0  0
    2.6818   -0.8729    0.6948 H   0  0  0  0  0  0  0  0  0  0  0  0
    1.3280   -1.9888    0.9376 H   0  0  0  0  0  0  0  0  0  0  0  0
    1.6904   -1.3797   -0.7726 H   0  0  0  0  0  0  0  0  0  0  0  0
    0.4719   -0.0106    1.5518 H   0  0  0  0  0  0  0  0  0  0  0  0
    1.2580    2.2060    0.6576 H   0  0  0  0  0  0  0  0  0  0  0  0
    2.6284    1.0359    0.7267 H   0  0  0  0  0  0  0  0  0  0  0  0
    1.8490    1.3044   -0.8444 H   0  0  0  0  0  0  0  0  0  0  0  0
   -0.7814    2.0996   -0.1132 H   0  0  0  0  0  0  0  0  0  0  0  0
   -1.9895    1.2500   -1.2637 H   0  0  0  0  0  0  0  0  0  0  0  0
   -1.4266    0.3620    1.6535 H   0  0  0  0  0  0  0  0  0  0  0  0
   -2.9770    0.5989    0.8482 H   0  0  0  0  0  0  0  0  0  0  0  0
   -2.4715   -0.5525   -1.1122 H   0  0  0  0  0  0  0  0  0  0  0  0
   -0.1543   -2.2492   -0.4333 H   0  0  0  0  0  0  0  0  0  0  0  0
   -0.4384   -1.4923   -2.0617 H   0  0  0  0  0  0  0  0  0  0  0  0
  1  2  1  0
  2  3  1  0
  2  4  1  0
  4  5  1  0
  5  6  1  0
  6  7  1  0
  7  8  1  0
  7  4  1  0
  8  4  1  0
  1  9  1  0
  1 10  1  0
  1 11  1  0
  2 12  1  0
  3 13  1  0
  3 14  1  0
  3 15  1  0
  5 16  1  0
  5 17  1  0
  6 18  1  0
  6 19  1  0
  7 20  1  0
  8 21  1  0
  8 22  1  0
M  END
