
     RDKit          3D

 23 24  0  0  0  0  0  0  0  0999 V2000
   -2.1983   -0.6035   -0.5700 C   0  0  0  0  0  0  0  0  0  0  0  0
   -1.0780   -0.3896    0.4063 C   0  0  0  0  0  0  0  0  0  0  0  0
   -1.4771    0.7099    1.3942 C   0  0  0  0  0  0  0  0  0  0  0  0
    0.2120   -0.0127   -0.2065 C   0  0  0  0  0  0  0  0  0  0  0  0
    0.4130    1.2025   -1.0299 C   0  0  0  0  0  0  0  0  0  0  0  0
    0.9807    0.3885   -2.0279 O   0  0  0  0  0  0  0  0  0  0  0  0
    0.8901   -0.7560   -1.2627 C   0  0  0  0  0  0  0  0  0  0  0  0
    1.4259   -0.8195    0.1137 C   0  0  0  0  0  0  0  0  0  0  0  0
    2.6251   -0.0297    0.5438 C   0  0  0  0  0  0  0  0  0  0  0  0
   -2.5891   -1.6446   -0.4643 H   0  0  0  0  0  0  0  0  0  0  0  0
   -1.8770   -0.4936   -1.6097 H   0  0  0  0  0  0  0  0  0  0  0  0
   -3.0403    0.1043   -0.3568 H   0  0  0  0  0  0  0  0  0  0  0  0
   -0.9270   -1.3037    1.0215 H   0  0  0  0  0  0  0  0  0  0  0  0
   -0.8886    0.5450    2.3269 H   0  0  0  0  0  0  0  0  0  0  0  0
   -1.1682    1.7097    1.0030 H   0  0  0  0  0  0  0  0  0  0  0  0
   -2.5422    0.6832    1.6395 H   0  0  0  0  0  0  0  0  0  0  0  0
    1.2145    1.8820   -0.6550 H   0  0  0  0  0  0  0  0  0  0  0  0
   -0.4656    1.7743   -1.3404 H   0  0  0  0  0  0  0  0  0  0  0  0
    0.4929   -1.6807   -1.7206 H   0  0  0  0  0  0  0  0  0  0  0  0
    1.2335   -1.7508    0.6634 H   0  0  0  0  0  0  0  0  0  0  0  0
    3.2386    0.3339   -0.2893 H   0  0  0  0  0  0  0  0  0  0  0  0
    3.2639   -0.6549    1.2126 H   0  0  0  0  0  0  0  0  0  0  0  0
    2.2612    0.8059    1.2083 H   0  0  0  0  0  0  0  0  0  0  0  0
  1  2  1  0
  2  3  1  0
  2  4  1  0
  4  5  1  0
  5  6  1  0
  6  7  1  0
  7  8  1  0
  8  9  1  0
  7  4  1  0
  8  4  1  0
  1 10  1  0
  1 11  1  0
  1 12  1  0
  2 13  1  0
  3 14  1  0
  3 15  1  0
  3 16  1  0
  5 17  1  0
  5 18  1  0
  7 19  1  0
  8 20  1  0
  9 21  1  0
  9 22  1  0
  9 23  1  0
M  END
