
     RDKit          3D

 23 23  0  0  0  0  0  0  0  0999 V2000
   -1.5152   -0.7921    1.3977 C   0  0  0  0  0  0  0  0  0  0  0  0
   -1.3793   -0.1226    0.0845 C   0  0  0  0  0  0  0  0  0  0  0  0
   -2.5301   -0.5382   -0.8026 C   0  0  0  0  0  0  0  0  0  0  0  0
   -0.1851   -0.3473   -0.5679 O   0  0  0  0  0  0  0  0  0  0  0  0
    0.5572    0.7727   -0.8146 C   0  0  0  0  0  0  0  0  0  0  0  0
    1.1600    0.7521   -2.1839 C   0  0  0  0  0  0  0  0  0  0  0  0
    2.2259    0.0081   -1.6793 O   0  0  0  0  0  0  0  0  0  0  0  0
    1.9977    0.6323   -0.4506 C   0  0  0  0  0  0  0  0  0  0  0  0
    2.3126   -0.2824    0.7016 C   0  0  0  0  0  0  0  0  0  0  0  0
   -2.4155   -1.4363    1.3939 H   0  0  0  0  0  0  0  0  0  0  0  0
   -1.6849   -0.0697    2.2473 H   0  0  0  0  0  0  0  0  0  0  0  0
   -0.6649   -1.4773    1.6432 H   0  0  0  0  0  0  0  0  0  0  0  0
   -1.4423    0.9860    0.2573 H   0  0  0  0  0  0  0  0  0  0  0  0
   -2.2739   -0.4854   -1.8772 H   0  0  0  0  0  0  0  0  0  0  0  0
   -3.4144    0.1222   -0.6106 H   0  0  0  0  0  0  0  0  0  0  0  0
   -2.8273   -1.5576   -0.4855 H   0  0  0  0  0  0  0  0  0  0  0  0
    0.1451    1.7399   -0.4773 H   0  0  0  0  0  0  0  0  0  0  0  0
    0.6034    0.1394   -2.9153 H   0  0  0  0  0  0  0  0  0  0  0  0
    1.5325    1.7289   -2.5582 H   0  0  0  0  0  0  0  0  0  0  0  0
    2.4855    1.6190   -0.3972 H   0  0  0  0  0  0  0  0  0  0  0  0
    1.5669   -1.0561    0.8679 H   0  0  0  0  0  0  0  0  0  0  0  0
    2.4168    0.3715    1.6108 H   0  0  0  0  0  0  0  0  0  0  0  0
    3.3293   -0.7072    0.5410 H   0  0  0  0  0  0  0  0  0  0  0  0
  1  2  1  0
  2  3  1  0
  2  4  1  0
  4  5  1  0
  5  6  1  0
  6  7  1  0
  7  8  1  0
  8  9  1  0
  8  5  1  0
  1 10  1  0
  1 11  1  0
  1 12  1  0
  2 13  1  0
  3 14  1  0
  3 15  1  0
  3 16  1  0
  5 17  1  0
  6 18  1  0
  6 19  1  0
  8 20  1  0
  9 21  1  0
  9 22  1  0
  9 23  1  0
M  END
