
     RDKit          3D

 21 21  0  0  0  0  0  0  0  0999 V2000
    2.4840   -0.1802    0.3518 C   0  0  0  0  0  0  0  0  0  0  0  0
    1.0153    0.3112    0.3138 C   0  0  0  0  0  0  0  0  0  0  0  0
    1.0939    1.4018   -0.7349 C   0  0  0  0  0  0  0  0  0  0  0  0
    1.2932    2.5279   -0.3329 O   0  0  0  0  0  0  0  0  0  0  0  0
    0.1692   -0.8278   -0.1140 C   0  0  0  0  0  0  0  0  0  0  0  0
   -1.2843   -0.6366   -0.2123 C   0  0  0  0  0  0  0  0  0  0  0  0
   -2.0022   -1.7919   -0.6331 O   0  0  0  0  0  0  0  0  0  0  0  0
   -1.8393    0.6790   -0.6789 C   0  0  0  0  0  0  0  0  0  0  0  0
   -2.0570    0.2180    0.7189 C   0  0  0  0  0  0  0  0  0  0  0  0
    3.1498    0.6502    0.6680 H   0  0  0  0  0  0  0  0  0  0  0  0
    2.6055   -1.0046    1.0484 H   0  0  0  0  0  0  0  0  0  0  0  0
    2.7694   -0.5036   -0.6562 H   0  0  0  0  0  0  0  0  0  0  0  0
    0.7279    0.7383    1.2694 H   0  0  0  0  0  0  0  0  0  0  0  0
    0.9675    1.0944   -1.7487 H   0  0  0  0  0  0  0  0  0  0  0  0
    0.3903   -1.6674    0.6176 H   0  0  0  0  0  0  0  0  0  0  0  0
    0.5747   -1.2572   -1.0821 H   0  0  0  0  0  0  0  0  0  0  0  0
   -1.5016   -2.5919   -0.3128 H   0  0  0  0  0  0  0  0  0  0  0  0
   -2.7238    0.5958   -1.3804 H   0  0  0  0  0  0  0  0  0  0  0  0
   -1.2689    1.5972   -0.7582 H   0  0  0  0  0  0  0  0  0  0  0  0
   -3.0805   -0.0430    0.9979 H   0  0  0  0  0  0  0  0  0  0  0  0
   -1.4831    0.6902    1.5470 H   0  0  0  0  0  0  0  0  0  0  0  0
  1  2  1  0
  2  3  1  0
  3  4  2  0
  2  5  1  0
  5  6  1  0
  6  7  1  0
  6  8  1  0
  8  9  1  0
  9  6  1  0
  1 10  1  0
  1 11  1  0
  1 12  1  0
  2 13  1  0
  3 14  1  0
  5 15  1  0
  5 16  1  0
  7 17  1  0
  8 18  1  0
  8 19  1  0
  9 20  1  0
  9 21  1  0
M  END
