
     RDKit          3D

 25 25  0  0  0  0  0  0  0  0999 V2000
   -1.5629    0.2614    1.4875 C   0  0  0  0  0  0  0  0  0  0  0  0
   -1.0215   -0.1734    0.1377 C   0  0  0  0  0  0  0  0  0  0  0  0
   -1.3676    0.8008   -0.9374 C   0  0  0  0  0  0  0  0  0  0  0  0
   -1.6683   -1.5151   -0.1705 C   0  0  0  0  0  0  0  0  0  0  0  0
    0.4500   -0.4069    0.2753 C   0  0  0  0  0  0  0  0  0  0  0  0
    1.2616    0.7962    0.7151 C   0  0  0  0  0  0  0  0  0  0  0  0
    2.3749    0.2431   -0.1879 C   0  0  0  0  0  0  0  0  0  0  0  0
    3.1448    1.1907   -0.8045 O   0  0  0  0  0  0  0  0  0  0  0  0
    1.2331   -0.3252   -1.0420 C   0  0  0  0  0  0  0  0  0  0  0  0
   -1.2917   -0.5396    2.2200 H   0  0  0  0  0  0  0  0  0  0  0  0
   -2.6808    0.2095    1.4072 H   0  0  0  0  0  0  0  0  0  0  0  0
   -1.2110    1.2547    1.7876 H   0  0  0  0  0  0  0  0  0  0  0  0
   -2.4700    0.9942   -0.8680 H   0  0  0  0  0  0  0  0  0  0  0  0
   -1.2153    0.3367   -1.9333 H   0  0  0  0  0  0  0  0  0  0  0  0
   -0.7927    1.7480   -0.8109 H   0  0  0  0  0  0  0  0  0  0  0  0
   -2.7563   -1.3884    0.0274 H   0  0  0  0  0  0  0  0  0  0  0  0
   -1.3072   -2.2291    0.6205 H   0  0  0  0  0  0  0  0  0  0  0  0
   -1.4564   -1.8588   -1.1857 H   0  0  0  0  0  0  0  0  0  0  0  0
    0.7357   -1.3090    0.8199 H   0  0  0  0  0  0  0  0  0  0  0  0
    0.8708    1.7729    0.3696 H   0  0  0  0  0  0  0  0  0  0  0  0
    1.4937    0.7345    1.7961 H   0  0  0  0  0  0  0  0  0  0  0  0
    2.9141   -0.5640    0.3601 H   0  0  0  0  0  0  0  0  0  0  0  0
    4.0726    0.8040   -0.9049 H   0  0  0  0  0  0  0  0  0  0  0  0
    1.4451   -1.2897   -1.5014 H   0  0  0  0  0  0  0  0  0  0  0  0
    0.8055    0.4524   -1.6774 H   0  0  0  0  0  0  0  0  0  0  0  0
  1  2  1  0
  2  3  1  0
  2  4  1  0
  2  5  1  0
  5  6  1  0
  6  7  1  0
  7  8  1  0
  7  9  1  0
  9  5  1  0
  1 10  1  0
  1 11  1  0
  1 12  1  0
  3 13  1  0
  3 14  1  0
  3 15  1  0
  4 16  1  0
  4 17  1  0
  4 18  1  0
  5 19  1  0
  6 20  1  0
  6 21  1  0
  7 22  1  0
  8 23  1  0
  9 24  1  0
  9 25  1  0
M  END
