
     RDKit          3D

 21 21  0  0  0  0  0  0  0  0999 V2000
   -1.8399   -1.0715   -0.2630 C   0  0  0  0  0  0  0  0  0  0  0  0
   -0.8089   -0.0016   -0.4593 C   0  0  0  0  0  0  0  0  0  0  0  0
   -1.3351    1.3107    0.0260 C   0  0  0  0  0  0  0  0  0  0  0  0
    0.5040   -0.3127    0.2202 C   0  0  0  0  0  0  0  0  0  0  0  0
    0.4181   -0.4863    1.6948 C   0  0  0  0  0  0  0  0  0  0  0  0
   -0.1813    0.3322    2.3696 O   0  0  0  0  0  0  0  0  0  0  0  0
    1.5656    0.6800   -0.1373 C   0  0  0  0  0  0  0  0  0  0  0  0
    2.2277   -0.4341   -0.8794 C   0  0  0  0  0  0  0  0  0  0  0  0
    1.2067   -1.2986   -0.4436 O   0  0  0  0  0  0  0  0  0  0  0  0
   -2.0086   -1.3341    0.7987 H   0  0  0  0  0  0  0  0  0  0  0  0
   -1.6224   -2.0039   -0.8334 H   0  0  0  0  0  0  0  0  0  0  0  0
   -2.8062   -0.6741   -0.6399 H   0  0  0  0  0  0  0  0  0  0  0  0
   -0.5843    0.0348   -1.5580 H   0  0  0  0  0  0  0  0  0  0  0  0
   -2.2794    1.1921    0.6190 H   0  0  0  0  0  0  0  0  0  0  0  0
   -1.5615    1.9566   -0.8692 H   0  0  0  0  0  0  0  0  0  0  0  0
   -0.6007    1.8628    0.6517 H   0  0  0  0  0  0  0  0  0  0  0  0
    0.8748   -1.3258    2.2040 H   0  0  0  0  0  0  0  0  0  0  0  0
    1.2366    1.5498   -0.7398 H   0  0  0  0  0  0  0  0  0  0  0  0
    2.1636    1.0448    0.7352 H   0  0  0  0  0  0  0  0  0  0  0  0
    2.2088   -0.2694   -1.9826 H   0  0  0  0  0  0  0  0  0  0  0  0
    3.2226   -0.7515   -0.5138 H   0  0  0  0  0  0  0  0  0  0  0  0
  1  2  1  0
  2  3  1  0
  2  4  1  0
  4  5  1  0
  5  6  2  0
  4  7  1  0
  7  8  1  0
  8  9  1  0
  9  4  1  0
  1 10  1  0
  1 11  1  0
  1 12  1  0
  2 13  1  0
  3 14  1  0
  3 15  1  0
  3 16  1  0
  5 17  1  0
  7 18  1  0
  7 19  1  0
  8 20  1  0
  8 21  1  0
M  END
