
     RDKit          3D

 20 20  0  0  0  0  0  0  0  0999 V2000
    1.4884    1.3167   -0.2882 C   0  0  0  0  0  0  0  0  0  0  0  0
    0.6909    0.1857    0.3216 C   0  0  0  0  0  0  0  0  0  0  0  0
    1.2537   -1.1305   -0.0864 C   0  0  0  0  0  0  0  0  0  0  0  0
    0.8200    0.3179    1.7141 O   0  0  0  0  0  0  0  0  0  0  0  0
   -0.7741    0.3529   -0.0160 C   0  0  0  0  0  0  0  0  0  0  0  0
   -1.2605    1.6169    0.3821 O   0  0  0  0  0  0  0  0  0  0  0  0
   -1.7293   -0.7728    0.1925 C   0  0  0  0  0  0  0  0  0  0  0  0
   -1.3862   -0.3191   -1.1715 C   0  0  0  0  0  0  0  0  0  0  0  0
    2.1319    0.8975   -1.0891 H   0  0  0  0  0  0  0  0  0  0  0  0
    0.8442    2.1483   -0.6503 H   0  0  0  0  0  0  0  0  0  0  0  0
    2.1879    1.7836    0.4598 H   0  0  0  0  0  0  0  0  0  0  0  0
    1.7818   -1.0293   -1.0744 H   0  0  0  0  0  0  0  0  0  0  0  0
    2.0381   -1.4409    0.6503 H   0  0  0  0  0  0  0  0  0  0  0  0
    0.5372   -1.9423   -0.1885 H   0  0  0  0  0  0  0  0  0  0  0  0
    0.2194   -0.4042    2.0872 H   0  0  0  0  0  0  0  0  0  0  0  0
   -1.8231    1.4860    1.1876 H   0  0  0  0  0  0  0  0  0  0  0  0
   -1.3749   -1.7792    0.5028 H   0  0  0  0  0  0  0  0  0  0  0  0
   -2.7293   -0.5403    0.6485 H   0  0  0  0  0  0  0  0  0  0  0  0
   -2.1345    0.2550   -1.7738 H   0  0  0  0  0  0  0  0  0  0  0  0
   -0.7816   -1.0018   -1.8082 H   0  0  0  0  0  0  0  0  0  0  0  0
  1  2  1  0
  2  3  1  0
  2  4  1  0
  2  5  1  0
  5  6  1  0
  5  7  1  0
  7  8  1  0
  8  5  1  0
  1  9  1  0
  1 10  1  0
  1 11  1  0
  3 12  1  0
  3 13  1  0
  3 14  1  0
  4 15  1  0
  6 16  1  0
  7 17  1  0
  7 18  1  0
  8 19  1  0
  8 20  1  0
M  END
