
     RDKit          3D

 22 22  0  0  0  0  0  0  0  0999 V2000
   -1.5294    0.5010   -1.2979 C   0  0  0  0  0  0  0  0  0  0  0  0
   -0.7426   -0.0338   -0.1435 C   0  0  0  0  0  0  0  0  0  0  0  0
   -1.0379    0.7706    1.1007 C   0  0  0  0  0  0  0  0  0  0  0  0
   -1.1035   -1.4811    0.1053 C   0  0  0  0  0  0  0  0  0  0  0  0
    0.7111    0.0442   -0.4673 C   0  0  0  0  0  0  0  0  0  0  0  0
    1.6458   -0.4683    0.6210 C   0  0  0  0  0  0  0  0  0  0  0  0
    2.4981    0.6099   -0.0098 C   0  0  0  0  0  0  0  0  0  0  0  0
    1.2931    1.3139   -0.2441 O   0  0  0  0  0  0  0  0  0  0  0  0
   -2.5980    0.1397   -1.2663 H   0  0  0  0  0  0  0  0  0  0  0  0
   -1.5729    1.6022   -1.3432 H   0  0  0  0  0  0  0  0  0  0  0  0
   -1.1395    0.1485   -2.2765 H   0  0  0  0  0  0  0  0  0  0  0  0
   -1.5623    0.1567    1.8617 H   0  0  0  0  0  0  0  0  0  0  0  0
   -0.1412    1.1958    1.5714 H   0  0  0  0  0  0  0  0  0  0  0  0
   -1.7479    1.6196    0.8789 H   0  0  0  0  0  0  0  0  0  0  0  0
   -0.8208   -1.6970    1.1612 H   0  0  0  0  0  0  0  0  0  0  0  0
   -0.4443   -2.0875   -0.5536 H   0  0  0  0  0  0  0  0  0  0  0  0
   -2.1653   -1.6963   -0.0110 H   0  0  0  0  0  0  0  0  0  0  0  0
    1.0306   -0.3195   -1.4464 H   0  0  0  0  0  0  0  0  0  0  0  0
    1.3353   -0.2114    1.6533 H   0  0  0  0  0  0  0  0  0  0  0  0
    1.9987   -1.5051    0.4722 H   0  0  0  0  0  0  0  0  0  0  0  0
    3.2091    1.1118    0.6424 H   0  0  0  0  0  0  0  0  0  0  0  0
    2.8838    0.2862   -1.0085 H   0  0  0  0  0  0  0  0  0  0  0  0
  1  2  1  0
  2  3  1  0
  2  4  1  0
  2  5  1  0
  5  6  1  0
  6  7  1  0
  7  8  1  0
  8  5  1  0
  1  9  1  0
  1 10  1  0
  1 11  1  0
  3 12  1  0
  3 13  1  0
  3 14  1  0
  4 15  1  0
  4 16  1  0
  4 17  1  0
  5 18  1  0
  6 19  1  0
  6 20  1  0
  7 21  1  0
  7 22  1  0
M  END
