
     RDKit          3D

 17 17  0  0  0  0  0  0  0  0999 V2000
   -1.6510   -1.0034    0.3939 C   0  0  0  0  0  0  0  0  0  0  0  0
   -0.9820    0.1599   -0.3026 C   0  0  0  0  0  0  0  0  0  0  0  0
   -1.1161    1.3782    0.5036 C   0  0  0  0  0  0  0  0  0  0  0  0
   -0.6815    1.4230    1.6479 O   0  0  0  0  0  0  0  0  0  0  0  0
    0.4315   -0.2229   -0.5931 C   0  0  0  0  0  0  0  0  0  0  0  0
    1.2033    0.7407   -1.2393 O   0  0  0  0  0  0  0  0  0  0  0  0
    2.3183    0.1748   -0.5764 C   0  0  0  0  0  0  0  0  0  0  0  0
    1.3843   -0.1951    0.5183 C   0  0  0  0  0  0  0  0  0  0  0  0
    1.4300   -0.3737    1.7185 O   0  0  0  0  0  0  0  0  0  0  0  0
   -2.5623   -0.5810    0.8978 H   0  0  0  0  0  0  0  0  0  0  0  0
   -1.9427   -1.7238   -0.3848 H   0  0  0  0  0  0  0  0  0  0  0  0
   -0.9923   -1.4382    1.1757 H   0  0  0  0  0  0  0  0  0  0  0  0
   -1.4948    0.3176   -1.2806 H   0  0  0  0  0  0  0  0  0  0  0  0
   -1.5989    2.3036    0.1501 H   0  0  0  0  0  0  0  0  0  0  0  0
    0.4553   -1.1903   -1.1509 H   0  0  0  0  0  0  0  0  0  0  0  0
    2.7046   -0.6931   -1.1684 H   0  0  0  0  0  0  0  0  0  0  0  0
    3.0941    0.9236   -0.3098 H   0  0  0  0  0  0  0  0  0  0  0  0
  1  2  1  0
  2  3  1  0
  3  4  2  0
  2  5  1  0
  5  6  1  0
  6  7  1  0
  7  8  1  0
  8  9  2  0
  8  5  1  0
  1 10  1  0
  1 11  1  0
  1 12  1  0
  2 13  1  0
  3 14  1  0
  5 15  1  0
  7 16  1  0
  7 17  1  0
M  END
