
     RDKit          3D

 23 24  0  0  0  0  0  0  0  0999 V2000
   -2.0789    0.4624   -1.0357 C   0  0  0  0  0  0  0  0  0  0  0  0
   -1.1770    0.1447    0.1180 C   0  0  0  0  0  0  0  0  0  0  0  0
   -1.9367   -0.6238    1.1698 C   0  0  0  0  0  0  0  0  0  0  0  0
    0.0621   -0.6422   -0.3295 C   0  0  0  0  0  0  0  0  0  0  0  0
    0.8904    0.1194   -1.3353 C   0  0  0  0  0  0  0  0  0  0  0  0
    1.7772    0.5206   -0.1926 C   0  0  0  0  0  0  0  0  0  0  0  0
    1.7796    1.8120    0.2287 O   0  0  0  0  0  0  0  0  0  0  0  0
    2.5664   -0.5631    0.4102 C   0  0  0  0  0  0  0  0  0  0  0  0
    1.1298   -0.5495    0.7183 C   0  0  0  0  0  0  0  0  0  0  0  0
   -1.7408    1.3714   -1.5931 H   0  0  0  0  0  0  0  0  0  0  0  0
   -2.2246   -0.4036   -1.6968 H   0  0  0  0  0  0  0  0  0  0  0  0
   -3.0681    0.7565   -0.5924 H   0  0  0  0  0  0  0  0  0  0  0  0
   -0.8709    1.1061    0.5798 H   0  0  0  0  0  0  0  0  0  0  0  0
   -3.0297   -0.5868    0.9624 H   0  0  0  0  0  0  0  0  0  0  0  0
   -1.5823   -1.6726    1.2582 H   0  0  0  0  0  0  0  0  0  0  0  0
   -1.8148   -0.1617    2.1921 H   0  0  0  0  0  0  0  0  0  0  0  0
   -0.1665   -1.6744   -0.6220 H   0  0  0  0  0  0  0  0  0  0  0  0
    0.3905    0.9419   -1.8548 H   0  0  0  0  0  0  0  0  0  0  0  0
    1.4625   -0.5756   -2.0116 H   0  0  0  0  0  0  0  0  0  0  0  0
    2.5371    2.0532    0.7824 H   0  0  0  0  0  0  0  0  0  0  0  0
    3.0112   -1.2838   -0.3275 H   0  0  0  0  0  0  0  0  0  0  0  0
    3.2568   -0.2927    1.2091 H   0  0  0  0  0  0  0  0  0  0  0  0
    0.8267   -0.2583    1.7230 H   0  0  0  0  0  0  0  0  0  0  0  0
  1  2  1  0
  2  3  1  0
  2  4  1  0
  4  5  1  0
  5  6  1  0
  6  7  1  0
  6  8  1  0
  8  9  1  0
  9  4  1  0
  9  6  1  0
  1 10  1  0
  1 11  1  0
  1 12  1  0
  2 13  1  0
  3 14  1  0
  3 15  1  0
  3 16  1  0
  4 17  1  0
  5 18  1  0
  5 19  1  0
  7 20  1  0
  8 21  1  0
  8 22  1  0
  9 23  1  0
M  END
