
     RDKit          3D

 18 17  0  0  0  0  0  0  0  0999 V2000
   -1.1129    1.5813   -0.0244 C   0  0  0  0  0  0  0  0  0  0  0  0
   -0.3378    0.2304    0.0930 C   0  0  0  0  0  0  0  0  0  0  0  0
   -1.3588   -0.8676   -0.0427 C   0  0  0  0  0  0  0  0  0  0  0  0
   -2.3117   -0.7826    0.9946 O   0  0  0  0  0  0  0  0  0  0  0  0
    0.5744    0.1320   -0.9126 O   0  0  0  0  0  0  0  0  0  0  0  0
    1.8963    0.1462   -0.6068 C   0  0  0  0  0  0  0  0  0  0  0  0
    2.4012   -0.9113    0.2810 C   0  0  0  0  0  0  0  0  0  0  0  0
    1.7201   -1.7895    0.7571 O   0  0  0  0  0  0  0  0  0  0  0  0
   -2.1240    1.4454    0.3996 H   0  0  0  0  0  0  0  0  0  0  0  0
   -0.6116    2.3475    0.6034 H   0  0  0  0  0  0  0  0  0  0  0  0
   -1.0950    1.9187   -1.0657 H   0  0  0  0  0  0  0  0  0  0  0  0
    0.0585    0.2547    1.1075 H   0  0  0  0  0  0  0  0  0  0  0  0
   -1.8641   -0.8517   -1.0373 H   0  0  0  0  0  0  0  0  0  0  0  0
   -0.8736   -1.8484    0.0810 H   0  0  0  0  0  0  0  0  0  0  0  0
   -3.1289   -1.2300    0.6585 H   0  0  0  0  0  0  0  0  0  0  0  0
    2.4423    0.0288   -1.5974 H   0  0  0  0  0  0  0  0  0  0  0  0
    2.2629    1.1532   -0.2549 H   0  0  0  0  0  0  0  0  0  0  0  0
    3.4627   -0.9570    0.5660 H   0  0  0  0  0  0  0  0  0  0  0  0
  1  2  1  0
  2  3  1  0
  3  4  1  0
  2  5  1  0
  5  6  1  0
  6  7  1  0
  7  8  2  0
  1  9  1  0
  1 10  1  0
  1 11  1  0
  2 12  1  0
  3 13  1  0
  3 14  1  0
  4 15  1  0
  6 16  1  0
  6 17  1  0
  7 18  1  0
M  END
