
     RDKit          3D

 23 23  0  0  0  0  0  0  0  0999 V2000
    0.8702    1.6952    0.4465 C   0  0  0  0  0  0  0  0  0  0  0  0
    1.0613    0.3930   -0.2762 C   0  0  0  0  0  0  0  0  0  0  0  0
    1.9577   -0.5026    0.5776 C   0  0  0  0  0  0  0  0  0  0  0  0
    2.1752   -1.7320   -0.0393 O   0  0  0  0  0  0  0  0  0  0  0  0
   -0.2011   -0.3462   -0.5319 C   0  0  0  0  0  0  0  0  0  0  0  0
   -1.2524    0.3169   -1.3541 C   0  0  0  0  0  0  0  0  0  0  0  0
   -2.2632   -0.4733   -0.5062 C   0  0  0  0  0  0  0  0  0  0  0  0
   -1.2149   -0.3411    0.6074 C   0  0  0  0  0  0  0  0  0  0  0  0
   -1.1208   -1.4480    1.4315 O   0  0  0  0  0  0  0  0  0  0  0  0
    0.1864    2.3718   -0.0620 H   0  0  0  0  0  0  0  0  0  0  0  0
    0.5977    1.5684    1.5073 H   0  0  0  0  0  0  0  0  0  0  0  0
    1.8724    2.2131    0.4586 H   0  0  0  0  0  0  0  0  0  0  0  0
    1.5745    0.5706   -1.2300 H   0  0  0  0  0  0  0  0  0  0  0  0
    2.9459   -0.0043    0.6928 H   0  0  0  0  0  0  0  0  0  0  0  0
    1.5163   -0.6020    1.5896 H   0  0  0  0  0  0  0  0  0  0  0  0
    2.6596   -1.5378   -0.8828 H   0  0  0  0  0  0  0  0  0  0  0  0
   -0.0048   -1.3679   -0.8944 H   0  0  0  0  0  0  0  0  0  0  0  0
   -1.2818    0.0417   -2.4308 H   0  0  0  0  0  0  0  0  0  0  0  0
   -1.4475    1.3876   -1.1414 H   0  0  0  0  0  0  0  0  0  0  0  0
   -3.2002    0.0536   -0.3163 H   0  0  0  0  0  0  0  0  0  0  0  0
   -2.3329   -1.5119   -0.8823 H   0  0  0  0  0  0  0  0  0  0  0  0
   -1.2917    0.6360    1.1170 H   0  0  0  0  0  0  0  0  0  0  0  0
   -1.8057   -1.3806    2.1194 H   0  0  0  0  0  0  0  0  0  0  0  0
  1  2  1  0
  2  3  1  0
  3  4  1  0
  2  5  1  0
  5  6  1  0
  6  7  1  0
  7  8  1  0
  8  9  1  0
  8  5  1  0
  1 10  1  0
  1 11  1  0
  1 12  1  0
  2 13  1  0
  3 14  1  0
  3 15  1  0
  4 16  1  0
  5 17  1  0
  6 18  1  0
  6 19  1  0
  7 20  1  0
  7 21  1  0
  8 22  1  0
  9 23  1  0
M  END
