
     RDKit          3D

 23 23  0  0  0  0  0  0  0  0999 V2000
    2.1174    1.2044   -0.1582 C   0  0  0  0  0  0  0  0  0  0  0  0
    1.2341   -0.0121    0.0042 C   0  0  0  0  0  0  0  0  0  0  0  0
    2.1234   -1.1402    0.4898 C   0  0  0  0  0  0  0  0  0  0  0  0
    0.1486    0.1972    0.8111 O   0  0  0  0  0  0  0  0  0  0  0  0
   -1.0671    0.0005    0.1636 C   0  0  0  0  0  0  0  0  0  0  0  0
   -1.2960   -1.3750   -0.3978 C   0  0  0  0  0  0  0  0  0  0  0  0
   -1.4799    1.1417   -0.7270 C   0  0  0  0  0  0  0  0  0  0  0  0
   -2.3071    1.6888    0.2527 O   0  0  0  0  0  0  0  0  0  0  0  0
   -2.2684    0.4797    0.9070 C   0  0  0  0  0  0  0  0  0  0  0  0
    3.0789    0.8222   -0.6082 H   0  0  0  0  0  0  0  0  0  0  0  0
    2.3882    1.6795    0.7949 H   0  0  0  0  0  0  0  0  0  0  0  0
    1.7125    1.9111   -0.9122 H   0  0  0  0  0  0  0  0  0  0  0  0
    0.8954   -0.2993   -1.0124 H   0  0  0  0  0  0  0  0  0  0  0  0
    3.0624   -0.7528    0.9385 H   0  0  0  0  0  0  0  0  0  0  0  0
    2.3913   -1.8449   -0.3244 H   0  0  0  0  0  0  0  0  0  0  0  0
    1.6084   -1.7122    1.3139 H   0  0  0  0  0  0  0  0  0  0  0  0
   -1.7675   -1.9772    0.4321 H   0  0  0  0  0  0  0  0  0  0  0  0
   -2.0766   -1.2948   -1.2065 H   0  0  0  0  0  0  0  0  0  0  0  0
   -0.4112   -1.8522   -0.8094 H   0  0  0  0  0  0  0  0  0  0  0  0
   -2.0149    0.8224   -1.6579 H   0  0  0  0  0  0  0  0  0  0  0  0
   -0.6863    1.8743   -0.9767 H   0  0  0  0  0  0  0  0  0  0  0  0
   -2.1727    0.5245    2.0107 H   0  0  0  0  0  0  0  0  0  0  0  0
   -3.2129   -0.0855    0.6723 H   0  0  0  0  0  0  0  0  0  0  0  0
  1  2  1  0
  2  3  1  0
  2  4  1  0
  4  5  1  0
  5  6  1  0
  5  7  1  0
  7  8  1  0
  8  9  1  0
  9  5  1  0
  1 10  1  0
  1 11  1  0
  1 12  1  0
  2 13  1  0
  3 14  1  0
  3 15  1  0
  3 16  1  0
  6 17  1  0
  6 18  1  0
  6 19  1  0
  7 20  1  0
  7 21  1  0
  9 22  1  0
  9 23  1  0
M  END
