
     RDKit          3D

 19 18  0  0  0  0  0  0  0  0999 V2000
   -1.6687    0.0008    1.2170 C   0  0  0  0  0  0  0  0  0  0  0  0
   -0.6611   -0.5309    0.1985 C   0  0  0  0  0  0  0  0  0  0  0  0
   -1.1419   -0.1202   -1.1625 C   0  0  0  0  0  0  0  0  0  0  0  0
   -1.2441    1.2525   -1.3113 O   0  0  0  0  0  0  0  0  0  0  0  0
    0.6723    0.0345    0.5621 C   0  0  0  0  0  0  0  0  0  0  0  0
    1.7644   -0.3868   -0.3328 C   0  0  0  0  0  0  0  0  0  0  0  0
    1.6110   -1.1507   -1.3170 O   0  0  0  0  0  0  0  0  0  0  0  0
    3.1069    0.1093   -0.0654 C   0  0  0  0  0  0  0  0  0  0  0  0
    3.3391    0.8757    0.8985 O   0  0  0  0  0  0  0  0  0  0  0  0
   -2.2020    0.8797    0.7815 H   0  0  0  0  0  0  0  0  0  0  0  0
   -2.3526   -0.7913    1.5594 H   0  0  0  0  0  0  0  0  0  0  0  0
   -1.1461    0.3826    2.1256 H   0  0  0  0  0  0  0  0  0  0  0  0
   -0.6703   -1.6222    0.2609 H   0  0  0  0  0  0  0  0  0  0  0  0
   -0.5636   -0.5998   -1.9741 H   0  0  0  0  0  0  0  0  0  0  0  0
   -2.1889   -0.5221   -1.2637 H   0  0  0  0  0  0  0  0  0  0  0  0
   -2.1188    1.5431   -1.6774 H   0  0  0  0  0  0  0  0  0  0  0  0
    0.5785    1.1425    0.6186 H   0  0  0  0  0  0  0  0  0  0  0  0
    0.9232   -0.3249    1.5824 H   0  0  0  0  0  0  0  0  0  0  0  0
    3.9625   -0.1717   -0.7002 H   0  0  0  0  0  0  0  0  0  0  0  0
  1  2  1  0
  2  3  1  0
  3  4  1  0
  2  5  1  0
  5  6  1  0
  6  7  2  0
  6  8  1  0
  8  9  2  0
  1 10  1  0
  1 11  1  0
  1 12  1  0
  2 13  1  0
  3 14  1  0
  3 15  1  0
  4 16  1  0
  5 17  1  0
  5 18  1  0
  8 19  1  0
M  END
