
     RDKit          3D

 23 23  0  0  0  0  0  0  0  0999 V2000
   -1.5963   -1.0683    0.6231 C   0  0  0  0  0  0  0  0  0  0  0  0
   -1.2395    0.3387    0.1647 C   0  0  0  0  0  0  0  0  0  0  0  0
   -2.4956    0.9218   -0.4475 C   0  0  0  0  0  0  0  0  0  0  0  0
   -3.4746    0.9296    0.5447 O   0  0  0  0  0  0  0  0  0  0  0  0
   -0.1072    0.3165   -0.8365 C   0  0  0  0  0  0  0  0  0  0  0  0
    1.1358   -0.3012   -0.2428 C   0  0  0  0  0  0  0  0  0  0  0  0
    1.6158    0.4481    0.9488 O   0  0  0  0  0  0  0  0  0  0  0  0
    2.4219    0.4055   -0.2942 C   0  0  0  0  0  0  0  0  0  0  0  0
    3.6790   -0.4004   -0.0689 C   0  0  0  0  0  0  0  0  0  0  0  0
   -1.0106   -1.3066    1.5311 H   0  0  0  0  0  0  0  0  0  0  0  0
   -2.6755   -1.1579    0.8020 H   0  0  0  0  0  0  0  0  0  0  0  0
   -1.3588   -1.7898   -0.2120 H   0  0  0  0  0  0  0  0  0  0  0  0
   -0.9452    0.9070    1.0708 H   0  0  0  0  0  0  0  0  0  0  0  0
   -2.8383    0.2510   -1.2572 H   0  0  0  0  0  0  0  0  0  0  0  0
   -2.3243    1.9262   -0.8772 H   0  0  0  0  0  0  0  0  0  0  0  0
   -4.1897    0.3025    0.3479 H   0  0  0  0  0  0  0  0  0  0  0  0
    0.0841    1.3649   -1.1400 H   0  0  0  0  0  0  0  0  0  0  0  0
   -0.3875   -0.2651   -1.7347 H   0  0  0  0  0  0  0  0  0  0  0  0
    1.1701   -1.3669   -0.0227 H   0  0  0  0  0  0  0  0  0  0  0  0
    2.4866    1.3864   -0.7993 H   0  0  0  0  0  0  0  0  0  0  0  0
    4.4599   -0.1119   -0.7930 H   0  0  0  0  0  0  0  0  0  0  0  0
    3.4743   -1.5025   -0.1159 H   0  0  0  0  0  0  0  0  0  0  0  0
    4.1155   -0.2278    0.9469 H   0  0  0  0  0  0  0  0  0  0  0  0
  1  2  1  0
  2  3  1  0
  3  4  1  0
  2  5  1  0
  5  6  1  0
  6  7  1  0
  7  8  1  0
  8  9  1  0
  8  6  1  0
  1 10  1  0
  1 11  1  0
  1 12  1  0
  2 13  1  0
  3 14  1  0
  3 15  1  0
  4 16  1  0
  5 17  1  0
  5 18  1  0
  6 19  1  0
  8 20  1  0
  9 21  1  0
  9 22  1  0
  9 23  1  0
M  END
