
     RDKit          3D

 23 23  0  0  0  0  0  0  0  0999 V2000
   -2.2375    0.7331   -0.6110 C   0  0  0  0  0  0  0  0  0  0  0  0
   -1.2836   -0.4205   -0.3836 C   0  0  0  0  0  0  0  0  0  0  0  0
   -1.4743   -0.9082    1.0133 C   0  0  0  0  0  0  0  0  0  0  0  0
    0.1038    0.0824   -0.6566 C   0  0  0  0  0  0  0  0  0  0  0  0
    1.1535   -1.0061   -0.4565 C   0  0  0  0  0  0  0  0  0  0  0  0
    2.3892   -0.1387   -0.3205 C   0  0  0  0  0  0  0  0  0  0  0  0
    1.8844    0.8411    0.7503 C   0  0  0  0  0  0  0  0  0  0  0  0
    0.5330    1.1703    0.2392 C   0  0  0  0  0  0  0  0  0  0  0  0
   -0.1088    2.1589    0.5083 O   0  0  0  0  0  0  0  0  0  0  0  0
   -3.2609    0.3796   -0.8585 H   0  0  0  0  0  0  0  0  0  0  0  0
   -1.8056    1.3690   -1.4000 H   0  0  0  0  0  0  0  0  0  0  0  0
   -2.2807    1.3073    0.3334 H   0  0  0  0  0  0  0  0  0  0  0  0
   -1.4810   -1.2537   -1.0761 H   0  0  0  0  0  0  0  0  0  0  0  0
   -1.3455   -0.0787    1.7378 H   0  0  0  0  0  0  0  0  0  0  0  0
   -2.5341   -1.2365    1.1176 H   0  0  0  0  0  0  0  0  0  0  0  0
   -0.8481   -1.7935    1.2639 H   0  0  0  0  0  0  0  0  0  0  0  0
    0.1794    0.3957   -1.7164 H   0  0  0  0  0  0  0  0  0  0  0  0
    1.2054   -1.6995   -1.3103 H   0  0  0  0  0  0  0  0  0  0  0  0
    1.0303   -1.5261    0.5160 H   0  0  0  0  0  0  0  0  0  0  0  0
    3.2626   -0.6965    0.0384 H   0  0  0  0  0  0  0  0  0  0  0  0
    2.5541    0.4011   -1.2727 H   0  0  0  0  0  0  0  0  0  0  0  0
    2.5465    1.6990    0.8572 H   0  0  0  0  0  0  0  0  0  0  0  0
    1.8179    0.2204    1.6866 H   0  0  0  0  0  0  0  0  0  0  0  0
  1  2  1  0
  2  3  1  0
  2  4  1  0
  4  5  1  0
  5  6  1  0
  6  7  1  0
  7  8  1  0
  8  9  2  0
  8  4  1  0
  1 10  1  0
  1 11  1  0
  1 12  1  0
  2 13  1  0
  3 14  1  0
  3 15  1  0
  3 16  1  0
  4 17  1  0
  5 18  1  0
  5 19  1  0
  6 20  1  0
  6 21  1  0
  7 22  1  0
  7 23  1  0
M  END
