
     RDKit          3D

 22 21  0  0  0  0  0  0  0  0999 V2000
   -1.9133    0.5029    0.8008 C   0  0  0  0  0  0  0  0  0  0  0  0
   -0.7160   -0.3032    0.3732 C   0  0  0  0  0  0  0  0  0  0  0  0
   -1.2285   -1.4663   -0.4634 C   0  0  0  0  0  0  0  0  0  0  0  0
    0.2553    0.5460   -0.4178 C   0  0  0  0  0  0  0  0  0  0  0  0
    0.7173    1.6850    0.4379 C   0  0  0  0  0  0  0  0  0  0  0  0
    1.3977   -0.2377   -0.9721 C   0  0  0  0  0  0  0  0  0  0  0  0
    2.2249   -0.9112    0.0237 C   0  0  0  0  0  0  0  0  0  0  0  0
    3.1761   -1.5728   -0.3206 O   0  0  0  0  0  0  0  0  0  0  0  0
   -2.7515   -0.2198    0.9714 H   0  0  0  0  0  0  0  0  0  0  0  0
   -1.7303    1.0324    1.7770 H   0  0  0  0  0  0  0  0  0  0  0  0
   -2.2726    1.1941    0.0133 H   0  0  0  0  0  0  0  0  0  0  0  0
   -0.2186   -0.6980    1.2631 H   0  0  0  0  0  0  0  0  0  0  0  0
   -1.7914   -1.0542   -1.3497 H   0  0  0  0  0  0  0  0  0  0  0  0
   -1.9790   -2.0051    0.1549 H   0  0  0  0  0  0  0  0  0  0  0  0
   -0.3988   -2.1339   -0.7914 H   0  0  0  0  0  0  0  0  0  0  0  0
   -0.2882    0.9969   -1.2902 H   0  0  0  0  0  0  0  0  0  0  0  0
    1.7084    1.9985    0.0844 H   0  0  0  0  0  0  0  0  0  0  0  0
    0.7387    1.4449    1.5237 H   0  0  0  0  0  0  0  0  0  0  0  0
   -0.0088    2.5374    0.3422 H   0  0  0  0  0  0  0  0  0  0  0  0
    1.0338   -0.9962   -1.6939 H   0  0  0  0  0  0  0  0  0  0  0  0
    2.0417    0.4905   -1.5363 H   0  0  0  0  0  0  0  0  0  0  0  0
    2.0032   -0.8303    1.0699 H   0  0  0  0  0  0  0  0  0  0  0  0
  1  2  1  0
  2  3  1  0
  2  4  1  0
  4  5  1  0
  4  6  1  0
  6  7  1  0
  7  8  2  0
  1  9  1  0
  1 10  1  0
  1 11  1  0
  2 12  1  0
  3 13  1  0
  3 14  1  0
  3 15  1  0
  4 16  1  0
  5 17  1  0
  5 18  1  0
  5 19  1  0
  6 20  1  0
  6 21  1  0
  7 22  1  0
M  END
