
     RDKit          3D

 23 23  0  0  0  0  0  0  0  0999 V2000
   -1.1490    1.0921   -1.1635 C   0  0  0  0  0  0  0  0  0  0  0  0
   -1.0827    0.0173   -0.1098 C   0  0  0  0  0  0  0  0  0  0  0  0
   -1.6467    0.6416    1.1745 C   0  0  0  0  0  0  0  0  0  0  0  0
   -1.9808   -1.1120   -0.4768 C   0  0  0  0  0  0  0  0  0  0  0  0
    0.3274   -0.4404    0.1705 C   0  0  0  0  0  0  0  0  0  0  0  0
    1.0889    0.7481    0.6410 O   0  0  0  0  0  0  0  0  0  0  0  0
    1.4335   -0.0171   -0.5869 C   0  0  0  0  0  0  0  0  0  0  0  0
    2.7913   -0.6463   -0.3580 C   0  0  0  0  0  0  0  0  0  0  0  0
    3.6928    0.3945   -0.1298 O   0  0  0  0  0  0  0  0  0  0  0  0
   -0.2752    1.7459   -1.1578 H   0  0  0  0  0  0  0  0  0  0  0  0
   -2.0465    1.7518   -0.9932 H   0  0  0  0  0  0  0  0  0  0  0  0
   -1.3403    0.5888   -2.1348 H   0  0  0  0  0  0  0  0  0  0  0  0
   -1.1332    1.5777    1.4261 H   0  0  0  0  0  0  0  0  0  0  0  0
   -1.5930   -0.0745    2.0014 H   0  0  0  0  0  0  0  0  0  0  0  0
   -2.7083    0.8992    0.9382 H   0  0  0  0  0  0  0  0  0  0  0  0
   -1.6353   -1.5843   -1.4136 H   0  0  0  0  0  0  0  0  0  0  0  0
   -2.0233   -1.8351    0.3714 H   0  0  0  0  0  0  0  0  0  0  0  0
   -3.0164   -0.7061   -0.5766 H   0  0  0  0  0  0  0  0  0  0  0  0
    0.3908   -1.2762    0.8790 H   0  0  0  0  0  0  0  0  0  0  0  0
    1.3553    0.5696   -1.5029 H   0  0  0  0  0  0  0  0  0  0  0  0
    3.1520   -1.2053   -1.2216 H   0  0  0  0  0  0  0  0  0  0  0  0
    2.7750   -1.2615    0.5768 H   0  0  0  0  0  0  0  0  0  0  0  0
    4.6237    0.1322   -0.2888 H   0  0  0  0  0  0  0  0  0  0  0  0
  1  2  1  0
  2  3  1  0
  2  4  1  0
  2  5  1  0
  5  6  1  0
  6  7  1  0
  7  8  1  0
  8  9  1  0
  7  5  1  0
  1 10  1  0
  1 11  1  0
  1 12  1  0
  3 13  1  0
  3 14  1  0
  3 15  1  0
  4 16  1  0
  4 17  1  0
  4 18  1  0
  5 19  1  0
  7 20  1  0
  8 21  1  0
  8 22  1  0
  9 23  1  0
M  END
