
     RDKit          3D

 23 23  0  0  0  0  0  0  0  0999 V2000
    1.6817   -0.9839   -0.0701 C   0  0  0  0  0  0  0  0  0  0  0  0
    0.7664    0.2099   -0.2609 C   0  0  0  0  0  0  0  0  0  0  0  0
    1.3709    1.3685    0.4679 C   0  0  0  0  0  0  0  0  0  0  0  0
    0.7858    0.5421   -1.6330 O   0  0  0  0  0  0  0  0  0  0  0  0
   -0.6446   -0.0849    0.1062 C   0  0  0  0  0  0  0  0  0  0  0  0
   -0.9367   -0.5063    1.4971 C   0  0  0  0  0  0  0  0  0  0  0  0
   -1.2323   -1.1023   -0.8820 C   0  0  0  0  0  0  0  0  0  0  0  0
   -2.4678   -0.4552   -0.6688 O   0  0  0  0  0  0  0  0  0  0  0  0
   -1.7146    0.7349   -0.5326 C   0  0  0  0  0  0  0  0  0  0  0  0
    2.4552   -0.9614   -0.8897 H   0  0  0  0  0  0  0  0  0  0  0  0
    2.2822   -0.8858    0.8738 H   0  0  0  0  0  0  0  0  0  0  0  0
    1.1381   -1.9421   -0.0414 H   0  0  0  0  0  0  0  0  0  0  0  0
    0.7245    2.2517    0.5385 H   0  0  0  0  0  0  0  0  0  0  0  0
    2.2744    1.6871   -0.1307 H   0  0  0  0  0  0  0  0  0  0  0  0
    1.7919    1.0597    1.4550 H   0  0  0  0  0  0  0  0  0  0  0  0
    0.5776    1.5081   -1.7195 H   0  0  0  0  0  0  0  0  0  0  0  0
   -1.9180   -0.0816    1.8424 H   0  0  0  0  0  0  0  0  0  0  0  0
   -1.0607   -1.6208    1.5474 H   0  0  0  0  0  0  0  0  0  0  0  0
   -0.1900   -0.2453    2.2477 H   0  0  0  0  0  0  0  0  0  0  0  0
   -0.8456   -0.9637   -1.9177 H   0  0  0  0  0  0  0  0  0  0  0  0
   -1.1491   -2.1054   -0.4734 H   0  0  0  0  0  0  0  0  0  0  0  0
   -1.4860    1.1324   -1.5300 H   0  0  0  0  0  0  0  0  0  0  0  0
   -2.2029    1.4443    0.1740 H   0  0  0  0  0  0  0  0  0  0  0  0
  1  2  1  0
  2  3  1  0
  2  4  1  0
  2  5  1  0
  5  6  1  0
  5  7  1  0
  7  8  1  0
  8  9  1  0
  9  5  1  0
  1 10  1  0
  1 11  1  0
  1 12  1  0
  3 13  1  0
  3 14  1  0
  3 15  1  0
  4 16  1  0
  6 17  1  0
  6 18  1  0
  6 19  1  0
  7 20  1  0
  7 21  1  0
  9 22  1  0
  9 23  1  0
M  END
