
     RDKit          3D

 20 19  0  0  0  0  0  0  0  0999 V2000
   -1.0789   -0.4528   -1.2425 C   0  0  0  0  0  0  0  0  0  0  0  0
   -0.5921    0.1986    0.0228 C   0  0  0  0  0  0  0  0  0  0  0  0
   -1.3739    1.5107    0.1632 C   0  0  0  0  0  0  0  0  0  0  0  0
   -0.9146   -0.6427    1.2363 C   0  0  0  0  0  0  0  0  0  0  0  0
    0.7314    0.5106    0.0286 O   0  0  0  0  0  0  0  0  0  0  0  0
    1.6029   -0.5301   -0.1291 C   0  0  0  0  0  0  0  0  0  0  0  0
    2.9895    0.0245   -0.0936 C   0  0  0  0  0  0  0  0  0  0  0  0
    3.2284    1.2117    0.0540 O   0  0  0  0  0  0  0  0  0  0  0  0
   -0.6398   -1.4632   -1.3940 H   0  0  0  0  0  0  0  0  0  0  0  0
   -2.1879   -0.4798   -1.2020 H   0  0  0  0  0  0  0  0  0  0  0  0
   -0.7949    0.2162   -2.0882 H   0  0  0  0  0  0  0  0  0  0  0  0
   -0.8202    2.3170   -0.3622 H   0  0  0  0  0  0  0  0  0  0  0  0
   -2.3597    1.4226   -0.3354 H   0  0  0  0  0  0  0  0  0  0  0  0
   -1.5396    1.7674    1.2219 H   0  0  0  0  0  0  0  0  0  0  0  0
   -0.0144   -0.7281    1.9000 H   0  0  0  0  0  0  0  0  0  0  0  0
   -1.2924   -1.6521    0.9728 H   0  0  0  0  0  0  0  0  0  0  0  0
   -1.7286   -0.1765    1.8619 H   0  0  0  0  0  0  0  0  0  0  0  0
    1.4342   -1.1026   -1.0854 H   0  0  0  0  0  0  0  0  0  0  0  0
    1.5031   -1.3206    0.6717 H   0  0  0  0  0  0  0  0  0  0  0  0
    3.8477   -0.6306   -0.2009 H   0  0  0  0  0  0  0  0  0  0  0  0
  1  2  1  0
  2  3  1  0
  2  4  1  0
  2  5  1  0
  5  6  1  0
  6  7  1  0
  7  8  2  0
  1  9  1  0
  1 10  1  0
  1 11  1  0
  3 12  1  0
  3 13  1  0
  3 14  1  0
  4 15  1  0
  4 16  1  0
  4 17  1  0
  6 18  1  0
  6 19  1  0
  7 20  1  0
M  END
