
     RDKit          3D

 27 27  0  0  0  0  0  0  0  0999 V2000
   -1.8393   -1.1224   -0.7295 C   0  0  0  0  0  0  0  0  0  0  0  0
   -1.1010   -0.0281   -0.0318 C   0  0  0  0  0  0  0  0  0  0  0  0
   -0.9836    1.1308   -0.9617 C   0  0  0  0  0  0  0  0  0  0  0  0
   -1.9726    0.4047    1.1552 C   0  0  0  0  0  0  0  0  0  0  0  0
    0.2012   -0.4933    0.5468 C   0  0  0  0  0  0  0  0  0  0  0  0
    1.1552   -1.0365   -0.4761 C   0  0  0  0  0  0  0  0  0  0  0  0
    2.5393   -0.5286   -0.0408 C   0  0  0  0  0  0  0  0  0  0  0  0
    2.1367    0.8833    0.4145 C   0  0  0  0  0  0  0  0  0  0  0  0
    0.9515    0.5390    1.2954 C   0  0  0  0  0  0  0  0  0  0  0  0
   -2.7976   -0.6797   -1.1146 H   0  0  0  0  0  0  0  0  0  0  0  0
   -2.1238   -1.8993    0.0138 H   0  0  0  0  0  0  0  0  0  0  0  0
   -1.3246   -1.5357   -1.6034 H   0  0  0  0  0  0  0  0  0  0  0  0
   -0.4905    0.8151   -1.9009 H   0  0  0  0  0  0  0  0  0  0  0  0
   -2.0104    1.4453   -1.2422 H   0  0  0  0  0  0  0  0  0  0  0  0
   -0.4985    2.0208   -0.5197 H   0  0  0  0  0  0  0  0  0  0  0  0
   -1.9859   -0.4246    1.9027 H   0  0  0  0  0  0  0  0  0  0  0  0
   -3.0135    0.4530    0.7328 H   0  0  0  0  0  0  0  0  0  0  0  0
   -1.6540    1.3631    1.5615 H   0  0  0  0  0  0  0  0  0  0  0  0
   -0.0367   -1.3331    1.2454 H   0  0  0  0  0  0  0  0  0  0  0  0
    0.9705   -0.5355   -1.4477 H   0  0  0  0  0  0  0  0  0  0  0  0
    1.1600   -2.1279   -0.5536 H   0  0  0  0  0  0  0  0  0  0  0  0
    3.2271   -0.4885   -0.8981 H   0  0  0  0  0  0  0  0  0  0  0  0
    2.9320   -1.1063    0.8102 H   0  0  0  0  0  0  0  0  0  0  0  0
    2.9516    1.3637    0.9635 H   0  0  0  0  0  0  0  0  0  0  0  0
    1.8220    1.4091   -0.4918 H   0  0  0  0  0  0  0  0  0  0  0  0
    0.3849    1.4134    1.6183 H   0  0  0  0  0  0  0  0  0  0  0  0
    1.4001    0.0981    2.2349 H   0  0  0  0  0  0  0  0  0  0  0  0
  1  2  1  0
  2  3  1  0
  2  4  1  0
  2  5  1  0
  5  6  1  0
  6  7  1  0
  7  8  1  0
  8  9  1  0
  9  5  1  0
  1 10  1  0
  1 11  1  0
  1 12  1  0
  3 13  1  0
  3 14  1  0
  3 15  1  0
  4 16  1  0
  4 17  1  0
  4 18  1  0
  5 19  1  0
  6 20  1  0
  6 21  1  0
  7 22  1  0
  7 23  1  0
  8 24  1  0
  8 25  1  0
  9 26  1  0
  9 27  1  0
M  END
