
     RDKit          3D

 23 23  0  0  0  0  0  0  0  0999 V2000
   -2.3756   -0.3684   -1.0989 C   0  0  0  0  0  0  0  0  0  0  0  0
   -1.4565   -0.4164    0.0995 C   0  0  0  0  0  0  0  0  0  0  0  0
   -2.2681   -0.0806    1.3295 C   0  0  0  0  0  0  0  0  0  0  0  0
   -2.7337    1.2268    1.1797 O   0  0  0  0  0  0  0  0  0  0  0  0
   -0.3941    0.4682   -0.0071 O   0  0  0  0  0  0  0  0  0  0  0  0
    0.8332   -0.1362    0.0331 C   0  0  0  0  0  0  0  0  0  0  0  0
    1.8485    0.4856   -0.9260 C   0  0  0  0  0  0  0  0  0  0  0  0
    2.0260    0.5687    0.5835 C   0  0  0  0  0  0  0  0  0  0  0  0
    3.2015   -0.2255    1.0884 C   0  0  0  0  0  0  0  0  0  0  0  0
   -2.5471   -1.3857   -1.5261 H   0  0  0  0  0  0  0  0  0  0  0  0
   -1.9863    0.2630   -1.9123 H   0  0  0  0  0  0  0  0  0  0  0  0
   -3.3903    0.0269   -0.8317 H   0  0  0  0  0  0  0  0  0  0  0  0
   -1.0942   -1.4523    0.1976 H   0  0  0  0  0  0  0  0  0  0  0  0
   -3.1757   -0.7330    1.3108 H   0  0  0  0  0  0  0  0  0  0  0  0
   -1.6749   -0.2275    2.2420 H   0  0  0  0  0  0  0  0  0  0  0  0
   -2.1165    1.7185    0.5873 H   0  0  0  0  0  0  0  0  0  0  0  0
    0.8468   -1.2422    0.1439 H   0  0  0  0  0  0  0  0  0  0  0  0
    2.4360   -0.2428   -1.4938 H   0  0  0  0  0  0  0  0  0  0  0  0
    1.5867    1.4155   -1.4480 H   0  0  0  0  0  0  0  0  0  0  0  0
    1.8215    1.5681    1.0451 H   0  0  0  0  0  0  0  0  0  0  0  0
    3.9404   -0.4442    0.2633 H   0  0  0  0  0  0  0  0  0  0  0  0
    2.9114   -1.1917    1.5442 H   0  0  0  0  0  0  0  0  0  0  0  0
    3.7612    0.4052    1.8110 H   0  0  0  0  0  0  0  0  0  0  0  0
  1  2  1  0
  2  3  1  0
  3  4  1  0
  2  5  1  0
  5  6  1  0
  6  7  1  0
  7  8  1  0
  8  9  1  0
  8  6  1  0
  1 10  1  0
  1 11  1  0
  1 12  1  0
  2 13  1  0
  3 14  1  0
  3 15  1  0
  4 16  1  0
  6 17  1  0
  7 18  1  0
  7 19  1  0
  8 20  1  0
  9 21  1  0
  9 22  1  0
  9 23  1  0
M  END
