
     RDKit          3D

 25 25  0  0  0  0  0  0  0  0999 V2000
   -2.8218    0.1060    1.4236 C   0  0  0  0  0  0  0  0  0  0  0  0
   -2.0696    0.3831    0.1320 C   0  0  0  0  0  0  0  0  0  0  0  0
   -2.7004   -0.5224   -0.9237 C   0  0  0  0  0  0  0  0  0  0  0  0
   -0.6315   -0.0092    0.3726 C   0  0  0  0  0  0  0  0  0  0  0  0
    0.2246    0.2267   -0.8638 C   0  0  0  0  0  0  0  0  0  0  0  0
    1.6138   -0.1912   -0.5172 C   0  0  0  0  0  0  0  0  0  0  0  0
    2.0834    0.6363    0.6279 O   0  0  0  0  0  0  0  0  0  0  0  0
    2.7869    0.5925   -0.5965 C   0  0  0  0  0  0  0  0  0  0  0  0
    4.1277   -0.0938   -0.4372 C   0  0  0  0  0  0  0  0  0  0  0  0
   -3.8832   -0.1245    1.2385 H   0  0  0  0  0  0  0  0  0  0  0  0
   -2.6491    0.9315    2.1208 H   0  0  0  0  0  0  0  0  0  0  0  0
   -2.3597   -0.8120    1.8658 H   0  0  0  0  0  0  0  0  0  0  0  0
   -2.1552    1.4387   -0.1762 H   0  0  0  0  0  0  0  0  0  0  0  0
   -2.5111   -1.5718   -0.5685 H   0  0  0  0  0  0  0  0  0  0  0  0
   -2.2667   -0.3379   -1.9086 H   0  0  0  0  0  0  0  0  0  0  0  0
   -3.7971   -0.3380   -0.8667 H   0  0  0  0  0  0  0  0  0  0  0  0
   -0.2463    0.5165    1.2491 H   0  0  0  0  0  0  0  0  0  0  0  0
   -0.6190   -1.1055    0.5527 H   0  0  0  0  0  0  0  0  0  0  0  0
    0.1712    1.2883   -1.1903 H   0  0  0  0  0  0  0  0  0  0  0  0
   -0.1906   -0.4392   -1.6508 H   0  0  0  0  0  0  0  0  0  0  0  0
    1.6957   -1.2730   -0.2314 H   0  0  0  0  0  0  0  0  0  0  0  0
    2.8360    1.5768   -1.0895 H   0  0  0  0  0  0  0  0  0  0  0  0
    4.5809   -0.2900   -1.4323 H   0  0  0  0  0  0  0  0  0  0  0  0
    3.9759   -1.0959    0.0502 H   0  0  0  0  0  0  0  0  0  0  0  0
    4.8053    0.5080    0.2100 H   0  0  0  0  0  0  0  0  0  0  0  0
  1  2  1  0
  2  3  1  0
  2  4  1  0
  4  5  1  0
  5  6  1  0
  6  7  1  0
  7  8  1  0
  8  9  1  0
  8  6  1  0
  1 10  1  0
  1 11  1  0
  1 12  1  0
  2 13  1  0
  3 14  1  0
  3 15  1  0
  3 16  1  0
  4 17  1  0
  4 18  1  0
  5 19  1  0
  5 20  1  0
  6 21  1  0
  8 22  1  0
  9 23  1  0
  9 24  1  0
  9 25  1  0
M  END
