
     RDKit          3D

 25 25  0  0  0  0  0  0  0  0999 V2000
    0.4686   -0.7468    1.1616 C   0  0  0  0  0  0  0  0  0  0  0  0
    0.3357   -0.3978   -0.2817 C   0  0  0  0  0  0  0  0  0  0  0  0
    1.3727    0.5911   -0.7336 C   0  0  0  0  0  0  0  0  0  0  0  0
    2.7626    0.0142   -0.5271 C   0  0  0  0  0  0  0  0  0  0  0  0
    3.0114   -0.2812    0.7923 O   0  0  0  0  0  0  0  0  0  0  0  0
   -1.0359    0.0306   -0.7056 C   0  0  0  0  0  0  0  0  0  0  0  0
   -1.6231    1.2226   -0.0519 C   0  0  0  0  0  0  0  0  0  0  0  0
   -2.6972    0.3213    0.5451 C   0  0  0  0  0  0  0  0  0  0  0  0
   -2.1604   -0.8467   -0.2618 C   0  0  0  0  0  0  0  0  0  0  0  0
   -0.4846   -1.0192    1.6625 H   0  0  0  0  0  0  0  0  0  0  0  0
    0.8991    0.1468    1.6815 H   0  0  0  0  0  0  0  0  0  0  0  0
    1.1641   -1.5910    1.3517 H   0  0  0  0  0  0  0  0  0  0  0  0
    0.5527   -1.3478   -0.8577 H   0  0  0  0  0  0  0  0  0  0  0  0
    1.2269    0.9015   -1.7828 H   0  0  0  0  0  0  0  0  0  0  0  0
    1.3277    1.5065   -0.0742 H   0  0  0  0  0  0  0  0  0  0  0  0
    2.8414   -0.9472   -1.1173 H   0  0  0  0  0  0  0  0  0  0  0  0
    3.5432    0.6703   -0.9720 H   0  0  0  0  0  0  0  0  0  0  0  0
    3.6554   -1.0428    0.8519 H   0  0  0  0  0  0  0  0  0  0  0  0
   -1.0195    0.1847   -1.8257 H   0  0  0  0  0  0  0  0  0  0  0  0
   -1.0182    1.7297    0.7240 H   0  0  0  0  0  0  0  0  0  0  0  0
   -2.1153    1.9758   -0.7102 H   0  0  0  0  0  0  0  0  0  0  0  0
   -2.5481    0.2023    1.6326 H   0  0  0  0  0  0  0  0  0  0  0  0
   -3.7335    0.5705    0.2387 H   0  0  0  0  0  0  0  0  0  0  0  0
   -1.8928   -1.7221    0.3757 H   0  0  0  0  0  0  0  0  0  0  0  0
   -2.8333   -1.1148   -1.1159 H   0  0  0  0  0  0  0  0  0  0  0  0
  1  2  1  0
  2  3  1  0
  3  4  1  0
  4  5  1  0
  2  6  1  0
  6  7  1  0
  7  8  1  0
  8  9  1  0
  9  6  1  0
  1 10  1  0
  1 11  1  0
  1 12  1  0
  2 13  1  0
  3 14  1  0
  3 15  1  0
  4 16  1  0
  4 17  1  0
  5 18  1  0
  6 19  1  0
  7 20  1  0
  7 21  1  0
  8 22  1  0
  8 23  1  0
  9 24  1  0
  9 25  1  0
M  END
