
     RDKit          3D

 23 23  0  0  0  0  0  0  0  0999 V2000
   -2.1617    0.7157   -0.1475 C   0  0  0  0  0  0  0  0  0  0  0  0
   -1.1303   -0.2393    0.4550 C   0  0  0  0  0  0  0  0  0  0  0  0
   -1.2638   -0.2146    1.9431 C   0  0  0  0  0  0  0  0  0  0  0  0
   -1.4850   -1.5137    0.0109 O   0  0  0  0  0  0  0  0  0  0  0  0
    0.2418    0.1244   -0.0323 C   0  0  0  0  0  0  0  0  0  0  0  0
    0.3763    0.0474   -1.5534 C   0  0  0  0  0  0  0  0  0  0  0  0
    1.1558   -0.8729   -0.6283 C   0  0  0  0  0  0  0  0  0  0  0  0
    2.6283   -0.6380   -0.6217 C   0  0  0  0  0  0  0  0  0  0  0  0
    3.1611   -0.5080    0.6564 O   0  0  0  0  0  0  0  0  0  0  0  0
   -2.1050    1.7162    0.2885 H   0  0  0  0  0  0  0  0  0  0  0  0
   -3.1819    0.3104    0.0522 H   0  0  0  0  0  0  0  0  0  0  0  0
   -2.0188    0.7268   -1.2555 H   0  0  0  0  0  0  0  0  0  0  0  0
   -0.6754   -1.0784    2.3527 H   0  0  0  0  0  0  0  0  0  0  0  0
   -2.3341   -0.4044    2.1853 H   0  0  0  0  0  0  0  0  0  0  0  0
   -0.9101    0.7494    2.3624 H   0  0  0  0  0  0  0  0  0  0  0  0
   -2.4771   -1.5436    0.0356 H   0  0  0  0  0  0  0  0  0  0  0  0
    0.6944    1.0000    0.4831 H   0  0  0  0  0  0  0  0  0  0  0  0
    0.9051    0.9173   -1.9954 H   0  0  0  0  0  0  0  0  0  0  0  0
   -0.4510   -0.3657   -2.1433 H   0  0  0  0  0  0  0  0  0  0  0  0
    0.8798   -1.9651   -0.6333 H   0  0  0  0  0  0  0  0  0  0  0  0
    3.1360   -1.5020   -1.0974 H   0  0  0  0  0  0  0  0  0  0  0  0
    2.9145    0.2423   -1.2579 H   0  0  0  0  0  0  0  0  0  0  0  0
    4.1011   -0.1992    0.5410 H   0  0  0  0  0  0  0  0  0  0  0  0
  1  2  1  0
  2  3  1  0
  2  4  1  0
  2  5  1  0
  5  6  1  0
  6  7  1  0
  7  8  1  0
  8  9  1  0
  7  5  1  0
  1 10  1  0
  1 11  1  0
  1 12  1  0
  3 13  1  0
  3 14  1  0
  3 15  1  0
  4 16  1  0
  5 17  1  0
  6 18  1  0
  6 19  1  0
  7 20  1  0
  8 21  1  0
  8 22  1  0
  9 23  1  0
M  END
