
     RDKit          3D

 22 22  0  0  0  0  0  0  0  0999 V2000
    1.3244   -0.4333   -1.2289 C   0  0  0  0  0  0  0  0  0  0  0  0
    0.8020   -0.2535    0.1817 C   0  0  0  0  0  0  0  0  0  0  0  0
    1.5502    0.8834    0.8691 C   0  0  0  0  0  0  0  0  0  0  0  0
    1.0734   -1.4182    0.8864 O   0  0  0  0  0  0  0  0  0  0  0  0
   -0.6527    0.0474    0.0597 C   0  0  0  0  0  0  0  0  0  0  0  0
   -0.9698    1.2941   -0.7335 C   0  0  0  0  0  0  0  0  0  0  0  0
   -1.6668   -0.4084    1.0185 C   0  0  0  0  0  0  0  0  0  0  0  0
   -1.5039   -1.2077   -0.2157 C   0  0  0  0  0  0  0  0  0  0  0  0
    1.6475   -1.4811   -1.4071 H   0  0  0  0  0  0  0  0  0  0  0  0
    2.1928    0.2378   -1.3727 H   0  0  0  0  0  0  0  0  0  0  0  0
    0.5791   -0.1968   -1.9999 H   0  0  0  0  0  0  0  0  0  0  0  0
    1.8172    1.6599    0.0989 H   0  0  0  0  0  0  0  0  0  0  0  0
    0.9426    1.3746    1.6474 H   0  0  0  0  0  0  0  0  0  0  0  0
    2.4602    0.4483    1.3209 H   0  0  0  0  0  0  0  0  0  0  0  0
    0.7594   -1.3962    1.8163 H   0  0  0  0  0  0  0  0  0  0  0  0
   -0.1161    1.6116   -1.3618 H   0  0  0  0  0  0  0  0  0  0  0  0
   -1.8137    1.0478   -1.3983 H   0  0  0  0  0  0  0  0  0  0  0  0
   -1.3210    2.1083   -0.0668 H   0  0  0  0  0  0  0  0  0  0  0  0
   -2.5896    0.1975    1.1116 H   0  0  0  0  0  0  0  0  0  0  0  0
   -1.3221   -0.8336    1.9718 H   0  0  0  0  0  0  0  0  0  0  0  0
   -2.1498   -1.0947   -1.0918 H   0  0  0  0  0  0  0  0  0  0  0  0
   -1.0432   -2.1874   -0.1058 H   0  0  0  0  0  0  0  0  0  0  0  0
  1  2  1  0
  2  3  1  0
  2  4  1  0
  2  5  1  0
  5  6  1  0
  5  7  1  0
  7  8  1  0
  8  5  1  0
  1  9  1  0
  1 10  1  0
  1 11  1  0
  3 12  1  0
  3 13  1  0
  3 14  1  0
  4 15  1  0
  6 16  1  0
  6 17  1  0
  6 18  1  0
  7 19  1  0
  7 20  1  0
  8 21  1  0
  8 22  1  0
M  END
