
     RDKit          3D

 27 27  0  0  0  0  0  0  0  0999 V2000
    2.2829   -0.5057    1.0045 C   0  0  0  0  0  0  0  0  0  0  0  0
    1.4317    0.0120   -0.1670 C   0  0  0  0  0  0  0  0  0  0  0  0
    1.6240    1.4818   -0.3196 C   0  0  0  0  0  0  0  0  0  0  0  0
    0.0129   -0.4564   -0.0369 C   0  0  0  0  0  0  0  0  0  0  0  0
   -0.0441   -1.9976   -0.0341 C   0  0  0  0  0  0  0  0  0  0  0  0
   -0.8312    0.1056    1.0841 C   0  0  0  0  0  0  0  0  0  0  0  0
   -1.1825    0.2348   -0.4304 C   0  0  0  0  0  0  0  0  0  0  0  0
   -2.3617   -0.6453   -0.8821 C   0  0  0  0  0  0  0  0  0  0  0  0
   -1.3391    1.6488   -0.8355 C   0  0  0  0  0  0  0  0  0  0  0  0
    2.4422    0.3239    1.7252 H   0  0  0  0  0  0  0  0  0  0  0  0
    3.2808   -0.8278    0.6647 H   0  0  0  0  0  0  0  0  0  0  0  0
    1.7987   -1.3479    1.5053 H   0  0  0  0  0  0  0  0  0  0  0  0
    1.8937   -0.4451   -1.0717 H   0  0  0  0  0  0  0  0  0  0  0  0
    1.3802    2.0677    0.5863 H   0  0  0  0  0  0  0  0  0  0  0  0
    2.7429    1.6225   -0.4363 H   0  0  0  0  0  0  0  0  0  0  0  0
    1.1985    1.8528   -1.2493 H   0  0  0  0  0  0  0  0  0  0  0  0
   -0.9762   -2.3692   -0.4647 H   0  0  0  0  0  0  0  0  0  0  0  0
    0.7881   -2.4325   -0.6051 H   0  0  0  0  0  0  0  0  0  0  0  0
    0.0612   -2.3667    1.0207 H   0  0  0  0  0  0  0  0  0  0  0  0
   -1.5054   -0.5148    1.6621 H   0  0  0  0  0  0  0  0  0  0  0  0
   -0.3901    0.9721    1.5808 H   0  0  0  0  0  0  0  0  0  0  0  0
   -1.9962   -1.1884   -1.7787 H   0  0  0  0  0  0  0  0  0  0  0  0
   -3.2244   -0.0475   -1.2036 H   0  0  0  0  0  0  0  0  0  0  0  0
   -2.6793   -1.3223   -0.0624 H   0  0  0  0  0  0  0  0  0  0  0  0
   -0.8670    2.3956   -0.1632 H   0  0  0  0  0  0  0  0  0  0  0  0
   -1.0995    1.8389   -1.9184 H   0  0  0  0  0  0  0  0  0  0  0  0
   -2.4412    1.9106   -0.7767 H   0  0  0  0  0  0  0  0  0  0  0  0
  1  2  1  0
  2  3  1  0
  2  4  1  0
  4  5  1  0
  4  6  1  0
  6  7  1  0
  7  8  1  0
  7  9  1  0
  7  4  1  0
  1 10  1  0
  1 11  1  0
  1 12  1  0
  2 13  1  0
  3 14  1  0
  3 15  1  0
  3 16  1  0
  5 17  1  0
  5 18  1  0
  5 19  1  0
  6 20  1  0
  6 21  1  0
  8 22  1  0
  8 23  1  0
  8 24  1  0
  9 25  1  0
  9 26  1  0
  9 27  1  0
M  END
