
     RDKit          3D

 25 25  0  0  0  0  0  0  0  0999 V2000
   -0.5515    1.8364   -0.4673 C   0  0  0  0  0  0  0  0  0  0  0  0
   -0.9030    0.5591    0.1766 C   0  0  0  0  0  0  0  0  0  0  0  0
   -2.3787    0.2396   -0.0790 C   0  0  0  0  0  0  0  0  0  0  0  0
   -0.0367   -0.6284   -0.0067 C   0  0  0  0  0  0  0  0  0  0  0  0
    1.3795   -0.6530    0.4798 C   0  0  0  0  0  0  0  0  0  0  0  0
    2.3642    0.3086   -0.0195 C   0  0  0  0  0  0  0  0  0  0  0  0
    2.1984    1.6352    0.2254 O   0  0  0  0  0  0  0  0  0  0  0  0
   -0.7335   -1.9539    0.1311 C   0  0  0  0  0  0  0  0  0  0  0  0
   -0.2787   -1.4756   -1.2247 C   0  0  0  0  0  0  0  0  0  0  0  0
   -1.5483    2.2880   -0.8472 H   0  0  0  0  0  0  0  0  0  0  0  0
    0.1138    1.7950   -1.3472 H   0  0  0  0  0  0  0  0  0  0  0  0
   -0.2114    2.6408    0.2156 H   0  0  0  0  0  0  0  0  0  0  0  0
   -0.8983    0.7802    1.3083 H   0  0  0  0  0  0  0  0  0  0  0  0
   -2.9118    1.2271   -0.0210 H   0  0  0  0  0  0  0  0  0  0  0  0
   -2.7395   -0.3347    0.7734 H   0  0  0  0  0  0  0  0  0  0  0  0
   -2.5398   -0.2188   -1.0661 H   0  0  0  0  0  0  0  0  0  0  0  0
    1.8356   -1.6901    0.2812 H   0  0  0  0  0  0  0  0  0  0  0  0
    1.3910   -0.6234    1.6218 H   0  0  0  0  0  0  0  0  0  0  0  0
    3.3727   -0.0180    0.3670 H   0  0  0  0  0  0  0  0  0  0  0  0
    2.4852    0.1668   -1.1429 H   0  0  0  0  0  0  0  0  0  0  0  0
    3.0355    2.1345    0.3001 H   0  0  0  0  0  0  0  0  0  0  0  0
   -1.8176   -2.0423    0.2113 H   0  0  0  0  0  0  0  0  0  0  0  0
   -0.1988   -2.7855    0.6238 H   0  0  0  0  0  0  0  0  0  0  0  0
   -0.9795   -1.1103   -1.9815 H   0  0  0  0  0  0  0  0  0  0  0  0
    0.5513   -2.0775   -1.6470 H   0  0  0  0  0  0  0  0  0  0  0  0
  1  2  1  0
  2  3  1  0
  2  4  1  0
  4  5  1  0
  5  6  1  0
  6  7  1  0
  4  8  1  0
  8  9  1  0
  9  4  1  0
  1 10  1  0
  1 11  1  0
  1 12  1  0
  2 13  1  0
  3 14  1  0
  3 15  1  0
  3 16  1  0
  5 17  1  0
  5 18  1  0
  6 19  1  0
  6 20  1  0
  7 21  1  0
  8 22  1  0
  8 23  1  0
  9 24  1  0
  9 25  1  0
M  END
