
     RDKit          3D

 14 13  0  0  0  0  0  0  0  0999 V2000
   -0.9389    1.1101    0.1335 C   0  0  0  0  0  0  0  0  0  0  0  0
   -0.3717   -0.1462   -0.4142 C   0  0  0  0  0  0  0  0  0  0  0  0
   -0.8101   -1.3744    0.2884 C   0  0  0  0  0  0  0  0  0  0  0  0
   -1.6181   -1.3938    1.1975 O   0  0  0  0  0  0  0  0  0  0  0  0
    1.1510   -0.1588   -0.4168 C   0  0  0  0  0  0  0  0  0  0  0  0
    1.6776   -0.0209    0.8497 O   0  0  0  0  0  0  0  0  0  0  0  0
   -1.1746    1.8583   -0.6530 H   0  0  0  0  0  0  0  0  0  0  0  0
   -0.2691    1.6186    0.8691 H   0  0  0  0  0  0  0  0  0  0  0  0
   -1.8921    0.9246    0.6714 H   0  0  0  0  0  0  0  0  0  0  0  0
   -0.6826   -0.2558   -1.4759 H   0  0  0  0  0  0  0  0  0  0  0  0
   -0.3572   -2.3039   -0.0597 H   0  0  0  0  0  0  0  0  0  0  0  0
    1.4287   -1.1748   -0.7786 H   0  0  0  0  0  0  0  0  0  0  0  0
    1.5775    0.5585   -1.1359 H   0  0  0  0  0  0  0  0  0  0  0  0
    2.2797    0.7584    0.9245 H   0  0  0  0  0  0  0  0  0  0  0  0
  1  2  1  0
  2  3  1  0
  3  4  2  0
  2  5  1  0
  5  6  1  0
  1  7  1  0
  1  8  1  0
  1  9  1  0
  2 10  1  0
  3 11  1  0
  5 12  1  0
  5 13  1  0
  6 14  1  0
M  END
