
     RDKit          3D

 19 19  0  0  0  0  0  0  0  0999 V2000
   -2.4430    0.4159    0.8318 C   0  0  0  0  0  0  0  0  0  0  0  0
   -1.7124   -0.9184    0.7114 C   0  0  0  0  0  0  0  0  0  0  0  0
   -0.3624   -0.6069    0.2323 C   0  0  0  0  0  0  0  0  0  0  0  0
    0.7570   -0.3592   -0.1836 C   0  0  0  0  0  0  0  0  0  0  0  0
    2.0998   -0.0634   -0.6875 C   0  0  0  0  0  0  0  0  0  0  0  0
    2.3332    1.3328   -1.1200 C   0  0  0  0  0  0  0  0  0  0  0  0
    2.8962    0.9362    0.1803 C   0  0  0  0  0  0  0  0  0  0  0  0
   -2.4065   -1.8239   -0.2293 C   0  0  0  0  0  0  0  0  0  0  0  0
   -3.2897   -1.4910   -0.9836 O   0  0  0  0  0  0  0  0  0  0  0  0
   -1.9082    0.9825    1.6283 H   0  0  0  0  0  0  0  0  0  0  0  0
   -2.2692    0.9610   -0.1219 H   0  0  0  0  0  0  0  0  0  0  0  0
   -3.5008    0.2967    1.0882 H   0  0  0  0  0  0  0  0  0  0  0  0
   -1.6595   -1.4188    1.7068 H   0  0  0  0  0  0  0  0  0  0  0  0
    2.6687   -0.8689   -1.1793 H   0  0  0  0  0  0  0  0  0  0  0  0
    3.0459    1.4690   -1.9582 H   0  0  0  0  0  0  0  0  0  0  0  0
    1.5102    2.0798   -1.1239 H   0  0  0  0  0  0  0  0  0  0  0  0
    2.3865    1.2964    1.1138 H   0  0  0  0  0  0  0  0  0  0  0  0
    3.9440    0.6464    0.3282 H   0  0  0  0  0  0  0  0  0  0  0  0
   -2.0898   -2.8663   -0.2338 H   0  0  0  0  0  0  0  0  0  0  0  0
  1  2  1  0
  2  3  1  0
  3  4  3  0
  4  5  1  0
  5  6  1  0
  6  7  1  0
  2  8  1  0
  8  9  2  0
  7  5  1  0
  1 10  1  0
  1 11  1  0
  1 12  1  0
  2 13  1  0
  5 14  1  0
  6 15  1  0
  6 16  1  0
  7 17  1  0
  7 18  1  0
  8 19  1  0
M  END
