
     RDKit          3D

 23 24  0  0  0  0  0  0  0  0999 V2000
   -1.4292   -1.2592   -0.9103 C   0  0  0  0  0  0  0  0  0  0  0  0
   -1.0316    0.1119   -0.4689 C   0  0  0  0  0  0  0  0  0  0  0  0
   -2.0201    0.5368    0.6212 C   0  0  0  0  0  0  0  0  0  0  0  0
    0.3355    0.2173    0.0968 C   0  0  0  0  0  0  0  0  0  0  0  0
    0.7681   -0.5418    1.2984 C   0  0  0  0  0  0  0  0  0  0  0  0
    2.0153   -0.9694    0.5251 C   0  0  0  0  0  0  0  0  0  0  0  0
    1.5620   -0.0732   -0.6317 C   0  0  0  0  0  0  0  0  0  0  0  0
    1.2438    1.3511   -0.3104 C   0  0  0  0  0  0  0  0  0  0  0  0
    0.7844    2.1192   -1.3568 O   0  0  0  0  0  0  0  0  0  0  0  0
   -1.0198   -1.5741   -1.8675 H   0  0  0  0  0  0  0  0  0  0  0  0
   -2.5552   -1.2777   -0.9677 H   0  0  0  0  0  0  0  0  0  0  0  0
   -1.1641   -1.9756   -0.0934 H   0  0  0  0  0  0  0  0  0  0  0  0
   -1.0912    0.8253   -1.3407 H   0  0  0  0  0  0  0  0  0  0  0  0
   -1.9993   -0.2643    1.3865 H   0  0  0  0  0  0  0  0  0  0  0  0
   -1.6084    1.4775    1.0437 H   0  0  0  0  0  0  0  0  0  0  0  0
   -3.0299    0.6743    0.2059 H   0  0  0  0  0  0  0  0  0  0  0  0
    1.0741    0.1599    2.1113 H   0  0  0  0  0  0  0  0  0  0  0  0
    0.1329   -1.3661    1.6372 H   0  0  0  0  0  0  0  0  0  0  0  0
    2.0075   -2.0454    0.2270 H   0  0  0  0  0  0  0  0  0  0  0  0
    2.9678   -0.6081    0.9592 H   0  0  0  0  0  0  0  0  0  0  0  0
    1.6283   -0.4464   -1.6505 H   0  0  0  0  0  0  0  0  0  0  0  0
    1.7179    1.8699    0.5367 H   0  0  0  0  0  0  0  0  0  0  0  0
    0.7113    3.0577   -1.0513 H   0  0  0  0  0  0  0  0  0  0  0  0
  1  2  1  0
  2  3  1  0
  2  4  1  0
  4  5  1  0
  5  6  1  0
  6  7  1  0
  7  8  1  0
  8  9  1  0
  7  4  1  0
  8  4  1  0
  1 10  1  0
  1 11  1  0
  1 12  1  0
  2 13  1  0
  3 14  1  0
  3 15  1  0
  3 16  1  0
  5 17  1  0
  5 18  1  0
  6 19  1  0
  6 20  1  0
  7 21  1  0
  8 22  1  0
  9 23  1  0
M  END
