
     RDKit          3D

 25 25  0  0  0  0  0  0  0  0999 V2000
   -1.4464   -1.3157   -0.8447 C   0  0  0  0  0  0  0  0  0  0  0  0
   -0.3489   -0.3750   -0.3892 C   0  0  0  0  0  0  0  0  0  0  0  0
    0.6492   -1.1739    0.3643 C   0  0  0  0  0  0  0  0  0  0  0  0
    1.8117   -0.3800    0.8883 C   0  0  0  0  0  0  0  0  0  0  0  0
    2.5943    0.2952   -0.2133 C   0  0  0  0  0  0  0  0  0  0  0  0
    3.6450    0.9998    0.3935 O   0  0  0  0  0  0  0  0  0  0  0  0
   -1.0010    0.7143    0.4299 C   0  0  0  0  0  0  0  0  0  0  0  0
   -2.0500    1.5497   -0.2985 C   0  0  0  0  0  0  0  0  0  0  0  0
   -2.4590    0.5834    0.7857 C   0  0  0  0  0  0  0  0  0  0  0  0
   -1.8405   -1.8566    0.0559 H   0  0  0  0  0  0  0  0  0  0  0  0
   -2.2145   -0.8326   -1.4408 H   0  0  0  0  0  0  0  0  0  0  0  0
   -0.9994   -2.1244   -1.4857 H   0  0  0  0  0  0  0  0  0  0  0  0
    0.0997    0.0629   -1.3138 H   0  0  0  0  0  0  0  0  0  0  0  0
    0.1467   -1.6436    1.2289 H   0  0  0  0  0  0  0  0  0  0  0  0
    1.0284   -1.9739   -0.2727 H   0  0  0  0  0  0  0  0  0  0  0  0
    2.5090   -1.1110    1.3665 H   0  0  0  0  0  0  0  0  0  0  0  0
    1.5358    0.3369    1.6637 H   0  0  0  0  0  0  0  0  0  0  0  0
    1.9901    1.0127   -0.7861 H   0  0  0  0  0  0  0  0  0  0  0  0
    3.0748   -0.4411   -0.8871 H   0  0  0  0  0  0  0  0  0  0  0  0
    3.9789    1.7316   -0.1908 H   0  0  0  0  0  0  0  0  0  0  0  0
   -0.4075    1.2905    1.1376 H   0  0  0  0  0  0  0  0  0  0  0  0
   -2.1618    2.6148   -0.0273 H   0  0  0  0  0  0  0  0  0  0  0  0
   -2.2650    1.2956   -1.3590 H   0  0  0  0  0  0  0  0  0  0  0  0
   -2.8135    0.9985    1.7661 H   0  0  0  0  0  0  0  0  0  0  0  0
   -3.0562   -0.2584    0.4391 H   0  0  0  0  0  0  0  0  0  0  0  0
  1  2  1  0
  2  3  1  0
  3  4  1  0
  4  5  1  0
  5  6  1  0
  2  7  1  0
  7  8  1  0
  8  9  1  0
  9  7  1  0
  1 10  1  0
  1 11  1  0
  1 12  1  0
  2 13  1  0
  3 14  1  0
  3 15  1  0
  4 16  1  0
  4 17  1  0
  5 18  1  0
  5 19  1  0
  6 20  1  0
  7 21  1  0
  8 22  1  0
  8 23  1  0
  9 24  1  0
  9 25  1  0
M  END
