
     RDKit          3D

 19 19  0  0  0  0  0  0  0  0999 V2000
    1.7876   -1.1654   -0.6711 C   0  0  0  0  0  0  0  0  0  0  0  0
    1.0416    0.0837   -0.2402 C   0  0  0  0  0  0  0  0  0  0  0  0
    1.7438    0.6579    0.9516 C   0  0  0  0  0  0  0  0  0  0  0  0
   -0.2669   -0.3343    0.0579 O   0  0  0  0  0  0  0  0  0  0  0  0
   -1.2049    0.2418   -0.7608 C   0  0  0  0  0  0  0  0  0  0  0  0
   -2.3563    0.8018    0.0683 C   0  0  0  0  0  0  0  0  0  0  0  0
   -3.1692    0.4423   -1.0330 O   0  0  0  0  0  0  0  0  0  0  0  0
   -2.3058   -0.6543   -1.2163 C   0  0  0  0  0  0  0  0  0  0  0  0
   -2.4276   -1.8346   -1.5915 O   0  0  0  0  0  0  0  0  0  0  0  0
    1.0812   -1.9180   -1.0736 H   0  0  0  0  0  0  0  0  0  0  0  0
    2.2613   -1.5967    0.2276 H   0  0  0  0  0  0  0  0  0  0  0  0
    2.5929   -0.9170   -1.4018 H   0  0  0  0  0  0  0  0  0  0  0  0
    1.0436    0.8059   -1.0914 H   0  0  0  0  0  0  0  0  0  0  0  0
    1.2395    0.4276    1.9092 H   0  0  0  0  0  0  0  0  0  0  0  0
    2.7837    0.2473    1.0312 H   0  0  0  0  0  0  0  0  0  0  0  0
    1.8668    1.7549    0.7939 H   0  0  0  0  0  0  0  0  0  0  0  0
   -0.8570    0.9356   -1.5269 H   0  0  0  0  0  0  0  0  0  0  0  0
   -2.2908    1.8782    0.2884 H   0  0  0  0  0  0  0  0  0  0  0  0
   -2.5636    0.1435    0.9566 H   0  0  0  0  0  0  0  0  0  0  0  0
  1  2  1  0
  2  3  1  0
  2  4  1  0
  4  5  1  0
  5  6  1  0
  6  7  1  0
  7  8  1  0
  8  9  2  0
  8  5  1  0
  1 10  1  0
  1 11  1  0
  1 12  1  0
  2 13  1  0
  3 14  1  0
  3 15  1  0
  3 16  1  0
  5 17  1  0
  6 18  1  0
  6 19  1  0
M  END
