
     RDKit          3D

 21 21  0  0  0  0  0  0  0  0999 V2000
   -1.4029    1.5577    0.2161 C   0  0  0  0  0  0  0  0  0  0  0  0
   -0.7859    0.1669    0.3706 C   0  0  0  0  0  0  0  0  0  0  0  0
   -1.4173   -0.7769   -0.6231 C   0  0  0  0  0  0  0  0  0  0  0  0
   -0.8947   -2.0307   -0.5047 O   0  0  0  0  0  0  0  0  0  0  0  0
    0.7137    0.2357    0.2323 C   0  0  0  0  0  0  0  0  0  0  0  0
    1.5829   -0.9633    0.3400 C   0  0  0  0  0  0  0  0  0  0  0  0
    1.6916   -1.4342    1.6694 O   0  0  0  0  0  0  0  0  0  0  0  0
    1.3185    1.4728   -0.3697 C   0  0  0  0  0  0  0  0  0  0  0  0
    1.2139    1.3509    1.0048 O   0  0  0  0  0  0  0  0  0  0  0  0
   -0.9334    2.2602    0.9218 H   0  0  0  0  0  0  0  0  0  0  0  0
   -1.3810    1.9031   -0.8270 H   0  0  0  0  0  0  0  0  0  0  0  0
   -2.4693    1.4480    0.5257 H   0  0  0  0  0  0  0  0  0  0  0  0
   -1.0802   -0.1773    1.3836 H   0  0  0  0  0  0  0  0  0  0  0  0
   -1.3824   -0.3669   -1.6531 H   0  0  0  0  0  0  0  0  0  0  0  0
   -2.5122   -0.8108   -0.3540 H   0  0  0  0  0  0  0  0  0  0  0  0
   -1.2750   -2.5343    0.2430 H   0  0  0  0  0  0  0  0  0  0  0  0
    1.3686   -1.7782   -0.3529 H   0  0  0  0  0  0  0  0  0  0  0  0
    2.6539   -0.6625    0.1062 H   0  0  0  0  0  0  0  0  0  0  0  0
    1.9811   -2.3872    1.5887 H   0  0  0  0  0  0  0  0  0  0  0  0
    2.3627    1.3786   -0.7438 H   0  0  0  0  0  0  0  0  0  0  0  0
    0.6474    2.1485   -0.9245 H   0  0  0  0  0  0  0  0  0  0  0  0
  1  2  1  0
  2  3  1  0
  3  4  1  0
  2  5  1  0
  5  6  1  0
  6  7  1  0
  5  8  1  0
  8  9  1  0
  9  5  1  0
  1 10  1  0
  1 11  1  0
  1 12  1  0
  2 13  1  0
  3 14  1  0
  3 15  1  0
  4 16  1  0
  6 17  1  0
  6 18  1  0
  7 19  1  0
  8 20  1  0
  8 21  1  0
M  END
