
     RDKit          3D

 23 24  0  0  0  0  0  0  0  0999 V2000
   -2.3239    0.6315   -0.7172 C   0  0  0  0  0  0  0  0  0  0  0  0
   -1.1141   -0.2451   -0.5043 C   0  0  0  0  0  0  0  0  0  0  0  0
   -1.4562   -1.3968    0.4315 C   0  0  0  0  0  0  0  0  0  0  0  0
    0.0449    0.4691    0.0826 C   0  0  0  0  0  0  0  0  0  0  0  0
    0.6870    1.6436   -0.6058 C   0  0  0  0  0  0  0  0  0  0  0  0
    2.0288    1.1084   -0.0803 C   0  0  0  0  0  0  0  0  0  0  0  0
    1.2217    0.0366    0.6203 C   0  0  0  0  0  0  0  0  0  0  0  0
    1.7855   -1.3218    0.8355 C   0  0  0  0  0  0  0  0  0  0  0  0
    0.2319    0.4773    1.4796 O   0  0  0  0  0  0  0  0  0  0  0  0
   -2.0588    1.6981   -0.6849 H   0  0  0  0  0  0  0  0  0  0  0  0
   -3.0783    0.3895    0.0861 H   0  0  0  0  0  0  0  0  0  0  0  0
   -2.7751    0.3501   -1.6903 H   0  0  0  0  0  0  0  0  0  0  0  0
   -0.7824   -0.7248   -1.4576 H   0  0  0  0  0  0  0  0  0  0  0  0
   -0.6734   -2.1645    0.3767 H   0  0  0  0  0  0  0  0  0  0  0  0
   -2.4524   -1.7616    0.1283 H   0  0  0  0  0  0  0  0  0  0  0  0
   -1.4857   -1.0318    1.4920 H   0  0  0  0  0  0  0  0  0  0  0  0
    0.4186    2.6412   -0.1772 H   0  0  0  0  0  0  0  0  0  0  0  0
    0.6822    1.6495   -1.6947 H   0  0  0  0  0  0  0  0  0  0  0  0
    2.5011    1.7957    0.6355 H   0  0  0  0  0  0  0  0  0  0  0  0
    2.6919    0.7415   -0.8737 H   0  0  0  0  0  0  0  0  0  0  0  0
    1.7554   -1.9796   -0.0622 H   0  0  0  0  0  0  0  0  0  0  0  0
    2.8675   -1.2232    1.1464 H   0  0  0  0  0  0  0  0  0  0  0  0
    1.2837   -1.7831    1.7123 H   0  0  0  0  0  0  0  0  0  0  0  0
  1  2  1  0
  2  3  1  0
  2  4  1  0
  4  5  1  0
  5  6  1  0
  6  7  1  0
  7  8  1  0
  7  9  1  0
  7  4  1  0
  9  4  1  0
  1 10  1  0
  1 11  1  0
  1 12  1  0
  2 13  1  0
  3 14  1  0
  3 15  1  0
  3 16  1  0
  5 17  1  0
  5 18  1  0
  6 19  1  0
  6 20  1  0
  8 21  1  0
  8 22  1  0
  8 23  1  0
M  END
