
     RDKit          3D

 22 21  0  0  0  0  0  0  0  0999 V2000
   -2.2529   -0.9878    0.7191 C   0  0  0  0  0  0  0  0  0  0  0  0
   -1.2650    0.1202    0.4199 C   0  0  0  0  0  0  0  0  0  0  0  0
   -1.7290    0.8323   -0.8143 C   0  0  0  0  0  0  0  0  0  0  0  0
    0.1239   -0.4496    0.2837 C   0  0  0  0  0  0  0  0  0  0  0  0
    0.1919   -1.3827   -0.7475 O   0  0  0  0  0  0  0  0  0  0  0  0
    1.1646    0.6337    0.1261 C   0  0  0  0  0  0  0  0  0  0  0  0
    2.5469    0.0493   -0.0088 C   0  0  0  0  0  0  0  0  0  0  0  0
    3.4365    1.1262   -0.1490 O   0  0  0  0  0  0  0  0  0  0  0  0
   -2.4829   -1.5266   -0.2434 H   0  0  0  0  0  0  0  0  0  0  0  0
   -1.7952   -1.6967    1.4563 H   0  0  0  0  0  0  0  0  0  0  0  0
   -3.1795   -0.5166    1.1220 H   0  0  0  0  0  0  0  0  0  0  0  0
   -1.3042    0.8157    1.2828 H   0  0  0  0  0  0  0  0  0  0  0  0
   -0.9358    1.0577   -1.5346 H   0  0  0  0  0  0  0  0  0  0  0  0
   -2.1953    1.8220   -0.5414 H   0  0  0  0  0  0  0  0  0  0  0  0
   -2.4892    0.2150   -1.3780 H   0  0  0  0  0  0  0  0  0  0  0  0
    0.3536   -0.9839    1.2254 H   0  0  0  0  0  0  0  0  0  0  0  0
    0.7802   -2.1346   -0.4875 H   0  0  0  0  0  0  0  0  0  0  0  0
    0.9827    1.2347   -0.7990 H   0  0  0  0  0  0  0  0  0  0  0  0
    1.1532    1.2452    1.0400 H   0  0  0  0  0  0  0  0  0  0  0  0
    2.5974   -0.5161   -0.9749 H   0  0  0  0  0  0  0  0  0  0  0  0
    2.8251   -0.5872    0.8554 H   0  0  0  0  0  0  0  0  0  0  0  0
    3.4729    1.6298    0.6923 H   0  0  0  0  0  0  0  0  0  0  0  0
  1  2  1  0
  2  3  1  0
  2  4  1  0
  4  5  1  0
  4  6  1  0
  6  7  1  0
  7  8  1  0
  1  9  1  0
  1 10  1  0
  1 11  1  0
  2 12  1  0
  3 13  1  0
  3 14  1  0
  3 15  1  0
  4 16  1  0
  5 17  1  0
  6 18  1  0
  6 19  1  0
  7 20  1  0
  7 21  1  0
  8 22  1  0
M  END
