
     RDKit          3D

 18 17  0  0  0  0  0  0  0  0999 V2000
   -0.9536    1.2701    0.1968 C   0  0  0  0  0  0  0  0  0  0  0  0
   -0.5370   -0.1358   -0.2005 C   0  0  0  0  0  0  0  0  0  0  0  0
   -0.6506   -1.0085    1.0013 C   0  0  0  0  0  0  0  0  0  0  0  0
   -1.3907   -0.6364   -1.1885 O   0  0  0  0  0  0  0  0  0  0  0  0
    0.8463   -0.0945   -0.7952 C   0  0  0  0  0  0  0  0  0  0  0  0
    1.2447   -1.3596   -1.1752 O   0  0  0  0  0  0  0  0  0  0  0  0
    1.8444    0.5471    0.0661 C   0  0  0  0  0  0  0  0  0  0  0  0
    2.8632   -0.0566    0.3462 O   0  0  0  0  0  0  0  0  0  0  0  0
   -0.2153    2.0258   -0.1448 H   0  0  0  0  0  0  0  0  0  0  0  0
   -1.9525    1.4848   -0.2217 H   0  0  0  0  0  0  0  0  0  0  0  0
   -1.0387    1.3786    1.3003 H   0  0  0  0  0  0  0  0  0  0  0  0
   -0.3153   -0.4211    1.8956 H   0  0  0  0  0  0  0  0  0  0  0  0
   -1.7318   -1.2136    1.1724 H   0  0  0  0  0  0  0  0  0  0  0  0
   -0.1335   -1.9809    0.9145 H   0  0  0  0  0  0  0  0  0  0  0  0
   -2.1133   -0.0237   -1.4243 H   0  0  0  0  0  0  0  0  0  0  0  0
    0.7548    0.5113   -1.7418 H   0  0  0  0  0  0  0  0  0  0  0  0
    1.7425   -1.8190   -0.4760 H   0  0  0  0  0  0  0  0  0  0  0  0
    1.7366    1.5320    0.4749 H   0  0  0  0  0  0  0  0  0  0  0  0
  1  2  1  0
  2  3  1  0
  2  4  1  0
  2  5  1  0
  5  6  1  0
  5  7  1  0
  7  8  2  0
  1  9  1  0
  1 10  1  0
  1 11  1  0
  3 12  1  0
  3 13  1  0
  3 14  1  0
  4 15  1  0
  5 16  1  0
  6 17  1  0
  7 18  1  0
M  END
