
     RDKit          3D

 22 22  0  0  0  0  0  0  0  0999 V2000
   -1.5283    1.4823   -0.2097 C   0  0  0  0  0  0  0  0  0  0  0  0
   -1.1674    0.1244    0.3561 C   0  0  0  0  0  0  0  0  0  0  0  0
   -1.5793   -1.0020   -0.5302 C   0  0  0  0  0  0  0  0  0  0  0  0
    0.2809    0.0772    0.7497 C   0  0  0  0  0  0  0  0  0  0  0  0
    0.7133   -1.2427    1.3210 C   0  0  0  0  0  0  0  0  0  0  0  0
    1.9623   -1.0305    0.7311 O   0  0  0  0  0  0  0  0  0  0  0  0
    1.2697   -0.3264   -0.2811 C   0  0  0  0  0  0  0  0  0  0  0  0
    2.1682    0.7748   -0.8051 C   0  0  0  0  0  0  0  0  0  0  0  0
   -1.8822    2.1842    0.5723 H   0  0  0  0  0  0  0  0  0  0  0  0
   -2.3732    1.3331   -0.9105 H   0  0  0  0  0  0  0  0  0  0  0  0
   -0.6477    1.9141   -0.7365 H   0  0  0  0  0  0  0  0  0  0  0  0
   -1.7594    0.0216    1.3090 H   0  0  0  0  0  0  0  0  0  0  0  0
   -2.6575   -0.8162   -0.8040 H   0  0  0  0  0  0  0  0  0  0  0  0
   -1.6127   -1.9465    0.0665 H   0  0  0  0  0  0  0  0  0  0  0  0
   -1.0365   -1.0869   -1.4704 H   0  0  0  0  0  0  0  0  0  0  0  0
    0.6176    0.9230    1.3606 H   0  0  0  0  0  0  0  0  0  0  0  0
    0.2538   -2.1373    0.8608 H   0  0  0  0  0  0  0  0  0  0  0  0
    0.7722   -1.2836    2.4274 H   0  0  0  0  0  0  0  0  0  0  0  0
    0.9614   -0.9765   -1.0940 H   0  0  0  0  0  0  0  0  0  0  0  0
    3.1986    0.3614   -0.8134 H   0  0  0  0  0  0  0  0  0  0  0  0
    1.9257    0.9573   -1.8929 H   0  0  0  0  0  0  0  0  0  0  0  0
    2.1202    1.6952   -0.2067 H   0  0  0  0  0  0  0  0  0  0  0  0
  1  2  1  0
  2  3  1  0
  2  4  1  0
  4  5  1  0
  5  6  1  0
  6  7  1  0
  7  8  1  0
  7  4  1  0
  1  9  1  0
  1 10  1  0
  1 11  1  0
  2 12  1  0
  3 13  1  0
  3 14  1  0
  3 15  1  0
  4 16  1  0
  5 17  1  0
  5 18  1  0
  7 19  1  0
  8 20  1  0
  8 21  1  0
  8 22  1  0
M  END
