
     RDKit          3D

 20 21  0  0  0  0  0  0  0  0999 V2000
   -1.3916    1.4430   -0.2906 C   0  0  0  0  0  0  0  0  0  0  0  0
   -0.7953    0.1433    0.1537 C   0  0  0  0  0  0  0  0  0  0  0  0
   -1.8347   -0.9517   -0.0647 C   0  0  0  0  0  0  0  0  0  0  0  0
    0.4256   -0.2581   -0.6327 C   0  0  0  0  0  0  0  0  0  0  0  0
    1.5761    0.7314   -0.5644 C   0  0  0  0  0  0  0  0  0  0  0  0
    2.2838   -0.2565    0.3259 C   0  0  0  0  0  0  0  0  0  0  0  0
    2.4793   -1.5215   -0.3765 O   0  0  0  0  0  0  0  0  0  0  0  0
    1.2902   -1.1770    0.2441 C   0  0  0  0  0  0  0  0  0  0  0  0
   -1.5409    2.1281    0.5936 H   0  0  0  0  0  0  0  0  0  0  0  0
   -2.4048    1.3052   -0.7262 H   0  0  0  0  0  0  0  0  0  0  0  0
   -0.7510    2.0046   -0.9942 H   0  0  0  0  0  0  0  0  0  0  0  0
   -0.5595    0.1657    1.2282 H   0  0  0  0  0  0  0  0  0  0  0  0
   -1.3974   -1.8475   -0.5483 H   0  0  0  0  0  0  0  0  0  0  0  0
   -2.6378   -0.5982   -0.7708 H   0  0  0  0  0  0  0  0  0  0  0  0
   -2.2741   -1.3010    0.8915 H   0  0  0  0  0  0  0  0  0  0  0  0
    0.2141   -0.6883   -1.6075 H   0  0  0  0  0  0  0  0  0  0  0  0
    2.1151    0.7984   -1.5437 H   0  0  0  0  0  0  0  0  0  0  0  0
    1.3584    1.6928   -0.1074 H   0  0  0  0  0  0  0  0  0  0  0  0
    3.0536    0.0345    1.0208 H   0  0  0  0  0  0  0  0  0  0  0  0
    0.7908   -1.8472    0.9412 H   0  0  0  0  0  0  0  0  0  0  0  0
  1  2  1  0
  2  3  1  0
  2  4  1  0
  4  5  1  0
  5  6  1  0
  6  7  1  0
  7  8  1  0
  8  4  1  0
  8  6  1  0
  1  9  1  0
  1 10  1  0
  1 11  1  0
  2 12  1  0
  3 13  1  0
  3 14  1  0
  3 15  1  0
  4 16  1  0
  5 17  1  0
  5 18  1  0
  6 19  1  0
  8 20  1  0
M  END
