
     RDKit          3D

 20 20  0  0  0  0  0  0  0  0999 V2000
   -1.4133    1.4935    0.1163 C   0  0  0  0  0  0  0  0  0  0  0  0
   -0.5928    0.2628   -0.0617 C   0  0  0  0  0  0  0  0  0  0  0  0
   -1.3807   -0.9634    0.3999 C   0  0  0  0  0  0  0  0  0  0  0  0
   -2.5331   -0.9875   -0.4205 O   0  0  0  0  0  0  0  0  0  0  0  0
    0.7461    0.3574    0.6158 C   0  0  0  0  0  0  0  0  0  0  0  0
    1.5818   -0.8681    0.4473 C   0  0  0  0  0  0  0  0  0  0  0  0
    2.6646    0.0735   -0.0386 C   0  0  0  0  0  0  0  0  0  0  0  0
    1.6567    1.0330   -0.2295 O   0  0  0  0  0  0  0  0  0  0  0  0
   -2.1876    1.3869    0.9170 H   0  0  0  0  0  0  0  0  0  0  0  0
   -1.9540    1.7920   -0.8170 H   0  0  0  0  0  0  0  0  0  0  0  0
   -0.8178    2.3920    0.4036 H   0  0  0  0  0  0  0  0  0  0  0  0
   -0.4137    0.1141   -1.1518 H   0  0  0  0  0  0  0  0  0  0  0  0
   -1.6249   -0.9131    1.4601 H   0  0  0  0  0  0  0  0  0  0  0  0
   -0.8323   -1.8957    0.1589 H   0  0  0  0  0  0  0  0  0  0  0  0
   -3.3157   -1.3059    0.0970 H   0  0  0  0  0  0  0  0  0  0  0  0
    0.7668    0.8527    1.5999 H   0  0  0  0  0  0  0  0  0  0  0  0
    1.2103   -1.5158   -0.3611 H   0  0  0  0  0  0  0  0  0  0  0  0
    1.8880   -1.3825    1.3792 H   0  0  0  0  0  0  0  0  0  0  0  0
    3.4081    0.3627    0.7343 H   0  0  0  0  0  0  0  0  0  0  0  0
    3.1434   -0.2885   -0.9657 H   0  0  0  0  0  0  0  0  0  0  0  0
  1  2  1  0
  2  3  1  0
  3  4  1  0
  2  5  1  0
  5  6  1  0
  6  7  1  0
  7  8  1  0
  8  5  1  0
  1  9  1  0
  1 10  1  0
  1 11  1  0
  2 12  1  0
  3 13  1  0
  3 14  1  0
  4 15  1  0
  5 16  1  0
  6 17  1  0
  6 18  1  0
  7 19  1  0
  7 20  1  0
M  END
