
     RDKit          3D

 25 25  0  0  0  0  0  0  0  0999 V2000
    2.1780    0.3448    1.1879 C   0  0  0  0  0  0  0  0  0  0  0  0
    1.3208   -0.3859    0.1964 C   0  0  0  0  0  0  0  0  0  0  0  0
    1.7148   -0.0054   -1.1770 C   0  0  0  0  0  0  0  0  0  0  0  0
   -0.1233   -0.1778    0.5291 C   0  0  0  0  0  0  0  0  0  0  0  0
   -1.1266   -0.8346   -0.3552 C   0  0  0  0  0  0  0  0  0  0  0  0
   -2.1518   -1.6304    0.4251 C   0  0  0  0  0  0  0  0  0  0  0  0
   -1.6256    0.5167   -0.8251 C   0  0  0  0  0  0  0  0  0  0  0  0
   -0.7127    1.1499    0.2263 C   0  0  0  0  0  0  0  0  0  0  0  0
    0.1197    2.1343   -0.2445 O   0  0  0  0  0  0  0  0  0  0  0  0
    1.5994    1.1604    1.6327 H   0  0  0  0  0  0  0  0  0  0  0  0
    2.6016   -0.3232    1.9745 H   0  0  0  0  0  0  0  0  0  0  0  0
    3.0716    0.8281    0.7021 H   0  0  0  0  0  0  0  0  0  0  0  0
    1.5208   -1.4911    0.3128 H   0  0  0  0  0  0  0  0  0  0  0  0
    1.0394   -0.3769   -1.9733 H   0  0  0  0  0  0  0  0  0  0  0  0
    2.7098   -0.4960   -1.3944 H   0  0  0  0  0  0  0  0  0  0  0  0
    1.8773    1.0638   -1.3537 H   0  0  0  0  0  0  0  0  0  0  0  0
   -0.2789   -0.4269    1.6183 H   0  0  0  0  0  0  0  0  0  0  0  0
   -0.6666   -1.3753   -1.2083 H   0  0  0  0  0  0  0  0  0  0  0  0
   -2.8866   -0.9634    0.9087 H   0  0  0  0  0  0  0  0  0  0  0  0
   -1.6711   -2.2493    1.2310 H   0  0  0  0  0  0  0  0  0  0  0  0
   -2.7135   -2.2994   -0.2722 H   0  0  0  0  0  0  0  0  0  0  0  0
   -2.6974    0.6381   -0.6429 H   0  0  0  0  0  0  0  0  0  0  0  0
   -1.3344    0.7931   -1.8538 H   0  0  0  0  0  0  0  0  0  0  0  0
   -1.3646    1.5782    1.0420 H   0  0  0  0  0  0  0  0  0  0  0  0
   -0.3999    2.8281   -0.6864 H   0  0  0  0  0  0  0  0  0  0  0  0
  1  2  1  0
  2  3  1  0
  2  4  1  0
  4  5  1  0
  5  6  1  0
  5  7  1  0
  7  8  1  0
  8  9  1  0
  8  4  1  0
  1 10  1  0
  1 11  1  0
  1 12  1  0
  2 13  1  0
  3 14  1  0
  3 15  1  0
  3 16  1  0
  4 17  1  0
  5 18  1  0
  6 19  1  0
  6 20  1  0
  6 21  1  0
  7 22  1  0
  7 23  1  0
  8 24  1  0
  9 25  1  0
M  END
