
     RDKit          3D

 21 21  0  0  0  0  0  0  0  0999 V2000
   -2.0765   -0.4626   -0.9104 C   0  0  0  0  0  0  0  0  0  0  0  0
   -1.2160   -0.0389    0.2212 C   0  0  0  0  0  0  0  0  0  0  0  0
   -1.7614    1.2034    0.8330 C   0  0  0  0  0  0  0  0  0  0  0  0
   -1.1874    2.2727    0.7279 O   0  0  0  0  0  0  0  0  0  0  0  0
    0.2099    0.2244   -0.1477 C   0  0  0  0  0  0  0  0  0  0  0  0
    0.9057   -0.9934   -0.7329 C   0  0  0  0  0  0  0  0  0  0  0  0
    2.3437   -0.5827   -0.5578 C   0  0  0  0  0  0  0  0  0  0  0  0
    2.4394    0.2660    0.4610 C   0  0  0  0  0  0  0  0  0  0  0  0
    1.0880    0.4922    1.0470 C   0  0  0  0  0  0  0  0  0  0  0  0
   -1.7638   -0.0986   -1.9025 H   0  0  0  0  0  0  0  0  0  0  0  0
   -3.1442   -0.1774   -0.6943 H   0  0  0  0  0  0  0  0  0  0  0  0
   -2.1011   -1.5912   -0.9246 H   0  0  0  0  0  0  0  0  0  0  0  0
   -1.2175   -0.8110    1.0259 H   0  0  0  0  0  0  0  0  0  0  0  0
   -2.6963    1.2161    1.4018 H   0  0  0  0  0  0  0  0  0  0  0  0
    0.3336    1.0512   -0.8671 H   0  0  0  0  0  0  0  0  0  0  0  0
    0.7345   -1.8968   -0.1167 H   0  0  0  0  0  0  0  0  0  0  0  0
    0.6984   -1.1391   -1.7957 H   0  0  0  0  0  0  0  0  0  0  0  0
    3.1827   -0.9138   -1.1554 H   0  0  0  0  0  0  0  0  0  0  0  0
    3.3453    0.7360    0.8302 H   0  0  0  0  0  0  0  0  0  0  0  0
    0.9144   -0.2766    1.8146 H   0  0  0  0  0  0  0  0  0  0  0  0
    0.9686    1.5202    1.4425 H   0  0  0  0  0  0  0  0  0  0  0  0
  1  2  1  0
  2  3  1  0
  3  4  2  0
  2  5  1  0
  5  6  1  0
  6  7  1  0
  7  8  2  0
  8  9  1  0
  9  5  1  0
  1 10  1  0
  1 11  1  0
  1 12  1  0
  2 13  1  0
  3 14  1  0
  5 15  1  0
  6 16  1  0
  6 17  1  0
  7 18  1  0
  8 19  1  0
  9 20  1  0
  9 21  1  0
M  END
