
     RDKit          3D

 23 24  0  0  0  0  0  0  0  0999 V2000
   -0.2828    1.9579    0.5051 C   0  0  0  0  0  0  0  0  0  0  0  0
    0.3699    0.8012   -0.2889 C   0  0  0  0  0  0  0  0  0  0  0  0
    1.5446    0.3895    0.5192 C   0  0  0  0  0  0  0  0  0  0  0  0
    2.4588   -0.6760    0.0401 C   0  0  0  0  0  0  0  0  0  0  0  0
    2.8330    0.7569    0.1824 O   0  0  0  0  0  0  0  0  0  0  0  0
   -0.6662   -0.2658   -0.3541 C   0  0  0  0  0  0  0  0  0  0  0  0
   -1.9960    0.0961   -1.0433 C   0  0  0  0  0  0  0  0  0  0  0  0
   -0.8274   -1.1422    0.9062 C   0  0  0  0  0  0  0  0  0  0  0  0
   -0.3788   -1.7314   -0.3708 C   0  0  0  0  0  0  0  0  0  0  0  0
   -0.8496    1.5148    1.3192 H   0  0  0  0  0  0  0  0  0  0  0  0
   -0.9212    2.5696   -0.1293 H   0  0  0  0  0  0  0  0  0  0  0  0
    0.5291    2.5703    0.9386 H   0  0  0  0  0  0  0  0  0  0  0  0
    0.6550    1.1322   -1.2981 H   0  0  0  0  0  0  0  0  0  0  0  0
    1.3725    0.4648    1.6313 H   0  0  0  0  0  0  0  0  0  0  0  0
    3.0097   -1.3200    0.7584 H   0  0  0  0  0  0  0  0  0  0  0  0
    2.5397   -0.8707   -1.0501 H   0  0  0  0  0  0  0  0  0  0  0  0
   -2.1170    1.1794   -1.0894 H   0  0  0  0  0  0  0  0  0  0  0  0
   -2.8348   -0.4376   -0.5766 H   0  0  0  0  0  0  0  0  0  0  0  0
   -1.9217   -0.2837   -2.0902 H   0  0  0  0  0  0  0  0  0  0  0  0
   -1.8678   -1.3156    1.2106 H   0  0  0  0  0  0  0  0  0  0  0  0
   -0.1386   -0.9020    1.7309 H   0  0  0  0  0  0  0  0  0  0  0  0
    0.6234   -2.0712   -0.5709 H   0  0  0  0  0  0  0  0  0  0  0  0
   -1.1338   -2.4164   -0.8803 H   0  0  0  0  0  0  0  0  0  0  0  0
  1  2  1  0
  2  3  1  0
  3  4  1  0
  4  5  1  0
  2  6  1  0
  6  7  1  0
  6  8  1  0
  8  9  1  0
  5  3  1  0
  9  6  1  0
  1 10  1  0
  1 11  1  0
  1 12  1  0
  2 13  1  0
  3 14  1  0
  4 15  1  0
  4 16  1  0
  7 17  1  0
  7 18  1  0
  7 19  1  0
  8 20  1  0
  8 21  1  0
  9 22  1  0
  9 23  1  0
M  END
