
     RDKit          3D

 21 21  0  0  0  0  0  0  0  0999 V2000
   -2.1388    0.7902   -0.7994 C   0  0  0  0  0  0  0  0  0  0  0  0
   -1.4791   -0.0522    0.2461 C   0  0  0  0  0  0  0  0  0  0  0  0
   -1.9179   -1.4668    0.1470 C   0  0  0  0  0  0  0  0  0  0  0  0
   -2.6071   -2.0023    0.9976 O   0  0  0  0  0  0  0  0  0  0  0  0
   -0.0050    0.0093    0.0193 C   0  0  0  0  0  0  0  0  0  0  0  0
    0.7442   -1.0519   -0.2263 C   0  0  0  0  0  0  0  0  0  0  0  0
    2.1919   -0.6541   -0.4072 C   0  0  0  0  0  0  0  0  0  0  0  0
    2.2217    0.6465    0.3884 C   0  0  0  0  0  0  0  0  0  0  0  0
    0.8705    1.1990    0.0106 C   0  0  0  0  0  0  0  0  0  0  0  0
   -2.8440    0.1725   -1.4111 H   0  0  0  0  0  0  0  0  0  0  0  0
   -1.4137    1.2239   -1.5304 H   0  0  0  0  0  0  0  0  0  0  0  0
   -2.6902    1.6094   -0.2812 H   0  0  0  0  0  0  0  0  0  0  0  0
   -1.7252    0.2998    1.2867 H   0  0  0  0  0  0  0  0  0  0  0  0
   -1.6102   -2.0431   -0.7195 H   0  0  0  0  0  0  0  0  0  0  0  0
    0.4084   -2.0958   -0.2985 H   0  0  0  0  0  0  0  0  0  0  0  0
    2.4348   -0.5177   -1.4566 H   0  0  0  0  0  0  0  0  0  0  0  0
    2.7831   -1.3830    0.1422 H   0  0  0  0  0  0  0  0  0  0  0  0
    3.0342    1.3209    0.0482 H   0  0  0  0  0  0  0  0  0  0  0  0
    2.2670    0.4148    1.4695 H   0  0  0  0  0  0  0  0  0  0  0  0
    0.9398    1.6043   -1.0331 H   0  0  0  0  0  0  0  0  0  0  0  0
    0.5354    1.9764    0.7240 H   0  0  0  0  0  0  0  0  0  0  0  0
  1  2  1  0
  2  3  1  0
  3  4  2  0
  2  5  1  0
  5  6  2  0
  6  7  1  0
  7  8  1  0
  8  9  1  0
  9  5  1  0
  1 10  1  0
  1 11  1  0
  1 12  1  0
  2 13  1  0
  3 14  1  0
  6 15  1  0
  7 16  1  0
  7 17  1  0
  8 18  1  0
  8 19  1  0
  9 20  1  0
  9 21  1  0
M  END
