
     RDKit          3D

 27 26  0  0  0  0  0  0  0  0999 V2000
   -2.4256   -0.1356    0.9114 C   0  0  0  0  0  0  0  0  0  0  0  0
   -1.2883    0.5283    0.1505 C   0  0  0  0  0  0  0  0  0  0  0  0
   -1.7023    0.6646   -1.2570 C   0  0  0  0  0  0  0  0  0  0  0  0
   -0.0671   -0.2980    0.4145 C   0  0  0  0  0  0  0  0  0  0  0  0
   -0.2152   -1.7312   -0.0467 C   0  0  0  0  0  0  0  0  0  0  0  0
    1.2134    0.2738   -0.0829 C   0  0  0  0  0  0  0  0  0  0  0  0
    2.3363   -0.6803    0.2652 C   0  0  0  0  0  0  0  0  0  0  0  0
    1.5655    1.6246    0.3862 C   0  0  0  0  0  0  0  0  0  0  0  0
    1.1513    0.3038   -1.4915 O   0  0  0  0  0  0  0  0  0  0  0  0
   -2.0541   -0.4982    1.8834 H   0  0  0  0  0  0  0  0  0  0  0  0
   -3.3021    0.5459    1.0160 H   0  0  0  0  0  0  0  0  0  0  0  0
   -2.7693   -0.9761    0.2565 H   0  0  0  0  0  0  0  0  0  0  0  0
   -1.1572    1.5182    0.6259 H   0  0  0  0  0  0  0  0  0  0  0  0
   -1.3054    1.5522   -1.7876 H   0  0  0  0  0  0  0  0  0  0  0  0
   -1.5129   -0.1967   -1.9030 H   0  0  0  0  0  0  0  0  0  0  0  0
   -2.8244    0.8103   -1.2755 H   0  0  0  0  0  0  0  0  0  0  0  0
    0.0128   -0.3621    1.5334 H   0  0  0  0  0  0  0  0  0  0  0  0
    0.7986   -2.0964   -0.3110 H   0  0  0  0  0  0  0  0  0  0  0  0
   -0.9182   -1.8537   -0.8885 H   0  0  0  0  0  0  0  0  0  0  0  0
   -0.5449   -2.4100    0.7945 H   0  0  0  0  0  0  0  0  0  0  0  0
    2.0425   -1.3409    1.1170 H   0  0  0  0  0  0  0  0  0  0  0  0
    3.2098   -0.1029    0.6274 H   0  0  0  0  0  0  0  0  0  0  0  0
    2.6452   -1.2936   -0.6084 H   0  0  0  0  0  0  0  0  0  0  0  0
    0.7620    2.1765    0.9097 H   0  0  0  0  0  0  0  0  0  0  0  0
    1.8989    2.3084   -0.4496 H   0  0  0  0  0  0  0  0  0  0  0  0
    2.4396    1.6527    1.1034 H   0  0  0  0  0  0  0  0  0  0  0  0
    2.0109    0.0165   -1.8931 H   0  0  0  0  0  0  0  0  0  0  0  0
  1  2  1  0
  2  3  1  0
  2  4  1  0
  4  5  1  0
  4  6  1  0
  6  7  1  0
  6  8  1  0
  6  9  1  0
  1 10  1  0
  1 11  1  0
  1 12  1  0
  2 13  1  0
  3 14  1  0
  3 15  1  0
  3 16  1  0
  4 17  1  0
  5 18  1  0
  5 19  1  0
  5 20  1  0
  7 21  1  0
  7 22  1  0
  7 23  1  0
  8 24  1  0
  8 25  1  0
  8 26  1  0
  9 27  1  0
M  END
