
     RDKit          3D

 25 24  0  0  0  0  0  0  0  0999 V2000
    2.0614    0.1765   -1.1997 C   0  0  0  0  0  0  0  0  0  0  0  0
    1.3830   -0.1583    0.1137 C   0  0  0  0  0  0  0  0  0  0  0  0
    2.3908    0.0204    1.2105 C   0  0  0  0  0  0  0  0  0  0  0  0
    0.2807    0.6557    0.2333 O   0  0  0  0  0  0  0  0  0  0  0  0
   -0.9249    0.0250    0.2347 C   0  0  0  0  0  0  0  0  0  0  0  0
   -0.9999   -0.9523    1.4002 C   0  0  0  0  0  0  0  0  0  0  0  0
   -1.2938   -0.6679   -1.0309 C   0  0  0  0  0  0  0  0  0  0  0  0
   -1.9982    1.0788    0.5083 C   0  0  0  0  0  0  0  0  0  0  0  0
   -1.9919    2.0719   -0.4714 O   0  0  0  0  0  0  0  0  0  0  0  0
    1.7950    1.1871   -1.5661 H   0  0  0  0  0  0  0  0  0  0  0  0
    3.1829    0.1988   -1.0790 H   0  0  0  0  0  0  0  0  0  0  0  0
    1.8730   -0.6026   -1.9672 H   0  0  0  0  0  0  0  0  0  0  0  0
    1.0569   -1.2341    0.0371 H   0  0  0  0  0  0  0  0  0  0  0  0
    3.4151    0.1530    0.8044 H   0  0  0  0  0  0  0  0  0  0  0  0
    2.4427   -0.8468    1.8966 H   0  0  0  0  0  0  0  0  0  0  0  0
    2.1691    0.9221    1.8251 H   0  0  0  0  0  0  0  0  0  0  0  0
   -0.4944   -1.9111    1.1757 H   0  0  0  0  0  0  0  0  0  0  0  0
   -2.0944   -1.1284    1.5741 H   0  0  0  0  0  0  0  0  0  0  0  0
   -0.5544   -0.4953    2.3178 H   0  0  0  0  0  0  0  0  0  0  0  0
   -1.1144   -0.0221   -1.9089 H   0  0  0  0  0  0  0  0  0  0  0  0
   -0.8169   -1.6530   -1.1688 H   0  0  0  0  0  0  0  0  0  0  0  0
   -2.3989   -0.8514   -1.0063 H   0  0  0  0  0  0  0  0  0  0  0  0
   -1.8168    1.5840    1.4747 H   0  0  0  0  0  0  0  0  0  0  0  0
   -3.0168    0.6265    0.4903 H   0  0  0  0  0  0  0  0  0  0  0  0
   -2.5348    1.8234   -1.2478 H   0  0  0  0  0  0  0  0  0  0  0  0
  1  2  1  0
  2  3  1  0
  2  4  1  0
  4  5  1  0
  5  6  1  0
  5  7  1  0
  5  8  1  0
  8  9  1  0
  1 10  1  0
  1 11  1  0
  1 12  1  0
  2 13  1  0
  3 14  1  0
  3 15  1  0
  3 16  1  0
  6 17  1  0
  6 18  1  0
  6 19  1  0
  7 20  1  0
  7 21  1  0
  7 22  1  0
  8 23  1  0
  8 24  1  0
  9 25  1  0
M  END
