
     RDKit          3D

 23 22  0  0  0  0  0  0  0  0999 V2000
   -1.5296    0.7067    1.1583 C   0  0  0  0  0  0  0  0  0  0  0  0
   -0.9481   -0.1293    0.0080 C   0  0  0  0  0  0  0  0  0  0  0  0
   -1.5351    0.4562   -1.2554 C   0  0  0  0  0  0  0  0  0  0  0  0
   -1.0360   -0.2733   -2.3343 O   0  0  0  0  0  0  0  0  0  0  0  0
    0.5292    0.0023    0.0952 C   0  0  0  0  0  0  0  0  0  0  0  0
    0.9373   -0.5409    1.4733 C   0  0  0  0  0  0  0  0  0  0  0  0
    0.9335    1.3414    0.0481 O   0  0  0  0  0  0  0  0  0  0  0  0
    1.3185   -0.7530   -0.9119 C   0  0  0  0  0  0  0  0  0  0  0  0
    2.6799   -0.6131   -0.5523 O   0  0  0  0  0  0  0  0  0  0  0  0
   -1.0858    1.7306    1.0689 H   0  0  0  0  0  0  0  0  0  0  0  0
   -2.6150    0.7887    1.0506 H   0  0  0  0  0  0  0  0  0  0  0  0
   -1.2041    0.2034    2.0874 H   0  0  0  0  0  0  0  0  0  0  0  0
   -1.2425   -1.1834    0.1334 H   0  0  0  0  0  0  0  0  0  0  0  0
   -1.3155    1.5180   -1.3798 H   0  0  0  0  0  0  0  0  0  0  0  0
   -2.6389    0.3495   -1.2845 H   0  0  0  0  0  0  0  0  0  0  0  0
   -1.2387   -1.2324   -2.2029 H   0  0  0  0  0  0  0  0  0  0  0  0
    0.2340   -1.3318    1.8044 H   0  0  0  0  0  0  0  0  0  0  0  0
    0.9324    0.2789    2.2035 H   0  0  0  0  0  0  0  0  0  0  0  0
    1.9371   -0.9853    1.4353 H   0  0  0  0  0  0  0  0  0  0  0  0
    1.6566    1.4868    0.7030 H   0  0  0  0  0  0  0  0  0  0  0  0
    1.2603   -0.3553   -1.9454 H   0  0  0  0  0  0  0  0  0  0  0  0
    1.0709   -1.8193   -0.8473 H   0  0  0  0  0  0  0  0  0  0  0  0
    2.8996    0.3548   -0.5556 H   0  0  0  0  0  0  0  0  0  0  0  0
  1  2  1  0
  2  3  1  0
  3  4  1  0
  2  5  1  0
  5  6  1  0
  5  7  1  0
  5  8  1  0
  8  9  1  0
  1 10  1  0
  1 11  1  0
  1 12  1  0
  2 13  1  0
  3 14  1  0
  3 15  1  0
  4 16  1  0
  6 17  1  0
  6 18  1  0
  6 19  1  0
  7 20  1  0
  8 21  1  0
  8 22  1  0
  9 23  1  0
M  END
