
     RDKit          3D

 23 22  0  0  0  0  0  0  0  0999 V2000
    1.9081   -1.0840   -0.6655 C   0  0  0  0  0  0  0  0  0  0  0  0
    1.1497   -0.2178    0.3522 C   0  0  0  0  0  0  0  0  0  0  0  0
    2.2333    0.5429    1.0816 C   0  0  0  0  0  0  0  0  0  0  0  0
    0.2901    0.5704   -0.3492 O   0  0  0  0  0  0  0  0  0  0  0  0
   -1.0408    0.3613   -0.1343 C   0  0  0  0  0  0  0  0  0  0  0  0
   -1.4829   -1.0656   -0.4839 C   0  0  0  0  0  0  0  0  0  0  0  0
   -1.8081    1.2625   -1.1087 C   0  0  0  0  0  0  0  0  0  0  0  0
   -1.4769    0.5888    1.2562 C   0  0  0  0  0  0  0  0  0  0  0  0
   -2.6444    0.4319    1.5629 O   0  0  0  0  0  0  0  0  0  0  0  0
    2.7696   -1.5015   -0.1087 H   0  0  0  0  0  0  0  0  0  0  0  0
    1.2615   -1.8574   -1.1038 H   0  0  0  0  0  0  0  0  0  0  0  0
    2.3181   -0.3718   -1.4114 H   0  0  0  0  0  0  0  0  0  0  0  0
    0.6374   -0.9416    1.0202 H   0  0  0  0  0  0  0  0  0  0  0  0
    2.7963   -0.2188    1.6798 H   0  0  0  0  0  0  0  0  0  0  0  0
    1.8445    1.3272    1.7432 H   0  0  0  0  0  0  0  0  0  0  0  0
    2.9278    0.9913    0.3507 H   0  0  0  0  0  0  0  0  0  0  0  0
   -2.5812   -1.0855   -0.2193 H   0  0  0  0  0  0  0  0  0  0  0  0
   -1.3538   -1.2831   -1.5520 H   0  0  0  0  0  0  0  0  0  0  0  0
   -0.9972   -1.8043    0.1583 H   0  0  0  0  0  0  0  0  0  0  0  0
   -1.1692    2.1191   -1.3998 H   0  0  0  0  0  0  0  0  0  0  0  0
   -2.7385    1.6403   -0.6183 H   0  0  0  0  0  0  0  0  0  0  0  0
   -2.0829    0.7056   -2.0335 H   0  0  0  0  0  0  0  0  0  0  0  0
   -0.7605    0.8901    1.9832 H   0  0  0  0  0  0  0  0  0  0  0  0
  1  2  1  0
  2  3  1  0
  2  4  1  0
  4  5  1  0
  5  6  1  0
  5  7  1  0
  5  8  1  0
  8  9  2  0
  1 10  1  0
  1 11  1  0
  1 12  1  0
  2 13  1  0
  3 14  1  0
  3 15  1  0
  3 16  1  0
  6 17  1  0
  6 18  1  0
  6 19  1  0
  7 20  1  0
  7 21  1  0
  7 22  1  0
  8 23  1  0
M  END
