
     RDKit          3D

 23 22  0  0  0  0  0  0  0  0999 V2000
   -0.8345    1.3663    0.9929 C   0  0  0  0  0  0  0  0  0  0  0  0
   -1.0189    0.2202    0.0276 C   0  0  0  0  0  0  0  0  0  0  0  0
   -1.6022   -1.0001    0.7220 C   0  0  0  0  0  0  0  0  0  0  0  0
   -2.0501    0.6684   -0.9885 C   0  0  0  0  0  0  0  0  0  0  0  0
    0.1499   -0.1615   -0.5882 O   0  0  0  0  0  0  0  0  0  0  0  0
    1.0920   -0.5700    0.3248 C   0  0  0  0  0  0  0  0  0  0  0  0
    2.3870   -0.9911   -0.3817 C   0  0  0  0  0  0  0  0  0  0  0  0
    2.8737    0.1900   -1.1221 C   0  0  0  0  0  0  0  0  0  0  0  0
    3.9007    0.1115   -1.7731 O   0  0  0  0  0  0  0  0  0  0  0  0
   -1.8450    1.8005    1.1663 H   0  0  0  0  0  0  0  0  0  0  0  0
   -0.1735    2.1110    0.4820 H   0  0  0  0  0  0  0  0  0  0  0  0
   -0.3524    1.0900    1.9274 H   0  0  0  0  0  0  0  0  0  0  0  0
   -2.7054   -0.9235    0.8233 H   0  0  0  0  0  0  0  0  0  0  0  0
   -1.4011   -1.8767    0.0606 H   0  0  0  0  0  0  0  0  0  0  0  0
   -1.1545   -1.2008    1.6927 H   0  0  0  0  0  0  0  0  0  0  0  0
   -2.1113   -0.0219   -1.8530 H   0  0  0  0  0  0  0  0  0  0  0  0
   -3.0306    0.6894   -0.4277 H   0  0  0  0  0  0  0  0  0  0  0  0
   -1.8556    1.7175   -1.3059 H   0  0  0  0  0  0  0  0  0  0  0  0
    1.2788    0.2508    1.0343 H   0  0  0  0  0  0  0  0  0  0  0  0
    0.7107   -1.4848    0.8232 H   0  0  0  0  0  0  0  0  0  0  0  0
    2.2039   -1.8752   -1.0076 H   0  0  0  0  0  0  0  0  0  0  0  0
    3.1655   -1.2679    0.3512 H   0  0  0  0  0  0  0  0  0  0  0  0
    2.3729    1.1580   -1.1343 H   0  0  0  0  0  0  0  0  0  0  0  0
  1  2  1  0
  2  3  1  0
  2  4  1  0
  2  5  1  0
  5  6  1  0
  6  7  1  0
  7  8  1  0
  8  9  2  0
  1 10  1  0
  1 11  1  0
  1 12  1  0
  3 13  1  0
  3 14  1  0
  3 15  1  0
  4 16  1  0
  4 17  1  0
  4 18  1  0
  6 19  1  0
  6 20  1  0
  7 21  1  0
  7 22  1  0
  8 23  1  0
M  END
