
     RDKit          3D

 24 23  0  0  0  0  0  0  0  0999 V2000
    1.6828   -1.4764    0.7586 C   0  0  0  0  0  0  0  0  0  0  0  0
    1.2871   -0.2542   -0.0556 C   0  0  0  0  0  0  0  0  0  0  0  0
    2.5128    0.5608   -0.2609 C   0  0  0  0  0  0  0  0  0  0  0  0
    0.2480    0.3100    0.5708 O   0  0  0  0  0  0  0  0  0  0  0  0
   -0.9679    0.3855    0.0420 C   0  0  0  0  0  0  0  0  0  0  0  0
   -1.4782   -1.0195   -0.2379 C   0  0  0  0  0  0  0  0  0  0  0  0
   -1.1425    1.1656   -1.2237 C   0  0  0  0  0  0  0  0  0  0  0  0
   -1.9232    0.9439    1.1102 C   0  0  0  0  0  0  0  0  0  0  0  0
    1.5064   -1.2478    1.8291 H   0  0  0  0  0  0  0  0  0  0  0  0
    0.9777   -2.2828    0.4839 H   0  0  0  0  0  0  0  0  0  0  0  0
    2.7405   -1.7611    0.5763 H   0  0  0  0  0  0  0  0  0  0  0  0
    0.9706   -0.6402   -1.0687 H   0  0  0  0  0  0  0  0  0  0  0  0
    3.4263   -0.0653   -0.1506 H   0  0  0  0  0  0  0  0  0  0  0  0
    2.6316    1.3881    0.4729 H   0  0  0  0  0  0  0  0  0  0  0  0
    2.5766    0.9409   -1.3221 H   0  0  0  0  0  0  0  0  0  0  0  0
   -2.5808   -0.9807   -0.4687 H   0  0  0  0  0  0  0  0  0  0  0  0
   -1.0092   -1.4671   -1.1281 H   0  0  0  0  0  0  0  0  0  0  0  0
   -1.3439   -1.6888    0.6167 H   0  0  0  0  0  0  0  0  0  0  0  0
   -2.2342    1.2532   -1.4195 H   0  0  0  0  0  0  0  0  0  0  0  0
   -0.7597    2.1936   -1.1843 H   0  0  0  0  0  0  0  0  0  0  0  0
   -0.7317    0.5685   -2.0629 H   0  0  0  0  0  0  0  0  0  0  0  0
   -1.4264    1.7518    1.6792 H   0  0  0  0  0  0  0  0  0  0  0  0
   -2.1059    0.1102    1.8080 H   0  0  0  0  0  0  0  0  0  0  0  0
   -2.8570    1.3119    0.6353 H   0  0  0  0  0  0  0  0  0  0  0  0
  1  2  1  0
  2  3  1  0
  2  4  1  0
  4  5  1  0
  5  6  1  0
  5  7  1  0
  5  8  1  0
  1  9  1  0
  1 10  1  0
  1 11  1  0
  2 12  1  0
  3 13  1  0
  3 14  1  0
  3 15  1  0
  6 16  1  0
  6 17  1  0
  6 18  1  0
  7 19  1  0
  7 20  1  0
  7 21  1  0
  8 22  1  0
  8 23  1  0
  8 24  1  0
M  END
