
     RDKit          3D

 23 22  0  0  0  0  0  0  0  0999 V2000
    2.5134   -1.0825   -0.5966 C   0  0  0  0  0  0  0  0  0  0  0  0
    1.3800   -0.4177    0.1102 C   0  0  0  0  0  0  0  0  0  0  0  0
    1.8768    0.9135    0.6780 C   0  0  0  0  0  0  0  0  0  0  0  0
    0.1830   -0.2244   -0.7155 C   0  0  0  0  0  0  0  0  0  0  0  0
    0.1738   -0.5947   -1.8701 O   0  0  0  0  0  0  0  0  0  0  0  0
   -1.0218    0.4178   -0.1643 C   0  0  0  0  0  0  0  0  0  0  0  0
   -1.4962   -0.4191    1.0043 C   0  0  0  0  0  0  0  0  0  0  0  0
   -2.1236    0.5642   -1.1927 C   0  0  0  0  0  0  0  0  0  0  0  0
   -3.2508    1.1727   -0.6510 O   0  0  0  0  0  0  0  0  0  0  0  0
    3.2271   -0.3295   -1.0338 H   0  0  0  0  0  0  0  0  0  0  0  0
    3.1381   -1.7018    0.0854 H   0  0  0  0  0  0  0  0  0  0  0  0
    2.1921   -1.7704   -1.4094 H   0  0  0  0  0  0  0  0  0  0  0  0
    1.1461   -1.0417    1.0199 H   0  0  0  0  0  0  0  0  0  0  0  0
    1.9928    1.6657   -0.1358 H   0  0  0  0  0  0  0  0  0  0  0  0
    1.1361    1.3065    1.3765 H   0  0  0  0  0  0  0  0  0  0  0  0
    2.8642    0.7353    1.1715 H   0  0  0  0  0  0  0  0  0  0  0  0
   -0.8062    1.4436    0.2128 H   0  0  0  0  0  0  0  0  0  0  0  0
   -2.5247   -0.0615    1.2453 H   0  0  0  0  0  0  0  0  0  0  0  0
   -0.8671   -0.2358    1.9066 H   0  0  0  0  0  0  0  0  0  0  0  0
   -1.4692   -1.4986    0.7565 H   0  0  0  0  0  0  0  0  0  0  0  0
   -2.4230   -0.4850   -1.4748 H   0  0  0  0  0  0  0  0  0  0  0  0
   -1.7932    1.0481   -2.1056 H   0  0  0  0  0  0  0  0  0  0  0  0
   -4.0478    0.5954   -0.6804 H   0  0  0  0  0  0  0  0  0  0  0  0
  1  2  1  0
  2  3  1  0
  2  4  1  0
  4  5  2  0
  4  6  1  0
  6  7  1  0
  6  8  1  0
  8  9  1  0
  1 10  1  0
  1 11  1  0
  1 12  1  0
  2 13  1  0
  3 14  1  0
  3 15  1  0
  3 16  1  0
  6 17  1  0
  7 18  1  0
  7 19  1  0
  7 20  1  0
  8 21  1  0
  8 22  1  0
  9 23  1  0
M  END
