
     RDKit          3D

 21 21  0  0  0  0  0  0  0  0999 V2000
   -2.4978   -0.0849    0.9443 C   0  0  0  0  0  0  0  0  0  0  0  0
   -1.3164    0.3794    0.1224 C   0  0  0  0  0  0  0  0  0  0  0  0
   -1.3563   -0.3667   -1.1803 C   0  0  0  0  0  0  0  0  0  0  0  0
   -0.1001    0.2380    0.8924 C   0  0  0  0  0  0  0  0  0  0  0  0
   -0.1772   -0.2073    2.0293 O   0  0  0  0  0  0  0  0  0  0  0  0
    1.2728    0.5735    0.4691 C   0  0  0  0  0  0  0  0  0  0  0  0
    1.9711   -0.6982    0.0251 C   0  0  0  0  0  0  0  0  0  0  0  0
    2.6650    0.3315   -0.8329 C   0  0  0  0  0  0  0  0  0  0  0  0
    1.4622    1.0761   -0.7814 O   0  0  0  0  0  0  0  0  0  0  0  0
   -2.5807   -1.1825    0.8482 H   0  0  0  0  0  0  0  0  0  0  0  0
   -3.4197    0.4498    0.6481 H   0  0  0  0  0  0  0  0  0  0  0  0
   -2.2544    0.1017    2.0310 H   0  0  0  0  0  0  0  0  0  0  0  0
   -1.4472    1.4611   -0.1300 H   0  0  0  0  0  0  0  0  0  0  0  0
   -0.8707    0.2304   -1.9770 H   0  0  0  0  0  0  0  0  0  0  0  0
   -2.4476   -0.4158   -1.4750 H   0  0  0  0  0  0  0  0  0  0  0  0
   -1.0254   -1.4030   -1.1214 H   0  0  0  0  0  0  0  0  0  0  0  0
    1.8797    1.1143    1.2193 H   0  0  0  0  0  0  0  0  0  0  0  0
    1.2947   -1.3609   -0.5085 H   0  0  0  0  0  0  0  0  0  0  0  0
    2.5584   -1.1211    0.8509 H   0  0  0  0  0  0  0  0  0  0  0  0
    2.9712    0.0137   -1.8280 H   0  0  0  0  0  0  0  0  0  0  0  0
    3.4185    0.8709   -0.2249 H   0  0  0  0  0  0  0  0  0  0  0  0
  1  2  1  0
  2  3  1  0
  2  4  1  0
  4  5  2  0
  4  6  1  0
  6  7  1  0
  7  8  1  0
  8  9  1  0
  9  6  1  0
  1 10  1  0
  1 11  1  0
  1 12  1  0
  2 13  1  0
  3 14  1  0
  3 15  1  0
  3 16  1  0
  6 17  1  0
  7 18  1  0
  7 19  1  0
  8 20  1  0
  8 21  1  0
M  END
