
     RDKit          3D

 21 21  0  0  0  0  0  0  0  0999 V2000
    1.6158    0.8228   -0.8235 C   0  0  0  0  0  0  0  0  0  0  0  0
    0.8656    0.3756    0.4205 C   0  0  0  0  0  0  0  0  0  0  0  0
    1.6664   -0.6093    1.1928 C   0  0  0  0  0  0  0  0  0  0  0  0
    2.7893   -0.2863    1.5295 O   0  0  0  0  0  0  0  0  0  0  0  0
   -0.4725   -0.1748    0.0216 C   0  0  0  0  0  0  0  0  0  0  0  0
   -1.3489    0.8387   -0.7066 C   0  0  0  0  0  0  0  0  0  0  0  0
   -1.5299    1.9014    0.1838 O   0  0  0  0  0  0  0  0  0  0  0  0
   -0.5033   -1.5980   -0.3701 C   0  0  0  0  0  0  0  0  0  0  0  0
   -1.2038   -1.1478    0.8517 C   0  0  0  0  0  0  0  0  0  0  0  0
    2.6575    1.0817   -0.5017 H   0  0  0  0  0  0  0  0  0  0  0  0
    1.1016    1.6702   -1.2863 H   0  0  0  0  0  0  0  0  0  0  0  0
    1.7161    0.0043   -1.5681 H   0  0  0  0  0  0  0  0  0  0  0  0
    0.7064    1.2836    1.0309 H   0  0  0  0  0  0  0  0  0  0  0  0
    1.3072   -1.5800    1.4650 H   0  0  0  0  0  0  0  0  0  0  0  0
   -0.8539    1.1788   -1.6169 H   0  0  0  0  0  0  0  0  0  0  0  0
   -2.3562    0.4140   -0.8978 H   0  0  0  0  0  0  0  0  0  0  0  0
   -2.3167    2.4456   -0.0598 H   0  0  0  0  0  0  0  0  0  0  0  0
   -1.0817   -1.8294   -1.2859 H   0  0  0  0  0  0  0  0  0  0  0  0
    0.3829   -2.2180   -0.2380 H   0  0  0  0  0  0  0  0  0  0  0  0
   -2.3164   -1.1691    0.7973 H   0  0  0  0  0  0  0  0  0  0  0  0
   -0.8254   -1.4039    1.8619 H   0  0  0  0  0  0  0  0  0  0  0  0
  1  2  1  0
  2  3  1  0
  3  4  2  0
  2  5  1  0
  5  6  1  0
  6  7  1  0
  5  8  1  0
  8  9  1  0
  9  5  1  0
  1 10  1  0
  1 11  1  0
  1 12  1  0
  2 13  1  0
  3 14  1  0
  6 15  1  0
  6 16  1  0
  7 17  1  0
  8 18  1  0
  8 19  1  0
  9 20  1  0
  9 21  1  0
M  END
