
     RDKit          3D

 23 23  0  0  0  0  0  0  0  0999 V2000
   -1.3205    1.0575    0.7353 C   0  0  0  0  0  0  0  0  0  0  0  0
   -0.9352   -0.1080   -0.1161 C   0  0  0  0  0  0  0  0  0  0  0  0
   -1.7430   -1.2957    0.3445 C   0  0  0  0  0  0  0  0  0  0  0  0
   -1.3369    0.2226   -1.5534 C   0  0  0  0  0  0  0  0  0  0  0  0
    0.5399   -0.3680   -0.1212 C   0  0  0  0  0  0  0  0  0  0  0  0
    1.0696   -0.6420    1.1174 O   0  0  0  0  0  0  0  0  0  0  0  0
    2.3651   -0.1350    1.0654 C   0  0  0  0  0  0  0  0  0  0  0  0
    2.5188    0.4647   -0.3235 C   0  0  0  0  0  0  0  0  0  0  0  0
    1.1742    0.7571   -0.6251 O   0  0  0  0  0  0  0  0  0  0  0  0
   -1.2790    0.8334    1.8273 H   0  0  0  0  0  0  0  0  0  0  0  0
   -2.4093    1.2671    0.5315 H   0  0  0  0  0  0  0  0  0  0  0  0
   -0.7763    1.9818    0.5297 H   0  0  0  0  0  0  0  0  0  0  0  0
   -2.8176   -1.0297    0.1718 H   0  0  0  0  0  0  0  0  0  0  0  0
   -1.5244   -2.2047   -0.2527 H   0  0  0  0  0  0  0  0  0  0  0  0
   -1.6010   -1.4653    1.4274 H   0  0  0  0  0  0  0  0  0  0  0  0
   -2.3864    0.5344   -1.5650 H   0  0  0  0  0  0  0  0  0  0  0  0
   -1.1162   -0.6785   -2.1473 H   0  0  0  0  0  0  0  0  0  0  0  0
   -0.6296    1.0165   -1.8949 H   0  0  0  0  0  0  0  0  0  0  0  0
    0.7564   -1.2004   -0.8172 H   0  0  0  0  0  0  0  0  0  0  0  0
    2.3881    0.7430    1.7689 H   0  0  0  0  0  0  0  0  0  0  0  0
    3.1386   -0.8757    1.2904 H   0  0  0  0  0  0  0  0  0  0  0  0
    2.8626   -0.2828   -1.0613 H   0  0  0  0  0  0  0  0  0  0  0  0
    3.0621    1.4078   -0.3318 H   0  0  0  0  0  0  0  0  0  0  0  0
  1  2  1  0
  2  3  1  0
  2  4  1  0
  2  5  1  0
  5  6  1  0
  6  7  1  0
  7  8  1  0
  8  9  1  0
  9  5  1  0
  1 10  1  0
  1 11  1  0
  1 12  1  0
  3 13  1  0
  3 14  1  0
  3 15  1  0
  4 16  1  0
  4 17  1  0
  4 18  1  0
  5 19  1  0
  7 20  1  0
  7 21  1  0
  8 22  1  0
  8 23  1  0
M  END
