
     RDKit          3D

 22 22  0  0  0  0  0  0  0  0999 V2000
   -1.9075   -1.0401   -0.2023 C   0  0  0  0  0  0  0  0  0  0  0  0
   -1.0120    0.1918   -0.2814 C   0  0  0  0  0  0  0  0  0  0  0  0
   -1.7128    1.2982    0.4224 C   0  0  0  0  0  0  0  0  0  0  0  0
    0.3128   -0.1850    0.3084 C   0  0  0  0  0  0  0  0  0  0  0  0
    1.3247    0.9110    0.3141 C   0  0  0  0  0  0  0  0  0  0  0  0
    2.6007    0.1680   -0.0662 C   0  0  0  0  0  0  0  0  0  0  0  0
    2.2265   -0.9103   -0.8126 O   0  0  0  0  0  0  0  0  0  0  0  0
    0.9324   -1.2456   -0.5432 C   0  0  0  0  0  0  0  0  0  0  0  0
   -2.7368   -0.9457   -0.9249 H   0  0  0  0  0  0  0  0  0  0  0  0
   -1.3343   -1.9794   -0.2976 H   0  0  0  0  0  0  0  0  0  0  0  0
   -2.3516   -1.0111    0.8318 H   0  0  0  0  0  0  0  0  0  0  0  0
   -0.9200    0.4452   -1.3508 H   0  0  0  0  0  0  0  0  0  0  0  0
   -1.3051    2.3070    0.2176 H   0  0  0  0  0  0  0  0  0  0  0  0
   -1.8160    1.0947    1.5190 H   0  0  0  0  0  0  0  0  0  0  0  0
   -2.7668    1.3204    0.0399 H   0  0  0  0  0  0  0  0  0  0  0  0
    0.1836   -0.5853    1.3302 H   0  0  0  0  0  0  0  0  0  0  0  0
    1.4799    1.3075    1.3346 H   0  0  0  0  0  0  0  0  0  0  0  0
    1.1033    1.7399   -0.3722 H   0  0  0  0  0  0  0  0  0  0  0  0
    3.2136    0.8475   -0.7013 H   0  0  0  0  0  0  0  0  0  0  0  0
    3.1908   -0.1111    0.8390 H   0  0  0  0  0  0  0  0  0  0  0  0
    0.9130   -2.2551   -0.0847 H   0  0  0  0  0  0  0  0  0  0  0  0
    0.3817   -1.3624   -1.5196 H   0  0  0  0  0  0  0  0  0  0  0  0
  1  2  1  0
  2  3  1  0
  2  4  1  0
  4  5  1  0
  5  6  1  0
  6  7  1  0
  7  8  1  0
  8  4  1  0
  1  9  1  0
  1 10  1  0
  1 11  1  0
  2 12  1  0
  3 13  1  0
  3 14  1  0
  3 15  1  0
  4 16  1  0
  5 17  1  0
  5 18  1  0
  6 19  1  0
  6 20  1  0
  8 21  1  0
  8 22  1  0
M  END
