
     RDKit          3D

 17 16  0  0  0  0  0  0  0  0999 V2000
   -1.1730   -1.1827   -0.2286 C   0  0  0  0  0  0  0  0  0  0  0  0
   -0.7431    0.2926   -0.2795 C   0  0  0  0  0  0  0  0  0  0  0  0
   -1.8345    1.0627    0.4286 C   0  0  0  0  0  0  0  0  0  0  0  0
    0.5480    0.4354    0.4009 C   0  0  0  0  0  0  0  0  0  0  0  0
    0.6062    1.2029    1.4007 O   0  0  0  0  0  0  0  0  0  0  0  0
    1.7462   -0.2679   -0.0321 C   0  0  0  0  0  0  0  0  0  0  0  0
    1.6988   -1.0331   -1.0249 O   0  0  0  0  0  0  0  0  0  0  0  0
    3.0052   -0.1031    0.6638 C   0  0  0  0  0  0  0  0  0  0  0  0
    3.1563    0.6358    1.6631 O   0  0  0  0  0  0  0  0  0  0  0  0
   -0.5728   -1.6898    0.5630 H   0  0  0  0  0  0  0  0  0  0  0  0
   -0.9509   -1.6900   -1.1787 H   0  0  0  0  0  0  0  0  0  0  0  0
   -2.2326   -1.2943    0.0029 H   0  0  0  0  0  0  0  0  0  0  0  0
   -0.7392    0.6336   -1.3320 H   0  0  0  0  0  0  0  0  0  0  0  0
   -2.8260    0.7541   -0.0074 H   0  0  0  0  0  0  0  0  0  0  0  0
   -1.8692    0.7314    1.4863 H   0  0  0  0  0  0  0  0  0  0  0  0
   -1.6864    2.1522    0.3149 H   0  0  0  0  0  0  0  0  0  0  0  0
    3.8671   -0.6396    0.3133 H   0  0  0  0  0  0  0  0  0  0  0  0
  1  2  1  0
  2  3  1  0
  2  4  1  0
  4  5  2  0
  4  6  1  0
  6  7  2  0
  6  8  1  0
  8  9  2  0
  1 10  1  0
  1 11  1  0
  1 12  1  0
  2 13  1  0
  3 14  1  0
  3 15  1  0
  3 16  1  0
  8 17  1  0
M  END
