
     RDKit          3D

 22 22  0  0  0  0  0  0  0  0999 V2000
   -1.7534   -0.8049   -0.6313 C   0  0  0  0  0  0  0  0  0  0  0  0
   -1.1980    0.0092    0.4818 C   0  0  0  0  0  0  0  0  0  0  0  0
   -1.7588    1.4097    0.3861 C   0  0  0  0  0  0  0  0  0  0  0  0
    0.2866    0.0440    0.5662 C   0  0  0  0  0  0  0  0  0  0  0  0
    0.9440   -1.2414    0.7527 C   0  0  0  0  0  0  0  0  0  0  0  0
    2.1297   -1.1948    0.1723 C   0  0  0  0  0  0  0  0  0  0  0  0
    2.3671    0.1289   -0.4536 C   0  0  0  0  0  0  0  0  0  0  0  0
    0.9224    0.5664   -0.7132 C   0  0  0  0  0  0  0  0  0  0  0  0
   -1.6570   -1.9113   -0.4676 H   0  0  0  0  0  0  0  0  0  0  0  0
   -2.8593   -0.6141   -0.6651 H   0  0  0  0  0  0  0  0  0  0  0  0
   -1.3756   -0.5024   -1.6262 H   0  0  0  0  0  0  0  0  0  0  0  0
   -1.5799   -0.4148    1.4395 H   0  0  0  0  0  0  0  0  0  0  0  0
   -1.6182    1.8364   -0.6357 H   0  0  0  0  0  0  0  0  0  0  0  0
   -2.8293    1.4070    0.6492 H   0  0  0  0  0  0  0  0  0  0  0  0
   -1.2276    2.0223    1.1533 H   0  0  0  0  0  0  0  0  0  0  0  0
    0.6186    0.7284    1.3694 H   0  0  0  0  0  0  0  0  0  0  0  0
    0.5697   -2.1089    1.2666 H   0  0  0  0  0  0  0  0  0  0  0  0
    2.8383   -2.0084    0.1518 H   0  0  0  0  0  0  0  0  0  0  0  0
    2.8907    0.0907   -1.4046 H   0  0  0  0  0  0  0  0  0  0  0  0
    2.8721    0.8467    0.2178 H   0  0  0  0  0  0  0  0  0  0  0  0
    0.8293    1.6640   -0.7491 H   0  0  0  0  0  0  0  0  0  0  0  0
    0.5886    0.0472   -1.6086 H   0  0  0  0  0  0  0  0  0  0  0  0
  1  2  1  0
  2  3  1  0
  2  4  1  0
  4  5  1  0
  5  6  2  0
  6  7  1  0
  7  8  1  0
  8  4  1  0
  1  9  1  0
  1 10  1  0
  1 11  1  0
  2 12  1  0
  3 13  1  0
  3 14  1  0
  3 15  1  0
  4 16  1  0
  5 17  1  0
  6 18  1  0
  7 19  1  0
  7 20  1  0
  8 21  1  0
  8 22  1  0
M  END
