
     RDKit          3D

 20 21  0  0  0  0  0  0  0  0999 V2000
   -1.5146    1.1502    0.2483 C   0  0  0  0  0  0  0  0  0  0  0  0
   -1.0694   -0.2767    0.4356 C   0  0  0  0  0  0  0  0  0  0  0  0
   -1.8384   -1.2085   -0.5081 C   0  0  0  0  0  0  0  0  0  0  0  0
    0.3995   -0.4723    0.3617 C   0  0  0  0  0  0  0  0  0  0  0  0
    1.2234   -0.1481   -0.8079 C   0  0  0  0  0  0  0  0  0  0  0  0
    2.7153   -0.1195   -0.5893 C   0  0  0  0  0  0  0  0  0  0  0  0
    2.5875    0.7009    0.5404 O   0  0  0  0  0  0  0  0  0  0  0  0
    1.2199    0.7999    0.3171 C   0  0  0  0  0  0  0  0  0  0  0  0
   -1.2734    1.7424    1.1596 H   0  0  0  0  0  0  0  0  0  0  0  0
   -2.6335    1.1191    0.1557 H   0  0  0  0  0  0  0  0  0  0  0  0
   -1.1079    1.6395   -0.6349 H   0  0  0  0  0  0  0  0  0  0  0  0
   -1.4107   -0.5757    1.4656 H   0  0  0  0  0  0  0  0  0  0  0  0
   -2.8879   -0.9007   -0.4622 H   0  0  0  0  0  0  0  0  0  0  0  0
   -1.7771   -2.2315   -0.0455 H   0  0  0  0  0  0  0  0  0  0  0  0
   -1.4173   -1.2122   -1.5178 H   0  0  0  0  0  0  0  0  0  0  0  0
    0.8309   -1.2306    1.0605 H   0  0  0  0  0  0  0  0  0  0  0  0
    0.8259    0.2134   -1.7654 H   0  0  0  0  0  0  0  0  0  0  0  0
    3.3115    0.3946   -1.3587 H   0  0  0  0  0  0  0  0  0  0  0  0
    3.0759   -1.1562   -0.3518 H   0  0  0  0  0  0  0  0  0  0  0  0
    0.7405    1.7720    0.2179 H   0  0  0  0  0  0  0  0  0  0  0  0
  1  2  1  0
  2  3  1  0
  2  4  1  0
  4  5  1  0
  5  6  1  0
  6  7  1  0
  7  8  1  0
  8  4  1  0
  8  5  1  0
  1  9  1  0
  1 10  1  0
  1 11  1  0
  2 12  1  0
  3 13  1  0
  3 14  1  0
  3 15  1  0
  4 16  1  0
  5 17  1  0
  6 18  1  0
  6 19  1  0
  8 20  1  0
M  END
