
     RDKit          3D

 23 23  0  0  0  0  0  0  0  0999 V2000
    1.7675    1.3142    0.6101 C   0  0  0  0  0  0  0  0  0  0  0  0
    0.8361    0.1588    0.2024 C   0  0  0  0  0  0  0  0  0  0  0  0
    1.6500   -0.5970   -0.8175 C   0  0  0  0  0  0  0  0  0  0  0  0
    2.8212   -1.0145   -0.1443 O   0  0  0  0  0  0  0  0  0  0  0  0
   -0.4057    0.7619   -0.3316 C   0  0  0  0  0  0  0  0  0  0  0  0
   -1.0094    1.5516    0.6548 O   0  0  0  0  0  0  0  0  0  0  0  0
   -2.0083    0.6274    0.8707 C   0  0  0  0  0  0  0  0  0  0  0  0
   -1.6327    0.0165   -0.4817 C   0  0  0  0  0  0  0  0  0  0  0  0
   -1.7133   -1.4527   -0.4279 C   0  0  0  0  0  0  0  0  0  0  0  0
    2.7337    0.8473    0.8444 H   0  0  0  0  0  0  0  0  0  0  0  0
    1.3343    1.9274    1.3951 H   0  0  0  0  0  0  0  0  0  0  0  0
    1.9210    1.9189   -0.3126 H   0  0  0  0  0  0  0  0  0  0  0  0
    0.6233   -0.4293    1.1001 H   0  0  0  0  0  0  0  0  0  0  0  0
    1.9977    0.1162   -1.5916 H   0  0  0  0  0  0  0  0  0  0  0  0
    1.1566   -1.4437   -1.2635 H   0  0  0  0  0  0  0  0  0  0  0  0
    2.5702   -1.5108    0.6855 H   0  0  0  0  0  0  0  0  0  0  0  0
   -0.1788    1.4411   -1.2051 H   0  0  0  0  0  0  0  0  0  0  0  0
   -1.8010   -0.1015    1.7028 H   0  0  0  0  0  0  0  0  0  0  0  0
   -3.0171    1.0602    0.9070 H   0  0  0  0  0  0  0  0  0  0  0  0
   -2.3158    0.4490   -1.2494 H   0  0  0  0  0  0  0  0  0  0  0  0
   -1.1756   -2.0071   -1.1965 H   0  0  0  0  0  0  0  0  0  0  0  0
   -1.3740   -1.8758    0.5627 H   0  0  0  0  0  0  0  0  0  0  0  0
   -2.7800   -1.7582   -0.5140 H   0  0  0  0  0  0  0  0  0  0  0  0
  1  2  1  0
  2  3  1  0
  3  4  1  0
  2  5  1  0
  5  6  1  0
  6  7  1  0
  7  8  1  0
  8  9  1  0
  8  5  1  0
  1 10  1  0
  1 11  1  0
  1 12  1  0
  2 13  1  0
  3 14  1  0
  3 15  1  0
  4 16  1  0
  5 17  1  0
  7 18  1  0
  7 19  1  0
  8 20  1  0
  9 21  1  0
  9 22  1  0
  9 23  1  0
M  END
