
     RDKit          3D

 25 25  0  0  0  0  0  0  0  0999 V2000
   -2.4764   -0.8697   -0.1934 C   0  0  0  0  0  0  0  0  0  0  0  0
   -1.5632    0.3118   -0.4136 C   0  0  0  0  0  0  0  0  0  0  0  0
   -2.0897    1.4685    0.3971 C   0  0  0  0  0  0  0  0  0  0  0  0
   -0.1514   -0.0050   -0.0675 C   0  0  0  0  0  0  0  0  0  0  0  0
    0.4365    0.7346    0.8651 C   0  0  0  0  0  0  0  0  0  0  0  0
    1.8309    0.4265    1.2114 C   0  0  0  0  0  0  0  0  0  0  0  0
    2.5946    0.1343   -0.0451 C   0  0  0  0  0  0  0  0  0  0  0  0
    2.0043   -0.9644   -0.8740 C   0  0  0  0  0  0  0  0  0  0  0  0
    0.5222   -1.1041   -0.7611 C   0  0  0  0  0  0  0  0  0  0  0  0
   -2.1011   -1.7918   -0.6967 H   0  0  0  0  0  0  0  0  0  0  0  0
   -2.6991   -1.0129    0.8733 H   0  0  0  0  0  0  0  0  0  0  0  0
   -3.4487   -0.6358   -0.6986 H   0  0  0  0  0  0  0  0  0  0  0  0
   -1.6690    0.5987   -1.4919 H   0  0  0  0  0  0  0  0  0  0  0  0
   -3.1505    1.6266    0.1192 H   0  0  0  0  0  0  0  0  0  0  0  0
   -1.5628    2.4076    0.2172 H   0  0  0  0  0  0  0  0  0  0  0  0
   -2.0962    1.1473    1.4616 H   0  0  0  0  0  0  0  0  0  0  0  0
   -0.1000    1.5591    1.3706 H   0  0  0  0  0  0  0  0  0  0  0  0
    2.2942    1.3506    1.6562 H   0  0  0  0  0  0  0  0  0  0  0  0
    1.9354   -0.3568    1.9878 H   0  0  0  0  0  0  0  0  0  0  0  0
    2.6900    1.0762   -0.6257 H   0  0  0  0  0  0  0  0  0  0  0  0
    3.6315   -0.1373    0.2596 H   0  0  0  0  0  0  0  0  0  0  0  0
    2.5265   -1.9094   -0.6130 H   0  0  0  0  0  0  0  0  0  0  0  0
    2.2660   -0.7552   -1.9333 H   0  0  0  0  0  0  0  0  0  0  0  0
    0.3098   -2.0832   -0.2384 H   0  0  0  0  0  0  0  0  0  0  0  0
    0.0663   -1.2163   -1.7666 H   0  0  0  0  0  0  0  0  0  0  0  0
  1  2  1  0
  2  3  1  0
  2  4  1  0
  4  5  2  0
  5  6  1  0
  6  7  1  0
  7  8  1  0
  8  9  1  0
  9  4  1  0
  1 10  1  0
  1 11  1  0
  1 12  1  0
  2 13  1  0
  3 14  1  0
  3 15  1  0
  3 16  1  0
  5 17  1  0
  6 18  1  0
  6 19  1  0
  7 20  1  0
  7 21  1  0
  8 22  1  0
  8 23  1  0
  9 24  1  0
  9 25  1  0
M  END
