
     RDKit          3D

 21 21  0  0  0  0  0  0  0  0999 V2000
   -1.6216   -0.7602   -0.5819 C   0  0  0  0  0  0  0  0  0  0  0  0
   -0.4151   -0.3473    0.2625 C   0  0  0  0  0  0  0  0  0  0  0  0
   -0.4143   -1.3691    1.4123 C   0  0  0  0  0  0  0  0  0  0  0  0
   -0.6556    0.8799    0.8819 O   0  0  0  0  0  0  0  0  0  0  0  0
   -1.0362    2.0466    0.2620 C   0  0  0  0  0  0  0  0  0  0  0  0
   -1.2132    2.0551   -0.9778 O   0  0  0  0  0  0  0  0  0  0  0  0
    0.8006   -0.3643   -0.5306 C   0  0  0  0  0  0  0  0  0  0  0  0
    2.1821   -0.0960   -0.1078 C   0  0  0  0  0  0  0  0  0  0  0  0
    1.4734    0.9836   -0.8128 C   0  0  0  0  0  0  0  0  0  0  0  0
   -1.5582   -1.8658   -0.6620 H   0  0  0  0  0  0  0  0  0  0  0  0
   -2.5703   -0.4601   -0.1364 H   0  0  0  0  0  0  0  0  0  0  0  0
   -1.4944   -0.3915   -1.6420 H   0  0  0  0  0  0  0  0  0  0  0  0
    0.2000   -1.0135    2.2607 H   0  0  0  0  0  0  0  0  0  0  0  0
   -0.1315   -2.3588    1.0587 H   0  0  0  0  0  0  0  0  0  0  0  0
   -1.4733   -1.4115    1.7438 H   0  0  0  0  0  0  0  0  0  0  0  0
   -1.1686    2.9191    0.8773 H   0  0  0  0  0  0  0  0  0  0  0  0
    0.7084   -1.0163   -1.4685 H   0  0  0  0  0  0  0  0  0  0  0  0
    2.9918   -0.5950   -0.6791 H   0  0  0  0  0  0  0  0  0  0  0  0
    2.4498    0.0659    0.9388 H   0  0  0  0  0  0  0  0  0  0  0  0
    1.6691    1.2149   -1.8859 H   0  0  0  0  0  0  0  0  0  0  0  0
    1.2770    1.8841   -0.2132 H   0  0  0  0  0  0  0  0  0  0  0  0
  1  2  1  0
  2  3  1  0
  2  4  1  0
  4  5  1  0
  5  6  2  0
  2  7  1  0
  7  8  1  0
  8  9  1  0
  9  7  1  0
  1 10  1  0
  1 11  1  0
  1 12  1  0
  3 13  1  0
  3 14  1  0
  3 15  1  0
  5 16  1  0
  7 17  1  0
  8 18  1  0
  8 19  1  0
  9 20  1  0
  9 21  1  0
M  END
