
     RDKit          3D

 27 27  0  0  0  0  0  0  0  0999 V2000
    2.2566    0.6532   -0.7547 C   0  0  0  0  0  0  0  0  0  0  0  0
    1.4579   -0.3876    0.0128 C   0  0  0  0  0  0  0  0  0  0  0  0
    2.2777   -0.8508    1.1697 C   0  0  0  0  0  0  0  0  0  0  0  0
    0.1372    0.1930    0.3831 C   0  0  0  0  0  0  0  0  0  0  0  0
   -0.6992    0.6249   -0.8147 C   0  0  0  0  0  0  0  0  0  0  0  0
   -1.2403    2.0130   -0.7295 C   0  0  0  0  0  0  0  0  0  0  0  0
   -1.1477   -0.4568    0.1025 C   0  0  0  0  0  0  0  0  0  0  0  0
   -2.3436   -0.0742    0.9737 C   0  0  0  0  0  0  0  0  0  0  0  0
   -1.2135   -1.8858   -0.4021 C   0  0  0  0  0  0  0  0  0  0  0  0
    1.9111    1.6957   -0.5087 H   0  0  0  0  0  0  0  0  0  0  0  0
    2.1219    0.5464   -1.8516 H   0  0  0  0  0  0  0  0  0  0  0  0
    3.3544    0.5522   -0.5421 H   0  0  0  0  0  0  0  0  0  0  0  0
    1.3478   -1.2556   -0.6902 H   0  0  0  0  0  0  0  0  0  0  0  0
    2.7244   -0.0385    1.7683 H   0  0  0  0  0  0  0  0  0  0  0  0
    3.1550   -1.4177    0.7411 H   0  0  0  0  0  0  0  0  0  0  0  0
    1.7637   -1.5618    1.8291 H   0  0  0  0  0  0  0  0  0  0  0  0
    0.1947    0.9064    1.2570 H   0  0  0  0  0  0  0  0  0  0  0  0
   -0.3969    0.3025   -1.8163 H   0  0  0  0  0  0  0  0  0  0  0  0
   -1.9689    2.2503   -1.5183 H   0  0  0  0  0  0  0  0  0  0  0  0
   -1.6648    2.2713    0.2597 H   0  0  0  0  0  0  0  0  0  0  0  0
   -0.3670    2.7178   -0.8609 H   0  0  0  0  0  0  0  0  0  0  0  0
   -2.9592    0.7058    0.4490 H   0  0  0  0  0  0  0  0  0  0  0  0
   -3.0217   -0.9236    1.1459 H   0  0  0  0  0  0  0  0  0  0  0  0
   -1.9715    0.2748    1.9425 H   0  0  0  0  0  0  0  0  0  0  0  0
   -0.2586   -2.4329   -0.2472 H   0  0  0  0  0  0  0  0  0  0  0  0
   -1.9809   -2.4840    0.1658 H   0  0  0  0  0  0  0  0  0  0  0  0
   -1.4686   -1.9378   -1.4638 H   0  0  0  0  0  0  0  0  0  0  0  0
  1  2  1  0
  2  3  1  0
  2  4  1  0
  4  5  1  0
  5  6  1  0
  5  7  1  0
  7  8  1  0
  7  9  1  0
  7  4  1  0
  1 10  1  0
  1 11  1  0
  1 12  1  0
  2 13  1  0
  3 14  1  0
  3 15  1  0
  3 16  1  0
  4 17  1  0
  5 18  1  0
  6 19  1  0
  6 20  1  0
  6 21  1  0
  8 22  1  0
  8 23  1  0
  8 24  1  0
  9 25  1  0
  9 26  1  0
  9 27  1  0
M  END
