
     RDKit          3D

 20 20  0  0  0  0  0  0  0  0999 V2000
    0.9629   -0.7559   -1.1063 C   0  0  0  0  0  0  0  0  0  0  0  0
    0.5320   -0.2637    0.2427 C   0  0  0  0  0  0  0  0  0  0  0  0
    1.3897    0.9243    0.6428 C   0  0  0  0  0  0  0  0  0  0  0  0
    2.7121    0.5332    0.6919 O   0  0  0  0  0  0  0  0  0  0  0  0
   -0.9333    0.0728    0.3168 C   0  0  0  0  0  0  0  0  0  0  0  0
   -1.8440   -1.1049    0.0145 C   0  0  0  0  0  0  0  0  0  0  0  0
   -1.4419    1.3988    0.1441 C   0  0  0  0  0  0  0  0  0  0  0  0
   -1.2817    0.8922    1.4105 O   0  0  0  0  0  0  0  0  0  0  0  0
    1.8530   -0.2139   -1.4958 H   0  0  0  0  0  0  0  0  0  0  0  0
    0.1602   -0.6577   -1.8633 H   0  0  0  0  0  0  0  0  0  0  0  0
    1.2756   -1.8402   -1.0917 H   0  0  0  0  0  0  0  0  0  0  0  0
    0.7853   -1.0818    0.9783 H   0  0  0  0  0  0  0  0  0  0  0  0
    1.2432    1.7459   -0.0852 H   0  0  0  0  0  0  0  0  0  0  0  0
    1.0866    1.2220    1.6707 H   0  0  0  0  0  0  0  0  0  0  0  0
    2.9043   -0.3224    0.2537 H   0  0  0  0  0  0  0  0  0  0  0  0
   -1.8413   -1.8586    0.8297 H   0  0  0  0  0  0  0  0  0  0  0  0
   -1.3893   -1.6147   -0.8739 H   0  0  0  0  0  0  0  0  0  0  0  0
   -2.8544   -0.7824   -0.2764 H   0  0  0  0  0  0  0  0  0  0  0  0
   -0.7964    2.1893   -0.2554 H   0  0  0  0  0  0  0  0  0  0  0  0
   -2.5227    1.5176   -0.1475 H   0  0  0  0  0  0  0  0  0  0  0  0
  1  2  1  0
  2  3  1  0
  3  4  1  0
  2  5  1  0
  5  6  1  0
  5  7  1  0
  7  8  1  0
  8  5  1  0
  1  9  1  0
  1 10  1  0
  1 11  1  0
  2 12  1  0
  3 13  1  0
  3 14  1  0
  4 15  1  0
  6 16  1  0
  6 17  1  0
  6 18  1  0
  7 19  1  0
  7 20  1  0
M  END
