
     RDKit          3D

 21 21  0  0  0  0  0  0  0  0999 V2000
   -2.6646   -0.3059    0.6459 C   0  0  0  0  0  0  0  0  0  0  0  0
   -1.4333   -0.4060   -0.2322 C   0  0  0  0  0  0  0  0  0  0  0  0
   -1.4436    0.5339   -1.3592 C   0  0  0  0  0  0  0  0  0  0  0  0
   -1.6051    0.1981   -2.5160 O   0  0  0  0  0  0  0  0  0  0  0  0
   -0.2267   -0.2685    0.6509 C   0  0  0  0  0  0  0  0  0  0  0  0
    1.0700   -0.3518   -0.1116 C   0  0  0  0  0  0  0  0  0  0  0  0
    2.2950   -0.2111    0.7931 C   0  0  0  0  0  0  0  0  0  0  0  0
    1.9435    0.8449   -0.2429 C   0  0  0  0  0  0  0  0  0  0  0  0
    2.7896    0.9309   -1.3411 O   0  0  0  0  0  0  0  0  0  0  0  0
   -3.1864   -1.2691    0.7678 H   0  0  0  0  0  0  0  0  0  0  0  0
   -2.4075    0.0328    1.6839 H   0  0  0  0  0  0  0  0  0  0  0  0
   -3.2941    0.4935    0.2185 H   0  0  0  0  0  0  0  0  0  0  0  0
   -1.4160   -1.4570   -0.6318 H   0  0  0  0  0  0  0  0  0  0  0  0
   -1.3002    1.5854   -1.1585 H   0  0  0  0  0  0  0  0  0  0  0  0
   -0.2145   -1.0852    1.3988 H   0  0  0  0  0  0  0  0  0  0  0  0
   -0.2082    0.6879    1.2126 H   0  0  0  0  0  0  0  0  0  0  0  0
    1.0849   -1.0967   -0.9162 H   0  0  0  0  0  0  0  0  0  0  0  0
    3.1348   -0.9140    0.5340 H   0  0  0  0  0  0  0  0  0  0  0  0
    2.1637    0.1083    1.8273 H   0  0  0  0  0  0  0  0  0  0  0  0
    1.5407    1.8129    0.1264 H   0  0  0  0  0  0  0  0  0  0  0  0
    3.3778    0.1366   -1.3498 H   0  0  0  0  0  0  0  0  0  0  0  0
  1  2  1  0
  2  3  1  0
  3  4  2  0
  2  5  1  0
  5  6  1  0
  6  7  1  0
  7  8  1  0
  8  9  1  0
  8  6  1  0
  1 10  1  0
  1 11  1  0
  1 12  1  0
  2 13  1  0
  3 14  1  0
  5 15  1  0
  5 16  1  0
  6 17  1  0
  7 18  1  0
  7 19  1  0
  8 20  1  0
  9 21  1  0
M  END
