
     RDKit          3D

 21 20  0  0  0  0  0  0  0  0999 V2000
   -1.9351   -0.8985   -0.3884 C   0  0  0  0  0  0  0  0  0  0  0  0
   -1.0545    0.3460   -0.2205 C   0  0  0  0  0  0  0  0  0  0  0  0
   -1.1937    0.7823    1.1958 C   0  0  0  0  0  0  0  0  0  0  0  0
   -0.6610    1.8297    1.5578 O   0  0  0  0  0  0  0  0  0  0  0  0
    0.3546   -0.0696   -0.5561 C   0  0  0  0  0  0  0  0  0  0  0  0
    1.3391    1.0594   -0.4341 C   0  0  0  0  0  0  0  0  0  0  0  0
    1.0381    2.1231   -1.2803 O   0  0  0  0  0  0  0  0  0  0  0  0
    0.8369   -1.1915    0.3523 C   0  0  0  0  0  0  0  0  0  0  0  0
    2.1311   -1.4980   -0.0343 O   0  0  0  0  0  0  0  0  0  0  0  0
   -3.0061   -0.6206   -0.4947 H   0  0  0  0  0  0  0  0  0  0  0  0
   -1.6215   -1.4920   -1.2605 H   0  0  0  0  0  0  0  0  0  0  0  0
   -1.7906   -1.5158    0.5276 H   0  0  0  0  0  0  0  0  0  0  0  0
   -1.4601    1.0968   -0.8993 H   0  0  0  0  0  0  0  0  0  0  0  0
   -1.7574    0.2044    1.9412 H   0  0  0  0  0  0  0  0  0  0  0  0
    0.3503   -0.3947   -1.6161 H   0  0  0  0  0  0  0  0  0  0  0  0
    2.3371    0.6451   -0.7129 H   0  0  0  0  0  0  0  0  0  0  0  0
    1.4365    1.3850    0.6274 H   0  0  0  0  0  0  0  0  0  0  0  0
    1.0508    2.9428   -0.7239 H   0  0  0  0  0  0  0  0  0  0  0  0
    0.1622   -2.0875    0.2646 H   0  0  0  0  0  0  0  0  0  0  0  0
    0.7860   -0.8934    1.4146 H   0  0  0  0  0  0  0  0  0  0  0  0
    2.6575   -1.7530    0.7399 H   0  0  0  0  0  0  0  0  0  0  0  0
  1  2  1  0
  2  3  1  0
  3  4  2  0
  2  5  1  0
  5  6  1  0
  6  7  1  0
  5  8  1  0
  8  9  1  0
  1 10  1  0
  1 11  1  0
  1 12  1  0
  2 13  1  0
  3 14  1  0
  5 15  1  0
  6 16  1  0
  6 17  1  0
  7 18  1  0
  8 19  1  0
  8 20  1  0
  9 21  1  0
M  END
