
     RDKit          3D

 27 26  0  0  0  0  0  0  0  0999 V2000
   -1.1892   -0.8736   -1.3441 C   0  0  0  0  0  0  0  0  0  0  0  0
   -1.3876   -0.1392   -0.0644 C   0  0  0  0  0  0  0  0  0  0  0  0
   -2.6482   -0.7281    0.6185 C   0  0  0  0  0  0  0  0  0  0  0  0
   -1.8378    1.3182   -0.3364 C   0  0  0  0  0  0  0  0  0  0  0  0
   -0.2906   -0.1763    0.9119 C   0  0  0  0  0  0  0  0  0  0  0  0
    1.0346    0.3719    0.6134 C   0  0  0  0  0  0  0  0  0  0  0  0
    1.7043   -0.3111   -0.5428 C   0  0  0  0  0  0  0  0  0  0  0  0
    3.1030    0.2791   -0.7761 C   0  0  0  0  0  0  0  0  0  0  0  0
    3.8781    0.1003    0.3690 O   0  0  0  0  0  0  0  0  0  0  0  0
   -1.0213   -0.1847   -2.1891 H   0  0  0  0  0  0  0  0  0  0  0  0
   -0.4621   -1.6865   -1.2244 H   0  0  0  0  0  0  0  0  0  0  0  0
   -2.1716   -1.3987   -1.6537 H   0  0  0  0  0  0  0  0  0  0  0  0
   -2.4064   -1.7635    0.9377 H   0  0  0  0  0  0  0  0  0  0  0  0
   -3.4500   -0.6711   -0.1302 H   0  0  0  0  0  0  0  0  0  0  0  0
   -2.9326   -0.0722    1.4650 H   0  0  0  0  0  0  0  0  0  0  0  0
   -2.8560    1.2316   -0.7896 H   0  0  0  0  0  0  0  0  0  0  0  0
   -1.8911    1.7842    0.6650 H   0  0  0  0  0  0  0  0  0  0  0  0
   -1.1545    1.7943   -1.0339 H   0  0  0  0  0  0  0  0  0  0  0  0
   -0.2239   -1.2693    1.2619 H   0  0  0  0  0  0  0  0  0  0  0  0
   -0.6688    0.3578    1.8471 H   0  0  0  0  0  0  0  0  0  0  0  0
    1.0041    1.4660    0.3109 H   0  0  0  0  0  0  0  0  0  0  0  0
    1.6881    0.3619    1.5311 H   0  0  0  0  0  0  0  0  0  0  0  0
    1.7371   -1.3914   -0.4284 H   0  0  0  0  0  0  0  0  0  0  0  0
    1.1477   -0.0326   -1.4690 H   0  0  0  0  0  0  0  0  0  0  0  0
    3.5764   -0.3142   -1.5896 H   0  0  0  0  0  0  0  0  0  0  0  0
    3.0192    1.3265   -1.0905 H   0  0  0  0  0  0  0  0  0  0  0  0
    4.6993    0.6209    0.2892 H   0  0  0  0  0  0  0  0  0  0  0  0
  1  2  1  0
  2  3  1  0
  2  4  1  0
  2  5  1  0
  5  6  1  0
  6  7  1  0
  7  8  1  0
  8  9  1  0
  1 10  1  0
  1 11  1  0
  1 12  1  0
  3 13  1  0
  3 14  1  0
  3 15  1  0
  4 16  1  0
  4 17  1  0
  4 18  1  0
  5 19  1  0
  5 20  1  0
  6 21  1  0
  6 22  1  0
  7 23  1  0
  7 24  1  0
  8 25  1  0
  8 26  1  0
  9 27  1  0
M  END
