
     RDKit          3D

 23 23  0  0  0  0  0  0  0  0999 V2000
   -2.9799   -0.4252   -0.6218 C   0  0  0  0  0  0  0  0  0  0  0  0
   -1.5744   -0.1547   -0.0940 C   0  0  0  0  0  0  0  0  0  0  0  0
   -1.6321    1.1620    0.6450 C   0  0  0  0  0  0  0  0  0  0  0  0
   -0.6583   -0.0941   -1.1386 O   0  0  0  0  0  0  0  0  0  0  0  0
    0.3695   -1.0129   -0.9577 C   0  0  0  0  0  0  0  0  0  0  0  0
    1.0945   -0.7057    0.3072 C   0  0  0  0  0  0  0  0  0  0  0  0
    2.1667   -1.4914    0.7089 O   0  0  0  0  0  0  0  0  0  0  0  0
    2.5595   -0.3190    0.1212 C   0  0  0  0  0  0  0  0  0  0  0  0
    3.0114    0.8535    0.9189 C   0  0  0  0  0  0  0  0  0  0  0  0
   -3.7482    0.1431   -0.0617 H   0  0  0  0  0  0  0  0  0  0  0  0
   -3.2411   -1.4886   -0.5925 H   0  0  0  0  0  0  0  0  0  0  0  0
   -3.0358   -0.0538   -1.6831 H   0  0  0  0  0  0  0  0  0  0  0  0
   -1.2443   -0.9329    0.6088 H   0  0  0  0  0  0  0  0  0  0  0  0
   -1.3999    1.0271    1.7387 H   0  0  0  0  0  0  0  0  0  0  0  0
   -2.6438    1.6222    0.6262 H   0  0  0  0  0  0  0  0  0  0  0  0
   -0.9424    1.8845    0.1737 H   0  0  0  0  0  0  0  0  0  0  0  0
    1.0534   -0.8921   -1.8308 H   0  0  0  0  0  0  0  0  0  0  0  0
   -0.0489   -2.0443   -0.9848 H   0  0  0  0  0  0  0  0  0  0  0  0
    0.5679   -0.2231    1.1525 H   0  0  0  0  0  0  0  0  0  0  0  0
    2.9946   -0.4383   -0.8900 H   0  0  0  0  0  0  0  0  0  0  0  0
    3.4969    1.5833    0.2383 H   0  0  0  0  0  0  0  0  0  0  0  0
    2.1377    1.4163    1.3624 H   0  0  0  0  0  0  0  0  0  0  0  0
    3.6968    0.5843    1.7608 H   0  0  0  0  0  0  0  0  0  0  0  0
  1  2  1  0
  2  3  1  0
  2  4  1  0
  4  5  1  0
  5  6  1  0
  6  7  1  0
  7  8  1  0
  8  9  1  0
  8  6  1  0
  1 10  1  0
  1 11  1  0
  1 12  1  0
  2 13  1  0
  3 14  1  0
  3 15  1  0
  3 16  1  0
  5 17  1  0
  5 18  1  0
  6 19  1  0
  8 20  1  0
  9 21  1  0
  9 22  1  0
  9 23  1  0
M  END
