
     RDKit          3D

 19 18  0  0  0  0  0  0  0  0999 V2000
   -0.9897   -1.4896    0.0075 C   0  0  0  0  0  0  0  0  0  0  0  0
   -0.6069   -0.2040    0.6771 C   0  0  0  0  0  0  0  0  0  0  0  0
   -1.7862    0.7152    0.8484 C   0  0  0  0  0  0  0  0  0  0  0  0
   -2.3764    1.0632   -0.3505 O   0  0  0  0  0  0  0  0  0  0  0  0
    0.5404    0.4546    0.0156 C   0  0  0  0  0  0  0  0  0  0  0  0
    0.4699    1.5702   -0.4664 O   0  0  0  0  0  0  0  0  0  0  0  0
    1.8221   -0.2965   -0.0511 C   0  0  0  0  0  0  0  0  0  0  0  0
    2.8820    0.4924   -0.7428 C   0  0  0  0  0  0  0  0  0  0  0  0
    2.6092    1.5915   -1.1532 O   0  0  0  0  0  0  0  0  0  0  0  0
   -0.0727   -2.0900   -0.1623 H   0  0  0  0  0  0  0  0  0  0  0  0
   -1.4478   -1.3053   -0.9940 H   0  0  0  0  0  0  0  0  0  0  0  0
   -1.6986   -2.0157    0.6938 H   0  0  0  0  0  0  0  0  0  0  0  0
   -0.2739   -0.4767    1.7218 H   0  0  0  0  0  0  0  0  0  0  0  0
   -2.5375    0.1622    1.4609 H   0  0  0  0  0  0  0  0  0  0  0  0
   -1.4695    1.5886    1.4327 H   0  0  0  0  0  0  0  0  0  0  0  0
   -2.8961    1.8812   -0.2215 H   0  0  0  0  0  0  0  0  0  0  0  0
    2.2105   -0.4954    0.9840 H   0  0  0  0  0  0  0  0  0  0  0  0
    1.7482   -1.2582   -0.5553 H   0  0  0  0  0  0  0  0  0  0  0  0
    3.8730    0.1122   -0.8844 H   0  0  0  0  0  0  0  0  0  0  0  0
  1  2  1  0
  2  3  1  0
  3  4  1  0
  2  5  1  0
  5  6  2  0
  5  7  1  0
  7  8  1  0
  8  9  2  0
  1 10  1  0
  1 11  1  0
  1 12  1  0
  2 13  1  0
  3 14  1  0
  3 15  1  0
  4 16  1  0
  7 17  1  0
  7 18  1  0
  8 19  1  0
M  END
