
     RDKit          3D

 23 22  0  0  0  0  0  0  0  0999 V2000
    2.8260    0.2020   -0.0929 C   0  0  0  0  0  0  0  0  0  0  0  0
    2.0752   -1.1981    0.2276 C   0  0  0  0  0  0  0  0  0  0  0  0
    2.0672   -1.9510   -1.0472 C   0  0  0  0  0  0  0  0  0  0  0  0
    0.6906   -0.5615    0.3076 C   0  0  0  0  0  0  0  0  0  0  0  0
   -0.4196   -0.0323    0.3841 C   0  0  0  0  0  0  0  0  0  0  0  0
   -1.8102    0.6065    0.4636 C   0  0  0  0  0  0  0  0  0  0  0  0
   -2.1671    0.9521    1.8853 C   0  0  0  0  0  0  0  0  0  0  0  0
   -2.6454    0.3229   -0.6161 C   0  0  0  0  0  0  0  0  0  0  0  0
   -1.9644    0.8785   -1.7991 O   0  0  0  0  0  0  0  0  0  0  0  0
    3.7035    0.3596    0.4400 H   0  0  0  0  0  0  0  0  0  0  0  0
    2.8283    0.3015   -1.2180 H   0  0  0  0  0  0  0  0  0  0  0  0
    2.0075    1.0151    0.1902 H   0  0  0  0  0  0  0  0  0  0  0  0
    2.3827   -1.6190    1.0656 H   0  0  0  0  0  0  0  0  0  0  0  0
    3.1614   -2.2149   -1.1847 H   0  0  0  0  0  0  0  0  0  0  0  0
    1.9848   -1.0788   -1.8324 H   0  0  0  0  0  0  0  0  0  0  0  0
    1.3625   -2.6612   -1.3758 H   0  0  0  0  0  0  0  0  0  0  0  0
   -1.3706    1.7649    0.1522 H   0  0  0  0  0  0  0  0  0  0  0  0
   -1.6042    0.2699    2.6403 H   0  0  0  0  0  0  0  0  0  0  0  0
   -3.2102    0.8612    2.1812 H   0  0  0  0  0  0  0  0  0  0  0  0
   -1.7374    1.9464    2.1958 H   0  0  0  0  0  0  0  0  0  0  0  0
   -3.6460    0.7882   -0.5081 H   0  0  0  0  0  0  0  0  0  0  0  0
   -2.7872   -0.7868   -0.7796 H   0  0  0  0  0  0  0  0  0  0  0  0
   -1.7274    1.8349   -1.5431 H   0  0  0  0  0  0  0  0  0  0  0  0
  1  2  1  0
  2  3  1  0
  2  4  1  0
  4  5  3  0
  5  6  1  0
  6  7  1  0
  6  8  1  0
  8  9  1  0
  1 10  1  0
  1 11  1  0
  1 12  1  0
  2 13  1  0
  3 14  1  0
  3 15  1  0
  3 16  1  0
  6 17  1  0
  7 18  1  0
  7 19  1  0
  7 20  1  0
  8 21  1  0
  8 22  1  0
  9 23  1  0
M  END
