
     RDKit          3D

 19 19  0  0  0  0  0  0  0  0999 V2000
   -1.7763   -0.9573   -0.9206 C   0  0  0  0  0  0  0  0  0  0  0  0
   -0.9291    0.2991   -0.6918 C   0  0  0  0  0  0  0  0  0  0  0  0
    0.1227   -0.0366    0.3202 C   0  0  0  0  0  0  0  0  0  0  0  0
    0.9987   -0.3313    1.1842 C   0  0  0  0  0  0  0  0  0  0  0  0
    1.9970   -0.6510    2.1448 C   0  0  0  0  0  0  0  0  0  0  0  0
    3.4146   -0.8370    1.7367 C   0  0  0  0  0  0  0  0  0  0  0  0
    2.9107    0.3805    2.3800 O   0  0  0  0  0  0  0  0  0  0  0  0
   -1.7314    1.4387   -0.1669 C   0  0  0  0  0  0  0  0  0  0  0  0
   -2.7228    1.7607   -1.1212 O   0  0  0  0  0  0  0  0  0  0  0  0
   -2.2287   -1.2339    0.0636 H   0  0  0  0  0  0  0  0  0  0  0  0
   -1.0434   -1.7920   -1.1309 H   0  0  0  0  0  0  0  0  0  0  0  0
   -2.4612   -0.8614   -1.7484 H   0  0  0  0  0  0  0  0  0  0  0  0
   -0.3675    0.5497   -1.6122 H   0  0  0  0  0  0  0  0  0  0  0  0
    1.7239   -1.3529    3.0054 H   0  0  0  0  0  0  0  0  0  0  0  0
    4.1052   -1.3985    2.4392 H   0  0  0  0  0  0  0  0  0  0  0  0
    3.8088   -0.5967    0.7429 H   0  0  0  0  0  0  0  0  0  0  0  0
   -2.3391    1.0796    0.7297 H   0  0  0  0  0  0  0  0  0  0  0  0
   -1.1758    2.2945    0.2092 H   0  0  0  0  0  0  0  0  0  0  0  0
   -2.3064    2.2459   -1.8875 H   0  0  0  0  0  0  0  0  0  0  0  0
  1  2  1  0
  2  3  1  0
  3  4  3  0
  4  5  1  0
  5  6  1  0
  6  7  1  0
  2  8  1  0
  8  9  1  0
  7  5  1  0
  1 10  1  0
  1 11  1  0
  1 12  1  0
  2 13  1  0
  5 14  1  0
  6 15  1  0
  6 16  1  0
  8 17  1  0
  8 18  1  0
  9 19  1  0
M  END
