
     RDKit          3D

 27 27  0  0  0  0  0  0  0  0999 V2000
    1.8658    1.0292   -0.5723 C   0  0  0  0  0  0  0  0  0  0  0  0
    1.5052   -0.0267    0.3961 C   0  0  0  0  0  0  0  0  0  0  0  0
    2.3110   -1.2823    0.0344 C   0  0  0  0  0  0  0  0  0  0  0  0
    0.0858   -0.4143    0.4669 C   0  0  0  0  0  0  0  0  0  0  0  0
   -0.5090   -0.9457   -0.7943 C   0  0  0  0  0  0  0  0  0  0  0  0
   -2.0058   -0.8583   -0.5237 C   0  0  0  0  0  0  0  0  0  0  0  0
   -2.1784   -0.1872    0.8040 C   0  0  0  0  0  0  0  0  0  0  0  0
   -0.8776    0.6294    0.8963 C   0  0  0  0  0  0  0  0  0  0  0  0
   -1.0306    1.7858   -0.0285 C   0  0  0  0  0  0  0  0  0  0  0  0
    2.9935    1.0364   -0.6603 H   0  0  0  0  0  0  0  0  0  0  0  0
    1.5893    2.0331   -0.2558 H   0  0  0  0  0  0  0  0  0  0  0  0
    1.5122    0.7411   -1.5813 H   0  0  0  0  0  0  0  0  0  0  0  0
    1.8440    0.2313    1.4334 H   0  0  0  0  0  0  0  0  0  0  0  0
    3.3288   -1.2147    0.4678 H   0  0  0  0  0  0  0  0  0  0  0  0
    2.3061   -1.4492   -1.0573 H   0  0  0  0  0  0  0  0  0  0  0  0
    1.8134   -2.1745    0.5046 H   0  0  0  0  0  0  0  0  0  0  0  0
    0.0097   -1.2495    1.2269 H   0  0  0  0  0  0  0  0  0  0  0  0
   -0.2276   -0.3864   -1.7008 H   0  0  0  0  0  0  0  0  0  0  0  0
   -0.1854   -2.0046   -0.9015 H   0  0  0  0  0  0  0  0  0  0  0  0
   -2.4212   -1.8853   -0.4894 H   0  0  0  0  0  0  0  0  0  0  0  0
   -2.5078   -0.2355   -1.3114 H   0  0  0  0  0  0  0  0  0  0  0  0
   -2.0937   -0.9512    1.6123 H   0  0  0  0  0  0  0  0  0  0  0  0
   -3.0642    0.4389    0.8825 H   0  0  0  0  0  0  0  0  0  0  0  0
   -0.6867    0.9356    1.9407 H   0  0  0  0  0  0  0  0  0  0  0  0
   -0.6441    1.6398   -1.0396 H   0  0  0  0  0  0  0  0  0  0  0  0
   -0.6058    2.7339    0.4076 H   0  0  0  0  0  0  0  0  0  0  0  0
   -2.1271    2.0307   -0.1574 H   0  0  0  0  0  0  0  0  0  0  0  0
  1  2  1  0
  2  3  1  0
  2  4  1  0
  4  5  1  0
  5  6  1  0
  6  7  1  0
  7  8  1  0
  8  9  1  0
  8  4  1  0
  1 10  1  0
  1 11  1  0
  1 12  1  0
  2 13  1  0
  3 14  1  0
  3 15  1  0
  3 16  1  0
  4 17  1  0
  5 18  1  0
  5 19  1  0
  6 20  1  0
  6 21  1  0
  7 22  1  0
  7 23  1  0
  8 24  1  0
  9 25  1  0
  9 26  1  0
  9 27  1  0
M  END
