
     RDKit          3D

 19 19  0  0  0  0  0  0  0  0999 V2000
   -2.0569    0.1210    1.2368 C   0  0  0  0  0  0  0  0  0  0  0  0
   -1.3503    0.2060   -0.1002 C   0  0  0  0  0  0  0  0  0  0  0  0
   -2.2574   -0.3228   -1.1770 C   0  0  0  0  0  0  0  0  0  0  0  0
   -0.1089   -0.4445   -0.0466 O   0  0  0  0  0  0  0  0  0  0  0  0
    1.1060    0.1986   -0.1970 C   0  0  0  0  0  0  0  0  0  0  0  0
    1.1082    1.4322   -0.3926 O   0  0  0  0  0  0  0  0  0  0  0  0
    2.3377   -0.5892   -0.1214 C   0  0  0  0  0  0  0  0  0  0  0  0
    3.5096    0.1628    0.5108 C   0  0  0  0  0  0  0  0  0  0  0  0
    3.4660   -0.2000   -0.8301 O   0  0  0  0  0  0  0  0  0  0  0  0
   -3.1363    0.1359    1.0351 H   0  0  0  0  0  0  0  0  0  0  0  0
   -1.7997   -0.7884    1.8000 H   0  0  0  0  0  0  0  0  0  0  0  0
   -1.8368    0.9867    1.8879 H   0  0  0  0  0  0  0  0  0  0  0  0
   -1.1469    1.2864   -0.2795 H   0  0  0  0  0  0  0  0  0  0  0  0
   -1.7261   -0.6273   -2.0905 H   0  0  0  0  0  0  0  0  0  0  0  0
   -3.0088    0.4674   -1.4493 H   0  0  0  0  0  0  0  0  0  0  0  0
   -2.8503   -1.1709   -0.7536 H   0  0  0  0  0  0  0  0  0  0  0  0
    2.2695   -1.6662    0.0520 H   0  0  0  0  0  0  0  0  0  0  0  0
    4.0762   -0.4336    1.2348 H   0  0  0  0  0  0  0  0  0  0  0  0
    3.4052    1.2460    0.6766 H   0  0  0  0  0  0  0  0  0  0  0  0
  1  2  1  0
  2  3  1  0
  2  4  1  0
  4  5  1  0
  5  6  2  0
  5  7  1  0
  7  8  1  0
  8  9  1  0
  9  7  1  0
  1 10  1  0
  1 11  1  0
  1 12  1  0
  2 13  1  0
  3 14  1  0
  3 15  1  0
  3 16  1  0
  7 17  1  0
  8 18  1  0
  8 19  1  0
M  END
