
     RDKit          3D

 21 21  0  0  0  0  0  0  0  0999 V2000
   -1.7061    0.7449    1.1528 C   0  0  0  0  0  0  0  0  0  0  0  0
   -1.0210    0.3511   -0.1114 C   0  0  0  0  0  0  0  0  0  0  0  0
   -1.9735   -0.3637   -1.0808 C   0  0  0  0  0  0  0  0  0  0  0  0
    0.1513   -0.5677    0.0863 C   0  0  0  0  0  0  0  0  0  0  0  0
    1.2408   -0.0307    0.9224 C   0  0  0  0  0  0  0  0  0  0  0  0
    2.4927   -0.1722    0.0574 C   0  0  0  0  0  0  0  0  0  0  0  0
    1.9202   -0.1169   -1.3076 C   0  0  0  0  0  0  0  0  0  0  0  0
    2.4088    0.4316   -2.3282 O   0  0  0  0  0  0  0  0  0  0  0  0
    0.7041   -0.8153   -1.2130 O   0  0  0  0  0  0  0  0  0  0  0  0
   -1.7096   -0.0469    1.9133 H   0  0  0  0  0  0  0  0  0  0  0  0
   -2.7291    1.0918    0.8998 H   0  0  0  0  0  0  0  0  0  0  0  0
   -1.1765    1.6616    1.5458 H   0  0  0  0  0  0  0  0  0  0  0  0
   -0.7007    1.2694   -0.6454 H   0  0  0  0  0  0  0  0  0  0  0  0
   -1.5753   -0.2253   -2.1162 H   0  0  0  0  0  0  0  0  0  0  0  0
   -1.8975   -1.4656   -0.8781 H   0  0  0  0  0  0  0  0  0  0  0  0
   -3.0060   -0.0416   -0.9628 H   0  0  0  0  0  0  0  0  0  0  0  0
   -0.1651   -1.5535    0.4837 H   0  0  0  0  0  0  0  0  0  0  0  0
    1.4529   -0.6628    1.8344 H   0  0  0  0  0  0  0  0  0  0  0  0
    1.1232    0.9908    1.2823 H   0  0  0  0  0  0  0  0  0  0  0  0
    3.1861    0.6784    0.2410 H   0  0  0  0  0  0  0  0  0  0  0  0
    2.9802   -1.1575    0.2244 H   0  0  0  0  0  0  0  0  0  0  0  0
  1  2  1  0
  2  3  1  0
  2  4  1  0
  4  5  1  0
  5  6  1  0
  6  7  1  0
  7  8  2  0
  7  9  1  0
  9  4  1  0
  1 10  1  0
  1 11  1  0
  1 12  1  0
  2 13  1  0
  3 14  1  0
  3 15  1  0
  3 16  1  0
  4 17  1  0
  5 18  1  0
  5 19  1  0
  6 20  1  0
  6 21  1  0
M  END
