
     RDKit          3D

 25 24  0  0  0  0  0  0  0  0999 V2000
    1.9309    0.6789   -1.1932 C   0  0  0  0  0  0  0  0  0  0  0  0
    1.7209   -0.4551   -0.2331 C   0  0  0  0  0  0  0  0  0  0  0  0
    2.6638   -0.1765    0.9343 C   0  0  0  0  0  0  0  0  0  0  0  0
    0.3215   -0.4598    0.3519 C   0  0  0  0  0  0  0  0  0  0  0  0
   -0.7419   -0.5921   -0.6971 C   0  0  0  0  0  0  0  0  0  0  0  0
   -0.7153    0.4596   -1.6166 O   0  0  0  0  0  0  0  0  0  0  0  0
   -2.0855   -0.5633   -0.0345 C   0  0  0  0  0  0  0  0  0  0  0  0
   -2.3652    0.6951    0.7138 C   0  0  0  0  0  0  0  0  0  0  0  0
   -3.6444    0.6597    1.2892 O   0  0  0  0  0  0  0  0  0  0  0  0
    1.3017    1.5317   -0.8638 H   0  0  0  0  0  0  0  0  0  0  0  0
    2.9964    1.0509   -1.1779 H   0  0  0  0  0  0  0  0  0  0  0  0
    1.7036    0.4426   -2.2321 H   0  0  0  0  0  0  0  0  0  0  0  0
    2.0031   -1.4123   -0.6812 H   0  0  0  0  0  0  0  0  0  0  0  0
    2.9373   -1.0931    1.4696 H   0  0  0  0  0  0  0  0  0  0  0  0
    3.5535    0.4053    0.5819 H   0  0  0  0  0  0  0  0  0  0  0  0
    2.1320    0.4791    1.6581 H   0  0  0  0  0  0  0  0  0  0  0  0
    0.2224    0.4207    0.9731 H   0  0  0  0  0  0  0  0  0  0  0  0
    0.2391   -1.3501    1.0115 H   0  0  0  0  0  0  0  0  0  0  0  0
   -0.5996   -1.5590   -1.2469 H   0  0  0  0  0  0  0  0  0  0  0  0
   -0.9973    0.1660   -2.5305 H   0  0  0  0  0  0  0  0  0  0  0  0
   -2.8340   -0.7503   -0.8522 H   0  0  0  0  0  0  0  0  0  0  0  0
   -2.2194   -1.4364    0.6647 H   0  0  0  0  0  0  0  0  0  0  0  0
   -2.3840    1.5425   -0.0114 H   0  0  0  0  0  0  0  0  0  0  0  0
   -1.5947    0.8816    1.4665 H   0  0  0  0  0  0  0  0  0  0  0  0
   -3.5449    0.4342    2.2562 H   0  0  0  0  0  0  0  0  0  0  0  0
  1  2  1  0
  2  3  1  0
  2  4  1  0
  4  5  1  0
  5  6  1  0
  5  7  1  0
  7  8  1  0
  8  9  1  0
  1 10  1  0
  1 11  1  0
  1 12  1  0
  2 13  1  0
  3 14  1  0
  3 15  1  0
  3 16  1  0
  4 17  1  0
  4 18  1  0
  5 19  1  0
  6 20  1  0
  7 21  1  0
  7 22  1  0
  8 23  1  0
  8 24  1  0
  9 25  1  0
M  END
