
     RDKit          3D

 25 24  0  0  0  0  0  0  0  0999 V2000
   -0.8172   -0.8960    3.0668 C   0  0  0  0  0  0  0  0  0  0  0  0
   -0.7901   -1.4865    1.6787 C   0  0  0  0  0  0  0  0  0  0  0  0
    0.0679   -2.7411    1.7726 C   0  0  0  0  0  0  0  0  0  0  0  0
   -0.4569   -0.6098    0.6425 C   0  0  0  0  0  0  0  0  0  0  0  0
   -0.1045    0.2491   -0.3807 C   0  0  0  0  0  0  0  0  0  0  0  0
    0.1989    1.0304   -1.3269 C   0  0  0  0  0  0  0  0  0  0  0  0
    0.8474    0.3244   -2.5841 C   0  0  0  0  0  0  0  0  0  0  0  0
    1.3064    2.0974   -0.9189 C   0  0  0  0  0  0  0  0  0  0  0  0
   -0.9180    1.8485   -1.9779 C   0  0  0  0  0  0  0  0  0  0  0  0
   -1.6353   -0.1649    3.2074 H   0  0  0  0  0  0  0  0  0  0  0  0
    0.1530   -0.3642    3.2398 H   0  0  0  0  0  0  0  0  0  0  0  0
   -0.9025   -1.7513    3.8088 H   0  0  0  0  0  0  0  0  0  0  0  0
   -1.8608   -1.8301    1.4733 H   0  0  0  0  0  0  0  0  0  0  0  0
    1.0496   -2.4439    2.1613 H   0  0  0  0  0  0  0  0  0  0  0  0
    0.1456   -3.1555    0.7453 H   0  0  0  0  0  0  0  0  0  0  0  0
   -0.4364   -3.4750    2.4591 H   0  0  0  0  0  0  0  0  0  0  0  0
    0.7612    0.9557   -3.4513 H   0  0  0  0  0  0  0  0  0  0  0  0
    1.8704    0.1067   -2.2461 H   0  0  0  0  0  0  0  0  0  0  0  0
    0.3253   -0.6506   -2.6206 H   0  0  0  0  0  0  0  0  0  0  0  0
    2.2477    1.5619   -1.0867 H   0  0  0  0  0  0  0  0  0  0  0  0
    1.1743    2.9900   -1.5165 H   0  0  0  0  0  0  0  0  0  0  0  0
    1.1378    2.2076    0.1504 H   0  0  0  0  0  0  0  0  0  0  0  0
   -1.6833    2.1946   -1.2929 H   0  0  0  0  0  0  0  0  0  0  0  0
   -1.2790    1.2437   -2.8197 H   0  0  0  0  0  0  0  0  0  0  0  0
   -0.4014    2.7589   -2.4186 H   0  0  0  0  0  0  0  0  0  0  0  0
  1  2  1  0
  2  3  1  0
  2  4  1  0
  4  5  3  0
  5  6  1  0
  6  7  1  0
  6  8  1  0
  6  9  1  0
  1 10  1  0
  1 11  1  0
  1 12  1  0
  2 13  1  0
  3 14  1  0
  3 15  1  0
  3 16  1  0
  7 17  1  0
  7 18  1  0
  7 19  1  0
  8 20  1  0
  8 21  1  0
  8 22  1  0
  9 23  1  0
  9 24  1  0
  9 25  1  0
M  END
