
     RDKit          3D

 25 25  0  0  0  0  0  0  0  0999 V2000
   -2.0031   -0.4095    1.3562 C   0  0  0  0  0  0  0  0  0  0  0  0
   -1.1493   -0.5647    0.1459 C   0  0  0  0  0  0  0  0  0  0  0  0
   -1.8732    0.0125   -1.0525 C   0  0  0  0  0  0  0  0  0  0  0  0
    0.1986    0.0861    0.3340 C   0  0  0  0  0  0  0  0  0  0  0  0
    0.0917    1.5432    0.6034 C   0  0  0  0  0  0  0  0  0  0  0  0
    0.9944   -0.5696    1.2521 O   0  0  0  0  0  0  0  0  0  0  0  0
    1.5318   -1.3819    0.2615 C   0  0  0  0  0  0  0  0  0  0  0  0
    1.1567   -0.3231   -0.7556 C   0  0  0  0  0  0  0  0  0  0  0  0
    2.3291    0.5900   -0.9733 C   0  0  0  0  0  0  0  0  0  0  0  0
   -2.3754   -1.4169    1.6423 H   0  0  0  0  0  0  0  0  0  0  0  0
   -1.4247   -0.0524    2.2543 H   0  0  0  0  0  0  0  0  0  0  0  0
   -2.8424    0.2911    1.2383 H   0  0  0  0  0  0  0  0  0  0  0  0
   -0.9548   -1.6444   -0.1141 H   0  0  0  0  0  0  0  0  0  0  0  0
   -1.6546   -0.5810   -1.9746 H   0  0  0  0  0  0  0  0  0  0  0  0
   -2.9733   -0.1168   -0.8410 H   0  0  0  0  0  0  0  0  0  0  0  0
   -1.5981    1.0666   -1.2055 H   0  0  0  0  0  0  0  0  0  0  0  0
    0.4526    1.7483    1.6314 H   0  0  0  0  0  0  0  0  0  0  0  0
   -0.9631    1.9362    0.5256 H   0  0  0  0  0  0  0  0  0  0  0  0
    0.7214    2.1517   -0.1021 H   0  0  0  0  0  0  0  0  0  0  0  0
    0.9753   -2.3195    0.1913 H   0  0  0  0  0  0  0  0  0  0  0  0
    2.6225   -1.5678    0.3547 H   0  0  0  0  0  0  0  0  0  0  0  0
    0.7289   -0.7808   -1.6435 H   0  0  0  0  0  0  0  0  0  0  0  0
    3.0476    0.0366   -1.6320 H   0  0  0  0  0  0  0  0  0  0  0  0
    2.0861    1.5258   -1.4868 H   0  0  0  0  0  0  0  0  0  0  0  0
    2.8754    0.7403   -0.0099 H   0  0  0  0  0  0  0  0  0  0  0  0
  1  2  1  0
  2  3  1  0
  2  4  1  0
  4  5  1  0
  4  6  1  0
  6  7  1  0
  7  8  1  0
  8  9  1  0
  8  4  1  0
  1 10  1  0
  1 11  1  0
  1 12  1  0
  2 13  1  0
  3 14  1  0
  3 15  1  0
  3 16  1  0
  5 17  1  0
  5 18  1  0
  5 19  1  0
  7 20  1  0
  7 21  1  0
  8 22  1  0
  9 23  1  0
  9 24  1  0
  9 25  1  0
M  END
