
     RDKit          3D

 21 20  0  0  0  0  0  0  0  0999 V2000
    1.6993   -1.2996   -0.5707 C   0  0  0  0  0  0  0  0  0  0  0  0
    1.3554    0.0337    0.0375 C   0  0  0  0  0  0  0  0  0  0  0  0
    2.6548    0.8396    0.0993 C   0  0  0  0  0  0  0  0  0  0  0  0
    0.7043   -0.0216    1.2234 O   0  0  0  0  0  0  0  0  0  0  0  0
   -0.5331    0.5404    1.2945 C   0  0  0  0  0  0  0  0  0  0  0  0
   -1.5403   -0.0870    0.3433 C   0  0  0  0  0  0  0  0  0  0  0  0
   -2.8062    0.5317    0.4575 O   0  0  0  0  0  0  0  0  0  0  0  0
   -3.8507    0.1109   -0.3149 C   0  0  0  0  0  0  0  0  0  0  0  0
   -3.6615   -0.8446   -1.1351 O   0  0  0  0  0  0  0  0  0  0  0  0
    0.9927   -1.5991   -1.3728 H   0  0  0  0  0  0  0  0  0  0  0  0
    2.7059   -1.2920   -1.0404 H   0  0  0  0  0  0  0  0  0  0  0  0
    1.7271   -2.1082    0.1901 H   0  0  0  0  0  0  0  0  0  0  0  0
    0.7211    0.5655   -0.7020 H   0  0  0  0  0  0  0  0  0  0  0  0
    2.8606    1.3517   -0.8561 H   0  0  0  0  0  0  0  0  0  0  0  0
    2.6237    1.5519    0.9596 H   0  0  0  0  0  0  0  0  0  0  0  0
    3.4698    0.1096    0.2860 H   0  0  0  0  0  0  0  0  0  0  0  0
   -0.9544    0.6284    2.2972 H   0  0  0  0  0  0  0  0  0  0  0  0
   -0.4234    1.6068    0.9293 H   0  0  0  0  0  0  0  0  0  0  0  0
   -1.2275    0.0172   -0.6980 H   0  0  0  0  0  0  0  0  0  0  0  0
   -1.6712   -1.1522    0.6497 H   0  0  0  0  0  0  0  0  0  0  0  0
   -4.8462    0.5168   -0.3002 H   0  0  0  0  0  0  0  0  0  0  0  0
  1  2  1  0
  2  3  1  0
  2  4  1  0
  4  5  1  0
  5  6  1  0
  6  7  1  0
  7  8  1  0
  8  9  2  0
  1 10  1  0
  1 11  1  0
  1 12  1  0
  2 13  1  0
  3 14  1  0
  3 15  1  0
  3 16  1  0
  5 17  1  0
  5 18  1  0
  6 19  1  0
  6 20  1  0
  8 21  1  0
M  END
