
     RDKit          3D

 18 17  0  0  0  0  0  0  0  0999 V2000
   -1.9089   -0.8854    0.7710 C   0  0  0  0  0  0  0  0  0  0  0  0
   -1.1703   -0.1505   -0.3221 C   0  0  0  0  0  0  0  0  0  0  0  0
   -1.6564    1.2763   -0.4844 C   0  0  0  0  0  0  0  0  0  0  0  0
   -1.4122   -0.7690   -1.5625 O   0  0  0  0  0  0  0  0  0  0  0  0
    0.2718   -0.1569   -0.0175 C   0  0  0  0  0  0  0  0  0  0  0  0
    1.4634   -0.1487    0.2176 C   0  0  0  0  0  0  0  0  0  0  0  0
    2.8985   -0.1555    0.5201 C   0  0  0  0  0  0  0  0  0  0  0  0
    3.6160    0.6243   -0.3807 O   0  0  0  0  0  0  0  0  0  0  0  0
   -1.4463   -0.7372    1.7665 H   0  0  0  0  0  0  0  0  0  0  0  0
   -2.9313   -0.4299    0.8386 H   0  0  0  0  0  0  0  0  0  0  0  0
   -1.9876   -1.9633    0.5997 H   0  0  0  0  0  0  0  0  0  0  0  0
   -1.8455    1.7265    0.5115 H   0  0  0  0  0  0  0  0  0  0  0  0
   -2.5533    1.2520   -1.1086 H   0  0  0  0  0  0  0  0  0  0  0  0
   -0.8467    1.8524   -0.9730 H   0  0  0  0  0  0  0  0  0  0  0  0
   -0.5794   -0.5874   -2.1004 H   0  0  0  0  0  0  0  0  0  0  0  0
    3.3019   -1.2030    0.5659 H   0  0  0  0  0  0  0  0  0  0  0  0
    3.0194    0.2597    1.5282 H   0  0  0  0  0  0  0  0  0  0  0  0
    3.7669    0.1956   -1.2385 H   0  0  0  0  0  0  0  0  0  0  0  0
  1  2  1  0
  2  3  1  0
  2  4  1  0
  2  5  1  0
  5  6  3  0
  6  7  1  0
  7  8  1  0
  1  9  1  0
  1 10  1  0
  1 11  1  0
  3 12  1  0
  3 13  1  0
  3 14  1  0
  4 15  1  0
  7 16  1  0
  7 17  1  0
  8 18  1  0
M  END
