
     RDKit          3D

 21 21  0  0  0  0  0  0  0  0999 V2000
   -1.8224   -1.3203    0.1059 C   0  0  0  0  0  0  0  0  0  0  0  0
   -1.2498   -0.0346   -0.4170 C   0  0  0  0  0  0  0  0  0  0  0  0
   -1.9380    1.1875    0.1091 C   0  0  0  0  0  0  0  0  0  0  0  0
    0.2179   -0.0393   -0.1102 C   0  0  0  0  0  0  0  0  0  0  0  0
    0.9203   -0.9207    0.5922 C   0  0  0  0  0  0  0  0  0  0  0  0
    2.3576   -0.5298    0.6428 C   0  0  0  0  0  0  0  0  0  0  0  0
    2.4920    0.4371   -0.5070 C   0  0  0  0  0  0  0  0  0  0  0  0
    3.4648    0.6633   -1.1793 O   0  0  0  0  0  0  0  0  0  0  0  0
    1.1192    1.0519   -0.6131 C   0  0  0  0  0  0  0  0  0  0  0  0
   -1.5509   -1.5359    1.1473 H   0  0  0  0  0  0  0  0  0  0  0  0
   -1.4171   -2.1396   -0.5559 H   0  0  0  0  0  0  0  0  0  0  0  0
   -2.9326   -1.3387   -0.0472 H   0  0  0  0  0  0  0  0  0  0  0  0
   -1.3409   -0.0433   -1.5333 H   0  0  0  0  0  0  0  0  0  0  0  0
   -1.9177    1.9920   -0.6299 H   0  0  0  0  0  0  0  0  0  0  0  0
   -1.3706    1.5017    1.0323 H   0  0  0  0  0  0  0  0  0  0  0  0
   -2.9779    0.9754    0.4841 H   0  0  0  0  0  0  0  0  0  0  0  0
    0.4704   -1.7956    1.0519 H   0  0  0  0  0  0  0  0  0  0  0  0
    2.5543    0.0581    1.5585 H   0  0  0  0  0  0  0  0  0  0  0  0
    3.0448   -1.3640    0.4936 H   0  0  0  0  0  0  0  0  0  0  0  0
    1.0290    1.9469    0.0305 H   0  0  0  0  0  0  0  0  0  0  0  0
    0.8475    1.2479   -1.6555 H   0  0  0  0  0  0  0  0  0  0  0  0
  1  2  1  0
  2  3  1  0
  2  4  1  0
  4  5  2  0
  5  6  1  0
  6  7  1  0
  7  8  2  0
  7  9  1  0
  9  4  1  0
  1 10  1  0
  1 11  1  0
  1 12  1  0
  2 13  1  0
  3 14  1  0
  3 15  1  0
  3 16  1  0
  5 17  1  0
  6 18  1  0
  6 19  1  0
  9 20  1  0
  9 21  1  0
M  END
