
     RDKit          3D

 23 23  0  0  0  0  0  0  0  0999 V2000
   -2.3848   -1.2940   -0.5026 C   0  0  0  0  0  0  0  0  0  0  0  0
   -1.4444   -0.4923    0.4040 C   0  0  0  0  0  0  0  0  0  0  0  0
   -2.2320    0.7000    0.9256 C   0  0  0  0  0  0  0  0  0  0  0  0
   -1.4269    1.4701    1.7355 O   0  0  0  0  0  0  0  0  0  0  0  0
   -0.3347   -0.0723   -0.3382 O   0  0  0  0  0  0  0  0  0  0  0  0
    0.7879   -0.6801    0.2696 C   0  0  0  0  0  0  0  0  0  0  0  0
    2.0532   -0.2865   -0.4645 C   0  0  0  0  0  0  0  0  0  0  0  0
    2.3037    1.2023   -0.4727 C   0  0  0  0  0  0  0  0  0  0  0  0
    3.1861    0.2205    0.3128 C   0  0  0  0  0  0  0  0  0  0  0  0
   -3.3144   -1.4280    0.0656 H   0  0  0  0  0  0  0  0  0  0  0  0
   -1.9071   -2.2792   -0.6302 H   0  0  0  0  0  0  0  0  0  0  0  0
   -2.5245   -0.7725   -1.4699 H   0  0  0  0  0  0  0  0  0  0  0  0
   -1.1829   -1.1579    1.2346 H   0  0  0  0  0  0  0  0  0  0  0  0
   -3.0967    0.2591    1.4906 H   0  0  0  0  0  0  0  0  0  0  0  0
   -2.6718    1.2871    0.1092 H   0  0  0  0  0  0  0  0  0  0  0  0
   -1.2223    2.3313    1.2689 H   0  0  0  0  0  0  0  0  0  0  0  0
    0.7022   -1.7724    0.2791 H   0  0  0  0  0  0  0  0  0  0  0  0
    0.8134   -0.2557    1.3038 H   0  0  0  0  0  0  0  0  0  0  0  0
    2.1913   -0.8364   -1.4364 H   0  0  0  0  0  0  0  0  0  0  0  0
    2.6826    1.6025   -1.4143 H   0  0  0  0  0  0  0  0  0  0  0  0
    1.7061    1.8616    0.1896 H   0  0  0  0  0  0  0  0  0  0  0  0
    4.2217    0.1947   -0.0475 H   0  0  0  0  0  0  0  0  0  0  0  0
    3.0946    0.1981    1.4094 H   0  0  0  0  0  0  0  0  0  0  0  0
  1  2  1  0
  2  3  1  0
  3  4  1  0
  2  5  1  0
  5  6  1  0
  6  7  1  0
  7  8  1  0
  8  9  1  0
  9  7  1  0
  1 10  1  0
  1 11  1  0
  1 12  1  0
  2 13  1  0
  3 14  1  0
  3 15  1  0
  4 16  1  0
  6 17  1  0
  6 18  1  0
  7 19  1  0
  8 20  1  0
  8 21  1  0
  9 22  1  0
  9 23  1  0
M  END
