
     RDKit          3D

 10  9  0  0  0  0  0  0  0  0999 V2000
   -1.2532   -0.0995   -0.1620 C   0  0  0  0  0  0  0  0  0  0  0  0
    0.0185    0.0203    0.6031 C   0  0  0  0  0  0  0  0  0  0  0  0
    1.2830    0.0290   -0.1790 C   0  0  0  0  0  0  0  0  0  0  0  0
   -0.0366    0.1033    1.8005 O   0  0  0  0  0  0  0  0  0  0  0  0
   -1.8163    0.8575    0.0085 H   0  0  0  0  0  0  0  0  0  0  0  0
   -1.1020   -0.1919   -1.2460 H   0  0  0  0  0  0  0  0  0  0  0  0
   -1.8079   -0.9612    0.2819 H   0  0  0  0  0  0  0  0  0  0  0  0
    1.1823   -0.5401   -1.1196 H   0  0  0  0  0  0  0  0  0  0  0  0
    2.0797   -0.3239    0.4832 H   0  0  0  0  0  0  0  0  0  0  0  0
    1.4525    1.1064   -0.4705 H   0  0  0  0  0  0  0  0  0  0  0  0
  1  2  1  0
  2  3  1  0
  2  4  2  0
  1  5  1  0
  1  6  1  0
  1  7  1  0
  3  8  1  0
  3  9  1  0
  3 10  1  0
M  END
