
     RDKit          3D

 25 25  0  0  0  0  0  0  0  0999 V2000
   -2.5188   -1.0714    0.6179 C   0  0  0  0  0  0  0  0  0  0  0  0
   -1.6637   -0.2497   -0.2920 C   0  0  0  0  0  0  0  0  0  0  0  0
   -2.3981    0.9896   -0.7150 C   0  0  0  0  0  0  0  0  0  0  0  0
   -0.3451    0.0329    0.3636 C   0  0  0  0  0  0  0  0  0  0  0  0
    0.5807    0.8545   -0.4790 C   0  0  0  0  0  0  0  0  0  0  0  0
    1.5857   -0.1108    0.0501 C   0  0  0  0  0  0  0  0  0  0  0  0
    2.6063   -0.5801   -0.9690 C   0  0  0  0  0  0  0  0  0  0  0  0
    2.2770    0.2601    1.3306 C   0  0  0  0  0  0  0  0  0  0  0  0
    0.5742   -1.0349    0.2488 O   0  0  0  0  0  0  0  0  0  0  0  0
   -3.3871   -1.5134    0.1065 H   0  0  0  0  0  0  0  0  0  0  0  0
   -1.8646   -1.8711    1.0527 H   0  0  0  0  0  0  0  0  0  0  0  0
   -2.9042   -0.5036    1.4901 H   0  0  0  0  0  0  0  0  0  0  0  0
   -1.4581   -0.8635   -1.1997 H   0  0  0  0  0  0  0  0  0  0  0  0
   -2.8099    1.5447    0.1539 H   0  0  0  0  0  0  0  0  0  0  0  0
   -1.8152    1.6558   -1.3559 H   0  0  0  0  0  0  0  0  0  0  0  0
   -3.2693    0.6399   -1.3421 H   0  0  0  0  0  0  0  0  0  0  0  0
   -0.4151    0.3237    1.4388 H   0  0  0  0  0  0  0  0  0  0  0  0
    0.3968    0.6650   -1.5536 H   0  0  0  0  0  0  0  0  0  0  0  0
    0.7001    1.9117   -0.1845 H   0  0  0  0  0  0  0  0  0  0  0  0
    2.4611    0.0258   -1.8798 H   0  0  0  0  0  0  0  0  0  0  0  0
    3.6522   -0.3898   -0.6259 H   0  0  0  0  0  0  0  0  0  0  0  0
    2.5354   -1.6683   -1.1602 H   0  0  0  0  0  0  0  0  0  0  0  0
    3.0004    1.0745    1.1385 H   0  0  0  0  0  0  0  0  0  0  0  0
    1.5755    0.5074    2.1436 H   0  0  0  0  0  0  0  0  0  0  0  0
    2.9036   -0.6291    1.6217 H   0  0  0  0  0  0  0  0  0  0  0  0
  1  2  1  0
  2  3  1  0
  2  4  1  0
  4  5  1  0
  5  6  1  0
  6  7  1  0
  6  8  1  0
  6  9  1  0
  9  4  1  0
  1 10  1  0
  1 11  1  0
  1 12  1  0
  2 13  1  0
  3 14  1  0
  3 15  1  0
  3 16  1  0
  4 17  1  0
  5 18  1  0
  5 19  1  0
  7 20  1  0
  7 21  1  0
  7 22  1  0
  8 23  1  0
  8 24  1  0
  8 25  1  0
M  END
