
     RDKit          3D

 23 24  0  0  0  0  0  0  0  0999 V2000
   -1.6675   -0.9360    0.8521 C   0  0  0  0  0  0  0  0  0  0  0  0
   -1.3608   -0.2308   -0.4180 C   0  0  0  0  0  0  0  0  0  0  0  0
   -2.1485    1.0741   -0.4174 C   0  0  0  0  0  0  0  0  0  0  0  0
    0.0593   -0.0445   -0.7567 C   0  0  0  0  0  0  0  0  0  0  0  0
    0.8018   -1.2162   -0.8928 O   0  0  0  0  0  0  0  0  0  0  0  0
    1.9853   -0.9126   -0.2798 C   0  0  0  0  0  0  0  0  0  0  0  0
    2.2406    0.5743   -0.5739 C   0  0  0  0  0  0  0  0  0  0  0  0
    0.9128    0.6985    0.2076 C   0  0  0  0  0  0  0  0  0  0  0  0
    1.4931   -0.3726    1.0731 C   0  0  0  0  0  0  0  0  0  0  0  0
   -1.4314   -0.3124    1.7346 H   0  0  0  0  0  0  0  0  0  0  0  0
   -1.2567   -1.9590    0.9359 H   0  0  0  0  0  0  0  0  0  0  0  0
   -2.7921   -1.0714    0.8741 H   0  0  0  0  0  0  0  0  0  0  0  0
   -1.8139   -0.8238   -1.2698 H   0  0  0  0  0  0  0  0  0  0  0  0
   -1.6554    1.8152    0.2696 H   0  0  0  0  0  0  0  0  0  0  0  0
   -3.1878    0.8561   -0.0759 H   0  0  0  0  0  0  0  0  0  0  0  0
   -2.2445    1.4929   -1.4484 H   0  0  0  0  0  0  0  0  0  0  0  0
    0.1853    0.4836   -1.7501 H   0  0  0  0  0  0  0  0  0  0  0  0
    2.8147   -1.5656   -0.2769 H   0  0  0  0  0  0  0  0  0  0  0  0
    2.1287    0.8358   -1.6460 H   0  0  0  0  0  0  0  0  0  0  0  0
    3.0919    0.9855   -0.0392 H   0  0  0  0  0  0  0  0  0  0  0  0
    0.6589    1.6429    0.5848 H   0  0  0  0  0  0  0  0  0  0  0  0
    0.8388   -1.0416    1.6174 H   0  0  0  0  0  0  0  0  0  0  0  0
    2.3473    0.0276    1.6959 H   0  0  0  0  0  0  0  0  0  0  0  0
  1  2  1  0
  2  3  1  0
  2  4  1  0
  4  5  1  0
  5  6  1  0
  6  7  1  0
  7  8  1  0
  8  9  1  0
  8  4  1  0
  9  6  1  0
  1 10  1  0
  1 11  1  0
  1 12  1  0
  2 13  1  0
  3 14  1  0
  3 15  1  0
  3 16  1  0
  4 17  1  0
  6 18  1  0
  7 19  1  0
  7 20  1  0
  8 21  1  0
  9 22  1  0
  9 23  1  0
M  END
