
     RDKit          3D

 23 22  0  0  0  0  0  0  0  0999 V2000
   -1.4771   -0.8328    1.2488 C   0  0  0  0  0  0  0  0  0  0  0  0
   -0.8639    0.3571    0.5487 C   0  0  0  0  0  0  0  0  0  0  0  0
   -1.9067    1.2432   -0.0895 C   0  0  0  0  0  0  0  0  0  0  0  0
    0.1672   -0.0981   -0.4311 C   0  0  0  0  0  0  0  0  0  0  0  0
   -0.4542   -1.0219   -1.4912 C   0  0  0  0  0  0  0  0  0  0  0  0
    1.1024   -0.8679    0.2333 O   0  0  0  0  0  0  0  0  0  0  0  0
    2.3760   -0.4122    0.0253 C   0  0  0  0  0  0  0  0  0  0  0  0
    2.5396    0.9642    0.4947 C   0  0  0  0  0  0  0  0  0  0  0  0
    3.6643    1.4647    0.3473 O   0  0  0  0  0  0  0  0  0  0  0  0
   -1.8075   -0.5377    2.2803 H   0  0  0  0  0  0  0  0  0  0  0  0
   -2.2657   -1.3260    0.6816 H   0  0  0  0  0  0  0  0  0  0  0  0
   -0.6489   -1.5622    1.4121 H   0  0  0  0  0  0  0  0  0  0  0  0
   -0.3810    0.9540    1.3388 H   0  0  0  0  0  0  0  0  0  0  0  0
   -2.4331    0.7271   -0.9213 H   0  0  0  0  0  0  0  0  0  0  0  0
   -2.5791    1.6397    0.6757 H   0  0  0  0  0  0  0  0  0  0  0  0
   -1.3662    2.0989   -0.5456 H   0  0  0  0  0  0  0  0  0  0  0  0
    0.6012    0.7888   -0.9475 H   0  0  0  0  0  0  0  0  0  0  0  0
    0.3773   -1.6472   -1.8796 H   0  0  0  0  0  0  0  0  0  0  0  0
   -1.2725   -1.6204   -1.0837 H   0  0  0  0  0  0  0  0  0  0  0  0
   -0.8834   -0.3790   -2.2882 H   0  0  0  0  0  0  0  0  0  0  0  0
    2.6250   -0.4042   -1.0807 H   0  0  0  0  0  0  0  0  0  0  0  0
    3.0729   -1.1294    0.5205 H   0  0  0  0  0  0  0  0  0  0  0  0
    1.8133    1.6013    0.9513 H   0  0  0  0  0  0  0  0  0  0  0  0
  1  2  1  0
  2  3  1  0
  2  4  1  0
  4  5  1  0
  4  6  1  0
  6  7  1  0
  7  8  1  0
  8  9  2  0
  1 10  1  0
  1 11  1  0
  1 12  1  0
  2 13  1  0
  3 14  1  0
  3 15  1  0
  3 16  1  0
  4 17  1  0
  5 18  1  0
  5 19  1  0
  5 20  1  0
  7 21  1  0
  7 22  1  0
  8 23  1  0
M  END
