
     RDKit          3D

 21 21  0  0  0  0  0  0  0  0999 V2000
   -1.8681   -0.4800   -0.4038 C   0  0  0  0  0  0  0  0  0  0  0  0
   -0.6996    0.4194   -0.0603 C   0  0  0  0  0  0  0  0  0  0  0  0
   -1.1587    1.4338    0.9526 C   0  0  0  0  0  0  0  0  0  0  0  0
    0.4791   -0.3897    0.4270 C   0  0  0  0  0  0  0  0  0  0  0  0
    0.2647   -1.1461    1.5466 O   0  0  0  0  0  0  0  0  0  0  0  0
    1.7749    0.3664    0.5285 C   0  0  0  0  0  0  0  0  0  0  0  0
    1.9234    0.1638   -0.9412 C   0  0  0  0  0  0  0  0  0  0  0  0
    2.4547    0.7700   -1.8377 O   0  0  0  0  0  0  0  0  0  0  0  0
    1.1226   -1.1030   -0.7462 C   0  0  0  0  0  0  0  0  0  0  0  0
   -2.3034   -0.9103    0.5270 H   0  0  0  0  0  0  0  0  0  0  0  0
   -2.6315    0.1844   -0.8964 H   0  0  0  0  0  0  0  0  0  0  0  0
   -1.5109   -1.2511   -1.1052 H   0  0  0  0  0  0  0  0  0  0  0  0
   -0.4451    0.9711   -0.9883 H   0  0  0  0  0  0  0  0  0  0  0  0
   -0.6223    2.4004    0.7877 H   0  0  0  0  0  0  0  0  0  0  0  0
   -1.1037    1.0841    1.9891 H   0  0  0  0  0  0  0  0  0  0  0  0
   -2.2355    1.6618    0.7117 H   0  0  0  0  0  0  0  0  0  0  0  0
    0.0674   -2.1004    1.3795 H   0  0  0  0  0  0  0  0  0  0  0  0
    2.5312   -0.2772    1.0468 H   0  0  0  0  0  0  0  0  0  0  0  0
    1.7193    1.4035    0.8643 H   0  0  0  0  0  0  0  0  0  0  0  0
    0.4607   -1.2601   -1.6177 H   0  0  0  0  0  0  0  0  0  0  0  0
    1.7810   -1.9408   -0.4802 H   0  0  0  0  0  0  0  0  0  0  0  0
  1  2  1  0
  2  3  1  0
  2  4  1  0
  4  5  1  0
  4  6  1  0
  6  7  1  0
  7  8  2  0
  7  9  1  0
  9  4  1  0
  1 10  1  0
  1 11  1  0
  1 12  1  0
  2 13  1  0
  3 14  1  0
  3 15  1  0
  3 16  1  0
  5 17  1  0
  6 18  1  0
  6 19  1  0
  9 20  1  0
  9 21  1  0
M  END
