
     RDKit          3D

 27 27  0  0  0  0  0  0  0  0999 V2000
   -3.2095    0.1052    0.3807 C   0  0  0  0  0  0  0  0  0  0  0  0
   -1.9479   -0.2569   -0.4026 C   0  0  0  0  0  0  0  0  0  0  0  0
   -1.6056    0.8433   -1.3809 C   0  0  0  0  0  0  0  0  0  0  0  0
   -0.8272   -0.5474    0.5369 C   0  0  0  0  0  0  0  0  0  0  0  0
    0.4186   -0.9068   -0.2026 C   0  0  0  0  0  0  0  0  0  0  0  0
    1.5654   -1.2101    0.7593 C   0  0  0  0  0  0  0  0  0  0  0  0
    2.4647   -0.2168    0.0976 C   0  0  0  0  0  0  0  0  0  0  0  0
    2.8908    0.9465    0.9642 C   0  0  0  0  0  0  0  0  0  0  0  0
    1.2613    0.1881   -0.7562 C   0  0  0  0  0  0  0  0  0  0  0  0
   -3.9082    0.6946   -0.2653 H   0  0  0  0  0  0  0  0  0  0  0  0
   -3.7565   -0.8147    0.6623 H   0  0  0  0  0  0  0  0  0  0  0  0
   -2.9408    0.7402    1.2416 H   0  0  0  0  0  0  0  0  0  0  0  0
   -2.2350   -1.1414   -1.0192 H   0  0  0  0  0  0  0  0  0  0  0  0
   -0.8110    0.4862   -2.0624 H   0  0  0  0  0  0  0  0  0  0  0  0
   -2.4995    0.9912   -2.0567 H   0  0  0  0  0  0  0  0  0  0  0  0
   -1.3489    1.8004   -0.8820 H   0  0  0  0  0  0  0  0  0  0  0  0
   -1.1112   -1.4550    1.1471 H   0  0  0  0  0  0  0  0  0  0  0  0
   -0.6639    0.3231    1.2003 H   0  0  0  0  0  0  0  0  0  0  0  0
    0.2009   -1.7454   -0.9185 H   0  0  0  0  0  0  0  0  0  0  0  0
    1.3284   -1.0086    1.8260 H   0  0  0  0  0  0  0  0  0  0  0  0
    1.8933   -2.2581    0.6205 H   0  0  0  0  0  0  0  0  0  0  0  0
    3.3122   -0.6042   -0.4645 H   0  0  0  0  0  0  0  0  0  0  0  0
    3.3314    1.7373    0.3072 H   0  0  0  0  0  0  0  0  0  0  0  0
    2.0405    1.4123    1.4924 H   0  0  0  0  0  0  0  0  0  0  0  0
    3.6792    0.6556    1.6817 H   0  0  0  0  0  0  0  0  0  0  0  0
    0.9558    1.2226   -0.6198 H   0  0  0  0  0  0  0  0  0  0  0  0
    1.5225    0.0188   -1.8310 H   0  0  0  0  0  0  0  0  0  0  0  0
  1  2  1  0
  2  3  1  0
  2  4  1  0
  4  5  1  0
  5  6  1  0
  6  7  1  0
  7  8  1  0
  7  9  1  0
  9  5  1  0
  1 10  1  0
  1 11  1  0
  1 12  1  0
  2 13  1  0
  3 14  1  0
  3 15  1  0
  3 16  1  0
  4 17  1  0
  4 18  1  0
  5 19  1  0
  6 20  1  0
  6 21  1  0
  7 22  1  0
  8 23  1  0
  8 24  1  0
  8 25  1  0
  9 26  1  0
  9 27  1  0
M  END
