
     RDKit          3D

 21 20  0  0  0  0  0  0  0  0999 V2000
    0.4703   -1.8387    0.8183 C   0  0  0  0  0  0  0  0  0  0  0  0
   -0.1503   -0.7139   -0.0219 C   0  0  0  0  0  0  0  0  0  0  0  0
   -0.7233    0.2711    0.9430 C   0  0  0  0  0  0  0  0  0  0  0  0
   -1.3690    1.4274    0.2614 C   0  0  0  0  0  0  0  0  0  0  0  0
   -2.3887    1.0291   -0.6111 O   0  0  0  0  0  0  0  0  0  0  0  0
    0.8185   -0.1590   -0.9983 C   0  0  0  0  0  0  0  0  0  0  0  0
    0.2320    0.8302   -1.7691 O   0  0  0  0  0  0  0  0  0  0  0  0
    2.0501    0.3825   -0.4123 C   0  0  0  0  0  0  0  0  0  0  0  0
    2.7255   -0.3113    0.2998 O   0  0  0  0  0  0  0  0  0  0  0  0
    1.1135   -1.4613    1.6049 H   0  0  0  0  0  0  0  0  0  0  0  0
   -0.3956   -2.3785    1.2564 H   0  0  0  0  0  0  0  0  0  0  0  0
    0.9737   -2.5113    0.1243 H   0  0  0  0  0  0  0  0  0  0  0  0
   -0.9852   -1.1931   -0.5678 H   0  0  0  0  0  0  0  0  0  0  0  0
   -1.5305   -0.2722    1.4941 H   0  0  0  0  0  0  0  0  0  0  0  0
    0.0393    0.6710    1.6554 H   0  0  0  0  0  0  0  0  0  0  0  0
   -0.7052    2.1036   -0.2916 H   0  0  0  0  0  0  0  0  0  0  0  0
   -1.8723    2.0959    1.0567 H   0  0  0  0  0  0  0  0  0  0  0  0
   -2.5827    0.0817   -0.4180 H   0  0  0  0  0  0  0  0  0  0  0  0
    1.0918   -0.9706   -1.7539 H   0  0  0  0  0  0  0  0  0  0  0  0
    0.8398    1.5342   -2.0572 H   0  0  0  0  0  0  0  0  0  0  0  0
    2.3483    1.3834   -0.6134 H   0  0  0  0  0  0  0  0  0  0  0  0
  1  2  1  0
  2  3  1  0
  3  4  1  0
  4  5  1  0
  2  6  1  0
  6  7  1  0
  6  8  1  0
  8  9  2  0
  1 10  1  0
  1 11  1  0
  1 12  1  0
  2 13  1  0
  3 14  1  0
  3 15  1  0
  4 16  1  0
  4 17  1  0
  5 18  1  0
  6 19  1  0
  7 20  1  0
  8 21  1  0
M  END
