
     RDKit          3D

 24 23  0  0  0  0  0  0  0  0999 V2000
   -2.6235   -0.5822    0.6573 C   0  0  0  0  0  0  0  0  0  0  0  0
   -1.3233    0.2544    0.7132 C   0  0  0  0  0  0  0  0  0  0  0  0
   -1.5567    1.4125   -0.2227 C   0  0  0  0  0  0  0  0  0  0  0  0
   -0.2391   -0.6804    0.3142 C   0  0  0  0  0  0  0  0  0  0  0  0
    1.1471   -0.1888    0.2792 C   0  0  0  0  0  0  0  0  0  0  0  0
    2.0313   -1.3739   -0.1593 C   0  0  0  0  0  0  0  0  0  0  0  0
    1.4755    0.8833   -0.7222 C   0  0  0  0  0  0  0  0  0  0  0  0
    2.8635    1.1246   -0.5136 O   0  0  0  0  0  0  0  0  0  0  0  0
   -2.4588   -1.5971    1.0259 H   0  0  0  0  0  0  0  0  0  0  0  0
   -3.4128   -0.0966    1.2779 H   0  0  0  0  0  0  0  0  0  0  0  0
   -2.9292   -0.6587   -0.4020 H   0  0  0  0  0  0  0  0  0  0  0  0
   -1.2577    0.5873    1.7667 H   0  0  0  0  0  0  0  0  0  0  0  0
   -2.6530    1.5402   -0.3540 H   0  0  0  0  0  0  0  0  0  0  0  0
   -1.1388    1.2034   -1.2039 H   0  0  0  0  0  0  0  0  0  0  0  0
   -1.1770    2.3720    0.1773 H   0  0  0  0  0  0  0  0  0  0  0  0
   -0.2553   -1.5144    1.0820 H   0  0  0  0  0  0  0  0  0  0  0  0
   -0.4941   -1.1688   -0.6527 H   0  0  0  0  0  0  0  0  0  0  0  0
    1.5523    0.1258    1.2618 H   0  0  0  0  0  0  0  0  0  0  0  0
    2.0158   -1.4226   -1.2672 H   0  0  0  0  0  0  0  0  0  0  0  0
    1.5821   -2.2931    0.2784 H   0  0  0  0  0  0  0  0  0  0  0  0
    3.0512   -1.1759    0.1717 H   0  0  0  0  0  0  0  0  0  0  0  0
    1.0236    1.8716   -0.4957 H   0  0  0  0  0  0  0  0  0  0  0  0
    1.3755    0.5605   -1.7559 H   0  0  0  0  0  0  0  0  0  0  0  0
    3.4013    0.8170   -1.2565 H   0  0  0  0  0  0  0  0  0  0  0  0
  1  2  1  0
  2  3  1  0
  2  4  1  0
  4  5  1  0
  5  6  1  0
  5  7  1  0
  7  8  1  0
  1  9  1  0
  1 10  1  0
  1 11  1  0
  2 12  1  0
  3 13  1  0
  3 14  1  0
  3 15  1  0
  4 16  1  0
  4 17  1  0
  5 18  1  0
  6 19  1  0
  6 20  1  0
  6 21  1  0
  7 22  1  0
  7 23  1  0
  8 24  1  0
M  END
