
     RDKit          3D

 23 23  0  0  0  0  0  0  0  0999 V2000
   -0.9898   -1.7148    0.2158 C   0  0  0  0  0  0  0  0  0  0  0  0
   -0.5095   -0.2625    0.2113 C   0  0  0  0  0  0  0  0  0  0  0  0
   -1.6920    0.6035   -0.1456 C   0  0  0  0  0  0  0  0  0  0  0  0
   -2.8002    0.4614    0.8048 C   0  0  0  0  0  0  0  0  0  0  0  0
   -3.8884   -0.0723    0.5433 O   0  0  0  0  0  0  0  0  0  0  0  0
    0.5521   -0.1709   -0.8678 C   0  0  0  0  0  0  0  0  0  0  0  0
    1.1814    1.1741   -1.0596 C   0  0  0  0  0  0  0  0  0  0  0  0
    1.9690   -0.0466   -0.5761 C   0  0  0  0  0  0  0  0  0  0  0  0
    2.5309    0.1405    0.8072 C   0  0  0  0  0  0  0  0  0  0  0  0
   -0.5539   -2.2941    1.0318 H   0  0  0  0  0  0  0  0  0  0  0  0
   -0.8309   -2.1582   -0.8061 H   0  0  0  0  0  0  0  0  0  0  0  0
   -2.1083   -1.7331    0.3577 H   0  0  0  0  0  0  0  0  0  0  0  0
   -0.1486    0.0102    1.2009 H   0  0  0  0  0  0  0  0  0  0  0  0
   -2.0990    0.3259   -1.1614 H   0  0  0  0  0  0  0  0  0  0  0  0
   -1.4133    1.6763   -0.2382 H   0  0  0  0  0  0  0  0  0  0  0  0
   -2.6237    0.8648    1.8118 H   0  0  0  0  0  0  0  0  0  0  0  0
    0.2431   -0.6475   -1.8266 H   0  0  0  0  0  0  0  0  0  0  0  0
    1.3764    1.5699   -2.0835 H   0  0  0  0  0  0  0  0  0  0  0  0
    0.9661    1.9887   -0.3113 H   0  0  0  0  0  0  0  0  0  0  0  0
    2.7031   -0.4032   -1.3143 H   0  0  0  0  0  0  0  0  0  0  0  0
    1.8001    0.6247    1.4943 H   0  0  0  0  0  0  0  0  0  0  0  0
    2.9608   -0.7976    1.2036 H   0  0  0  0  0  0  0  0  0  0  0  0
    3.3745    0.8610    0.7078 H   0  0  0  0  0  0  0  0  0  0  0  0
  1  2  1  0
  2  3  1  0
  3  4  1  0
  4  5  2  0
  2  6  1  0
  6  7  1  0
  7  8  1  0
  8  9  1  0
  8  6  1  0
  1 10  1  0
  1 11  1  0
  1 12  1  0
  2 13  1  0
  3 14  1  0
  3 15  1  0
  4 16  1  0
  6 17  1  0
  7 18  1  0
  7 19  1  0
  8 20  1  0
  9 21  1  0
  9 22  1  0
  9 23  1  0
M  END
