
     RDKit          3D

 25 26  0  0  0  0  0  0  0  0999 V2000
   -2.2941    0.2635   -1.4953 C   0  0  0  0  0  0  0  0  0  0  0  0
   -1.6837   -0.6972   -0.4701 C   0  0  0  0  0  0  0  0  0  0  0  0
   -2.2564   -0.3099    0.8763 C   0  0  0  0  0  0  0  0  0  0  0  0
   -0.1828   -0.5551   -0.5106 C   0  0  0  0  0  0  0  0  0  0  0  0
    0.4392    0.7370   -0.2172 C   0  0  0  0  0  0  0  0  0  0  0  0
    1.7972    0.9885   -0.8482 C   0  0  0  0  0  0  0  0  0  0  0  0
    2.7916    0.2883    0.0202 C   0  0  0  0  0  0  0  0  0  0  0  0
    2.0301   -0.7276    0.8302 C   0  0  0  0  0  0  0  0  0  0  0  0
    0.5818   -0.3666    0.7482 C   0  0  0  0  0  0  0  0  0  0  0  0
   -1.7890    0.2098   -2.4626 H   0  0  0  0  0  0  0  0  0  0  0  0
   -2.1223    1.2880   -1.0742 H   0  0  0  0  0  0  0  0  0  0  0  0
   -3.3857    0.0734   -1.5939 H   0  0  0  0  0  0  0  0  0  0  0  0
   -2.0055   -1.7381   -0.6715 H   0  0  0  0  0  0  0  0  0  0  0  0
   -3.3778   -0.3564    0.7480 H   0  0  0  0  0  0  0  0  0  0  0  0
   -2.0392    0.7530    1.1120 H   0  0  0  0  0  0  0  0  0  0  0  0
   -1.9226   -1.0118    1.6613 H   0  0  0  0  0  0  0  0  0  0  0  0
    0.2884   -1.2076   -1.2940 H   0  0  0  0  0  0  0  0  0  0  0  0
   -0.0965    1.6240    0.1163 H   0  0  0  0  0  0  0  0  0  0  0  0
    1.7320    0.5293   -1.8777 H   0  0  0  0  0  0  0  0  0  0  0  0
    1.9959    2.0641   -0.9832 H   0  0  0  0  0  0  0  0  0  0  0  0
    3.5617   -0.1807   -0.6312 H   0  0  0  0  0  0  0  0  0  0  0  0
    3.3119    1.0300    0.6586 H   0  0  0  0  0  0  0  0  0  0  0  0
    2.3668   -0.6098    1.8928 H   0  0  0  0  0  0  0  0  0  0  0  0
    2.2550   -1.7448    0.4716 H   0  0  0  0  0  0  0  0  0  0  0  0
    0.0040   -0.3433    1.7013 H   0  0  0  0  0  0  0  0  0  0  0  0
  1  2  1  0
  2  3  1  0
  2  4  1  0
  4  5  1  0
  5  6  1  0
  6  7  1  0
  7  8  1  0
  8  9  1  0
  9  4  1  0
  9  5  1  0
  1 10  1  0
  1 11  1  0
  1 12  1  0
  2 13  1  0
  3 14  1  0
  3 15  1  0
  3 16  1  0
  4 17  1  0
  5 18  1  0
  6 19  1  0
  6 20  1  0
  7 21  1  0
  7 22  1  0
  8 23  1  0
  8 24  1  0
  9 25  1  0
M  END
