
     RDKit          3D

 23 23  0  0  0  0  0  0  0  0999 V2000
    2.2464   -1.0930   -0.2694 C   0  0  0  0  0  0  0  0  0  0  0  0
    1.2992    0.0974   -0.1687 C   0  0  0  0  0  0  0  0  0  0  0  0
    2.1546    1.2877    0.2186 C   0  0  0  0  0  0  0  0  0  0  0  0
    0.3310   -0.1078    0.7944 O   0  0  0  0  0  0  0  0  0  0  0  0
   -0.9607   -0.0927    0.2923 C   0  0  0  0  0  0  0  0  0  0  0  0
   -1.3750    1.1849   -0.3660 C   0  0  0  0  0  0  0  0  0  0  0  0
   -2.6744    1.1542   -0.8527 O   0  0  0  0  0  0  0  0  0  0  0  0
   -2.0545   -0.6959    1.1782 C   0  0  0  0  0  0  0  0  0  0  0  0
   -1.5458   -1.3948   -0.0741 C   0  0  0  0  0  0  0  0  0  0  0  0
    1.9019   -1.8457   -0.9901 H   0  0  0  0  0  0  0  0  0  0  0  0
    2.3780   -1.4810    0.7496 H   0  0  0  0  0  0  0  0  0  0  0  0
    3.2169   -0.7118   -0.6360 H   0  0  0  0  0  0  0  0  0  0  0  0
    0.8596    0.2319   -1.1579 H   0  0  0  0  0  0  0  0  0  0  0  0
    3.1712    1.0006    0.5381 H   0  0  0  0  0  0  0  0  0  0  0  0
    2.2707    1.9224   -0.6790 H   0  0  0  0  0  0  0  0  0  0  0  0
    1.7146    1.8757    1.0447 H   0  0  0  0  0  0  0  0  0  0  0  0
   -1.3442    1.9870    0.4281 H   0  0  0  0  0  0  0  0  0  0  0  0
   -0.6983    1.5362   -1.1645 H   0  0  0  0  0  0  0  0  0  0  0  0
   -2.8900    0.3507   -1.3639 H   0  0  0  0  0  0  0  0  0  0  0  0
   -1.7218   -1.0650    2.1692 H   0  0  0  0  0  0  0  0  0  0  0  0
   -3.0858   -0.3042    1.0777 H   0  0  0  0  0  0  0  0  0  0  0  0
   -0.9518   -2.3054    0.1491 H   0  0  0  0  0  0  0  0  0  0  0  0
   -2.2419   -1.5314   -0.9175 H   0  0  0  0  0  0  0  0  0  0  0  0
  1  2  1  0
  2  3  1  0
  2  4  1  0
  4  5  1  0
  5  6  1  0
  6  7  1  0
  5  8  1  0
  8  9  1  0
  9  5  1  0
  1 10  1  0
  1 11  1  0
  1 12  1  0
  2 13  1  0
  3 14  1  0
  3 15  1  0
  3 16  1  0
  6 17  1  0
  6 18  1  0
  7 19  1  0
  8 20  1  0
  8 21  1  0
  9 22  1  0
  9 23  1  0
M  END
