
     RDKit          3D

 21 23  0  0  0  0  0  0  0  0999 V2000
    1.7332   -1.0464   -0.0614 C   0  0  0  0  0  0  0  0  0  0  0  0
    0.9500    0.1116    0.4997 C   0  0  0  0  0  0  0  0  0  0  0  0
    1.6600    1.3745    0.1285 C   0  0  0  0  0  0  0  0  0  0  0  0
   -0.4575    0.1505    0.1702 C   0  0  0  0  0  0  0  0  0  0  0  0
   -1.3386   -1.0226    0.6039 C   0  0  0  0  0  0  0  0  0  0  0  0
   -2.2549   -0.4963   -0.5176 C   0  0  0  0  0  0  0  0  0  0  0  0
   -1.9848    0.9411   -0.7026 C   0  0  0  0  0  0  0  0  0  0  0  0
   -1.0532    1.3996    0.2649 O   0  0  0  0  0  0  0  0  0  0  0  0
   -1.0144   -0.0022   -1.1588 C   0  0  0  0  0  0  0  0  0  0  0  0
    1.1959   -1.9902   -0.0767 H   0  0  0  0  0  0  0  0  0  0  0  0
    2.6446   -1.2013    0.5864 H   0  0  0  0  0  0  0  0  0  0  0  0
    2.1399   -0.7596   -1.0549 H   0  0  0  0  0  0  0  0  0  0  0  0
    1.0439    0.0193    1.6257 H   0  0  0  0  0  0  0  0  0  0  0  0
    2.7653    1.2425    0.2364 H   0  0  0  0  0  0  0  0  0  0  0  0
    1.4729    1.7007   -0.9109 H   0  0  0  0  0  0  0  0  0  0  0  0
    1.3935    2.2044    0.8311 H   0  0  0  0  0  0  0  0  0  0  0  0
   -1.7707   -0.9267    1.6058 H   0  0  0  0  0  0  0  0  0  0  0  0
   -0.9407   -1.9811    0.2905 H   0  0  0  0  0  0  0  0  0  0  0  0
   -3.0028   -1.0963   -0.9699 H   0  0  0  0  0  0  0  0  0  0  0  0
   -2.5687    1.6319   -1.2775 H   0  0  0  0  0  0  0  0  0  0  0  0
   -0.6130   -0.2534   -2.0833 H   0  0  0  0  0  0  0  0  0  0  0  0
  1  2  1  0
  2  3  1  0
  2  4  1  0
  4  5  1  0
  5  6  1  0
  6  7  1  0
  7  8  1  0
  7  9  1  0
  8  4  1  0
  9  4  1  0
  9  6  1  0
  1 10  1  0
  1 11  1  0
  1 12  1  0
  2 13  1  0
  3 14  1  0
  3 15  1  0
  3 16  1  0
  5 17  1  0
  5 18  1  0
  6 19  1  0
  7 20  1  0
  9 21  1  0
M  END
