
     RDKit          3D

 23 24  0  0  0  0  0  0  0  0999 V2000
   -1.9780   -0.8066   -1.1568 C   0  0  0  0  0  0  0  0  0  0  0  0
   -1.2930    0.3376   -0.4808 C   0  0  0  0  0  0  0  0  0  0  0  0
   -1.9324    0.6317    0.8381 C   0  0  0  0  0  0  0  0  0  0  0  0
    0.1663    0.0658   -0.4099 C   0  0  0  0  0  0  0  0  0  0  0  0
    1.0373    1.0906    0.2323 C   0  0  0  0  0  0  0  0  0  0  0  0
    2.4342    0.5427   -0.0305 C   0  0  0  0  0  0  0  0  0  0  0  0
    2.1451   -0.9150    0.3797 C   0  0  0  0  0  0  0  0  0  0  0  0
    0.6786   -0.6981    0.7622 C   0  0  0  0  0  0  0  0  0  0  0  0
    0.7215    0.5046    1.4624 O   0  0  0  0  0  0  0  0  0  0  0  0
   -2.9101   -0.4736   -1.6706 H   0  0  0  0  0  0  0  0  0  0  0  0
   -1.3071   -1.2137   -1.9404 H   0  0  0  0  0  0  0  0  0  0  0  0
   -2.1718   -1.6334   -0.4421 H   0  0  0  0  0  0  0  0  0  0  0  0
   -1.4324    1.2566   -1.1190 H   0  0  0  0  0  0  0  0  0  0  0  0
   -2.9659    1.0287    0.6133 H   0  0  0  0  0  0  0  0  0  0  0  0
   -1.4305    1.4154    1.4096 H   0  0  0  0  0  0  0  0  0  0  0  0
   -2.1308   -0.2969    1.4425 H   0  0  0  0  0  0  0  0  0  0  0  0
    0.5735   -0.2538   -1.3758 H   0  0  0  0  0  0  0  0  0  0  0  0
    0.8635    2.1278    0.0929 H   0  0  0  0  0  0  0  0  0  0  0  0
    2.6154    0.6241   -1.1059 H   0  0  0  0  0  0  0  0  0  0  0  0
    3.1973    0.9964    0.6015 H   0  0  0  0  0  0  0  0  0  0  0  0
    2.2347   -1.5895   -0.5031 H   0  0  0  0  0  0  0  0  0  0  0  0
    2.7433   -1.2196    1.2383 H   0  0  0  0  0  0  0  0  0  0  0  0
    0.1411   -1.5219    1.1622 H   0  0  0  0  0  0  0  0  0  0  0  0
  1  2  1  0
  2  3  1  0
  2  4  1  0
  4  5  1  0
  5  6  1  0
  6  7  1  0
  7  8  1  0
  8  9  1  0
  8  4  1  0
  9  5  1  0
  1 10  1  0
  1 11  1  0
  1 12  1  0
  2 13  1  0
  3 14  1  0
  3 15  1  0
  3 16  1  0
  4 17  1  0
  5 18  1  0
  6 19  1  0
  6 20  1  0
  7 21  1  0
  7 22  1  0
  8 23  1  0
M  END
