
     RDKit          3D

 23 22  0  0  0  0  0  0  0  0999 V2000
   -2.1840    1.5545   -0.5532 C   0  0  0  0  0  0  0  0  0  0  0  0
   -1.7338    0.1435   -0.2271 C   0  0  0  0  0  0  0  0  0  0  0  0
   -2.5591   -0.4060    0.9123 C   0  0  0  0  0  0  0  0  0  0  0  0
   -0.3577    0.0741    0.0162 O   0  0  0  0  0  0  0  0  0  0  0  0
    0.5418   -0.6248   -0.7851 C   0  0  0  0  0  0  0  0  0  0  0  0
    0.1049   -1.2273   -1.7800 O   0  0  0  0  0  0  0  0  0  0  0  0
    1.9709   -0.5917   -0.3781 C   0  0  0  0  0  0  0  0  0  0  0  0
    2.5272    0.8042   -0.3465 C   0  0  0  0  0  0  0  0  0  0  0  0
    2.0661   -1.2848    0.9644 C   0  0  0  0  0  0  0  0  0  0  0  0
   -2.2008    1.7395   -1.6575 H   0  0  0  0  0  0  0  0  0  0  0  0
   -3.1989    1.7458   -0.1584 H   0  0  0  0  0  0  0  0  0  0  0  0
   -1.5163    2.3165   -0.1118 H   0  0  0  0  0  0  0  0  0  0  0  0
   -1.9291   -0.4563   -1.1574 H   0  0  0  0  0  0  0  0  0  0  0  0
   -2.9981   -1.3909    0.6344 H   0  0  0  0  0  0  0  0  0  0  0  0
   -3.4375    0.2486    1.1511 H   0  0  0  0  0  0  0  0  0  0  0  0
   -1.8826   -0.5289    1.7844 H   0  0  0  0  0  0  0  0  0  0  0  0
    2.5968   -1.1667   -1.1101 H   0  0  0  0  0  0  0  0  0  0  0  0
    3.1550    1.0152   -1.2377 H   0  0  0  0  0  0  0  0  0  0  0  0
    3.1449    1.0200    0.5378 H   0  0  0  0  0  0  0  0  0  0  0  0
    1.6623    1.5071   -0.4046 H   0  0  0  0  0  0  0  0  0  0  0  0
    2.1168   -0.5741    1.8104 H   0  0  0  0  0  0  0  0  0  0  0  0
    1.1743   -1.9292    1.1358 H   0  0  0  0  0  0  0  0  0  0  0  0
    2.9367   -1.9881    0.9607 H   0  0  0  0  0  0  0  0  0  0  0  0
  1  2  1  0
  2  3  1  0
  2  4  1  0
  4  5  1  0
  5  6  2  0
  5  7  1  0
  7  8  1  0
  7  9  1  0
  1 10  1  0
  1 11  1  0
  1 12  1  0
  2 13  1  0
  3 14  1  0
  3 15  1  0
  3 16  1  0
  7 17  1  0
  8 18  1  0
  8 19  1  0
  8 20  1  0
  9 21  1  0
  9 22  1  0
  9 23  1  0
M  END
