
     RDKit          3D

 23 24  0  0  0  0  0  0  0  0999 V2000
    2.4712   -1.2501    0.3209 C   0  0  0  0  0  0  0  0  0  0  0  0
    1.2852   -0.3645    0.6082 C   0  0  0  0  0  0  0  0  0  0  0  0
    1.6461    1.0836    0.7302 C   0  0  0  0  0  0  0  0  0  0  0  0
    0.2609   -0.5336   -0.5244 C   0  0  0  0  0  0  0  0  0  0  0  0
   -0.8854    0.3640   -0.1853 C   0  0  0  0  0  0  0  0  0  0  0  0
   -2.0339    0.3734   -1.1609 C   0  0  0  0  0  0  0  0  0  0  0  0
   -2.9735    0.2371    0.0134 C   0  0  0  0  0  0  0  0  0  0  0  0
   -2.8295   -0.9311    0.7245 O   0  0  0  0  0  0  0  0  0  0  0  0
   -1.7823   -0.0584    0.9230 C   0  0  0  0  0  0  0  0  0  0  0  0
    2.2920   -2.2299    0.7999 H   0  0  0  0  0  0  0  0  0  0  0  0
    2.5191   -1.4598   -0.7799 H   0  0  0  0  0  0  0  0  0  0  0  0
    3.4143   -0.7874    0.6564 H   0  0  0  0  0  0  0  0  0  0  0  0
    0.8392   -0.6813    1.5743 H   0  0  0  0  0  0  0  0  0  0  0  0
    1.6399    1.6226   -0.2338 H   0  0  0  0  0  0  0  0  0  0  0  0
    0.9061    1.5664    1.4124 H   0  0  0  0  0  0  0  0  0  0  0  0
    2.6303    1.1946    1.2434 H   0  0  0  0  0  0  0  0  0  0  0  0
   -0.0126   -1.6041   -0.5738 H   0  0  0  0  0  0  0  0  0  0  0  0
    0.6956   -0.2038   -1.4699 H   0  0  0  0  0  0  0  0  0  0  0  0
   -0.5266    1.4012   -0.0304 H   0  0  0  0  0  0  0  0  0  0  0  0
   -2.1511    1.3156   -1.7214 H   0  0  0  0  0  0  0  0  0  0  0  0
   -2.0806   -0.5567   -1.7718 H   0  0  0  0  0  0  0  0  0  0  0  0
   -3.5795    1.0699    0.3563 H   0  0  0  0  0  0  0  0  0  0  0  0
   -1.7449    0.4325    1.9113 H   0  0  0  0  0  0  0  0  0  0  0  0
  1  2  1  0
  2  3  1  0
  2  4  1  0
  4  5  1  0
  5  6  1  0
  6  7  1  0
  7  8  1  0
  8  9  1  0
  9  5  1  0
  9  7  1  0
  1 10  1  0
  1 11  1  0
  1 12  1  0
  2 13  1  0
  3 14  1  0
  3 15  1  0
  3 16  1  0
  4 17  1  0
  4 18  1  0
  5 19  1  0
  6 20  1  0
  6 21  1  0
  7 22  1  0
  9 23  1  0
M  END
