
     RDKit          3D

 23 23  0  0  0  0  0  0  0  0999 V2000
    0.9222   -1.5439   -0.7499 C   0  0  0  0  0  0  0  0  0  0  0  0
    1.0980   -0.1016   -0.3725 C   0  0  0  0  0  0  0  0  0  0  0  0
    1.9372    0.0263    0.8537 C   0  0  0  0  0  0  0  0  0  0  0  0
   -0.2411    0.5744   -0.2670 C   0  0  0  0  0  0  0  0  0  0  0  0
   -0.1537    2.0339    0.1103 C   0  0  0  0  0  0  0  0  0  0  0  0
   -0.9843    0.3962   -1.4341 O   0  0  0  0  0  0  0  0  0  0  0  0
   -2.1137   -0.0771   -0.7787 C   0  0  0  0  0  0  0  0  0  0  0  0
   -1.2993   -0.1370    0.4976 C   0  0  0  0  0  0  0  0  0  0  0  0
   -1.0585   -1.4448    0.8504 O   0  0  0  0  0  0  0  0  0  0  0  0
    1.0902   -2.2175    0.1217 H   0  0  0  0  0  0  0  0  0  0  0  0
   -0.0606   -1.7297   -1.2438 H   0  0  0  0  0  0  0  0  0  0  0  0
    1.6886   -1.8683   -1.5123 H   0  0  0  0  0  0  0  0  0  0  0  0
    1.6407    0.4068   -1.2184 H   0  0  0  0  0  0  0  0  0  0  0  0
    1.5512    0.7210    1.6102 H   0  0  0  0  0  0  0  0  0  0  0  0
    2.0882   -1.0003    1.3008 H   0  0  0  0  0  0  0  0  0  0  0  0
    2.9856    0.3552    0.5936 H   0  0  0  0  0  0  0  0  0  0  0  0
   -0.4483    2.6983   -0.7529 H   0  0  0  0  0  0  0  0  0  0  0  0
   -0.8535    2.2844    0.9408 H   0  0  0  0  0  0  0  0  0  0  0  0
    0.8749    2.2417    0.4271 H   0  0  0  0  0  0  0  0  0  0  0  0
   -2.9604    0.6400   -0.7660 H   0  0  0  0  0  0  0  0  0  0  0  0
   -2.4150   -1.0549   -1.1945 H   0  0  0  0  0  0  0  0  0  0  0  0
   -1.8051    0.4879    1.2690 H   0  0  0  0  0  0  0  0  0  0  0  0
   -1.4834   -1.6909    1.7151 H   0  0  0  0  0  0  0  0  0  0  0  0
  1  2  1  0
  2  3  1  0
  2  4  1  0
  4  5  1  0
  4  6  1  0
  6  7  1  0
  7  8  1  0
  8  9  1  0
  8  4  1  0
  1 10  1  0
  1 11  1  0
  1 12  1  0
  2 13  1  0
  3 14  1  0
  3 15  1  0
  3 16  1  0
  5 17  1  0
  5 18  1  0
  5 19  1  0
  7 20  1  0
  7 21  1  0
  8 22  1  0
  9 23  1  0
M  END
