
     RDKit          3D

 23 24  0  0  0  0  0  0  0  0999 V2000
   -1.5967    1.3218    0.9723 C   0  0  0  0  0  0  0  0  0  0  0  0
   -0.7791    0.0575    0.8329 C   0  0  0  0  0  0  0  0  0  0  0  0
   -1.8082   -1.0750    0.6736 C   0  0  0  0  0  0  0  0  0  0  0  0
    0.0779    0.0269   -0.3706 C   0  0  0  0  0  0  0  0  0  0  0  0
   -0.6396    0.1246   -1.5862 O   0  0  0  0  0  0  0  0  0  0  0  0
    1.1742   -0.9486   -0.4930 C   0  0  0  0  0  0  0  0  0  0  0  0
    1.7217   -0.0201   -1.5561 C   0  0  0  0  0  0  0  0  0  0  0  0
    1.2923    0.9000   -0.4276 C   0  0  0  0  0  0  0  0  0  0  0  0
    1.9639   -0.0834    0.4566 C   0  0  0  0  0  0  0  0  0  0  0  0
   -1.0617    1.9742    1.6949 H   0  0  0  0  0  0  0  0  0  0  0  0
   -1.6193    1.8978    0.0114 H   0  0  0  0  0  0  0  0  0  0  0  0
   -2.5988    1.1450    1.3841 H   0  0  0  0  0  0  0  0  0  0  0  0
   -0.2753   -0.1368    1.7878 H   0  0  0  0  0  0  0  0  0  0  0  0
   -2.3211   -1.0030   -0.3145 H   0  0  0  0  0  0  0  0  0  0  0  0
   -1.2827   -2.0556    0.7825 H   0  0  0  0  0  0  0  0  0  0  0  0
   -2.6149   -0.9483    1.4366 H   0  0  0  0  0  0  0  0  0  0  0  0
   -0.8072   -0.8103   -1.9065 H   0  0  0  0  0  0  0  0  0  0  0  0
    1.1661   -1.9452   -0.5304 H   0  0  0  0  0  0  0  0  0  0  0  0
    1.0796   -0.0376   -2.4366 H   0  0  0  0  0  0  0  0  0  0  0  0
    2.8012   -0.0267   -1.6971 H   0  0  0  0  0  0  0  0  0  0  0  0
    1.3405    1.8962   -0.4355 H   0  0  0  0  0  0  0  0  0  0  0  0
    1.7222   -0.1331    1.5108 H   0  0  0  0  0  0  0  0  0  0  0  0
    3.0651   -0.1201    0.2106 H   0  0  0  0  0  0  0  0  0  0  0  0
  1  2  1  0
  2  3  1  0
  2  4  1  0
  4  5  1  0
  4  6  1  0
  6  7  1  0
  7  8  1  0
  8  9  1  0
  8  4  1  0
  9  6  1  0
  1 10  1  0
  1 11  1  0
  1 12  1  0
  2 13  1  0
  3 14  1  0
  3 15  1  0
  3 16  1  0
  5 17  1  0
  6 18  1  0
  7 19  1  0
  7 20  1  0
  8 21  1  0
  9 22  1  0
  9 23  1  0
M  END
