
     RDKit          3D

 15 14  0  0  0  0  0  0  0  0999 V2000
   -1.4888   -0.5189    1.4190 C   0  0  0  0  0  0  0  0  0  0  0  0
   -0.7703    0.3271    0.4025 C   0  0  0  0  0  0  0  0  0  0  0  0
   -1.6563    0.7140   -0.7283 C   0  0  0  0  0  0  0  0  0  0  0  0
   -2.7006    1.3108   -0.5405 O   0  0  0  0  0  0  0  0  0  0  0  0
    0.3827   -0.3538   -0.0399 O   0  0  0  0  0  0  0  0  0  0  0  0
    1.6739    0.1406    0.1948 C   0  0  0  0  0  0  0  0  0  0  0  0
    1.7194    1.2283    0.8247 O   0  0  0  0  0  0  0  0  0  0  0  0
    2.8624   -0.5619   -0.2615 C   0  0  0  0  0  0  0  0  0  0  0  0
    2.8637   -1.6436   -0.8898 O   0  0  0  0  0  0  0  0  0  0  0  0
   -2.2415   -1.1804    0.9558 H   0  0  0  0  0  0  0  0  0  0  0  0
   -0.7272   -1.1786    1.8912 H   0  0  0  0  0  0  0  0  0  0  0  0
   -1.9317    0.1366    2.2136 H   0  0  0  0  0  0  0  0  0  0  0  0
   -0.4304    1.2442    0.9212 H   0  0  0  0  0  0  0  0  0  0  0  0
   -1.3792    0.4646   -1.7617 H   0  0  0  0  0  0  0  0  0  0  0  0
    3.8239   -0.1289   -0.0492 H   0  0  0  0  0  0  0  0  0  0  0  0
  1  2  1  0
  2  3  1  0
  3  4  2  0
  2  5  1  0
  5  6  1  0
  6  7  2  0
  6  8  1  0
  8  9  2  0
  1 10  1  0
  1 11  1  0
  1 12  1  0
  2 13  1  0
  3 14  1  0
  8 15  1  0
M  END
