
     RDKit          3D

 25 25  0  0  0  0  0  0  0  0999 V2000
    1.4973   -0.6785    1.1757 C   0  0  0  0  0  0  0  0  0  0  0  0
    1.2229    0.0512   -0.1238 C   0  0  0  0  0  0  0  0  0  0  0  0
    1.5147   -0.8659   -1.2752 C   0  0  0  0  0  0  0  0  0  0  0  0
    2.1873    1.2155   -0.2035 C   0  0  0  0  0  0  0  0  0  0  0  0
   -0.0656    0.5233   -0.0901 O   0  0  0  0  0  0  0  0  0  0  0  0
   -1.0406   -0.4117    0.0468 C   0  0  0  0  0  0  0  0  0  0  0  0
   -2.2092   -0.0947   -0.8949 C   0  0  0  0  0  0  0  0  0  0  0  0
   -2.6033    0.9530    0.1514 C   0  0  0  0  0  0  0  0  0  0  0  0
   -1.9983   -0.0138    1.1760 C   0  0  0  0  0  0  0  0  0  0  0  0
    1.0053   -1.6712    1.0865 H   0  0  0  0  0  0  0  0  0  0  0  0
    2.5889   -0.7659    1.3552 H   0  0  0  0  0  0  0  0  0  0  0  0
    0.9800   -0.1150    1.9808 H   0  0  0  0  0  0  0  0  0  0  0  0
    1.5660   -0.3438   -2.2466 H   0  0  0  0  0  0  0  0  0  0  0  0
    2.5476   -1.2806   -1.0948 H   0  0  0  0  0  0  0  0  0  0  0  0
    0.8487   -1.7170   -1.3687 H   0  0  0  0  0  0  0  0  0  0  0  0
    1.7346    2.1544    0.1965 H   0  0  0  0  0  0  0  0  0  0  0  0
    2.4487    1.4443   -1.2633 H   0  0  0  0  0  0  0  0  0  0  0  0
    3.1474    0.9941    0.3176 H   0  0  0  0  0  0  0  0  0  0  0  0
   -0.7802   -1.4600    0.1222 H   0  0  0  0  0  0  0  0  0  0  0  0
   -1.8181    0.3389   -1.8226 H   0  0  0  0  0  0  0  0  0  0  0  0
   -2.9465   -0.8986   -0.9717 H   0  0  0  0  0  0  0  0  0  0  0  0
   -1.9420    1.8432    0.0686 H   0  0  0  0  0  0  0  0  0  0  0  0
   -3.6685    1.1306    0.2563 H   0  0  0  0  0  0  0  0  0  0  0  0
   -1.5066    0.4848    2.0229 H   0  0  0  0  0  0  0  0  0  0  0  0
   -2.7105   -0.8167    1.3988 H   0  0  0  0  0  0  0  0  0  0  0  0
  1  2  1  0
  2  3  1  0
  2  4  1  0
  2  5  1  0
  5  6  1  0
  6  7  1  0
  7  8  1  0
  8  9  1  0
  9  6  1  0
  1 10  1  0
  1 11  1  0
  1 12  1  0
  3 13  1  0
  3 14  1  0
  3 15  1  0
  4 16  1  0
  4 17  1  0
  4 18  1  0
  6 19  1  0
  7 20  1  0
  7 21  1  0
  8 22  1  0
  8 23  1  0
  9 24  1  0
  9 25  1  0
M  END
