
     RDKit          3D

 21 21  0  0  0  0  0  0  0  0999 V2000
   -1.3552    0.6022    1.3902 C   0  0  0  0  0  0  0  0  0  0  0  0
   -1.3124   -0.4201    0.2760 C   0  0  0  0  0  0  0  0  0  0  0  0
   -2.1491   -0.0076   -0.8836 C   0  0  0  0  0  0  0  0  0  0  0  0
   -1.7829    1.1791   -1.4631 O   0  0  0  0  0  0  0  0  0  0  0  0
    0.0883   -0.7954   -0.0955 C   0  0  0  0  0  0  0  0  0  0  0  0
    0.7317   -1.3671    1.1157 O   0  0  0  0  0  0  0  0  0  0  0  0
    1.2735   -0.1868    0.3902 C   0  0  0  0  0  0  0  0  0  0  0  0
    2.5949   -0.5891   -0.2540 C   0  0  0  0  0  0  0  0  0  0  0  0
    3.1432    0.4870   -0.9476 O   0  0  0  0  0  0  0  0  0  0  0  0
   -2.4361    0.7492    1.6360 H   0  0  0  0  0  0  0  0  0  0  0  0
   -0.7998    0.1654    2.2440 H   0  0  0  0  0  0  0  0  0  0  0  0
   -0.9104    1.5656    1.0396 H   0  0  0  0  0  0  0  0  0  0  0  0
   -1.7881   -1.3512    0.7061 H   0  0  0  0  0  0  0  0  0  0  0  0
   -3.2176    0.0389   -0.5251 H   0  0  0  0  0  0  0  0  0  0  0  0
   -2.0981   -0.8338   -1.6442 H   0  0  0  0  0  0  0  0  0  0  0  0
   -1.1698    1.0442   -2.2471 H   0  0  0  0  0  0  0  0  0  0  0  0
    0.1474   -1.4931   -0.9593 H   0  0  0  0  0  0  0  0  0  0  0  0
    1.3562    0.6274    1.0970 H   0  0  0  0  0  0  0  0  0  0  0  0
    2.4491   -1.4801   -0.9275 H   0  0  0  0  0  0  0  0  0  0  0  0
    3.3444   -0.9041    0.5039 H   0  0  0  0  0  0  0  0  0  0  0  0
    3.8908    0.9087   -0.4516 H   0  0  0  0  0  0  0  0  0  0  0  0
  1  2  1  0
  2  3  1  0
  3  4  1  0
  2  5  1  0
  5  6  1  0
  6  7  1  0
  7  8  1  0
  8  9  1  0
  7  5  1  0
  1 10  1  0
  1 11  1  0
  1 12  1  0
  2 13  1  0
  3 14  1  0
  3 15  1  0
  4 16  1  0
  5 17  1  0
  7 18  1  0
  8 19  1  0
  8 20  1  0
  9 21  1  0
M  END
