
     RDKit          3D

 23 24  0  0  0  0  0  0  0  0999 V2000
   -1.9799   -0.9272    1.1770 C   0  0  0  0  0  0  0  0  0  0  0  0
   -1.2145   -0.5481   -0.0749 C   0  0  0  0  0  0  0  0  0  0  0  0
   -2.1478    0.1511   -1.0693 C   0  0  0  0  0  0  0  0  0  0  0  0
   -0.1131    0.4126    0.2380 C   0  0  0  0  0  0  0  0  0  0  0  0
    0.6321    0.7669   -1.0564 C   0  0  0  0  0  0  0  0  0  0  0  0
    1.9030    0.6330   -0.2453 C   0  0  0  0  0  0  0  0  0  0  0  0
    2.2177   -0.7551    0.1595 C   0  0  0  0  0  0  0  0  0  0  0  0
    3.4188   -0.9163    0.8461 O   0  0  0  0  0  0  0  0  0  0  0  0
    1.1132   -0.1181    0.8746 C   0  0  0  0  0  0  0  0  0  0  0  0
   -2.4008   -0.0134    1.6113 H   0  0  0  0  0  0  0  0  0  0  0  0
   -1.2481   -1.3886    1.8670 H   0  0  0  0  0  0  0  0  0  0  0  0
   -2.7725   -1.6449    0.9059 H   0  0  0  0  0  0  0  0  0  0  0  0
   -0.7749   -1.4209   -0.5856 H   0  0  0  0  0  0  0  0  0  0  0  0
   -1.5087    0.4136   -1.9481 H   0  0  0  0  0  0  0  0  0  0  0  0
   -3.0123   -0.4522   -1.3304 H   0  0  0  0  0  0  0  0  0  0  0  0
   -2.3989    1.1288   -0.5864 H   0  0  0  0  0  0  0  0  0  0  0  0
   -0.4926    1.3629    0.6750 H   0  0  0  0  0  0  0  0  0  0  0  0
    0.5960   -0.0788   -1.7950 H   0  0  0  0  0  0  0  0  0  0  0  0
    0.4083    1.7520   -1.4559 H   0  0  0  0  0  0  0  0  0  0  0  0
    2.4340    1.5093    0.1156 H   0  0  0  0  0  0  0  0  0  0  0  0
    1.9562   -1.5442   -0.5823 H   0  0  0  0  0  0  0  0  0  0  0  0
    4.0838   -0.3402    0.3517 H   0  0  0  0  0  0  0  0  0  0  0  0
    1.3008    0.2107    1.9080 H   0  0  0  0  0  0  0  0  0  0  0  0
  1  2  1  0
  2  3  1  0
  2  4  1  0
  4  5  1  0
  5  6  1  0
  6  7  1  0
  7  8  1  0
  7  9  1  0
  9  4  1  0
  9  6  1  0
  1 10  1  0
  1 11  1  0
  1 12  1  0
  2 13  1  0
  3 14  1  0
  3 15  1  0
  3 16  1  0
  4 17  1  0
  5 18  1  0
  5 19  1  0
  6 20  1  0
  7 21  1  0
  8 22  1  0
  9 23  1  0
M  END
