
     RDKit          3D

 21 21  0  0  0  0  0  0  0  0999 V2000
   -1.2628    0.6571    1.2489 C   0  0  0  0  0  0  0  0  0  0  0  0
   -0.8627    0.0412   -0.0755 C   0  0  0  0  0  0  0  0  0  0  0  0
   -1.9133   -0.9604   -0.4628 C   0  0  0  0  0  0  0  0  0  0  0  0
   -0.8924    1.0629   -1.0194 O   0  0  0  0  0  0  0  0  0  0  0  0
    0.4978   -0.5299    0.0836 C   0  0  0  0  0  0  0  0  0  0  0  0
    1.5552    0.5116    0.4695 C   0  0  0  0  0  0  0  0  0  0  0  0
    1.2973    1.8468    0.2883 O   0  0  0  0  0  0  0  0  0  0  0  0
    1.6231   -0.2868   -0.8044 C   0  0  0  0  0  0  0  0  0  0  0  0
    2.6695   -1.2248   -0.8122 O   0  0  0  0  0  0  0  0  0  0  0  0
   -0.3345    1.0173    1.7303 H   0  0  0  0  0  0  0  0  0  0  0  0
   -1.6761   -0.1717    1.8689 H   0  0  0  0  0  0  0  0  0  0  0  0
   -1.9950    1.4714    1.0817 H   0  0  0  0  0  0  0  0  0  0  0  0
   -2.8174   -0.3810   -0.7676 H   0  0  0  0  0  0  0  0  0  0  0  0
   -1.5973   -1.6377   -1.2834 H   0  0  0  0  0  0  0  0  0  0  0  0
   -2.1783   -1.5437    0.4570 H   0  0  0  0  0  0  0  0  0  0  0  0
   -0.9205    0.6238   -1.9073 H   0  0  0  0  0  0  0  0  0  0  0  0
    0.5121   -1.4924    0.6549 H   0  0  0  0  0  0  0  0  0  0  0  0
    2.1810    0.2286    1.3352 H   0  0  0  0  0  0  0  0  0  0  0  0
    1.9541    2.1780   -0.4028 H   0  0  0  0  0  0  0  0  0  0  0  0
    1.5136    0.2453   -1.7764 H   0  0  0  0  0  0  0  0  0  0  0  0
    2.6467   -1.6557    0.0935 H   0  0  0  0  0  0  0  0  0  0  0  0
  1  2  1  0
  2  3  1  0
  2  4  1  0
  2  5  1  0
  5  6  1  0
  6  7  1  0
  6  8  1  0
  8  9  1  0
  8  5  1  0
  1 10  1  0
  1 11  1  0
  1 12  1  0
  3 13  1  0
  3 14  1  0
  3 15  1  0
  4 16  1  0
  5 17  1  0
  6 18  1  0
  7 19  1  0
  8 20  1  0
  9 21  1  0
M  END
