
     RDKit          3D

 21 20  0  0  0  0  0  0  0  0999 V2000
   -0.6364    0.6371   -1.6871 C   0  0  0  0  0  0  0  0  0  0  0  0
   -0.7528   -0.4081   -0.5879 C   0  0  0  0  0  0  0  0  0  0  0  0
   -2.2525   -0.6105   -0.3642 C   0  0  0  0  0  0  0  0  0  0  0  0
   -0.1837    0.1016    0.7132 C   0  0  0  0  0  0  0  0  0  0  0  0
   -0.3351   -0.9859    1.7480 C   0  0  0  0  0  0  0  0  0  0  0  0
    1.2222    0.4303    0.4585 C   0  0  0  0  0  0  0  0  0  0  0  0
    2.3771    0.7209    0.2536 C   0  0  0  0  0  0  0  0  0  0  0  0
    3.7513    1.0581    0.0339 C   0  0  0  0  0  0  0  0  0  0  0  0
    4.5918    1.2551    0.9418 O   0  0  0  0  0  0  0  0  0  0  0  0
   -1.2865    0.2944   -2.5105 H   0  0  0  0  0  0  0  0  0  0  0  0
   -1.1114    1.5677   -1.2805 H   0  0  0  0  0  0  0  0  0  0  0  0
    0.4017    0.8203   -1.9792 H   0  0  0  0  0  0  0  0  0  0  0  0
   -0.3424   -1.3835   -0.8952 H   0  0  0  0  0  0  0  0  0  0  0  0
   -2.4581   -1.6026    0.0687 H   0  0  0  0  0  0  0  0  0  0  0  0
   -2.8062   -0.5098   -1.3327 H   0  0  0  0  0  0  0  0  0  0  0  0
   -2.5887    0.1838    0.3570 H   0  0  0  0  0  0  0  0  0  0  0  0
   -0.7585    1.0144    0.9820 H   0  0  0  0  0  0  0  0  0  0  0  0
   -0.6659   -0.5040    2.7129 H   0  0  0  0  0  0  0  0  0  0  0  0
   -0.9640   -1.8167    1.4410 H   0  0  0  0  0  0  0  0  0  0  0  0
    0.6978   -1.4148    1.9060 H   0  0  0  0  0  0  0  0  0  0  0  0
    4.1003    1.1523   -0.9794 H   0  0  0  0  0  0  0  0  0  0  0  0
  1  2  1  0
  2  3  1  0
  2  4  1  0
  4  5  1  0
  4  6  1  0
  6  7  3  0
  7  8  1  0
  8  9  2  0
  1 10  1  0
  1 11  1  0
  1 12  1  0
  2 13  1  0
  3 14  1  0
  3 15  1  0
  3 16  1  0
  4 17  1  0
  5 18  1  0
  5 19  1  0
  5 20  1  0
  8 21  1  0
M  END
