
     RDKit          3D

 21 21  0  0  0  0  0  0  0  0999 V2000
    2.2405   -0.1054   -0.8898 C   0  0  0  0  0  0  0  0  0  0  0  0
    1.2039   -0.4071    0.1767 C   0  0  0  0  0  0  0  0  0  0  0  0
    1.9470   -0.6819    1.4487 C   0  0  0  0  0  0  0  0  0  0  0  0
    1.7951   -0.0177    2.4477 O   0  0  0  0  0  0  0  0  0  0  0  0
    0.3560    0.6617    0.2890 O   0  0  0  0  0  0  0  0  0  0  0  0
   -0.9592    0.3882   -0.0254 C   0  0  0  0  0  0  0  0  0  0  0  0
   -1.7173   -0.6568    0.7579 C   0  0  0  0  0  0  0  0  0  0  0  0
   -1.2882    0.4363   -1.4928 C   0  0  0  0  0  0  0  0  0  0  0  0
   -1.8141    1.5049   -0.5718 C   0  0  0  0  0  0  0  0  0  0  0  0
    2.7296   -1.0290   -1.2688 H   0  0  0  0  0  0  0  0  0  0  0  0
    3.0738    0.5193   -0.4763 H   0  0  0  0  0  0  0  0  0  0  0  0
    1.8209    0.4100   -1.7631 H   0  0  0  0  0  0  0  0  0  0  0  0
    0.6670   -1.3200   -0.1544 H   0  0  0  0  0  0  0  0  0  0  0  0
    2.6430   -1.5080    1.4622 H   0  0  0  0  0  0  0  0  0  0  0  0
   -1.4403   -0.5356    1.8462 H   0  0  0  0  0  0  0  0  0  0  0  0
   -2.8118   -0.4729    0.7259 H   0  0  0  0  0  0  0  0  0  0  0  0
   -1.5524   -1.6817    0.4010 H   0  0  0  0  0  0  0  0  0  0  0  0
   -0.5228    0.6827   -2.2355 H   0  0  0  0  0  0  0  0  0  0  0  0
   -2.1092   -0.2290   -1.8858 H   0  0  0  0  0  0  0  0  0  0  0  0
   -1.3727    2.5050   -0.7247 H   0  0  0  0  0  0  0  0  0  0  0  0
   -2.8888    1.5369   -0.3083 H   0  0  0  0  0  0  0  0  0  0  0  0
  1  2  1  0
  2  3  1  0
  3  4  2  0
  2  5  1  0
  5  6  1  0
  6  7  1  0
  6  8  1  0
  8  9  1  0
  9  6  1  0
  1 10  1  0
  1 11  1  0
  1 12  1  0
  2 13  1  0
  3 14  1  0
  7 15  1  0
  7 16  1  0
  7 17  1  0
  8 18  1  0
  8 19  1  0
  9 20  1  0
  9 21  1  0
M  END
