
     RDKit          3D

 19 19  0  0  0  0  0  0  0  0999 V2000
   -0.4840    2.1202   -0.4114 C   0  0  0  0  0  0  0  0  0  0  0  0
   -0.4824    0.5925   -0.4706 C   0  0  0  0  0  0  0  0  0  0  0  0
    0.9406    0.1512   -0.3115 C   0  0  0  0  0  0  0  0  0  0  0  0
    1.0865   -1.2516   -0.3480 O   0  0  0  0  0  0  0  0  0  0  0  0
    2.3610   -1.7810   -0.2108 C   0  0  0  0  0  0  0  0  0  0  0  0
    3.3339   -0.9975   -0.0598 O   0  0  0  0  0  0  0  0  0  0  0  0
   -1.3719    0.1177    0.6461 C   0  0  0  0  0  0  0  0  0  0  0  0
   -1.5671   -1.3448    0.8405 C   0  0  0  0  0  0  0  0  0  0  0  0
   -2.5279   -0.5122    0.2357 O   0  0  0  0  0  0  0  0  0  0  0  0
   -0.2728    2.4523    0.6233 H   0  0  0  0  0  0  0  0  0  0  0  0
   -1.4949    2.4295   -0.7636 H   0  0  0  0  0  0  0  0  0  0  0  0
    0.3226    2.5295   -1.0580 H   0  0  0  0  0  0  0  0  0  0  0  0
   -0.8611    0.2755   -1.4591 H   0  0  0  0  0  0  0  0  0  0  0  0
    1.5148    0.5557   -1.1709 H   0  0  0  0  0  0  0  0  0  0  0  0
    1.3416    0.5795    0.6421 H   0  0  0  0  0  0  0  0  0  0  0  0
    2.5406   -2.8651   -0.2307 H   0  0  0  0  0  0  0  0  0  0  0  0
   -1.4805    0.7525    1.5336 H   0  0  0  0  0  0  0  0  0  0  0  0
   -1.7465   -1.7217    1.8560 H   0  0  0  0  0  0  0  0  0  0  0  0
   -1.1524   -2.0822    0.1170 H   0  0  0  0  0  0  0  0  0  0  0  0
  1  2  1  0
  2  3  1  0
  3  4  1  0
  4  5  1  0
  5  6  2  0
  2  7  1  0
  7  8  1  0
  8  9  1  0
  9  7  1  0
  1 10  1  0
  1 11  1  0
  1 12  1  0
  2 13  1  0
  3 14  1  0
  3 15  1  0
  5 16  1  0
  7 17  1  0
  8 18  1  0
  8 19  1  0
M  END
