
     RDKit          3D

 29 28  0  0  0  0  0  0  0  0999 V2000
    2.3805    0.4586   -1.2037 C   0  0  0  0  0  0  0  0  0  0  0  0
    1.2226   -0.2159   -0.4329 C   0  0  0  0  0  0  0  0  0  0  0  0
    1.1241   -1.5924   -0.9411 C   0  0  0  0  0  0  0  0  0  0  0  0
    1.7402   -0.2144    1.0123 C   0  0  0  0  0  0  0  0  0  0  0  0
    0.0698    0.6734   -0.5527 C   0  0  0  0  0  0  0  0  0  0  0  0
   -1.2148    0.3455    0.0632 C   0  0  0  0  0  0  0  0  0  0  0  0
   -1.2760    0.1629    1.5343 C   0  0  0  0  0  0  0  0  0  0  0  0
   -1.8735   -0.8629   -0.5773 C   0  0  0  0  0  0  0  0  0  0  0  0
   -2.1913    1.5021   -0.2463 C   0  0  0  0  0  0  0  0  0  0  0  0
    2.3228    1.5499   -1.0915 H   0  0  0  0  0  0  0  0  0  0  0  0
    2.2693    0.1150   -2.2485 H   0  0  0  0  0  0  0  0  0  0  0  0
    3.3509    0.0849   -0.7983 H   0  0  0  0  0  0  0  0  0  0  0  0
    2.1371   -1.9289   -1.3210 H   0  0  0  0  0  0  0  0  0  0  0  0
    0.9092   -2.3609   -0.1396 H   0  0  0  0  0  0  0  0  0  0  0  0
    0.4552   -1.6978   -1.8090 H   0  0  0  0  0  0  0  0  0  0  0  0
    1.6020    0.7883    1.4499 H   0  0  0  0  0  0  0  0  0  0  0  0
    2.8352   -0.4151    0.9981 H   0  0  0  0  0  0  0  0  0  0  0  0
    1.2949   -1.0320    1.6038 H   0  0  0  0  0  0  0  0  0  0  0  0
    0.3972    1.6887   -0.1692 H   0  0  0  0  0  0  0  0  0  0  0  0
   -0.1198    0.8746   -1.6465 H   0  0  0  0  0  0  0  0  0  0  0  0
   -2.3584    0.3065    1.8403 H   0  0  0  0  0  0  0  0  0  0  0  0
   -1.0857   -0.9078    1.8468 H   0  0  0  0  0  0  0  0  0  0  0  0
   -0.7264    0.8864    2.1341 H   0  0  0  0  0  0  0  0  0  0  0  0
   -1.4133   -1.8150   -0.3080 H   0  0  0  0  0  0  0  0  0  0  0  0
   -2.9635   -0.8215   -0.3797 H   0  0  0  0  0  0  0  0  0  0  0  0
   -1.7401   -0.7463   -1.6891 H   0  0  0  0  0  0  0  0  0  0  0  0
   -3.1850    1.1706    0.1125 H   0  0  0  0  0  0  0  0  0  0  0  0
   -1.8155    2.3837    0.2758 H   0  0  0  0  0  0  0  0  0  0  0  0
   -2.1475    1.6196   -1.3475 H   0  0  0  0  0  0  0  0  0  0  0  0
  1  2  1  0
  2  3  1  0
  2  4  1  0
  2  5  1  0
  5  6  1  0
  6  7  1  0
  6  8  1  0
  6  9  1  0
  1 10  1  0
  1 11  1  0
  1 12  1  0
  3 13  1  0
  3 14  1  0
  3 15  1  0
  4 16  1  0
  4 17  1  0
  4 18  1  0
  5 19  1  0
  5 20  1  0
  7 21  1  0
  7 22  1  0
  7 23  1  0
  8 24  1  0
  8 25  1  0
  8 26  1  0
  9 27  1  0
  9 28  1  0
  9 29  1  0
M  END
