
     RDKit          3D

 21 21  0  0  0  0  0  0  0  0999 V2000
    2.0502   -0.4668    0.6034 C   0  0  0  0  0  0  0  0  0  0  0  0
    0.8102    0.3365    0.2882 C   0  0  0  0  0  0  0  0  0  0  0  0
    1.2050    1.7276   -0.0379 C   0  0  0  0  0  0  0  0  0  0  0  0
    0.8754    2.6712    0.6792 O   0  0  0  0  0  0  0  0  0  0  0  0
    0.0144   -0.2260   -0.8413 C   0  0  0  0  0  0  0  0  0  0  0  0
   -0.5149   -1.6093   -0.6924 C   0  0  0  0  0  0  0  0  0  0  0  0
   -1.7811   -1.1921   -1.1506 O   0  0  0  0  0  0  0  0  0  0  0  0
   -1.4388    0.0909   -0.7309 C   0  0  0  0  0  0  0  0  0  0  0  0
   -1.9648    0.3578    0.6577 C   0  0  0  0  0  0  0  0  0  0  0  0
    1.7295   -1.3708    1.1622 H   0  0  0  0  0  0  0  0  0  0  0  0
    2.6818    0.1895    1.2665 H   0  0  0  0  0  0  0  0  0  0  0  0
    2.6617   -0.6964   -0.2799 H   0  0  0  0  0  0  0  0  0  0  0  0
    0.1981    0.3564    1.2084 H   0  0  0  0  0  0  0  0  0  0  0  0
    1.7976    1.9773   -0.9160 H   0  0  0  0  0  0  0  0  0  0  0  0
    0.4161   -0.0242   -1.8521 H   0  0  0  0  0  0  0  0  0  0  0  0
   -0.5731   -1.9600    0.3587 H   0  0  0  0  0  0  0  0  0  0  0  0
    0.0005   -2.3271   -1.3352 H   0  0  0  0  0  0  0  0  0  0  0  0
   -1.7563    0.9121   -1.4057 H   0  0  0  0  0  0  0  0  0  0  0  0
   -1.6023    1.3072    1.0810 H   0  0  0  0  0  0  0  0  0  0  0  0
   -3.0892    0.3930    0.5613 H   0  0  0  0  0  0  0  0  0  0  0  0
   -1.7199   -0.4467    1.3752 H   0  0  0  0  0  0  0  0  0  0  0  0
  1  2  1  0
  2  3  1  0
  3  4  2  0
  2  5  1  0
  5  6  1  0
  6  7  1  0
  7  8  1  0
  8  9  1  0
  8  5  1  0
  1 10  1  0
  1 11  1  0
  1 12  1  0
  2 13  1  0
  3 14  1  0
  5 15  1  0
  6 16  1  0
  6 17  1  0
  8 18  1  0
  9 19  1  0
  9 20  1  0
  9 21  1  0
M  END
