
     RDKit          3D

 27 26  0  0  0  0  0  0  0  0999 V2000
    2.0281   -0.6024   -0.7627 C   0  0  0  0  0  0  0  0  0  0  0  0
    1.5318    0.2143    0.3747 C   0  0  0  0  0  0  0  0  0  0  0  0
    2.3849    1.4976    0.3879 C   0  0  0  0  0  0  0  0  0  0  0  0
    0.1236    0.6510    0.3513 C   0  0  0  0  0  0  0  0  0  0  0  0
   -0.9494   -0.3600    0.3199 C   0  0  0  0  0  0  0  0  0  0  0  0
   -0.9219   -1.2769   -0.8787 C   0  0  0  0  0  0  0  0  0  0  0  0
   -1.0561   -1.1839    1.5835 C   0  0  0  0  0  0  0  0  0  0  0  0
   -2.2785    0.4104    0.2136 C   0  0  0  0  0  0  0  0  0  0  0  0
   -2.3110    1.1782   -0.9360 O   0  0  0  0  0  0  0  0  0  0  0  0
    3.0846   -0.3192   -1.0669 H   0  0  0  0  0  0  0  0  0  0  0  0
    2.1449   -1.6873   -0.4883 H   0  0  0  0  0  0  0  0  0  0  0  0
    1.4648   -0.5565   -1.6907 H   0  0  0  0  0  0  0  0  0  0  0  0
    1.8152   -0.2816    1.3538 H   0  0  0  0  0  0  0  0  0  0  0  0
    2.0354    2.1965   -0.3960 H   0  0  0  0  0  0  0  0  0  0  0  0
    3.4465    1.2622    0.1640 H   0  0  0  0  0  0  0  0  0  0  0  0
    2.2789    2.0166    1.3525 H   0  0  0  0  0  0  0  0  0  0  0  0
   -0.0060    1.3372   -0.5217 H   0  0  0  0  0  0  0  0  0  0  0  0
   -0.0128    1.3356    1.2394 H   0  0  0  0  0  0  0  0  0  0  0  0
   -1.9176   -1.8202   -0.9039 H   0  0  0  0  0  0  0  0  0  0  0  0
   -0.1825   -2.0699   -0.8412 H   0  0  0  0  0  0  0  0  0  0  0  0
   -0.9154   -0.6416   -1.7876 H   0  0  0  0  0  0  0  0  0  0  0  0
   -1.7711   -2.0095    1.3733 H   0  0  0  0  0  0  0  0  0  0  0  0
   -0.1019   -1.5266    1.9731 H   0  0  0  0  0  0  0  0  0  0  0  0
   -1.5595   -0.5328    2.3547 H   0  0  0  0  0  0  0  0  0  0  0  0
   -3.1354   -0.2980    0.1976 H   0  0  0  0  0  0  0  0  0  0  0  0
   -2.4188    1.0555    1.0966 H   0  0  0  0  0  0  0  0  0  0  0  0
   -2.8011    2.0114   -0.7310 H   0  0  0  0  0  0  0  0  0  0  0  0
  1  2  1  0
  2  3  1  0
  2  4  1  0
  4  5  1  0
  5  6  1  0
  5  7  1  0
  5  8  1  0
  8  9  1  0
  1 10  1  0
  1 11  1  0
  1 12  1  0
  2 13  1  0
  3 14  1  0
  3 15  1  0
  3 16  1  0
  4 17  1  0
  4 18  1  0
  6 19  1  0
  6 20  1  0
  6 21  1  0
  7 22  1  0
  7 23  1  0
  7 24  1  0
  8 25  1  0
  8 26  1  0
  9 27  1  0
M  END
