
     RDKit          3D

 23 24  0  0  0  0  0  0  0  0999 V2000
   -2.3489   -1.1836    0.2996 C   0  0  0  0  0  0  0  0  0  0  0  0
   -1.3014   -0.0993    0.0390 C   0  0  0  0  0  0  0  0  0  0  0  0
   -1.7604    1.1828    0.7020 C   0  0  0  0  0  0  0  0  0  0  0  0
   -0.0559   -0.4839    0.4844 O   0  0  0  0  0  0  0  0  0  0  0  0
    0.8211   -0.5030   -0.6056 C   0  0  0  0  0  0  0  0  0  0  0  0
    2.1376   -1.0594   -0.0759 C   0  0  0  0  0  0  0  0  0  0  0  0
    2.1103    0.2569    0.6926 C   0  0  0  0  0  0  0  0  0  0  0  0
    1.8298    0.7275   -0.7038 C   0  0  0  0  0  0  0  0  0  0  0  0
    0.6300    0.6164   -1.4658 C   0  0  0  0  0  0  0  0  0  0  0  0
   -2.2805   -1.9424   -0.5221 H   0  0  0  0  0  0  0  0  0  0  0  0
   -2.2546   -1.6228    1.2974 H   0  0  0  0  0  0  0  0  0  0  0  0
   -3.3407   -0.6966    0.1992 H   0  0  0  0  0  0  0  0  0  0  0  0
   -1.2988    0.0379   -1.0511 H   0  0  0  0  0  0  0  0  0  0  0  0
   -0.9077    1.8075    0.9767 H   0  0  0  0  0  0  0  0  0  0  0  0
   -2.3670    0.8654    1.5969 H   0  0  0  0  0  0  0  0  0  0  0  0
   -2.3882    1.7353   -0.0229 H   0  0  0  0  0  0  0  0  0  0  0  0
    2.9826   -1.0534   -0.7673 H   0  0  0  0  0  0  0  0  0  0  0  0
    2.0187   -1.9099    0.5878 H   0  0  0  0  0  0  0  0  0  0  0  0
    1.3511    0.3763    1.4512 H   0  0  0  0  0  0  0  0  0  0  0  0
    3.1035    0.5750    1.0594 H   0  0  0  0  0  0  0  0  0  0  0  0
    2.7558    0.4939   -1.3208 H   0  0  0  0  0  0  0  0  0  0  0  0
    0.6340    0.3871   -2.5755 H   0  0  0  0  0  0  0  0  0  0  0  0
   -0.0705    1.4923   -1.3034 H   0  0  0  0  0  0  0  0  0  0  0  0
  1  2  1  0
  2  3  1  0
  2  4  1  0
  4  5  1  0
  5  6  1  0
  6  7  1  0
  7  8  1  0
  8  9  1  0
  8  5  1  0
  9  5  1  0
  1 10  1  0
  1 11  1  0
  1 12  1  0
  2 13  1  0
  3 14  1  0
  3 15  1  0
  3 16  1  0
  6 17  1  0
  6 18  1  0
  7 19  1  0
  7 20  1  0
  8 21  1  0
  9 22  1  0
  9 23  1  0
M  END
