
     RDKit          3D

 20 19  0  0  0  0  0  0  0  0999 V2000
   -1.7477   -0.9171   -0.6113 C   0  0  0  0  0  0  0  0  0  0  0  0
   -1.1945    0.0133    0.4127 C   0  0  0  0  0  0  0  0  0  0  0  0
   -1.9753    1.3197    0.3275 C   0  0  0  0  0  0  0  0  0  0  0  0
    0.2495    0.3355    0.2417 C   0  0  0  0  0  0  0  0  0  0  0  0
    1.1550   -0.8006    0.2957 C   0  0  0  0  0  0  0  0  0  0  0  0
    0.7397   -1.9194    0.4683 O   0  0  0  0  0  0  0  0  0  0  0  0
    2.6096   -0.6076    0.1395 C   0  0  0  0  0  0  0  0  0  0  0  0
    2.9462    0.7344   -0.0526 O   0  0  0  0  0  0  0  0  0  0  0  0
   -1.5911   -0.5109   -1.6379 H   0  0  0  0  0  0  0  0  0  0  0  0
   -1.3936   -1.9579   -0.5178 H   0  0  0  0  0  0  0  0  0  0  0  0
   -2.8589   -0.9504   -0.4670 H   0  0  0  0  0  0  0  0  0  0  0  0
   -1.3693   -0.4061    1.4216 H   0  0  0  0  0  0  0  0  0  0  0  0
   -1.3978    2.1132   -0.1865 H   0  0  0  0  0  0  0  0  0  0  0  0
   -2.2261    1.7157    1.3328 H   0  0  0  0  0  0  0  0  0  0  0  0
   -2.9252    1.1920   -0.2309 H   0  0  0  0  0  0  0  0  0  0  0  0
    0.4964    1.1422    0.9896 H   0  0  0  0  0  0  0  0  0  0  0  0
    0.3529    0.8596   -0.7536 H   0  0  0  0  0  0  0  0  0  0  0  0
    3.0243   -1.1645   -0.7333 H   0  0  0  0  0  0  0  0  0  0  0  0
    3.1524   -0.9380    1.0701 H   0  0  0  0  0  0  0  0  0  0  0  0
    3.9535    0.7469   -0.0790 H   0  0  0  0  0  0  0  0  0  0  0  0
  1  2  1  0
  2  3  1  0
  2  4  1  0
  4  5  1  0
  5  6  2  0
  5  7  1  0
  7  8  1  0
  1  9  1  0
  1 10  1  0
  1 11  1  0
  2 12  1  0
  3 13  1  0
  3 14  1  0
  3 15  1  0
  4 16  1  0
  4 17  1  0
  7 18  1  0
  7 19  1  0
  8 20  1  0
M  END
