
     RDKit          3D

 22 22  0  0  0  0  0  0  0  0999 V2000
   -2.1943    0.4791    0.9294 C   0  0  0  0  0  0  0  0  0  0  0  0
   -1.3365    0.1460   -0.2401 C   0  0  0  0  0  0  0  0  0  0  0  0
   -1.8539   -1.1646   -0.8367 C   0  0  0  0  0  0  0  0  0  0  0  0
    0.1097   -0.0841    0.1154 C   0  0  0  0  0  0  0  0  0  0  0  0
    0.9725   -0.4273   -1.1174 C   0  0  0  0  0  0  0  0  0  0  0  0
    1.1800    0.8275   -0.3173 C   0  0  0  0  0  0  0  0  0  0  0  0
    2.4462    0.8752    0.5001 C   0  0  0  0  0  0  0  0  0  0  0  0
    3.0104   -0.3959    0.5033 O   0  0  0  0  0  0  0  0  0  0  0  0
   -1.7534    1.2223    1.6232 H   0  0  0  0  0  0  0  0  0  0  0  0
   -3.1566    0.9005    0.5513 H   0  0  0  0  0  0  0  0  0  0  0  0
   -2.4573   -0.4733    1.4528 H   0  0  0  0  0  0  0  0  0  0  0  0
   -1.4449    0.9318   -1.0162 H   0  0  0  0  0  0  0  0  0  0  0  0
   -1.3902   -2.0348   -0.2933 H   0  0  0  0  0  0  0  0  0  0  0  0
   -2.9378   -1.2697   -0.7016 H   0  0  0  0  0  0  0  0  0  0  0  0
   -1.5540   -1.2611   -1.8836 H   0  0  0  0  0  0  0  0  0  0  0  0
    0.2912   -0.6657    1.0404 H   0  0  0  0  0  0  0  0  0  0  0  0
    0.5369   -0.3205   -2.1093 H   0  0  0  0  0  0  0  0  0  0  0  0
    1.6697   -1.2984   -0.9415 H   0  0  0  0  0  0  0  0  0  0  0  0
    0.9609    1.7939   -0.8241 H   0  0  0  0  0  0  0  0  0  0  0  0
    3.1562    1.6459    0.1319 H   0  0  0  0  0  0  0  0  0  0  0  0
    2.1588    1.0792    1.5727 H   0  0  0  0  0  0  0  0  0  0  0  0
    3.5863   -0.5059   -0.2842 H   0  0  0  0  0  0  0  0  0  0  0  0
  1  2  1  0
  2  3  1  0
  2  4  1  0
  4  5  1  0
  5  6  1  0
  6  7  1  0
  7  8  1  0
  6  4  1  0
  1  9  1  0
  1 10  1  0
  1 11  1  0
  2 12  1  0
  3 13  1  0
  3 14  1  0
  3 15  1  0
  4 16  1  0
  5 17  1  0
  5 18  1  0
  6 19  1  0
  7 20  1  0
  7 21  1  0
  8 22  1  0
M  END
