
     RDKit          3D

 21 21  0  0  0  0  0  0  0  0999 V2000
   -0.8121   -1.4852   -0.3817 C   0  0  0  0  0  0  0  0  0  0  0  0
   -0.5564   -0.0420    0.0533 C   0  0  0  0  0  0  0  0  0  0  0  0
   -1.5187    0.2466    1.1974 C   0  0  0  0  0  0  0  0  0  0  0  0
   -0.8292    0.8466   -1.1028 C   0  0  0  0  0  0  0  0  0  0  0  0
    0.8244    0.0237    0.6028 C   0  0  0  0  0  0  0  0  0  0  0  0
    1.9921   -0.3468   -0.2902 C   0  0  0  0  0  0  0  0  0  0  0  0
    1.8080    1.0446    0.2259 C   0  0  0  0  0  0  0  0  0  0  0  0
   -1.4699   -2.0141    0.3337 H   0  0  0  0  0  0  0  0  0  0  0  0
   -1.2731   -1.5159   -1.3899 H   0  0  0  0  0  0  0  0  0  0  0  0
    0.1543   -2.0636   -0.4222 H   0  0  0  0  0  0  0  0  0  0  0  0
   -1.0896   -0.3034    2.0838 H   0  0  0  0  0  0  0  0  0  0  0  0
   -2.5259   -0.1226    1.0170 H   0  0  0  0  0  0  0  0  0  0  0  0
   -1.4533    1.3135    1.4544 H   0  0  0  0  0  0  0  0  0  0  0  0
   -0.6471    0.3166   -2.0751 H   0  0  0  0  0  0  0  0  0  0  0  0
   -1.9404    1.0528   -1.1129 H   0  0  0  0  0  0  0  0  0  0  0  0
   -0.3313    1.8114   -1.0990 H   0  0  0  0  0  0  0  0  0  0  0  0
    0.9149   -0.4013    1.6422 H   0  0  0  0  0  0  0  0  0  0  0  0
    2.7865   -1.0049    0.1183 H   0  0  0  0  0  0  0  0  0  0  0  0
    1.7855   -0.5529   -1.3647 H   0  0  0  0  0  0  0  0  0  0  0  0
    1.6164    1.8503   -0.4936 H   0  0  0  0  0  0  0  0  0  0  0  0
    2.5648    1.3468    1.0031 H   0  0  0  0  0  0  0  0  0  0  0  0
  1  2  1  0
  2  3  1  0
  2  4  1  0
  2  5  1  0
  5  6  1  0
  6  7  1  0
  7  5  1  0
  1  8  1  0
  1  9  1  0
  1 10  1  0
  3 11  1  0
  3 12  1  0
  3 13  1  0
  4 14  1  0
  4 15  1  0
  4 16  1  0
  5 17  1  0
  6 18  1  0
  6 19  1  0
  7 20  1  0
  7 21  1  0
M  END
