
     RDKit          3D

 21 21  0  0  0  0  0  0  0  0999 V2000
    2.5997    1.2648    0.0345 C   0  0  0  0  0  0  0  0  0  0  0  0
    1.7518    0.0389    0.2475 C   0  0  0  0  0  0  0  0  0  0  0  0
    2.4617   -1.2260   -0.1535 C   0  0  0  0  0  0  0  0  0  0  0  0
    0.5318    0.0925   -0.4573 O   0  0  0  0  0  0  0  0  0  0  0  0
   -0.6970    0.0650    0.1767 C   0  0  0  0  0  0  0  0  0  0  0  0
   -0.7174   -0.0107    1.4287 O   0  0  0  0  0  0  0  0  0  0  0  0
   -2.0115    0.1179   -0.5009 C   0  0  0  0  0  0  0  0  0  0  0  0
   -3.0560   -0.8238    0.1000 C   0  0  0  0  0  0  0  0  0  0  0  0
   -3.2077    0.6594    0.1783 C   0  0  0  0  0  0  0  0  0  0  0  0
    3.4155    1.2807    0.7602 H   0  0  0  0  0  0  0  0  0  0  0  0
    3.0298    1.2061   -0.9910 H   0  0  0  0  0  0  0  0  0  0  0  0
    1.9476    2.1586    0.1700 H   0  0  0  0  0  0  0  0  0  0  0  0
    1.5104   -0.0237    1.3182 H   0  0  0  0  0  0  0  0  0  0  0  0
    3.3902   -1.2829    0.4512 H   0  0  0  0  0  0  0  0  0  0  0  0
    1.7950   -2.0778    0.0904 H   0  0  0  0  0  0  0  0  0  0  0  0
    2.7501   -1.1779   -1.2162 H   0  0  0  0  0  0  0  0  0  0  0  0
   -1.9609    0.1833   -1.6031 H   0  0  0  0  0  0  0  0  0  0  0  0
   -3.6711   -1.4235   -0.6105 H   0  0  0  0  0  0  0  0  0  0  0  0
   -2.8161   -1.3419    1.0401 H   0  0  0  0  0  0  0  0  0  0  0  0
   -3.1169    1.1238    1.1885 H   0  0  0  0  0  0  0  0  0  0  0  0
   -3.9290    1.1974   -0.4725 H   0  0  0  0  0  0  0  0  0  0  0  0
  1  2  1  0
  2  3  1  0
  2  4  1  0
  4  5  1  0
  5  6  2  0
  5  7  1  0
  7  8  1  0
  8  9  1  0
  9  7  1  0
  1 10  1  0
  1 11  1  0
  1 12  1  0
  2 13  1  0
  3 14  1  0
  3 15  1  0
  3 16  1  0
  7 17  1  0
  8 18  1  0
  8 19  1  0
  9 20  1  0
  9 21  1  0
M  END
