
     RDKit          3D

 21 20  0  0  0  0  0  0  0  0999 V2000
   -1.9064    1.2387   -0.1595 C   0  0  0  0  0  0  0  0  0  0  0  0
   -1.1019   -0.0394   -0.4093 C   0  0  0  0  0  0  0  0  0  0  0  0
   -2.0454   -1.2058   -0.2308 C   0  0  0  0  0  0  0  0  0  0  0  0
   -0.0646   -0.0372    0.4944 O   0  0  0  0  0  0  0  0  0  0  0  0
    1.1408    0.0026   -0.1847 C   0  0  0  0  0  0  0  0  0  0  0  0
    1.9470    1.2412    0.1413 C   0  0  0  0  0  0  0  0  0  0  0  0
    1.9482   -1.2422    0.1098 C   0  0  0  0  0  0  0  0  0  0  0  0
   -1.3752    2.0834   -0.6595 H   0  0  0  0  0  0  0  0  0  0  0  0
   -2.0331    1.3925    0.9180 H   0  0  0  0  0  0  0  0  0  0  0  0
   -2.8873    1.0994   -0.6378 H   0  0  0  0  0  0  0  0  0  0  0  0
   -0.6755   -0.0086   -1.4297 H   0  0  0  0  0  0  0  0  0  0  0  0
   -2.2349   -1.6292   -1.2454 H   0  0  0  0  0  0  0  0  0  0  0  0
   -3.0402   -0.8790    0.1459 H   0  0  0  0  0  0  0  0  0  0  0  0
   -1.6574   -1.9971    0.4043 H   0  0  0  0  0  0  0  0  0  0  0  0
    0.9990    0.0238   -1.3050 H   0  0  0  0  0  0  0  0  0  0  0  0
    3.0082    0.9895   -0.0589 H   0  0  0  0  0  0  0  0  0  0  0  0
    1.6758    2.0745   -0.5716 H   0  0  0  0  0  0  0  0  0  0  0  0
    1.7558    1.6325    1.1426 H   0  0  0  0  0  0  0  0  0  0  0  0
    2.9326   -0.9758    0.5520 H   0  0  0  0  0  0  0  0  0  0  0  0
    2.1789   -1.8306   -0.8057 H   0  0  0  0  0  0  0  0  0  0  0  0
    1.4355   -1.9331    0.8060 H   0  0  0  0  0  0  0  0  0  0  0  0
  1  2  1  0
  2  3  1  0
  2  4  1  0
  4  5  1  0
  5  6  1  0
  5  7  1  0
  1  8  1  0
  1  9  1  0
  1 10  1  0
  2 11  1  0
  3 12  1  0
  3 13  1  0
  3 14  1  0
  5 15  1  0
  6 16  1  0
  6 17  1  0
  6 18  1  0
  7 19  1  0
  7 20  1  0
  7 21  1  0
M  END
