
     RDKit          3D

 23 23  0  0  0  0  0  0  0  0999 V2000
   -2.2014    1.1185   -0.1707 C   0  0  0  0  0  0  0  0  0  0  0  0
   -1.9194   -0.3608   -0.2419 C   0  0  0  0  0  0  0  0  0  0  0  0
   -2.2391   -0.9875    1.0954 C   0  0  0  0  0  0  0  0  0  0  0  0
   -0.4897   -0.6118   -0.6538 C   0  0  0  0  0  0  0  0  0  0  0  0
    0.4061   -0.0382    0.2700 O   0  0  0  0  0  0  0  0  0  0  0  0
    1.7049   -0.2673   -0.1055 C   0  0  0  0  0  0  0  0  0  0  0  0
    2.7629   -0.5798    0.9156 C   0  0  0  0  0  0  0  0  0  0  0  0
    2.7806    0.7246    0.1289 C   0  0  0  0  0  0  0  0  0  0  0  0
    2.5819    1.8440    0.9139 O   0  0  0  0  0  0  0  0  0  0  0  0
   -2.0387    1.6399   -1.1118 H   0  0  0  0  0  0  0  0  0  0  0  0
   -3.2665    1.2662    0.1130 H   0  0  0  0  0  0  0  0  0  0  0  0
   -1.5907    1.5724    0.6235 H   0  0  0  0  0  0  0  0  0  0  0  0
   -2.5781   -0.8348   -0.9863 H   0  0  0  0  0  0  0  0  0  0  0  0
   -3.0990   -0.3977    1.5222 H   0  0  0  0  0  0  0  0  0  0  0  0
   -1.4061   -0.9216    1.8165 H   0  0  0  0  0  0  0  0  0  0  0  0
   -2.5210   -2.0519    0.9642 H   0  0  0  0  0  0  0  0  0  0  0  0
   -0.2729   -0.1538   -1.6392 H   0  0  0  0  0  0  0  0  0  0  0  0
   -0.3237   -1.7038   -0.7540 H   0  0  0  0  0  0  0  0  0  0  0  0
    1.8287   -0.8569   -1.0593 H   0  0  0  0  0  0  0  0  0  0  0  0
    2.4996   -0.5471    1.9933 H   0  0  0  0  0  0  0  0  0  0  0  0
    3.5610   -1.3254    0.6620 H   0  0  0  0  0  0  0  0  0  0  0  0
    3.5826    0.8571   -0.6310 H   0  0  0  0  0  0  0  0  0  0  0  0
    2.2380    2.6157    0.4134 H   0  0  0  0  0  0  0  0  0  0  0  0
  1  2  1  0
  2  3  1  0
  2  4  1  0
  4  5  1  0
  5  6  1  0
  6  7  1  0
  7  8  1  0
  8  9  1  0
  8  6  1  0
  1 10  1  0
  1 11  1  0
  1 12  1  0
  2 13  1  0
  3 14  1  0
  3 15  1  0
  3 16  1  0
  4 17  1  0
  4 18  1  0
  6 19  1  0
  7 20  1  0
  7 21  1  0
  8 22  1  0
  9 23  1  0
M  END
