
     RDKit          3D

 21 20  0  0  0  0  0  0  0  0999 V2000
   -0.8195   -0.8081   -1.3070 C   0  0  0  0  0  0  0  0  0  0  0  0
   -0.2565   -0.3250    0.0039 C   0  0  0  0  0  0  0  0  0  0  0  0
   -0.5391   -1.2666    1.1414 C   0  0  0  0  0  0  0  0  0  0  0  0
   -0.8877    1.0069    0.3716 C   0  0  0  0  0  0  0  0  0  0  0  0
   -0.6436    1.9753   -0.5841 O   0  0  0  0  0  0  0  0  0  0  0  0
    1.2184   -0.0909   -0.2114 C   0  0  0  0  0  0  0  0  0  0  0  0
    1.3145    0.8738   -1.2160 O   0  0  0  0  0  0  0  0  0  0  0  0
    1.9622    0.2801    0.9735 C   0  0  0  0  0  0  0  0  0  0  0  0
    2.5785    1.3228    1.0277 O   0  0  0  0  0  0  0  0  0  0  0  0
   -1.7301   -1.4161   -1.1935 H   0  0  0  0  0  0  0  0  0  0  0  0
   -1.0624    0.1080   -1.9006 H   0  0  0  0  0  0  0  0  0  0  0  0
   -0.0339   -1.3473   -1.8986 H   0  0  0  0  0  0  0  0  0  0  0  0
   -0.1825   -0.7552    2.0727 H   0  0  0  0  0  0  0  0  0  0  0  0
   -0.0694   -2.2552    1.0247 H   0  0  0  0  0  0  0  0  0  0  0  0
   -1.6425   -1.3260    1.2470 H   0  0  0  0  0  0  0  0  0  0  0  0
   -2.0043    0.9024    0.4625 H   0  0  0  0  0  0  0  0  0  0  0  0
   -0.4643    1.2775    1.3690 H   0  0  0  0  0  0  0  0  0  0  0  0
   -1.3674    2.6472   -0.5123 H   0  0  0  0  0  0  0  0  0  0  0  0
    1.6827   -1.0214   -0.6551 H   0  0  0  0  0  0  0  0  0  0  0  0
    0.9488    0.5659   -2.0618 H   0  0  0  0  0  0  0  0  0  0  0  0
    1.9983   -0.3481    1.8463 H   0  0  0  0  0  0  0  0  0  0  0  0
  1  2  1  0
  2  3  1  0
  2  4  1  0
  4  5  1  0
  2  6  1  0
  6  7  1  0
  6  8  1  0
  8  9  2  0
  1 10  1  0
  1 11  1  0
  1 12  1  0
  3 13  1  0
  3 14  1  0
  3 15  1  0
  4 16  1  0
  4 17  1  0
  5 18  1  0
  6 19  1  0
  7 20  1  0
  8 21  1  0
M  END
