
     RDKit          3D

 21 22  0  0  0  0  0  0  0  0999 V2000
   -1.2190   -1.2979    0.0181 C   0  0  0  0  0  0  0  0  0  0  0  0
   -0.6694   -0.0022    0.5298 C   0  0  0  0  0  0  0  0  0  0  0  0
   -1.7785    0.9765    0.7223 C   0  0  0  0  0  0  0  0  0  0  0  0
    0.4721    0.5371   -0.2860 C   0  0  0  0  0  0  0  0  0  0  0  0
    1.7252   -0.2510   -0.4538 C   0  0  0  0  0  0  0  0  0  0  0  0
    1.9795   -1.5385    0.1861 C   0  0  0  0  0  0  0  0  0  0  0  0
    1.7370   -1.3994   -1.2459 O   0  0  0  0  0  0  0  0  0  0  0  0
    0.4670    1.9800   -0.7066 C   0  0  0  0  0  0  0  0  0  0  0  0
   -0.0693    1.0650   -1.5813 O   0  0  0  0  0  0  0  0  0  0  0  0
   -2.3172   -1.1966   -0.2172 H   0  0  0  0  0  0  0  0  0  0  0  0
   -0.7455   -1.6200   -0.9411 H   0  0  0  0  0  0  0  0  0  0  0  0
   -1.1804   -2.1227    0.7775 H   0  0  0  0  0  0  0  0  0  0  0  0
   -0.2452   -0.2189    1.5542 H   0  0  0  0  0  0  0  0  0  0  0  0
   -2.6588    0.4002    1.1288 H   0  0  0  0  0  0  0  0  0  0  0  0
   -1.5058    1.7269    1.4802 H   0  0  0  0  0  0  0  0  0  0  0  0
   -2.1101    1.4696   -0.2080 H   0  0  0  0  0  0  0  0  0  0  0  0
    2.6356    0.3881   -0.6346 H   0  0  0  0  0  0  0  0  0  0  0  0
    3.0216   -1.8260    0.4351 H   0  0  0  0  0  0  0  0  0  0  0  0
    1.2154   -2.1692    0.6329 H   0  0  0  0  0  0  0  0  0  0  0  0
    1.4381    2.4046   -1.0256 H   0  0  0  0  0  0  0  0  0  0  0  0
   -0.1922    2.6944   -0.1651 H   0  0  0  0  0  0  0  0  0  0  0  0
  1  2  1  0
  2  3  1  0
  2  4  1  0
  4  5  1  0
  5  6  1  0
  6  7  1  0
  4  8  1  0
  8  9  1  0
  9  4  1  0
  7  5  1  0
  1 10  1  0
  1 11  1  0
  1 12  1  0
  2 13  1  0
  3 14  1  0
  3 15  1  0
  3 16  1  0
  5 17  1  0
  6 18  1  0
  6 19  1  0
  8 20  1  0
  8 21  1  0
M  END
