
     RDKit          3D

 23 24  0  0  0  0  0  0  0  0999 V2000
    1.5729   -1.2592   -0.1773 C   0  0  0  0  0  0  0  0  0  0  0  0
    1.2380    0.1886   -0.4575 C   0  0  0  0  0  0  0  0  0  0  0  0
    2.4239    1.0169   -0.0046 C   0  0  0  0  0  0  0  0  0  0  0  0
    0.0520    0.6171    0.3399 C   0  0  0  0  0  0  0  0  0  0  0  0
   -1.2005   -0.1520    0.0732 C   0  0  0  0  0  0  0  0  0  0  0  0
   -2.3921    0.2857    0.8821 C   0  0  0  0  0  0  0  0  0  0  0  0
   -3.2219    0.3371   -0.2183 O   0  0  0  0  0  0  0  0  0  0  0  0
   -2.1235    0.1911   -1.0257 C   0  0  0  0  0  0  0  0  0  0  0  0
   -1.3589   -1.1371   -0.9854 C   0  0  0  0  0  0  0  0  0  0  0  0
    2.3528   -1.3138    0.5938 H   0  0  0  0  0  0  0  0  0  0  0  0
    1.9694   -1.7380   -1.0876 H   0  0  0  0  0  0  0  0  0  0  0  0
    0.6799   -1.7638    0.2416 H   0  0  0  0  0  0  0  0  0  0  0  0
    1.1391    0.3554   -1.5453 H   0  0  0  0  0  0  0  0  0  0  0  0
    3.2061    1.0809   -0.7858 H   0  0  0  0  0  0  0  0  0  0  0  0
    2.0978    2.0618    0.2105 H   0  0  0  0  0  0  0  0  0  0  0  0
    2.8977    0.5958    0.9125 H   0  0  0  0  0  0  0  0  0  0  0  0
   -0.1610    1.6959    0.2111 H   0  0  0  0  0  0  0  0  0  0  0  0
    0.3057    0.4834    1.4152 H   0  0  0  0  0  0  0  0  0  0  0  0
   -2.2762    1.3063    1.3157 H   0  0  0  0  0  0  0  0  0  0  0  0
   -2.6370   -0.4726    1.6485 H   0  0  0  0  0  0  0  0  0  0  0  0
   -1.8791    0.9103   -1.8205 H   0  0  0  0  0  0  0  0  0  0  0  0
   -2.0374   -2.0047   -0.7537 H   0  0  0  0  0  0  0  0  0  0  0  0
   -0.6478   -1.2851   -1.7955 H   0  0  0  0  0  0  0  0  0  0  0  0
  1  2  1  0
  2  3  1  0
  2  4  1  0
  4  5  1  0
  5  6  1  0
  6  7  1  0
  7  8  1  0
  8  9  1  0
  8  5  1  0
  9  5  1  0
  1 10  1  0
  1 11  1  0
  1 12  1  0
  2 13  1  0
  3 14  1  0
  3 15  1  0
  3 16  1  0
  4 17  1  0
  4 18  1  0
  6 19  1  0
  6 20  1  0
  8 21  1  0
  9 22  1  0
  9 23  1  0
M  END
