
     RDKit          3D

 23 22  0  0  0  0  0  0  0  0999 V2000
   -1.5332    1.4705    0.5003 C   0  0  0  0  0  0  0  0  0  0  0  0
   -1.1679    0.0257    0.7406 C   0  0  0  0  0  0  0  0  0  0  0  0
   -1.7158   -0.7880   -0.4201 C   0  0  0  0  0  0  0  0  0  0  0  0
   -3.1144   -0.5790   -0.3988 O   0  0  0  0  0  0  0  0  0  0  0  0
    0.2918   -0.1985    0.9007 C   0  0  0  0  0  0  0  0  0  0  0  0
    0.5115   -1.5523    1.1151 O   0  0  0  0  0  0  0  0  0  0  0  0
    1.1050    0.2561   -0.2874 C   0  0  0  0  0  0  0  0  0  0  0  0
    2.5639    0.0195   -0.1000 C   0  0  0  0  0  0  0  0  0  0  0  0
    3.0646    0.7008    1.0124 O   0  0  0  0  0  0  0  0  0  0  0  0
   -1.4411    2.0943    1.4205 H   0  0  0  0  0  0  0  0  0  0  0  0
   -1.0146    1.9282   -0.3424 H   0  0  0  0  0  0  0  0  0  0  0  0
   -2.6279    1.4777    0.2490 H   0  0  0  0  0  0  0  0  0  0  0  0
   -1.6681   -0.2753    1.6845 H   0  0  0  0  0  0  0  0  0  0  0  0
   -1.3465   -0.3909   -1.3883 H   0  0  0  0  0  0  0  0  0  0  0  0
   -1.4925   -1.8567   -0.3206 H   0  0  0  0  0  0  0  0  0  0  0  0
   -3.5036   -1.3742    0.0307 H   0  0  0  0  0  0  0  0  0  0  0  0
    0.6726    0.3418    1.7823 H   0  0  0  0  0  0  0  0  0  0  0  0
    0.8534   -2.0046    0.2831 H   0  0  0  0  0  0  0  0  0  0  0  0
    0.7657   -0.2604   -1.1947 H   0  0  0  0  0  0  0  0  0  0  0  0
    0.9429    1.3394   -0.4306 H   0  0  0  0  0  0  0  0  0  0  0  0
    3.0961    0.4173   -0.9860 H   0  0  0  0  0  0  0  0  0  0  0  0
    2.8439   -1.0386    0.0047 H   0  0  0  0  0  0  0  0  0  0  0  0
    3.9143    0.2473    1.2704 H   0  0  0  0  0  0  0  0  0  0  0  0
  1  2  1  0
  2  3  1  0
  3  4  1  0
  2  5  1  0
  5  6  1  0
  5  7  1  0
  7  8  1  0
  8  9  1  0
  1 10  1  0
  1 11  1  0
  1 12  1  0
  2 13  1  0
  3 14  1  0
  3 15  1  0
  4 16  1  0
  5 17  1  0
  6 18  1  0
  7 19  1  0
  7 20  1  0
  8 21  1  0
  8 22  1  0
  9 23  1  0
M  END
