
     RDKit          3D

 22 22  0  0  0  0  0  0  0  0999 V2000
   -1.8917    0.9484    0.8936 C   0  0  0  0  0  0  0  0  0  0  0  0
   -0.9386    0.0954    0.0518 C   0  0  0  0  0  0  0  0  0  0  0  0
   -1.2118   -1.3671    0.4247 C   0  0  0  0  0  0  0  0  0  0  0  0
   -1.3069    0.2899   -1.3677 C   0  0  0  0  0  0  0  0  0  0  0  0
    0.3113    0.4196    0.4438 O   0  0  0  0  0  0  0  0  0  0  0  0
    1.3705   -0.1833   -0.1340 C   0  0  0  0  0  0  0  0  0  0  0  0
    2.6507   -0.3949    0.6634 C   0  0  0  0  0  0  0  0  0  0  0  0
    2.5909    0.7460   -0.3080 C   0  0  0  0  0  0  0  0  0  0  0  0
   -2.1218    1.8592    0.2966 H   0  0  0  0  0  0  0  0  0  0  0  0
   -2.8268    0.3776    1.0112 H   0  0  0  0  0  0  0  0  0  0  0  0
   -1.4325    1.2562    1.8370 H   0  0  0  0  0  0  0  0  0  0  0  0
   -1.9068   -1.8247   -0.3017 H   0  0  0  0  0  0  0  0  0  0  0  0
   -0.2411   -1.9316    0.3391 H   0  0  0  0  0  0  0  0  0  0  0  0
   -1.6006   -1.4261    1.4593 H   0  0  0  0  0  0  0  0  0  0  0  0
   -2.1892    0.9844   -1.5109 H   0  0  0  0  0  0  0  0  0  0  0  0
   -0.5062    0.7281   -2.0025 H   0  0  0  0  0  0  0  0  0  0  0  0
   -1.6588   -0.6673   -1.8535 H   0  0  0  0  0  0  0  0  0  0  0  0
    1.2507   -0.9522   -0.9367 H   0  0  0  0  0  0  0  0  0  0  0  0
    2.6459   -0.1648    1.7473 H   0  0  0  0  0  0  0  0  0  0  0  0
    3.3406   -1.1960    0.3878 H   0  0  0  0  0  0  0  0  0  0  0  0
    3.1122    0.6662   -1.2858 H   0  0  0  0  0  0  0  0  0  0  0  0
    2.5600    1.7369    0.1449 H   0  0  0  0  0  0  0  0  0  0  0  0
  1  2  1  0
  2  3  1  0
  2  4  1  0
  2  5  1  0
  5  6  1  0
  6  7  1  0
  7  8  1  0
  8  6  1  0
  1  9  1  0
  1 10  1  0
  1 11  1  0
  3 12  1  0
  3 13  1  0
  3 14  1  0
  4 15  1  0
  4 16  1  0
  4 17  1  0
  6 18  1  0
  7 19  1  0
  7 20  1  0
  8 21  1  0
  8 22  1  0
M  END
