
     RDKit          3D

 27 26  0  0  0  0  0  0  0  0999 V2000
    2.4248   -0.1580   -1.7109 C   0  0  0  0  0  0  0  0  0  0  0  0
    1.8155    0.2453   -0.3867 C   0  0  0  0  0  0  0  0  0  0  0  0
    2.4259   -0.6509    0.6706 C   0  0  0  0  0  0  0  0  0  0  0  0
    0.3260    0.1594   -0.4417 C   0  0  0  0  0  0  0  0  0  0  0  0
   -0.3558    0.5444    0.8360 C   0  0  0  0  0  0  0  0  0  0  0  0
    0.0687   -0.3025    1.8593 O   0  0  0  0  0  0  0  0  0  0  0  0
   -1.8562    0.4278    0.7568 C   0  0  0  0  0  0  0  0  0  0  0  0
   -2.3015   -0.9911    0.4448 C   0  0  0  0  0  0  0  0  0  0  0  0
   -2.4501    1.3182   -0.3063 C   0  0  0  0  0  0  0  0  0  0  0  0
    1.6622   -0.7142   -2.3062 H   0  0  0  0  0  0  0  0  0  0  0  0
    3.2845   -0.8422   -1.5836 H   0  0  0  0  0  0  0  0  0  0  0  0
    2.7453    0.7287   -2.3045 H   0  0  0  0  0  0  0  0  0  0  0  0
    2.1853    1.2699   -0.1698 H   0  0  0  0  0  0  0  0  0  0  0  0
    2.3931   -0.1574    1.6604 H   0  0  0  0  0  0  0  0  0  0  0  0
    3.5175   -0.7239    0.3829 H   0  0  0  0  0  0  0  0  0  0  0  0
    2.0454   -1.6719    0.6532 H   0  0  0  0  0  0  0  0  0  0  0  0
    0.0476   -0.8884   -0.6792 H   0  0  0  0  0  0  0  0  0  0  0  0
   -0.0106    0.7668   -1.3069 H   0  0  0  0  0  0  0  0  0  0  0  0
   -0.1235    1.5723    1.1579 H   0  0  0  0  0  0  0  0  0  0  0  0
   -0.0933   -1.2588    1.6604 H   0  0  0  0  0  0  0  0  0  0  0  0
   -2.3431    0.6993    1.7147 H   0  0  0  0  0  0  0  0  0  0  0  0
   -1.9801   -1.3016   -0.5710 H   0  0  0  0  0  0  0  0  0  0  0  0
   -2.0397   -1.6985    1.2371 H   0  0  0  0  0  0  0  0  0  0  0  0
   -3.4273   -0.9491    0.4291 H   0  0  0  0  0  0  0  0  0  0  0  0
   -2.4367    0.8276   -1.3192 H   0  0  0  0  0  0  0  0  0  0  0  0
   -3.5288    1.4408   -0.0657 H   0  0  0  0  0  0  0  0  0  0  0  0
   -1.9951    2.3079   -0.3115 H   0  0  0  0  0  0  0  0  0  0  0  0
  1  2  1  0
  2  3  1  0
  2  4  1  0
  4  5  1  0
  5  6  1  0
  5  7  1  0
  7  8  1  0
  7  9  1  0
  1 10  1  0
  1 11  1  0
  1 12  1  0
  2 13  1  0
  3 14  1  0
  3 15  1  0
  3 16  1  0
  4 17  1  0
  4 18  1  0
  5 19  1  0
  6 20  1  0
  7 21  1  0
  8 22  1  0
  8 23  1  0
  8 24  1  0
  9 25  1  0
  9 26  1  0
  9 27  1  0
M  END
