
     RDKit          3D

 25 24  0  0  0  0  0  0  0  0999 V2000
   -1.4049    1.2204    0.3535 C   0  0  0  0  0  0  0  0  0  0  0  0
   -0.7167   -0.0783    0.1129 C   0  0  0  0  0  0  0  0  0  0  0  0
   -0.6509   -0.8849    1.3825 C   0  0  0  0  0  0  0  0  0  0  0  0
   -1.6160   -0.8732   -0.8500 C   0  0  0  0  0  0  0  0  0  0  0  0
    0.5814    0.1142   -0.5670 C   0  0  0  0  0  0  0  0  0  0  0  0
    1.3042   -1.1962   -0.8241 C   0  0  0  0  0  0  0  0  0  0  0  0
    0.3463    0.6825   -1.8205 O   0  0  0  0  0  0  0  0  0  0  0  0
    1.5489    1.0139    0.1541 C   0  0  0  0  0  0  0  0  0  0  0  0
    1.8259    0.4866    1.4376 O   0  0  0  0  0  0  0  0  0  0  0  0
   -1.9163    1.6160   -0.5651 H   0  0  0  0  0  0  0  0  0  0  0  0
   -0.7826    2.0219    0.7485 H   0  0  0  0  0  0  0  0  0  0  0  0
   -2.2030    1.0335    1.1297 H   0  0  0  0  0  0  0  0  0  0  0  0
   -1.6677   -1.3070    1.5826 H   0  0  0  0  0  0  0  0  0  0  0  0
   -0.4455   -0.1891    2.2127 H   0  0  0  0  0  0  0  0  0  0  0  0
    0.0334   -1.7349    1.3321 H   0  0  0  0  0  0  0  0  0  0  0  0
   -1.3060   -1.9482   -0.8629 H   0  0  0  0  0  0  0  0  0  0  0  0
   -2.6274   -0.8357   -0.3871 H   0  0  0  0  0  0  0  0  0  0  0  0
   -1.5962   -0.4210   -1.8677 H   0  0  0  0  0  0  0  0  0  0  0  0
    0.6797   -1.9309   -1.3362 H   0  0  0  0  0  0  0  0  0  0  0  0
    1.7301   -1.5386    0.1196 H   0  0  0  0  0  0  0  0  0  0  0  0
    2.1595   -0.9283   -1.5018 H   0  0  0  0  0  0  0  0  0  0  0  0
    0.3256    1.6756   -1.6637 H   0  0  0  0  0  0  0  0  0  0  0  0
    2.5316    1.0440   -0.3591 H   0  0  0  0  0  0  0  0  0  0  0  0
    1.2053    2.0364    0.2915 H   0  0  0  0  0  0  0  0  0  0  0  0
    2.6611    0.9212    1.7480 H   0  0  0  0  0  0  0  0  0  0  0  0
  1  2  1  0
  2  3  1  0
  2  4  1  0
  2  5  1  0
  5  6  1  0
  5  7  1  0
  5  8  1  0
  8  9  1  0
  1 10  1  0
  1 11  1  0
  1 12  1  0
  3 13  1  0
  3 14  1  0
  3 15  1  0
  4 16  1  0
  4 17  1  0
  4 18  1  0
  6 19  1  0
  6 20  1  0
  6 21  1  0
  7 22  1  0
  8 23  1  0
  8 24  1  0
  9 25  1  0
M  END
