
     RDKit          3D

 20 20  0  0  0  0  0  0  0  0999 V2000
    1.3280   -1.6224    0.0036 C   0  0  0  0  0  0  0  0  0  0  0  0
    0.8469   -0.3114   -0.5938 C   0  0  0  0  0  0  0  0  0  0  0  0
    1.5369    0.8232    0.0722 C   0  0  0  0  0  0  0  0  0  0  0  0
    2.9112    0.6654   -0.1424 O   0  0  0  0  0  0  0  0  0  0  0  0
   -0.6426   -0.2832   -0.5088 C   0  0  0  0  0  0  0  0  0  0  0  0
   -1.1315    0.9958   -1.0902 O   0  0  0  0  0  0  0  0  0  0  0  0
   -1.4321    0.6463    0.2308 C   0  0  0  0  0  0  0  0  0  0  0  0
   -2.8966    0.3300    0.4475 C   0  0  0  0  0  0  0  0  0  0  0  0
    2.3326   -1.9029   -0.3963 H   0  0  0  0  0  0  0  0  0  0  0  0
    1.2930   -1.6279    1.0980 H   0  0  0  0  0  0  0  0  0  0  0  0
    0.6030   -2.4075   -0.3468 H   0  0  0  0  0  0  0  0  0  0  0  0
    1.1923   -0.3315   -1.6655 H   0  0  0  0  0  0  0  0  0  0  0  0
    1.2659    1.7946   -0.3796 H   0  0  0  0  0  0  0  0  0  0  0  0
    1.3993    0.8181    1.1794 H   0  0  0  0  0  0  0  0  0  0  0  0
    3.3697    1.5129    0.1355 H   0  0  0  0  0  0  0  0  0  0  0  0
   -1.1387   -1.1291   -1.0280 H   0  0  0  0  0  0  0  0  0  0  0  0
   -1.0034    1.3496    0.9716 H   0  0  0  0  0  0  0  0  0  0  0  0
   -3.3558   -0.1398   -0.4570 H   0  0  0  0  0  0  0  0  0  0  0  0
   -2.9912   -0.4256    1.2582 H   0  0  0  0  0  0  0  0  0  0  0  0
   -3.4870    1.2454    0.6611 H   0  0  0  0  0  0  0  0  0  0  0  0
  1  2  1  0
  2  3  1  0
  3  4  1  0
  2  5  1  0
  5  6  1  0
  6  7  1  0
  7  8  1  0
  7  5  1  0
  1  9  1  0
  1 10  1  0
  1 11  1  0
  2 12  1  0
  3 13  1  0
  3 14  1  0
  4 15  1  0
  5 16  1  0
  7 17  1  0
  8 18  1  0
  8 19  1  0
  8 20  1  0
M  END
