
     RDKit          3D

 25 26  0  0  0  0  0  0  0  0999 V2000
   -2.1338   -0.1015   -0.9196 C   0  0  0  0  0  0  0  0  0  0  0  0
   -1.0311   -0.5872    0.0332 C   0  0  0  0  0  0  0  0  0  0  0  0
   -1.5820   -0.3905    1.4372 C   0  0  0  0  0  0  0  0  0  0  0  0
    0.1791    0.2294   -0.2440 C   0  0  0  0  0  0  0  0  0  0  0  0
    0.0420    1.6988   -0.0500 C   0  0  0  0  0  0  0  0  0  0  0  0
    1.4115    1.7272    0.6400 C   0  0  0  0  0  0  0  0  0  0  0  0
    1.3850    0.2297    0.5801 C   0  0  0  0  0  0  0  0  0  0  0  0
    1.4190   -0.3255   -0.8241 C   0  0  0  0  0  0  0  0  0  0  0  0
    1.6876   -1.7803   -0.9123 C   0  0  0  0  0  0  0  0  0  0  0  0
   -2.9411   -0.8430   -0.9834 H   0  0  0  0  0  0  0  0  0  0  0  0
   -2.4910    0.8674   -0.5215 H   0  0  0  0  0  0  0  0  0  0  0  0
   -1.6205    0.0937   -1.8815 H   0  0  0  0  0  0  0  0  0  0  0  0
   -0.9361   -1.6588   -0.1373 H   0  0  0  0  0  0  0  0  0  0  0  0
   -1.9757   -1.3503    1.8389 H   0  0  0  0  0  0  0  0  0  0  0  0
   -0.8120   -0.0303    2.1426 H   0  0  0  0  0  0  0  0  0  0  0  0
   -2.4536    0.3115    1.4431 H   0  0  0  0  0  0  0  0  0  0  0  0
   -0.0117    2.2721   -0.9819 H   0  0  0  0  0  0  0  0  0  0  0  0
   -0.7387    1.9431    0.7188 H   0  0  0  0  0  0  0  0  0  0  0  0
    2.1535    2.1446   -0.0795 H   0  0  0  0  0  0  0  0  0  0  0  0
    1.4240    2.1985    1.6193 H   0  0  0  0  0  0  0  0  0  0  0  0
    1.5701   -0.3939    1.4451 H   0  0  0  0  0  0  0  0  0  0  0  0
    1.9737    0.2956   -1.5653 H   0  0  0  0  0  0  0  0  0  0  0  0
    2.5783   -2.0021   -0.2595 H   0  0  0  0  0  0  0  0  0  0  0  0
    2.0152   -2.1036   -1.9418 H   0  0  0  0  0  0  0  0  0  0  0  0
    0.8884   -2.4447   -0.5966 H   0  0  0  0  0  0  0  0  0  0  0  0
  1  2  1  0
  2  3  1  0
  2  4  1  0
  4  5  1  0
  5  6  1  0
  6  7  1  0
  7  8  1  0
  8  9  1  0
  7  4  1  0
  8  4  1  0
  1 10  1  0
  1 11  1  0
  1 12  1  0
  2 13  1  0
  3 14  1  0
  3 15  1  0
  3 16  1  0
  5 17  1  0
  5 18  1  0
  6 19  1  0
  6 20  1  0
  7 21  1  0
  8 22  1  0
  9 23  1  0
  9 24  1  0
  9 25  1  0
M  END
