
     RDKit          3D

 25 25  0  0  0  0  0  0  0  0999 V2000
   -1.8106    1.1882    0.4865 C   0  0  0  0  0  0  0  0  0  0  0  0
   -1.5329    0.2986   -0.6763 C   0  0  0  0  0  0  0  0  0  0  0  0
   -2.5228   -0.8657   -0.7232 C   0  0  0  0  0  0  0  0  0  0  0  0
   -0.1615   -0.2823   -0.6996 C   0  0  0  0  0  0  0  0  0  0  0  0
    0.9899    0.6733   -0.7485 C   0  0  0  0  0  0  0  0  0  0  0  0
    1.7560   -0.3370    0.1197 C   0  0  0  0  0  0  0  0  0  0  0  0
    2.6391    0.2766    1.1525 C   0  0  0  0  0  0  0  0  0  0  0  0
    2.2932   -1.3514   -0.6409 O   0  0  0  0  0  0  0  0  0  0  0  0
    0.3754   -0.7736    0.6290 C   0  0  0  0  0  0  0  0  0  0  0  0
   -2.5357    2.0131    0.2246 H   0  0  0  0  0  0  0  0  0  0  0  0
   -2.3643    0.5688    1.2518 H   0  0  0  0  0  0  0  0  0  0  0  0
   -0.9170    1.5818    0.9925 H   0  0  0  0  0  0  0  0  0  0  0  0
   -1.6782    0.8712   -1.6214 H   0  0  0  0  0  0  0  0  0  0  0  0
   -2.6138   -1.2870    0.2922 H   0  0  0  0  0  0  0  0  0  0  0  0
   -2.1040   -1.6083   -1.4588 H   0  0  0  0  0  0  0  0  0  0  0  0
   -3.4885   -0.5408   -1.1596 H   0  0  0  0  0  0  0  0  0  0  0  0
   -0.0750   -1.0351   -1.5150 H   0  0  0  0  0  0  0  0  0  0  0  0
    1.4265    0.8217   -1.7490 H   0  0  0  0  0  0  0  0  0  0  0  0
    0.8707    1.6009   -0.1599 H   0  0  0  0  0  0  0  0  0  0  0  0
    3.1129    1.1982    0.7358 H   0  0  0  0  0  0  0  0  0  0  0  0
    3.4930   -0.4318    1.3385 H   0  0  0  0  0  0  0  0  0  0  0  0
    2.1257    0.5667    2.0715 H   0  0  0  0  0  0  0  0  0  0  0  0
    2.4788   -1.0919   -1.5787 H   0  0  0  0  0  0  0  0  0  0  0  0
    0.2515   -1.8697    0.6845 H   0  0  0  0  0  0  0  0  0  0  0  0
   -0.0083   -0.1845    1.4593 H   0  0  0  0  0  0  0  0  0  0  0  0
  1  2  1  0
  2  3  1  0
  2  4  1  0
  4  5  1  0
  5  6  1  0
  6  7  1  0
  6  8  1  0
  6  9  1  0
  9  4  1  0
  1 10  1  0
  1 11  1  0
  1 12  1  0
  2 13  1  0
  3 14  1  0
  3 15  1  0
  3 16  1  0
  4 17  1  0
  5 18  1  0
  5 19  1  0
  7 20  1  0
  7 21  1  0
  7 22  1  0
  8 23  1  0
  9 24  1  0
  9 25  1  0
M  END
