
     RDKit          3D

 25 24  0  0  0  0  0  0  0  0999 V2000
    2.9106   -0.8853    0.5015 C   0  0  0  0  0  0  0  0  0  0  0  0
    1.5988   -0.1398    0.2808 C   0  0  0  0  0  0  0  0  0  0  0  0
    1.9125    1.2283   -0.2686 C   0  0  0  0  0  0  0  0  0  0  0  0
    0.7740   -0.9707   -0.6550 C   0  0  0  0  0  0  0  0  0  0  0  0
   -0.5666   -0.3515   -0.9680 C   0  0  0  0  0  0  0  0  0  0  0  0
   -1.4005   -0.1586    0.2797 C   0  0  0  0  0  0  0  0  0  0  0  0
   -2.7225    0.4715   -0.1738 C   0  0  0  0  0  0  0  0  0  0  0  0
   -3.6154    0.6979    1.0106 C   0  0  0  0  0  0  0  0  0  0  0  0
   -3.2103    0.3756    2.1132 O   0  0  0  0  0  0  0  0  0  0  0  0
    3.6338   -0.5738   -0.2927 H   0  0  0  0  0  0  0  0  0  0  0  0
    2.7693   -1.9807    0.3914 H   0  0  0  0  0  0  0  0  0  0  0  0
    3.2657   -0.6781    1.5108 H   0  0  0  0  0  0  0  0  0  0  0  0
    1.0656    0.0200    1.2484 H   0  0  0  0  0  0  0  0  0  0  0  0
    1.0852    1.9567   -0.1196 H   0  0  0  0  0  0  0  0  0  0  0  0
    2.7951    1.6562    0.2529 H   0  0  0  0  0  0  0  0  0  0  0  0
    2.1577    1.1929   -1.3545 H   0  0  0  0  0  0  0  0  0  0  0  0
    0.5665   -1.9357   -0.1396 H   0  0  0  0  0  0  0  0  0  0  0  0
    1.3437   -1.2051   -1.5588 H   0  0  0  0  0  0  0  0  0  0  0  0
   -0.4074    0.5779   -1.5149 H   0  0  0  0  0  0  0  0  0  0  0  0
   -1.1151   -1.0741   -1.6081 H   0  0  0  0  0  0  0  0  0  0  0  0
   -1.5998   -1.1252    0.7842 H   0  0  0  0  0  0  0  0  0  0  0  0
   -0.9094    0.4979    1.0254 H   0  0  0  0  0  0  0  0  0  0  0  0
   -3.2011   -0.1810   -0.9325 H   0  0  0  0  0  0  0  0  0  0  0  0
   -2.5608    1.4501   -0.6331 H   0  0  0  0  0  0  0  0  0  0  0  0
   -4.5694    1.1346    0.8204 H   0  0  0  0  0  0  0  0  0  0  0  0
  1  2  1  0
  2  3  1  0
  2  4  1  0
  4  5  1  0
  5  6  1  0
  6  7  1  0
  7  8  1  0
  8  9  2  0
  1 10  1  0
  1 11  1  0
  1 12  1  0
  2 13  1  0
  3 14  1  0
  3 15  1  0
  3 16  1  0
  4 17  1  0
  4 18  1  0
  5 19  1  0
  5 20  1  0
  6 21  1  0
  6 22  1  0
  7 23  1  0
  7 24  1  0
  8 25  1  0
M  END
