
     RDKit          3D

 23 23  0  0  0  0  0  0  0  0999 V2000
   -2.2356   -0.3768    0.8317 C   0  0  0  0  0  0  0  0  0  0  0  0
   -1.1146   -0.0758   -0.1358 C   0  0  0  0  0  0  0  0  0  0  0  0
   -1.0430    1.4148   -0.3260 C   0  0  0  0  0  0  0  0  0  0  0  0
   -1.2960   -0.6641   -1.3682 O   0  0  0  0  0  0  0  0  0  0  0  0
    0.2041   -0.6172    0.4337 C   0  0  0  0  0  0  0  0  0  0  0  0
    0.1610   -1.9885    0.5712 O   0  0  0  0  0  0  0  0  0  0  0  0
    1.3561   -0.1279   -0.3763 C   0  0  0  0  0  0  0  0  0  0  0  0
    2.7463   -0.4736   -0.0813 C   0  0  0  0  0  0  0  0  0  0  0  0
    2.2624    0.9006    0.2964 C   0  0  0  0  0  0  0  0  0  0  0  0
   -2.5002   -1.4452    0.7582 H   0  0  0  0  0  0  0  0  0  0  0  0
   -1.8820   -0.0981    1.8556 H   0  0  0  0  0  0  0  0  0  0  0  0
   -3.0839    0.2853    0.5952 H   0  0  0  0  0  0  0  0  0  0  0  0
   -0.9627    1.9600    0.6387 H   0  0  0  0  0  0  0  0  0  0  0  0
   -1.9755    1.7353   -0.8078 H   0  0  0  0  0  0  0  0  0  0  0  0
   -0.2138    1.7100   -1.0019 H   0  0  0  0  0  0  0  0  0  0  0  0
   -2.2518   -0.8535   -1.5243 H   0  0  0  0  0  0  0  0  0  0  0  0
    0.2746   -0.1886    1.4530 H   0  0  0  0  0  0  0  0  0  0  0  0
   -0.6695   -2.4027    0.2639 H   0  0  0  0  0  0  0  0  0  0  0  0
    1.0853    0.0730   -1.4520 H   0  0  0  0  0  0  0  0  0  0  0  0
    3.4593   -0.4664   -0.9432 H   0  0  0  0  0  0  0  0  0  0  0  0
    3.0451   -1.1489    0.7451 H   0  0  0  0  0  0  0  0  0  0  0  0
    2.5100    1.7729   -0.3280 H   0  0  0  0  0  0  0  0  0  0  0  0
    2.1245    1.0754    1.3730 H   0  0  0  0  0  0  0  0  0  0  0  0
  1  2  1  0
  2  3  1  0
  2  4  1  0
  2  5  1  0
  5  6  1  0
  5  7  1  0
  7  8  1  0
  8  9  1  0
  9  7  1  0
  1 10  1  0
  1 11  1  0
  1 12  1  0
  3 13  1  0
  3 14  1  0
  3 15  1  0
  4 16  1  0
  5 17  1  0
  6 18  1  0
  7 19  1  0
  8 20  1  0
  8 21  1  0
  9 22  1  0
  9 23  1  0
M  END
