
     RDKit          3D

 21 20  0  0  0  0  0  0  0  0999 V2000
   -1.2585   -0.9488   -1.4379 C   0  0  0  0  0  0  0  0  0  0  0  0
   -0.9760   -0.1118   -0.2021 C   0  0  0  0  0  0  0  0  0  0  0  0
   -1.2450   -0.8833    1.0625 C   0  0  0  0  0  0  0  0  0  0  0  0
    0.3856    0.5005   -0.2336 C   0  0  0  0  0  0  0  0  0  0  0  0
    1.4948   -0.5205   -0.3083 C   0  0  0  0  0  0  0  0  0  0  0  0
    1.5255   -1.3522    0.8104 O   0  0  0  0  0  0  0  0  0  0  0  0
    0.5436    1.3298    0.9041 O   0  0  0  0  0  0  0  0  0  0  0  0
    0.7545    2.6924    0.8252 C   0  0  0  0  0  0  0  0  0  0  0  0
    0.8052    3.2000   -0.3181 O   0  0  0  0  0  0  0  0  0  0  0  0
   -2.2346   -1.4736   -1.2884 H   0  0  0  0  0  0  0  0  0  0  0  0
   -1.3261   -0.2898   -2.3278 H   0  0  0  0  0  0  0  0  0  0  0  0
   -0.4586   -1.6933   -1.5580 H   0  0  0  0  0  0  0  0  0  0  0  0
   -1.7141    0.7245   -0.2284 H   0  0  0  0  0  0  0  0  0  0  0  0
   -0.8881   -0.2716    1.9074 H   0  0  0  0  0  0  0  0  0  0  0  0
   -0.7411   -1.8802    1.0462 H   0  0  0  0  0  0  0  0  0  0  0  0
   -2.3459   -1.0734    1.0938 H   0  0  0  0  0  0  0  0  0  0  0  0
    0.4592    1.1181   -1.1525 H   0  0  0  0  0  0  0  0  0  0  0  0
    1.4691   -1.1344   -1.2017 H   0  0  0  0  0  0  0  0  0  0  0  0
    2.4645    0.0374   -0.3233 H   0  0  0  0  0  0  0  0  0  0  0  0
    2.4068   -1.3271    1.2712 H   0  0  0  0  0  0  0  0  0  0  0  0
    0.8791    3.3573    1.6593 H   0  0  0  0  0  0  0  0  0  0  0  0
  1  2  1  0
  2  3  1  0
  2  4  1  0
  4  5  1  0
  5  6  1  0
  4  7  1  0
  7  8  1  0
  8  9  2  0
  1 10  1  0
  1 11  1  0
  1 12  1  0
  2 13  1  0
  3 14  1  0
  3 15  1  0
  3 16  1  0
  4 17  1  0
  5 18  1  0
  5 19  1  0
  6 20  1  0
  8 21  1  0
M  END
