
     RDKit          3D

 23 24  0  0  0  0  0  0  0  0999 V2000
   -1.3474   -1.4642   -0.1659 C   0  0  0  0  0  0  0  0  0  0  0  0
   -0.7663   -0.1131    0.2501 C   0  0  0  0  0  0  0  0  0  0  0  0
   -1.1777    0.8812   -0.7923 C   0  0  0  0  0  0  0  0  0  0  0  0
   -1.3287    0.2081    1.6197 C   0  0  0  0  0  0  0  0  0  0  0  0
    0.7170   -0.2911    0.3617 C   0  0  0  0  0  0  0  0  0  0  0  0
    1.5005    0.9297    0.7651 C   0  0  0  0  0  0  0  0  0  0  0  0
    2.5189    0.4936   -0.2563 C   0  0  0  0  0  0  0  0  0  0  0  0
    2.0863    0.6181   -1.5546 O   0  0  0  0  0  0  0  0  0  0  0  0
    1.4914   -0.4215   -0.8987 C   0  0  0  0  0  0  0  0  0  0  0  0
   -0.8191   -1.7363   -1.1176 H   0  0  0  0  0  0  0  0  0  0  0  0
   -1.0539   -2.2057    0.6177 H   0  0  0  0  0  0  0  0  0  0  0  0
   -2.4364   -1.4176   -0.3015 H   0  0  0  0  0  0  0  0  0  0  0  0
   -1.2569    0.3562   -1.7781 H   0  0  0  0  0  0  0  0  0  0  0  0
   -2.2113    1.2109   -0.5529 H   0  0  0  0  0  0  0  0  0  0  0  0
   -0.4733    1.7298   -0.9058 H   0  0  0  0  0  0  0  0  0  0  0  0
   -2.2593    0.8359    1.5166 H   0  0  0  0  0  0  0  0  0  0  0  0
   -0.6289    0.8221    2.2268 H   0  0  0  0  0  0  0  0  0  0  0  0
   -1.6324   -0.6950    2.1646 H   0  0  0  0  0  0  0  0  0  0  0  0
    0.9497   -1.1344    1.0467 H   0  0  0  0  0  0  0  0  0  0  0  0
    1.8597    0.9098    1.8049 H   0  0  0  0  0  0  0  0  0  0  0  0
    1.0372    1.9081    0.4635 H   0  0  0  0  0  0  0  0  0  0  0  0
    3.4379    0.0025    0.0250 H   0  0  0  0  0  0  0  0  0  0  0  0
    1.7930   -1.4270   -1.2302 H   0  0  0  0  0  0  0  0  0  0  0  0
  1  2  1  0
  2  3  1  0
  2  4  1  0
  2  5  1  0
  5  6  1  0
  6  7  1  0
  7  8  1  0
  8  9  1  0
  9  5  1  0
  9  7  1  0
  1 10  1  0
  1 11  1  0
  1 12  1  0
  3 13  1  0
  3 14  1  0
  3 15  1  0
  4 16  1  0
  4 17  1  0
  4 18  1  0
  5 19  1  0
  6 20  1  0
  6 21  1  0
  7 22  1  0
  9 23  1  0
M  END
