
     RDKit          3D

 23 24  0  0  0  0  0  0  0  0999 V2000
   -1.4173    0.7253   -0.9154 C   0  0  0  0  0  0  0  0  0  0  0  0
   -0.6306   -0.0518    0.1207 C   0  0  0  0  0  0  0  0  0  0  0  0
   -1.0045    0.5734    1.4737 C   0  0  0  0  0  0  0  0  0  0  0  0
   -1.1152   -1.4622    0.1491 C   0  0  0  0  0  0  0  0  0  0  0  0
    0.8375    0.0971   -0.0317 C   0  0  0  0  0  0  0  0  0  0  0  0
    1.8328   -0.5461    0.8356 C   0  0  0  0  0  0  0  0  0  0  0  0
    2.5622   -0.9129   -0.3198 O   0  0  0  0  0  0  0  0  0  0  0  0
    1.6239   -0.3075   -1.1772 C   0  0  0  0  0  0  0  0  0  0  0  0
    1.3146    1.1261   -0.9889 C   0  0  0  0  0  0  0  0  0  0  0  0
   -2.4843    0.5205   -0.7636 H   0  0  0  0  0  0  0  0  0  0  0  0
   -1.1616    0.4079   -1.9427 H   0  0  0  0  0  0  0  0  0  0  0  0
   -1.2420    1.8116   -0.7569 H   0  0  0  0  0  0  0  0  0  0  0  0
   -0.2760    0.1536    2.1968 H   0  0  0  0  0  0  0  0  0  0  0  0
   -2.0555    0.3559    1.7334 H   0  0  0  0  0  0  0  0  0  0  0  0
   -0.8156    1.6724    1.3566 H   0  0  0  0  0  0  0  0  0  0  0  0
   -2.1334   -1.5387   -0.3157 H   0  0  0  0  0  0  0  0  0  0  0  0
   -1.2579   -1.8244    1.1981 H   0  0  0  0  0  0  0  0  0  0  0  0
   -0.4832   -2.1805   -0.3909 H   0  0  0  0  0  0  0  0  0  0  0  0
    1.5415   -1.3934    1.4602 H   0  0  0  0  0  0  0  0  0  0  0  0
    2.4251    0.2139    1.4109 H   0  0  0  0  0  0  0  0  0  0  0  0
    1.2670   -0.8461   -2.0572 H   0  0  0  0  0  0  0  0  0  0  0  0
    2.0510    1.8376   -0.5556 H   0  0  0  0  0  0  0  0  0  0  0  0
    0.6216    1.5684   -1.7196 H   0  0  0  0  0  0  0  0  0  0  0  0
  1  2  1  0
  2  3  1  0
  2  4  1  0
  2  5  1  0
  5  6  1  0
  6  7  1  0
  7  8  1  0
  8  9  1  0
  8  5  1  0
  9  5  1  0
  1 10  1  0
  1 11  1  0
  1 12  1  0
  3 13  1  0
  3 14  1  0
  3 15  1  0
  4 16  1  0
  4 17  1  0
  4 18  1  0
  6 19  1  0
  6 20  1  0
  8 21  1  0
  9 22  1  0
  9 23  1  0
M  END
