
     RDKit          3D

 21 20  0  0  0  0  0  0  0  0999 V2000
   -2.5438    0.6363    0.7590 C   0  0  0  0  0  0  0  0  0  0  0  0
   -1.4824   -0.3274    0.3249 C   0  0  0  0  0  0  0  0  0  0  0  0
   -1.9570   -1.2144   -0.8340 C   0  0  0  0  0  0  0  0  0  0  0  0
   -0.2153    0.3218   -0.0568 C   0  0  0  0  0  0  0  0  0  0  0  0
   -0.0863    1.5591   -0.0070 O   0  0  0  0  0  0  0  0  0  0  0  0
    0.8326   -0.4579   -0.4723 O   0  0  0  0  0  0  0  0  0  0  0  0
    2.0780    0.0131   -0.8586 C   0  0  0  0  0  0  0  0  0  0  0  0
    2.7012    0.7422    0.3046 C   0  0  0  0  0  0  0  0  0  0  0  0
    2.8503   -0.1082    1.3974 O   0  0  0  0  0  0  0  0  0  0  0  0
   -3.5514    0.3885    0.3661 H   0  0  0  0  0  0  0  0  0  0  0  0
   -2.2692    1.6663    0.4858 H   0  0  0  0  0  0  0  0  0  0  0  0
   -2.6578    0.6404    1.8806 H   0  0  0  0  0  0  0  0  0  0  0  0
   -1.2537   -1.0300    1.1551 H   0  0  0  0  0  0  0  0  0  0  0  0
   -1.1569   -2.0058   -0.9204 H   0  0  0  0  0  0  0  0  0  0  0  0
   -1.8740   -0.5949   -1.7439 H   0  0  0  0  0  0  0  0  0  0  0  0
   -2.9442   -1.6321   -0.6589 H   0  0  0  0  0  0  0  0  0  0  0  0
    2.7255   -0.8761   -1.0594 H   0  0  0  0  0  0  0  0  0  0  0  0
    2.0182    0.6277   -1.7666 H   0  0  0  0  0  0  0  0  0  0  0  0
    2.1425    1.6471    0.6152 H   0  0  0  0  0  0  0  0  0  0  0  0
    3.7079    1.0648   -0.0401 H   0  0  0  0  0  0  0  0  0  0  0  0
    2.9357   -1.0606    1.1293 H   0  0  0  0  0  0  0  0  0  0  0  0
  1  2  1  0
  2  3  1  0
  2  4  1  0
  4  5  2  0
  4  6  1  0
  6  7  1  0
  7  8  1  0
  8  9  1  0
  1 10  1  0
  1 11  1  0
  1 12  1  0
  2 13  1  0
  3 14  1  0
  3 15  1  0
  3 16  1  0
  7 17  1  0
  7 18  1  0
  8 19  1  0
  8 20  1  0
  9 21  1  0
M  END
