
     RDKit          3D

 21 20  0  0  0  0  0  0  0  0999 V2000
    2.3020    1.0045    0.0978 C   0  0  0  0  0  0  0  0  0  0  0  0
    1.3096   -0.0234   -0.4605 C   0  0  0  0  0  0  0  0  0  0  0  0
    2.0148   -1.3276   -0.4636 C   0  0  0  0  0  0  0  0  0  0  0  0
    3.0154   -1.5302   -1.1325 O   0  0  0  0  0  0  0  0  0  0  0  0
    0.2351   -0.1078    0.3798 O   0  0  0  0  0  0  0  0  0  0  0  0
   -0.9744    0.2244   -0.1765 C   0  0  0  0  0  0  0  0  0  0  0  0
   -1.5697    1.3560    0.6523 C   0  0  0  0  0  0  0  0  0  0  0  0
   -1.9785   -0.9238   -0.1080 C   0  0  0  0  0  0  0  0  0  0  0  0
   -2.2036   -1.2774    1.2042 O   0  0  0  0  0  0  0  0  0  0  0  0
    1.7651    1.8671    0.5087 H   0  0  0  0  0  0  0  0  0  0  0  0
    3.0513    1.2954   -0.6519 H   0  0  0  0  0  0  0  0  0  0  0  0
    2.8740    0.5571    0.9505 H   0  0  0  0  0  0  0  0  0  0  0  0
    1.0499    0.3060   -1.4881 H   0  0  0  0  0  0  0  0  0  0  0  0
    1.6425   -2.1363    0.1419 H   0  0  0  0  0  0  0  0  0  0  0  0
   -0.9122    0.5155   -1.2319 H   0  0  0  0  0  0  0  0  0  0  0  0
   -2.6201    1.4828    0.3579 H   0  0  0  0  0  0  0  0  0  0  0  0
   -1.5098    1.0343    1.7028 H   0  0  0  0  0  0  0  0  0  0  0  0
   -0.9453    2.2387    0.5142 H   0  0  0  0  0  0  0  0  0  0  0  0
   -1.6696   -1.7804   -0.7338 H   0  0  0  0  0  0  0  0  0  0  0  0
   -2.9240   -0.5319   -0.5260 H   0  0  0  0  0  0  0  0  0  0  0  0
   -1.9526   -2.2431    1.2940 H   0  0  0  0  0  0  0  0  0  0  0  0
  1  2  1  0
  2  3  1  0
  3  4  2  0
  2  5  1  0
  5  6  1  0
  6  7  1  0
  6  8  1  0
  8  9  1  0
  1 10  1  0
  1 11  1  0
  1 12  1  0
  2 13  1  0
  3 14  1  0
  6 15  1  0
  7 16  1  0
  7 17  1  0
  7 18  1  0
  8 19  1  0
  8 20  1  0
  9 21  1  0
M  END
