
     RDKit          3D

 21 21  0  0  0  0  0  0  0  0999 V2000
   -1.0551   -1.2661    0.6117 C   0  0  0  0  0  0  0  0  0  0  0  0
   -1.2409    0.2080    0.3530 C   0  0  0  0  0  0  0  0  0  0  0  0
   -2.5615    0.4229   -0.3032 C   0  0  0  0  0  0  0  0  0  0  0  0
   -0.0901    0.7929   -0.4310 C   0  0  0  0  0  0  0  0  0  0  0  0
    1.2160    0.6289    0.3139 C   0  0  0  0  0  0  0  0  0  0  0  0
    1.4510   -0.7306    0.5163 O   0  0  0  0  0  0  0  0  0  0  0  0
    2.7338   -0.6455   -0.0511 C   0  0  0  0  0  0  0  0  0  0  0  0
    2.4059    0.7092   -0.5778 C   0  0  0  0  0  0  0  0  0  0  0  0
    2.8281    1.5418   -1.3453 O   0  0  0  0  0  0  0  0  0  0  0  0
   -2.0486   -1.8018    0.6668 H   0  0  0  0  0  0  0  0  0  0  0  0
   -0.5135   -1.7369   -0.2395 H   0  0  0  0  0  0  0  0  0  0  0  0
   -0.5034   -1.4420    1.5735 H   0  0  0  0  0  0  0  0  0  0  0  0
   -1.2730    0.7393    1.3446 H   0  0  0  0  0  0  0  0  0  0  0  0
   -2.6956   -0.2161   -1.1933 H   0  0  0  0  0  0  0  0  0  0  0  0
   -3.3530    0.1352    0.4344 H   0  0  0  0  0  0  0  0  0  0  0  0
   -2.7648    1.4770   -0.5649 H   0  0  0  0  0  0  0  0  0  0  0  0
    0.0090    0.1416   -1.3491 H   0  0  0  0  0  0  0  0  0  0  0  0
   -0.2693    1.7977   -0.7934 H   0  0  0  0  0  0  0  0  0  0  0  0
    1.2879    1.2327    1.2354 H   0  0  0  0  0  0  0  0  0  0  0  0
    3.5605   -0.6283    0.6799 H   0  0  0  0  0  0  0  0  0  0  0  0
    2.8765   -1.3599   -0.8809 H   0  0  0  0  0  0  0  0  0  0  0  0
  1  2  1  0
  2  3  1  0
  2  4  1  0
  4  5  1  0
  5  6  1  0
  6  7  1  0
  7  8  1  0
  8  9  2  0
  8  5  1  0
  1 10  1  0
  1 11  1  0
  1 12  1  0
  2 13  1  0
  3 14  1  0
  3 15  1  0
  3 16  1  0
  4 17  1  0
  4 18  1  0
  5 19  1  0
  7 20  1  0
  7 21  1  0
M  END
