
     RDKit          3D

 21 21  0  0  0  0  0  0  0  0999 V2000
   -2.2644   -0.8836   -0.4121 C   0  0  0  0  0  0  0  0  0  0  0  0
   -1.3013    0.2006    0.0062 C   0  0  0  0  0  0  0  0  0  0  0  0
   -2.0173    1.1180    0.9799 C   0  0  0  0  0  0  0  0  0  0  0  0
   -0.1362   -0.3148    0.5499 O   0  0  0  0  0  0  0  0  0  0  0  0
    0.9225    0.0580   -0.2209 C   0  0  0  0  0  0  0  0  0  0  0  0
    1.8591   -1.0792   -0.6500 C   0  0  0  0  0  0  0  0  0  0  0  0
    2.9564   -0.0906   -0.5221 C   0  0  0  0  0  0  0  0  0  0  0  0
    4.0256    0.1116   -1.0395 O   0  0  0  0  0  0  0  0  0  0  0  0
    2.1544    0.5578    0.5411 C   0  0  0  0  0  0  0  0  0  0  0  0
   -1.6972   -1.8254   -0.5555 H   0  0  0  0  0  0  0  0  0  0  0  0
   -2.7324   -0.6469   -1.3839 H   0  0  0  0  0  0  0  0  0  0  0  0
   -2.9814   -1.0461    0.4009 H   0  0  0  0  0  0  0  0  0  0  0  0
   -1.0294    0.7686   -0.9017 H   0  0  0  0  0  0  0  0  0  0  0  0
   -3.1181    1.0800    0.8064 H   0  0  0  0  0  0  0  0  0  0  0  0
   -1.8002    0.8615    2.0358 H   0  0  0  0  0  0  0  0  0  0  0  0
   -1.6470    2.1648    0.8432 H   0  0  0  0  0  0  0  0  0  0  0  0
    0.7027    0.6755   -1.1057 H   0  0  0  0  0  0  0  0  0  0  0  0
    1.6561   -1.4731   -1.6405 H   0  0  0  0  0  0  0  0  0  0  0  0
    1.9769   -1.8478    0.1676 H   0  0  0  0  0  0  0  0  0  0  0  0
    2.2265    1.6415    0.6221 H   0  0  0  0  0  0  0  0  0  0  0  0
    2.2445   -0.0304    1.4788 H   0  0  0  0  0  0  0  0  0  0  0  0
  1  2  1  0
  2  3  1  0
  2  4  1  0
  4  5  1  0
  5  6  1  0
  6  7  1  0
  7  8  2  0
  7  9  1  0
  9  5  1  0
  1 10  1  0
  1 11  1  0
  1 12  1  0
  2 13  1  0
  3 14  1  0
  3 15  1  0
  3 16  1  0
  5 17  1  0
  6 18  1  0
  6 19  1  0
  9 20  1  0
  9 21  1  0
M  END
