
     RDKit          3D

 23 23  0  0  0  0  0  0  0  0999 V2000
   -1.7766   -0.3094    1.0062 C   0  0  0  0  0  0  0  0  0  0  0  0
   -1.3189    0.2126   -0.3131 C   0  0  0  0  0  0  0  0  0  0  0  0
   -1.9340    1.5713   -0.6192 C   0  0  0  0  0  0  0  0  0  0  0  0
   -1.6818   -0.6355   -1.3787 O   0  0  0  0  0  0  0  0  0  0  0  0
    0.1829    0.3876   -0.3947 C   0  0  0  0  0  0  0  0  0  0  0  0
    0.8319   -0.9590   -0.1678 C   0  0  0  0  0  0  0  0  0  0  0  0
    2.3419   -0.8684   -0.2341 C   0  0  0  0  0  0  0  0  0  0  0  0
    3.0439    0.0228    0.7331 C   0  0  0  0  0  0  0  0  0  0  0  0
    2.9381    0.3106   -0.6423 O   0  0  0  0  0  0  0  0  0  0  0  0
   -0.9582   -0.3368    1.7804 H   0  0  0  0  0  0  0  0  0  0  0  0
   -2.1560   -1.3508    0.8487 H   0  0  0  0  0  0  0  0  0  0  0  0
   -2.6000    0.3631    1.3825 H   0  0  0  0  0  0  0  0  0  0  0  0
   -2.9672    1.4757   -1.0120 H   0  0  0  0  0  0  0  0  0  0  0  0
   -1.8856    2.1505    0.3304 H   0  0  0  0  0  0  0  0  0  0  0  0
   -1.2780    2.0880   -1.3375 H   0  0  0  0  0  0  0  0  0  0  0  0
   -1.9424   -1.5062   -0.9847 H   0  0  0  0  0  0  0  0  0  0  0  0
    0.4704    1.0740    0.4319 H   0  0  0  0  0  0  0  0  0  0  0  0
    0.4527    0.8381   -1.3474 H   0  0  0  0  0  0  0  0  0  0  0  0
    0.4518   -1.6885   -0.9074 H   0  0  0  0  0  0  0  0  0  0  0  0
    0.5777   -1.3080    0.8523 H   0  0  0  0  0  0  0  0  0  0  0  0
    2.8221   -1.8172   -0.5516 H   0  0  0  0  0  0  0  0  0  0  0  0
    2.3713    0.6103    1.4058 H   0  0  0  0  0  0  0  0  0  0  0  0
    4.0139   -0.3247    1.1193 H   0  0  0  0  0  0  0  0  0  0  0  0
  1  2  1  0
  2  3  1  0
  2  4  1  0
  2  5  1  0
  5  6  1  0
  6  7  1  0
  7  8  1  0
  8  9  1  0
  9  7  1  0
  1 10  1  0
  1 11  1  0
  1 12  1  0
  3 13  1  0
  3 14  1  0
  3 15  1  0
  4 16  1  0
  5 17  1  0
  5 18  1  0
  6 19  1  0
  6 20  1  0
  7 21  1  0
  8 22  1  0
  8 23  1  0
M  END
