
     RDKit          3D

 27 27  0  0  0  0  0  0  0  0999 V2000
   -1.7622    1.1567    0.9586 C   0  0  0  0  0  0  0  0  0  0  0  0
   -1.1659    0.1411   -0.0266 C   0  0  0  0  0  0  0  0  0  0  0  0
   -2.0632    0.2322   -1.2704 C   0  0  0  0  0  0  0  0  0  0  0  0
   -1.3618   -1.2038    0.5444 C   0  0  0  0  0  0  0  0  0  0  0  0
    0.1924    0.5717   -0.3647 C   0  0  0  0  0  0  0  0  0  0  0  0
    0.9472   -0.3232   -1.3402 C   0  0  0  0  0  0  0  0  0  0  0  0
    1.4575    0.0202    0.0773 C   0  0  0  0  0  0  0  0  0  0  0  0
    2.6786    0.9562    0.0937 C   0  0  0  0  0  0  0  0  0  0  0  0
    1.6451   -1.1742    0.9347 C   0  0  0  0  0  0  0  0  0  0  0  0
   -0.9354    1.6273    1.5262 H   0  0  0  0  0  0  0  0  0  0  0  0
   -2.2641    1.9828    0.4084 H   0  0  0  0  0  0  0  0  0  0  0  0
   -2.4893    0.6926    1.6280 H   0  0  0  0  0  0  0  0  0  0  0  0
   -3.1076    0.3146   -0.8741 H   0  0  0  0  0  0  0  0  0  0  0  0
   -1.9541   -0.7374   -1.8136 H   0  0  0  0  0  0  0  0  0  0  0  0
   -1.8299    1.1085   -1.8693 H   0  0  0  0  0  0  0  0  0  0  0  0
   -1.1288   -2.0182   -0.1998 H   0  0  0  0  0  0  0  0  0  0  0  0
   -0.9112   -1.3854    1.5308 H   0  0  0  0  0  0  0  0  0  0  0  0
   -2.4753   -1.3295    0.7124 H   0  0  0  0  0  0  0  0  0  0  0  0
    0.2283    1.6513   -0.7078 H   0  0  0  0  0  0  0  0  0  0  0  0
    0.5386   -1.3366   -1.5071 H   0  0  0  0  0  0  0  0  0  0  0  0
    1.4952    0.1016   -2.1765 H   0  0  0  0  0  0  0  0  0  0  0  0
    3.6013    0.3998   -0.1814 H   0  0  0  0  0  0  0  0  0  0  0  0
    2.5671    1.7527   -0.6715 H   0  0  0  0  0  0  0  0  0  0  0  0
    2.8021    1.3666    1.1071 H   0  0  0  0  0  0  0  0  0  0  0  0
    2.7377   -1.4520    0.9288 H   0  0  0  0  0  0  0  0  0  0  0  0
    1.1487   -2.1031    0.5389 H   0  0  0  0  0  0  0  0  0  0  0  0
    1.4090   -1.0124    2.0139 H   0  0  0  0  0  0  0  0  0  0  0  0
  1  2  1  0
  2  3  1  0
  2  4  1  0
  2  5  1  0
  5  6  1  0
  6  7  1  0
  7  8  1  0
  7  9  1  0
  7  5  1  0
  1 10  1  0
  1 11  1  0
  1 12  1  0
  3 13  1  0
  3 14  1  0
  3 15  1  0
  4 16  1  0
  4 17  1  0
  4 18  1  0
  5 19  1  0
  6 20  1  0
  6 21  1  0
  8 22  1  0
  8 23  1  0
  8 24  1  0
  9 25  1  0
  9 26  1  0
  9 27  1  0
M  END
