
     RDKit          3D

 23 23  0  0  0  0  0  0  0  0999 V2000
    2.3928   -0.6603   -0.2289 C   0  0  0  0  0  0  0  0  0  0  0  0
    1.3230    0.3523    0.1949 C   0  0  0  0  0  0  0  0  0  0  0  0
    1.5984    1.6406   -0.4393 C   0  0  0  0  0  0  0  0  0  0  0  0
    1.8680    1.7014   -1.6163 O   0  0  0  0  0  0  0  0  0  0  0  0
   -0.0045   -0.2252   -0.2384 C   0  0  0  0  0  0  0  0  0  0  0  0
   -0.3206   -1.5666    0.3874 C   0  0  0  0  0  0  0  0  0  0  0  0
   -1.7765   -1.0847    0.4333 C   0  0  0  0  0  0  0  0  0  0  0  0
   -1.1947    0.3127    0.5333 C   0  0  0  0  0  0  0  0  0  0  0  0
   -2.0463    1.2851   -0.2587 C   0  0  0  0  0  0  0  0  0  0  0  0
    2.1236   -1.0161   -1.2486 H   0  0  0  0  0  0  0  0  0  0  0  0
    3.4013   -0.2205   -0.1749 H   0  0  0  0  0  0  0  0  0  0  0  0
    2.2597   -1.5210    0.4683 H   0  0  0  0  0  0  0  0  0  0  0  0
    1.3274    0.3916    1.3022 H   0  0  0  0  0  0  0  0  0  0  0  0
    1.5627    2.5454    0.1398 H   0  0  0  0  0  0  0  0  0  0  0  0
   -0.1475   -0.2505   -1.3362 H   0  0  0  0  0  0  0  0  0  0  0  0
   -0.2097   -2.4412   -0.2760 H   0  0  0  0  0  0  0  0  0  0  0  0
    0.1144   -1.6605    1.3970 H   0  0  0  0  0  0  0  0  0  0  0  0
   -2.3177   -1.4393    1.3102 H   0  0  0  0  0  0  0  0  0  0  0  0
   -2.2467   -1.2389   -0.5445 H   0  0  0  0  0  0  0  0  0  0  0  0
   -0.9255    0.6436    1.5495 H   0  0  0  0  0  0  0  0  0  0  0  0
   -2.1800    0.8324   -1.2694 H   0  0  0  0  0  0  0  0  0  0  0  0
   -1.5731    2.2699   -0.3379 H   0  0  0  0  0  0  0  0  0  0  0  0
   -3.0286    1.3498    0.2532 H   0  0  0  0  0  0  0  0  0  0  0  0
  1  2  1  0
  2  3  1  0
  3  4  2  0
  2  5  1  0
  5  6  1  0
  6  7  1  0
  7  8  1  0
  8  9  1  0
  8  5  1  0
  1 10  1  0
  1 11  1  0
  1 12  1  0
  2 13  1  0
  3 14  1  0
  5 15  1  0
  6 16  1  0
  6 17  1  0
  7 18  1  0
  7 19  1  0
  8 20  1  0
  9 21  1  0
  9 22  1  0
  9 23  1  0
M  END
