
     RDKit          3D

 23 23  0  0  0  0  0  0  0  0999 V2000
   -1.7245   -0.8606    1.0692 C   0  0  0  0  0  0  0  0  0  0  0  0
   -1.0733   -0.4917   -0.2700 C   0  0  0  0  0  0  0  0  0  0  0  0
   -1.9288    0.5698   -0.8977 C   0  0  0  0  0  0  0  0  0  0  0  0
    0.3251   -0.0548    0.0223 C   0  0  0  0  0  0  0  0  0  0  0  0
    0.4571    1.1367    0.9376 C   0  0  0  0  0  0  0  0  0  0  0  0
    1.2984   -1.2164    0.2168 C   0  0  0  0  0  0  0  0  0  0  0  0
    1.4289   -0.2375   -0.9554 C   0  0  0  0  0  0  0  0  0  0  0  0
    2.6312    0.6020   -0.8699 C   0  0  0  0  0  0  0  0  0  0  0  0
    3.2274    0.8570   -1.9020 O   0  0  0  0  0  0  0  0  0  0  0  0
   -2.3206   -0.0145    1.4603 H   0  0  0  0  0  0  0  0  0  0  0  0
   -0.9384   -1.0639    1.8406 H   0  0  0  0  0  0  0  0  0  0  0  0
   -2.2995   -1.8013    0.9783 H   0  0  0  0  0  0  0  0  0  0  0  0
   -1.0695   -1.3981   -0.9172 H   0  0  0  0  0  0  0  0  0  0  0  0
   -2.8380    0.7972   -0.3028 H   0  0  0  0  0  0  0  0  0  0  0  0
   -2.3063    0.2316   -1.8990 H   0  0  0  0  0  0  0  0  0  0  0  0
   -1.4022    1.5300   -1.0463 H   0  0  0  0  0  0  0  0  0  0  0  0
    1.4089    1.2018    1.4574 H   0  0  0  0  0  0  0  0  0  0  0  0
   -0.3711    1.1311    1.6798 H   0  0  0  0  0  0  0  0  0  0  0  0
    0.3371    2.0497    0.3080 H   0  0  0  0  0  0  0  0  0  0  0  0
    2.0214   -1.1636    1.0408 H   0  0  0  0  0  0  0  0  0  0  0  0
    0.9918   -2.2191   -0.0718 H   0  0  0  0  0  0  0  0  0  0  0  0
    1.1239   -0.5960   -1.9456 H   0  0  0  0  0  0  0  0  0  0  0  0
    3.0210    1.0107    0.0666 H   0  0  0  0  0  0  0  0  0  0  0  0
  1  2  1  0
  2  3  1  0
  2  4  1  0
  4  5  1  0
  4  6  1  0
  6  7  1  0
  7  8  1  0
  8  9  2  0
  7  4  1  0
  1 10  1  0
  1 11  1  0
  1 12  1  0
  2 13  1  0
  3 14  1  0
  3 15  1  0
  3 16  1  0
  5 17  1  0
  5 18  1  0
  5 19  1  0
  6 20  1  0
  6 21  1  0
  7 22  1  0
  8 23  1  0
M  END
