
     RDKit          3D

 23 23  0  0  0  0  0  0  0  0999 V2000
   -2.6452    0.6352   -0.0792 C   0  0  0  0  0  0  0  0  0  0  0  0
   -1.2338    0.0406   -0.3453 C   0  0  0  0  0  0  0  0  0  0  0  0
   -1.2542   -1.2868    0.3280 C   0  0  0  0  0  0  0  0  0  0  0  0
   -0.2927    1.0569    0.1720 C   0  0  0  0  0  0  0  0  0  0  0  0
    1.1586    0.8247    0.0594 C   0  0  0  0  0  0  0  0  0  0  0  0
    1.6491    0.6540   -1.2479 O   0  0  0  0  0  0  0  0  0  0  0  0
    2.0336   -0.6456   -0.9174 C   0  0  0  0  0  0  0  0  0  0  0  0
    1.7870   -0.4145    0.5534 C   0  0  0  0  0  0  0  0  0  0  0  0
    3.0492   -0.2046    1.1563 O   0  0  0  0  0  0  0  0  0  0  0  0
   -2.6917    0.9458    0.9899 H   0  0  0  0  0  0  0  0  0  0  0  0
   -3.4090   -0.1514   -0.2330 H   0  0  0  0  0  0  0  0  0  0  0  0
   -2.8017    1.5283   -0.7035 H   0  0  0  0  0  0  0  0  0  0  0  0
   -1.1335   -0.0432   -1.4286 H   0  0  0  0  0  0  0  0  0  0  0  0
   -0.5972   -2.0595   -0.0957 H   0  0  0  0  0  0  0  0  0  0  0  0
   -2.2980   -1.7119    0.1377 H   0  0  0  0  0  0  0  0  0  0  0  0
   -1.1438   -1.2426    1.4193 H   0  0  0  0  0  0  0  0  0  0  0  0
   -0.5507    1.3670    1.2212 H   0  0  0  0  0  0  0  0  0  0  0  0
   -0.5040    2.0112   -0.4117 H   0  0  0  0  0  0  0  0  0  0  0  0
    1.7329    1.7302    0.4660 H   0  0  0  0  0  0  0  0  0  0  0  0
    1.3116   -1.3688   -1.3356 H   0  0  0  0  0  0  0  0  0  0  0  0
    3.0603   -0.9177   -1.2036 H   0  0  0  0  0  0  0  0  0  0  0  0
    1.1807   -1.1208    1.1024 H   0  0  0  0  0  0  0  0  0  0  0  0
    3.5926    0.3734    0.5812 H   0  0  0  0  0  0  0  0  0  0  0  0
  1  2  1  0
  2  3  1  0
  2  4  1  0
  4  5  1  0
  5  6  1  0
  6  7  1  0
  7  8  1  0
  8  9  1  0
  8  5  1  0
  1 10  1  0
  1 11  1  0
  1 12  1  0
  2 13  1  0
  3 14  1  0
  3 15  1  0
  3 16  1  0
  4 17  1  0
  4 18  1  0
  5 19  1  0
  7 20  1  0
  7 21  1  0
  8 22  1  0
  9 23  1  0
M  END
