
     RDKit          3D

 25 24  0  0  0  0  0  0  0  0999 V2000
   -1.8493    0.1031    1.3010 C   0  0  0  0  0  0  0  0  0  0  0  0
   -1.3691   -0.0444   -0.1128 C   0  0  0  0  0  0  0  0  0  0  0  0
   -1.3567    1.2860   -0.7874 C   0  0  0  0  0  0  0  0  0  0  0  0
   -0.0722   -0.8017   -0.2020 C   0  0  0  0  0  0  0  0  0  0  0  0
    0.4104   -0.9501   -1.6172 C   0  0  0  0  0  0  0  0  0  0  0  0
    0.9964   -0.3094    0.7333 C   0  0  0  0  0  0  0  0  0  0  0  0
    1.3951    1.1166    0.5284 C   0  0  0  0  0  0  0  0  0  0  0  0
    2.2161   -1.1412    0.5271 C   0  0  0  0  0  0  0  0  0  0  0  0
    2.8603   -0.9022   -0.4932 O   0  0  0  0  0  0  0  0  0  0  0  0
   -1.1134    0.6675    1.8925 H   0  0  0  0  0  0  0  0  0  0  0  0
   -1.9158   -0.9197    1.7639 H   0  0  0  0  0  0  0  0  0  0  0  0
   -2.8643    0.5138    1.3416 H   0  0  0  0  0  0  0  0  0  0  0  0
   -2.1312   -0.6862   -0.6415 H   0  0  0  0  0  0  0  0  0  0  0  0
   -0.7201    1.2635   -1.6899 H   0  0  0  0  0  0  0  0  0  0  0  0
   -2.4041    1.4743   -1.1659 H   0  0  0  0  0  0  0  0  0  0  0  0
   -1.1531    2.1429   -0.1175 H   0  0  0  0  0  0  0  0  0  0  0  0
   -0.3122   -1.8513    0.1483 H   0  0  0  0  0  0  0  0  0  0  0  0
    0.9844   -0.0768   -1.9738 H   0  0  0  0  0  0  0  0  0  0  0  0
   -0.4603   -1.1659   -2.2587 H   0  0  0  0  0  0  0  0  0  0  0  0
    1.0479   -1.8805   -1.6532 H   0  0  0  0  0  0  0  0  0  0  0  0
    0.6220   -0.4097    1.7701 H   0  0  0  0  0  0  0  0  0  0  0  0
    1.3793    1.4237   -0.5404 H   0  0  0  0  0  0  0  0  0  0  0  0
    2.4676    1.2107    0.8401 H   0  0  0  0  0  0  0  0  0  0  0  0
    0.8457    1.8385    1.1632 H   0  0  0  0  0  0  0  0  0  0  0  0
    2.4967   -1.9013    1.2437 H   0  0  0  0  0  0  0  0  0  0  0  0
  1  2  1  0
  2  3  1  0
  2  4  1  0
  4  5  1  0
  4  6  1  0
  6  7  1  0
  6  8  1  0
  8  9  2  0
  1 10  1  0
  1 11  1  0
  1 12  1  0
  2 13  1  0
  3 14  1  0
  3 15  1  0
  3 16  1  0
  4 17  1  0
  5 18  1  0
  5 19  1  0
  5 20  1  0
  6 21  1  0
  7 22  1  0
  7 23  1  0
  7 24  1  0
  8 25  1  0
M  END
