
     RDKit          3D

 16 15  0  0  0  0  0  0  0  0999 V2000
   -0.7700    1.3482    0.1102 C   0  0  0  0  0  0  0  0  0  0  0  0
   -0.5074   -0.0448   -0.3816 C   0  0  0  0  0  0  0  0  0  0  0  0
   -0.9604   -1.0923    0.6193 C   0  0  0  0  0  0  0  0  0  0  0  0
    0.9000   -0.2603   -0.8435 C   0  0  0  0  0  0  0  0  0  0  0  0
    1.9153   -0.0300    0.2016 C   0  0  0  0  0  0  0  0  0  0  0  0
    1.7007    0.3006    1.3367 O   0  0  0  0  0  0  0  0  0  0  0  0
   -0.7421    2.0439   -0.7664 H   0  0  0  0  0  0  0  0  0  0  0  0
   -1.8306    1.3735    0.4612 H   0  0  0  0  0  0  0  0  0  0  0  0
   -0.1493    1.6722    0.9390 H   0  0  0  0  0  0  0  0  0  0  0  0
   -1.1597   -0.1906   -1.2825 H   0  0  0  0  0  0  0  0  0  0  0  0
   -0.8722   -0.7163    1.6649 H   0  0  0  0  0  0  0  0  0  0  0  0
   -2.0614   -1.2921    0.4841 H   0  0  0  0  0  0  0  0  0  0  0  0
   -0.4611   -2.0562    0.4726 H   0  0  0  0  0  0  0  0  0  0  0  0
    0.9687   -1.3018   -1.2248 H   0  0  0  0  0  0  0  0  0  0  0  0
    1.0797    0.4209   -1.6994 H   0  0  0  0  0  0  0  0  0  0  0  0
    2.9497   -0.1750   -0.0914 H   0  0  0  0  0  0  0  0  0  0  0  0
  1  2  1  0
  2  3  1  0
  2  4  1  0
  4  5  1  0
  5  6  2  0
  1  7  1  0
  1  8  1  0
  1  9  1  0
  2 10  1  0
  3 11  1  0
  3 12  1  0
  3 13  1  0
  4 14  1  0
  4 15  1  0
  5 16  1  0
M  END
