
     RDKit          3D

 23 22  0  0  0  0  0  0  0  0999 V2000
   -2.3994   -0.2299    1.4396 C   0  0  0  0  0  0  0  0  0  0  0  0
   -1.4670   -0.4149    0.2631 C   0  0  0  0  0  0  0  0  0  0  0  0
   -1.8494    0.6192   -0.7712 C   0  0  0  0  0  0  0  0  0  0  0  0
   -0.0094   -0.2058    0.6922 C   0  0  0  0  0  0  0  0  0  0  0  0
    0.9002   -0.3961   -0.4995 C   0  0  0  0  0  0  0  0  0  0  0  0
    2.3405   -0.2130   -0.1821 C   0  0  0  0  0  0  0  0  0  0  0  0
    2.8215   -1.0901    0.7760 O   0  0  0  0  0  0  0  0  0  0  0  0
    2.6261    1.1691    0.2707 C   0  0  0  0  0  0  0  0  0  0  0  0
    3.1926    1.4168    1.3213 O   0  0  0  0  0  0  0  0  0  0  0  0
   -2.5424    0.8309    1.6866 H   0  0  0  0  0  0  0  0  0  0  0  0
   -2.0138   -0.8157    2.3181 H   0  0  0  0  0  0  0  0  0  0  0  0
   -3.3963   -0.6325    1.1095 H   0  0  0  0  0  0  0  0  0  0  0  0
   -1.6281   -1.4220   -0.1279 H   0  0  0  0  0  0  0  0  0  0  0  0
   -1.8596    0.1990   -1.7826 H   0  0  0  0  0  0  0  0  0  0  0  0
   -1.1360    1.4873   -0.7238 H   0  0  0  0  0  0  0  0  0  0  0  0
   -2.8545    1.0605   -0.5734 H   0  0  0  0  0  0  0  0  0  0  0  0
    0.2436   -0.8700    1.5423 H   0  0  0  0  0  0  0  0  0  0  0  0
    0.0272    0.8331    1.0826 H   0  0  0  0  0  0  0  0  0  0  0  0
    0.6811   -1.3570   -0.9653 H   0  0  0  0  0  0  0  0  0  0  0  0
    0.6150    0.3920   -1.2374 H   0  0  0  0  0  0  0  0  0  0  0  0
    2.9178   -0.3697   -1.1169 H   0  0  0  0  0  0  0  0  0  0  0  0
    2.4617   -2.0037    0.6976 H   0  0  0  0  0  0  0  0  0  0  0  0
    2.3286    2.0124   -0.3404 H   0  0  0  0  0  0  0  0  0  0  0  0
  1  2  1  0
  2  3  1  0
  2  4  1  0
  4  5  1  0
  5  6  1  0
  6  7  1  0
  6  8  1  0
  8  9  2  0
  1 10  1  0
  1 11  1  0
  1 12  1  0
  2 13  1  0
  3 14  1  0
  3 15  1  0
  3 16  1  0
  4 17  1  0
  4 18  1  0
  5 19  1  0
  5 20  1  0
  6 21  1  0
  7 22  1  0
  8 23  1  0
M  END
