
     RDKit          3D

 21 22  0  0  0  0  0  0  0  0999 V2000
   -1.5096    1.2177   -1.0064 C   0  0  0  0  0  0  0  0  0  0  0  0
   -0.9127   -0.1334   -0.6697 C   0  0  0  0  0  0  0  0  0  0  0  0
   -1.7870   -0.6927    0.4650 C   0  0  0  0  0  0  0  0  0  0  0  0
    0.4278   -0.1974   -0.3248 C   0  0  0  0  0  0  0  0  0  0  0  0
    1.1819   -1.4359    0.0359 C   0  0  0  0  0  0  0  0  0  0  0  0
    2.1539   -0.2981    0.0248 C   0  0  0  0  0  0  0  0  0  0  0  0
    1.5098    0.1300   -1.1289 O   0  0  0  0  0  0  0  0  0  0  0  0
    1.1275    0.4927    0.7801 C   0  0  0  0  0  0  0  0  0  0  0  0
    1.3099    1.8591    0.5914 O   0  0  0  0  0  0  0  0  0  0  0  0
   -1.7703    1.7492   -0.0742 H   0  0  0  0  0  0  0  0  0  0  0  0
   -2.4652    1.0465   -1.5477 H   0  0  0  0  0  0  0  0  0  0  0  0
   -0.8376    1.8166   -1.6579 H   0  0  0  0  0  0  0  0  0  0  0  0
   -1.1607   -0.7922   -1.5486 H   0  0  0  0  0  0  0  0  0  0  0  0
   -2.7486   -1.0749    0.0783 H   0  0  0  0  0  0  0  0  0  0  0  0
   -1.8943    0.0582    1.2678 H   0  0  0  0  0  0  0  0  0  0  0  0
   -1.2638   -1.5672    0.9162 H   0  0  0  0  0  0  0  0  0  0  0  0
    0.9624   -1.8961    1.0040 H   0  0  0  0  0  0  0  0  0  0  0  0
    1.3309   -2.1227   -0.8210 H   0  0  0  0  0  0  0  0  0  0  0  0
    3.1463   -0.3319    0.1921 H   0  0  0  0  0  0  0  0  0  0  0  0
    0.9178    0.1716    1.8157 H   0  0  0  0  0  0  0  0  0  0  0  0
    2.2815    2.0008    0.4451 H   0  0  0  0  0  0  0  0  0  0  0  0
  1  2  1  0
  2  3  1  0
  2  4  1  0
  4  5  1  0
  5  6  1  0
  6  7  1  0
  6  8  1  0
  8  9  1  0
  7  4  1  0
  8  4  1  0
  1 10  1  0
  1 11  1  0
  1 12  1  0
  2 13  1  0
  3 14  1  0
  3 15  1  0
  3 16  1  0
  5 17  1  0
  5 18  1  0
  6 19  1  0
  8 20  1  0
  9 21  1  0
M  END
