
     RDKit          3D

 29 28  0  0  0  0  0  0  0  0999 V2000
    2.3545    1.3971    0.1404 C   0  0  0  0  0  0  0  0  0  0  0  0
    2.0274    0.2146   -0.7347 C   0  0  0  0  0  0  0  0  0  0  0  0
    3.2100   -0.7470   -0.6342 C   0  0  0  0  0  0  0  0  0  0  0  0
    0.7877   -0.4829   -0.2197 C   0  0  0  0  0  0  0  0  0  0  0  0
   -0.3674    0.4685   -0.2305 C   0  0  0  0  0  0  0  0  0  0  0  0
   -1.6473   -0.1106    0.2585 C   0  0  0  0  0  0  0  0  0  0  0  0
   -2.7006    1.0054    0.1735 C   0  0  0  0  0  0  0  0  0  0  0  0
   -2.1317   -1.1920   -0.6844 C   0  0  0  0  0  0  0  0  0  0  0  0
   -1.6182   -0.5637    1.6827 C   0  0  0  0  0  0  0  0  0  0  0  0
    2.1116    1.1848    1.2111 H   0  0  0  0  0  0  0  0  0  0  0  0
    3.4220    1.7110    0.0164 H   0  0  0  0  0  0  0  0  0  0  0  0
    1.7164    2.2500   -0.1930 H   0  0  0  0  0  0  0  0  0  0  0  0
    1.9387    0.5250   -1.7817 H   0  0  0  0  0  0  0  0  0  0  0  0
    3.1702   -1.3322    0.3074 H   0  0  0  0  0  0  0  0  0  0  0  0
    4.1280   -0.1516   -0.6872 H   0  0  0  0  0  0  0  0  0  0  0  0
    3.2341   -1.4425   -1.5173 H   0  0  0  0  0  0  0  0  0  0  0  0
    0.6465   -1.3795   -0.8564 H   0  0  0  0  0  0  0  0  0  0  0  0
    1.0319   -0.8577    0.7925 H   0  0  0  0  0  0  0  0  0  0  0  0
   -0.0649    1.3821    0.2951 H   0  0  0  0  0  0  0  0  0  0  0  0
   -0.5314    0.7602   -1.3060 H   0  0  0  0  0  0  0  0  0  0  0  0
   -3.5600    0.6584    0.7862 H   0  0  0  0  0  0  0  0  0  0  0  0
   -3.0537    1.1262   -0.8643 H   0  0  0  0  0  0  0  0  0  0  0  0
   -2.3385    1.9344    0.6339 H   0  0  0  0  0  0  0  0  0  0  0  0
   -1.3313   -1.7819   -1.1245 H   0  0  0  0  0  0  0  0  0  0  0  0
   -2.7730   -1.8942   -0.1012 H   0  0  0  0  0  0  0  0  0  0  0  0
   -2.7099   -0.7410   -1.5406 H   0  0  0  0  0  0  0  0  0  0  0  0
   -2.4948   -1.2056    1.8692 H   0  0  0  0  0  0  0  0  0  0  0  0
   -1.7604    0.3405    2.3276 H   0  0  0  0  0  0  0  0  0  0  0  0
   -0.6959   -1.0758    1.9812 H   0  0  0  0  0  0  0  0  0  0  0  0
  1  2  1  0
  2  3  1  0
  2  4  1  0
  4  5  1  0
  5  6  1  0
  6  7  1  0
  6  8  1  0
  6  9  1  0
  1 10  1  0
  1 11  1  0
  1 12  1  0
  2 13  1  0
  3 14  1  0
  3 15  1  0
  3 16  1  0
  4 17  1  0
  4 18  1  0
  5 19  1  0
  5 20  1  0
  7 21  1  0
  7 22  1  0
  7 23  1  0
  8 24  1  0
  8 25  1  0
  8 26  1  0
  9 27  1  0
  9 28  1  0
  9 29  1  0
M  END
