
     RDKit          3D

 25 25  0  0  0  0  0  0  0  0999 V2000
   -2.2923    0.9962    1.2985 C   0  0  0  0  0  0  0  0  0  0  0  0
   -1.5516    0.6295    0.0293 C   0  0  0  0  0  0  0  0  0  0  0  0
   -2.4307   -0.3539   -0.7339 C   0  0  0  0  0  0  0  0  0  0  0  0
   -0.2350   -0.0207    0.4082 C   0  0  0  0  0  0  0  0  0  0  0  0
    0.5576   -0.4130   -0.8044 C   0  0  0  0  0  0  0  0  0  0  0  0
    0.8348    0.7181   -1.5738 O   0  0  0  0  0  0  0  0  0  0  0  0
    2.0047    0.8707   -0.8393 C   0  0  0  0  0  0  0  0  0  0  0  0
    2.0069   -0.6253   -0.6554 C   0  0  0  0  0  0  0  0  0  0  0  0
    2.5607   -1.1283    0.6222 C   0  0  0  0  0  0  0  0  0  0  0  0
   -2.2331    2.0778    1.4873 H   0  0  0  0  0  0  0  0  0  0  0  0
   -3.3552    0.6765    1.2533 H   0  0  0  0  0  0  0  0  0  0  0  0
   -1.8477    0.4357    2.1538 H   0  0  0  0  0  0  0  0  0  0  0  0
   -1.4024    1.5625   -0.5443 H   0  0  0  0  0  0  0  0  0  0  0  0
   -2.7730    0.1297   -1.6872 H   0  0  0  0  0  0  0  0  0  0  0  0
   -1.9043   -1.2912   -0.9610 H   0  0  0  0  0  0  0  0  0  0  0  0
   -3.3557   -0.6022   -0.1772 H   0  0  0  0  0  0  0  0  0  0  0  0
    0.3104    0.7045    1.0445 H   0  0  0  0  0  0  0  0  0  0  0  0
   -0.4992   -0.8798    1.0584 H   0  0  0  0  0  0  0  0  0  0  0  0
    0.0881   -1.1747   -1.4355 H   0  0  0  0  0  0  0  0  0  0  0  0
    1.9318    1.4703    0.0807 H   0  0  0  0  0  0  0  0  0  0  0  0
    2.8955    1.1677   -1.4245 H   0  0  0  0  0  0  0  0  0  0  0  0
    2.4400   -1.1533   -1.5202 H   0  0  0  0  0  0  0  0  0  0  0  0
    1.8512   -1.1928    1.4563 H   0  0  0  0  0  0  0  0  0  0  0  0
    3.0089   -2.1407    0.5040 H   0  0  0  0  0  0  0  0  0  0  0  0
    3.3898   -0.4634    0.9603 H   0  0  0  0  0  0  0  0  0  0  0  0
  1  2  1  0
  2  3  1  0
  2  4  1  0
  4  5  1  0
  5  6  1  0
  6  7  1  0
  7  8  1  0
  8  9  1  0
  8  5  1  0
  1 10  1  0
  1 11  1  0
  1 12  1  0
  2 13  1  0
  3 14  1  0
  3 15  1  0
  3 16  1  0
  4 17  1  0
  4 18  1  0
  5 19  1  0
  7 20  1  0
  7 21  1  0
  8 22  1  0
  9 23  1  0
  9 24  1  0
  9 25  1  0
M  END
