
     RDKit          3D

 23 22  0  0  0  0  0  0  0  0999 V2000
   -1.1684    0.8970   -1.1383 C   0  0  0  0  0  0  0  0  0  0  0  0
   -0.7130    0.0223   -0.0303 C   0  0  0  0  0  0  0  0  0  0  0  0
   -0.8909    0.8085    1.2749 C   0  0  0  0  0  0  0  0  0  0  0  0
   -1.7090   -1.1392    0.0860 C   0  0  0  0  0  0  0  0  0  0  0  0
   -2.9846   -0.6151    0.1967 O   0  0  0  0  0  0  0  0  0  0  0  0
    0.5287   -0.5076   -0.1377 O   0  0  0  0  0  0  0  0  0  0  0  0
    1.5711    0.3600   -0.2240 C   0  0  0  0  0  0  0  0  0  0  0  0
    2.8552   -0.4660   -0.3359 C   0  0  0  0  0  0  0  0  0  0  0  0
    3.0233   -1.2839    0.7707 O   0  0  0  0  0  0  0  0  0  0  0  0
   -0.3968    1.2896   -1.7947 H   0  0  0  0  0  0  0  0  0  0  0  0
   -1.8931    0.3503   -1.8126 H   0  0  0  0  0  0  0  0  0  0  0  0
   -1.7697    1.7830   -0.7774 H   0  0  0  0  0  0  0  0  0  0  0  0
   -0.2507    1.7063    1.1972 H   0  0  0  0  0  0  0  0  0  0  0  0
   -0.5811    0.1321    2.1077 H   0  0  0  0  0  0  0  0  0  0  0  0
   -1.9736    1.0623    1.3184 H   0  0  0  0  0  0  0  0  0  0  0  0
   -1.6473   -1.8048   -0.7938 H   0  0  0  0  0  0  0  0  0  0  0  0
   -1.4758   -1.6730    1.0408 H   0  0  0  0  0  0  0  0  0  0  0  0
   -3.6189   -1.2717   -0.2067 H   0  0  0  0  0  0  0  0  0  0  0  0
    1.7096    1.0181    0.6409 H   0  0  0  0  0  0  0  0  0  0  0  0
    1.5189    0.9327   -1.1909 H   0  0  0  0  0  0  0  0  0  0  0  0
    2.8226   -1.1203   -1.2362 H   0  0  0  0  0  0  0  0  0  0  0  0
    3.7305    0.2019   -0.4756 H   0  0  0  0  0  0  0  0  0  0  0  0
    3.3130   -0.6826    1.5209 H   0  0  0  0  0  0  0  0  0  0  0  0
  1  2  1  0
  2  3  1  0
  2  4  1  0
  4  5  1  0
  2  6  1  0
  6  7  1  0
  7  8  1  0
  8  9  1  0
  1 10  1  0
  1 11  1  0
  1 12  1  0
  3 13  1  0
  3 14  1  0
  3 15  1  0
  4 16  1  0
  4 17  1  0
  5 18  1  0
  7 19  1  0
  7 20  1  0
  8 21  1  0
  8 22  1  0
  9 23  1  0
M  END
