
     RDKit          3D

 25 25  0  0  0  0  0  0  0  0999 V2000
   -1.1139    1.4961   -0.3830 C   0  0  0  0  0  0  0  0  0  0  0  0
   -0.7242    0.0979   -0.7859 C   0  0  0  0  0  0  0  0  0  0  0  0
   -1.9065   -0.7984   -0.9150 C   0  0  0  0  0  0  0  0  0  0  0  0
    0.3501   -0.4308    0.1214 C   0  0  0  0  0  0  0  0  0  0  0  0
    0.7350   -1.8671   -0.2889 C   0  0  0  0  0  0  0  0  0  0  0  0
   -0.1352   -0.5603    1.5539 C   0  0  0  0  0  0  0  0  0  0  0  0
    1.6120    0.3601    0.1433 C   0  0  0  0  0  0  0  0  0  0  0  0
    1.8295    1.7114    0.5122 C   0  0  0  0  0  0  0  0  0  0  0  0
    1.7007    1.3750   -0.8711 O   0  0  0  0  0  0  0  0  0  0  0  0
   -1.0528    1.6196    0.7009 H   0  0  0  0  0  0  0  0  0  0  0  0
   -0.4758    2.2544   -0.8807 H   0  0  0  0  0  0  0  0  0  0  0  0
   -2.1554    1.7432   -0.7104 H   0  0  0  0  0  0  0  0  0  0  0  0
   -0.2786    0.1946   -1.8180 H   0  0  0  0  0  0  0  0  0  0  0  0
   -2.1107   -1.1137   -1.9805 H   0  0  0  0  0  0  0  0  0  0  0  0
   -2.8198   -0.2012   -0.6329 H   0  0  0  0  0  0  0  0  0  0  0  0
   -1.8756   -1.7011   -0.3064 H   0  0  0  0  0  0  0  0  0  0  0  0
   -0.0508   -2.5813   -0.0519 H   0  0  0  0  0  0  0  0  0  0  0  0
    1.1198   -1.8865   -1.3067 H   0  0  0  0  0  0  0  0  0  0  0  0
    1.6027   -2.1145    0.3852 H   0  0  0  0  0  0  0  0  0  0  0  0
   -1.1919   -0.2153    1.6129 H   0  0  0  0  0  0  0  0  0  0  0  0
   -0.1461   -1.6060    1.9221 H   0  0  0  0  0  0  0  0  0  0  0  0
    0.5188    0.0120    2.2616 H   0  0  0  0  0  0  0  0  0  0  0  0
    2.5351   -0.2987    0.1291 H   0  0  0  0  0  0  0  0  0  0  0  0
    2.8922    2.0241    0.7619 H   0  0  0  0  0  0  0  0  0  0  0  0
    1.1413    2.4864    0.8269 H   0  0  0  0  0  0  0  0  0  0  0  0
  1  2  1  0
  2  3  1  0
  2  4  1  0
  4  5  1  0
  4  6  1  0
  4  7  1  0
  7  8  1  0
  8  9  1  0
  9  7  1  0
  1 10  1  0
  1 11  1  0
  1 12  1  0
  2 13  1  0
  3 14  1  0
  3 15  1  0
  3 16  1  0
  5 17  1  0
  5 18  1  0
  5 19  1  0
  6 20  1  0
  6 21  1  0
  6 22  1  0
  7 23  1  0
  8 24  1  0
  8 25  1  0
M  END
