
     RDKit          3D

 18 17  0  0  0  0  0  0  0  0999 V2000
   -0.5558    1.5682    0.7401 C   0  0  0  0  0  0  0  0  0  0  0  0
   -0.3671    0.5384   -0.3525 C   0  0  0  0  0  0  0  0  0  0  0  0
   -1.3215   -0.6263   -0.1261 C   0  0  0  0  0  0  0  0  0  0  0  0
   -1.0988   -1.5510   -1.1734 O   0  0  0  0  0  0  0  0  0  0  0  0
    1.0705    0.0706   -0.3700 C   0  0  0  0  0  0  0  0  0  0  0  0
    1.2120   -0.8751   -1.3841 O   0  0  0  0  0  0  0  0  0  0  0  0
    1.5063   -0.4477    0.9420 C   0  0  0  0  0  0  0  0  0  0  0  0
    1.9250   -1.5805    1.0267 O   0  0  0  0  0  0  0  0  0  0  0  0
   -1.5656    1.9976    0.6144 H   0  0  0  0  0  0  0  0  0  0  0  0
    0.2576    2.3104    0.6290 H   0  0  0  0  0  0  0  0  0  0  0  0
   -0.4828    1.0233    1.7032 H   0  0  0  0  0  0  0  0  0  0  0  0
   -0.6310    1.0221   -1.3141 H   0  0  0  0  0  0  0  0  0  0  0  0
   -1.1663   -1.1098    0.8403 H   0  0  0  0  0  0  0  0  0  0  0  0
   -2.3756   -0.3077   -0.2451 H   0  0  0  0  0  0  0  0  0  0  0  0
   -1.7747   -2.2638   -1.0825 H   0  0  0  0  0  0  0  0  0  0  0  0
    1.7316    0.9238   -0.6198 H   0  0  0  0  0  0  0  0  0  0  0  0
    2.1726   -0.8446   -1.6583 H   0  0  0  0  0  0  0  0  0  0  0  0
    1.4635    0.1521    1.8304 H   0  0  0  0  0  0  0  0  0  0  0  0
  1  2  1  0
  2  3  1  0
  3  4  1  0
  2  5  1  0
  5  6  1  0
  5  7  1  0
  7  8  2  0
  1  9  1  0
  1 10  1  0
  1 11  1  0
  2 12  1  0
  3 13  1  0
  3 14  1  0
  4 15  1  0
  5 16  1  0
  6 17  1  0
  7 18  1  0
M  END
