
     RDKit          3D

 25 25  0  0  0  0  0  0  0  0999 V2000
   -1.9696    1.2961    0.3143 C   0  0  0  0  0  0  0  0  0  0  0  0
   -1.5979    0.0589   -0.4686 C   0  0  0  0  0  0  0  0  0  0  0  0
   -2.8174   -0.8060   -0.6388 C   0  0  0  0  0  0  0  0  0  0  0  0
   -0.5068   -0.7432    0.1895 C   0  0  0  0  0  0  0  0  0  0  0  0
    0.7615    0.0492    0.3525 C   0  0  0  0  0  0  0  0  0  0  0  0
    1.3244    0.5249   -0.9092 C   0  0  0  0  0  0  0  0  0  0  0  0
    2.6412    0.5196   -0.8283 C   0  0  0  0  0  0  0  0  0  0  0  0
    3.0923    0.0358    0.5024 C   0  0  0  0  0  0  0  0  0  0  0  0
    1.8649   -0.7532    0.9895 C   0  0  0  0  0  0  0  0  0  0  0  0
   -1.4311    1.4089    1.2543 H   0  0  0  0  0  0  0  0  0  0  0  0
   -1.8319    2.1842   -0.3666 H   0  0  0  0  0  0  0  0  0  0  0  0
   -3.0670    1.2917    0.5601 H   0  0  0  0  0  0  0  0  0  0  0  0
   -1.2303    0.3187   -1.5001 H   0  0  0  0  0  0  0  0  0  0  0  0
   -3.6447   -0.1325   -0.9905 H   0  0  0  0  0  0  0  0  0  0  0  0
   -2.6660   -1.5668   -1.4037 H   0  0  0  0  0  0  0  0  0  0  0  0
   -3.1640   -1.2615    0.2914 H   0  0  0  0  0  0  0  0  0  0  0  0
   -0.8581   -1.0024    1.2176 H   0  0  0  0  0  0  0  0  0  0  0  0
   -0.3834   -1.6762   -0.3720 H   0  0  0  0  0  0  0  0  0  0  0  0
    0.5320    0.9092    1.0132 H   0  0  0  0  0  0  0  0  0  0  0  0
    0.7641    0.8493   -1.8173 H   0  0  0  0  0  0  0  0  0  0  0  0
    3.3511    0.8223   -1.6111 H   0  0  0  0  0  0  0  0  0  0  0  0
    3.2961    0.8430    1.2117 H   0  0  0  0  0  0  0  0  0  0  0  0
    3.9085   -0.6755    0.3507 H   0  0  0  0  0  0  0  0  0  0  0  0
    1.8566   -1.7750    0.5721 H   0  0  0  0  0  0  0  0  0  0  0  0
    1.7757   -0.7195    2.0871 H   0  0  0  0  0  0  0  0  0  0  0  0
  1  2  1  0
  2  3  1  0
  2  4  1  0
  4  5  1  0
  5  6  1  0
  6  7  2  0
  7  8  1  0
  8  9  1  0
  9  5  1  0
  1 10  1  0
  1 11  1  0
  1 12  1  0
  2 13  1  0
  3 14  1  0
  3 15  1  0
  3 16  1  0
  4 17  1  0
  4 18  1  0
  5 19  1  0
  6 20  1  0
  7 21  1  0
  8 22  1  0
  8 23  1  0
  9 24  1  0
  9 25  1  0
M  END
