
     RDKit          3D

 22 22  0  0  0  0  0  0  0  0999 V2000
   -2.1006   -0.9615    0.0819 C   0  0  0  0  0  0  0  0  0  0  0  0
   -1.2624    0.1902   -0.3854 C   0  0  0  0  0  0  0  0  0  0  0  0
   -2.1393    1.4290   -0.4134 C   0  0  0  0  0  0  0  0  0  0  0  0
   -0.0447    0.3947    0.4888 C   0  0  0  0  0  0  0  0  0  0  0  0
    0.7836   -0.8609    0.4426 C   0  0  0  0  0  0  0  0  0  0  0  0
    1.2800   -1.2951   -0.7914 O   0  0  0  0  0  0  0  0  0  0  0  0
    2.2159   -0.8737    0.2923 C   0  0  0  0  0  0  0  0  0  0  0  0
    3.0317    0.3243   -0.0631 C   0  0  0  0  0  0  0  0  0  0  0  0
   -1.4735   -1.8764    0.0504 H   0  0  0  0  0  0  0  0  0  0  0  0
   -2.5357   -0.7966    1.0708 H   0  0  0  0  0  0  0  0  0  0  0  0
   -2.9504   -1.0600   -0.6345 H   0  0  0  0  0  0  0  0  0  0  0  0
   -0.9017   -0.0471   -1.4097 H   0  0  0  0  0  0  0  0  0  0  0  0
   -3.1063    1.2457    0.1006 H   0  0  0  0  0  0  0  0  0  0  0  0
   -1.6174    2.2847    0.0667 H   0  0  0  0  0  0  0  0  0  0  0  0
   -2.3757    1.6879   -1.4574 H   0  0  0  0  0  0  0  0  0  0  0  0
    0.4964    1.2633    0.1131 H   0  0  0  0  0  0  0  0  0  0  0  0
   -0.3091    0.5836    1.5415 H   0  0  0  0  0  0  0  0  0  0  0  0
    0.3242   -1.7126    1.0232 H   0  0  0  0  0  0  0  0  0  0  0  0
    2.7849   -1.7546    0.6255 H   0  0  0  0  0  0  0  0  0  0  0  0
    2.6422    1.2788    0.2900 H   0  0  0  0  0  0  0  0  0  0  0  0
    3.1717    0.3221   -1.1842 H   0  0  0  0  0  0  0  0  0  0  0  0
    4.0861    0.2341    0.3313 H   0  0  0  0  0  0  0  0  0  0  0  0
  1  2  1  0
  2  3  1  0
  2  4  1  0
  4  5  1  0
  5  6  1  0
  6  7  1  0
  7  8  1  0
  7  5  1  0
  1  9  1  0
  1 10  1  0
  1 11  1  0
  2 12  1  0
  3 13  1  0
  3 14  1  0
  3 15  1  0
  4 16  1  0
  4 17  1  0
  5 18  1  0
  7 19  1  0
  8 20  1  0
  8 21  1  0
  8 22  1  0
M  END
