
     RDKit          3D

 23 23  0  0  0  0  0  0  0  0999 V2000
   -0.7319   -1.2837   -0.0808 C   0  0  0  0  0  0  0  0  0  0  0  0
   -0.6283    0.1588    0.2688 C   0  0  0  0  0  0  0  0  0  0  0  0
    0.4702    0.9402   -0.3413 C   0  0  0  0  0  0  0  0  0  0  0  0
    1.8668    0.5798   -0.0792 C   0  0  0  0  0  0  0  0  0  0  0  0
    2.3031   -0.7895   -0.4982 C   0  0  0  0  0  0  0  0  0  0  0  0
    3.6839   -0.9728   -0.2171 O   0  0  0  0  0  0  0  0  0  0  0  0
   -1.9575    0.8319   -0.1292 C   0  0  0  0  0  0  0  0  0  0  0  0
   -3.2077    0.3863    0.4641 C   0  0  0  0  0  0  0  0  0  0  0  0
   -2.8291    0.0993   -0.9423 O   0  0  0  0  0  0  0  0  0  0  0  0
   -0.4201   -1.9858    0.7459 H   0  0  0  0  0  0  0  0  0  0  0  0
   -1.8449   -1.5201   -0.2133 H   0  0  0  0  0  0  0  0  0  0  0  0
   -0.2987   -1.5716   -1.0589 H   0  0  0  0  0  0  0  0  0  0  0  0
   -0.5279    0.2011    1.3906 H   0  0  0  0  0  0  0  0  0  0  0  0
    0.3375    1.0245   -1.4614 H   0  0  0  0  0  0  0  0  0  0  0  0
    0.3244    2.0150    0.0180 H   0  0  0  0  0  0  0  0  0  0  0  0
    2.1929    0.7853    0.9881 H   0  0  0  0  0  0  0  0  0  0  0  0
    2.5352    1.2929   -0.6629 H   0  0  0  0  0  0  0  0  0  0  0  0
    1.7513   -1.6181    0.0364 H   0  0  0  0  0  0  0  0  0  0  0  0
    2.0946   -0.9180   -1.5668 H   0  0  0  0  0  0  0  0  0  0  0  0
    4.1089   -0.1288    0.0469 H   0  0  0  0  0  0  0  0  0  0  0  0
   -1.8460    1.9214   -0.2842 H   0  0  0  0  0  0  0  0  0  0  0  0
   -3.3217   -0.5302    1.0657 H   0  0  0  0  0  0  0  0  0  0  0  0
   -4.0549    1.0819    0.4883 H   0  0  0  0  0  0  0  0  0  0  0  0
  1  2  1  0
  2  3  1  0
  3  4  1  0
  4  5  1  0
  5  6  1  0
  2  7  1  0
  7  8  1  0
  8  9  1  0
  9  7  1  0
  1 10  1  0
  1 11  1  0
  1 12  1  0
  2 13  1  0
  3 14  1  0
  3 15  1  0
  4 16  1  0
  4 17  1  0
  5 18  1  0
  5 19  1  0
  6 20  1  0
  7 21  1  0
  8 22  1  0
  8 23  1  0
M  END
