
     RDKit          3D

 21 22  0  0  0  0  0  0  0  0999 V2000
    1.9738    0.0714    1.1720 C   0  0  0  0  0  0  0  0  0  0  0  0
    1.1349   -0.1583   -0.0737 C   0  0  0  0  0  0  0  0  0  0  0  0
    1.2577    0.9704   -1.0348 C   0  0  0  0  0  0  0  0  0  0  0  0
   -0.2596   -0.5184    0.2894 C   0  0  0  0  0  0  0  0  0  0  0  0
   -0.5093   -1.6384    1.0417 O   0  0  0  0  0  0  0  0  0  0  0  0
   -1.0894   -0.2902    1.2907 C   0  0  0  0  0  0  0  0  0  0  0  0
   -2.3146   -0.1555    0.3786 C   0  0  0  0  0  0  0  0  0  0  0  0
   -1.2927   -0.0884   -0.7664 C   0  0  0  0  0  0  0  0  0  0  0  0
   -1.4163   -1.0840   -1.7044 O   0  0  0  0  0  0  0  0  0  0  0  0
    3.0332   -0.1357    0.9043 H   0  0  0  0  0  0  0  0  0  0  0  0
    1.6449   -0.5892    2.0011 H   0  0  0  0  0  0  0  0  0  0  0  0
    1.8398    1.1351    1.4650 H   0  0  0  0  0  0  0  0  0  0  0  0
    1.5930   -1.0645   -0.5700 H   0  0  0  0  0  0  0  0  0  0  0  0
    0.8821    1.9258   -0.6314 H   0  0  0  0  0  0  0  0  0  0  0  0
    2.3507    1.0585   -1.3027 H   0  0  0  0  0  0  0  0  0  0  0  0
    0.7450    0.7228   -1.9733 H   0  0  0  0  0  0  0  0  0  0  0  0
   -1.1753   -0.1523    2.3482 H   0  0  0  0  0  0  0  0  0  0  0  0
   -2.8744    0.7683    0.5178 H   0  0  0  0  0  0  0  0  0  0  0  0
   -2.9355   -1.0634    0.3604 H   0  0  0  0  0  0  0  0  0  0  0  0
   -1.0954    0.9259   -1.1172 H   0  0  0  0  0  0  0  0  0  0  0  0
   -1.4925   -0.6399   -2.5953 H   0  0  0  0  0  0  0  0  0  0  0  0
  1  2  1  0
  2  3  1  0
  2  4  1  0
  4  5  1  0
  5  6  1  0
  6  7  1  0
  7  8  1  0
  8  9  1  0
  6  4  1  0
  8  4  1  0
  1 10  1  0
  1 11  1  0
  1 12  1  0
  2 13  1  0
  3 14  1  0
  3 15  1  0
  3 16  1  0
  6 17  1  0
  7 18  1  0
  7 19  1  0
  8 20  1  0
  9 21  1  0
M  END
