
     RDKit          3D

 21 21  0  0  0  0  0  0  0  0999 V2000
   -1.0494   -1.8860   -0.2340 C   0  0  0  0  0  0  0  0  0  0  0  0
    0.1346   -1.1209    0.3055 C   0  0  0  0  0  0  0  0  0  0  0  0
    1.3599   -1.9952    0.0415 C   0  0  0  0  0  0  0  0  0  0  0  0
   -0.0567   -0.9943    1.8289 C   0  0  0  0  0  0  0  0  0  0  0  0
    0.2356    0.1764   -0.2456 C   0  0  0  0  0  0  0  0  0  0  0  0
    0.3052    1.3347   -0.7458 C   0  0  0  0  0  0  0  0  0  0  0  0
    0.3633    2.6804   -1.3397 C   0  0  0  0  0  0  0  0  0  0  0  0
   -0.7719    3.4582   -1.4687 C   0  0  0  0  0  0  0  0  0  0  0  0
    0.1346    3.7480   -0.3436 O   0  0  0  0  0  0  0  0  0  0  0  0
   -1.9389   -1.2603   -0.3557 H   0  0  0  0  0  0  0  0  0  0  0  0
   -0.8223   -2.4527   -1.1419 H   0  0  0  0  0  0  0  0  0  0  0  0
   -1.3132   -2.6524    0.5561 H   0  0  0  0  0  0  0  0  0  0  0  0
    1.2705   -2.3574   -0.9823 H   0  0  0  0  0  0  0  0  0  0  0  0
    2.2370   -1.3559    0.2481 H   0  0  0  0  0  0  0  0  0  0  0  0
    1.3409   -2.8060    0.8073 H   0  0  0  0  0  0  0  0  0  0  0  0
   -0.6312   -0.0642    2.0518 H   0  0  0  0  0  0  0  0  0  0  0  0
   -0.4990   -1.9044    2.2672 H   0  0  0  0  0  0  0  0  0  0  0  0
    0.9956   -0.9396    2.2335 H   0  0  0  0  0  0  0  0  0  0  0  0
    1.3119    2.9422   -1.8968 H   0  0  0  0  0  0  0  0  0  0  0  0
   -1.7648    3.1178   -1.0771 H   0  0  0  0  0  0  0  0  0  0  0  0
   -0.8416    4.3317   -2.1745 H   0  0  0  0  0  0  0  0  0  0  0  0
  1  2  1  0
  2  3  1  0
  2  4  1  0
  2  5  1  0
  5  6  3  0
  6  7  1  0
  7  8  1  0
  8  9  1  0
  9  7  1  0
  1 10  1  0
  1 11  1  0
  1 12  1  0
  3 13  1  0
  3 14  1  0
  3 15  1  0
  4 16  1  0
  4 17  1  0
  4 18  1  0
  7 19  1  0
  8 20  1  0
  8 21  1  0
M  END
