
     RDKit          3D

 19 19  0  0  0  0  0  0  0  0999 V2000
   -1.7355    0.0594   -1.0704 C   0  0  0  0  0  0  0  0  0  0  0  0
   -0.5932   -0.3385   -0.1591 C   0  0  0  0  0  0  0  0  0  0  0  0
   -1.2039   -0.8064    1.1299 C   0  0  0  0  0  0  0  0  0  0  0  0
    0.3863    0.7857    0.0320 C   0  0  0  0  0  0  0  0  0  0  0  0
    1.5776    0.7014    0.8492 C   0  0  0  0  0  0  0  0  0  0  0  0
    1.7725    0.5531   -0.5999 C   0  0  0  0  0  0  0  0  0  0  0  0
    2.0488   -0.7278   -1.0680 O   0  0  0  0  0  0  0  0  0  0  0  0
   -2.0508   -0.7385   -1.7496 H   0  0  0  0  0  0  0  0  0  0  0  0
   -1.3854    0.9311   -1.6569 H   0  0  0  0  0  0  0  0  0  0  0  0
   -2.6011    0.4334   -0.4648 H   0  0  0  0  0  0  0  0  0  0  0  0
   -0.0974   -1.2088   -0.6361 H   0  0  0  0  0  0  0  0  0  0  0  0
   -2.0050   -1.5450    0.8531 H   0  0  0  0  0  0  0  0  0  0  0  0
   -1.6980    0.0026    1.6905 H   0  0  0  0  0  0  0  0  0  0  0  0
   -0.4857   -1.3536    1.7792 H   0  0  0  0  0  0  0  0  0  0  0  0
   -0.0689    1.7939   -0.1268 H   0  0  0  0  0  0  0  0  0  0  0  0
    1.8342   -0.1763    1.4951 H   0  0  0  0  0  0  0  0  0  0  0  0
    1.9719    1.6551    1.2914 H   0  0  0  0  0  0  0  0  0  0  0  0
    2.0983    1.3517   -1.2664 H   0  0  0  0  0  0  0  0  0  0  0  0
    2.2355   -1.3725   -0.3223 H   0  0  0  0  0  0  0  0  0  0  0  0
  1  2  1  0
  2  3  1  0
  2  4  1  0
  4  5  1  0
  5  6  1  0
  6  7  1  0
  6  4  1  0
  1  8  1  0
  1  9  1  0
  1 10  1  0
  2 11  1  0
  3 12  1  0
  3 13  1  0
  3 14  1  0
  4 15  1  0
  5 16  1  0
  5 17  1  0
  6 18  1  0
  7 19  1  0
M  END
