
     RDKit          3D

 25 26  0  0  0  0  0  0  0  0999 V2000
    2.1383    1.3465    0.5543 C   0  0  0  0  0  0  0  0  0  0  0  0
    1.4304    0.3007   -0.2695 C   0  0  0  0  0  0  0  0  0  0  0  0
    2.4199   -0.7395   -0.7754 C   0  0  0  0  0  0  0  0  0  0  0  0
    0.3847   -0.4463    0.5447 C   0  0  0  0  0  0  0  0  0  0  0  0
   -0.3397   -1.5015   -0.2601 C   0  0  0  0  0  0  0  0  0  0  0  0
   -0.9906   -0.2643    0.1924 C   0  0  0  0  0  0  0  0  0  0  0  0
   -2.1890   -0.3338    1.0381 C   0  0  0  0  0  0  0  0  0  0  0  0
   -2.8746    0.6234    0.0625 C   0  0  0  0  0  0  0  0  0  0  0  0
   -1.5605    0.7598   -0.7038 C   0  0  0  0  0  0  0  0  0  0  0  0
    1.5464    2.2658    0.5928 H   0  0  0  0  0  0  0  0  0  0  0  0
    3.0793    1.5993    0.0047 H   0  0  0  0  0  0  0  0  0  0  0  0
    2.3891    0.9254    1.5296 H   0  0  0  0  0  0  0  0  0  0  0  0
    0.9604    0.7551   -1.1660 H   0  0  0  0  0  0  0  0  0  0  0  0
    3.2553   -0.8836   -0.0394 H   0  0  0  0  0  0  0  0  0  0  0  0
    1.9045   -1.7166   -0.8731 H   0  0  0  0  0  0  0  0  0  0  0  0
    2.7998   -0.4847   -1.7875 H   0  0  0  0  0  0  0  0  0  0  0  0
    0.7351   -0.7042    1.5659 H   0  0  0  0  0  0  0  0  0  0  0  0
   -0.0892   -1.6864   -1.3032 H   0  0  0  0  0  0  0  0  0  0  0  0
   -0.5536   -2.4327    0.3224 H   0  0  0  0  0  0  0  0  0  0  0  0
   -2.7133   -1.3059    1.0031 H   0  0  0  0  0  0  0  0  0  0  0  0
   -2.1402    0.0282    2.0687 H   0  0  0  0  0  0  0  0  0  0  0  0
   -3.6236    0.1563   -0.5903 H   0  0  0  0  0  0  0  0  0  0  0  0
   -3.2208    1.5392    0.5538 H   0  0  0  0  0  0  0  0  0  0  0  0
   -1.1403    1.7589   -0.5089 H   0  0  0  0  0  0  0  0  0  0  0  0
   -1.6078    0.4410   -1.7558 H   0  0  0  0  0  0  0  0  0  0  0  0
  1  2  1  0
  2  3  1  0
  2  4  1  0
  4  5  1  0
  5  6  1  0
  6  7  1  0
  7  8  1  0
  8  9  1  0
  6  4  1  0
  9  6  1  0
  1 10  1  0
  1 11  1  0
  1 12  1  0
  2 13  1  0
  3 14  1  0
  3 15  1  0
  3 16  1  0
  4 17  1  0
  5 18  1  0
  5 19  1  0
  7 20  1  0
  7 21  1  0
  8 22  1  0
  8 23  1  0
  9 24  1  0
  9 25  1  0
M  END
