
     RDKit          3D

 23 24  0  0  0  0  0  0  0  0999 V2000
    1.5623   -1.3714    0.3702 C   0  0  0  0  0  0  0  0  0  0  0  0
    1.2106    0.1057    0.1386 C   0  0  0  0  0  0  0  0  0  0  0  0
    1.9523    0.6540   -1.0436 C   0  0  0  0  0  0  0  0  0  0  0  0
   -0.2129    0.2470    0.1324 C   0  0  0  0  0  0  0  0  0  0  0  0
   -0.8668    1.5613   -0.0701 C   0  0  0  0  0  0  0  0  0  0  0  0
   -2.1634    1.2577    0.0382 C   0  0  0  0  0  0  0  0  0  0  0  0
   -2.1569   -0.1963    0.2735 C   0  0  0  0  0  0  0  0  0  0  0  0
   -1.0815   -0.6387   -0.7344 C   0  0  0  0  0  0  0  0  0  0  0  0
   -1.0229   -0.3091    1.2941 C   0  0  0  0  0  0  0  0  0  0  0  0
    2.6755   -1.4360    0.2483 H   0  0  0  0  0  0  0  0  0  0  0  0
    1.1168   -2.0237   -0.3888 H   0  0  0  0  0  0  0  0  0  0  0  0
    1.2514   -1.6057    1.4052 H   0  0  0  0  0  0  0  0  0  0  0  0
    1.6355    0.6266    1.0463 H   0  0  0  0  0  0  0  0  0  0  0  0
    2.6415    1.4926   -0.7770 H   0  0  0  0  0  0  0  0  0  0  0  0
    1.2745    1.0464   -1.8326 H   0  0  0  0  0  0  0  0  0  0  0  0
    2.5821   -0.1529   -1.4753 H   0  0  0  0  0  0  0  0  0  0  0  0
   -0.3626    2.5001   -0.2561 H   0  0  0  0  0  0  0  0  0  0  0  0
   -3.0521    1.8694   -0.0203 H   0  0  0  0  0  0  0  0  0  0  0  0
   -3.0197   -0.7667    0.3837 H   0  0  0  0  0  0  0  0  0  0  0  0
   -1.2030   -0.1694   -1.7274 H   0  0  0  0  0  0  0  0  0  0  0  0
   -0.8725   -1.7077   -0.7078 H   0  0  0  0  0  0  0  0  0  0  0  0
   -0.7678   -1.3576    1.5500 H   0  0  0  0  0  0  0  0  0  0  0  0
   -1.1205    0.3744    2.1528 H   0  0  0  0  0  0  0  0  0  0  0  0
  1  2  1  0
  2  3  1  0
  2  4  1  0
  4  5  1  0
  5  6  2  0
  6  7  1  0
  7  8  1  0
  7  9  1  0
  8  4  1  0
  9  4  1  0
  1 10  1  0
  1 11  1  0
  1 12  1  0
  2 13  1  0
  3 14  1  0
  3 15  1  0
  3 16  1  0
  5 17  1  0
  6 18  1  0
  7 19  1  0
  8 20  1  0
  8 21  1  0
  9 22  1  0
  9 23  1  0
M  END
