
     RDKit          3D

 23 24  0  0  0  0  0  0  0  0999 V2000
   -1.3149    1.2080   -0.7967 C   0  0  0  0  0  0  0  0  0  0  0  0
   -0.7158   -0.0624   -0.1770 C   0  0  0  0  0  0  0  0  0  0  0  0
   -1.2452   -1.2343   -0.9417 C   0  0  0  0  0  0  0  0  0  0  0  0
   -1.3164   -0.1371    1.2260 C   0  0  0  0  0  0  0  0  0  0  0  0
    0.6632   -0.0034   -0.1343 C   0  0  0  0  0  0  0  0  0  0  0  0
    1.6376   -0.9780    0.3671 C   0  0  0  0  0  0  0  0  0  0  0  0
    2.4132    0.1804   -0.1850 C   0  0  0  0  0  0  0  0  0  0  0  0
    1.4662    1.0821    0.5352 C   0  0  0  0  0  0  0  0  0  0  0  0
    1.4988    0.1856   -1.2323 O   0  0  0  0  0  0  0  0  0  0  0  0
   -0.8422    1.3959   -1.7923 H   0  0  0  0  0  0  0  0  0  0  0  0
   -2.4084    1.1215   -0.8580 H   0  0  0  0  0  0  0  0  0  0  0  0
   -0.9969    2.0396   -0.1153 H   0  0  0  0  0  0  0  0  0  0  0  0
   -2.3370   -1.3896   -0.8063 H   0  0  0  0  0  0  0  0  0  0  0  0
   -0.7632   -2.1571   -0.5295 H   0  0  0  0  0  0  0  0  0  0  0  0
   -1.0735   -1.1292   -2.0303 H   0  0  0  0  0  0  0  0  0  0  0  0
   -1.2470    0.8817    1.6504 H   0  0  0  0  0  0  0  0  0  0  0  0
   -2.3728   -0.4587    1.1858 H   0  0  0  0  0  0  0  0  0  0  0  0
   -0.7556   -0.8298    1.8775 H   0  0  0  0  0  0  0  0  0  0  0  0
    1.6748   -1.9199   -0.2200 H   0  0  0  0  0  0  0  0  0  0  0  0
    1.7430   -1.1316    1.4451 H   0  0  0  0  0  0  0  0  0  0  0  0
    3.4144    0.2638   -0.2578 H   0  0  0  0  0  0  0  0  0  0  0  0
    1.3200    2.0871    0.1475 H   0  0  0  0  0  0  0  0  0  0  0  0
    1.5577    0.9856    1.6418 H   0  0  0  0  0  0  0  0  0  0  0  0
  1  2  1  0
  2  3  1  0
  2  4  1  0
  2  5  1  0
  5  6  1  0
  6  7  1  0
  7  8  1  0
  7  9  1  0
  8  5  1  0
  9  5  1  0
  1 10  1  0
  1 11  1  0
  1 12  1  0
  3 13  1  0
  3 14  1  0
  3 15  1  0
  4 16  1  0
  4 17  1  0
  4 18  1  0
  6 19  1  0
  6 20  1  0
  7 21  1  0
  8 22  1  0
  8 23  1  0
M  END
