
     RDKit          3D

 25 26  0  0  0  0  0  0  0  0999 V2000
    1.3258    1.4409    0.3887 C   0  0  0  0  0  0  0  0  0  0  0  0
    1.4504    0.0360    0.9374 C   0  0  0  0  0  0  0  0  0  0  0  0
    2.7851   -0.5047    0.4237 C   0  0  0  0  0  0  0  0  0  0  0  0
    0.3466   -0.8627    0.4529 C   0  0  0  0  0  0  0  0  0  0  0  0
    0.2672   -1.0345   -1.0256 C   0  0  0  0  0  0  0  0  0  0  0  0
   -1.2324   -0.7947   -0.9212 C   0  0  0  0  0  0  0  0  0  0  0  0
   -1.6833    0.5326   -0.4108 C   0  0  0  0  0  0  0  0  0  0  0  0
   -3.1700    0.7233   -0.3554 C   0  0  0  0  0  0  0  0  0  0  0  0
   -1.0474   -0.3478    0.5660 C   0  0  0  0  0  0  0  0  0  0  0  0
    0.5514    2.0356    0.8967 H   0  0  0  0  0  0  0  0  0  0  0  0
    1.2686    1.4690   -0.7154 H   0  0  0  0  0  0  0  0  0  0  0  0
    2.3011    1.9496    0.6401 H   0  0  0  0  0  0  0  0  0  0  0  0
    1.4854    0.0965    2.0250 H   0  0  0  0  0  0  0  0  0  0  0  0
    3.0361   -1.4778    0.8615 H   0  0  0  0  0  0  0  0  0  0  0  0
    3.5613    0.2621    0.5178 H   0  0  0  0  0  0  0  0  0  0  0  0
    2.6276   -0.6872   -0.6725 H   0  0  0  0  0  0  0  0  0  0  0  0
    0.4247   -1.8548    0.9693 H   0  0  0  0  0  0  0  0  0  0  0  0
    0.8103   -0.2871   -1.6471 H   0  0  0  0  0  0  0  0  0  0  0  0
    0.4678   -2.0531   -1.3924 H   0  0  0  0  0  0  0  0  0  0  0  0
   -1.9345   -1.6117   -1.0737 H   0  0  0  0  0  0  0  0  0  0  0  0
   -1.1301    1.4454   -0.7089 H   0  0  0  0  0  0  0  0  0  0  0  0
   -3.4946    1.6806   -0.8238 H   0  0  0  0  0  0  0  0  0  0  0  0
   -3.7140   -0.0777   -0.9285 H   0  0  0  0  0  0  0  0  0  0  0  0
   -3.5533    0.7702    0.7012 H   0  0  0  0  0  0  0  0  0  0  0  0
   -1.7499   -0.8480    1.2949 H   0  0  0  0  0  0  0  0  0  0  0  0
  1  2  1  0
  2  3  1  0
  2  4  1  0
  4  5  1  0
  5  6  1  0
  6  7  1  0
  7  8  1  0
  7  9  1  0
  9  4  1  0
  9  6  1  0
  1 10  1  0
  1 11  1  0
  1 12  1  0
  2 13  1  0
  3 14  1  0
  3 15  1  0
  3 16  1  0
  4 17  1  0
  5 18  1  0
  5 19  1  0
  6 20  1  0
  7 21  1  0
  8 22  1  0
  8 23  1  0
  8 24  1  0
  9 25  1  0
M  END
