
     RDKit          3D

 23 23  0  0  0  0  0  0  0  0999 V2000
   -1.4276    1.2478    0.3927 C   0  0  0  0  0  0  0  0  0  0  0  0
   -1.1116   -0.2332    0.4070 C   0  0  0  0  0  0  0  0  0  0  0  0
   -2.2946   -1.0632    0.0526 C   0  0  0  0  0  0  0  0  0  0  0  0
    0.0723   -0.4528   -0.5006 C   0  0  0  0  0  0  0  0  0  0  0  0
    0.4832   -1.8696   -0.5740 C   0  0  0  0  0  0  0  0  0  0  0  0
    1.1969   -2.2024   -1.4900 O   0  0  0  0  0  0  0  0  0  0  0  0
    1.2647    0.3464   -0.0730 C   0  0  0  0  0  0  0  0  0  0  0  0
    2.5110    0.2331   -0.8736 C   0  0  0  0  0  0  0  0  0  0  0  0
    1.7166    1.5434   -0.7889 C   0  0  0  0  0  0  0  0  0  0  0  0
   -0.6642    1.8173    0.9836 H   0  0  0  0  0  0  0  0  0  0  0  0
   -2.4225    1.4165    0.8410 H   0  0  0  0  0  0  0  0  0  0  0  0
   -1.4777    1.6048   -0.6660 H   0  0  0  0  0  0  0  0  0  0  0  0
   -0.7838   -0.4822    1.4573 H   0  0  0  0  0  0  0  0  0  0  0  0
   -2.5093   -1.8228    0.8404 H   0  0  0  0  0  0  0  0  0  0  0  0
   -2.2408   -1.5130   -0.9528 H   0  0  0  0  0  0  0  0  0  0  0  0
   -3.1940   -0.3828    0.0578 H   0  0  0  0  0  0  0  0  0  0  0  0
   -0.2187   -0.1235   -1.5370 H   0  0  0  0  0  0  0  0  0  0  0  0
    0.1788   -2.6059    0.1421 H   0  0  0  0  0  0  0  0  0  0  0  0
    1.4315    0.3272    1.0368 H   0  0  0  0  0  0  0  0  0  0  0  0
    2.4904   -0.2860   -1.8326 H   0  0  0  0  0  0  0  0  0  0  0  0
    3.5027    0.2486   -0.3594 H   0  0  0  0  0  0  0  0  0  0  0  0
    2.1978    2.3582   -0.1762 H   0  0  0  0  0  0  0  0  0  0  0  0
    1.2991    1.8942   -1.7306 H   0  0  0  0  0  0  0  0  0  0  0  0
  1  2  1  0
  2  3  1  0
  2  4  1  0
  4  5  1  0
  5  6  2  0
  4  7  1  0
  7  8  1  0
  8  9  1  0
  9  7  1  0
  1 10  1  0
  1 11  1  0
  1 12  1  0
  2 13  1  0
  3 14  1  0
  3 15  1  0
  3 16  1  0
  4 17  1  0
  5 18  1  0
  7 19  1  0
  8 20  1  0
  8 21  1  0
  9 22  1  0
  9 23  1  0
M  END
