
     RDKit          3D

 16 15  0  0  0  0  0  0  0  0999 V2000
   -1.4004   -0.9055   -0.2449 C   0  0  0  0  0  0  0  0  0  0  0  0
   -0.7270    0.4375   -0.0464 C   0  0  0  0  0  0  0  0  0  0  0  0
   -1.6511    1.3146    0.7152 C   0  0  0  0  0  0  0  0  0  0  0  0
   -1.2442    2.4201    1.0186 O   0  0  0  0  0  0  0  0  0  0  0  0
    0.5879    0.3139    0.6228 C   0  0  0  0  0  0  0  0  0  0  0  0
    0.7442    0.8818    1.6831 O   0  0  0  0  0  0  0  0  0  0  0  0
    1.7296   -0.4607    0.0804 C   0  0  0  0  0  0  0  0  0  0  0  0
    2.8402   -0.4066    0.9130 O   0  0  0  0  0  0  0  0  0  0  0  0
   -0.6789   -1.7092   -0.4169 H   0  0  0  0  0  0  0  0  0  0  0  0
   -2.0783   -1.1142    0.5830 H   0  0  0  0  0  0  0  0  0  0  0  0
   -2.0527   -0.7774   -1.1564 H   0  0  0  0  0  0  0  0  0  0  0  0
   -0.5592    0.9240   -1.0267 H   0  0  0  0  0  0  0  0  0  0  0  0
   -2.6439    1.0354    1.0102 H   0  0  0  0  0  0  0  0  0  0  0  0
    1.4872   -1.5500   -0.0386 H   0  0  0  0  0  0  0  0  0  0  0  0
    1.9971   -0.0888   -0.9502 H   0  0  0  0  0  0  0  0  0  0  0  0
    3.6495   -0.3148    0.3248 H   0  0  0  0  0  0  0  0  0  0  0  0
  1  2  1  0
  2  3  1  0
  3  4  2  0
  2  5  1  0
  5  6  2  0
  5  7  1  0
  7  8  1  0
  1  9  1  0
  1 10  1  0
  1 11  1  0
  2 12  1  0
  3 13  1  0
  7 14  1  0
  7 15  1  0
  8 16  1  0
M  END
