
     RDKit          3D

 18 17  0  0  0  0  0  0  0  0999 V2000
   -1.2661   -1.5739    0.3553 C   0  0  0  0  0  0  0  0  0  0  0  0
   -0.5067   -0.4748   -0.3042 C   0  0  0  0  0  0  0  0  0  0  0  0
   -1.0403    0.8967    0.0199 C   0  0  0  0  0  0  0  0  0  0  0  0
   -2.3600    1.0678   -0.3709 O   0  0  0  0  0  0  0  0  0  0  0  0
    0.9285   -0.4977    0.0740 C   0  0  0  0  0  0  0  0  0  0  0  0
    1.3169   -1.3561    0.8356 O   0  0  0  0  0  0  0  0  0  0  0  0
    1.9024    0.4825   -0.4396 C   0  0  0  0  0  0  0  0  0  0  0  0
    3.1602    0.2298    0.0718 O   0  0  0  0  0  0  0  0  0  0  0  0
   -1.4843   -2.3506   -0.4074 H   0  0  0  0  0  0  0  0  0  0  0  0
   -0.6162   -2.0710    1.1155 H   0  0  0  0  0  0  0  0  0  0  0  0
   -2.2412   -1.2666    0.7782 H   0  0  0  0  0  0  0  0  0  0  0  0
   -0.5389   -0.5708   -1.4185 H   0  0  0  0  0  0  0  0  0  0  0  0
   -0.9932    1.0879    1.1202 H   0  0  0  0  0  0  0  0  0  0  0  0
   -0.4541    1.7032   -0.4642 H   0  0  0  0  0  0  0  0  0  0  0  0
   -2.7107    1.8283    0.1638 H   0  0  0  0  0  0  0  0  0  0  0  0
    1.9872    0.4705   -1.5452 H   0  0  0  0  0  0  0  0  0  0  0  0
    1.5459    1.4944   -0.0964 H   0  0  0  0  0  0  0  0  0  0  0  0
    3.3707    0.9003    0.7784 H   0  0  0  0  0  0  0  0  0  0  0  0
  1  2  1  0
  2  3  1  0
  3  4  1  0
  2  5  1  0
  5  6  2  0
  5  7  1  0
  7  8  1  0
  1  9  1  0
  1 10  1  0
  1 11  1  0
  2 12  1  0
  3 13  1  0
  3 14  1  0
  4 15  1  0
  7 16  1  0
  7 17  1  0
  8 18  1  0
M  END
