
     RDKit          3D

 23 23  0  0  0  0  0  0  0  0999 V2000
    2.1473    0.9936   -0.5846 C   0  0  0  0  0  0  0  0  0  0  0  0
    1.7605   -0.0716    0.4200 C   0  0  0  0  0  0  0  0  0  0  0  0
    2.2503   -1.3818   -0.0954 C   0  0  0  0  0  0  0  0  0  0  0  0
    0.2892   -0.0525    0.7238 C   0  0  0  0  0  0  0  0  0  0  0  0
   -0.0860    1.2721    1.2867 O   0  0  0  0  0  0  0  0  0  0  0  0
   -0.6910    0.7085    0.0514 C   0  0  0  0  0  0  0  0  0  0  0  0
   -2.1547    0.4292    0.3596 C   0  0  0  0  0  0  0  0  0  0  0  0
   -2.8815   -0.0961   -0.8317 C   0  0  0  0  0  0  0  0  0  0  0  0
   -2.2961   -0.4786    1.4061 O   0  0  0  0  0  0  0  0  0  0  0  0
    3.0831    0.7003   -1.1158 H   0  0  0  0  0  0  0  0  0  0  0  0
    1.3689    1.0779   -1.3676 H   0  0  0  0  0  0  0  0  0  0  0  0
    2.2674    1.9461   -0.0291 H   0  0  0  0  0  0  0  0  0  0  0  0
    2.3517    0.1595    1.3492 H   0  0  0  0  0  0  0  0  0  0  0  0
    3.3528   -1.3159   -0.2011 H   0  0  0  0  0  0  0  0  0  0  0  0
    2.0650   -2.2264    0.6063 H   0  0  0  0  0  0  0  0  0  0  0  0
    1.8528   -1.6602   -1.0796 H   0  0  0  0  0  0  0  0  0  0  0  0
   -0.0289   -0.8097    1.4694 H   0  0  0  0  0  0  0  0  0  0  0  0
   -0.5451    1.4249   -0.7515 H   0  0  0  0  0  0  0  0  0  0  0  0
   -2.6243    1.3810    0.6926 H   0  0  0  0  0  0  0  0  0  0  0  0
   -2.3151   -0.9201   -1.3230 H   0  0  0  0  0  0  0  0  0  0  0  0
   -3.8894   -0.4247   -0.5033 H   0  0  0  0  0  0  0  0  0  0  0  0
   -3.0100    0.7675   -1.5469 H   0  0  0  0  0  0  0  0  0  0  0  0
   -2.2668   -1.4230    1.0645 H   0  0  0  0  0  0  0  0  0  0  0  0
  1  2  1  0
  2  3  1  0
  2  4  1  0
  4  5  1  0
  5  6  1  0
  6  7  1  0
  7  8  1  0
  7  9  1  0
  6  4  1  0
  1 10  1  0
  1 11  1  0
  1 12  1  0
  2 13  1  0
  3 14  1  0
  3 15  1  0
  3 16  1  0
  4 17  1  0
  6 18  1  0
  7 19  1  0
  8 20  1  0
  8 21  1  0
  8 22  1  0
  9 23  1  0
M  END
