
     RDKit          3D

 25 25  0  0  0  0  0  0  0  0999 V2000
   -1.5098   -1.6759    0.4946 C   0  0  0  0  0  0  0  0  0  0  0  0
   -1.2321   -0.2107    0.4081 C   0  0  0  0  0  0  0  0  0  0  0  0
   -2.1341    0.4062   -0.6651 C   0  0  0  0  0  0  0  0  0  0  0  0
    0.1895    0.1379    0.1117 C   0  0  0  0  0  0  0  0  0  0  0  0
    0.4483    1.6391    0.0297 C   0  0  0  0  0  0  0  0  0  0  0  0
   -0.2955    2.2607   -0.9587 O   0  0  0  0  0  0  0  0  0  0  0  0
    0.8254   -0.7246   -0.9768 C   0  0  0  0  0  0  0  0  0  0  0  0
    1.3119   -0.7726    0.4457 C   0  0  0  0  0  0  0  0  0  0  0  0
    2.6937   -0.1852    0.6377 C   0  0  0  0  0  0  0  0  0  0  0  0
   -0.8367   -2.1974    1.1718 H   0  0  0  0  0  0  0  0  0  0  0  0
   -1.5234   -2.0993   -0.5461 H   0  0  0  0  0  0  0  0  0  0  0  0
   -2.5833   -1.7727    0.8343 H   0  0  0  0  0  0  0  0  0  0  0  0
   -1.5845    0.2510    1.3713 H   0  0  0  0  0  0  0  0  0  0  0  0
   -3.0448   -0.2294   -0.7322 H   0  0  0  0  0  0  0  0  0  0  0  0
   -1.5670    0.4159   -1.6110 H   0  0  0  0  0  0  0  0  0  0  0  0
   -2.4059    1.4369   -0.3994 H   0  0  0  0  0  0  0  0  0  0  0  0
    0.1122    2.0631    1.0032 H   0  0  0  0  0  0  0  0  0  0  0  0
    1.5310    1.8581   -0.0441 H   0  0  0  0  0  0  0  0  0  0  0  0
   -0.4607    3.2014   -0.6721 H   0  0  0  0  0  0  0  0  0  0  0  0
    1.4261   -0.2308   -1.7550 H   0  0  0  0  0  0  0  0  0  0  0  0
    0.2980   -1.6263   -1.3270 H   0  0  0  0  0  0  0  0  0  0  0  0
    1.1218   -1.6494    1.0824 H   0  0  0  0  0  0  0  0  0  0  0  0
    3.0353    0.4042   -0.2236 H   0  0  0  0  0  0  0  0  0  0  0  0
    2.7902    0.3559    1.6054 H   0  0  0  0  0  0  0  0  0  0  0  0
    3.3941   -1.0561    0.7151 H   0  0  0  0  0  0  0  0  0  0  0  0
  1  2  1  0
  2  3  1  0
  2  4  1  0
  4  5  1  0
  5  6  1  0
  4  7  1  0
  7  8  1  0
  8  9  1  0
  8  4  1  0
  1 10  1  0
  1 11  1  0
  1 12  1  0
  2 13  1  0
  3 14  1  0
  3 15  1  0
  3 16  1  0
  5 17  1  0
  5 18  1  0
  6 19  1  0
  7 20  1  0
  7 21  1  0
  8 22  1  0
  9 23  1  0
  9 24  1  0
  9 25  1  0
M  END
