
     RDKit          3D

 23 24  0  0  0  0  0  0  0  0999 V2000
   -1.9077    0.9936    0.3877 C   0  0  0  0  0  0  0  0  0  0  0  0
   -1.2174   -0.3259    0.4211 C   0  0  0  0  0  0  0  0  0  0  0  0
   -1.8265   -1.2391   -0.6279 C   0  0  0  0  0  0  0  0  0  0  0  0
    0.2075   -0.2132    0.1868 C   0  0  0  0  0  0  0  0  0  0  0  0
    1.0464    0.6218    1.1349 C   0  0  0  0  0  0  0  0  0  0  0  0
    2.4050    0.3779    0.4444 C   0  0  0  0  0  0  0  0  0  0  0  0
    1.9041   -0.5875   -0.6062 C   0  0  0  0  0  0  0  0  0  0  0  0
    0.7163    0.1453   -1.1782 C   0  0  0  0  0  0  0  0  0  0  0  0
    0.9746   -1.3740    0.0957 O   0  0  0  0  0  0  0  0  0  0  0  0
   -1.5529    1.6328    1.2314 H   0  0  0  0  0  0  0  0  0  0  0  0
   -2.9974    0.8185    0.5483 H   0  0  0  0  0  0  0  0  0  0  0  0
   -1.7744    1.5223   -0.5715 H   0  0  0  0  0  0  0  0  0  0  0  0
   -1.4172   -0.8013    1.3987 H   0  0  0  0  0  0  0  0  0  0  0  0
   -1.8716   -0.7640   -1.6262 H   0  0  0  0  0  0  0  0  0  0  0  0
   -2.8511   -1.5476   -0.3392 H   0  0  0  0  0  0  0  0  0  0  0  0
   -1.1869   -2.1300   -0.7155 H   0  0  0  0  0  0  0  0  0  0  0  0
    1.0143    0.1291    2.1184 H   0  0  0  0  0  0  0  0  0  0  0  0
    0.7784    1.6773    1.1383 H   0  0  0  0  0  0  0  0  0  0  0  0
    2.6988    1.3533    0.0019 H   0  0  0  0  0  0  0  0  0  0  0  0
    3.1335   -0.0475    1.1291 H   0  0  0  0  0  0  0  0  0  0  0  0
    2.5949   -1.0675   -1.2558 H   0  0  0  0  0  0  0  0  0  0  0  0
    0.1715   -0.3809   -1.9657 H   0  0  0  0  0  0  0  0  0  0  0  0
    0.9578    1.2066   -1.3505 H   0  0  0  0  0  0  0  0  0  0  0  0
  1  2  1  0
  2  3  1  0
  2  4  1  0
  4  5  1  0
  5  6  1  0
  6  7  1  0
  7  8  1  0
  7  9  1  0
  8  4  1  0
  9  4  1  0
  1 10  1  0
  1 11  1  0
  1 12  1  0
  2 13  1  0
  3 14  1  0
  3 15  1  0
  3 16  1  0
  5 17  1  0
  5 18  1  0
  6 19  1  0
  6 20  1  0
  7 21  1  0
  8 22  1  0
  8 23  1  0
M  END
