
     RDKit          3D

 20 19  0  0  0  0  0  0  0  0999 V2000
   -0.7876    1.2626    0.4778 C   0  0  0  0  0  0  0  0  0  0  0  0
   -1.0908   -0.1789    0.2353 C   0  0  0  0  0  0  0  0  0  0  0  0
   -2.4375   -0.3037   -0.4472 C   0  0  0  0  0  0  0  0  0  0  0  0
   -0.0797   -0.8654   -0.6561 C   0  0  0  0  0  0  0  0  0  0  0  0
    1.3056   -0.8210   -0.0646 C   0  0  0  0  0  0  0  0  0  0  0  0
    1.7520    0.5053    0.1254 O   0  0  0  0  0  0  0  0  0  0  0  0
    3.0058    0.7158    0.6607 C   0  0  0  0  0  0  0  0  0  0  0  0
    3.7095   -0.2856    0.9617 O   0  0  0  0  0  0  0  0  0  0  0  0
   -0.4186    1.8046   -0.4222 H   0  0  0  0  0  0  0  0  0  0  0  0
   -0.0483    1.4289    1.2961 H   0  0  0  0  0  0  0  0  0  0  0  0
   -1.7604    1.7569    0.7704 H   0  0  0  0  0  0  0  0  0  0  0  0
   -1.0706   -0.7051    1.2086 H   0  0  0  0  0  0  0  0  0  0  0  0
   -3.2799   -0.0279    0.1894 H   0  0  0  0  0  0  0  0  0  0  0  0
   -2.5791   -1.3200   -0.8575 H   0  0  0  0  0  0  0  0  0  0  0  0
   -2.4255    0.4020   -1.3114 H   0  0  0  0  0  0  0  0  0  0  0  0
   -0.1124   -0.4972   -1.6825 H   0  0  0  0  0  0  0  0  0  0  0  0
   -0.3765   -1.9520   -0.6707 H   0  0  0  0  0  0  0  0  0  0  0  0
    1.2946   -1.3092    0.9276 H   0  0  0  0  0  0  0  0  0  0  0  0
    1.9888   -1.3328   -0.7733 H   0  0  0  0  0  0  0  0  0  0  0  0
    3.4106    1.7228    0.8331 H   0  0  0  0  0  0  0  0  0  0  0  0
  1  2  1  0
  2  3  1  0
  2  4  1  0
  4  5  1  0
  5  6  1  0
  6  7  1  0
  7  8  2  0
  1  9  1  0
  1 10  1  0
  1 11  1  0
  2 12  1  0
  3 13  1  0
  3 14  1  0
  3 15  1  0
  4 16  1  0
  4 17  1  0
  5 18  1  0
  5 19  1  0
  7 20  1  0
M  END
