
     RDKit          3D

 21 22  0  0  0  0  0  0  0  0999 V2000
    1.6294   -0.4024    1.0772 C   0  0  0  0  0  0  0  0  0  0  0  0
    0.7164    0.4646    0.1844 C   0  0  0  0  0  0  0  0  0  0  0  0
    1.5958    0.8887   -0.9787 C   0  0  0  0  0  0  0  0  0  0  0  0
   -0.4188   -0.3783   -0.1947 C   0  0  0  0  0  0  0  0  0  0  0  0
    0.0054   -1.5345   -0.9067 O   0  0  0  0  0  0  0  0  0  0  0  0
   -1.6789    0.1890   -0.7765 C   0  0  0  0  0  0  0  0  0  0  0  0
   -1.9723    0.6409    0.5969 C   0  0  0  0  0  0  0  0  0  0  0  0
   -2.0203   -0.0068    1.7737 O   0  0  0  0  0  0  0  0  0  0  0  0
   -1.3414   -0.7204    0.9134 C   0  0  0  0  0  0  0  0  0  0  0  0
    2.2630   -1.0644    0.4395 H   0  0  0  0  0  0  0  0  0  0  0  0
    2.3357    0.2411    1.6425 H   0  0  0  0  0  0  0  0  0  0  0  0
    1.0137   -1.0161    1.7677 H   0  0  0  0  0  0  0  0  0  0  0  0
    0.5143    1.3395    0.8269 H   0  0  0  0  0  0  0  0  0  0  0  0
    1.9829    1.9242   -0.8241 H   0  0  0  0  0  0  0  0  0  0  0  0
    2.4891    0.2403   -1.0914 H   0  0  0  0  0  0  0  0  0  0  0  0
    1.0500    0.8859   -1.9383 H   0  0  0  0  0  0  0  0  0  0  0  0
   -0.7675   -2.0230   -1.2684 H   0  0  0  0  0  0  0  0  0  0  0  0
   -2.3346   -0.6434   -1.1057 H   0  0  0  0  0  0  0  0  0  0  0  0
   -1.6141    0.9720   -1.5078 H   0  0  0  0  0  0  0  0  0  0  0  0
   -1.4460    1.5968    0.7974 H   0  0  0  0  0  0  0  0  0  0  0  0
   -2.0017   -1.5938    0.5727 H   0  0  0  0  0  0  0  0  0  0  0  0
  1  2  1  0
  2  3  1  0
  2  4  1  0
  4  5  1  0
  4  6  1  0
  6  7  1  0
  7  8  1  0
  8  9  1  0
  9  4  1  0
  9  7  1  0
  1 10  1  0
  1 11  1  0
  1 12  1  0
  2 13  1  0
  3 14  1  0
  3 15  1  0
  3 16  1  0
  5 17  1  0
  6 18  1  0
  6 19  1  0
  7 20  1  0
  9 21  1  0
M  END
