
     RDKit          3D

 25 26  0  0  0  0  0  0  0  0999 V2000
   -2.4215   -1.4236    0.7465 C   0  0  0  0  0  0  0  0  0  0  0  0
   -1.6948   -0.3959   -0.0459 C   0  0  0  0  0  0  0  0  0  0  0  0
   -2.6033    0.7712   -0.4314 C   0  0  0  0  0  0  0  0  0  0  0  0
   -0.4541    0.1358    0.6975 C   0  0  0  0  0  0  0  0  0  0  0  0
    0.3593    1.1229    0.0903 C   0  0  0  0  0  0  0  0  0  0  0  0
    1.8778    1.2918    0.1933 C   0  0  0  0  0  0  0  0  0  0  0  0
    1.7697    0.0718   -0.7553 C   0  0  0  0  0  0  0  0  0  0  0  0
    3.0719   -0.6410   -0.7920 C   0  0  0  0  0  0  0  0  0  0  0  0
    0.8308   -0.3712    0.3616 C   0  0  0  0  0  0  0  0  0  0  0  0
   -3.2635   -0.9580    1.3281 H   0  0  0  0  0  0  0  0  0  0  0  0
   -1.7629   -2.0085    1.4047 H   0  0  0  0  0  0  0  0  0  0  0  0
   -2.9226   -2.1698    0.0739 H   0  0  0  0  0  0  0  0  0  0  0  0
   -1.3479   -0.8415   -1.0009 H   0  0  0  0  0  0  0  0  0  0  0  0
   -3.3388    0.3740   -1.1382 H   0  0  0  0  0  0  0  0  0  0  0  0
   -3.0830    1.1932    0.4761 H   0  0  0  0  0  0  0  0  0  0  0  0
   -1.9957    1.5317   -0.9596 H   0  0  0  0  0  0  0  0  0  0  0  0
   -0.7600    0.3351    1.7730 H   0  0  0  0  0  0  0  0  0  0  0  0
    0.1122    1.3197   -1.0038 H   0  0  0  0  0  0  0  0  0  0  0  0
    2.2391    2.1985   -0.2805 H   0  0  0  0  0  0  0  0  0  0  0  0
    2.2980    1.0045    1.1579 H   0  0  0  0  0  0  0  0  0  0  0  0
    1.2922    0.3367   -1.6922 H   0  0  0  0  0  0  0  0  0  0  0  0
    3.5940   -0.4957    0.1789 H   0  0  0  0  0  0  0  0  0  0  0  0
    3.7106   -0.1694   -1.5586 H   0  0  0  0  0  0  0  0  0  0  0  0
    2.9832   -1.7373   -0.9281 H   0  0  0  0  0  0  0  0  0  0  0  0
    1.5095   -0.4751    1.2706 H   0  0  0  0  0  0  0  0  0  0  0  0
  1  2  1  0
  2  3  1  0
  2  4  1  0
  4  5  1  0
  5  6  1  0
  6  7  1  0
  7  8  1  0
  7  9  1  0
  9  4  1  0
  9  5  1  0
  1 10  1  0
  1 11  1  0
  1 12  1  0
  2 13  1  0
  3 14  1  0
  3 15  1  0
  3 16  1  0
  4 17  1  0
  5 18  1  0
  6 19  1  0
  6 20  1  0
  7 21  1  0
  8 22  1  0
  8 23  1  0
  8 24  1  0
  9 25  1  0
M  END
