
     RDKit          3D

 21 22  0  0  0  0  0  0  0  0999 V2000
   -1.4885    0.7647   -0.9697 C   0  0  0  0  0  0  0  0  0  0  0  0
   -0.6964   -0.3018   -0.2516 C   0  0  0  0  0  0  0  0  0  0  0  0
   -1.6697   -1.2921    0.3372 C   0  0  0  0  0  0  0  0  0  0  0  0
    0.1529    0.3656    0.8541 C   0  0  0  0  0  0  0  0  0  0  0  0
    1.0847    1.3626    0.2008 C   0  0  0  0  0  0  0  0  0  0  0  0
    1.7097    0.3169   -0.7298 C   0  0  0  0  0  0  0  0  0  0  0  0
    1.8383   -0.7747    0.0138 C   0  0  0  0  0  0  0  0  0  0  0  0
    1.3482   -0.4875    1.3332 C   0  0  0  0  0  0  0  0  0  0  0  0
    0.2012   -0.3481    1.9313 O   0  0  0  0  0  0  0  0  0  0  0  0
   -1.5066    1.7323   -0.3949 H   0  0  0  0  0  0  0  0  0  0  0  0
   -2.5758    0.4746   -1.0460 H   0  0  0  0  0  0  0  0  0  0  0  0
   -1.1454    0.9204   -2.0044 H   0  0  0  0  0  0  0  0  0  0  0  0
   -0.0687   -0.8221   -0.9781 H   0  0  0  0  0  0  0  0  0  0  0  0
   -1.5242   -1.4343    1.4289 H   0  0  0  0  0  0  0  0  0  0  0  0
   -1.6367   -2.2735   -0.1731 H   0  0  0  0  0  0  0  0  0  0  0  0
   -2.7346   -0.9352    0.2229 H   0  0  0  0  0  0  0  0  0  0  0  0
    1.8220    1.7994    0.8692 H   0  0  0  0  0  0  0  0  0  0  0  0
    0.5052    2.0662   -0.4151 H   0  0  0  0  0  0  0  0  0  0  0  0
    1.9700    0.4931   -1.7698 H   0  0  0  0  0  0  0  0  0  0  0  0
    2.2529   -1.6944   -0.3767 H   0  0  0  0  0  0  0  0  0  0  0  0
    2.1613    0.0680    1.9180 H   0  0  0  0  0  0  0  0  0  0  0  0
  1  2  1  0
  2  3  1  0
  2  4  1  0
  4  5  1  0
  5  6  1  0
  6  7  2  0
  7  8  1  0
  8  9  1  0
  8  4  1  0
  9  4  1  0
  1 10  1  0
  1 11  1  0
  1 12  1  0
  2 13  1  0
  3 14  1  0
  3 15  1  0
  3 16  1  0
  5 17  1  0
  5 18  1  0
  6 19  1  0
  7 20  1  0
  8 21  1  0
M  END
