
     RDKit          3D

 21 21  0  0  0  0  0  0  0  0999 V2000
   -2.0890    0.0421    1.5232 C   0  0  0  0  0  0  0  0  0  0  0  0
   -1.3558   -0.0164    0.2004 C   0  0  0  0  0  0  0  0  0  0  0  0
   -2.2075    0.6473   -0.8299 C   0  0  0  0  0  0  0  0  0  0  0  0
   -0.0665    0.4592    0.2723 O   0  0  0  0  0  0  0  0  0  0  0  0
    0.9100   -0.4647    0.0168 C   0  0  0  0  0  0  0  0  0  0  0  0
    1.9783    0.0087   -0.9508 C   0  0  0  0  0  0  0  0  0  0  0  0
    2.4773   -0.8558   -1.8940 O   0  0  0  0  0  0  0  0  0  0  0  0
    2.2952   -0.3582    0.4730 C   0  0  0  0  0  0  0  0  0  0  0  0
    2.7595    0.6785    1.2556 O   0  0  0  0  0  0  0  0  0  0  0  0
   -3.1436   -0.2471    1.3026 H   0  0  0  0  0  0  0  0  0  0  0  0
   -1.6946   -0.7470    2.1936 H   0  0  0  0  0  0  0  0  0  0  0  0
   -2.0760    1.0452    1.9803 H   0  0  0  0  0  0  0  0  0  0  0  0
   -1.2869   -1.0975   -0.0630 H   0  0  0  0  0  0  0  0  0  0  0  0
   -2.9821   -0.0856   -1.1516 H   0  0  0  0  0  0  0  0  0  0  0  0
   -1.6584    0.9864   -1.7283 H   0  0  0  0  0  0  0  0  0  0  0  0
   -2.7726    1.4774   -0.3438 H   0  0  0  0  0  0  0  0  0  0  0  0
    0.5340   -1.4880   -0.2177 H   0  0  0  0  0  0  0  0  0  0  0  0
    1.9927    1.0794   -1.2388 H   0  0  0  0  0  0  0  0  0  0  0  0
    3.3308   -1.2211   -1.5485 H   0  0  0  0  0  0  0  0  0  0  0  0
    2.8544   -1.3221    0.6609 H   0  0  0  0  0  0  0  0  0  0  0  0
    2.2007    1.4792    1.0579 H   0  0  0  0  0  0  0  0  0  0  0  0
  1  2  1  0
  2  3  1  0
  2  4  1  0
  4  5  1  0
  5  6  1  0
  6  7  1  0
  6  8  1  0
  8  9  1  0
  8  5  1  0
  1 10  1  0
  1 11  1  0
  1 12  1  0
  2 13  1  0
  3 14  1  0
  3 15  1  0
  3 16  1  0
  5 17  1  0
  6 18  1  0
  7 19  1  0
  8 20  1  0
  9 21  1  0
M  END
