
     RDKit          3D

 22 22  0  0  0  0  0  0  0  0999 V2000
   -2.0325    0.0099    0.3886 C   0  0  0  0  0  0  0  0  0  0  0  0
   -0.8320    0.1711   -0.4798 C   0  0  0  0  0  0  0  0  0  0  0  0
   -0.6838    1.6377   -0.8205 C   0  0  0  0  0  0  0  0  0  0  0  0
    0.4138   -0.4417    0.0664 C   0  0  0  0  0  0  0  0  0  0  0  0
    1.6310   -0.2709   -0.8275 C   0  0  0  0  0  0  0  0  0  0  0  0
    1.9336    1.0698   -1.0442 O   0  0  0  0  0  0  0  0  0  0  0  0
    0.3161   -1.7532    0.7419 C   0  0  0  0  0  0  0  0  0  0  0  0
    0.7026   -0.5082    1.5140 C   0  0  0  0  0  0  0  0  0  0  0  0
   -2.9237    0.3401   -0.2225 H   0  0  0  0  0  0  0  0  0  0  0  0
   -2.2500   -1.0081    0.7108 H   0  0  0  0  0  0  0  0  0  0  0  0
   -2.0298    0.7303    1.2574 H   0  0  0  0  0  0  0  0  0  0  0  0
   -1.0546   -0.3471   -1.4530 H   0  0  0  0  0  0  0  0  0  0  0  0
   -1.7314    2.0209   -0.9813 H   0  0  0  0  0  0  0  0  0  0  0  0
   -0.1874    1.7071   -1.7920 H   0  0  0  0  0  0  0  0  0  0  0  0
   -0.1676    2.2135   -0.0263 H   0  0  0  0  0  0  0  0  0  0  0  0
    2.5161   -0.7887   -0.4080 H   0  0  0  0  0  0  0  0  0  0  0  0
    1.4298   -0.7093   -1.8448 H   0  0  0  0  0  0  0  0  0  0  0  0
    2.7194    1.3342   -0.4985 H   0  0  0  0  0  0  0  0  0  0  0  0
    1.1174   -2.5199    0.5534 H   0  0  0  0  0  0  0  0  0  0  0  0
   -0.6379   -2.2187    1.0218 H   0  0  0  0  0  0  0  0  0  0  0  0
   -0.0090   -0.1686    2.2839 H   0  0  0  0  0  0  0  0  0  0  0  0
    1.7602   -0.5006    1.8605 H   0  0  0  0  0  0  0  0  0  0  0  0
  1  2  1  0
  2  3  1  0
  2  4  1  0
  4  5  1  0
  5  6  1  0
  4  7  1  0
  7  8  1  0
  8  4  1  0
  1  9  1  0
  1 10  1  0
  1 11  1  0
  2 12  1  0
  3 13  1  0
  3 14  1  0
  3 15  1  0
  5 16  1  0
  5 17  1  0
  6 18  1  0
  7 19  1  0
  7 20  1  0
  8 21  1  0
  8 22  1  0
M  END
