
     RDKit          3D

 23 24  0  0  0  0  0  0  0  0999 V2000
    2.1980    0.5451   -0.7607 C   0  0  0  0  0  0  0  0  0  0  0  0
    1.2862   -0.3705    0.0225 C   0  0  0  0  0  0  0  0  0  0  0  0
    1.5959   -0.2894    1.4982 C   0  0  0  0  0  0  0  0  0  0  0  0
   -0.1541   -0.0898   -0.2875 C   0  0  0  0  0  0  0  0  0  0  0  0
   -0.6869    1.2671   -0.0063 C   0  0  0  0  0  0  0  0  0  0  0  0
   -1.9576    1.2701    0.3089 C   0  0  0  0  0  0  0  0  0  0  0  0
   -2.4664   -0.0963    0.2843 C   0  0  0  0  0  0  0  0  0  0  0  0
   -1.2531   -0.9644    0.0750 C   0  0  0  0  0  0  0  0  0  0  0  0
   -0.7624   -0.9210   -1.3792 C   0  0  0  0  0  0  0  0  0  0  0  0
    3.2501    0.3100   -0.5891 H   0  0  0  0  0  0  0  0  0  0  0  0
    1.9947    1.6144   -0.5298 H   0  0  0  0  0  0  0  0  0  0  0  0
    2.0057    0.4148   -1.8452 H   0  0  0  0  0  0  0  0  0  0  0  0
    1.5000   -1.4128   -0.2906 H   0  0  0  0  0  0  0  0  0  0  0  0
    1.1007   -1.1340    2.0047 H   0  0  0  0  0  0  0  0  0  0  0  0
    1.3011    0.6758    1.9463 H   0  0  0  0  0  0  0  0  0  0  0  0
    2.6973   -0.3977    1.5994 H   0  0  0  0  0  0  0  0  0  0  0  0
   -0.0779    2.1804   -0.0568 H   0  0  0  0  0  0  0  0  0  0  0  0
   -2.6056    2.1336    0.5647 H   0  0  0  0  0  0  0  0  0  0  0  0
   -3.1775   -0.1702   -0.5774 H   0  0  0  0  0  0  0  0  0  0  0  0
   -3.0321   -0.3733    1.1990 H   0  0  0  0  0  0  0  0  0  0  0  0
   -1.1583   -1.9116    0.6315 H   0  0  0  0  0  0  0  0  0  0  0  0
   -1.3812   -0.4595   -2.1446 H   0  0  0  0  0  0  0  0  0  0  0  0
   -0.2165   -1.8208   -1.6673 H   0  0  0  0  0  0  0  0  0  0  0  0
  1  2  1  0
  2  3  1  0
  2  4  1  0
  4  5  1  0
  5  6  2  0
  6  7  1  0
  7  8  1  0
  8  9  1  0
  8  4  1  0
  9  4  1  0
  1 10  1  0
  1 11  1  0
  1 12  1  0
  2 13  1  0
  3 14  1  0
  3 15  1  0
  3 16  1  0
  5 17  1  0
  6 18  1  0
  7 19  1  0
  7 20  1  0
  8 21  1  0
  9 22  1  0
  9 23  1  0
M  END
