
     RDKit          3D

 25 25  0  0  0  0  0  0  0  0999 V2000
   -1.1885   -1.1896    1.3682 C   0  0  0  0  0  0  0  0  0  0  0  0
   -1.3476   -0.3274    0.1729 C   0  0  0  0  0  0  0  0  0  0  0  0
   -1.9178    1.0042    0.5842 C   0  0  0  0  0  0  0  0  0  0  0  0
   -0.1264   -0.1294   -0.6445 C   0  0  0  0  0  0  0  0  0  0  0  0
    0.4238   -1.4516   -1.1954 C   0  0  0  0  0  0  0  0  0  0  0  0
    1.7419   -0.9730   -1.6934 C   0  0  0  0  0  0  0  0  0  0  0  0
    2.1194    0.0639   -0.9645 C   0  0  0  0  0  0  0  0  0  0  0  0
    1.0852    0.3556    0.0709 C   0  0  0  0  0  0  0  0  0  0  0  0
    1.0732    1.8175    0.4423 C   0  0  0  0  0  0  0  0  0  0  0  0
   -2.2263   -1.4355    1.7432 H   0  0  0  0  0  0  0  0  0  0  0  0
   -0.7073   -0.6687    2.2331 H   0  0  0  0  0  0  0  0  0  0  0  0
   -0.7236   -2.1698    1.1573 H   0  0  0  0  0  0  0  0  0  0  0  0
   -2.1263   -0.8061   -0.4912 H   0  0  0  0  0  0  0  0  0  0  0  0
   -1.4378    1.7884   -0.0297 H   0  0  0  0  0  0  0  0  0  0  0  0
   -1.7514    1.2198    1.6633 H   0  0  0  0  0  0  0  0  0  0  0  0
   -3.0354    1.0324    0.4157 H   0  0  0  0  0  0  0  0  0  0  0  0
   -0.3189    0.5209   -1.5130 H   0  0  0  0  0  0  0  0  0  0  0  0
    0.6481   -2.1517   -0.3526 H   0  0  0  0  0  0  0  0  0  0  0  0
   -0.2105   -1.8791   -1.9671 H   0  0  0  0  0  0  0  0  0  0  0  0
    2.2576   -1.4477   -2.5295 H   0  0  0  0  0  0  0  0  0  0  0  0
    3.0305    0.6127   -1.0965 H   0  0  0  0  0  0  0  0  0  0  0  0
    1.2836   -0.3024    0.9160 H   0  0  0  0  0  0  0  0  0  0  0  0
    0.8188    2.4754   -0.3873 H   0  0  0  0  0  0  0  0  0  0  0  0
    2.1342    2.0932    0.7248 H   0  0  0  0  0  0  0  0  0  0  0  0
    0.5015    1.9478    1.3728 H   0  0  0  0  0  0  0  0  0  0  0  0
  1  2  1  0
  2  3  1  0
  2  4  1  0
  4  5  1  0
  5  6  1  0
  6  7  2  0
  7  8  1  0
  8  9  1  0
  8  4  1  0
  1 10  1  0
  1 11  1  0
  1 12  1  0
  2 13  1  0
  3 14  1  0
  3 15  1  0
  3 16  1  0
  4 17  1  0
  5 18  1  0
  5 19  1  0
  6 20  1  0
  7 21  1  0
  8 22  1  0
  9 23  1  0
  9 24  1  0
  9 25  1  0
M  END
