
     RDKit          3D

 17 16  0  0  0  0  0  0  0  0999 V2000
   -2.1940    0.3628    1.3171 C   0  0  0  0  0  0  0  0  0  0  0  0
   -0.9532   -0.2368    0.6429 C   0  0  0  0  0  0  0  0  0  0  0  0
   -1.3053   -0.4212   -0.7864 C   0  0  0  0  0  0  0  0  0  0  0  0
   -2.0293    0.3876   -1.3624 O   0  0  0  0  0  0  0  0  0  0  0  0
    0.1595    0.7591    0.8332 C   0  0  0  0  0  0  0  0  0  0  0  0
    1.3418    0.2089    0.2017 C   0  0  0  0  0  0  0  0  0  0  0  0
    2.3411   -0.2399   -0.3459 C   0  0  0  0  0  0  0  0  0  0  0  0
    3.5033   -0.7430   -0.9989 C   0  0  0  0  0  0  0  0  0  0  0  0
    4.6493   -0.4116   -0.6363 O   0  0  0  0  0  0  0  0  0  0  0  0
   -1.9374    0.5228    2.3752 H   0  0  0  0  0  0  0  0  0  0  0  0
   -3.0573   -0.2962    1.1558 H   0  0  0  0  0  0  0  0  0  0  0  0
   -2.4105    1.3256    0.8545 H   0  0  0  0  0  0  0  0  0  0  0  0
   -0.6868   -1.2087    1.0600 H   0  0  0  0  0  0  0  0  0  0  0  0
   -0.9475   -1.2606   -1.3765 H   0  0  0  0  0  0  0  0  0  0  0  0
    0.2862    0.9319    1.9166 H   0  0  0  0  0  0  0  0  0  0  0  0
   -0.1460    1.7407    0.3976 H   0  0  0  0  0  0  0  0  0  0  0  0
    3.3861   -1.4214   -1.8201 H   0  0  0  0  0  0  0  0  0  0  0  0
  1  2  1  0
  2  3  1  0
  3  4  2  0
  2  5  1  0
  5  6  1  0
  6  7  3  0
  7  8  1  0
  8  9  2  0
  1 10  1  0
  1 11  1  0
  1 12  1  0
  2 13  1  0
  3 14  1  0
  5 15  1  0
  5 16  1  0
  8 17  1  0
M  END
