
     RDKit          3D

 19 18  0  0  0  0  0  0  0  0999 V2000
   -1.9137    0.4836    0.8037 C   0  0  0  0  0  0  0  0  0  0  0  0
   -0.6510   -0.1960    0.2722 C   0  0  0  0  0  0  0  0  0  0  0  0
   -1.0116   -0.8514   -1.0466 C   0  0  0  0  0  0  0  0  0  0  0  0
    0.3877    0.8614    0.1140 C   0  0  0  0  0  0  0  0  0  0  0  0
    1.6997    0.3558   -0.4036 C   0  0  0  0  0  0  0  0  0  0  0  0
    2.3313   -0.6517    0.4472 C   0  0  0  0  0  0  0  0  0  0  0  0
    3.3946   -1.1165    0.1068 O   0  0  0  0  0  0  0  0  0  0  0  0
   -2.1672    0.0973    1.8235 H   0  0  0  0  0  0  0  0  0  0  0  0
   -1.7939    1.5771    0.8793 H   0  0  0  0  0  0  0  0  0  0  0  0
   -2.7965    0.2435    0.1673 H   0  0  0  0  0  0  0  0  0  0  0  0
   -0.3577   -0.9834    0.9985 H   0  0  0  0  0  0  0  0  0  0  0  0
   -1.7878   -1.6320   -0.8218 H   0  0  0  0  0  0  0  0  0  0  0  0
   -1.5387   -0.1126   -1.7038 H   0  0  0  0  0  0  0  0  0  0  0  0
   -0.1606   -1.2862   -1.5668 H   0  0  0  0  0  0  0  0  0  0  0  0
    0.0075    1.6307   -0.5773 H   0  0  0  0  0  0  0  0  0  0  0  0
    0.5454    1.3396    1.0987 H   0  0  0  0  0  0  0  0  0  0  0  0
    2.3686    1.2541   -0.5111 H   0  0  0  0  0  0  0  0  0  0  0  0
    1.5760   -0.0347   -1.4377 H   0  0  0  0  0  0  0  0  0  0  0  0
    1.8678   -0.9785    1.3576 H   0  0  0  0  0  0  0  0  0  0  0  0
  1  2  1  0
  2  3  1  0
  2  4  1  0
  4  5  1  0
  5  6  1  0
  6  7  2  0
  1  8  1  0
  1  9  1  0
  1 10  1  0
  2 11  1  0
  3 12  1  0
  3 13  1  0
  3 14  1  0
  4 15  1  0
  4 16  1  0
  5 17  1  0
  5 18  1  0
  6 19  1  0
M  END
