
     RDKit          3D

 17 17  0  0  0  0  0  0  0  0999 V2000
   -1.1487    0.0977    1.0781 C   0  0  0  0  0  0  0  0  0  0  0  0
   -0.6726   -0.4798   -0.2323 C   0  0  0  0  0  0  0  0  0  0  0  0
   -1.5382    0.0868   -1.3006 C   0  0  0  0  0  0  0  0  0  0  0  0
   -2.0895   -0.6834   -2.0622 O   0  0  0  0  0  0  0  0  0  0  0  0
    0.7552   -0.1497   -0.5365 C   0  0  0  0  0  0  0  0  0  0  0  0
    1.7847   -0.6131    0.4323 C   0  0  0  0  0  0  0  0  0  0  0  0
    2.4603    0.6073    0.1657 O   0  0  0  0  0  0  0  0  0  0  0  0
    1.2343    1.1762   -0.1519 C   0  0  0  0  0  0  0  0  0  0  0  0
    0.7591    2.3476   -0.1150 O   0  0  0  0  0  0  0  0  0  0  0  0
   -0.6442   -0.3429    1.9560 H   0  0  0  0  0  0  0  0  0  0  0  0
   -2.2351   -0.1896    1.1627 H   0  0  0  0  0  0  0  0  0  0  0  0
   -1.1216    1.2160    1.0822 H   0  0  0  0  0  0  0  0  0  0  0  0
   -0.7556   -1.5781   -0.1503 H   0  0  0  0  0  0  0  0  0  0  0  0
   -1.6344    1.1584   -1.3469 H   0  0  0  0  0  0  0  0  0  0  0  0
    1.0034   -0.4231   -1.5739 H   0  0  0  0  0  0  0  0  0  0  0  0
    1.4854   -0.7187    1.4870 H   0  0  0  0  0  0  0  0  0  0  0  0
    2.3575   -1.5116    0.1056 H   0  0  0  0  0  0  0  0  0  0  0  0
  1  2  1  0
  2  3  1  0
  3  4  2  0
  2  5  1  0
  5  6  1  0
  6  7  1  0
  7  8  1  0
  8  9  2  0
  8  5  1  0
  1 10  1  0
  1 11  1  0
  1 12  1  0
  2 13  1  0
  3 14  1  0
  5 15  1  0
  6 16  1  0
  6 17  1  0
M  END
