
     RDKit          3D

 17 16  0  0  0  0  0  0  0  0999 V2000
   -1.8048    0.6254   -0.6917 C   0  0  0  0  0  0  0  0  0  0  0  0
   -0.6489    0.4239    0.2890 C   0  0  0  0  0  0  0  0  0  0  0  0
   -0.9311   -0.7211    1.2133 C   0  0  0  0  0  0  0  0  0  0  0  0
    0.6034    0.1680   -0.5409 C   0  0  0  0  0  0  0  0  0  0  0  0
    1.6605   -0.0162    0.3775 O   0  0  0  0  0  0  0  0  0  0  0  0
    2.9380   -0.2699   -0.0960 C   0  0  0  0  0  0  0  0  0  0  0  0
    3.0912   -0.3235   -1.3305 O   0  0  0  0  0  0  0  0  0  0  0  0
   -2.5526    1.3099   -0.2138 H   0  0  0  0  0  0  0  0  0  0  0  0
   -1.4465    0.9862   -1.6583 H   0  0  0  0  0  0  0  0  0  0  0  0
   -2.3216   -0.3556   -0.8300 H   0  0  0  0  0  0  0  0  0  0  0  0
   -0.5486    1.3468    0.8950 H   0  0  0  0  0  0  0  0  0  0  0  0
   -0.6279   -0.5325    2.2647 H   0  0  0  0  0  0  0  0  0  0  0  0
   -0.4578   -1.6769    0.8846 H   0  0  0  0  0  0  0  0  0  0  0  0
   -2.0370   -0.9396    1.2091 H   0  0  0  0  0  0  0  0  0  0  0  0
    0.8507    1.0584   -1.1539 H   0  0  0  0  0  0  0  0  0  0  0  0
    0.4630   -0.6679   -1.2272 H   0  0  0  0  0  0  0  0  0  0  0  0
    3.7701   -0.4152    0.6090 H   0  0  0  0  0  0  0  0  0  0  0  0
  1  2  1  0
  2  3  1  0
  2  4  1  0
  4  5  1  0
  5  6  1  0
  6  7  2  0
  1  8  1  0
  1  9  1  0
  1 10  1  0
  2 11  1  0
  3 12  1  0
  3 13  1  0
  3 14  1  0
  4 15  1  0
  4 16  1  0
  6 17  1  0
M  END
