
     RDKit          3D

 18 17  0  0  0  0  0  0  0  0999 V2000
    1.3460   -0.8662   -0.4722 C   0  0  0  0  0  0  0  0  0  0  0  0
    0.6747    0.4487   -0.3255 C   0  0  0  0  0  0  0  0  0  0  0  0
    1.4346    1.2656    0.6580 C   0  0  0  0  0  0  0  0  0  0  0  0
    2.2070    0.7384    1.4691 O   0  0  0  0  0  0  0  0  0  0  0  0
   -0.7703    0.3785    0.0700 C   0  0  0  0  0  0  0  0  0  0  0  0
   -1.6200   -0.3678   -0.9132 C   0  0  0  0  0  0  0  0  0  0  0  0
   -1.0030   -0.1765    1.4084 C   0  0  0  0  0  0  0  0  0  0  0  0
   -0.9622   -1.3745    1.5694 O   0  0  0  0  0  0  0  0  0  0  0  0
    1.1228   -1.5849    0.3489 H   0  0  0  0  0  0  0  0  0  0  0  0
    2.4468   -0.7231   -0.4537 H   0  0  0  0  0  0  0  0  0  0  0  0
    1.1228   -1.3214   -1.4735 H   0  0  0  0  0  0  0  0  0  0  0  0
    0.7146    0.9686   -1.3146 H   0  0  0  0  0  0  0  0  0  0  0  0
    1.2799    2.3346    0.6292 H   0  0  0  0  0  0  0  0  0  0  0  0
   -1.1509    1.4438    0.0410 H   0  0  0  0  0  0  0  0  0  0  0  0
   -1.8900    0.2890   -1.7811 H   0  0  0  0  0  0  0  0  0  0  0  0
   -1.1471   -1.2891   -1.2972 H   0  0  0  0  0  0  0  0  0  0  0  0
   -2.5954   -0.6078   -0.4227 H   0  0  0  0  0  0  0  0  0  0  0  0
   -1.2103    0.4440    2.2597 H   0  0  0  0  0  0  0  0  0  0  0  0
  1  2  1  0
  2  3  1  0
  3  4  2  0
  2  5  1  0
  5  6  1  0
  5  7  1  0
  7  8  2  0
  1  9  1  0
  1 10  1  0
  1 11  1  0
  2 12  1  0
  3 13  1  0
  5 14  1  0
  6 15  1  0
  6 16  1  0
  6 17  1  0
  7 18  1  0
M  END
