
     RDKit          3D

 23 23  0  0  0  0  0  0  0  0999 V2000
    1.3939   -1.3968   -0.2175 C   0  0  0  0  0  0  0  0  0  0  0  0
    0.8633    0.0119   -0.1797 C   0  0  0  0  0  0  0  0  0  0  0  0
    1.6303    0.8580    0.8079 C   0  0  0  0  0  0  0  0  0  0  0  0
    1.1533    0.5630   -1.4516 O   0  0  0  0  0  0  0  0  0  0  0  0
   -0.6098    0.0145    0.0524 C   0  0  0  0  0  0  0  0  0  0  0  0
   -1.3198    1.3624    0.1187 C   0  0  0  0  0  0  0  0  0  0  0  0
   -1.1447    2.0456   -1.0809 O   0  0  0  0  0  0  0  0  0  0  0  0
   -1.4329   -1.0801   -0.5575 C   0  0  0  0  0  0  0  0  0  0  0  0
   -1.2598   -1.0414    0.9237 C   0  0  0  0  0  0  0  0  0  0  0  0
    2.5210   -1.3027   -0.2673 H   0  0  0  0  0  0  0  0  0  0  0  0
    1.0363   -1.8558   -1.1790 H   0  0  0  0  0  0  0  0  0  0  0  0
    1.1995   -1.9967    0.6672 H   0  0  0  0  0  0  0  0  0  0  0  0
    2.5232    0.3346    1.2119 H   0  0  0  0  0  0  0  0  0  0  0  0
    2.0030    1.8074    0.3699 H   0  0  0  0  0  0  0  0  0  0  0  0
    1.0285    1.1372    1.6925 H   0  0  0  0  0  0  0  0  0  0  0  0
    2.0436    0.2087   -1.7157 H   0  0  0  0  0  0  0  0  0  0  0  0
   -2.4002    1.1690    0.2867 H   0  0  0  0  0  0  0  0  0  0  0  0
   -0.9691    1.9753    0.9701 H   0  0  0  0  0  0  0  0  0  0  0  0
   -1.9908    2.5223   -1.3244 H   0  0  0  0  0  0  0  0  0  0  0  0
   -2.4595   -0.8267   -0.9510 H   0  0  0  0  0  0  0  0  0  0  0  0
   -0.9863   -1.9184   -1.1140 H   0  0  0  0  0  0  0  0  0  0  0  0
   -2.1371   -0.7400    1.5673 H   0  0  0  0  0  0  0  0  0  0  0  0
   -0.6861   -1.8510    1.3702 H   0  0  0  0  0  0  0  0  0  0  0  0
  1  2  1  0
  2  3  1  0
  2  4  1  0
  2  5  1  0
  5  6  1  0
  6  7  1  0
  5  8  1  0
  8  9  1  0
  9  5  1  0
  1 10  1  0
  1 11  1  0
  1 12  1  0
  3 13  1  0
  3 14  1  0
  3 15  1  0
  4 16  1  0
  6 17  1  0
  6 18  1  0
  7 19  1  0
  8 20  1  0
  8 21  1  0
  9 22  1  0
  9 23  1  0
M  END
