
     RDKit          3D

 21 20  0  0  0  0  0  0  0  0999 V2000
   -2.3942    0.4426   -1.1174 C   0  0  0  0  0  0  0  0  0  0  0  0
   -1.6874   -0.7470   -0.5442 C   0  0  0  0  0  0  0  0  0  0  0  0
   -2.4620   -1.4489    0.5330 C   0  0  0  0  0  0  0  0  0  0  0  0
   -0.3542   -0.4011   -0.0221 C   0  0  0  0  0  0  0  0  0  0  0  0
    0.7443   -0.1202    0.3895 C   0  0  0  0  0  0  0  0  0  0  0  0
    2.0869    0.2497    0.8926 C   0  0  0  0  0  0  0  0  0  0  0  0
    2.2442    1.7520    0.9471 C   0  0  0  0  0  0  0  0  0  0  0  0
    3.1037   -0.3879    0.0363 C   0  0  0  0  0  0  0  0  0  0  0  0
    3.4200   -1.5251    0.2374 O   0  0  0  0  0  0  0  0  0  0  0  0
   -2.1776    0.5260   -2.2231 H   0  0  0  0  0  0  0  0  0  0  0  0
   -3.4931    0.3905   -1.0179 H   0  0  0  0  0  0  0  0  0  0  0  0
   -2.0338    1.3953   -0.6819 H   0  0  0  0  0  0  0  0  0  0  0  0
   -1.5444   -1.4796   -1.3779 H   0  0  0  0  0  0  0  0  0  0  0  0
   -3.5408   -1.5005    0.2833 H   0  0  0  0  0  0  0  0  0  0  0  0
   -2.0960   -2.5161    0.5851 H   0  0  0  0  0  0  0  0  0  0  0  0
   -2.2851   -1.0100    1.5331 H   0  0  0  0  0  0  0  0  0  0  0  0
    2.1781   -0.1421    1.9048 H   0  0  0  0  0  0  0  0  0  0  0  0
    2.8322    2.0646    0.0521 H   0  0  0  0  0  0  0  0  0  0  0  0
    2.6635    2.1117    1.8843 H   0  0  0  0  0  0  0  0  0  0  0  0
    1.2160    2.1985    0.8244 H   0  0  0  0  0  0  0  0  0  0  0  0
    3.5797    0.1477   -0.7800 H   0  0  0  0  0  0  0  0  0  0  0  0
  1  2  1  0
  2  3  1  0
  2  4  1  0
  4  5  3  0
  5  6  1  0
  6  7  1  0
  6  8  1  0
  8  9  2  0
  1 10  1  0
  1 11  1  0
  1 12  1  0
  2 13  1  0
  3 14  1  0
  3 15  1  0
  3 16  1  0
  6 17  1  0
  7 18  1  0
  7 19  1  0
  7 20  1  0
  8 21  1  0
M  END
