
     RDKit          3D

 23 23  0  0  0  0  0  0  0  0999 V2000
   -1.7639   -0.7823   -1.1703 C   0  0  0  0  0  0  0  0  0  0  0  0
   -1.1102    0.2493   -0.3150 C   0  0  0  0  0  0  0  0  0  0  0  0
   -2.0620    0.5732    0.8185 C   0  0  0  0  0  0  0  0  0  0  0  0
    0.2651   -0.0798    0.1543 C   0  0  0  0  0  0  0  0  0  0  0  0
    0.8278    1.0489    1.0185 C   0  0  0  0  0  0  0  0  0  0  0  0
    0.5569    2.2446    0.3607 O   0  0  0  0  0  0  0  0  0  0  0  0
    0.4533   -1.3840    0.6774 O   0  0  0  0  0  0  0  0  0  0  0  0
    1.1240   -0.9837   -0.5327 C   0  0  0  0  0  0  0  0  0  0  0  0
    2.6043   -1.0543   -0.4285 C   0  0  0  0  0  0  0  0  0  0  0  0
   -1.1725   -1.1238   -2.0267 H   0  0  0  0  0  0  0  0  0  0  0  0
   -2.6975   -0.3407   -1.5787 H   0  0  0  0  0  0  0  0  0  0  0  0
   -2.0838   -1.6445   -0.5326 H   0  0  0  0  0  0  0  0  0  0  0  0
   -1.0279    1.1871   -0.9394 H   0  0  0  0  0  0  0  0  0  0  0  0
   -2.4524    1.6204    0.7527 H   0  0  0  0  0  0  0  0  0  0  0  0
   -2.9391   -0.1290    0.8405 H   0  0  0  0  0  0  0  0  0  0  0  0
   -1.5939    0.4892    1.8128 H   0  0  0  0  0  0  0  0  0  0  0  0
    1.8984    0.9826    1.1665 H   0  0  0  0  0  0  0  0  0  0  0  0
    0.3492    1.0727    2.0208 H   0  0  0  0  0  0  0  0  0  0  0  0
    1.0876    2.9985    0.6645 H   0  0  0  0  0  0  0  0  0  0  0  0
    0.7434   -1.5152   -1.4454 H   0  0  0  0  0  0  0  0  0  0  0  0
    2.8788   -2.1364   -0.2584 H   0  0  0  0  0  0  0  0  0  0  0  0
    3.0493   -0.8076   -1.4239 H   0  0  0  0  0  0  0  0  0  0  0  0
    3.0651   -0.4851    0.3644 H   0  0  0  0  0  0  0  0  0  0  0  0
  1  2  1  0
  2  3  1  0
  2  4  1  0
  4  5  1  0
  5  6  1  0
  4  7  1  0
  7  8  1  0
  8  9  1  0
  8  4  1  0
  1 10  1  0
  1 11  1  0
  1 12  1  0
  2 13  1  0
  3 14  1  0
  3 15  1  0
  3 16  1  0
  5 17  1  0
  5 18  1  0
  6 19  1  0
  8 20  1  0
  9 21  1  0
  9 22  1  0
  9 23  1  0
M  END
