
     RDKit          3D

 25 26  0  0  0  0  0  0  0  0999 V2000
   -2.3361    0.9665   -0.4295 C   0  0  0  0  0  0  0  0  0  0  0  0
   -1.7940   -0.4165   -0.2532 C   0  0  0  0  0  0  0  0  0  0  0  0
   -2.7968   -1.3396    0.3414 C   0  0  0  0  0  0  0  0  0  0  0  0
   -0.5098   -0.3260    0.5391 C   0  0  0  0  0  0  0  0  0  0  0  0
    0.4811    0.5493   -0.2502 C   0  0  0  0  0  0  0  0  0  0  0  0
    1.7857    0.8219    0.2407 C   0  0  0  0  0  0  0  0  0  0  0  0
    3.1035    0.8625   -0.5390 C   0  0  0  0  0  0  0  0  0  0  0  0
    2.8284   -0.6581   -0.5014 C   0  0  0  0  0  0  0  0  0  0  0  0
    1.4729   -0.1289   -0.9944 C   0  0  0  0  0  0  0  0  0  0  0  0
   -1.8681    1.7053    0.2687 H   0  0  0  0  0  0  0  0  0  0  0  0
   -2.1651    1.3104   -1.4670 H   0  0  0  0  0  0  0  0  0  0  0  0
   -3.4412    1.0181   -0.2420 H   0  0  0  0  0  0  0  0  0  0  0  0
   -1.5061   -0.8347   -1.2550 H   0  0  0  0  0  0  0  0  0  0  0  0
   -3.8005   -1.0712   -0.1004 H   0  0  0  0  0  0  0  0  0  0  0  0
   -2.5407   -2.3903    0.0496 H   0  0  0  0  0  0  0  0  0  0  0  0
   -2.9255   -1.2319    1.4355 H   0  0  0  0  0  0  0  0  0  0  0  0
   -0.6431    0.1896    1.5126 H   0  0  0  0  0  0  0  0  0  0  0  0
   -0.0996   -1.3219    0.7277 H   0  0  0  0  0  0  0  0  0  0  0  0
   -0.0781    1.4377   -0.6742 H   0  0  0  0  0  0  0  0  0  0  0  0
    2.0167    0.2569    1.2009 H   0  0  0  0  0  0  0  0  0  0  0  0
    2.9800    1.3180   -1.5220 H   0  0  0  0  0  0  0  0  0  0  0  0
    3.9367    1.1853    0.0796 H   0  0  0  0  0  0  0  0  0  0  0  0
    3.3584   -1.2283   -1.2661 H   0  0  0  0  0  0  0  0  0  0  0  0
    2.8448   -1.0265    0.5214 H   0  0  0  0  0  0  0  0  0  0  0  0
    1.6965    0.3527   -2.0021 H   0  0  0  0  0  0  0  0  0  0  0  0
  1  2  1  0
  2  3  1  0
  2  4  1  0
  4  5  1  0
  5  6  1  0
  6  7  1  0
  7  8  1  0
  8  9  1  0
  9  5  1  0
  9  6  1  0
  1 10  1  0
  1 11  1  0
  1 12  1  0
  2 13  1  0
  3 14  1  0
  3 15  1  0
  3 16  1  0
  4 17  1  0
  4 18  1  0
  5 19  1  0
  6 20  1  0
  7 21  1  0
  7 22  1  0
  8 23  1  0
  8 24  1  0
  9 25  1  0
M  END
