
     RDKit          3D

 21 22  0  0  0  0  0  0  0  0999 V2000
    1.8934    0.4787   -0.8588 C   0  0  0  0  0  0  0  0  0  0  0  0
    1.0966   -0.5014    0.0169 C   0  0  0  0  0  0  0  0  0  0  0  0
    2.0274   -0.8777    1.1221 C   0  0  0  0  0  0  0  0  0  0  0  0
    3.1939   -1.0485    0.8429 O   0  0  0  0  0  0  0  0  0  0  0  0
   -0.1002    0.2190    0.4946 C   0  0  0  0  0  0  0  0  0  0  0  0
   -1.0716    0.7627   -0.4826 C   0  0  0  0  0  0  0  0  0  0  0  0
   -2.0244    0.8126    0.6932 C   0  0  0  0  0  0  0  0  0  0  0  0
   -1.3527   -0.5436    0.8002 C   0  0  0  0  0  0  0  0  0  0  0  0
   -1.5818   -0.6303   -0.6688 C   0  0  0  0  0  0  0  0  0  0  0  0
    2.8250    0.0194   -1.2194 H   0  0  0  0  0  0  0  0  0  0  0  0
    1.2161    0.7777   -1.6888 H   0  0  0  0  0  0  0  0  0  0  0  0
    2.0532    1.3788   -0.2286 H   0  0  0  0  0  0  0  0  0  0  0  0
    0.8868   -1.4052   -0.5847 H   0  0  0  0  0  0  0  0  0  0  0  0
    1.7258   -1.0063    2.1509 H   0  0  0  0  0  0  0  0  0  0  0  0
    0.1074    0.9746    1.2974 H   0  0  0  0  0  0  0  0  0  0  0  0
   -0.9521    1.4752   -1.1726 H   0  0  0  0  0  0  0  0  0  0  0  0
   -3.0841    0.8072    0.4638 H   0  0  0  0  0  0  0  0  0  0  0  0
   -1.6472    1.5215    1.4423 H   0  0  0  0  0  0  0  0  0  0  0  0
   -1.5098   -1.2247    1.5110 H   0  0  0  0  0  0  0  0  0  0  0  0
   -2.6836   -0.6513   -0.8842 H   0  0  0  0  0  0  0  0  0  0  0  0
   -1.0185   -1.3386   -1.2580 H   0  0  0  0  0  0  0  0  0  0  0  0
  1  2  1  0
  2  3  1  0
  3  4  2  0
  2  5  1  0
  5  6  1  0
  6  7  1  0
  7  8  1  0
  8  9  1  0
  8  5  1  0
  9  6  1  0
  1 10  1  0
  1 11  1  0
  1 12  1  0
  2 13  1  0
  3 14  1  0
  5 15  1  0
  6 16  1  0
  7 17  1  0
  7 18  1  0
  8 19  1  0
  9 20  1  0
  9 21  1  0
M  END
