
     RDKit          3D

 25 25  0  0  0  0  0  0  0  0999 V2000
    1.5519    1.5622   -0.1022 C   0  0  0  0  0  0  0  0  0  0  0  0
    1.3879    0.1170    0.3588 C   0  0  0  0  0  0  0  0  0  0  0  0
    2.7436   -0.5275    0.2787 C   0  0  0  0  0  0  0  0  0  0  0  0
    2.6880   -1.8691    0.6873 O   0  0  0  0  0  0  0  0  0  0  0  0
    0.3714   -0.5481   -0.5338 C   0  0  0  0  0  0  0  0  0  0  0  0
   -0.9337    0.2095   -0.4040 C   0  0  0  0  0  0  0  0  0  0  0  0
   -1.5149    0.2560    0.9694 C   0  0  0  0  0  0  0  0  0  0  0  0
   -2.1491   -0.5840   -0.1249 C   0  0  0  0  0  0  0  0  0  0  0  0
   -3.5192   -0.0995   -0.5293 C   0  0  0  0  0  0  0  0  0  0  0  0
    0.5879    2.0606   -0.1134 H   0  0  0  0  0  0  0  0  0  0  0  0
    2.0109    1.5905   -1.1018 H   0  0  0  0  0  0  0  0  0  0  0  0
    2.2701    2.0238    0.6016 H   0  0  0  0  0  0  0  0  0  0  0  0
    1.0779    0.0971    1.4230 H   0  0  0  0  0  0  0  0  0  0  0  0
    3.2225   -0.4161   -0.7075 H   0  0  0  0  0  0  0  0  0  0  0  0
    3.3955   -0.0111    1.0137 H   0  0  0  0  0  0  0  0  0  0  0  0
    3.6400   -2.1539    0.8184 H   0  0  0  0  0  0  0  0  0  0  0  0
    0.7447   -0.4277   -1.5854 H   0  0  0  0  0  0  0  0  0  0  0  0
    0.2529   -1.6146   -0.3332 H   0  0  0  0  0  0  0  0  0  0  0  0
   -0.9918    1.1433   -1.0206 H   0  0  0  0  0  0  0  0  0  0  0  0
   -2.0168    1.1926    1.2902 H   0  0  0  0  0  0  0  0  0  0  0  0
   -1.0947   -0.3402    1.7892 H   0  0  0  0  0  0  0  0  0  0  0  0
   -2.0315   -1.6737   -0.0995 H   0  0  0  0  0  0  0  0  0  0  0  0
   -4.2094   -0.3911    0.3161 H   0  0  0  0  0  0  0  0  0  0  0  0
   -3.5721    0.9881   -0.6031 H   0  0  0  0  0  0  0  0  0  0  0  0
   -3.9119   -0.5842   -1.4329 H   0  0  0  0  0  0  0  0  0  0  0  0
  1  2  1  0
  2  3  1  0
  3  4  1  0
  2  5  1  0
  5  6  1  0
  6  7  1  0
  7  8  1  0
  8  9  1  0
  8  6  1  0
  1 10  1  0
  1 11  1  0
  1 12  1  0
  2 13  1  0
  3 14  1  0
  3 15  1  0
  4 16  1  0
  5 17  1  0
  5 18  1  0
  6 19  1  0
  7 20  1  0
  7 21  1  0
  8 22  1  0
  9 23  1  0
  9 24  1  0
  9 25  1  0
M  END
