
     RDKit          3D

 27 27  0  0  0  0  0  0  0  0999 V2000
   -1.7460    0.4313    1.6703 C   0  0  0  0  0  0  0  0  0  0  0  0
   -1.3811    0.3413    0.2238 C   0  0  0  0  0  0  0  0  0  0  0  0
   -2.0460    1.4879   -0.5081 C   0  0  0  0  0  0  0  0  0  0  0  0
   -2.0073   -0.9388   -0.3227 C   0  0  0  0  0  0  0  0  0  0  0  0
    0.1081    0.3602   -0.0116 C   0  0  0  0  0  0  0  0  0  0  0  0
    0.8089   -0.7879    0.6682 C   0  0  0  0  0  0  0  0  0  0  0  0
    2.2856   -0.7774    0.4403 C   0  0  0  0  0  0  0  0  0  0  0  0
    2.8505   -0.8628   -0.9424 C   0  0  0  0  0  0  0  0  0  0  0  0
    2.9751    0.3959   -0.1515 C   0  0  0  0  0  0  0  0  0  0  0  0
   -2.8520    0.4987    1.7346 H   0  0  0  0  0  0  0  0  0  0  0  0
   -1.4423   -0.4435    2.2617 H   0  0  0  0  0  0  0  0  0  0  0  0
   -1.3130    1.3833    2.0634 H   0  0  0  0  0  0  0  0  0  0  0  0
   -2.8778    1.9255    0.0993 H   0  0  0  0  0  0  0  0  0  0  0  0
   -2.4275    1.1777   -1.5051 H   0  0  0  0  0  0  0  0  0  0  0  0
   -1.2702    2.2698   -0.6490 H   0  0  0  0  0  0  0  0  0  0  0  0
   -3.1190   -0.7741   -0.2951 H   0  0  0  0  0  0  0  0  0  0  0  0
   -1.6855   -1.1462   -1.3577 H   0  0  0  0  0  0  0  0  0  0  0  0
   -1.7935   -1.8061    0.3451 H   0  0  0  0  0  0  0  0  0  0  0  0
    0.4958    1.2959    0.4360 H   0  0  0  0  0  0  0  0  0  0  0  0
    0.2991    0.2769   -1.0987 H   0  0  0  0  0  0  0  0  0  0  0  0
    0.6251   -0.8096    1.7609 H   0  0  0  0  0  0  0  0  0  0  0  0
    0.3952   -1.7610    0.2787 H   0  0  0  0  0  0  0  0  0  0  0  0
    2.8738   -1.3323    1.2197 H   0  0  0  0  0  0  0  0  0  0  0  0
    3.7178   -1.5220   -1.1120 H   0  0  0  0  0  0  0  0  0  0  0  0
    2.1800   -0.7964   -1.8231 H   0  0  0  0  0  0  0  0  0  0  0  0
    2.3376    1.2703   -0.4497 H   0  0  0  0  0  0  0  0  0  0  0  0
    4.0087    0.6436    0.1705 H   0  0  0  0  0  0  0  0  0  0  0  0
  1  2  1  0
  2  3  1  0
  2  4  1  0
  2  5  1  0
  5  6  1  0
  6  7  1  0
  7  8  1  0
  8  9  1  0
  9  7  1  0
  1 10  1  0
  1 11  1  0
  1 12  1  0
  3 13  1  0
  3 14  1  0
  3 15  1  0
  4 16  1  0
  4 17  1  0
  4 18  1  0
  5 19  1  0
  5 20  1  0
  6 21  1  0
  6 22  1  0
  7 23  1  0
  8 24  1  0
  8 25  1  0
  9 26  1  0
  9 27  1  0
M  END
