
     RDKit          3D

 21 21  0  0  0  0  0  0  0  0999 V2000
   -0.2819   -2.2331    0.0305 C   0  0  0  0  0  0  0  0  0  0  0  0
   -0.0915   -0.7805    0.4082 C   0  0  0  0  0  0  0  0  0  0  0  0
    1.2930   -0.3489   -0.0064 C   0  0  0  0  0  0  0  0  0  0  0  0
    1.4962    1.0224    0.3408 O   0  0  0  0  0  0  0  0  0  0  0  0
    2.6818    1.6793    0.0755 C   0  0  0  0  0  0  0  0  0  0  0  0
    3.6311    1.0942   -0.4837 O   0  0  0  0  0  0  0  0  0  0  0  0
   -1.1758    0.0211   -0.2226 C   0  0  0  0  0  0  0  0  0  0  0  0
   -1.3078    1.4748   -0.0722 C   0  0  0  0  0  0  0  0  0  0  0  0
   -2.1882    0.5969    0.7763 C   0  0  0  0  0  0  0  0  0  0  0  0
   -0.8749   -2.3245   -0.9159 H   0  0  0  0  0  0  0  0  0  0  0  0
   -0.8536   -2.7858    0.7958 H   0  0  0  0  0  0  0  0  0  0  0  0
    0.7062   -2.7197   -0.1864 H   0  0  0  0  0  0  0  0  0  0  0  0
   -0.1130   -0.7438    1.5311 H   0  0  0  0  0  0  0  0  0  0  0  0
    2.0375   -0.9287    0.5712 H   0  0  0  0  0  0  0  0  0  0  0  0
    1.4958   -0.4485   -1.0711 H   0  0  0  0  0  0  0  0  0  0  0  0
    2.8253    2.7160    0.3419 H   0  0  0  0  0  0  0  0  0  0  0  0
   -1.6522   -0.4189   -1.1327 H   0  0  0  0  0  0  0  0  0  0  0  0
   -0.5890    2.0902    0.5165 H   0  0  0  0  0  0  0  0  0  0  0  0
   -1.7972    2.0535   -0.9009 H   0  0  0  0  0  0  0  0  0  0  0  0
   -1.9748    0.4823    1.8562 H   0  0  0  0  0  0  0  0  0  0  0  0
   -3.2671    0.5018    0.5296 H   0  0  0  0  0  0  0  0  0  0  0  0
  1  2  1  0
  2  3  1  0
  3  4  1  0
  4  5  1  0
  5  6  2  0
  2  7  1  0
  7  8  1  0
  8  9  1  0
  9  7  1  0
  1 10  1  0
  1 11  1  0
  1 12  1  0
  2 13  1  0
  3 14  1  0
  3 15  1  0
  5 16  1  0
  7 17  1  0
  8 18  1  0
  8 19  1  0
  9 20  1  0
  9 21  1  0
M  END
