
     RDKit          3D

 20 21  0  0  0  0  0  0  0  0999 V2000
   -1.5958    1.2968   -0.2882 C   0  0  0  0  0  0  0  0  0  0  0  0
   -0.8927    0.0861    0.2912 C   0  0  0  0  0  0  0  0  0  0  0  0
   -1.6181   -1.1935   -0.1497 C   0  0  0  0  0  0  0  0  0  0  0  0
    0.4493    0.0336   -0.0282 C   0  0  0  0  0  0  0  0  0  0  0  0
    1.3946   -1.0604    0.4140 C   0  0  0  0  0  0  0  0  0  0  0  0
    2.1447   -0.1275   -0.4778 C   0  0  0  0  0  0  0  0  0  0  0  0
    1.5184    1.0037    0.2835 C   0  0  0  0  0  0  0  0  0  0  0  0
    1.0100   -0.1054   -1.2813 O   0  0  0  0  0  0  0  0  0  0  0  0
   -1.5697    1.2859   -1.3773 H   0  0  0  0  0  0  0  0  0  0  0  0
   -1.0958    2.1877    0.1641 H   0  0  0  0  0  0  0  0  0  0  0  0
   -2.6398    1.2942    0.1013 H   0  0  0  0  0  0  0  0  0  0  0  0
   -1.0652    0.1379    1.3931 H   0  0  0  0  0  0  0  0  0  0  0  0
   -1.8311   -1.8599    0.6852 H   0  0  0  0  0  0  0  0  0  0  0  0
   -0.9667   -1.7752   -0.8590 H   0  0  0  0  0  0  0  0  0  0  0  0
   -2.5272   -0.9174   -0.6814 H   0  0  0  0  0  0  0  0  0  0  0  0
    1.6788   -1.0076    1.4882 H   0  0  0  0  0  0  0  0  0  0  0  0
    1.1990   -2.0617    0.0079 H   0  0  0  0  0  0  0  0  0  0  0  0
    3.1009   -0.1976   -0.7858 H   0  0  0  0  0  0  0  0  0  0  0  0
    1.8049    1.0027    1.3391 H   0  0  0  0  0  0  0  0  0  0  0  0
    1.5014    1.9777   -0.2388 H   0  0  0  0  0  0  0  0  0  0  0  0
  1  2  1  0
  2  3  1  0
  2  4  1  0
  4  5  1  0
  5  6  1  0
  6  7  1  0
  6  8  1  0
  7  4  1  0
  8  4  1  0
  1  9  1  0
  1 10  1  0
  1 11  1  0
  2 12  1  0
  3 13  1  0
  3 14  1  0
  3 15  1  0
  5 16  1  0
  5 17  1  0
  6 18  1  0
  7 19  1  0
  7 20  1  0
M  END
