
     RDKit          3D

 25 25  0  0  0  0  0  0  0  0999 V2000
    1.9767    0.1503    0.7908 C   0  0  0  0  0  0  0  0  0  0  0  0
    1.0839    0.1057   -0.4349 C   0  0  0  0  0  0  0  0  0  0  0  0
    1.2702   -1.1970   -1.1206 C   0  0  0  0  0  0  0  0  0  0  0  0
   -0.3072    0.4302   -0.0136 C   0  0  0  0  0  0  0  0  0  0  0  0
   -0.2524    1.8229    0.5877 C   0  0  0  0  0  0  0  0  0  0  0  0
   -0.8854   -0.5256    0.9815 C   0  0  0  0  0  0  0  0  0  0  0  0
   -2.0355   -1.1607    0.2172 C   0  0  0  0  0  0  0  0  0  0  0  0
   -2.4884   -0.1037   -0.5578 O   0  0  0  0  0  0  0  0  0  0  0  0
   -1.3143    0.4582   -1.1050 C   0  0  0  0  0  0  0  0  0  0  0  0
    1.4256    0.3725    1.7099 H   0  0  0  0  0  0  0  0  0  0  0  0
    2.4779   -0.8466    0.9500 H   0  0  0  0  0  0  0  0  0  0  0  0
    2.8045    0.8803    0.6838 H   0  0  0  0  0  0  0  0  0  0  0  0
    1.4352    0.9113   -1.1111 H   0  0  0  0  0  0  0  0  0  0  0  0
    2.3623   -1.4605   -1.0153 H   0  0  0  0  0  0  0  0  0  0  0  0
    0.7109   -2.0372   -0.7157 H   0  0  0  0  0  0  0  0  0  0  0  0
    1.1380   -1.0535   -2.2257 H   0  0  0  0  0  0  0  0  0  0  0  0
    0.5152    2.4133    0.0194 H   0  0  0  0  0  0  0  0  0  0  0  0
   -1.2248    2.3410    0.4749 H   0  0  0  0  0  0  0  0  0  0  0  0
   -0.0104    1.8203    1.6554 H   0  0  0  0  0  0  0  0  0  0  0  0
   -1.3311    0.0456    1.8419 H   0  0  0  0  0  0  0  0  0  0  0  0
   -0.1737   -1.2962    1.3313 H   0  0  0  0  0  0  0  0  0  0  0  0
   -2.8340   -1.4875    0.9096 H   0  0  0  0  0  0  0  0  0  0  0  0
   -1.6754   -1.9755   -0.4305 H   0  0  0  0  0  0  0  0  0  0  0  0
   -1.6093    1.4918   -1.4194 H   0  0  0  0  0  0  0  0  0  0  0  0
   -1.0585   -0.0995   -2.0038 H   0  0  0  0  0  0  0  0  0  0  0  0
  1  2  1  0
  2  3  1  0
  2  4  1  0
  4  5  1  0
  4  6  1  0
  6  7  1  0
  7  8  1  0
  8  9  1  0
  9  4  1  0
  1 10  1  0
  1 11  1  0
  1 12  1  0
  2 13  1  0
  3 14  1  0
  3 15  1  0
  3 16  1  0
  5 17  1  0
  5 18  1  0
  5 19  1  0
  6 20  1  0
  6 21  1  0
  7 22  1  0
  7 23  1  0
  9 24  1  0
  9 25  1  0
M  END
