
     RDKit          3D

 23 24  0  0  0  0  0  0  0  0999 V2000
    2.1449    1.3500   -0.8898 C   0  0  0  0  0  0  0  0  0  0  0  0
    1.4822    0.3163   -0.0147 C   0  0  0  0  0  0  0  0  0  0  0  0
    2.1281   -1.0541   -0.2284 C   0  0  0  0  0  0  0  0  0  0  0  0
   -0.0067    0.2585   -0.2593 C   0  0  0  0  0  0  0  0  0  0  0  0
   -0.7617   -0.7150    0.5384 C   0  0  0  0  0  0  0  0  0  0  0  0
   -2.1695   -1.1150    0.1722 C   0  0  0  0  0  0  0  0  0  0  0  0
   -2.7767    0.2186   -0.2170 C   0  0  0  0  0  0  0  0  0  0  0  0
   -2.1319    1.1730    0.5348 O   0  0  0  0  0  0  0  0  0  0  0  0
   -0.8736    0.7269    0.8434 C   0  0  0  0  0  0  0  0  0  0  0  0
    1.7661    1.2496   -1.9128 H   0  0  0  0  0  0  0  0  0  0  0  0
    3.2397    1.2023   -0.8010 H   0  0  0  0  0  0  0  0  0  0  0  0
    1.9382    2.3615   -0.4429 H   0  0  0  0  0  0  0  0  0  0  0  0
    1.6904    0.5887    1.0392 H   0  0  0  0  0  0  0  0  0  0  0  0
    1.5545   -1.7684    0.3739 H   0  0  0  0  0  0  0  0  0  0  0  0
    2.0772   -1.2611   -1.3159 H   0  0  0  0  0  0  0  0  0  0  0  0
    3.1615   -0.9918    0.1356 H   0  0  0  0  0  0  0  0  0  0  0  0
   -0.2903    0.5097   -1.3010 H   0  0  0  0  0  0  0  0  0  0  0  0
   -0.2548   -1.4027    1.2482 H   0  0  0  0  0  0  0  0  0  0  0  0
   -2.7086   -1.4500    1.0951 H   0  0  0  0  0  0  0  0  0  0  0  0
   -2.2331   -1.8718   -0.6083 H   0  0  0  0  0  0  0  0  0  0  0  0
   -2.6881    0.3989   -1.3188 H   0  0  0  0  0  0  0  0  0  0  0  0
   -3.8550    0.2391    0.0425 H   0  0  0  0  0  0  0  0  0  0  0  0
   -0.4328    1.0368    1.8254 H   0  0  0  0  0  0  0  0  0  0  0  0
  1  2  1  0
  2  3  1  0
  2  4  1  0
  4  5  1  0
  5  6  1  0
  6  7  1  0
  7  8  1  0
  8  9  1  0
  9  4  1  0
  9  5  1  0
  1 10  1  0
  1 11  1  0
  1 12  1  0
  2 13  1  0
  3 14  1  0
  3 15  1  0
  3 16  1  0
  4 17  1  0
  5 18  1  0
  6 19  1  0
  6 20  1  0
  7 21  1  0
  7 22  1  0
  9 23  1  0
M  END
