
     RDKit          3D

 18 18  0  0  0  0  0  0  0  0999 V2000
   -0.8712    1.2296   -0.7065 C   0  0  0  0  0  0  0  0  0  0  0  0
   -0.9690   -0.2572   -0.3789 C   0  0  0  0  0  0  0  0  0  0  0  0
   -2.0830   -0.4923    0.5611 C   0  0  0  0  0  0  0  0  0  0  0  0
   -2.9524   -1.2905    0.3077 O   0  0  0  0  0  0  0  0  0  0  0  0
    0.3397   -0.7752    0.2002 C   0  0  0  0  0  0  0  0  0  0  0  0
    1.5271   -0.6062   -0.7623 C   0  0  0  0  0  0  0  0  0  0  0  0
    1.4544    0.1480    0.4962 C   0  0  0  0  0  0  0  0  0  0  0  0
    2.3117   -0.1869    1.5434 O   0  0  0  0  0  0  0  0  0  0  0  0
   -1.8245    1.4894   -1.2106 H   0  0  0  0  0  0  0  0  0  0  0  0
   -0.7798    1.7447    0.2775 H   0  0  0  0  0  0  0  0  0  0  0  0
    0.0132    1.3833   -1.3460 H   0  0  0  0  0  0  0  0  0  0  0  0
   -1.1701   -0.7508   -1.3705 H   0  0  0  0  0  0  0  0  0  0  0  0
   -2.1153    0.0571    1.4813 H   0  0  0  0  0  0  0  0  0  0  0  0
    0.2703   -1.6888    0.7948 H   0  0  0  0  0  0  0  0  0  0  0  0
    2.1208   -1.5442   -0.8613 H   0  0  0  0  0  0  0  0  0  0  0  0
    1.3532   -0.1113   -1.7260 H   0  0  0  0  0  0  0  0  0  0  0  0
    1.3385    1.2580    0.3941 H   0  0  0  0  0  0  0  0  0  0  0  0
    2.0364    0.3933    2.3061 H   0  0  0  0  0  0  0  0  0  0  0  0
  1  2  1  0
  2  3  1  0
  3  4  2  0
  2  5  1  0
  5  6  1  0
  6  7  1  0
  7  8  1  0
  7  5  1  0
  1  9  1  0
  1 10  1  0
  1 11  1  0
  2 12  1  0
  3 13  1  0
  5 14  1  0
  6 15  1  0
  6 16  1  0
  7 17  1  0
  8 18  1  0
M  END
