
     RDKit          3D

 25 25  0  0  0  0  0  0  0  0999 V2000
   -1.2862   -1.4543   -0.2354 C   0  0  0  0  0  0  0  0  0  0  0  0
   -0.8365   -0.0231   -0.0189 C   0  0  0  0  0  0  0  0  0  0  0  0
   -1.2875    0.4307    1.3542 C   0  0  0  0  0  0  0  0  0  0  0  0
   -1.5374    0.8329   -1.0279 C   0  0  0  0  0  0  0  0  0  0  0  0
    0.6630    0.1122   -0.0700 C   0  0  0  0  0  0  0  0  0  0  0  0
    1.3711   -0.7250    0.9917 C   0  0  0  0  0  0  0  0  0  0  0  0
    2.7482   -0.5600    0.8957 O   0  0  0  0  0  0  0  0  0  0  0  0
    1.3005    1.4184   -0.3899 C   0  0  0  0  0  0  0  0  0  0  0  0
    1.3402    0.3239   -1.3728 C   0  0  0  0  0  0  0  0  0  0  0  0
   -1.4155   -1.9624    0.7486 H   0  0  0  0  0  0  0  0  0  0  0  0
   -0.5863   -2.0087   -0.8977 H   0  0  0  0  0  0  0  0  0  0  0  0
   -2.2811   -1.5098   -0.7323 H   0  0  0  0  0  0  0  0  0  0  0  0
   -2.1937    1.0684    1.2894 H   0  0  0  0  0  0  0  0  0  0  0  0
   -0.4883    0.9958    1.8689 H   0  0  0  0  0  0  0  0  0  0  0  0
   -1.5051   -0.4724    1.9704 H   0  0  0  0  0  0  0  0  0  0  0  0
   -1.3551    1.9174   -0.8884 H   0  0  0  0  0  0  0  0  0  0  0  0
   -1.3127    0.5336   -2.0805 H   0  0  0  0  0  0  0  0  0  0  0  0
   -2.6280    0.6699   -0.8987 H   0  0  0  0  0  0  0  0  0  0  0  0
    1.1079   -1.8025    0.8597 H   0  0  0  0  0  0  0  0  0  0  0  0
    1.0720   -0.4257    2.0141 H   0  0  0  0  0  0  0  0  0  0  0  0
    3.2024   -1.4275    0.7552 H   0  0  0  0  0  0  0  0  0  0  0  0
    0.6130    2.2743   -0.4759 H   0  0  0  0  0  0  0  0  0  0  0  0
    2.2619    1.7011    0.1261 H   0  0  0  0  0  0  0  0  0  0  0  0
    2.3104   -0.2114   -1.4990 H   0  0  0  0  0  0  0  0  0  0  0  0
    0.7228    0.3039   -2.2868 H   0  0  0  0  0  0  0  0  0  0  0  0
  1  2  1  0
  2  3  1  0
  2  4  1  0
  2  5  1  0
  5  6  1  0
  6  7  1  0
  5  8  1  0
  8  9  1  0
  9  5  1  0
  1 10  1  0
  1 11  1  0
  1 12  1  0
  3 13  1  0
  3 14  1  0
  3 15  1  0
  4 16  1  0
  4 17  1  0
  4 18  1  0
  6 19  1  0
  6 20  1  0
  7 21  1  0
  8 22  1  0
  8 23  1  0
  9 24  1  0
  9 25  1  0
M  END
