
     RDKit          3D

 23 23  0  0  0  0  0  0  0  0999 V2000
   -1.4842   -1.5482    0.1885 C   0  0  0  0  0  0  0  0  0  0  0  0
   -1.3282   -0.1411   -0.2744 C   0  0  0  0  0  0  0  0  0  0  0  0
   -2.4344    0.6983    0.3741 C   0  0  0  0  0  0  0  0  0  0  0  0
   -3.6889    0.2498    0.0283 O   0  0  0  0  0  0  0  0  0  0  0  0
   -0.0310    0.4952    0.0877 C   0  0  0  0  0  0  0  0  0  0  0  0
    1.1738   -0.1962   -0.4609 C   0  0  0  0  0  0  0  0  0  0  0  0
    2.4026    0.5805    0.0021 C   0  0  0  0  0  0  0  0  0  0  0  0
    3.7515    0.1680   -0.3627 C   0  0  0  0  0  0  0  0  0  0  0  0
    3.2294   -0.0592    0.9570 O   0  0  0  0  0  0  0  0  0  0  0  0
   -2.5257   -1.7508    0.5766 H   0  0  0  0  0  0  0  0  0  0  0  0
   -0.8021   -1.8418    1.0053 H   0  0  0  0  0  0  0  0  0  0  0  0
   -1.3542   -2.2883   -0.6411 H   0  0  0  0  0  0  0  0  0  0  0  0
   -1.5251   -0.1178   -1.3710 H   0  0  0  0  0  0  0  0  0  0  0  0
   -2.2954    1.7769    0.1116 H   0  0  0  0  0  0  0  0  0  0  0  0
   -2.3384    0.6524    1.4913 H   0  0  0  0  0  0  0  0  0  0  0  0
   -4.0303    0.8651   -0.6889 H   0  0  0  0  0  0  0  0  0  0  0  0
    0.0526    0.5311    1.1834 H   0  0  0  0  0  0  0  0  0  0  0  0
   -0.0344    1.5318   -0.2997 H   0  0  0  0  0  0  0  0  0  0  0  0
    1.2162   -0.2031   -1.5660 H   0  0  0  0  0  0  0  0  0  0  0  0
    1.2547   -1.2558   -0.1347 H   0  0  0  0  0  0  0  0  0  0  0  0
    2.2501    1.6499    0.2587 H   0  0  0  0  0  0  0  0  0  0  0  0
    4.0047   -0.7601   -0.8681 H   0  0  0  0  0  0  0  0  0  0  0  0
    4.5369    0.9634   -0.4367 H   0  0  0  0  0  0  0  0  0  0  0  0
  1  2  1  0
  2  3  1  0
  3  4  1  0
  2  5  1  0
  5  6  1  0
  6  7  1  0
  7  8  1  0
  8  9  1  0
  9  7  1  0
  1 10  1  0
  1 11  1  0
  1 12  1  0
  2 13  1  0
  3 14  1  0
  3 15  1  0
  4 16  1  0
  5 17  1  0
  5 18  1  0
  6 19  1  0
  6 20  1  0
  7 21  1  0
  8 22  1  0
  8 23  1  0
M  END
