
     RDKit          3D

 17 16  0  0  0  0  0  0  0  0999 V2000
   -2.0279    0.9994    0.3163 C   0  0  0  0  0  0  0  0  0  0  0  0
   -1.2148    0.0563   -0.5432 C   0  0  0  0  0  0  0  0  0  0  0  0
   -1.2849   -1.3525    0.1213 C   0  0  0  0  0  0  0  0  0  0  0  0
    0.0802    0.4370   -0.8881 C   0  0  0  0  0  0  0  0  0  0  0  0
    0.1130    1.2313   -2.0066 O   0  0  0  0  0  0  0  0  0  0  0  0
    1.4533    0.2330   -0.4080 C   0  0  0  0  0  0  0  0  0  0  0  0
    2.5509    0.0733   -0.0050 C   0  0  0  0  0  0  0  0  0  0  0  0
    3.8657   -0.1286    0.4987 C   0  0  0  0  0  0  0  0  0  0  0  0
    4.8545    0.5563    0.0069 O   0  0  0  0  0  0  0  0  0  0  0  0
   -3.1491    0.7376    0.1592 H   0  0  0  0  0  0  0  0  0  0  0  0
   -1.7291    0.9198    1.3524 H   0  0  0  0  0  0  0  0  0  0  0  0
   -1.8707    2.0387   -0.0861 H   0  0  0  0  0  0  0  0  0  0  0  0
   -1.8743   -0.0883   -1.5101 H   0  0  0  0  0  0  0  0  0  0  0  0
   -0.2767   -1.8574    0.0519 H   0  0  0  0  0  0  0  0  0  0  0  0
   -1.5702   -1.1340    1.1856 H   0  0  0  0  0  0  0  0  0  0  0  0
   -2.0512   -1.9373   -0.3184 H   0  0  0  0  0  0  0  0  0  0  0  0
    4.1313   -0.7846    1.2527 H   0  0  0  0  0  0  0  0  0  0  0  0
  1  2  1  0
  2  3  1  0
  2  4  1  0
  4  5  2  0
  4  6  1  0
  6  7  3  0
  7  8  1  0
  8  9  2  0
  1 10  1  0
  1 11  1  0
  1 12  1  0
  2 13  1  0
  3 14  1  0
  3 15  1  0
  3 16  1  0
  8 17  1  0
M  END
