
     RDKit          3D

 23 22  0  0  0  0  0  0  0  0999 V2000
    1.3646    0.5018   -1.3589 C   0  0  0  0  0  0  0  0  0  0  0  0
    0.9443   -0.1355   -0.0642 C   0  0  0  0  0  0  0  0  0  0  0  0
    1.3329    0.7866    1.0632 C   0  0  0  0  0  0  0  0  0  0  0  0
   -0.4289   -0.6571    0.0065 C   0  0  0  0  0  0  0  0  0  0  0  0
   -0.5845   -1.2934    1.4253 C   0  0  0  0  0  0  0  0  0  0  0  0
   -0.5566   -1.7289   -0.8775 O   0  0  0  0  0  0  0  0  0  0  0  0
   -1.5684    0.2885   -0.0637 C   0  0  0  0  0  0  0  0  0  0  0  0
   -1.7077    1.1193   -1.2465 C   0  0  0  0  0  0  0  0  0  0  0  0
   -1.5968    2.3379   -1.1285 O   0  0  0  0  0  0  0  0  0  0  0  0
    1.7769   -0.2984   -2.0487 H   0  0  0  0  0  0  0  0  0  0  0  0
    0.6246    1.0783   -1.8907 H   0  0  0  0  0  0  0  0  0  0  0  0
    2.2593    1.1550   -1.1359 H   0  0  0  0  0  0  0  0  0  0  0  0
    1.6299   -1.0323    0.0585 H   0  0  0  0  0  0  0  0  0  0  0  0
    1.9779    0.3013    1.8223 H   0  0  0  0  0  0  0  0  0  0  0  0
    0.4580    1.1985    1.6024 H   0  0  0  0  0  0  0  0  0  0  0  0
    1.9000    1.6640    0.6900 H   0  0  0  0  0  0  0  0  0  0  0  0
   -1.5374   -1.8540    1.3582 H   0  0  0  0  0  0  0  0  0  0  0  0
    0.2948   -1.8957    1.6595 H   0  0  0  0  0  0  0  0  0  0  0  0
   -0.7544   -0.4462    2.1355 H   0  0  0  0  0  0  0  0  0  0  0  0
    0.2151   -2.3378   -0.6604 H   0  0  0  0  0  0  0  0  0  0  0  0
   -2.5088   -0.3481   -0.0145 H   0  0  0  0  0  0  0  0  0  0  0  0
   -1.6332    0.8670    0.8946 H   0  0  0  0  0  0  0  0  0  0  0  0
   -1.9018    0.7291   -2.2264 H   0  0  0  0  0  0  0  0  0  0  0  0
  1  2  1  0
  2  3  1  0
  2  4  1  0
  4  5  1  0
  4  6  1  0
  4  7  1  0
  7  8  1  0
  8  9  2  0
  1 10  1  0
  1 11  1  0
  1 12  1  0
  2 13  1  0
  3 14  1  0
  3 15  1  0
  3 16  1  0
  5 17  1  0
  5 18  1  0
  5 19  1  0
  6 20  1  0
  7 21  1  0
  7 22  1  0
  8 23  1  0
M  END
