
     RDKit          3D

 25 25  0  0  0  0  0  0  0  0999 V2000
   -2.9146    0.6833   -0.6727 C   0  0  0  0  0  0  0  0  0  0  0  0
   -1.6087    0.2208   -0.0481 C   0  0  0  0  0  0  0  0  0  0  0  0
   -1.9504   -0.6696    1.1059 C   0  0  0  0  0  0  0  0  0  0  0  0
   -0.8073   -0.4710   -1.1047 C   0  0  0  0  0  0  0  0  0  0  0  0
    0.4080   -0.9470   -0.6840 O   0  0  0  0  0  0  0  0  0  0  0  0
    1.2212    0.0477   -0.2132 C   0  0  0  0  0  0  0  0  0  0  0  0
    2.6473    0.0257   -0.7796 C   0  0  0  0  0  0  0  0  0  0  0  0
    3.0889    0.4436    0.6268 C   0  0  0  0  0  0  0  0  0  0  0  0
    1.8585   -0.3092    1.1304 C   0  0  0  0  0  0  0  0  0  0  0  0
   -3.6289   -0.1721   -0.6365 H   0  0  0  0  0  0  0  0  0  0  0  0
   -2.7193    0.9706   -1.7318 H   0  0  0  0  0  0  0  0  0  0  0  0
   -3.3696    1.4989   -0.0940 H   0  0  0  0  0  0  0  0  0  0  0  0
   -1.1122    1.1204    0.3438 H   0  0  0  0  0  0  0  0  0  0  0  0
   -1.1211   -0.7884    1.8352 H   0  0  0  0  0  0  0  0  0  0  0  0
   -2.3061   -1.6345    0.6906 H   0  0  0  0  0  0  0  0  0  0  0  0
   -2.8049   -0.1799    1.6511 H   0  0  0  0  0  0  0  0  0  0  0  0
   -0.6453    0.2786   -1.9311 H   0  0  0  0  0  0  0  0  0  0  0  0
   -1.4234   -1.2702   -1.5612 H   0  0  0  0  0  0  0  0  0  0  0  0
    0.8490    1.0745   -0.2151 H   0  0  0  0  0  0  0  0  0  0  0  0
    2.9680   -0.9987   -0.9677 H   0  0  0  0  0  0  0  0  0  0  0  0
    2.8339    0.7817   -1.5536 H   0  0  0  0  0  0  0  0  0  0  0  0
    4.0491    0.0310    0.9397 H   0  0  0  0  0  0  0  0  0  0  0  0
    3.0106    1.5383    0.7063 H   0  0  0  0  0  0  0  0  0  0  0  0
    2.1032   -1.3924    1.1571 H   0  0  0  0  0  0  0  0  0  0  0  0
    1.3741    0.1180    2.0065 H   0  0  0  0  0  0  0  0  0  0  0  0
  1  2  1  0
  2  3  1  0
  2  4  1  0
  4  5  1  0
  5  6  1  0
  6  7  1  0
  7  8  1  0
  8  9  1  0
  9  6  1  0
  1 10  1  0
  1 11  1  0
  1 12  1  0
  2 13  1  0
  3 14  1  0
  3 15  1  0
  3 16  1  0
  4 17  1  0
  4 18  1  0
  6 19  1  0
  7 20  1  0
  7 21  1  0
  8 22  1  0
  8 23  1  0
  9 24  1  0
  9 25  1  0
M  END
