
     RDKit          3D

 17 17  0  0  0  0  0  0  0  0999 V2000
   -1.1535   -0.7070    1.0563 C   0  0  0  0  0  0  0  0  0  0  0  0
   -0.4240   -0.2801   -0.2096 C   0  0  0  0  0  0  0  0  0  0  0  0
   -0.5894    1.2136   -0.3497 C   0  0  0  0  0  0  0  0  0  0  0  0
   -1.0013   -0.9512   -1.2891 O   0  0  0  0  0  0  0  0  0  0  0  0
    1.0185   -0.6830   -0.0643 C   0  0  0  0  0  0  0  0  0  0  0  0
    2.0886    0.1867   -0.3664 C   0  0  0  0  0  0  0  0  0  0  0  0
    1.6429   -0.0118    1.0362 O   0  0  0  0  0  0  0  0  0  0  0  0
   -0.4277   -0.9438    1.8748 H   0  0  0  0  0  0  0  0  0  0  0  0
   -1.8106   -1.5669    0.8986 H   0  0  0  0  0  0  0  0  0  0  0  0
   -1.7970    0.1165    1.4525 H   0  0  0  0  0  0  0  0  0  0  0  0
   -1.6039    1.5206    0.0376 H   0  0  0  0  0  0  0  0  0  0  0  0
    0.2110    1.7755    0.1718 H   0  0  0  0  0  0  0  0  0  0  0  0
   -0.6323    1.4731   -1.4475 H   0  0  0  0  0  0  0  0  0  0  0  0
   -1.7821   -0.4009   -1.5654 H   0  0  0  0  0  0  0  0  0  0  0  0
    1.1654   -1.7886   -0.0961 H   0  0  0  0  0  0  0  0  0  0  0  0
    1.9701    1.2314   -0.7092 H   0  0  0  0  0  0  0  0  0  0  0  0
    3.1253   -0.1842   -0.4303 H   0  0  0  0  0  0  0  0  0  0  0  0
  1  2  1  0
  2  3  1  0
  2  4  1  0
  2  5  1  0
  5  6  1  0
  6  7  1  0
  7  5  1  0
  1  8  1  0
  1  9  1  0
  1 10  1  0
  3 11  1  0
  3 12  1  0
  3 13  1  0
  4 14  1  0
  5 15  1  0
  6 16  1  0
  6 17  1  0
M  END
