
     RDKit          3D

 21 22  0  0  0  0  0  0  0  0999 V2000
   -2.0218   -0.8120   -0.8856 C   0  0  0  0  0  0  0  0  0  0  0  0
   -1.2699   -0.1175    0.2306 C   0  0  0  0  0  0  0  0  0  0  0  0
   -2.0416    1.1634    0.5558 C   0  0  0  0  0  0  0  0  0  0  0  0
    0.1058    0.2828   -0.1578 C   0  0  0  0  0  0  0  0  0  0  0  0
    1.1425   -0.6652   -0.5927 C   0  0  0  0  0  0  0  0  0  0  0  0
    2.2967   -0.1182   -1.1298 O   0  0  0  0  0  0  0  0  0  0  0  0
    3.1373    0.1509   -0.0425 C   0  0  0  0  0  0  0  0  0  0  0  0
    2.2771    0.6664    0.9447 O   0  0  0  0  0  0  0  0  0  0  0  0
    1.1863   -0.1547    0.8269 C   0  0  0  0  0  0  0  0  0  0  0  0
   -1.3914   -0.9636   -1.7832 H   0  0  0  0  0  0  0  0  0  0  0  0
   -2.9335   -0.2612   -1.1824 H   0  0  0  0  0  0  0  0  0  0  0  0
   -2.3339   -1.8087   -0.5179 H   0  0  0  0  0  0  0  0  0  0  0  0
   -1.2478   -0.7303    1.1390 H   0  0  0  0  0  0  0  0  0  0  0  0
   -2.2081    1.7323   -0.3553 H   0  0  0  0  0  0  0  0  0  0  0  0
   -1.3584    1.7740    1.2041 H   0  0  0  0  0  0  0  0  0  0  0  0
   -2.9431    0.9630    1.1532 H   0  0  0  0  0  0  0  0  0  0  0  0
    0.2068    1.3365   -0.5534 H   0  0  0  0  0  0  0  0  0  0  0  0
    0.9594   -1.7298   -0.7865 H   0  0  0  0  0  0  0  0  0  0  0  0
    3.8481    0.9697   -0.2760 H   0  0  0  0  0  0  0  0  0  0  0  0
    3.6516   -0.7681    0.3233 H   0  0  0  0  0  0  0  0  0  0  0  0
    0.9379   -0.9096    1.5872 H   0  0  0  0  0  0  0  0  0  0  0  0
  1  2  1  0
  2  3  1  0
  2  4  1  0
  4  5  1  0
  5  6  1  0
  6  7  1  0
  7  8  1  0
  8  9  1  0
  9  4  1  0
  9  5  1  0
  1 10  1  0
  1 11  1  0
  1 12  1  0
  2 13  1  0
  3 14  1  0
  3 15  1  0
  3 16  1  0
  4 17  1  0
  5 18  1  0
  7 19  1  0
  7 20  1  0
  9 21  1  0
M  END
