
     RDKit          3D

 27 27  0  0  0  0  0  0  0  0999 V2000
   -3.1645   -0.4631    0.2853 C   0  0  0  0  0  0  0  0  0  0  0  0
   -1.8797   -0.3256   -0.5496 C   0  0  0  0  0  0  0  0  0  0  0  0
   -1.8941    1.0913   -1.0802 C   0  0  0  0  0  0  0  0  0  0  0  0
   -0.7407   -0.5477    0.3736 C   0  0  0  0  0  0  0  0  0  0  0  0
    0.6262   -0.4762   -0.1731 C   0  0  0  0  0  0  0  0  0  0  0  0
    1.5825   -0.7506    1.0024 C   0  0  0  0  0  0  0  0  0  0  0  0
    2.9097   -0.4468    0.3884 C   0  0  0  0  0  0  0  0  0  0  0  0
    2.6477    0.6281   -0.6254 C   0  0  0  0  0  0  0  0  0  0  0  0
    1.1238    0.8389   -0.6346 C   0  0  0  0  0  0  0  0  0  0  0  0
   -3.2251    0.3957    0.9568 H   0  0  0  0  0  0  0  0  0  0  0  0
   -3.0810   -1.4181    0.8413 H   0  0  0  0  0  0  0  0  0  0  0  0
   -4.0564   -0.5227   -0.3652 H   0  0  0  0  0  0  0  0  0  0  0  0
   -1.9505   -1.0454   -1.3757 H   0  0  0  0  0  0  0  0  0  0  0  0
   -2.9631    1.4558   -1.1392 H   0  0  0  0  0  0  0  0  0  0  0  0
   -1.4738    1.1523   -2.1075 H   0  0  0  0  0  0  0  0  0  0  0  0
   -1.3768    1.7398   -0.3539 H   0  0  0  0  0  0  0  0  0  0  0  0
   -0.8445   -1.5464    0.8884 H   0  0  0  0  0  0  0  0  0  0  0  0
   -0.8120    0.1866    1.2287 H   0  0  0  0  0  0  0  0  0  0  0  0
    0.8759   -1.2353   -0.9284 H   0  0  0  0  0  0  0  0  0  0  0  0
    1.2912   -0.0373    1.7970 H   0  0  0  0  0  0  0  0  0  0  0  0
    1.4395   -1.8043    1.2732 H   0  0  0  0  0  0  0  0  0  0  0  0
    3.6717   -0.1020    1.1114 H   0  0  0  0  0  0  0  0  0  0  0  0
    3.3183   -1.3630   -0.0954 H   0  0  0  0  0  0  0  0  0  0  0  0
    2.9591    0.2505   -1.6358 H   0  0  0  0  0  0  0  0  0  0  0  0
    3.1766    1.5650   -0.3609 H   0  0  0  0  0  0  0  0  0  0  0  0
    0.8711    1.1113   -1.6775 H   0  0  0  0  0  0  0  0  0  0  0  0
    0.9688    1.6693    0.0913 H   0  0  0  0  0  0  0  0  0  0  0  0
  1  2  1  0
  2  3  1  0
  2  4  1  0
  4  5  1  0
  5  6  1  0
  6  7  1  0
  7  8  1  0
  8  9  1  0
  9  5  1  0
  1 10  1  0
  1 11  1  0
  1 12  1  0
  2 13  1  0
  3 14  1  0
  3 15  1  0
  3 16  1  0
  4 17  1  0
  4 18  1  0
  5 19  1  0
  6 20  1  0
  6 21  1  0
  7 22  1  0
  7 23  1  0
  8 24  1  0
  8 25  1  0
  9 26  1  0
  9 27  1  0
M  END
