
     RDKit          3D

 25 25  0  0  0  0  0  0  0  0999 V2000
   -2.1398   -1.2629    0.0361 C   0  0  0  0  0  0  0  0  0  0  0  0
   -1.6520    0.1311    0.3679 C   0  0  0  0  0  0  0  0  0  0  0  0
   -2.6046    1.0946   -0.3553 C   0  0  0  0  0  0  0  0  0  0  0  0
   -2.1627    2.3785   -0.0551 O   0  0  0  0  0  0  0  0  0  0  0  0
   -0.2825    0.3821   -0.2214 C   0  0  0  0  0  0  0  0  0  0  0  0
    0.7521   -0.5677    0.2815 C   0  0  0  0  0  0  0  0  0  0  0  0
    2.0698   -0.2139   -0.3791 C   0  0  0  0  0  0  0  0  0  0  0  0
    3.2845   -1.0343   -0.0338 C   0  0  0  0  0  0  0  0  0  0  0  0
    3.1683    0.3944    0.3840 C   0  0  0  0  0  0  0  0  0  0  0  0
   -3.1812   -1.3274    0.4574 H   0  0  0  0  0  0  0  0  0  0  0  0
   -1.4873   -2.0573    0.3924 H   0  0  0  0  0  0  0  0  0  0  0  0
   -2.2254   -1.3388   -1.0618 H   0  0  0  0  0  0  0  0  0  0  0  0
   -1.6436    0.3374    1.4467 H   0  0  0  0  0  0  0  0  0  0  0  0
   -3.6445    0.9114   -0.0312 H   0  0  0  0  0  0  0  0  0  0  0  0
   -2.4334    0.9305   -1.4317 H   0  0  0  0  0  0  0  0  0  0  0  0
   -2.6225    3.0479   -0.5987 H   0  0  0  0  0  0  0  0  0  0  0  0
    0.0296    1.4098   -0.0095 H   0  0  0  0  0  0  0  0  0  0  0  0
   -0.3750    0.2280   -1.3240 H   0  0  0  0  0  0  0  0  0  0  0  0
    0.8259   -0.6239    1.3748 H   0  0  0  0  0  0  0  0  0  0  0  0
    0.4824   -1.5905   -0.0871 H   0  0  0  0  0  0  0  0  0  0  0  0
    1.9411    0.1358   -1.4342 H   0  0  0  0  0  0  0  0  0  0  0  0
    3.8952   -1.3248   -0.9020 H   0  0  0  0  0  0  0  0  0  0  0  0
    3.1164   -1.8194    0.7062 H   0  0  0  0  0  0  0  0  0  0  0  0
    3.8015    1.1727   -0.1325 H   0  0  0  0  0  0  0  0  0  0  0  0
    3.0877    0.6068    1.4719 H   0  0  0  0  0  0  0  0  0  0  0  0
  1  2  1  0
  2  3  1  0
  3  4  1  0
  2  5  1  0
  5  6  1  0
  6  7  1  0
  7  8  1  0
  8  9  1  0
  9  7  1  0
  1 10  1  0
  1 11  1  0
  1 12  1  0
  2 13  1  0
  3 14  1  0
  3 15  1  0
  4 16  1  0
  5 17  1  0
  5 18  1  0
  6 19  1  0
  6 20  1  0
  7 21  1  0
  8 22  1  0
  8 23  1  0
  9 24  1  0
  9 25  1  0
M  END
