
     RDKit          3D

 23 22  0  0  0  0  0  0  0  0999 V2000
   -1.0259    0.0929    1.4865 C   0  0  0  0  0  0  0  0  0  0  0  0
   -1.1413   -0.2087    0.0305 C   0  0  0  0  0  0  0  0  0  0  0  0
   -1.8997    0.9452   -0.6195 C   0  0  0  0  0  0  0  0  0  0  0  0
   -2.0680   -1.2980   -0.0562 O   0  0  0  0  0  0  0  0  0  0  0  0
    0.0282   -0.6420   -0.7175 C   0  0  0  0  0  0  0  0  0  0  0  0
    1.2440    0.1565   -0.8937 C   0  0  0  0  0  0  0  0  0  0  0  0
    2.0841   -0.7020   -1.7223 O   0  0  0  0  0  0  0  0  0  0  0  0
    2.1071    0.3505    0.3215 C   0  0  0  0  0  0  0  0  0  0  0  0
    1.6144    1.1995    1.2722 O   0  0  0  0  0  0  0  0  0  0  0  0
   -0.2742   -0.5435    1.9696 H   0  0  0  0  0  0  0  0  0  0  0  0
   -0.9763    1.1731    1.7366 H   0  0  0  0  0  0  0  0  0  0  0  0
   -2.0234   -0.2397    1.9510 H   0  0  0  0  0  0  0  0  0  0  0  0
   -2.6033    0.5771   -1.3949 H   0  0  0  0  0  0  0  0  0  0  0  0
   -1.2245    1.6616   -1.1135 H   0  0  0  0  0  0  0  0  0  0  0  0
   -2.5139    1.4691    0.1421 H   0  0  0  0  0  0  0  0  0  0  0  0
   -1.9327   -1.8058   -0.8773 H   0  0  0  0  0  0  0  0  0  0  0  0
    0.3603   -1.6348   -0.2438 H   0  0  0  0  0  0  0  0  0  0  0  0
   -0.3552   -1.0249   -1.7225 H   0  0  0  0  0  0  0  0  0  0  0  0
    1.1573    1.0728   -1.4734 H   0  0  0  0  0  0  0  0  0  0  0  0
    2.2664   -1.4639   -1.1029 H   0  0  0  0  0  0  0  0  0  0  0  0
    3.1470    0.6560    0.0559 H   0  0  0  0  0  0  0  0  0  0  0  0
    2.2473   -0.6753    0.7705 H   0  0  0  0  0  0  0  0  0  0  0  0
    1.7823    0.8843    2.2010 H   0  0  0  0  0  0  0  0  0  0  0  0
  1  2  1  0
  2  3  1  0
  2  4  1  0
  2  5  1  0
  5  6  1  0
  6  7  1  0
  6  8  1  0
  8  9  1  0
  1 10  1  0
  1 11  1  0
  1 12  1  0
  3 13  1  0
  3 14  1  0
  3 15  1  0
  4 16  1  0
  5 17  1  0
  5 18  1  0
  6 19  1  0
  7 20  1  0
  8 21  1  0
  8 22  1  0
  9 23  1  0
M  END
