
     RDKit          3D

 18 17  0  0  0  0  0  0  0  0999 V2000
   -2.0867    0.0309   -0.4972 C   0  0  0  0  0  0  0  0  0  0  0  0
   -0.7016   -0.4501   -0.1302 C   0  0  0  0  0  0  0  0  0  0  0  0
   -0.6761   -0.6190    1.3477 C   0  0  0  0  0  0  0  0  0  0  0  0
   -0.3445    0.2577    2.1252 O   0  0  0  0  0  0  0  0  0  0  0  0
    0.3641    0.5407   -0.5732 C   0  0  0  0  0  0  0  0  0  0  0  0
    0.2109    1.7824    0.0012 O   0  0  0  0  0  0  0  0  0  0  0  0
    1.7434   -0.0238   -0.4539 C   0  0  0  0  0  0  0  0  0  0  0  0
    2.1826   -0.1946    0.8339 O   0  0  0  0  0  0  0  0  0  0  0  0
   -1.9726    1.0258   -0.9756 H   0  0  0  0  0  0  0  0  0  0  0  0
   -2.5664   -0.6207   -1.2660 H   0  0  0  0  0  0  0  0  0  0  0  0
   -2.7378    0.1712    0.3867 H   0  0  0  0  0  0  0  0  0  0  0  0
   -0.4843   -1.4287   -0.5922 H   0  0  0  0  0  0  0  0  0  0  0  0
   -0.9667   -1.5693    1.7580 H   0  0  0  0  0  0  0  0  0  0  0  0
    0.1821    0.6825   -1.6810 H   0  0  0  0  0  0  0  0  0  0  0  0
    0.7912    1.8155    0.8031 H   0  0  0  0  0  0  0  0  0  0  0  0
    1.7248   -1.0413   -0.9355 H   0  0  0  0  0  0  0  0  0  0  0  0
    2.4817    0.5760   -1.0213 H   0  0  0  0  0  0  0  0  0  0  0  0
    2.8558   -0.9354    0.8702 H   0  0  0  0  0  0  0  0  0  0  0  0
  1  2  1  0
  2  3  1  0
  3  4  2  0
  2  5  1  0
  5  6  1  0
  5  7  1  0
  7  8  1  0
  1  9  1  0
  1 10  1  0
  1 11  1  0
  2 12  1  0
  3 13  1  0
  5 14  1  0
  6 15  1  0
  7 16  1  0
  7 17  1  0
  8 18  1  0
M  END
