
     RDKit          3D

 21 21  0  0  0  0  0  0  0  0999 V2000
    1.2680   -1.7549    0.3293 C   0  0  0  0  0  0  0  0  0  0  0  0
    0.7128   -0.6180   -0.4558 C   0  0  0  0  0  0  0  0  0  0  0  0
    1.6013    0.5890   -0.2736 C   0  0  0  0  0  0  0  0  0  0  0  0
    1.1408    1.6931   -0.9820 O   0  0  0  0  0  0  0  0  0  0  0  0
   -0.7091   -0.3542   -0.0935 C   0  0  0  0  0  0  0  0  0  0  0  0
   -0.9061   -0.0052    1.3536 C   0  0  0  0  0  0  0  0  0  0  0  0
   -2.1533    0.6195    1.3176 O   0  0  0  0  0  0  0  0  0  0  0  0
   -2.3426    1.0924    0.0357 C   0  0  0  0  0  0  0  0  0  0  0  0
   -1.2304    0.7664   -0.7147 O   0  0  0  0  0  0  0  0  0  0  0  0
    2.0952   -2.2959   -0.2134 H   0  0  0  0  0  0  0  0  0  0  0  0
    0.4774   -2.5354    0.4688 H   0  0  0  0  0  0  0  0  0  0  0  0
    1.6997   -1.4494    1.3158 H   0  0  0  0  0  0  0  0  0  0  0  0
    0.7495   -0.8873   -1.5291 H   0  0  0  0  0  0  0  0  0  0  0  0
    2.6121    0.3349   -0.6658 H   0  0  0  0  0  0  0  0  0  0  0  0
    1.7452    0.8350    0.7990 H   0  0  0  0  0  0  0  0  0  0  0  0
    1.3524    2.5009   -0.4571 H   0  0  0  0  0  0  0  0  0  0  0  0
   -1.2987   -1.2585   -0.3187 H   0  0  0  0  0  0  0  0  0  0  0  0
   -0.1758    0.7963    1.6704 H   0  0  0  0  0  0  0  0  0  0  0  0
   -0.8881   -0.8718    2.0316 H   0  0  0  0  0  0  0  0  0  0  0  0
   -3.2238    0.6188   -0.4723 H   0  0  0  0  0  0  0  0  0  0  0  0
   -2.5265    2.1842    0.1106 H   0  0  0  0  0  0  0  0  0  0  0  0
  1  2  1  0
  2  3  1  0
  3  4  1  0
  2  5  1  0
  5  6  1  0
  6  7  1  0
  7  8  1  0
  8  9  1  0
  9  5  1  0
  1 10  1  0
  1 11  1  0
  1 12  1  0
  2 13  1  0
  3 14  1  0
  3 15  1  0
  4 16  1  0
  5 17  1  0
  6 18  1  0
  6 19  1  0
  8 20  1  0
  8 21  1  0
M  END
