
     RDKit          3D

 25 25  0  0  0  0  0  0  0  0999 V2000
   -1.4412   -1.4455   -0.0968 C   0  0  0  0  0  0  0  0  0  0  0  0
   -1.3624   -0.0104   -0.4576 C   0  0  0  0  0  0  0  0  0  0  0  0
   -2.3532    0.7357    0.4473 C   0  0  0  0  0  0  0  0  0  0  0  0
   -1.9412    0.5010    1.7541 O   0  0  0  0  0  0  0  0  0  0  0  0
   -0.0352    0.6230   -0.5008 C   0  0  0  0  0  0  0  0  0  0  0  0
    0.8971   -0.0573   -1.5287 C   0  0  0  0  0  0  0  0  0  0  0  0
    1.2446    0.1415   -0.0736 C   0  0  0  0  0  0  0  0  0  0  0  0
    1.5416   -1.0261    0.7915 C   0  0  0  0  0  0  0  0  0  0  0  0
    2.3497    1.2103    0.0862 C   0  0  0  0  0  0  0  0  0  0  0  0
   -2.5289   -1.7414   -0.2232 H   0  0  0  0  0  0  0  0  0  0  0  0
   -1.2240   -1.6727    0.9608 H   0  0  0  0  0  0  0  0  0  0  0  0
   -0.9099   -2.1035   -0.8199 H   0  0  0  0  0  0  0  0  0  0  0  0
   -1.8218    0.0902   -1.4880 H   0  0  0  0  0  0  0  0  0  0  0  0
   -2.4280    1.7879    0.1847 H   0  0  0  0  0  0  0  0  0  0  0  0
   -3.3368    0.1926    0.3399 H   0  0  0  0  0  0  0  0  0  0  0  0
   -1.5789    1.3446    2.1100 H   0  0  0  0  0  0  0  0  0  0  0  0
   -0.1324    1.7352   -0.7097 H   0  0  0  0  0  0  0  0  0  0  0  0
    0.6961   -1.1021   -1.7957 H   0  0  0  0  0  0  0  0  0  0  0  0
    1.3432    0.5445   -2.3139 H   0  0  0  0  0  0  0  0  0  0  0  0
    1.0979   -1.9837    0.4750 H   0  0  0  0  0  0  0  0  0  0  0  0
    1.3405   -0.7793    1.8610 H   0  0  0  0  0  0  0  0  0  0  0  0
    2.6553   -1.2249    0.7508 H   0  0  0  0  0  0  0  0  0  0  0  0
    2.7038    1.2563    1.1165 H   0  0  0  0  0  0  0  0  0  0  0  0
    3.2000    0.8106   -0.5324 H   0  0  0  0  0  0  0  0  0  0  0  0
    2.0241    2.1733   -0.3374 H   0  0  0  0  0  0  0  0  0  0  0  0
  1  2  1  0
  2  3  1  0
  3  4  1  0
  2  5  1  0
  5  6  1  0
  6  7  1  0
  7  8  1  0
  7  9  1  0
  7  5  1  0
  1 10  1  0
  1 11  1  0
  1 12  1  0
  2 13  1  0
  3 14  1  0
  3 15  1  0
  4 16  1  0
  5 17  1  0
  6 18  1  0
  6 19  1  0
  8 20  1  0
  8 21  1  0
  8 22  1  0
  9 23  1  0
  9 24  1  0
  9 25  1  0
M  END
