
     RDKit          3D

 19 19  0  0  0  0  0  0  0  0999 V2000
   -0.9741   -2.0838   -0.5929 C   0  0  0  0  0  0  0  0  0  0  0  0
   -0.9339   -0.7865    0.1516 C   0  0  0  0  0  0  0  0  0  0  0  0
    0.4806   -0.3672    0.2342 C   0  0  0  0  0  0  0  0  0  0  0  0
    1.6744    0.0087    0.3088 C   0  0  0  0  0  0  0  0  0  0  0  0
    3.0603    0.4245    0.4104 C   0  0  0  0  0  0  0  0  0  0  0  0
    3.0620    1.8394    0.5293 O   0  0  0  0  0  0  0  0  0  0  0  0
   -1.7920    0.2946   -0.4241 C   0  0  0  0  0  0  0  0  0  0  0  0
   -1.9610    1.6138    0.0601 C   0  0  0  0  0  0  0  0  0  0  0  0
   -2.9402    0.6238    0.4470 O   0  0  0  0  0  0  0  0  0  0  0  0
   -0.9378   -1.9897   -1.6901 H   0  0  0  0  0  0  0  0  0  0  0  0
   -1.8734   -2.6620   -0.2353 H   0  0  0  0  0  0  0  0  0  0  0  0
   -0.1182   -2.7169   -0.2707 H   0  0  0  0  0  0  0  0  0  0  0  0
   -1.3084   -1.0042    1.2004 H   0  0  0  0  0  0  0  0  0  0  0  0
    3.6114    0.0382    1.2798 H   0  0  0  0  0  0  0  0  0  0  0  0
    3.6342    0.1301   -0.5161 H   0  0  0  0  0  0  0  0  0  0  0  0
    3.3951    2.1641   -0.3650 H   0  0  0  0  0  0  0  0  0  0  0  0
   -2.1636    0.0340   -1.4597 H   0  0  0  0  0  0  0  0  0  0  0  0
   -1.4284    2.0962    0.8823 H   0  0  0  0  0  0  0  0  0  0  0  0
   -2.4870    2.3431   -0.6122 H   0  0  0  0  0  0  0  0  0  0  0  0
  1  2  1  0
  2  3  1  0
  3  4  3  0
  4  5  1  0
  5  6  1  0
  2  7  1  0
  7  8  1  0
  8  9  1  0
  9  7  1  0
  1 10  1  0
  1 11  1  0
  1 12  1  0
  2 13  1  0
  5 14  1  0
  5 15  1  0
  6 16  1  0
  7 17  1  0
  8 18  1  0
  8 19  1  0
M  END
