
     RDKit          3D

 27 26  0  0  0  0  0  0  0  0999 V2000
   -1.7276    0.7699    0.8524 C   0  0  0  0  0  0  0  0  0  0  0  0
   -0.8745   -0.1573    0.0594 C   0  0  0  0  0  0  0  0  0  0  0  0
   -1.3634   -0.1093   -1.3834 C   0  0  0  0  0  0  0  0  0  0  0  0
   -1.1133   -1.5733    0.5333 C   0  0  0  0  0  0  0  0  0  0  0  0
    0.5875    0.2076    0.0621 C   0  0  0  0  0  0  0  0  0  0  0  0
    0.8200    1.5880   -0.5177 C   0  0  0  0  0  0  0  0  0  0  0  0
    1.1581    0.2514    1.4693 C   0  0  0  0  0  0  0  0  0  0  0  0
    1.4205   -0.8010   -0.7002 C   0  0  0  0  0  0  0  0  0  0  0  0
    2.7525   -0.3463   -0.6210 O   0  0  0  0  0  0  0  0  0  0  0  0
   -2.4257    0.2282    1.5568 H   0  0  0  0  0  0  0  0  0  0  0  0
   -1.1770    1.4831    1.4818 H   0  0  0  0  0  0  0  0  0  0  0  0
   -2.4162    1.3937    0.2159 H   0  0  0  0  0  0  0  0  0  0  0  0
   -0.9374   -0.9385   -1.9837 H   0  0  0  0  0  0  0  0  0  0  0  0
   -2.4680   -0.3309   -1.3224 H   0  0  0  0  0  0  0  0  0  0  0  0
   -1.1827    0.8864   -1.8366 H   0  0  0  0  0  0  0  0  0  0  0  0
   -2.1774   -1.6102    0.9072 H   0  0  0  0  0  0  0  0  0  0  0  0
   -0.4844   -1.8824    1.3598 H   0  0  0  0  0  0  0  0  0  0  0  0
   -1.1056   -2.2959   -0.3344 H   0  0  0  0  0  0  0  0  0  0  0  0
    0.1993    2.3410    0.0032 H   0  0  0  0  0  0  0  0  0  0  0  0
    0.7157    1.6103   -1.6183 H   0  0  0  0  0  0  0  0  0  0  0  0
    1.8834    1.8441   -0.3054 H   0  0  0  0  0  0  0  0  0  0  0  0
    1.0494   -0.6943    1.9895 H   0  0  0  0  0  0  0  0  0  0  0  0
    0.8110    1.1399    2.0315 H   0  0  0  0  0  0  0  0  0  0  0  0
    2.2683    0.4094    1.3297 H   0  0  0  0  0  0  0  0  0  0  0  0
    1.4126   -1.7615   -0.1173 H   0  0  0  0  0  0  0  0  0  0  0  0
    1.0990   -0.9400   -1.7297 H   0  0  0  0  0  0  0  0  0  0  0  0
    3.2760   -0.7121   -1.3817 H   0  0  0  0  0  0  0  0  0  0  0  0
  1  2  1  0
  2  3  1  0
  2  4  1  0
  2  5  1  0
  5  6  1  0
  5  7  1  0
  5  8  1  0
  8  9  1  0
  1 10  1  0
  1 11  1  0
  1 12  1  0
  3 13  1  0
  3 14  1  0
  3 15  1  0
  4 16  1  0
  4 17  1  0
  4 18  1  0
  6 19  1  0
  6 20  1  0
  6 21  1  0
  7 22  1  0
  7 23  1  0
  7 24  1  0
  8 25  1  0
  8 26  1  0
  9 27  1  0
M  END
