
     RDKit          3D

 22 22  0  0  0  0  0  0  0  0999 V2000
   -1.8075   -1.2167    0.0192 C   0  0  0  0  0  0  0  0  0  0  0  0
   -1.3259    0.1600    0.4997 C   0  0  0  0  0  0  0  0  0  0  0  0
   -2.3489    1.1945    0.0845 C   0  0  0  0  0  0  0  0  0  0  0  0
    0.0171    0.4051   -0.1996 C   0  0  0  0  0  0  0  0  0  0  0  0
    0.9351   -0.7231    0.2415 C   0  0  0  0  0  0  0  0  0  0  0  0
    2.3034   -0.6106   -0.3735 C   0  0  0  0  0  0  0  0  0  0  0  0
    3.0397    0.6695   -0.0300 C   0  0  0  0  0  0  0  0  0  0  0  0
    2.5702    0.3931   -1.2931 O   0  0  0  0  0  0  0  0  0  0  0  0
   -2.9110   -1.1557   -0.0444 H   0  0  0  0  0  0  0  0  0  0  0  0
   -1.4620   -1.9445    0.7808 H   0  0  0  0  0  0  0  0  0  0  0  0
   -1.3674   -1.4567   -0.9812 H   0  0  0  0  0  0  0  0  0  0  0  0
   -1.2025    0.1487    1.5922 H   0  0  0  0  0  0  0  0  0  0  0  0
   -2.0918    1.6310   -0.9169 H   0  0  0  0  0  0  0  0  0  0  0  0
   -3.3794    0.8032    0.1108 H   0  0  0  0  0  0  0  0  0  0  0  0
   -2.2809    2.0441    0.8236 H   0  0  0  0  0  0  0  0  0  0  0  0
    0.4330    1.3567    0.1342 H   0  0  0  0  0  0  0  0  0  0  0  0
   -0.0947    0.3049   -1.2921 H   0  0  0  0  0  0  0  0  0  0  0  0
    0.4771   -1.6657   -0.1304 H   0  0  0  0  0  0  0  0  0  0  0  0
    1.0049   -0.7827    1.3484 H   0  0  0  0  0  0  0  0  0  0  0  0
    2.8998   -1.5267   -0.5413 H   0  0  0  0  0  0  0  0  0  0  0  0
    4.1040    0.5141    0.2300 H   0  0  0  0  0  0  0  0  0  0  0  0
    2.4877    1.4574    0.5017 H   0  0  0  0  0  0  0  0  0  0  0  0
  1  2  1  0
  2  3  1  0
  2  4  1  0
  4  5  1  0
  5  6  1  0
  6  7  1  0
  7  8  1  0
  8  6  1  0
  1  9  1  0
  1 10  1  0
  1 11  1  0
  2 12  1  0
  3 13  1  0
  3 14  1  0
  3 15  1  0
  4 16  1  0
  4 17  1  0
  5 18  1  0
  5 19  1  0
  6 20  1  0
  7 21  1  0
  7 22  1  0
M  END
