
     RDKit          3D

 17 16  0  0  0  0  0  0  0  0999 V2000
   -1.2315   -1.1668    0.3972 C   0  0  0  0  0  0  0  0  0  0  0  0
   -0.3989    0.0681    0.6127 C   0  0  0  0  0  0  0  0  0  0  0  0
    1.0307   -0.2469    0.5758 C   0  0  0  0  0  0  0  0  0  0  0  0
    2.2213   -0.5308    0.5416 C   0  0  0  0  0  0  0  0  0  0  0  0
    3.6198   -0.8509    0.4885 C   0  0  0  0  0  0  0  0  0  0  0  0
    4.1890   -1.5396    1.3757 O   0  0  0  0  0  0  0  0  0  0  0  0
   -0.6618    1.1008   -0.4751 C   0  0  0  0  0  0  0  0  0  0  0  0
   -2.0980    1.5095   -0.4843 C   0  0  0  0  0  0  0  0  0  0  0  0
   -2.4275    2.3320   -1.3123 O   0  0  0  0  0  0  0  0  0  0  0  0
   -1.9850   -0.9563   -0.3820 H   0  0  0  0  0  0  0  0  0  0  0  0
   -0.6149   -2.0514    0.1402 H   0  0  0  0  0  0  0  0  0  0  0  0
   -1.8051   -1.4608    1.3133 H   0  0  0  0  0  0  0  0  0  0  0  0
   -0.6970    0.4873    1.6053 H   0  0  0  0  0  0  0  0  0  0  0  0
    4.1787   -0.4726   -0.3566 H   0  0  0  0  0  0  0  0  0  0  0  0
   -0.4403    0.6666   -1.4557 H   0  0  0  0  0  0  0  0  0  0  0  0
   -0.0410    1.9936   -0.3438 H   0  0  0  0  0  0  0  0  0  0  0  0
   -2.8386    1.1181    0.1935 H   0  0  0  0  0  0  0  0  0  0  0  0
  1  2  1  0
  2  3  1  0
  3  4  3  0
  4  5  1  0
  5  6  2  0
  2  7  1  0
  7  8  1  0
  8  9  2  0
  1 10  1  0
  1 11  1  0
  1 12  1  0
  2 13  1  0
  5 14  1  0
  7 15  1  0
  7 16  1  0
  8 17  1  0
M  END
