
     RDKit          3D

 23 24  0  0  0  0  0  0  0  0999 V2000
   -2.4836    0.8305   -0.7442 C   0  0  0  0  0  0  0  0  0  0  0  0
   -1.3504   -0.1672   -0.4899 C   0  0  0  0  0  0  0  0  0  0  0  0
   -1.8725   -1.3605    0.2367 C   0  0  0  0  0  0  0  0  0  0  0  0
   -0.2922    0.5853    0.2816 C   0  0  0  0  0  0  0  0  0  0  0  0
    0.9020   -0.2838    0.6075 C   0  0  0  0  0  0  0  0  0  0  0  0
    1.8408    0.4644    1.3178 O   0  0  0  0  0  0  0  0  0  0  0  0
    2.3694    0.8246    0.0787 C   0  0  0  0  0  0  0  0  0  0  0  0
    3.2646   -0.1837   -0.5080 C   0  0  0  0  0  0  0  0  0  0  0  0
    1.8153   -0.4720   -0.5518 C   0  0  0  0  0  0  0  0  0  0  0  0
   -2.1289    1.6232   -1.4411 H   0  0  0  0  0  0  0  0  0  0  0  0
   -2.6394    1.3371    0.2475 H   0  0  0  0  0  0  0  0  0  0  0  0
   -3.3771    0.3090   -1.0971 H   0  0  0  0  0  0  0  0  0  0  0  0
   -0.9479   -0.4400   -1.4992 H   0  0  0  0  0  0  0  0  0  0  0  0
   -2.9637   -1.2429    0.4077 H   0  0  0  0  0  0  0  0  0  0  0  0
   -1.7673   -2.2529   -0.4386 H   0  0  0  0  0  0  0  0  0  0  0  0
   -1.4121   -1.5325    1.2256 H   0  0  0  0  0  0  0  0  0  0  0  0
   -0.7482    1.0460    1.1819 H   0  0  0  0  0  0  0  0  0  0  0  0
    0.0386    1.4218   -0.3680 H   0  0  0  0  0  0  0  0  0  0  0  0
    0.6577   -1.2548    1.0759 H   0  0  0  0  0  0  0  0  0  0  0  0
    2.0523    1.7329   -0.4271 H   0  0  0  0  0  0  0  0  0  0  0  0
    3.7710    0.0948   -1.4531 H   0  0  0  0  0  0  0  0  0  0  0  0
    3.9400   -0.7007    0.2186 H   0  0  0  0  0  0  0  0  0  0  0  0
    1.3315   -0.3786   -1.5449 H   0  0  0  0  0  0  0  0  0  0  0  0
  1  2  1  0
  2  3  1  0
  2  4  1  0
  4  5  1  0
  5  6  1  0
  6  7  1  0
  7  8  1  0
  8  9  1  0
  9  5  1  0
  9  7  1  0
  1 10  1  0
  1 11  1  0
  1 12  1  0
  2 13  1  0
  3 14  1  0
  3 15  1  0
  3 16  1  0
  4 17  1  0
  4 18  1  0
  5 19  1  0
  7 20  1  0
  8 21  1  0
  8 22  1  0
  9 23  1  0
M  END
