
     RDKit          3D

 25 25  0  0  0  0  0  0  0  0999 V2000
    2.0467   -1.6900   -0.5678 C   0  0  0  0  0  0  0  0  0  0  0  0
    1.1778   -0.4238   -0.6102 C   0  0  0  0  0  0  0  0  0  0  0  0
    2.1175    0.7124   -0.2806 C   0  0  0  0  0  0  0  0  0  0  0  0
    1.5044    1.9404   -0.2725 O   0  0  0  0  0  0  0  0  0  0  0  0
    0.1279   -0.6087    0.4648 C   0  0  0  0  0  0  0  0  0  0  0  0
   -0.8205    0.5417    0.5702 C   0  0  0  0  0  0  0  0  0  0  0  0
   -1.6063    0.8210   -0.6908 C   0  0  0  0  0  0  0  0  0  0  0  0
   -2.8156    0.0942   -0.1363 C   0  0  0  0  0  0  0  0  0  0  0  0
   -2.1190    0.1129    1.2197 C   0  0  0  0  0  0  0  0  0  0  0  0
    1.4417   -2.6002   -0.6449 H   0  0  0  0  0  0  0  0  0  0  0  0
    2.8560   -1.6121   -1.3178 H   0  0  0  0  0  0  0  0  0  0  0  0
    2.4964   -1.6862    0.4589 H   0  0  0  0  0  0  0  0  0  0  0  0
    0.7434   -0.3506   -1.6134 H   0  0  0  0  0  0  0  0  0  0  0  0
    2.5771    0.4638    0.7134 H   0  0  0  0  0  0  0  0  0  0  0  0
    2.9646    0.6436   -1.0100 H   0  0  0  0  0  0  0  0  0  0  0  0
    1.9045    2.4917    0.4321 H   0  0  0  0  0  0  0  0  0  0  0  0
    0.6369   -0.7219    1.4378 H   0  0  0  0  0  0  0  0  0  0  0  0
   -0.4642   -1.5265    0.2773 H   0  0  0  0  0  0  0  0  0  0  0  0
   -0.4206    1.4409    1.0806 H   0  0  0  0  0  0  0  0  0  0  0  0
   -1.1846    0.3280   -1.5692 H   0  0  0  0  0  0  0  0  0  0  0  0
   -1.7536    1.9140   -0.8114 H   0  0  0  0  0  0  0  0  0  0  0  0
   -3.7596    0.6522   -0.1856 H   0  0  0  0  0  0  0  0  0  0  0  0
   -2.9397   -0.9409   -0.5061 H   0  0  0  0  0  0  0  0  0  0  0  0
   -2.1104   -0.8770    1.7013 H   0  0  0  0  0  0  0  0  0  0  0  0
   -2.6009    0.8813    1.8606 H   0  0  0  0  0  0  0  0  0  0  0  0
  1  2  1  0
  2  3  1  0
  3  4  1  0
  2  5  1  0
  5  6  1  0
  6  7  1  0
  7  8  1  0
  8  9  1  0
  9  6  1  0
  1 10  1  0
  1 11  1  0
  1 12  1  0
  2 13  1  0
  3 14  1  0
  3 15  1  0
  4 16  1  0
  5 17  1  0
  5 18  1  0
  6 19  1  0
  7 20  1  0
  7 21  1  0
  8 22  1  0
  8 23  1  0
  9 24  1  0
  9 25  1  0
M  END
