
     RDKit          3D

 23 22  0  0  0  0  0  0  0  0999 V2000
   -2.7986    0.4626   -0.7327 C   0  0  0  0  0  0  0  0  0  0  0  0
   -1.5229   -0.2913   -0.2237 C   0  0  0  0  0  0  0  0  0  0  0  0
   -1.4399    0.1014    1.2277 C   0  0  0  0  0  0  0  0  0  0  0  0
   -0.4060    0.1427   -1.0898 C   0  0  0  0  0  0  0  0  0  0  0  0
    0.9473   -0.4311   -0.8929 C   0  0  0  0  0  0  0  0  0  0  0  0
    1.5314   -0.1588    0.4348 C   0  0  0  0  0  0  0  0  0  0  0  0
    2.8367   -0.6830    0.6230 O   0  0  0  0  0  0  0  0  0  0  0  0
    3.8697   -0.2360   -0.1614 C   0  0  0  0  0  0  0  0  0  0  0  0
    3.6284    0.6359   -1.0269 O   0  0  0  0  0  0  0  0  0  0  0  0
   -3.6264   -0.0316   -0.1918 H   0  0  0  0  0  0  0  0  0  0  0  0
   -2.6992    1.5055   -0.3924 H   0  0  0  0  0  0  0  0  0  0  0  0
   -2.8682    0.3553   -1.8330 H   0  0  0  0  0  0  0  0  0  0  0  0
   -1.7260   -1.3760   -0.3148 H   0  0  0  0  0  0  0  0  0  0  0  0
   -0.7533    0.9493    1.3525 H   0  0  0  0  0  0  0  0  0  0  0  0
   -1.2496   -0.7501    1.9171 H   0  0  0  0  0  0  0  0  0  0  0  0
   -2.4513    0.5117    1.5865 H   0  0  0  0  0  0  0  0  0  0  0  0
   -0.3689    1.2776   -1.0408 H   0  0  0  0  0  0  0  0  0  0  0  0
   -0.7223   -0.0025   -2.1806 H   0  0  0  0  0  0  0  0  0  0  0  0
    1.5979   -0.0582   -1.7362 H   0  0  0  0  0  0  0  0  0  0  0  0
    0.9102   -1.5477   -1.0641 H   0  0  0  0  0  0  0  0  0  0  0  0
    1.4924    0.9234    0.6594 H   0  0  0  0  0  0  0  0  0  0  0  0
    0.9178   -0.6786    1.2015 H   0  0  0  0  0  0  0  0  0  0  0  0
    4.9009   -0.6203   -0.0522 H   0  0  0  0  0  0  0  0  0  0  0  0
  1  2  1  0
  2  3  1  0
  2  4  1  0
  4  5  1  0
  5  6  1  0
  6  7  1  0
  7  8  1  0
  8  9  2  0
  1 10  1  0
  1 11  1  0
  1 12  1  0
  2 13  1  0
  3 14  1  0
  3 15  1  0
  3 16  1  0
  4 17  1  0
  4 18  1  0
  5 19  1  0
  5 20  1  0
  6 21  1  0
  6 22  1  0
  8 23  1  0
M  END
