
     RDKit          3D

 23 24  0  0  0  0  0  0  0  0999 V2000
    2.2712    1.2355    0.1760 C   0  0  0  0  0  0  0  0  0  0  0  0
    1.1178    0.2518    0.3930 C   0  0  0  0  0  0  0  0  0  0  0  0
    1.7090   -1.1338    0.2590 C   0  0  0  0  0  0  0  0  0  0  0  0
    0.0866    0.4142   -0.6918 C   0  0  0  0  0  0  0  0  0  0  0  0
   -0.4776    1.7147   -0.7468 O   0  0  0  0  0  0  0  0  0  0  0  0
   -1.6053    1.1091   -1.3038 C   0  0  0  0  0  0  0  0  0  0  0  0
   -1.2454   -0.1030   -0.5100 C   0  0  0  0  0  0  0  0  0  0  0  0
   -1.9288   -0.4552    0.7322 C   0  0  0  0  0  0  0  0  0  0  0  0
   -1.8405   -1.3788   -0.5248 C   0  0  0  0  0  0  0  0  0  0  0  0
    2.6753    1.4945    1.1811 H   0  0  0  0  0  0  0  0  0  0  0  0
    3.0729    0.7829   -0.4291 H   0  0  0  0  0  0  0  0  0  0  0  0
    1.8949    2.1062   -0.3828 H   0  0  0  0  0  0  0  0  0  0  0  0
    0.6526    0.4021    1.3960 H   0  0  0  0  0  0  0  0  0  0  0  0
    2.6706   -1.0826   -0.2981 H   0  0  0  0  0  0  0  0  0  0  0  0
    1.0439   -1.7727   -0.3277 H   0  0  0  0  0  0  0  0  0  0  0  0
    1.8611   -1.6097    1.2605 H   0  0  0  0  0  0  0  0  0  0  0  0
    0.5427    0.2262   -1.6856 H   0  0  0  0  0  0  0  0  0  0  0  0
   -2.5714    1.5325   -0.9809 H   0  0  0  0  0  0  0  0  0  0  0  0
   -1.5309    0.8942   -2.3946 H   0  0  0  0  0  0  0  0  0  0  0  0
   -2.9133    0.0365    0.8973 H   0  0  0  0  0  0  0  0  0  0  0  0
   -1.3676   -0.7738    1.6155 H   0  0  0  0  0  0  0  0  0  0  0  0
   -2.8368   -1.5694   -1.0189 H   0  0  0  0  0  0  0  0  0  0  0  0
   -1.2810   -2.3216   -0.3753 H   0  0  0  0  0  0  0  0  0  0  0  0
  1  2  1  0
  2  3  1  0
  2  4  1  0
  4  5  1  0
  5  6  1  0
  6  7  1  0
  7  8  1  0
  8  9  1  0
  7  4  1  0
  9  7  1  0
  1 10  1  0
  1 11  1  0
  1 12  1  0
  2 13  1  0
  3 14  1  0
  3 15  1  0
  3 16  1  0
  4 17  1  0
  6 18  1  0
  6 19  1  0
  8 20  1  0
  8 21  1  0
  9 22  1  0
  9 23  1  0
M  END
