
     RDKit          3D

 23 23  0  0  0  0  0  0  0  0999 V2000
   -1.7829    0.7530    0.5378 C   0  0  0  0  0  0  0  0  0  0  0  0
   -1.3299   -0.2919   -0.4531 C   0  0  0  0  0  0  0  0  0  0  0  0
   -2.2951   -1.4313   -0.5380 C   0  0  0  0  0  0  0  0  0  0  0  0
    0.0349   -0.7159   -0.0562 C   0  0  0  0  0  0  0  0  0  0  0  0
    0.1574   -1.9114    0.2391 O   0  0  0  0  0  0  0  0  0  0  0  0
    1.2050    0.1663    0.0051 C   0  0  0  0  0  0  0  0  0  0  0  0
    0.9617    1.5873   -0.3836 C   0  0  0  0  0  0  0  0  0  0  0  0
    2.5310   -0.4425   -0.2784 C   0  0  0  0  0  0  0  0  0  0  0  0
    2.1558   -0.1441    1.1437 C   0  0  0  0  0  0  0  0  0  0  0  0
   -2.6108    0.2947    1.1206 H   0  0  0  0  0  0  0  0  0  0  0  0
   -0.9648    1.0602    1.1889 H   0  0  0  0  0  0  0  0  0  0  0  0
   -2.2252    1.6065   -0.0421 H   0  0  0  0  0  0  0  0  0  0  0  0
   -1.2520    0.1657   -1.4653 H   0  0  0  0  0  0  0  0  0  0  0  0
   -3.2482   -1.0349   -0.9447 H   0  0  0  0  0  0  0  0  0  0  0  0
   -2.5336   -1.8888    0.4334 H   0  0  0  0  0  0  0  0  0  0  0  0
   -1.8879   -2.2266   -1.1817 H   0  0  0  0  0  0  0  0  0  0  0  0
    0.0045    1.6968   -0.9085 H   0  0  0  0  0  0  0  0  0  0  0  0
    0.9507    2.2999    0.4731 H   0  0  0  0  0  0  0  0  0  0  0  0
    1.7662    1.9763   -1.0561 H   0  0  0  0  0  0  0  0  0  0  0  0
    3.3628    0.2028   -0.6659 H   0  0  0  0  0  0  0  0  0  0  0  0
    2.5318   -1.4685   -0.6425 H   0  0  0  0  0  0  0  0  0  0  0  0
    2.5440    0.7413    1.6545 H   0  0  0  0  0  0  0  0  0  0  0  0
    1.9246   -0.9947    1.8199 H   0  0  0  0  0  0  0  0  0  0  0  0
  1  2  1  0
  2  3  1  0
  2  4  1  0
  4  5  2  0
  4  6  1  0
  6  7  1  0
  6  8  1  0
  8  9  1  0
  9  6  1  0
  1 10  1  0
  1 11  1  0
  1 12  1  0
  2 13  1  0
  3 14  1  0
  3 15  1  0
  3 16  1  0
  7 17  1  0
  7 18  1  0
  7 19  1  0
  8 20  1  0
  8 21  1  0
  9 22  1  0
  9 23  1  0
M  END
