
     RDKit          3D

 23 24  0  0  0  0  0  0  0  0999 V2000
   -1.5339    1.4819    1.0763 C   0  0  0  0  0  0  0  0  0  0  0  0
   -1.3870    0.1383    0.4497 C   0  0  0  0  0  0  0  0  0  0  0  0
   -2.4932   -0.0215   -0.5982 C   0  0  0  0  0  0  0  0  0  0  0  0
   -0.0671   -0.0492   -0.2581 C   0  0  0  0  0  0  0  0  0  0  0  0
    0.0811   -1.4366   -0.9035 C   0  0  0  0  0  0  0  0  0  0  0  0
    0.9717   -0.9425    0.2458 C   0  0  0  0  0  0  0  0  0  0  0  0
    2.4061   -0.6946   -0.1820 C   0  0  0  0  0  0  0  0  0  0  0  0
    3.0643    0.6051    0.1408 C   0  0  0  0  0  0  0  0  0  0  0  0
    3.3853   -0.6405    0.8432 O   0  0  0  0  0  0  0  0  0  0  0  0
   -0.5672    2.0435    1.1286 H   0  0  0  0  0  0  0  0  0  0  0  0
   -1.9086    1.4473    2.1249 H   0  0  0  0  0  0  0  0  0  0  0  0
   -2.2836    2.1240    0.5294 H   0  0  0  0  0  0  0  0  0  0  0  0
   -1.5662   -0.6523    1.2027 H   0  0  0  0  0  0  0  0  0  0  0  0
   -3.2985    0.7313   -0.4524 H   0  0  0  0  0  0  0  0  0  0  0  0
   -2.0557    0.1969   -1.6154 H   0  0  0  0  0  0  0  0  0  0  0  0
   -2.8764   -1.0485   -0.6426 H   0  0  0  0  0  0  0  0  0  0  0  0
    0.2513    0.8037   -0.8834 H   0  0  0  0  0  0  0  0  0  0  0  0
    0.5057   -1.4799   -1.9144 H   0  0  0  0  0  0  0  0  0  0  0  0
   -0.6664   -2.2104   -0.6424 H   0  0  0  0  0  0  0  0  0  0  0  0
    0.8749   -1.5257    1.1940 H   0  0  0  0  0  0  0  0  0  0  0  0
    2.7543   -1.1670   -1.1337 H   0  0  0  0  0  0  0  0  0  0  0  0
    3.8923    0.9532   -0.4795 H   0  0  0  0  0  0  0  0  0  0  0  0
    2.5167    1.3436    0.7703 H   0  0  0  0  0  0  0  0  0  0  0  0
  1  2  1  0
  2  3  1  0
  2  4  1  0
  4  5  1  0
  5  6  1  0
  6  7  1  0
  7  8  1  0
  8  9  1  0
  6  4  1  0
  9  7  1  0
  1 10  1  0
  1 11  1  0
  1 12  1  0
  2 13  1  0
  3 14  1  0
  3 15  1  0
  3 16  1  0
  4 17  1  0
  5 18  1  0
  5 19  1  0
  6 20  1  0
  7 21  1  0
  8 22  1  0
  8 23  1  0
M  END
