
     RDKit          3D

 20 20  0  0  0  0  0  0  0  0999 V2000
    1.8742   -0.7223    0.0222 C   0  0  0  0  0  0  0  0  0  0  0  0
    1.1916    0.4121   -0.6690 C   0  0  0  0  0  0  0  0  0  0  0  0
    1.7759    1.7167   -0.2800 C   0  0  0  0  0  0  0  0  0  0  0  0
    1.7164    2.6812   -1.0045 O   0  0  0  0  0  0  0  0  0  0  0  0
   -0.2968    0.4135   -0.5380 C   0  0  0  0  0  0  0  0  0  0  0  0
   -0.9442   -0.8498   -1.1156 C   0  0  0  0  0  0  0  0  0  0  0  0
   -1.0489   -0.4867    0.3304 C   0  0  0  0  0  0  0  0  0  0  0  0
   -2.4349   -0.0734    0.7695 C   0  0  0  0  0  0  0  0  0  0  0  0
    2.7340   -1.1061   -0.6048 H   0  0  0  0  0  0  0  0  0  0  0  0
    1.2415   -1.6071    0.1912 H   0  0  0  0  0  0  0  0  0  0  0  0
    2.3646   -0.3901    0.9769 H   0  0  0  0  0  0  0  0  0  0  0  0
    1.4105    0.2974   -1.7729 H   0  0  0  0  0  0  0  0  0  0  0  0
    2.2665    1.8087    0.6730 H   0  0  0  0  0  0  0  0  0  0  0  0
   -0.7706    1.3920   -0.7699 H   0  0  0  0  0  0  0  0  0  0  0  0
   -1.7665   -0.6327   -1.8144 H   0  0  0  0  0  0  0  0  0  0  0  0
   -0.3164   -1.7102   -1.3459 H   0  0  0  0  0  0  0  0  0  0  0  0
   -0.5237   -1.1047    1.0821 H   0  0  0  0  0  0  0  0  0  0  0  0
   -3.1765   -0.6351    0.1348 H   0  0  0  0  0  0  0  0  0  0  0  0
   -2.6646   -0.3968    1.8143 H   0  0  0  0  0  0  0  0  0  0  0  0
   -2.6321    0.9934    0.6273 H   0  0  0  0  0  0  0  0  0  0  0  0
  1  2  1  0
  2  3  1  0
  3  4  2  0
  2  5  1  0
  5  6  1  0
  6  7  1  0
  7  8  1  0
  7  5  1  0
  1  9  1  0
  1 10  1  0
  1 11  1  0
  2 12  1  0
  3 13  1  0
  5 14  1  0
  6 15  1  0
  6 16  1  0
  7 17  1  0
  8 18  1  0
  8 19  1  0
  8 20  1  0
M  END
