
     RDKit          3D

 15 14  0  0  0  0  0  0  0  0999 V2000
   -1.0934   -0.8367   -0.0673 C   0  0  0  0  0  0  0  0  0  0  0  0
   -0.0806    0.2754   -0.1667 C   0  0  0  0  0  0  0  0  0  0  0  0
   -0.6137    1.2362   -1.1603 C   0  0  0  0  0  0  0  0  0  0  0  0
   -1.6972    1.7280   -1.0147 O   0  0  0  0  0  0  0  0  0  0  0  0
   -0.0478    0.9199    1.1868 C   0  0  0  0  0  0  0  0  0  0  0  0
    0.9903    1.0658    1.7979 O   0  0  0  0  0  0  0  0  0  0  0  0
    1.1703   -0.1111   -0.6032 O   0  0  0  0  0  0  0  0  0  0  0  0
    2.0098   -1.0211   -0.0081 C   0  0  0  0  0  0  0  0  0  0  0  0
    1.6325   -1.5668    1.0277 O   0  0  0  0  0  0  0  0  0  0  0  0
   -2.0111   -0.3812    0.3742 H   0  0  0  0  0  0  0  0  0  0  0  0
   -1.4177   -1.1980   -1.0834 H   0  0  0  0  0  0  0  0  0  0  0  0
   -0.8075   -1.6468    0.5974 H   0  0  0  0  0  0  0  0  0  0  0  0
   -0.0230    1.4925   -2.0169 H   0  0  0  0  0  0  0  0  0  0  0  0
   -0.9738    1.2574    1.6166 H   0  0  0  0  0  0  0  0  0  0  0  0
    2.9629   -1.2135   -0.4800 H   0  0  0  0  0  0  0  0  0  0  0  0
  1  2  1  0
  2  3  1  0
  3  4  2  0
  2  5  1  0
  5  6  2  0
  2  7  1  0
  7  8  1  0
  8  9  2  0
  1 10  1  0
  1 11  1  0
  1 12  1  0
  3 13  1  0
  5 14  1  0
  8 15  1  0
M  END
