
     RDKit          3D

 19 19  0  0  0  0  0  0  0  0999 V2000
   -1.7271    1.2442    0.2908 C   0  0  0  0  0  0  0  0  0  0  0  0
   -0.8402    0.1596   -0.2811 C   0  0  0  0  0  0  0  0  0  0  0  0
   -1.6626   -1.1103   -0.3331 C   0  0  0  0  0  0  0  0  0  0  0  0
   -0.5328    0.5075   -1.5953 O   0  0  0  0  0  0  0  0  0  0  0  0
    0.4057   -0.0234    0.5081 C   0  0  0  0  0  0  0  0  0  0  0  0
    0.2976   -0.3305    1.6794 O   0  0  0  0  0  0  0  0  0  0  0  0
    1.7152    0.1685   -0.1370 C   0  0  0  0  0  0  0  0  0  0  0  0
    2.9103   -0.3557    0.6130 C   0  0  0  0  0  0  0  0  0  0  0  0
    2.6655    0.9974    0.6462 O   0  0  0  0  0  0  0  0  0  0  0  0
   -2.4460    1.5506   -0.5192 H   0  0  0  0  0  0  0  0  0  0  0  0
   -2.3184    0.8150    1.1282 H   0  0  0  0  0  0  0  0  0  0  0  0
   -1.1649    2.1342    0.6151 H   0  0  0  0  0  0  0  0  0  0  0  0
   -1.0461   -1.9936   -0.5932 H   0  0  0  0  0  0  0  0  0  0  0  0
   -2.0549   -1.3028    0.6938 H   0  0  0  0  0  0  0  0  0  0  0  0
   -2.4586   -1.0121   -1.0701 H   0  0  0  0  0  0  0  0  0  0  0  0
    0.0044   -0.2310   -1.9633 H   0  0  0  0  0  0  0  0  0  0  0  0
    1.8008    0.4428   -1.1841 H   0  0  0  0  0  0  0  0  0  0  0  0
    2.7062   -0.9207    1.5362 H   0  0  0  0  0  0  0  0  0  0  0  0
    3.7458   -0.7396   -0.0342 H   0  0  0  0  0  0  0  0  0  0  0  0
  1  2  1  0
  2  3  1  0
  2  4  1  0
  2  5  1  0
  5  6  2  0
  5  7  1  0
  7  8  1  0
  8  9  1  0
  9  7  1  0
  1 10  1  0
  1 11  1  0
  1 12  1  0
  3 13  1  0
  3 14  1  0
  3 15  1  0
  4 16  1  0
  7 17  1  0
  8 18  1  0
  8 19  1  0
M  END
