
     RDKit          3D

 23 24  0  0  0  0  0  0  0  0999 V2000
   -1.4826   -0.9084   -1.2439 C   0  0  0  0  0  0  0  0  0  0  0  0
   -1.0619    0.2550   -0.4115 C   0  0  0  0  0  0  0  0  0  0  0  0
   -1.9089    0.2126    0.8647 C   0  0  0  0  0  0  0  0  0  0  0  0
    0.3645    0.2753   -0.0263 C   0  0  0  0  0  0  0  0  0  0  0  0
    0.6839    1.4964    0.8153 C   0  0  0  0  0  0  0  0  0  0  0  0
    0.9765   -1.0059    0.4431 C   0  0  0  0  0  0  0  0  0  0  0  0
    2.3142   -0.4271    0.1312 C   0  0  0  0  0  0  0  0  0  0  0  0
    1.3875   -0.1220   -1.0185 C   0  0  0  0  0  0  0  0  0  0  0  0
    0.9366   -1.4253   -0.8834 O   0  0  0  0  0  0  0  0  0  0  0  0
   -2.5736   -0.7515   -1.4930 H   0  0  0  0  0  0  0  0  0  0  0  0
   -0.9650   -0.9849   -2.2076 H   0  0  0  0  0  0  0  0  0  0  0  0
   -1.4596   -1.8411   -0.6505 H   0  0  0  0  0  0  0  0  0  0  0  0
   -1.2909    1.1837   -1.0004 H   0  0  0  0  0  0  0  0  0  0  0  0
   -1.2660    0.3791    1.7586 H   0  0  0  0  0  0  0  0  0  0  0  0
   -2.7068    0.9622    0.8571 H   0  0  0  0  0  0  0  0  0  0  0  0
   -2.3516   -0.8062    1.0124 H   0  0  0  0  0  0  0  0  0  0  0  0
   -0.1832    2.2187    0.8252 H   0  0  0  0  0  0  0  0  0  0  0  0
    0.9226    1.1215    1.8265 H   0  0  0  0  0  0  0  0  0  0  0  0
    1.5278    2.0906    0.3808 H   0  0  0  0  0  0  0  0  0  0  0  0
    0.7119   -1.5502    1.2482 H   0  0  0  0  0  0  0  0  0  0  0  0
    3.1342   -1.1307   -0.0911 H   0  0  0  0  0  0  0  0  0  0  0  0
    2.6414    0.4194    0.7401 H   0  0  0  0  0  0  0  0  0  0  0  0
    1.6491    0.3388   -1.8769 H   0  0  0  0  0  0  0  0  0  0  0  0
  1  2  1  0
  2  3  1  0
  2  4  1  0
  4  5  1  0
  4  6  1  0
  6  7  1  0
  7  8  1  0
  8  9  1  0
  8  4  1  0
  9  6  1  0
  1 10  1  0
  1 11  1  0
  1 12  1  0
  2 13  1  0
  3 14  1  0
  3 15  1  0
  3 16  1  0
  5 17  1  0
  5 18  1  0
  5 19  1  0
  6 20  1  0
  7 21  1  0
  7 22  1  0
  8 23  1  0
M  END
