
     RDKit          3D

 18 18  0  0  0  0  0  0  0  0999 V2000
   -1.1976   -1.1953   -0.1912 C   0  0  0  0  0  0  0  0  0  0  0  0
   -0.5324    0.1495   -0.2881 C   0  0  0  0  0  0  0  0  0  0  0  0
   -1.4604    1.2040    0.1496 C   0  0  0  0  0  0  0  0  0  0  0  0
    0.8104    0.0893    0.3210 C   0  0  0  0  0  0  0  0  0  0  0  0
    1.6859    1.3238    0.3887 C   0  0  0  0  0  0  0  0  0  0  0  0
    2.7786    1.1927   -0.0223 O   0  0  0  0  0  0  0  0  0  0  0  0
    1.5728   -1.1967    0.4880 C   0  0  0  0  0  0  0  0  0  0  0  0
    0.8069   -0.6860    1.5023 O   0  0  0  0  0  0  0  0  0  0  0  0
   -1.0331   -1.8228   -1.0747 H   0  0  0  0  0  0  0  0  0  0  0  0
   -0.7485   -1.7456    0.6767 H   0  0  0  0  0  0  0  0  0  0  0  0
   -2.2934   -1.0852    0.0579 H   0  0  0  0  0  0  0  0  0  0  0  0
   -0.3482    0.3489   -1.4005 H   0  0  0  0  0  0  0  0  0  0  0  0
   -1.6962    1.1788    1.2402 H   0  0  0  0  0  0  0  0  0  0  0  0
   -1.1088    2.1960   -0.2053 H   0  0  0  0  0  0  0  0  0  0  0  0
   -2.4449    0.9920   -0.3653 H   0  0  0  0  0  0  0  0  0  0  0  0
    1.3069    2.2439    0.7643 H   0  0  0  0  0  0  0  0  0  0  0  0
    2.6652   -1.1678    0.7441 H   0  0  0  0  0  0  0  0  0  0  0  0
    1.2369   -2.0195   -0.1765 H   0  0  0  0  0  0  0  0  0  0  0  0
  1  2  1  0
  2  3  1  0
  2  4  1  0
  4  5  1  0
  5  6  2  0
  4  7  1  0
  7  8  1  0
  8  4  1  0
  1  9  1  0
  1 10  1  0
  1 11  1  0
  2 12  1  0
  3 13  1  0
  3 14  1  0
  3 15  1  0
  5 16  1  0
  7 17  1  0
  7 18  1  0
M  END
