
     RDKit          3D

 19 19  0  0  0  0  0  0  0  0999 V2000
   -2.0142   -0.7151   -0.1378 C   0  0  0  0  0  0  0  0  0  0  0  0
   -0.8104    0.0186   -0.7298 C   0  0  0  0  0  0  0  0  0  0  0  0
   -0.8562    1.4202   -0.2407 C   0  0  0  0  0  0  0  0  0  0  0  0
    0.3983   -0.7544   -0.3448 C   0  0  0  0  0  0  0  0  0  0  0  0
    0.6374   -0.9042    1.0406 O   0  0  0  0  0  0  0  0  0  0  0  0
    1.9802   -0.9877    0.7332 C   0  0  0  0  0  0  0  0  0  0  0  0
    2.9566   -1.5905    1.2047 O   0  0  0  0  0  0  0  0  0  0  0  0
    1.7302   -0.0555   -0.3849 C   0  0  0  0  0  0  0  0  0  0  0  0
    1.6073    1.2703   -0.0305 O   0  0  0  0  0  0  0  0  0  0  0  0
   -1.8112   -0.8600    0.9466 H   0  0  0  0  0  0  0  0  0  0  0  0
   -2.0472   -1.6975   -0.6429 H   0  0  0  0  0  0  0  0  0  0  0  0
   -2.9374   -0.1411   -0.2530 H   0  0  0  0  0  0  0  0  0  0  0  0
   -0.9423    0.0270   -1.8258 H   0  0  0  0  0  0  0  0  0  0  0  0
   -0.5468    1.5853    0.7909 H   0  0  0  0  0  0  0  0  0  0  0  0
   -0.3539    2.1629   -0.9092 H   0  0  0  0  0  0  0  0  0  0  0  0
   -1.9415    1.7343   -0.2722 H   0  0  0  0  0  0  0  0  0  0  0  0
    0.5166   -1.7530   -0.8239 H   0  0  0  0  0  0  0  0  0  0  0  0
    2.3332   -0.2390   -1.2987 H   0  0  0  0  0  0  0  0  0  0  0  0
    2.1014    1.4795    0.8269 H   0  0  0  0  0  0  0  0  0  0  0  0
  1  2  1  0
  2  3  1  0
  2  4  1  0
  4  5  1  0
  5  6  1  0
  6  7  2  0
  6  8  1  0
  8  9  1  0
  8  4  1  0
  1 10  1  0
  1 11  1  0
  1 12  1  0
  2 13  1  0
  3 14  1  0
  3 15  1  0
  3 16  1  0
  4 17  1  0
  8 18  1  0
  9 19  1  0
M  END
