
     RDKit          3D

 18 18  0  0  0  0  0  0  0  0999 V2000
    1.1723    1.0986   -0.8672 C   0  0  0  0  0  0  0  0  0  0  0  0
    0.8227   -0.2113   -0.1865 C   0  0  0  0  0  0  0  0  0  0  0  0
    1.6459   -0.3658    1.0418 C   0  0  0  0  0  0  0  0  0  0  0  0
    1.7555   -1.4672    1.5454 O   0  0  0  0  0  0  0  0  0  0  0  0
   -0.6523   -0.2795    0.1079 C   0  0  0  0  0  0  0  0  0  0  0  0
   -1.5542   -0.1904   -1.0834 C   0  0  0  0  0  0  0  0  0  0  0  0
   -1.1785   -0.6792    1.3695 C   0  0  0  0  0  0  0  0  0  0  0  0
   -0.9998    0.7390    1.0956 O   0  0  0  0  0  0  0  0  0  0  0  0
    0.9327    1.0035   -1.9434 H   0  0  0  0  0  0  0  0  0  0  0  0
    2.2454    1.3129   -0.6743 H   0  0  0  0  0  0  0  0  0  0  0  0
    0.5962    1.9552   -0.4508 H   0  0  0  0  0  0  0  0  0  0  0  0
    1.1370   -1.0176   -0.8811 H   0  0  0  0  0  0  0  0  0  0  0  0
    2.1252    0.4974    1.4571 H   0  0  0  0  0  0  0  0  0  0  0  0
   -1.2514    0.7241   -1.6548 H   0  0  0  0  0  0  0  0  0  0  0  0
   -2.6159   -0.1834   -0.8141 H   0  0  0  0  0  0  0  0  0  0  0  0
   -1.3354   -1.0434   -1.7720 H   0  0  0  0  0  0  0  0  0  0  0  0
   -0.5910   -0.9670    2.2523 H   0  0  0  0  0  0  0  0  0  0  0  0
   -2.2543   -0.9262    1.4578 H   0  0  0  0  0  0  0  0  0  0  0  0
  1  2  1  0
  2  3  1  0
  3  4  2  0
  2  5  1  0
  5  6  1  0
  5  7  1  0
  7  8  1  0
  8  5  1  0
  1  9  1  0
  1 10  1  0
  1 11  1  0
  2 12  1  0
  3 13  1  0
  6 14  1  0
  6 15  1  0
  6 16  1  0
  7 17  1  0
  7 18  1  0
M  END
