
     RDKit          3D

 20 19  0  0  0  0  0  0  0  0999 V2000
   -1.7574   -0.2163   -1.1905 C   0  0  0  0  0  0  0  0  0  0  0  0
   -1.2472    0.1035    0.2016 C   0  0  0  0  0  0  0  0  0  0  0  0
   -0.9858    1.5434    0.3844 C   0  0  0  0  0  0  0  0  0  0  0  0
   -0.7128    2.0011    1.4691 O   0  0  0  0  0  0  0  0  0  0  0  0
   -0.1830   -0.8188    0.6614 C   0  0  0  0  0  0  0  0  0  0  0  0
    1.0564   -0.9112   -0.1303 C   0  0  0  0  0  0  0  0  0  0  0  0
    1.7660    0.4137   -0.2242 C   0  0  0  0  0  0  0  0  0  0  0  0
    2.9533    0.2760   -0.9693 O   0  0  0  0  0  0  0  0  0  0  0  0
   -1.3359    0.5500   -1.9052 H   0  0  0  0  0  0  0  0  0  0  0  0
   -1.4618   -1.2233   -1.5299 H   0  0  0  0  0  0  0  0  0  0  0  0
   -2.8580   -0.1322   -1.2713 H   0  0  0  0  0  0  0  0  0  0  0  0
   -2.1516   -0.1152    0.8701 H   0  0  0  0  0  0  0  0  0  0  0  0
   -1.0345    2.2153   -0.4528 H   0  0  0  0  0  0  0  0  0  0  0  0
   -0.6504   -1.8257    0.7817 H   0  0  0  0  0  0  0  0  0  0  0  0
    0.0463   -0.5200    1.7298 H   0  0  0  0  0  0  0  0  0  0  0  0
    0.9391   -1.3558   -1.1374 H   0  0  0  0  0  0  0  0  0  0  0  0
    1.7625   -1.6212    0.3974 H   0  0  0  0  0  0  0  0  0  0  0  0
    2.0203    0.7540    0.7988 H   0  0  0  0  0  0  0  0  0  0  0  0
    1.0800    1.1254   -0.7594 H   0  0  0  0  0  0  0  0  0  0  0  0
    2.7545   -0.2428   -1.7931 H   0  0  0  0  0  0  0  0  0  0  0  0
  1  2  1  0
  2  3  1  0
  3  4  2  0
  2  5  1  0
  5  6  1  0
  6  7  1  0
  7  8  1  0
  1  9  1  0
  1 10  1  0
  1 11  1  0
  2 12  1  0
  3 13  1  0
  5 14  1  0
  5 15  1  0
  6 16  1  0
  6 17  1  0
  7 18  1  0
  7 19  1  0
  8 20  1  0
M  END
