
     RDKit          3D

 21 20  0  0  0  0  0  0  0  0999 V2000
   -1.9200    1.4089    0.4094 C   0  0  0  0  0  0  0  0  0  0  0  0
   -1.5975    0.1301   -0.3373 C   0  0  0  0  0  0  0  0  0  0  0  0
   -2.5831   -0.9500   -0.0087 C   0  0  0  0  0  0  0  0  0  0  0  0
   -0.2676   -0.2152   -0.0084 O   0  0  0  0  0  0  0  0  0  0  0  0
    0.7579   -0.2447   -0.9382 C   0  0  0  0  0  0  0  0  0  0  0  0
    0.4416    0.0584   -2.1211 O   0  0  0  0  0  0  0  0  0  0  0  0
    2.1342   -0.6150   -0.5331 C   0  0  0  0  0  0  0  0  0  0  0  0
    2.6210    0.3735    0.5127 C   0  0  0  0  0  0  0  0  0  0  0  0
    2.9967   -0.5826   -1.6011 O   0  0  0  0  0  0  0  0  0  0  0  0
   -2.6668    2.0016   -0.1558 H   0  0  0  0  0  0  0  0  0  0  0  0
   -2.2805    1.1436    1.4251 H   0  0  0  0  0  0  0  0  0  0  0  0
   -0.9846    1.9940    0.4945 H   0  0  0  0  0  0  0  0  0  0  0  0
   -1.7074    0.3719   -1.4313 H   0  0  0  0  0  0  0  0  0  0  0  0
   -3.3806   -0.5411    0.6695 H   0  0  0  0  0  0  0  0  0  0  0  0
   -3.1159   -1.3198   -0.9200 H   0  0  0  0  0  0  0  0  0  0  0  0
   -2.1329   -1.7992    0.5446 H   0  0  0  0  0  0  0  0  0  0  0  0
    2.0858   -1.6198   -0.0912 H   0  0  0  0  0  0  0  0  0  0  0  0
    3.7005    0.1740    0.6816 H   0  0  0  0  0  0  0  0  0  0  0  0
    2.0658    0.2520    1.4789 H   0  0  0  0  0  0  0  0  0  0  0  0
    2.4326    1.4228    0.2006 H   0  0  0  0  0  0  0  0  0  0  0  0
    3.4007   -1.4434   -1.8213 H   0  0  0  0  0  0  0  0  0  0  0  0
  1  2  1  0
  2  3  1  0
  2  4  1  0
  4  5  1  0
  5  6  2  0
  5  7  1  0
  7  8  1  0
  7  9  1  0
  1 10  1  0
  1 11  1  0
  1 12  1  0
  2 13  1  0
  3 14  1  0
  3 15  1  0
  3 16  1  0
  7 17  1  0
  8 18  1  0
  8 19  1  0
  8 20  1  0
  9 21  1  0
M  END
