
     RDKit          3D

 21 21  0  0  0  0  0  0  0  0999 V2000
    1.9181    0.8759   -0.6698 C   0  0  0  0  0  0  0  0  0  0  0  0
    0.7006    0.6209    0.2338 C   0  0  0  0  0  0  0  0  0  0  0  0
    1.0753   -0.4604    1.1733 C   0  0  0  0  0  0  0  0  0  0  0  0
   -0.4622    0.3790   -0.6581 C   0  0  0  0  0  0  0  0  0  0  0  0
   -0.2991   -0.7862   -1.5591 C   0  0  0  0  0  0  0  0  0  0  0  0
    0.7659   -1.2922   -1.8291 O   0  0  0  0  0  0  0  0  0  0  0  0
   -1.8018    0.3374   -0.0151 C   0  0  0  0  0  0  0  0  0  0  0  0
   -2.1060   -0.6835    1.0385 C   0  0  0  0  0  0  0  0  0  0  0  0
   -1.9480    0.6614    1.3302 O   0  0  0  0  0  0  0  0  0  0  0  0
    1.6003    1.1893   -1.6853 H   0  0  0  0  0  0  0  0  0  0  0  0
    2.5123   -0.0582   -0.8023 H   0  0  0  0  0  0  0  0  0  0  0  0
    2.5839    1.6247   -0.2120 H   0  0  0  0  0  0  0  0  0  0  0  0
    0.5228    1.5575    0.7937 H   0  0  0  0  0  0  0  0  0  0  0  0
    2.1949   -0.3978    1.3406 H   0  0  0  0  0  0  0  0  0  0  0  0
    0.6620   -0.3405    2.1967 H   0  0  0  0  0  0  0  0  0  0  0  0
    0.9419   -1.4823    0.7603 H   0  0  0  0  0  0  0  0  0  0  0  0
   -0.5003    1.2722   -1.3600 H   0  0  0  0  0  0  0  0  0  0  0  0
   -1.1888   -1.2031   -1.9970 H   0  0  0  0  0  0  0  0  0  0  0  0
   -2.7015    0.6768   -0.6076 H   0  0  0  0  0  0  0  0  0  0  0  0
   -1.3438   -1.3634    1.4325 H   0  0  0  0  0  0  0  0  0  0  0  0
   -3.1264   -1.1274    1.0959 H   0  0  0  0  0  0  0  0  0  0  0  0
  1  2  1  0
  2  3  1  0
  2  4  1  0
  4  5  1  0
  5  6  2  0
  4  7  1  0
  7  8  1  0
  8  9  1  0
  9  7  1  0
  1 10  1  0
  1 11  1  0
  1 12  1  0
  2 13  1  0
  3 14  1  0
  3 15  1  0
  3 16  1  0
  4 17  1  0
  5 18  1  0
  7 19  1  0
  8 20  1  0
  8 21  1  0
M  END
