
     RDKit          3D

 23 23  0  0  0  0  0  0  0  0999 V2000
   -1.7945   -1.5581   -0.5985 C   0  0  0  0  0  0  0  0  0  0  0  0
   -1.2002   -0.2198   -0.2119 C   0  0  0  0  0  0  0  0  0  0  0  0
   -2.0908    0.3761    0.8610 C   0  0  0  0  0  0  0  0  0  0  0  0
   -3.3656    0.5522    0.3260 O   0  0  0  0  0  0  0  0  0  0  0  0
    0.0830   -0.4109    0.2843 O   0  0  0  0  0  0  0  0  0  0  0  0
    0.9575    0.3317   -0.4807 C   0  0  0  0  0  0  0  0  0  0  0  0
    1.8143    1.2070    0.4457 C   0  0  0  0  0  0  0  0  0  0  0  0
    2.6888   -0.0450    0.6117 C   0  0  0  0  0  0  0  0  0  0  0  0
    2.2483   -0.3956   -0.8155 C   0  0  0  0  0  0  0  0  0  0  0  0
   -1.0800   -2.0672   -1.2711 H   0  0  0  0  0  0  0  0  0  0  0  0
   -2.0015   -2.1468    0.3104 H   0  0  0  0  0  0  0  0  0  0  0  0
   -2.7662   -1.3212   -1.1122 H   0  0  0  0  0  0  0  0  0  0  0  0
   -1.2216    0.4716   -1.0901 H   0  0  0  0  0  0  0  0  0  0  0  0
   -2.1367   -0.2506    1.7552 H   0  0  0  0  0  0  0  0  0  0  0  0
   -1.6646    1.3740    1.1401 H   0  0  0  0  0  0  0  0  0  0  0  0
   -3.6314    1.5051    0.4203 H   0  0  0  0  0  0  0  0  0  0  0  0
    0.5195    0.9183   -1.3090 H   0  0  0  0  0  0  0  0  0  0  0  0
    1.3063    1.5347    1.3508 H   0  0  0  0  0  0  0  0  0  0  0  0
    2.3662    2.0004   -0.1182 H   0  0  0  0  0  0  0  0  0  0  0  0
    3.7454    0.1850    0.7266 H   0  0  0  0  0  0  0  0  0  0  0  0
    2.2248   -0.7561    1.3039 H   0  0  0  0  0  0  0  0  0  0  0  0
    2.1561   -1.4724   -0.9925 H   0  0  0  0  0  0  0  0  0  0  0  0
    2.8426    0.1875   -1.5360 H   0  0  0  0  0  0  0  0  0  0  0  0
  1  2  1  0
  2  3  1  0
  3  4  1  0
  2  5  1  0
  5  6  1  0
  6  7  1  0
  7  8  1  0
  8  9  1  0
  9  6  1  0
  1 10  1  0
  1 11  1  0
  1 12  1  0
  2 13  1  0
  3 14  1  0
  3 15  1  0
  4 16  1  0
  6 17  1  0
  7 18  1  0
  7 19  1  0
  8 20  1  0
  8 21  1  0
  9 22  1  0
  9 23  1  0
M  END
