
     RDKit          3D

 27 27  0  0  0  0  0  0  0  0999 V2000
    2.1658   -0.6574    0.6957 C   0  0  0  0  0  0  0  0  0  0  0  0
    1.3510   -0.0254   -0.4307 C   0  0  0  0  0  0  0  0  0  0  0  0
    1.7007    1.4280   -0.4679 C   0  0  0  0  0  0  0  0  0  0  0  0
   -0.0861   -0.3136   -0.1537 C   0  0  0  0  0  0  0  0  0  0  0  0
   -0.2277   -1.8325   -0.1316 C   0  0  0  0  0  0  0  0  0  0  0  0
   -0.5990    0.2085    1.1358 C   0  0  0  0  0  0  0  0  0  0  0  0
   -1.8874    0.9742    0.8084 C   0  0  0  0  0  0  0  0  0  0  0  0
   -2.3373    0.2647   -0.4570 C   0  0  0  0  0  0  0  0  0  0  0  0
   -1.0134    0.1935   -1.2256 C   0  0  0  0  0  0  0  0  0  0  0  0
    3.0925   -0.0762    0.8365 H   0  0  0  0  0  0  0  0  0  0  0  0
    2.3996   -1.6944    0.3389 H   0  0  0  0  0  0  0  0  0  0  0  0
    1.5760   -0.6841    1.6255 H   0  0  0  0  0  0  0  0  0  0  0  0
    1.6169   -0.4772   -1.3974 H   0  0  0  0  0  0  0  0  0  0  0  0
    1.4618    1.9300   -1.4216 H   0  0  0  0  0  0  0  0  0  0  0  0
    1.2969    2.0171    0.3561 H   0  0  0  0  0  0  0  0  0  0  0  0
    2.8246    1.4906   -0.3709 H   0  0  0  0  0  0  0  0  0  0  0  0
    0.4756   -2.2428   -0.9104 H   0  0  0  0  0  0  0  0  0  0  0  0
    0.1341   -2.2593    0.8381 H   0  0  0  0  0  0  0  0  0  0  0  0
   -1.2280   -2.1668   -0.4097 H   0  0  0  0  0  0  0  0  0  0  0  0
    0.0646    0.9362    1.6391 H   0  0  0  0  0  0  0  0  0  0  0  0
   -0.8314   -0.5723    1.8877 H   0  0  0  0  0  0  0  0  0  0  0  0
   -1.6491    2.0196    0.5038 H   0  0  0  0  0  0  0  0  0  0  0  0
   -2.6062    0.8986    1.6249 H   0  0  0  0  0  0  0  0  0  0  0  0
   -3.1115    0.7979   -1.0015 H   0  0  0  0  0  0  0  0  0  0  0  0
   -2.6812   -0.7416   -0.2315 H   0  0  0  0  0  0  0  0  0  0  0  0
   -0.7258    1.1557   -1.6510 H   0  0  0  0  0  0  0  0  0  0  0  0
   -1.1761   -0.5712   -2.0303 H   0  0  0  0  0  0  0  0  0  0  0  0
  1  2  1  0
  2  3  1  0
  2  4  1  0
  4  5  1  0
  4  6  1  0
  6  7  1  0
  7  8  1  0
  8  9  1  0
  9  4  1  0
  1 10  1  0
  1 11  1  0
  1 12  1  0
  2 13  1  0
  3 14  1  0
  3 15  1  0
  3 16  1  0
  5 17  1  0
  5 18  1  0
  5 19  1  0
  6 20  1  0
  6 21  1  0
  7 22  1  0
  7 23  1  0
  8 24  1  0
  8 25  1  0
  9 26  1  0
  9 27  1  0
M  END
