
     RDKit          3D

 18 17  0  0  0  0  0  0  0  0999 V2000
   -0.6461    1.3510   -0.3254 C   0  0  0  0  0  0  0  0  0  0  0  0
   -0.1025   -0.0412   -0.0614 C   0  0  0  0  0  0  0  0  0  0  0  0
   -0.4972   -0.4650    1.3099 C   0  0  0  0  0  0  0  0  0  0  0  0
   -0.7635   -0.9876   -1.0420 C   0  0  0  0  0  0  0  0  0  0  0  0
    1.3895   -0.0344   -0.2853 C   0  0  0  0  0  0  0  0  0  0  0  0
    2.0594    0.8351    0.5293 O   0  0  0  0  0  0  0  0  0  0  0  0
   -1.0439    1.8163    0.5951 H   0  0  0  0  0  0  0  0  0  0  0  0
    0.1433    1.9872   -0.8099 H   0  0  0  0  0  0  0  0  0  0  0  0
   -1.4929    1.3242   -1.0607 H   0  0  0  0  0  0  0  0  0  0  0  0
    0.2519   -1.0706    1.8391 H   0  0  0  0  0  0  0  0  0  0  0  0
   -0.7557    0.4304    1.9215 H   0  0  0  0  0  0  0  0  0  0  0  0
   -1.4422   -1.0853    1.3127 H   0  0  0  0  0  0  0  0  0  0  0  0
   -0.3962   -2.0258   -0.9115 H   0  0  0  0  0  0  0  0  0  0  0  0
   -1.8545   -1.0090   -0.7901 H   0  0  0  0  0  0  0  0  0  0  0  0
   -0.6261   -0.5936   -2.0507 H   0  0  0  0  0  0  0  0  0  0  0  0
    1.6035    0.2360   -1.3403 H   0  0  0  0  0  0  0  0  0  0  0  0
    1.7483   -1.1013   -0.1847 H   0  0  0  0  0  0  0  0  0  0  0  0
    2.4249    0.4336    1.3545 H   0  0  0  0  0  0  0  0  0  0  0  0
  1  2  1  0
  2  3  1  0
  2  4  1  0
  2  5  1  0
  5  6  1  0
  1  7  1  0
  1  8  1  0
  1  9  1  0
  3 10  1  0
  3 11  1  0
  3 12  1  0
  4 13  1  0
  4 14  1  0
  4 15  1  0
  5 16  1  0
  5 17  1  0
  6 18  1  0
M  END
