
     RDKit          3D

 25 25  0  0  0  0  0  0  0  0999 V2000
   -2.1160   -0.7673   -0.9900 C   0  0  0  0  0  0  0  0  0  0  0  0
   -1.1935    0.3427   -0.5399 C   0  0  0  0  0  0  0  0  0  0  0  0
   -1.7345    1.0577    0.6684 C   0  0  0  0  0  0  0  0  0  0  0  0
    0.1611   -0.2723   -0.2845 C   0  0  0  0  0  0  0  0  0  0  0  0
    0.0906   -1.3442    0.7921 C   0  0  0  0  0  0  0  0  0  0  0  0
    0.5504   -0.9281   -1.4552 O   0  0  0  0  0  0  0  0  0  0  0  0
    1.2149    0.7638    0.0116 C   0  0  0  0  0  0  0  0  0  0  0  0
    2.5900    0.1761    0.2731 C   0  0  0  0  0  0  0  0  0  0  0  0
    1.8506    0.8754    1.3385 C   0  0  0  0  0  0  0  0  0  0  0  0
   -2.5665   -1.2095   -0.0579 H   0  0  0  0  0  0  0  0  0  0  0  0
   -2.9024   -0.3179   -1.6453 H   0  0  0  0  0  0  0  0  0  0  0  0
   -1.5218   -1.5452   -1.5362 H   0  0  0  0  0  0  0  0  0  0  0  0
   -1.0817    1.0511   -1.3801 H   0  0  0  0  0  0  0  0  0  0  0  0
   -1.8896    2.1379    0.4246 H   0  0  0  0  0  0  0  0  0  0  0  0
   -1.0677    0.9506    1.5500 H   0  0  0  0  0  0  0  0  0  0  0  0
   -2.7351    0.6499    0.9214 H   0  0  0  0  0  0  0  0  0  0  0  0
   -0.0403   -0.9303    1.8000 H   0  0  0  0  0  0  0  0  0  0  0  0
   -0.7674   -2.0057    0.4922 H   0  0  0  0  0  0  0  0  0  0  0  0
    0.9946   -1.9721    0.6718 H   0  0  0  0  0  0  0  0  0  0  0  0
    0.9824   -0.2616   -2.0443 H   0  0  0  0  0  0  0  0  0  0  0  0
    1.2072    1.6187   -0.6682 H   0  0  0  0  0  0  0  0  0  0  0  0
    3.4702    0.6748   -0.1891 H   0  0  0  0  0  0  0  0  0  0  0  0
    2.7101   -0.9195    0.3414 H   0  0  0  0  0  0  0  0  0  0  0  0
    1.5383    0.2939    2.2114 H   0  0  0  0  0  0  0  0  0  0  0  0
    2.2562    1.8810    1.6147 H   0  0  0  0  0  0  0  0  0  0  0  0
  1  2  1  0
  2  3  1  0
  2  4  1  0
  4  5  1  0
  4  6  1  0
  4  7  1  0
  7  8  1  0
  8  9  1  0
  9  7  1  0
  1 10  1  0
  1 11  1  0
  1 12  1  0
  2 13  1  0
  3 14  1  0
  3 15  1  0
  3 16  1  0
  5 17  1  0
  5 18  1  0
  5 19  1  0
  6 20  1  0
  7 21  1  0
  8 22  1  0
  8 23  1  0
  9 24  1  0
  9 25  1  0
M  END
