
     RDKit          3D

 23 24  0  0  0  0  0  0  0  0999 V2000
   -2.3070    1.2003   -0.1848 C   0  0  0  0  0  0  0  0  0  0  0  0
   -1.4941   -0.0846    0.0193 C   0  0  0  0  0  0  0  0  0  0  0  0
   -2.0642   -1.2115   -0.8100 C   0  0  0  0  0  0  0  0  0  0  0  0
   -0.0542    0.2044   -0.3258 C   0  0  0  0  0  0  0  0  0  0  0  0
    0.8833   -0.9140   -0.1899 C   0  0  0  0  0  0  0  0  0  0  0  0
    2.2825   -0.9127   -0.5890 C   0  0  0  0  0  0  0  0  0  0  0  0
    2.9979    0.0983   -0.1556 C   0  0  0  0  0  0  0  0  0  0  0  0
    2.1541    0.9834    0.6433 C   0  0  0  0  0  0  0  0  0  0  0  0
    0.8685    0.2449    0.8166 C   0  0  0  0  0  0  0  0  0  0  0  0
   -2.3839    1.7761    0.7691 H   0  0  0  0  0  0  0  0  0  0  0  0
   -3.3409    0.9159   -0.4737 H   0  0  0  0  0  0  0  0  0  0  0  0
   -1.8336    1.8591   -0.9425 H   0  0  0  0  0  0  0  0  0  0  0  0
   -1.5739   -0.3875    1.0806 H   0  0  0  0  0  0  0  0  0  0  0  0
   -1.9669   -2.1979   -0.2984 H   0  0  0  0  0  0  0  0  0  0  0  0
   -1.5032   -1.3373   -1.7796 H   0  0  0  0  0  0  0  0  0  0  0  0
   -3.1310   -0.9736   -0.9963 H   0  0  0  0  0  0  0  0  0  0  0  0
    0.0775    0.9778   -1.1222 H   0  0  0  0  0  0  0  0  0  0  0  0
    0.4961   -1.8983    0.1526 H   0  0  0  0  0  0  0  0  0  0  0  0
    2.7294   -1.7052   -1.2169 H   0  0  0  0  0  0  0  0  0  0  0  0
    4.0833    0.2877   -0.3458 H   0  0  0  0  0  0  0  0  0  0  0  0
    2.5792    1.1856    1.6615 H   0  0  0  0  0  0  0  0  0  0  0  0
    1.9463    1.9651    0.1226 H   0  0  0  0  0  0  0  0  0  0  0  0
    0.5548   -0.0759    1.8412 H   0  0  0  0  0  0  0  0  0  0  0  0
  1  2  1  0
  2  3  1  0
  2  4  1  0
  4  5  1  0
  5  6  1  0
  6  7  2  0
  7  8  1  0
  8  9  1  0
  9  4  1  0
  9  5  1  0
  1 10  1  0
  1 11  1  0
  1 12  1  0
  2 13  1  0
  3 14  1  0
  3 15  1  0
  3 16  1  0
  4 17  1  0
  5 18  1  0
  6 19  1  0
  7 20  1  0
  8 21  1  0
  8 22  1  0
  9 23  1  0
M  END
