
     RDKit          3D

 21 20  0  0  0  0  0  0  0  0999 V2000
    0.6409   -1.5076   -0.8377 C   0  0  0  0  0  0  0  0  0  0  0  0
    0.5799   -0.0627   -0.4512 C   0  0  0  0  0  0  0  0  0  0  0  0
    1.7454    0.2692    0.4164 C   0  0  0  0  0  0  0  0  0  0  0  0
    1.7645    1.6010    0.8224 O   0  0  0  0  0  0  0  0  0  0  0  0
   -0.7424    0.3505    0.1379 C   0  0  0  0  0  0  0  0  0  0  0  0
   -1.8905    0.1467   -0.7894 C   0  0  0  0  0  0  0  0  0  0  0  0
   -0.6492    1.7368    0.3874 O   0  0  0  0  0  0  0  0  0  0  0  0
   -1.0318   -0.2949    1.4283 C   0  0  0  0  0  0  0  0  0  0  0  0
   -1.1572    0.3052    2.4838 O   0  0  0  0  0  0  0  0  0  0  0  0
    0.0976   -2.1736   -0.1634 H   0  0  0  0  0  0  0  0  0  0  0  0
    0.3048   -1.6313   -1.9092 H   0  0  0  0  0  0  0  0  0  0  0  0
    1.7245   -1.8043   -0.8579 H   0  0  0  0  0  0  0  0  0  0  0  0
    0.6962    0.5303   -1.4014 H   0  0  0  0  0  0  0  0  0  0  0  0
    2.6724    0.1218   -0.1949 H   0  0  0  0  0  0  0  0  0  0  0  0
    1.7287   -0.4143    1.2895 H   0  0  0  0  0  0  0  0  0  0  0  0
    2.1053    1.6133    1.7535 H   0  0  0  0  0  0  0  0  0  0  0  0
   -2.0413   -0.8986   -1.0977 H   0  0  0  0  0  0  0  0  0  0  0  0
   -2.8104    0.4957   -0.2763 H   0  0  0  0  0  0  0  0  0  0  0  0
   -1.8112    0.7987   -1.7089 H   0  0  0  0  0  0  0  0  0  0  0  0
   -0.7802    2.1905   -0.5046 H   0  0  0  0  0  0  0  0  0  0  0  0
   -1.1461   -1.3723    1.4734 H   0  0  0  0  0  0  0  0  0  0  0  0
  1  2  1  0
  2  3  1  0
  3  4  1  0
  2  5  1  0
  5  6  1  0
  5  7  1  0
  5  8  1  0
  8  9  2  0
  1 10  1  0
  1 11  1  0
  1 12  1  0
  2 13  1  0
  3 14  1  0
  3 15  1  0
  4 16  1  0
  6 17  1  0
  6 18  1  0
  6 19  1  0
  7 20  1  0
  8 21  1  0
M  END
