
     RDKit          3D

 23 23  0  0  0  0  0  0  0  0999 V2000
   -1.3858   -0.1592   -1.0090 C   0  0  0  0  0  0  0  0  0  0  0  0
   -0.8527   -0.1221    0.4149 C   0  0  0  0  0  0  0  0  0  0  0  0
   -0.9418   -1.5173    0.9608 C   0  0  0  0  0  0  0  0  0  0  0  0
   -1.8081    0.7453    1.2124 C   0  0  0  0  0  0  0  0  0  0  0  0
   -1.8087    2.0271    0.6466 O   0  0  0  0  0  0  0  0  0  0  0  0
    0.3911    0.4435    0.4879 O   0  0  0  0  0  0  0  0  0  0  0  0
    1.3771   -0.1859   -0.2356 C   0  0  0  0  0  0  0  0  0  0  0  0
    2.8202   -0.0860    0.2517 C   0  0  0  0  0  0  0  0  0  0  0  0
    2.4030    0.7917   -0.8537 C   0  0  0  0  0  0  0  0  0  0  0  0
   -2.1496   -0.9613   -1.0806 H   0  0  0  0  0  0  0  0  0  0  0  0
   -0.5883   -0.4102   -1.7359 H   0  0  0  0  0  0  0  0  0  0  0  0
   -1.9062    0.7929   -1.2412 H   0  0  0  0  0  0  0  0  0  0  0  0
   -0.5165   -2.2858    0.2645 H   0  0  0  0  0  0  0  0  0  0  0  0
   -2.0245   -1.7676    1.0376 H   0  0  0  0  0  0  0  0  0  0  0  0
   -0.5320   -1.6118    1.9872 H   0  0  0  0  0  0  0  0  0  0  0  0
   -1.4509    0.7899    2.2715 H   0  0  0  0  0  0  0  0  0  0  0  0
   -2.8318    0.3170    1.1418 H   0  0  0  0  0  0  0  0  0  0  0  0
   -0.8790    2.3679    0.6079 H   0  0  0  0  0  0  0  0  0  0  0  0
    1.1878   -1.0802   -0.8325 H   0  0  0  0  0  0  0  0  0  0  0  0
    3.0028    0.3943    1.2381 H   0  0  0  0  0  0  0  0  0  0  0  0
    3.5092   -0.9144    0.0450 H   0  0  0  0  0  0  0  0  0  0  0  0
    2.6951    0.5741   -1.9159 H   0  0  0  0  0  0  0  0  0  0  0  0
    2.2894    1.8583   -0.6429 H   0  0  0  0  0  0  0  0  0  0  0  0
  1  2  1  0
  2  3  1  0
  2  4  1  0
  4  5  1  0
  2  6  1  0
  6  7  1  0
  7  8  1  0
  8  9  1  0
  9  7  1  0
  1 10  1  0
  1 11  1  0
  1 12  1  0
  3 13  1  0
  3 14  1  0
  3 15  1  0
  4 16  1  0
  4 17  1  0
  5 18  1  0
  7 19  1  0
  8 20  1  0
  8 21  1  0
  9 22  1  0
  9 23  1  0
M  END
