
     RDKit          3D

 19 19  0  0  0  0  0  0  0  0999 V2000
   -1.9263    1.0531    0.1911 C   0  0  0  0  0  0  0  0  0  0  0  0
   -0.9091    0.0227    0.6327 C   0  0  0  0  0  0  0  0  0  0  0  0
   -1.1074   -1.2832   -0.0889 C   0  0  0  0  0  0  0  0  0  0  0  0
   -0.2249   -2.2642    0.2573 O   0  0  0  0  0  0  0  0  0  0  0  0
    0.4747    0.5816    0.5047 C   0  0  0  0  0  0  0  0  0  0  0  0
    0.8216    0.9773   -0.8883 O   0  0  0  0  0  0  0  0  0  0  0  0
    1.5968   -0.0456   -0.0985 C   0  0  0  0  0  0  0  0  0  0  0  0
    2.9518    0.4556    0.2579 C   0  0  0  0  0  0  0  0  0  0  0  0
    3.9053   -0.1513   -0.1531 O   0  0  0  0  0  0  0  0  0  0  0  0
   -1.4968    1.7566   -0.5682 H   0  0  0  0  0  0  0  0  0  0  0  0
   -2.8257    0.5839   -0.2347 H   0  0  0  0  0  0  0  0  0  0  0  0
   -2.2462    1.6969    1.0397 H   0  0  0  0  0  0  0  0  0  0  0  0
   -1.1199   -0.1724    1.7047 H   0  0  0  0  0  0  0  0  0  0  0  0
   -2.1336   -1.6795    0.0532 H   0  0  0  0  0  0  0  0  0  0  0  0
   -1.0085   -1.1410   -1.2060 H   0  0  0  0  0  0  0  0  0  0  0  0
   -0.0652   -2.2925    1.2435 H   0  0  0  0  0  0  0  0  0  0  0  0
    0.6471    1.4883    1.1213 H   0  0  0  0  0  0  0  0  0  0  0  0
    1.6118   -0.9437   -0.7183 H   0  0  0  0  0  0  0  0  0  0  0  0
    3.0545    1.3573    0.8805 H   0  0  0  0  0  0  0  0  0  0  0  0
  1  2  1  0
  2  3  1  0
  3  4  1  0
  2  5  1  0
  5  6  1  0
  6  7  1  0
  7  8  1  0
  8  9  2  0
  7  5  1  0
  1 10  1  0
  1 11  1  0
  1 12  1  0
  2 13  1  0
  3 14  1  0
  3 15  1  0
  4 16  1  0
  5 17  1  0
  7 18  1  0
  8 19  1  0
M  END
