
     RDKit          3D

 19 20  0  0  0  0  0  0  0  0999 V2000
    1.6156    1.0830   -0.6050 C   0  0  0  0  0  0  0  0  0  0  0  0
    0.6729    0.2675    0.2178 C   0  0  0  0  0  0  0  0  0  0  0  0
    1.3828   -0.9389    0.8360 C   0  0  0  0  0  0  0  0  0  0  0  0
   -0.5522   -0.1699   -0.4811 C   0  0  0  0  0  0  0  0  0  0  0  0
   -1.5512    0.7118   -1.0731 C   0  0  0  0  0  0  0  0  0  0  0  0
   -1.9023    0.0982    0.2332 C   0  0  0  0  0  0  0  0  0  0  0  0
   -1.7919   -1.3414    0.4617 C   0  0  0  0  0  0  0  0  0  0  0  0
   -2.3336   -2.1834    1.2261 O   0  0  0  0  0  0  0  0  0  0  0  0
   -0.8101   -1.5488   -0.5102 O   0  0  0  0  0  0  0  0  0  0  0  0
    2.6455    0.6700   -0.4829 H   0  0  0  0  0  0  0  0  0  0  0  0
    1.4073    1.0526   -1.6927 H   0  0  0  0  0  0  0  0  0  0  0  0
    1.6548    2.1583   -0.2680 H   0  0  0  0  0  0  0  0  0  0  0  0
    0.3759    0.9035    1.1009 H   0  0  0  0  0  0  0  0  0  0  0  0
    2.3346   -0.5435    1.2480 H   0  0  0  0  0  0  0  0  0  0  0  0
    0.7183   -1.3629    1.6299 H   0  0  0  0  0  0  0  0  0  0  0  0
    1.5781   -1.7173    0.0699 H   0  0  0  0  0  0  0  0  0  0  0  0
   -1.4740    1.8026   -1.1005 H   0  0  0  0  0  0  0  0  0  0  0  0
   -2.1287    0.2831   -1.9440 H   0  0  0  0  0  0  0  0  0  0  0  0
   -1.8417    0.7753    1.1341 H   0  0  0  0  0  0  0  0  0  0  0  0
  1  2  1  0
  2  3  1  0
  2  4  1  0
  4  5  1  0
  5  6  1  0
  6  7  1  0
  7  8  2  0
  7  9  1  0
  6  4  1  0
  9  4  1  0
  1 10  1  0
  1 11  1  0
  1 12  1  0
  2 13  1  0
  3 14  1  0
  3 15  1  0
  3 16  1  0
  5 17  1  0
  5 18  1  0
  6 19  1  0
M  END
