
     RDKit          3D

 21 22  0  0  0  0  0  0  0  0999 V2000
   -2.0337    1.1079    0.1494 C   0  0  0  0  0  0  0  0  0  0  0  0
   -0.9725    0.0110    0.2467 C   0  0  0  0  0  0  0  0  0  0  0  0
   -1.6164   -1.2965   -0.0597 C   0  0  0  0  0  0  0  0  0  0  0  0
    0.1513    0.3567   -0.7299 C   0  0  0  0  0  0  0  0  0  0  0  0
    0.6747    1.6018   -0.3513 O   0  0  0  0  0  0  0  0  0  0  0  0
    1.5202    0.8975    0.5066 C   0  0  0  0  0  0  0  0  0  0  0  0
    2.6959    0.2963   -0.1501 C   0  0  0  0  0  0  0  0  0  0  0  0
    1.4004   -0.3660   -0.3717 C   0  0  0  0  0  0  0  0  0  0  0  0
    1.2192   -1.5799    0.2693 O   0  0  0  0  0  0  0  0  0  0  0  0
   -2.4744    1.1753   -0.8494 H   0  0  0  0  0  0  0  0  0  0  0  0
   -2.7649    0.9449    0.9561 H   0  0  0  0  0  0  0  0  0  0  0  0
   -1.4923    2.0570    0.4034 H   0  0  0  0  0  0  0  0  0  0  0  0
   -0.5932    0.0033    1.2716 H   0  0  0  0  0  0  0  0  0  0  0  0
   -1.0523   -2.1155    0.4109 H   0  0  0  0  0  0  0  0  0  0  0  0
   -1.8211   -1.4634   -1.1362 H   0  0  0  0  0  0  0  0  0  0  0  0
   -2.6227   -1.2954    0.4541 H   0  0  0  0  0  0  0  0  0  0  0  0
   -0.1700    0.3190   -1.7800 H   0  0  0  0  0  0  0  0  0  0  0  0
    1.2947    0.8087    1.5673 H   0  0  0  0  0  0  0  0  0  0  0  0
    3.4311   -0.1823    0.5383 H   0  0  0  0  0  0  0  0  0  0  0  0
    3.1483    0.8090   -1.0049 H   0  0  0  0  0  0  0  0  0  0  0  0
    2.0777   -2.0893    0.1462 H   0  0  0  0  0  0  0  0  0  0  0  0
  1  2  1  0
  2  3  1  0
  2  4  1  0
  4  5  1  0
  5  6  1  0
  6  7  1  0
  7  8  1  0
  8  9  1  0
  8  4  1  0
  8  6  1  0
  1 10  1  0
  1 11  1  0
  1 12  1  0
  2 13  1  0
  3 14  1  0
  3 15  1  0
  3 16  1  0
  4 17  1  0
  6 18  1  0
  7 19  1  0
  7 20  1  0
  9 21  1  0
M  END
