
     RDKit          3D

 19 18  0  0  0  0  0  0  0  0999 V2000
   -0.7086    0.8727   -1.0475 C   0  0  0  0  0  0  0  0  0  0  0  0
   -0.7868   -0.1766    0.0361 C   0  0  0  0  0  0  0  0  0  0  0  0
   -1.0252    0.4477    1.3656 C   0  0  0  0  0  0  0  0  0  0  0  0
   -1.9111   -0.9701   -0.2651 O   0  0  0  0  0  0  0  0  0  0  0  0
    0.4083   -1.0620   -0.0352 C   0  0  0  0  0  0  0  0  0  0  0  0
    1.7194   -0.3706    0.1393 C   0  0  0  0  0  0  0  0  0  0  0  0
    1.9801    0.6051   -0.7992 O   0  0  0  0  0  0  0  0  0  0  0  0
   -1.7497    1.2731   -1.1663 H   0  0  0  0  0  0  0  0  0  0  0  0
   -0.3491    0.5004   -2.0012 H   0  0  0  0  0  0  0  0  0  0  0  0
   -0.0925    1.7261   -0.7219 H   0  0  0  0  0  0  0  0  0  0  0  0
   -1.5126    1.4372    1.1976 H   0  0  0  0  0  0  0  0  0  0  0  0
   -0.1317    0.5648    1.9898 H   0  0  0  0  0  0  0  0  0  0  0  0
   -1.7751   -0.1313    1.9798 H   0  0  0  0  0  0  0  0  0  0  0  0
   -1.7837   -1.4955   -1.0807 H   0  0  0  0  0  0  0  0  0  0  0  0
    0.3314   -1.8543    0.7259 H   0  0  0  0  0  0  0  0  0  0  0  0
    0.4120   -1.5496   -1.0332 H   0  0  0  0  0  0  0  0  0  0  0  0
    2.5186   -1.1355    0.0397 H   0  0  0  0  0  0  0  0  0  0  0  0
    1.7544    0.1217    1.1398 H   0  0  0  0  0  0  0  0  0  0  0  0
    2.7019    1.1969   -0.4631 H   0  0  0  0  0  0  0  0  0  0  0  0
  1  2  1  0
  2  3  1  0
  2  4  1  0
  2  5  1  0
  5  6  1  0
  6  7  1  0
  1  8  1  0
  1  9  1  0
  1 10  1  0
  3 11  1  0
  3 12  1  0
  3 13  1  0
  4 14  1  0
  5 15  1  0
  5 16  1  0
  6 17  1  0
  6 18  1  0
  7 19  1  0
M  END
