
     RDKit          3D

 22 22  0  0  0  0  0  0  0  0999 V2000
   -1.7345    1.2966   -0.1526 C   0  0  0  0  0  0  0  0  0  0  0  0
   -1.6565   -0.2156   -0.3959 C   0  0  0  0  0  0  0  0  0  0  0  0
   -2.8244   -0.9298    0.1995 C   0  0  0  0  0  0  0  0  0  0  0  0
   -0.3347   -0.6565    0.2131 C   0  0  0  0  0  0  0  0  0  0  0  0
    0.6677    0.0426   -0.4487 O   0  0  0  0  0  0  0  0  0  0  0  0
    1.8837   -0.3338    0.0798 C   0  0  0  0  0  0  0  0  0  0  0  0
    3.1496   -0.1253   -0.6635 C   0  0  0  0  0  0  0  0  0  0  0  0
    2.7921    0.8818    0.3574 C   0  0  0  0  0  0  0  0  0  0  0  0
   -1.0884    1.7526   -0.9262 H   0  0  0  0  0  0  0  0  0  0  0  0
   -1.2390    1.5106    0.8276 H   0  0  0  0  0  0  0  0  0  0  0  0
   -2.7798    1.6250   -0.1870 H   0  0  0  0  0  0  0  0  0  0  0  0
   -1.5981   -0.4278   -1.4809 H   0  0  0  0  0  0  0  0  0  0  0  0
   -3.3799   -0.2812    0.9139 H   0  0  0  0  0  0  0  0  0  0  0  0
   -2.4643   -1.8396    0.7324 H   0  0  0  0  0  0  0  0  0  0  0  0
   -3.5286   -1.1938   -0.6052 H   0  0  0  0  0  0  0  0  0  0  0  0
   -0.2019   -1.7508    0.1597 H   0  0  0  0  0  0  0  0  0  0  0  0
   -0.2742   -0.3386    1.2868 H   0  0  0  0  0  0  0  0  0  0  0  0
    1.8208   -1.0875    0.8932 H   0  0  0  0  0  0  0  0  0  0  0  0
    3.9624   -0.8492   -0.4197 H   0  0  0  0  0  0  0  0  0  0  0  0
    3.0704    0.1688   -1.7370 H   0  0  0  0  0  0  0  0  0  0  0  0
    2.4970    1.8634   -0.0043 H   0  0  0  0  0  0  0  0  0  0  0  0
    3.2607    0.8881    1.3578 H   0  0  0  0  0  0  0  0  0  0  0  0
  1  2  1  0
  2  3  1  0
  2  4  1  0
  4  5  1  0
  5  6  1  0
  6  7  1  0
  7  8  1  0
  8  6  1  0
  1  9  1  0
  1 10  1  0
  1 11  1  0
  2 12  1  0
  3 13  1  0
  3 14  1  0
  3 15  1  0
  4 16  1  0
  4 17  1  0
  6 18  1  0
  7 19  1  0
  7 20  1  0
  8 21  1  0
  8 22  1  0
M  END
