
     RDKit          3D

 25 25  0  0  0  0  0  0  0  0999 V2000
   -0.2500   -1.4188   -0.2105 C   0  0  0  0  0  0  0  0  0  0  0  0
    0.0450   -0.1241    0.5070 C   0  0  0  0  0  0  0  0  0  0  0  0
   -0.3516   -0.3975    1.9734 C   0  0  0  0  0  0  0  0  0  0  0  0
    1.4888    0.1567    0.5128 C   0  0  0  0  0  0  0  0  0  0  0  0
    2.1947    0.3074   -0.7728 C   0  0  0  0  0  0  0  0  0  0  0  0
    2.1642   -0.7779   -1.6035 O   0  0  0  0  0  0  0  0  0  0  0  0
   -0.8211    0.9754   -0.0146 C   0  0  0  0  0  0  0  0  0  0  0  0
   -2.3020    0.9069    0.0608 C   0  0  0  0  0  0  0  0  0  0  0  0
   -1.6470    0.6355   -1.2498 C   0  0  0  0  0  0  0  0  0  0  0  0
    0.2608   -2.2214    0.3629 H   0  0  0  0  0  0  0  0  0  0  0  0
   -1.3507   -1.6474   -0.0905 H   0  0  0  0  0  0  0  0  0  0  0  0
   -0.0283   -1.4265   -1.2723 H   0  0  0  0  0  0  0  0  0  0  0  0
   -1.3698   -0.8145    2.0288 H   0  0  0  0  0  0  0  0  0  0  0  0
   -0.2178    0.5389    2.5305 H   0  0  0  0  0  0  0  0  0  0  0  0
    0.3348   -1.2015    2.3239 H   0  0  0  0  0  0  0  0  0  0  0  0
    1.6932    1.0637    1.1310 H   0  0  0  0  0  0  0  0  0  0  0  0
    1.9964   -0.6763    1.0787 H   0  0  0  0  0  0  0  0  0  0  0  0
    3.2817    0.4962   -0.5243 H   0  0  0  0  0  0  0  0  0  0  0  0
    1.8956    1.1957   -1.3675 H   0  0  0  0  0  0  0  0  0  0  0  0
    2.3867   -0.5415   -2.5289 H   0  0  0  0  0  0  0  0  0  0  0  0
   -0.3966    1.9955    0.0514 H   0  0  0  0  0  0  0  0  0  0  0  0
   -2.8926    1.8409    0.1045 H   0  0  0  0  0  0  0  0  0  0  0  0
   -2.7578    0.0801    0.6282 H   0  0  0  0  0  0  0  0  0  0  0  0
   -1.7091   -0.3727   -1.6412 H   0  0  0  0  0  0  0  0  0  0  0  0
   -1.6473    1.4274   -2.0180 H   0  0  0  0  0  0  0  0  0  0  0  0
  1  2  1  0
  2  3  1  0
  2  4  1  0
  4  5  1  0
  5  6  1  0
  2  7  1  0
  7  8  1  0
  8  9  1  0
  9  7  1  0
  1 10  1  0
  1 11  1  0
  1 12  1  0
  3 13  1  0
  3 14  1  0
  3 15  1  0
  4 16  1  0
  4 17  1  0
  5 18  1  0
  5 19  1  0
  6 20  1  0
  7 21  1  0
  8 22  1  0
  8 23  1  0
  9 24  1  0
  9 25  1  0
M  END
