
     RDKit          3D

 27 27  0  0  0  0  0  0  0  0999 V2000
   -3.4489   -0.9712    0.2041 C   0  0  0  0  0  0  0  0  0  0  0  0
   -2.3742   -0.0853   -0.4375 C   0  0  0  0  0  0  0  0  0  0  0  0
   -2.6323    1.3192    0.0699 C   0  0  0  0  0  0  0  0  0  0  0  0
   -1.0481   -0.6189    0.0333 C   0  0  0  0  0  0  0  0  0  0  0  0
    0.1261    0.1414   -0.5066 C   0  0  0  0  0  0  0  0  0  0  0  0
    1.3814   -0.4977    0.0431 C   0  0  0  0  0  0  0  0  0  0  0  0
    2.6315    0.1998   -0.4449 C   0  0  0  0  0  0  0  0  0  0  0  0
    3.9178   -0.4142    0.0865 C   0  0  0  0  0  0  0  0  0  0  0  0
    3.4905    0.9582    0.4776 C   0  0  0  0  0  0  0  0  0  0  0  0
   -3.2730   -0.8997    1.3022 H   0  0  0  0  0  0  0  0  0  0  0  0
   -4.4521   -0.6657   -0.0947 H   0  0  0  0  0  0  0  0  0  0  0  0
   -3.1914   -2.0151   -0.0719 H   0  0  0  0  0  0  0  0  0  0  0  0
   -2.5169   -0.1752   -1.5327 H   0  0  0  0  0  0  0  0  0  0  0  0
   -2.6652    2.0546   -0.7567 H   0  0  0  0  0  0  0  0  0  0  0  0
   -3.5660    1.4065    0.6395 H   0  0  0  0  0  0  0  0  0  0  0  0
   -1.8128    1.6426    0.7693 H   0  0  0  0  0  0  0  0  0  0  0  0
   -1.0309   -0.5415    1.1335 H   0  0  0  0  0  0  0  0  0  0  0  0
   -0.9695   -1.6637   -0.3325 H   0  0  0  0  0  0  0  0  0  0  0  0
    0.1615    0.0704   -1.6313 H   0  0  0  0  0  0  0  0  0  0  0  0
    0.0645    1.2175   -0.2843 H   0  0  0  0  0  0  0  0  0  0  0  0
    1.3448   -0.4397    1.1618 H   0  0  0  0  0  0  0  0  0  0  0  0
    1.4015   -1.5474   -0.2828 H   0  0  0  0  0  0  0  0  0  0  0  0
    2.6663    0.3847   -1.5516 H   0  0  0  0  0  0  0  0  0  0  0  0
    3.8434   -1.1721    0.9046 H   0  0  0  0  0  0  0  0  0  0  0  0
    4.7476   -0.6013   -0.5950 H   0  0  0  0  0  0  0  0  0  0  0  0
    3.0906    1.1376    1.4990 H   0  0  0  0  0  0  0  0  0  0  0  0
    4.1139    1.7762    0.0353 H   0  0  0  0  0  0  0  0  0  0  0  0
  1  2  1  0
  2  3  1  0
  2  4  1  0
  4  5  1  0
  5  6  1  0
  6  7  1  0
  7  8  1  0
  8  9  1  0
  9  7  1  0
  1 10  1  0
  1 11  1  0
  1 12  1  0
  2 13  1  0
  3 14  1  0
  3 15  1  0
  3 16  1  0
  4 17  1  0
  4 18  1  0
  5 19  1  0
  5 20  1  0
  6 21  1  0
  6 22  1  0
  7 23  1  0
  8 24  1  0
  8 25  1  0
  9 26  1  0
  9 27  1  0
M  END
