
     RDKit          3D

 25 24  0  0  0  0  0  0  0  0999 V2000
    3.0284    0.3439   -0.6603 C   0  0  0  0  0  0  0  0  0  0  0  0
    1.8984    0.2529    0.3487 C   0  0  0  0  0  0  0  0  0  0  0  0
    2.0081   -1.0098    1.1837 C   0  0  0  0  0  0  0  0  0  0  0  0
    0.5937    0.1422   -0.4306 C   0  0  0  0  0  0  0  0  0  0  0  0
   -0.4884    0.0548    0.4382 O   0  0  0  0  0  0  0  0  0  0  0  0
   -1.6459   -0.0435   -0.2963 C   0  0  0  0  0  0  0  0  0  0  0  0
   -2.3438   -1.3723   -0.0292 C   0  0  0  0  0  0  0  0  0  0  0  0
   -2.6129    1.0875   -0.0299 C   0  0  0  0  0  0  0  0  0  0  0  0
   -2.0640    2.3259   -0.3350 O   0  0  0  0  0  0  0  0  0  0  0  0
    3.9551    0.7257   -0.2315 H   0  0  0  0  0  0  0  0  0  0  0  0
    2.6481    0.9401   -1.5177 H   0  0  0  0  0  0  0  0  0  0  0  0
    3.1584   -0.7026   -1.0582 H   0  0  0  0  0  0  0  0  0  0  0  0
    1.8729    1.1100    1.0206 H   0  0  0  0  0  0  0  0  0  0  0  0
    1.9913   -1.9184    0.5364 H   0  0  0  0  0  0  0  0  0  0  0  0
    1.1497   -0.9837    1.8959 H   0  0  0  0  0  0  0  0  0  0  0  0
    2.9839   -1.0488    1.7223 H   0  0  0  0  0  0  0  0  0  0  0  0
    0.6182   -0.7282   -1.1167 H   0  0  0  0  0  0  0  0  0  0  0  0
    0.4989    1.0413   -1.1034 H   0  0  0  0  0  0  0  0  0  0  0  0
   -1.3845   -0.0249   -1.3706 H   0  0  0  0  0  0  0  0  0  0  0  0
   -3.1547   -1.4750   -0.7611 H   0  0  0  0  0  0  0  0  0  0  0  0
   -2.6812   -1.3647    1.0166 H   0  0  0  0  0  0  0  0  0  0  0  0
   -1.6135   -2.1916   -0.1831 H   0  0  0  0  0  0  0  0  0  0  0  0
   -2.8696    1.0526    1.0663 H   0  0  0  0  0  0  0  0  0  0  0  0
   -3.5417    0.9048   -0.5964 H   0  0  0  0  0  0  0  0  0  0  0  0
   -2.0048    2.8820    0.4914 H   0  0  0  0  0  0  0  0  0  0  0  0
  1  2  1  0
  2  3  1  0
  2  4  1  0
  4  5  1  0
  5  6  1  0
  6  7  1  0
  6  8  1  0
  8  9  1  0
  1 10  1  0
  1 11  1  0
  1 12  1  0
  2 13  1  0
  3 14  1  0
  3 15  1  0
  3 16  1  0
  4 17  1  0
  4 18  1  0
  6 19  1  0
  7 20  1  0
  7 21  1  0
  7 22  1  0
  8 23  1  0
  8 24  1  0
  9 25  1  0
M  END
