
     RDKit          3D

 25 24  0  0  0  0  0  0  0  0999 V2000
   -1.9100    0.6142   -0.8883 C   0  0  0  0  0  0  0  0  0  0  0  0
   -1.3619    0.3201    0.4926 C   0  0  0  0  0  0  0  0  0  0  0  0
   -1.7490   -1.0604    0.8658 C   0  0  0  0  0  0  0  0  0  0  0  0
    0.0706    0.6750    0.6013 C   0  0  0  0  0  0  0  0  0  0  0  0
    0.5712    0.4019    1.8756 O   0  0  0  0  0  0  0  0  0  0  0  0
    0.9977    0.1186   -0.4028 C   0  0  0  0  0  0  0  0  0  0  0  0
    1.3256   -1.3394   -0.2284 C   0  0  0  0  0  0  0  0  0  0  0  0
    2.3151    0.8822   -0.2709 C   0  0  0  0  0  0  0  0  0  0  0  0
    0.5506    0.3601   -1.7110 O   0  0  0  0  0  0  0  0  0  0  0  0
   -1.7636   -0.2484   -1.5839 H   0  0  0  0  0  0  0  0  0  0  0  0
   -1.4577    1.5131   -1.3429 H   0  0  0  0  0  0  0  0  0  0  0  0
   -3.0135    0.8010   -0.8654 H   0  0  0  0  0  0  0  0  0  0  0  0
   -1.9264    1.0130    1.1862 H   0  0  0  0  0  0  0  0  0  0  0  0
   -2.8734   -1.0573    0.9643 H   0  0  0  0  0  0  0  0  0  0  0  0
   -1.5461   -1.8159    0.0678 H   0  0  0  0  0  0  0  0  0  0  0  0
   -1.3896   -1.3959    1.8531 H   0  0  0  0  0  0  0  0  0  0  0  0
    0.1337    1.8018    0.5082 H   0  0  0  0  0  0  0  0  0  0  0  0
   -0.0714    0.8244    2.5193 H   0  0  0  0  0  0  0  0  0  0  0  0
    1.2306   -1.6962    0.8066 H   0  0  0  0  0  0  0  0  0  0  0  0
    2.3792   -1.5283   -0.5285 H   0  0  0  0  0  0  0  0  0  0  0  0
    0.7130   -1.9516   -0.9472 H   0  0  0  0  0  0  0  0  0  0  0  0
    2.4083    1.6706   -1.0329 H   0  0  0  0  0  0  0  0  0  0  0  0
    3.1868    0.1994   -0.3984 H   0  0  0  0  0  0  0  0  0  0  0  0
    2.4193    1.3209    0.7450 H   0  0  0  0  0  0  0  0  0  0  0  0
    0.7608   -0.4228   -2.2854 H   0  0  0  0  0  0  0  0  0  0  0  0
  1  2  1  0
  2  3  1  0
  2  4  1  0
  4  5  1  0
  4  6  1  0
  6  7  1  0
  6  8  1  0
  6  9  1  0
  1 10  1  0
  1 11  1  0
  1 12  1  0
  2 13  1  0
  3 14  1  0
  3 15  1  0
  3 16  1  0
  4 17  1  0
  5 18  1  0
  7 19  1  0
  7 20  1  0
  7 21  1  0
  8 22  1  0
  8 23  1  0
  8 24  1  0
  9 25  1  0
M  END
