
     RDKit          3D

 21 21  0  0  0  0  0  0  0  0999 V2000
   -0.8165   -1.5218   -0.7960 C   0  0  0  0  0  0  0  0  0  0  0  0
   -0.3620   -0.4427    0.1644 C   0  0  0  0  0  0  0  0  0  0  0  0
    1.1209   -0.2775   -0.0187 C   0  0  0  0  0  0  0  0  0  0  0  0
    1.4433    0.0961   -1.3233 O   0  0  0  0  0  0  0  0  0  0  0  0
    1.7309    0.7359    0.9003 C   0  0  0  0  0  0  0  0  0  0  0  0
    3.1239    0.6957    0.6684 O   0  0  0  0  0  0  0  0  0  0  0  0
   -1.1332    0.8219    0.0284 C   0  0  0  0  0  0  0  0  0  0  0  0
   -2.6131    0.6990    0.2749 C   0  0  0  0  0  0  0  0  0  0  0  0
   -2.0758    0.9772   -0.9749 O   0  0  0  0  0  0  0  0  0  0  0  0
   -1.8998   -1.7263   -0.7125 H   0  0  0  0  0  0  0  0  0  0  0  0
   -0.4833   -1.3355   -1.8267 H   0  0  0  0  0  0  0  0  0  0  0  0
   -0.3043   -2.4634   -0.4595 H   0  0  0  0  0  0  0  0  0  0  0  0
   -0.5267   -0.8506    1.1890 H   0  0  0  0  0  0  0  0  0  0  0  0
    1.6194   -1.2496    0.1683 H   0  0  0  0  0  0  0  0  0  0  0  0
    1.5991   -0.7297   -1.8668 H   0  0  0  0  0  0  0  0  0  0  0  0
    1.5844    0.3977    1.9446 H   0  0  0  0  0  0  0  0  0  0  0  0
    1.3703    1.7649    0.7263 H   0  0  0  0  0  0  0  0  0  0  0  0
    3.4507    1.5062    0.2314 H   0  0  0  0  0  0  0  0  0  0  0  0
   -0.6519    1.7178    0.4652 H   0  0  0  0  0  0  0  0  0  0  0  0
   -3.0820   -0.3038    0.3475 H   0  0  0  0  0  0  0  0  0  0  0  0
   -3.0945    1.4882    0.8695 H   0  0  0  0  0  0  0  0  0  0  0  0
  1  2  1  0
  2  3  1  0
  3  4  1  0
  3  5  1  0
  5  6  1  0
  2  7  1  0
  7  8  1  0
  8  9  1  0
  9  7  1  0
  1 10  1  0
  1 11  1  0
  1 12  1  0
  2 13  1  0
  3 14  1  0
  4 15  1  0
  5 16  1  0
  5 17  1  0
  6 18  1  0
  7 19  1  0
  8 20  1  0
  8 21  1  0
M  END
