
     RDKit          3D

 23 23  0  0  0  0  0  0  0  0999 V2000
   -1.7239   -0.5178   -1.4980 C   0  0  0  0  0  0  0  0  0  0  0  0
   -1.5599    0.2537   -0.1950 C   0  0  0  0  0  0  0  0  0  0  0  0
   -2.5439   -0.2399    0.8475 C   0  0  0  0  0  0  0  0  0  0  0  0
   -1.7424    1.7418   -0.4290 C   0  0  0  0  0  0  0  0  0  0  0  0
   -0.1801    0.0578    0.2541 C   0  0  0  0  0  0  0  0  0  0  0  0
    0.9630   -0.1030    0.6326 C   0  0  0  0  0  0  0  0  0  0  0  0
    2.3548   -0.2868    1.0818 C   0  0  0  0  0  0  0  0  0  0  0  0
    3.1678   -1.3226    0.3700 C   0  0  0  0  0  0  0  0  0  0  0  0
    3.3778    0.1184    0.1081 C   0  0  0  0  0  0  0  0  0  0  0  0
   -1.2368    0.0937   -2.2793 H   0  0  0  0  0  0  0  0  0  0  0  0
   -2.7770   -0.7519   -1.7141 H   0  0  0  0  0  0  0  0  0  0  0  0
   -1.1014   -1.4408   -1.3858 H   0  0  0  0  0  0  0  0  0  0  0  0
   -3.5066    0.2969    0.7700 H   0  0  0  0  0  0  0  0  0  0  0  0
   -2.6717   -1.3206    0.7404 H   0  0  0  0  0  0  0  0  0  0  0  0
   -2.1063    0.0142    1.8353 H   0  0  0  0  0  0  0  0  0  0  0  0
   -1.4244    2.2418    0.5187 H   0  0  0  0  0  0  0  0  0  0  0  0
   -1.0418    2.0581   -1.2231 H   0  0  0  0  0  0  0  0  0  0  0  0
   -2.7782    2.0021   -0.7097 H   0  0  0  0  0  0  0  0  0  0  0  0
    2.5631   -0.2162    2.1727 H   0  0  0  0  0  0  0  0  0  0  0  0
    3.9435   -1.8912    0.9196 H   0  0  0  0  0  0  0  0  0  0  0  0
    2.6723   -1.9264   -0.4377 H   0  0  0  0  0  0  0  0  0  0  0  0
    3.0825    0.4954   -0.8905 H   0  0  0  0  0  0  0  0  0  0  0  0
    4.2700    0.6433    0.5114 H   0  0  0  0  0  0  0  0  0  0  0  0
  1  2  1  0
  2  3  1  0
  2  4  1  0
  2  5  1  0
  5  6  3  0
  6  7  1  0
  7  8  1  0
  8  9  1  0
  9  7  1  0
  1 10  1  0
  1 11  1  0
  1 12  1  0
  3 13  1  0
  3 14  1  0
  3 15  1  0
  4 16  1  0
  4 17  1  0
  4 18  1  0
  7 19  1  0
  8 20  1  0
  8 21  1  0
  9 22  1  0
  9 23  1  0
M  END
