
     RDKit          3D

 25 25  0  0  0  0  0  0  0  0999 V2000
   -2.0458   -1.2478   -0.2922 C   0  0  0  0  0  0  0  0  0  0  0  0
   -1.3314    0.0898   -0.3255 C   0  0  0  0  0  0  0  0  0  0  0  0
   -2.2918    1.1442    0.0762 C   0  0  0  0  0  0  0  0  0  0  0  0
   -0.1375   -0.0163    0.5808 C   0  0  0  0  0  0  0  0  0  0  0  0
    0.6766    1.2437    0.6515 C   0  0  0  0  0  0  0  0  0  0  0  0
    1.9470    1.0072   -0.1129 C   0  0  0  0  0  0  0  0  0  0  0  0
    2.1753   -0.4639    0.0258 C   0  0  0  0  0  0  0  0  0  0  0  0
    2.8410   -0.9056   -1.1151 O   0  0  0  0  0  0  0  0  0  0  0  0
    0.7989   -1.0861    0.1443 C   0  0  0  0  0  0  0  0  0  0  0  0
   -1.8093   -1.8700   -1.1743 H   0  0  0  0  0  0  0  0  0  0  0  0
   -3.1630   -1.0925   -0.3175 H   0  0  0  0  0  0  0  0  0  0  0  0
   -1.8491   -1.7919    0.6589 H   0  0  0  0  0  0  0  0  0  0  0  0
   -0.9716    0.2323   -1.3630 H   0  0  0  0  0  0  0  0  0  0  0  0
   -2.8274    0.8552    1.0001 H   0  0  0  0  0  0  0  0  0  0  0  0
   -1.8625    2.1514    0.1963 H   0  0  0  0  0  0  0  0  0  0  0  0
   -3.0688    1.2297   -0.7173 H   0  0  0  0  0  0  0  0  0  0  0  0
   -0.4894   -0.2623    1.6059 H   0  0  0  0  0  0  0  0  0  0  0  0
    0.9284    1.5133    1.7146 H   0  0  0  0  0  0  0  0  0  0  0  0
    0.1823    2.1230    0.2267 H   0  0  0  0  0  0  0  0  0  0  0  0
    2.7851    1.5629    0.3513 H   0  0  0  0  0  0  0  0  0  0  0  0
    1.7809    1.2955   -1.1778 H   0  0  0  0  0  0  0  0  0  0  0  0
    2.7960   -0.6418    0.9156 H   0  0  0  0  0  0  0  0  0  0  0  0
    3.5011   -1.6009   -0.9262 H   0  0  0  0  0  0  0  0  0  0  0  0
    0.5378   -1.5512   -0.8276 H   0  0  0  0  0  0  0  0  0  0  0  0
    0.8971   -1.9181    0.8771 H   0  0  0  0  0  0  0  0  0  0  0  0
  1  2  1  0
  2  3  1  0
  2  4  1  0
  4  5  1  0
  5  6  1  0
  6  7  1  0
  7  8  1  0
  7  9  1  0
  9  4  1  0
  1 10  1  0
  1 11  1  0
  1 12  1  0
  2 13  1  0
  3 14  1  0
  3 15  1  0
  3 16  1  0
  4 17  1  0
  5 18  1  0
  5 19  1  0
  6 20  1  0
  6 21  1  0
  7 22  1  0
  8 23  1  0
  9 24  1  0
  9 25  1  0
M  END
