
     RDKit          3D

 25 25  0  0  0  0  0  0  0  0999 V2000
    1.6786    1.4268   -0.4378 C   0  0  0  0  0  0  0  0  0  0  0  0
    1.2773    0.3015    0.5011 C   0  0  0  0  0  0  0  0  0  0  0  0
    2.1988   -0.8503    0.2446 C   0  0  0  0  0  0  0  0  0  0  0  0
   -0.1800   -0.0520    0.3429 C   0  0  0  0  0  0  0  0  0  0  0  0
   -0.5333   -1.1586    1.2805 C   0  0  0  0  0  0  0  0  0  0  0  0
   -0.5513   -0.3381   -1.0895 C   0  0  0  0  0  0  0  0  0  0  0  0
   -2.0274    0.0582   -1.0986 C   0  0  0  0  0  0  0  0  0  0  0  0
   -2.2205    0.7512    0.2106 C   0  0  0  0  0  0  0  0  0  0  0  0
   -0.9276    1.0827    0.6160 O   0  0  0  0  0  0  0  0  0  0  0  0
    0.8440    2.1617   -0.5009 H   0  0  0  0  0  0  0  0  0  0  0  0
    2.5548    1.9939   -0.0616 H   0  0  0  0  0  0  0  0  0  0  0  0
    1.9100    0.9987   -1.4362 H   0  0  0  0  0  0  0  0  0  0  0  0
    1.4259    0.6840    1.5330 H   0  0  0  0  0  0  0  0  0  0  0  0
    1.7199   -1.8334    0.2509 H   0  0  0  0  0  0  0  0  0  0  0  0
    2.7283   -0.7478   -0.7469 H   0  0  0  0  0  0  0  0  0  0  0  0
    3.0369   -0.8751    0.9989 H   0  0  0  0  0  0  0  0  0  0  0  0
   -1.1753   -0.7352    2.1074 H   0  0  0  0  0  0  0  0  0  0  0  0
    0.3561   -1.6311    1.7541 H   0  0  0  0  0  0  0  0  0  0  0  0
   -1.1931   -1.9089    0.7794 H   0  0  0  0  0  0  0  0  0  0  0  0
   -0.0064    0.3118   -1.7773 H   0  0  0  0  0  0  0  0  0  0  0  0
   -0.4823   -1.3936   -1.3640 H   0  0  0  0  0  0  0  0  0  0  0  0
   -2.6750   -0.8503   -1.2069 H   0  0  0  0  0  0  0  0  0  0  0  0
   -2.2488    0.7240   -1.9595 H   0  0  0  0  0  0  0  0  0  0  0  0
   -2.7560    0.1401    0.9701 H   0  0  0  0  0  0  0  0  0  0  0  0
   -2.7535    1.7398    0.0896 H   0  0  0  0  0  0  0  0  0  0  0  0
  1  2  1  0
  2  3  1  0
  2  4  1  0
  4  5  1  0
  4  6  1  0
  6  7  1  0
  7  8  1  0
  8  9  1  0
  9  4  1  0
  1 10  1  0
  1 11  1  0
  1 12  1  0
  2 13  1  0
  3 14  1  0
  3 15  1  0
  3 16  1  0
  5 17  1  0
  5 18  1  0
  5 19  1  0
  6 20  1  0
  6 21  1  0
  7 22  1  0
  7 23  1  0
  8 24  1  0
  8 25  1  0
M  END
