
     RDKit          3D

 25 25  0  0  0  0  0  0  0  0999 V2000
   -2.5494    0.9581    1.1880 C   0  0  0  0  0  0  0  0  0  0  0  0
   -2.0084   -0.2059    0.3839 C   0  0  0  0  0  0  0  0  0  0  0  0
   -2.9019   -0.4555   -0.8102 C   0  0  0  0  0  0  0  0  0  0  0  0
   -0.6967   -0.0137    0.0659 O   0  0  0  0  0  0  0  0  0  0  0  0
    0.1669   -0.9611    0.5976 C   0  0  0  0  0  0  0  0  0  0  0  0
    1.5994   -0.6973    0.2132 C   0  0  0  0  0  0  0  0  0  0  0  0
    1.9166   -0.6915   -1.2222 C   0  0  0  0  0  0  0  0  0  0  0  0
    1.9840    0.6028   -0.3883 C   0  0  0  0  0  0  0  0  0  0  0  0
    3.3747    1.1388   -0.2270 C   0  0  0  0  0  0  0  0  0  0  0  0
   -2.8518    0.6208    2.2210 H   0  0  0  0  0  0  0  0  0  0  0  0
   -3.4668    1.3406    0.7098 H   0  0  0  0  0  0  0  0  0  0  0  0
   -1.7830    1.7450    1.3602 H   0  0  0  0  0  0  0  0  0  0  0  0
   -2.0709   -1.1293    1.0299 H   0  0  0  0  0  0  0  0  0  0  0  0
   -3.8749   -0.8574   -0.4035 H   0  0  0  0  0  0  0  0  0  0  0  0
   -2.4566   -1.1053   -1.5608 H   0  0  0  0  0  0  0  0  0  0  0  0
   -3.1804    0.4963   -1.3125 H   0  0  0  0  0  0  0  0  0  0  0  0
   -0.1149   -1.9417    0.1336 H   0  0  0  0  0  0  0  0  0  0  0  0
    0.1159   -1.0389    1.6885 H   0  0  0  0  0  0  0  0  0  0  0  0
    2.3627   -1.1584    0.8897 H   0  0  0  0  0  0  0  0  0  0  0  0
    2.8706   -1.1470   -1.5465 H   0  0  0  0  0  0  0  0  0  0  0  0
    1.1507   -0.6793   -2.0080 H   0  0  0  0  0  0  0  0  0  0  0  0
    1.1669    1.3422   -0.5632 H   0  0  0  0  0  0  0  0  0  0  0  0
    3.3307    2.2428   -0.2983 H   0  0  0  0  0  0  0  0  0  0  0  0
    4.0559    0.7952   -1.0579 H   0  0  0  0  0  0  0  0  0  0  0  0
    3.8607    0.7999    0.7119 H   0  0  0  0  0  0  0  0  0  0  0  0
  1  2  1  0
  2  3  1  0
  2  4  1  0
  4  5  1  0
  5  6  1  0
  6  7  1  0
  7  8  1  0
  8  9  1  0
  8  6  1  0
  1 10  1  0
  1 11  1  0
  1 12  1  0
  2 13  1  0
  3 14  1  0
  3 15  1  0
  3 16  1  0
  5 17  1  0
  5 18  1  0
  6 19  1  0
  7 20  1  0
  7 21  1  0
  8 22  1  0
  9 23  1  0
  9 24  1  0
  9 25  1  0
M  END
