
     RDKit          3D

 21 20  0  0  0  0  0  0  0  0999 V2000
   -0.1237    0.8444   -1.2560 C   0  0  0  0  0  0  0  0  0  0  0  0
    0.0970    0.2616    0.1156 C   0  0  0  0  0  0  0  0  0  0  0  0
   -0.3741    1.2440    1.1553 C   0  0  0  0  0  0  0  0  0  0  0  0
   -0.7295   -0.9915    0.2176 C   0  0  0  0  0  0  0  0  0  0  0  0
   -2.1611   -0.6719    0.0181 C   0  0  0  0  0  0  0  0  0  0  0  0
   -2.9777   -1.5818    0.1443 O   0  0  0  0  0  0  0  0  0  0  0  0
    1.5513   -0.0619    0.3628 C   0  0  0  0  0  0  0  0  0  0  0  0
    2.0884   -1.0513   -0.5869 C   0  0  0  0  0  0  0  0  0  0  0  0
    2.3751   -2.2156   -0.2512 O   0  0  0  0  0  0  0  0  0  0  0  0
    0.7155    1.4970   -1.5514 H   0  0  0  0  0  0  0  0  0  0  0  0
   -0.3874    0.0957   -2.0128 H   0  0  0  0  0  0  0  0  0  0  0  0
   -1.0050    1.5372   -1.1493 H   0  0  0  0  0  0  0  0  0  0  0  0
   -0.4522    0.6637    2.1172 H   0  0  0  0  0  0  0  0  0  0  0  0
    0.4049    2.0309    1.2278 H   0  0  0  0  0  0  0  0  0  0  0  0
   -1.3641    1.6785    0.8706 H   0  0  0  0  0  0  0  0  0  0  0  0
   -0.6385   -1.4450    1.2340 H   0  0  0  0  0  0  0  0  0  0  0  0
   -0.4472   -1.7503   -0.5377 H   0  0  0  0  0  0  0  0  0  0  0  0
   -2.5662    0.3002   -0.2331 H   0  0  0  0  0  0  0  0  0  0  0  0
    2.1214    0.8961    0.3502 H   0  0  0  0  0  0  0  0  0  0  0  0
    1.6071   -0.4459    1.4010 H   0  0  0  0  0  0  0  0  0  0  0  0
    2.2661   -0.8339   -1.6362 H   0  0  0  0  0  0  0  0  0  0  0  0
  1  2  1  0
  2  3  1  0
  2  4  1  0
  4  5  1  0
  5  6  2  0
  2  7  1  0
  7  8  1  0
  8  9  2  0
  1 10  1  0
  1 11  1  0
  1 12  1  0
  3 13  1  0
  3 14  1  0
  3 15  1  0
  4 16  1  0
  4 17  1  0
  5 18  1  0
  7 19  1  0
  7 20  1  0
  8 21  1  0
M  END
