
     RDKit          3D

 25 25  0  0  0  0  0  0  0  0999 V2000
    2.5373   -0.4791    1.1755 C   0  0  0  0  0  0  0  0  0  0  0  0
    1.4178    0.2530    0.4099 C   0  0  0  0  0  0  0  0  0  0  0  0
    1.7553    0.0986   -1.0319 C   0  0  0  0  0  0  0  0  0  0  0  0
    0.1511   -0.3566    0.8719 C   0  0  0  0  0  0  0  0  0  0  0  0
   -1.1204    0.1317    0.3267 C   0  0  0  0  0  0  0  0  0  0  0  0
   -1.3145    0.0129   -1.1415 C   0  0  0  0  0  0  0  0  0  0  0  0
   -1.7993    1.2818    1.0078 C   0  0  0  0  0  0  0  0  0  0  0  0
   -2.2613    0.4165    1.9955 O   0  0  0  0  0  0  0  0  0  0  0  0
   -2.2862   -0.5783    1.0384 C   0  0  0  0  0  0  0  0  0  0  0  0
    2.4699   -1.5677    0.9750 H   0  0  0  0  0  0  0  0  0  0  0  0
    3.5392   -0.1680    0.7608 H   0  0  0  0  0  0  0  0  0  0  0  0
    2.4844   -0.2779    2.2427 H   0  0  0  0  0  0  0  0  0  0  0  0
    1.5055    1.3222    0.7635 H   0  0  0  0  0  0  0  0  0  0  0  0
    1.6361    1.0652   -1.6061 H   0  0  0  0  0  0  0  0  0  0  0  0
    1.2452   -0.7314   -1.5151 H   0  0  0  0  0  0  0  0  0  0  0  0
    2.8585   -0.1174   -1.1848 H   0  0  0  0  0  0  0  0  0  0  0  0
    0.2222   -1.4643    0.6501 H   0  0  0  0  0  0  0  0  0  0  0  0
    0.1707   -0.3207    2.0016 H   0  0  0  0  0  0  0  0  0  0  0  0
   -0.7026    0.6352   -1.7819 H   0  0  0  0  0  0  0  0  0  0  0  0
   -2.3707    0.1932   -1.4533 H   0  0  0  0  0  0  0  0  0  0  0  0
   -1.1170   -1.0617   -1.4282 H   0  0  0  0  0  0  0  0  0  0  0  0
   -2.6092    1.6852    0.3690 H   0  0  0  0  0  0  0  0  0  0  0  0
   -1.1517    2.0980    1.3637 H   0  0  0  0  0  0  0  0  0  0  0  0
   -3.2305   -0.5130    0.4570 H   0  0  0  0  0  0  0  0  0  0  0  0
   -2.0297   -1.5574    1.4560 H   0  0  0  0  0  0  0  0  0  0  0  0
  1  2  1  0
  2  3  1  0
  2  4  1  0
  4  5  1  0
  5  6  1  0
  5  7  1  0
  7  8  1  0
  8  9  1  0
  9  5  1  0
  1 10  1  0
  1 11  1  0
  1 12  1  0
  2 13  1  0
  3 14  1  0
  3 15  1  0
  3 16  1  0
  4 17  1  0
  4 18  1  0
  6 19  1  0
  6 20  1  0
  6 21  1  0
  7 22  1  0
  7 23  1  0
  9 24  1  0
  9 25  1  0
M  END
