
     RDKit          3D

 23 24  0  0  0  0  0  0  0  0999 V2000
    1.8186   -0.5257    1.0766 C   0  0  0  0  0  0  0  0  0  0  0  0
    1.4218   -0.3851   -0.3682 C   0  0  0  0  0  0  0  0  0  0  0  0
    2.2175    0.7400   -0.9631 C   0  0  0  0  0  0  0  0  0  0  0  0
   -0.0461   -0.2814   -0.5800 C   0  0  0  0  0  0  0  0  0  0  0  0
   -0.7967    0.8239    0.0347 C   0  0  0  0  0  0  0  0  0  0  0  0
   -2.2100    1.1273   -0.3151 C   0  0  0  0  0  0  0  0  0  0  0  0
   -2.8414   -0.0801   -0.6242 O   0  0  0  0  0  0  0  0  0  0  0  0
   -2.3233   -1.0410    0.2224 C   0  0  0  0  0  0  0  0  0  0  0  0
   -0.9126   -0.6113    0.5755 C   0  0  0  0  0  0  0  0  0  0  0  0
    1.3858   -1.4216    1.5631 H   0  0  0  0  0  0  0  0  0  0  0  0
    1.6053    0.4086    1.5983 H   0  0  0  0  0  0  0  0  0  0  0  0
    2.9349   -0.6483    1.0937 H   0  0  0  0  0  0  0  0  0  0  0  0
    1.7695   -1.3293   -0.8820 H   0  0  0  0  0  0  0  0  0  0  0  0
    1.9828    0.9475   -2.0163 H   0  0  0  0  0  0  0  0  0  0  0  0
    3.2962    0.4046   -0.9528 H   0  0  0  0  0  0  0  0  0  0  0  0
    2.1543    1.6157   -0.3035 H   0  0  0  0  0  0  0  0  0  0  0  0
   -0.3826   -0.6314   -1.5926 H   0  0  0  0  0  0  0  0  0  0  0  0
   -0.2908    1.5720    0.6581 H   0  0  0  0  0  0  0  0  0  0  0  0
   -2.7315    1.5022    0.6130 H   0  0  0  0  0  0  0  0  0  0  0  0
   -2.3510    1.8020   -1.1611 H   0  0  0  0  0  0  0  0  0  0  0  0
   -2.9395   -1.2568    1.0982 H   0  0  0  0  0  0  0  0  0  0  0  0
   -2.2273   -2.0007   -0.3647 H   0  0  0  0  0  0  0  0  0  0  0  0
   -0.5340   -0.7312    1.5901 H   0  0  0  0  0  0  0  0  0  0  0  0
  1  2  1  0
  2  3  1  0
  2  4  1  0
  4  5  1  0
  5  6  1  0
  6  7  1  0
  7  8  1  0
  8  9  1  0
  9  4  1  0
  9  5  1  0
  1 10  1  0
  1 11  1  0
  1 12  1  0
  2 13  1  0
  3 14  1  0
  3 15  1  0
  3 16  1  0
  4 17  1  0
  5 18  1  0
  6 19  1  0
  6 20  1  0
  8 21  1  0
  8 22  1  0
  9 23  1  0
M  END
