
     RDKit          3D

 21 20  0  0  0  0  0  0  0  0999 V2000
    1.6712   -0.6911   -0.6468 C   0  0  0  0  0  0  0  0  0  0  0  0
    0.6603    0.3847   -0.3851 C   0  0  0  0  0  0  0  0  0  0  0  0
    1.2023    1.3007    0.6791 C   0  0  0  0  0  0  0  0  0  0  0  0
   -0.6495   -0.2398   -0.0334 C   0  0  0  0  0  0  0  0  0  0  0  0
   -1.6640    0.8665    0.2288 C   0  0  0  0  0  0  0  0  0  0  0  0
   -1.1392   -1.0050   -1.2001 C   0  0  0  0  0  0  0  0  0  0  0  0
   -2.1605   -1.6649   -1.0886 O   0  0  0  0  0  0  0  0  0  0  0  0
   -0.6205   -1.1075    1.1401 C   0  0  0  0  0  0  0  0  0  0  0  0
   -1.6803   -1.5451    1.5565 O   0  0  0  0  0  0  0  0  0  0  0  0
    1.6128   -1.1120   -1.6693 H   0  0  0  0  0  0  0  0  0  0  0  0
    1.5480   -1.4738    0.1137 H   0  0  0  0  0  0  0  0  0  0  0  0
    2.7213   -0.3013   -0.5342 H   0  0  0  0  0  0  0  0  0  0  0  0
    0.4856    1.0245   -1.2912 H   0  0  0  0  0  0  0  0  0  0  0  0
    0.4132    1.9365    1.1450 H   0  0  0  0  0  0  0  0  0  0  0  0
    1.8179    0.7730    1.4325 H   0  0  0  0  0  0  0  0  0  0  0  0
    1.9022    2.0109    0.1653 H   0  0  0  0  0  0  0  0  0  0  0  0
   -1.5513    1.1444    1.2891 H   0  0  0  0  0  0  0  0  0  0  0  0
   -1.5176    1.6964   -0.4765 H   0  0  0  0  0  0  0  0  0  0  0  0
   -2.6648    0.4364    0.0430 H   0  0  0  0  0  0  0  0  0  0  0  0
   -0.6475   -1.0214   -2.1622 H   0  0  0  0  0  0  0  0  0  0  0  0
    0.2602   -1.4120    1.6942 H   0  0  0  0  0  0  0  0  0  0  0  0
  1  2  1  0
  2  3  1  0
  2  4  1  0
  4  5  1  0
  4  6  1  0
  6  7  2  0
  4  8  1  0
  8  9  2  0
  1 10  1  0
  1 11  1  0
  1 12  1  0
  2 13  1  0
  3 14  1  0
  3 15  1  0
  3 16  1  0
  5 17  1  0
  5 18  1  0
  5 19  1  0
  6 20  1  0
  8 21  1  0
M  END
