
     RDKit          3D

 25 24  0  0  0  0  0  0  0  0999 V2000
   -2.6701    0.6067    0.9897 C   0  0  0  0  0  0  0  0  0  0  0  0
   -1.8096   -0.2290    0.0553 C   0  0  0  0  0  0  0  0  0  0  0  0
   -2.5968   -0.3563   -1.2332 C   0  0  0  0  0  0  0  0  0  0  0  0
   -0.5607    0.3032   -0.1241 O   0  0  0  0  0  0  0  0  0  0  0  0
    0.4196   -0.5807    0.3280 C   0  0  0  0  0  0  0  0  0  0  0  0
    1.8080   -0.0104    0.1385 C   0  0  0  0  0  0  0  0  0  0  0  0
    2.8337   -0.9891    0.6005 C   0  0  0  0  0  0  0  0  0  0  0  0
    1.9816    1.3069    0.8386 C   0  0  0  0  0  0  0  0  0  0  0  0
    1.9947    0.2265   -1.2313 O   0  0  0  0  0  0  0  0  0  0  0  0
   -2.3276    0.5744    2.0314 H   0  0  0  0  0  0  0  0  0  0  0  0
   -3.7234    0.2605    0.8929 H   0  0  0  0  0  0  0  0  0  0  0  0
   -2.6610    1.6417    0.5561 H   0  0  0  0  0  0  0  0  0  0  0  0
   -1.7435   -1.2438    0.5207 H   0  0  0  0  0  0  0  0  0  0  0  0
   -3.6700   -0.4739   -0.9321 H   0  0  0  0  0  0  0  0  0  0  0  0
   -2.3528   -1.3254   -1.7560 H   0  0  0  0  0  0  0  0  0  0  0  0
   -2.4828    0.5181   -1.8719 H   0  0  0  0  0  0  0  0  0  0  0  0
    0.2866   -0.8434    1.3969 H   0  0  0  0  0  0  0  0  0  0  0  0
    0.3063   -1.5038   -0.2758 H   0  0  0  0  0  0  0  0  0  0  0  0
    2.7924   -1.0476    1.7206 H   0  0  0  0  0  0  0  0  0  0  0  0
    2.5617   -2.0125    0.2181 H   0  0  0  0  0  0  0  0  0  0  0  0
    3.8506   -0.7959    0.2366 H   0  0  0  0  0  0  0  0  0  0  0  0
    3.0485    1.5996    0.7297 H   0  0  0  0  0  0  0  0  0  0  0  0
    1.3612    2.1126    0.4357 H   0  0  0  0  0  0  0  0  0  0  0  0
    1.8129    1.2093    1.9414 H   0  0  0  0  0  0  0  0  0  0  0  0
    1.5405    1.0522   -1.5332 H   0  0  0  0  0  0  0  0  0  0  0  0
  1  2  1  0
  2  3  1  0
  2  4  1  0
  4  5  1  0
  5  6  1  0
  6  7  1  0
  6  8  1  0
  6  9  1  0
  1 10  1  0
  1 11  1  0
  1 12  1  0
  2 13  1  0
  3 14  1  0
  3 15  1  0
  3 16  1  0
  5 17  1  0
  5 18  1  0
  7 19  1  0
  7 20  1  0
  7 21  1  0
  8 22  1  0
  8 23  1  0
  8 24  1  0
  9 25  1  0
M  END
