
     RDKit          3D

 16 15  0  0  0  0  0  0  0  0999 V2000
   -0.8336    1.5179    0.1223 C   0  0  0  0  0  0  0  0  0  0  0  0
   -0.1107    0.1736   -0.0449 C   0  0  0  0  0  0  0  0  0  0  0  0
   -0.3916   -0.6386    1.1888 C   0  0  0  0  0  0  0  0  0  0  0  0
   -0.7171   -0.4574   -1.2690 C   0  0  0  0  0  0  0  0  0  0  0  0
   -0.0536   -0.6610   -2.2648 O   0  0  0  0  0  0  0  0  0  0  0  0
    1.2387    0.4627   -0.2334 O   0  0  0  0  0  0  0  0  0  0  0  0
    2.1673   -0.5498   -0.4167 C   0  0  0  0  0  0  0  0  0  0  0  0
    1.7421   -1.7252   -0.4051 O   0  0  0  0  0  0  0  0  0  0  0  0
   -0.9755    2.0236   -0.8303 H   0  0  0  0  0  0  0  0  0  0  0  0
   -1.7943    1.2734    0.6184 H   0  0  0  0  0  0  0  0  0  0  0  0
   -0.1919    2.0981    0.8366 H   0  0  0  0  0  0  0  0  0  0  0  0
   -0.9057   -0.0404    1.9803 H   0  0  0  0  0  0  0  0  0  0  0  0
    0.5192   -1.0466    1.6633 H   0  0  0  0  0  0  0  0  0  0  0  0
   -1.1268   -1.4372    0.9125 H   0  0  0  0  0  0  0  0  0  0  0  0
   -1.7601   -0.7493   -1.3018 H   0  0  0  0  0  0  0  0  0  0  0  0
    3.1934   -0.2438   -0.5562 H   0  0  0  0  0  0  0  0  0  0  0  0
  1  2  1  0
  2  3  1  0
  2  4  1  0
  4  5  2  0
  2  6  1  0
  6  7  1  0
  7  8  2  0
  1  9  1  0
  1 10  1  0
  1 11  1  0
  3 12  1  0
  3 13  1  0
  3 14  1  0
  4 15  1  0
  7 16  1  0
M  END
