
     RDKit          3D

 14 13  0  0  0  0  0  0  0  0999 V2000
   -0.9275    0.9236   -1.4877 C   0  0  0  0  0  0  0  0  0  0  0  0
   -0.3213   -0.3843   -1.0221 C   0  0  0  0  0  0  0  0  0  0  0  0
    0.5869   -0.1419    0.0969 C   0  0  0  0  0  0  0  0  0  0  0  0
    1.3351    0.0747    1.0457 C   0  0  0  0  0  0  0  0  0  0  0  0
    2.2245    0.3424    2.1408 C   0  0  0  0  0  0  0  0  0  0  0  0
    2.0954    1.3093    2.9292 O   0  0  0  0  0  0  0  0  0  0  0  0
   -1.3998   -1.2816   -0.5765 C   0  0  0  0  0  0  0  0  0  0  0  0
   -1.7512   -2.1743   -1.3294 O   0  0  0  0  0  0  0  0  0  0  0  0
   -1.7743    0.6639   -2.1554 H   0  0  0  0  0  0  0  0  0  0  0  0
   -0.1256    1.4871   -1.9841 H   0  0  0  0  0  0  0  0  0  0  0  0
   -1.3552    1.4577   -0.6158 H   0  0  0  0  0  0  0  0  0  0  0  0
    0.2134   -0.8136   -1.9019 H   0  0  0  0  0  0  0  0  0  0  0  0
    3.0596   -0.3185    2.3098 H   0  0  0  0  0  0  0  0  0  0  0  0
   -1.8599   -1.1446    0.3910 H   0  0  0  0  0  0  0  0  0  0  0  0
  1  2  1  0
  2  3  1  0
  3  4  3  0
  4  5  1  0
  5  6  2  0
  2  7  1  0
  7  8  2  0
  1  9  1  0
  1 10  1  0
  1 11  1  0
  2 12  1  0
  5 13  1  0
  7 14  1  0
M  END
