
     RDKit          3D

 21 22  0  0  0  0  0  0  0  0999 V2000
   -1.2839   -1.5090   -0.9220 C   0  0  0  0  0  0  0  0  0  0  0  0
   -0.9109   -0.5218    0.1586 C   0  0  0  0  0  0  0  0  0  0  0  0
   -1.5602    0.7833   -0.1576 C   0  0  0  0  0  0  0  0  0  0  0  0
   -1.2826    1.7759    0.7801 O   0  0  0  0  0  0  0  0  0  0  0  0
    0.5570   -0.4809    0.3298 C   0  0  0  0  0  0  0  0  0  0  0  0
    1.4110   -0.0933   -0.8101 C   0  0  0  0  0  0  0  0  0  0  0  0
    2.4959    0.2374    0.1893 C   0  0  0  0  0  0  0  0  0  0  0  0
    1.1959    0.8122    0.6794 C   0  0  0  0  0  0  0  0  0  0  0  0
    0.9854    1.2115   -0.6319 O   0  0  0  0  0  0  0  0  0  0  0  0
   -0.6883   -2.4359   -0.7339 H   0  0  0  0  0  0  0  0  0  0  0  0
   -1.0568   -1.1418   -1.9341 H   0  0  0  0  0  0  0  0  0  0  0  0
   -2.3475   -1.8003   -0.7981 H   0  0  0  0  0  0  0  0  0  0  0  0
   -1.3658   -0.9077    1.0982 H   0  0  0  0  0  0  0  0  0  0  0  0
   -1.3929    1.1178   -1.2014 H   0  0  0  0  0  0  0  0  0  0  0  0
   -2.6763    0.6152   -0.0876 H   0  0  0  0  0  0  0  0  0  0  0  0
   -1.7805    2.5858    0.5237 H   0  0  0  0  0  0  0  0  0  0  0  0
    0.9347   -1.3931    0.8429 H   0  0  0  0  0  0  0  0  0  0  0  0
    1.5552   -0.5680   -1.6891 H   0  0  0  0  0  0  0  0  0  0  0  0
    3.2541    0.9698   -0.1551 H   0  0  0  0  0  0  0  0  0  0  0  0
    2.8894   -0.6298    0.7602 H   0  0  0  0  0  0  0  0  0  0  0  0
    1.0671    1.3725    1.5084 H   0  0  0  0  0  0  0  0  0  0  0  0
  1  2  1  0
  2  3  1  0
  3  4  1  0
  2  5  1  0
  5  6  1  0
  6  7  1  0
  7  8  1  0
  8  9  1  0
  8  5  1  0
  9  6  1  0
  1 10  1  0
  1 11  1  0
  1 12  1  0
  2 13  1  0
  3 14  1  0
  3 15  1  0
  4 16  1  0
  5 17  1  0
  6 18  1  0
  7 19  1  0
  7 20  1  0
  8 21  1  0
M  END
