
     RDKit          3D

 14 13  0  0  0  0  0  0  0  0999 V2000
   -0.8812   -0.9499   -0.5090 C   0  0  0  0  0  0  0  0  0  0  0  0
    0.0602    0.0752    0.0641 C   0  0  0  0  0  0  0  0  0  0  0  0
    1.4594   -0.3477   -0.2742 C   0  0  0  0  0  0  0  0  0  0  0  0
    2.1808   -0.8417    0.5417 O   0  0  0  0  0  0  0  0  0  0  0  0
   -0.1153    0.2048    1.5288 C   0  0  0  0  0  0  0  0  0  0  0  0
   -1.1577   -0.0059    2.0890 O   0  0  0  0  0  0  0  0  0  0  0  0
   -0.1595    1.3785   -0.6080 C   0  0  0  0  0  0  0  0  0  0  0  0
   -0.1682    2.4149   -0.0118 O   0  0  0  0  0  0  0  0  0  0  0  0
   -1.2574   -0.6267   -1.4971 H   0  0  0  0  0  0  0  0  0  0  0  0
   -0.4042   -1.9396   -0.6530 H   0  0  0  0  0  0  0  0  0  0  0  0
   -1.7486   -1.0697    0.1879 H   0  0  0  0  0  0  0  0  0  0  0  0
    1.7674   -0.1755   -1.3005 H   0  0  0  0  0  0  0  0  0  0  0  0
    0.7406    0.5041    2.1171 H   0  0  0  0  0  0  0  0  0  0  0  0
   -0.3163    1.3792   -1.6751 H   0  0  0  0  0  0  0  0  0  0  0  0
  1  2  1  0
  2  3  1  0
  3  4  2  0
  2  5  1  0
  5  6  2  0
  2  7  1  0
  7  8  2  0
  1  9  1  0
  1 10  1  0
  1 11  1  0
  3 12  1  0
  5 13  1  0
  7 14  1  0
M  END
