
     RDKit          3D

 22 22  0  0  0  0  0  0  0  0999 V2000
    1.6430   -0.0639   -1.2254 C   0  0  0  0  0  0  0  0  0  0  0  0
    0.9074   -0.2843    0.0591 C   0  0  0  0  0  0  0  0  0  0  0  0
    1.4206    0.6745    1.1169 C   0  0  0  0  0  0  0  0  0  0  0  0
   -0.5750   -0.1427   -0.0593 C   0  0  0  0  0  0  0  0  0  0  0  0
   -1.0824    1.1838   -0.5190 C   0  0  0  0  0  0  0  0  0  0  0  0
   -1.2724   -0.5600    1.2158 C   0  0  0  0  0  0  0  0  0  0  0  0
   -1.3654   -1.8625    0.7050 O   0  0  0  0  0  0  0  0  0  0  0  0
   -1.3210   -1.3381   -0.5700 C   0  0  0  0  0  0  0  0  0  0  0  0
    2.5125   -0.7570   -1.3256 H   0  0  0  0  0  0  0  0  0  0  0  0
    2.0561    0.9733   -1.2731 H   0  0  0  0  0  0  0  0  0  0  0  0
    0.9839   -0.2427   -2.1026 H   0  0  0  0  0  0  0  0  0  0  0  0
    1.1384   -1.3056    0.4205 H   0  0  0  0  0  0  0  0  0  0  0  0
    1.6113    0.1821    2.0806 H   0  0  0  0  0  0  0  0  0  0  0  0
    2.3893    1.1029    0.7639 H   0  0  0  0  0  0  0  0  0  0  0  0
    0.6997    1.4940    1.2626 H   0  0  0  0  0  0  0  0  0  0  0  0
   -1.2974    1.8014    0.3779 H   0  0  0  0  0  0  0  0  0  0  0  0
   -0.3870    1.7170   -1.1957 H   0  0  0  0  0  0  0  0  0  0  0  0
   -2.0562    1.0167   -1.0281 H   0  0  0  0  0  0  0  0  0  0  0  0
   -2.2478   -0.0718    1.4026 H   0  0  0  0  0  0  0  0  0  0  0  0
   -0.6621   -0.5412    2.1296 H   0  0  0  0  0  0  0  0  0  0  0  0
   -2.3331   -1.0676   -0.9096 H   0  0  0  0  0  0  0  0  0  0  0  0
   -0.7624   -1.9084   -1.3260 H   0  0  0  0  0  0  0  0  0  0  0  0
  1  2  1  0
  2  3  1  0
  2  4  1  0
  4  5  1  0
  4  6  1  0
  6  7  1  0
  7  8  1  0
  8  4  1  0
  1  9  1  0
  1 10  1  0
  1 11  1  0
  2 12  1  0
  3 13  1  0
  3 14  1  0
  3 15  1  0
  5 16  1  0
  5 17  1  0
  5 18  1  0
  6 19  1  0
  6 20  1  0
  8 21  1  0
  8 22  1  0
M  END
