
     RDKit          3D

 23 24  0  0  0  0  0  0  0  0999 V2000
   -2.0764   -0.8803   -0.8754 C   0  0  0  0  0  0  0  0  0  0  0  0
   -1.3202   -0.3466    0.3246 C   0  0  0  0  0  0  0  0  0  0  0  0
   -2.0324    0.8272    0.9230 C   0  0  0  0  0  0  0  0  0  0  0  0
    0.0560    0.0911   -0.1023 C   0  0  0  0  0  0  0  0  0  0  0  0
    0.9843    0.6559    0.9275 C   0  0  0  0  0  0  0  0  0  0  0  0
    2.2637    0.8490    0.1298 C   0  0  0  0  0  0  0  0  0  0  0  0
    2.3591   -0.5058   -0.5768 C   0  0  0  0  0  0  0  0  0  0  0  0
    0.9222   -0.7631   -0.9404 C   0  0  0  0  0  0  0  0  0  0  0  0
    0.2446    0.3380   -1.4414 O   0  0  0  0  0  0  0  0  0  0  0  0
   -3.0422   -1.3180   -0.5107 H   0  0  0  0  0  0  0  0  0  0  0  0
   -1.4527   -1.6710   -1.3329 H   0  0  0  0  0  0  0  0  0  0  0  0
   -2.2500   -0.0568   -1.6028 H   0  0  0  0  0  0  0  0  0  0  0  0
   -1.2692   -1.1695    1.0598 H   0  0  0  0  0  0  0  0  0  0  0  0
   -3.0746    0.4880    1.1797 H   0  0  0  0  0  0  0  0  0  0  0  0
   -1.5399    1.0902    1.8909 H   0  0  0  0  0  0  0  0  0  0  0  0
   -2.1389    1.6624    0.2349 H   0  0  0  0  0  0  0  0  0  0  0  0
    0.6416    1.5657    1.4139 H   0  0  0  0  0  0  0  0  0  0  0  0
    1.2073   -0.1600    1.6591 H   0  0  0  0  0  0  0  0  0  0  0  0
    3.1328    1.0672    0.7447 H   0  0  0  0  0  0  0  0  0  0  0  0
    2.0829    1.6451   -0.6091 H   0  0  0  0  0  0  0  0  0  0  0  0
    2.7575   -1.2535    0.1400 H   0  0  0  0  0  0  0  0  0  0  0  0
    2.9639   -0.3698   -1.4724 H   0  0  0  0  0  0  0  0  0  0  0  0
    0.5808   -1.7854   -1.1638 H   0  0  0  0  0  0  0  0  0  0  0  0
  1  2  1  0
  2  3  1  0
  2  4  1  0
  4  5  1  0
  5  6  1  0
  6  7  1  0
  7  8  1  0
  8  9  1  0
  8  4  1  0
  9  4  1  0
  1 10  1  0
  1 11  1  0
  1 12  1  0
  2 13  1  0
  3 14  1  0
  3 15  1  0
  3 16  1  0
  5 17  1  0
  5 18  1  0
  6 19  1  0
  6 20  1  0
  7 21  1  0
  7 22  1  0
  8 23  1  0
M  END
