
     RDKit          3D

 19 19  0  0  0  0  0  0  0  0999 V2000
   -1.9637    0.0006   -1.1350 C   0  0  0  0  0  0  0  0  0  0  0  0
   -1.1849    0.4621    0.0957 C   0  0  0  0  0  0  0  0  0  0  0  0
   -1.5305   -0.4048    1.2261 C   0  0  0  0  0  0  0  0  0  0  0  0
   -2.2264   -0.0061    2.1396 O   0  0  0  0  0  0  0  0  0  0  0  0
    0.2772    0.3702   -0.2657 C   0  0  0  0  0  0  0  0  0  0  0  0
    1.1625    0.7904    0.8415 C   0  0  0  0  0  0  0  0  0  0  0  0
    2.2722    0.0752    0.7277 C   0  0  0  0  0  0  0  0  0  0  0  0
    2.0705   -0.8015   -0.4687 C   0  0  0  0  0  0  0  0  0  0  0  0
    0.6842   -0.9456   -0.4765 O   0  0  0  0  0  0  0  0  0  0  0  0
   -3.0477   -0.1041   -0.8812 H   0  0  0  0  0  0  0  0  0  0  0  0
   -1.5634   -0.9216   -1.5592 H   0  0  0  0  0  0  0  0  0  0  0  0
   -1.8587    0.7986   -1.8855 H   0  0  0  0  0  0  0  0  0  0  0  0
   -1.4515    1.5091    0.3161 H   0  0  0  0  0  0  0  0  0  0  0  0
   -1.1789   -1.4356    1.2914 H   0  0  0  0  0  0  0  0  0  0  0  0
    0.5203    0.9300   -1.1793 H   0  0  0  0  0  0  0  0  0  0  0  0
    0.9236    1.5341    1.5790 H   0  0  0  0  0  0  0  0  0  0  0  0
    3.1339    0.1178    1.3624 H   0  0  0  0  0  0  0  0  0  0  0  0
    2.6035   -1.7629   -0.3787 H   0  0  0  0  0  0  0  0  0  0  0  0
    2.3576   -0.2058   -1.3498 H   0  0  0  0  0  0  0  0  0  0  0  0
  1  2  1  0
  2  3  1  0
  3  4  2  0
  2  5  1  0
  5  6  1  0
  6  7  2  0
  7  8  1  0
  8  9  1  0
  9  5  1  0
  1 10  1  0
  1 11  1  0
  1 12  1  0
  2 13  1  0
  3 14  1  0
  5 15  1  0
  6 16  1  0
  7 17  1  0
  8 18  1  0
  8 19  1  0
M  END
