
     RDKit          3D

 23 22  0  0  0  0  0  0  0  0999 V2000
    1.6332   -0.4905   -1.1313 C   0  0  0  0  0  0  0  0  0  0  0  0
    0.9593    0.4102   -0.1385 C   0  0  0  0  0  0  0  0  0  0  0  0
    1.5995    0.3722    1.2071 C   0  0  0  0  0  0  0  0  0  0  0  0
    1.9270    1.3751    1.8215 O   0  0  0  0  0  0  0  0  0  0  0  0
   -0.5270    0.1994   -0.0507 C   0  0  0  0  0  0  0  0  0  0  0  0
   -1.0569    1.1760    0.9867 C   0  0  0  0  0  0  0  0  0  0  0  0
   -1.1623    0.5385   -1.3805 C   0  0  0  0  0  0  0  0  0  0  0  0
   -0.9004   -1.2160    0.2918 C   0  0  0  0  0  0  0  0  0  0  0  0
   -0.3979   -1.6403    1.5033 O   0  0  0  0  0  0  0  0  0  0  0  0
    2.7268   -0.3054   -1.0429 H   0  0  0  0  0  0  0  0  0  0  0  0
    1.3235   -0.1996   -2.1451 H   0  0  0  0  0  0  0  0  0  0  0  0
    1.4871   -1.5651   -0.9223 H   0  0  0  0  0  0  0  0  0  0  0  0
    1.0974    1.4600   -0.5262 H   0  0  0  0  0  0  0  0  0  0  0  0
    1.7975   -0.5762    1.6906 H   0  0  0  0  0  0  0  0  0  0  0  0
   -0.9468    2.1909    0.5525 H   0  0  0  0  0  0  0  0  0  0  0  0
   -0.4146    1.0407    1.8856 H   0  0  0  0  0  0  0  0  0  0  0  0
   -2.1255    0.9983    1.2092 H   0  0  0  0  0  0  0  0  0  0  0  0
   -0.6221    1.4474   -1.7612 H   0  0  0  0  0  0  0  0  0  0  0  0
   -1.0588   -0.2882   -2.1060 H   0  0  0  0  0  0  0  0  0  0  0  0
   -2.2406    0.8263   -1.2237 H   0  0  0  0  0  0  0  0  0  0  0  0
   -2.0123   -1.2541    0.3407 H   0  0  0  0  0  0  0  0  0  0  0  0
   -0.6127   -1.8557   -0.5646 H   0  0  0  0  0  0  0  0  0  0  0  0
   -0.4735   -2.6439    1.5039 H   0  0  0  0  0  0  0  0  0  0  0  0
  1  2  1  0
  2  3  1  0
  3  4  2  0
  2  5  1  0
  5  6  1  0
  5  7  1  0
  5  8  1  0
  8  9  1  0
  1 10  1  0
  1 11  1  0
  1 12  1  0
  2 13  1  0
  3 14  1  0
  6 15  1  0
  6 16  1  0
  6 17  1  0
  7 18  1  0
  7 19  1  0
  7 20  1  0
  8 21  1  0
  8 22  1  0
  9 23  1  0
M  END
