
     RDKit          3D

 21 22  0  0  0  0  0  0  0  0999 V2000
   -2.2092    1.0838    0.0038 C   0  0  0  0  0  0  0  0  0  0  0  0
   -1.0989    0.2033    0.5128 C   0  0  0  0  0  0  0  0  0  0  0  0
   -1.7035   -1.1556    0.8240 C   0  0  0  0  0  0  0  0  0  0  0  0
    0.0200    0.0591   -0.5315 C   0  0  0  0  0  0  0  0  0  0  0  0
    1.1662   -0.7376   -0.2414 C   0  0  0  0  0  0  0  0  0  0  0  0
    2.6284   -0.4649   -0.6379 C   0  0  0  0  0  0  0  0  0  0  0  0
    2.4249    0.6196    0.3611 C   0  0  0  0  0  0  0  0  0  0  0  0
    2.9901    1.0309    1.2991 O   0  0  0  0  0  0  0  0  0  0  0  0
    1.2123    0.8361   -0.4594 C   0  0  0  0  0  0  0  0  0  0  0  0
   -3.0611    0.9589    0.7040 H   0  0  0  0  0  0  0  0  0  0  0  0
   -1.9528    2.1511   -0.0171 H   0  0  0  0  0  0  0  0  0  0  0  0
   -2.5921    0.7276   -0.9947 H   0  0  0  0  0  0  0  0  0  0  0  0
   -0.6958    0.6486    1.4247 H   0  0  0  0  0  0  0  0  0  0  0  0
   -1.9833   -1.2632    1.8849 H   0  0  0  0  0  0  0  0  0  0  0  0
   -2.5834   -1.3250    0.1461 H   0  0  0  0  0  0  0  0  0  0  0  0
   -0.9483   -1.9153    0.5082 H   0  0  0  0  0  0  0  0  0  0  0  0
   -0.4732   -0.1477   -1.5309 H   0  0  0  0  0  0  0  0  0  0  0  0
    1.2274   -1.0443    0.8537 H   0  0  0  0  0  0  0  0  0  0  0  0
    3.2882   -1.2799   -0.3657 H   0  0  0  0  0  0  0  0  0  0  0  0
    2.7316   -0.1194   -1.6857 H   0  0  0  0  0  0  0  0  0  0  0  0
    1.6123    1.1339   -1.4863 H   0  0  0  0  0  0  0  0  0  0  0  0
  1  2  1  0
  2  3  1  0
  2  4  1  0
  4  5  1  0
  5  6  1  0
  6  7  1  0
  7  8  2  0
  7  9  1  0
  9  4  1  0
  9  5  1  0
  1 10  1  0
  1 11  1  0
  1 12  1  0
  2 13  1  0
  3 14  1  0
  3 15  1  0
  3 16  1  0
  4 17  1  0
  5 18  1  0
  6 19  1  0
  6 20  1  0
  9 21  1  0
M  END
