
     RDKit          3D

 19 18  0  0  0  0  0  0  0  0999 V2000
   -1.5830    0.8371   -0.8433 C   0  0  0  0  0  0  0  0  0  0  0  0
   -0.6594   -0.1248   -0.0923 C   0  0  0  0  0  0  0  0  0  0  0  0
   -1.0053   -0.1844    1.3701 C   0  0  0  0  0  0  0  0  0  0  0  0
   -0.7606   -1.4714   -0.7195 C   0  0  0  0  0  0  0  0  0  0  0  0
   -1.6190   -1.7560   -1.5416 O   0  0  0  0  0  0  0  0  0  0  0  0
    0.7325    0.4468   -0.2386 C   0  0  0  0  0  0  0  0  0  0  0  0
    1.6541   -0.3781    0.4254 O   0  0  0  0  0  0  0  0  0  0  0  0
    2.9936   -0.0281    0.4111 C   0  0  0  0  0  0  0  0  0  0  0  0
    3.3151    1.0180   -0.2007 O   0  0  0  0  0  0  0  0  0  0  0  0
   -2.6236    0.5178   -0.8323 H   0  0  0  0  0  0  0  0  0  0  0  0
   -1.1972    0.8612   -1.8875 H   0  0  0  0  0  0  0  0  0  0  0  0
   -1.4137    1.8454   -0.4307 H   0  0  0  0  0  0  0  0  0  0  0  0
   -1.6916   -1.0445    1.5279 H   0  0  0  0  0  0  0  0  0  0  0  0
   -1.4942    0.7529    1.7327 H   0  0  0  0  0  0  0  0  0  0  0  0
   -0.1072   -0.3177    2.0155 H   0  0  0  0  0  0  0  0  0  0  0  0
   -0.0354   -2.2340   -0.4302 H   0  0  0  0  0  0  0  0  0  0  0  0
    1.0022    0.4147   -1.3284 H   0  0  0  0  0  0  0  0  0  0  0  0
    0.7336    1.4740    0.1532 H   0  0  0  0  0  0  0  0  0  0  0  0
    3.7591   -0.6289    0.9092 H   0  0  0  0  0  0  0  0  0  0  0  0
  1  2  1  0
  2  3  1  0
  2  4  1  0
  4  5  2  0
  2  6  1  0
  6  7  1  0
  7  8  1  0
  8  9  2  0
  1 10  1  0
  1 11  1  0
  1 12  1  0
  3 13  1  0
  3 14  1  0
  3 15  1  0
  4 16  1  0
  6 17  1  0
  6 18  1  0
  8 19  1  0
M  END
