
     RDKit          3D

 23 23  0  0  0  0  0  0  0  0999 V2000
   -2.3783   -1.2280    2.2357 C   0  0  0  0  0  0  0  0  0  0  0  0
   -1.3168   -1.8126    1.2928 C   0  0  0  0  0  0  0  0  0  0  0  0
   -2.0139   -2.3402    0.0374 C   0  0  0  0  0  0  0  0  0  0  0  0
   -0.3430   -0.9160    0.9819 C   0  0  0  0  0  0  0  0  0  0  0  0
    0.5695   -0.0595    0.6683 C   0  0  0  0  0  0  0  0  0  0  0  0
    1.6537    0.9250    0.2930 C   0  0  0  0  0  0  0  0  0  0  0  0
    2.4336    0.5883   -0.9888 C   0  0  0  0  0  0  0  0  0  0  0  0
    1.3310    1.6204   -0.9755 C   0  0  0  0  0  0  0  0  0  0  0  0
    1.6273    3.0874   -1.0114 C   0  0  0  0  0  0  0  0  0  0  0  0
   -1.8117   -0.4777    2.8753 H   0  0  0  0  0  0  0  0  0  0  0  0
   -3.1843   -0.7485    1.6716 H   0  0  0  0  0  0  0  0  0  0  0  0
   -2.6694   -2.0371    2.9286 H   0  0  0  0  0  0  0  0  0  0  0  0
   -0.9426   -2.7650    1.7987 H   0  0  0  0  0  0  0  0  0  0  0  0
   -2.4919   -3.3009    0.2829 H   0  0  0  0  0  0  0  0  0  0  0  0
   -2.6749   -1.5779   -0.4070 H   0  0  0  0  0  0  0  0  0  0  0  0
   -1.1866   -2.6023   -0.6787 H   0  0  0  0  0  0  0  0  0  0  0  0
    2.1980    1.4039    1.1047 H   0  0  0  0  0  0  0  0  0  0  0  0
    2.2209   -0.4325   -1.4145 H   0  0  0  0  0  0  0  0  0  0  0  0
    3.4736    0.9384   -1.0671 H   0  0  0  0  0  0  0  0  0  0  0  0
    0.4182    1.2635   -1.5109 H   0  0  0  0  0  0  0  0  0  0  0  0
    2.3025    3.3657   -0.1774 H   0  0  0  0  0  0  0  0  0  0  0  0
    2.1035    3.4437   -1.9479 H   0  0  0  0  0  0  0  0  0  0  0  0
    0.6816    3.6620   -0.8123 H   0  0  0  0  0  0  0  0  0  0  0  0
  1  2  1  0
  2  3  1  0
  2  4  1  0
  4  5  3  0
  5  6  1  0
  6  7  1  0
  7  8  1  0
  8  9  1  0
  8  6  1  0
  1 10  1  0
  1 11  1  0
  1 12  1  0
  2 13  1  0
  3 14  1  0
  3 15  1  0
  3 16  1  0
  6 17  1  0
  7 18  1  0
  7 19  1  0
  8 20  1  0
  9 21  1  0
  9 22  1  0
  9 23  1  0
M  END
