
     RDKit          3D

 21 21  0  0  0  0  0  0  0  0999 V2000
   -1.4029    1.3564    0.5865 C   0  0  0  0  0  0  0  0  0  0  0  0
   -1.0084    0.1752   -0.2050 C   0  0  0  0  0  0  0  0  0  0  0  0
   -2.2318   -0.7466   -0.3158 C   0  0  0  0  0  0  0  0  0  0  0  0
    0.0727   -0.6737    0.3797 C   0  0  0  0  0  0  0  0  0  0  0  0
    1.3680    0.0010    0.6075 C   0  0  0  0  0  0  0  0  0  0  0  0
    2.0834    0.5920   -0.5453 C   0  0  0  0  0  0  0  0  0  0  0  0
    3.2847    0.0659    0.0388 O   0  0  0  0  0  0  0  0  0  0  0  0
    2.5259   -0.9628    0.5837 C   0  0  0  0  0  0  0  0  0  0  0  0
    2.6870   -2.1658    0.9212 O   0  0  0  0  0  0  0  0  0  0  0  0
   -0.7160    1.6651    1.3783 H   0  0  0  0  0  0  0  0  0  0  0  0
   -2.4071    1.2197    1.0841 H   0  0  0  0  0  0  0  0  0  0  0  0
   -1.5629    2.2448   -0.0932 H   0  0  0  0  0  0  0  0  0  0  0  0
   -0.7148    0.4537   -1.2335 H   0  0  0  0  0  0  0  0  0  0  0  0
   -2.4931   -1.1655    0.6770 H   0  0  0  0  0  0  0  0  0  0  0  0
   -1.9062   -1.6228   -0.9313 H   0  0  0  0  0  0  0  0  0  0  0  0
   -3.0661   -0.2528   -0.8242 H   0  0  0  0  0  0  0  0  0  0  0  0
    0.2253   -1.5317   -0.3257 H   0  0  0  0  0  0  0  0  0  0  0  0
   -0.2706   -1.1314    1.3308 H   0  0  0  0  0  0  0  0  0  0  0  0
    1.4221    0.6553    1.5060 H   0  0  0  0  0  0  0  0  0  0  0  0
    2.1779    1.7059   -0.5519 H   0  0  0  0  0  0  0  0  0  0  0  0
    1.9330    0.1181   -1.5222 H   0  0  0  0  0  0  0  0  0  0  0  0
  1  2  1  0
  2  3  1  0
  2  4  1  0
  4  5  1  0
  5  6  1  0
  6  7  1  0
  7  8  1  0
  8  9  2  0
  8  5  1  0
  1 10  1  0
  1 11  1  0
  1 12  1  0
  2 13  1  0
  3 14  1  0
  3 15  1  0
  3 16  1  0
  4 17  1  0
  4 18  1  0
  5 19  1  0
  6 20  1  0
  6 21  1  0
M  END
