
     RDKit          3D

 23 22  0  0  0  0  0  0  0  0999 V2000
   -1.3803   -1.3472   -0.4606 C   0  0  0  0  0  0  0  0  0  0  0  0
   -0.6948   -0.0200   -0.1036 C   0  0  0  0  0  0  0  0  0  0  0  0
   -1.2956    1.0568   -0.9308 C   0  0  0  0  0  0  0  0  0  0  0  0
   -0.9991    0.2325    1.3484 C   0  0  0  0  0  0  0  0  0  0  0  0
    0.7774   -0.2356   -0.3481 C   0  0  0  0  0  0  0  0  0  0  0  0
    1.2341   -1.3513    0.5331 C   0  0  0  0  0  0  0  0  0  0  0  0
    2.1010   -1.1963    1.3697 O   0  0  0  0  0  0  0  0  0  0  0  0
    1.6096    0.9835   -0.1329 C   0  0  0  0  0  0  0  0  0  0  0  0
    2.9405    0.6108   -0.4008 O   0  0  0  0  0  0  0  0  0  0  0  0
   -1.4549   -1.9907    0.4513 H   0  0  0  0  0  0  0  0  0  0  0  0
   -0.7679   -1.9117   -1.1907 H   0  0  0  0  0  0  0  0  0  0  0  0
   -2.3842   -1.1497   -0.8807 H   0  0  0  0  0  0  0  0  0  0  0  0
   -2.3578    0.7597   -1.1633 H   0  0  0  0  0  0  0  0  0  0  0  0
   -1.3628    2.0268   -0.3909 H   0  0  0  0  0  0  0  0  0  0  0  0
   -0.8137    1.1840   -1.9248 H   0  0  0  0  0  0  0  0  0  0  0  0
   -1.8202   -0.4307    1.7355 H   0  0  0  0  0  0  0  0  0  0  0  0
   -0.1302    0.0264    2.0117 H   0  0  0  0  0  0  0  0  0  0  0  0
   -1.3820    1.2755    1.5290 H   0  0  0  0  0  0  0  0  0  0  0  0
    0.9399   -0.5806   -1.3899 H   0  0  0  0  0  0  0  0  0  0  0  0
    0.7483   -2.3087    0.3844 H   0  0  0  0  0  0  0  0  0  0  0  0
    1.3625    1.7398   -0.9183 H   0  0  0  0  0  0  0  0  0  0  0  0
    1.5396    1.4031    0.8824 H   0  0  0  0  0  0  0  0  0  0  0  0
    3.5906    1.2235   -0.0102 H   0  0  0  0  0  0  0  0  0  0  0  0
  1  2  1  0
  2  3  1  0
  2  4  1  0
  2  5  1  0
  5  6  1  0
  6  7  2  0
  5  8  1  0
  8  9  1  0
  1 10  1  0
  1 11  1  0
  1 12  1  0
  3 13  1  0
  3 14  1  0
  3 15  1  0
  4 16  1  0
  4 17  1  0
  4 18  1  0
  5 19  1  0
  6 20  1  0
  8 21  1  0
  8 22  1  0
  9 23  1  0
M  END
