
     RDKit          3D

 24 24  0  0  0  0  0  0  0  0999 V2000
    2.6564    0.3429    0.3815 C   0  0  0  0  0  0  0  0  0  0  0  0
    1.2891    0.4241   -0.3224 C   0  0  0  0  0  0  0  0  0  0  0  0
    1.3985   -0.4485   -1.5216 C   0  0  0  0  0  0  0  0  0  0  0  0
    0.2833    0.0273    0.6965 C   0  0  0  0  0  0  0  0  0  0  0  0
   -1.1431    0.0259    0.2665 C   0  0  0  0  0  0  0  0  0  0  0  0
   -1.5178   -0.8887   -0.8784 C   0  0  0  0  0  0  0  0  0  0  0  0
   -2.1336   -0.0383    1.4466 C   0  0  0  0  0  0  0  0  0  0  0  0
   -2.0546    1.1517    0.5798 C   0  0  0  0  0  0  0  0  0  0  0  0
    2.4988    0.7736    1.3901 H   0  0  0  0  0  0  0  0  0  0  0  0
    3.4422    0.8218   -0.2022 H   0  0  0  0  0  0  0  0  0  0  0  0
    2.8167   -0.7515    0.5436 H   0  0  0  0  0  0  0  0  0  0  0  0
    1.2025    1.4833   -0.6469 H   0  0  0  0  0  0  0  0  0  0  0  0
    0.6499   -0.3122   -2.2979 H   0  0  0  0  0  0  0  0  0  0  0  0
    1.5576   -1.5206   -1.2148 H   0  0  0  0  0  0  0  0  0  0  0  0
    2.3828   -0.1851   -2.0150 H   0  0  0  0  0  0  0  0  0  0  0  0
    0.5559   -0.9928    1.0590 H   0  0  0  0  0  0  0  0  0  0  0  0
    0.4405    0.6899    1.5870 H   0  0  0  0  0  0  0  0  0  0  0  0
   -1.6827   -0.2492   -1.7765 H   0  0  0  0  0  0  0  0  0  0  0  0
   -2.5186   -1.3717   -0.7055 H   0  0  0  0  0  0  0  0  0  0  0  0
   -0.8185   -1.7142   -1.0248 H   0  0  0  0  0  0  0  0  0  0  0  0
   -1.7397    0.0350    2.4647 H   0  0  0  0  0  0  0  0  0  0  0  0
   -3.0021   -0.7148    1.3545 H   0  0  0  0  0  0  0  0  0  0  0  0
   -1.6644    2.1189    0.9636 H   0  0  0  0  0  0  0  0  0  0  0  0
   -2.8990    1.2932   -0.1272 H   0  0  0  0  0  0  0  0  0  0  0  0
  1  2  1  0
  2  3  1  0
  2  4  1  0
  4  5  1  0
  5  6  1  0
  5  7  1  0
  7  8  1  0
  8  5  1  0
  1  9  1  0
  1 10  1  0
  1 11  1  0
  2 12  1  0
  3 13  1  0
  3 14  1  0
  3 15  1  0
  4 16  1  0
  4 17  1  0
  6 18  1  0
  6 19  1  0
  6 20  1  0
  7 21  1  0
  7 22  1  0
  8 23  1  0
  8 24  1  0
M  END
