
     RDKit          3D

 17 16  0  0  0  0  0  0  0  0999 V2000
   -1.2351    1.1458   -0.3311 C   0  0  0  0  0  0  0  0  0  0  0  0
   -0.9314    0.3220    0.9064 C   0  0  0  0  0  0  0  0  0  0  0  0
   -1.7006   -0.9398    0.7778 C   0  0  0  0  0  0  0  0  0  0  0  0
   -2.6874   -1.1712    1.4643 O   0  0  0  0  0  0  0  0  0  0  0  0
    0.5166    0.0070    1.0087 C   0  0  0  0  0  0  0  0  0  0  0  0
    1.1154    0.4206    1.9807 O   0  0  0  0  0  0  0  0  0  0  0  0
    1.2537   -0.7737   -0.0051 C   0  0  0  0  0  0  0  0  0  0  0  0
    2.4361   -0.0068   -0.5204 C   0  0  0  0  0  0  0  0  0  0  0  0
    2.1932    0.8379   -1.3674 O   0  0  0  0  0  0  0  0  0  0  0  0
   -1.2843    0.4230   -1.1875 H   0  0  0  0  0  0  0  0  0  0  0  0
   -0.4531    1.8854   -0.5386 H   0  0  0  0  0  0  0  0  0  0  0  0
   -2.2500    1.5597   -0.1976 H   0  0  0  0  0  0  0  0  0  0  0  0
   -1.2739    0.9191    1.7703 H   0  0  0  0  0  0  0  0  0  0  0  0
   -1.4007   -1.6767    0.0718 H   0  0  0  0  0  0  0  0  0  0  0  0
    0.5847   -1.0830   -0.8209 H   0  0  0  0  0  0  0  0  0  0  0  0
    1.6733   -1.7173    0.4360 H   0  0  0  0  0  0  0  0  0  0  0  0
    3.4434   -0.1521   -0.1998 H   0  0  0  0  0  0  0  0  0  0  0  0
  1  2  1  0
  2  3  1  0
  3  4  2  0
  2  5  1  0
  5  6  2  0
  5  7  1  0
  7  8  1  0
  8  9  2  0
  1 10  1  0
  1 11  1  0
  1 12  1  0
  2 13  1  0
  3 14  1  0
  7 15  1  0
  7 16  1  0
  8 17  1  0
M  END
