
     RDKit          3D

 20 20  0  0  0  0  0  0  0  0999 V2000
    1.5786    0.3389   -0.7473 C   0  0  0  0  0  0  0  0  0  0  0  0
    0.7763   -0.4356    0.2455 C   0  0  0  0  0  0  0  0  0  0  0  0
    0.9505    0.1025    1.6673 C   0  0  0  0  0  0  0  0  0  0  0  0
   -0.6981   -0.4944   -0.0850 C   0  0  0  0  0  0  0  0  0  0  0  0
   -1.4977    0.7549   -0.1884 C   0  0  0  0  0  0  0  0  0  0  0  0
   -0.7902    1.8348   -0.7005 O   0  0  0  0  0  0  0  0  0  0  0  0
   -1.0841   -1.6132   -1.0200 C   0  0  0  0  0  0  0  0  0  0  0  0
   -1.3678   -1.5912    0.4192 O   0  0  0  0  0  0  0  0  0  0  0  0
    2.0069    1.2465   -0.2713 H   0  0  0  0  0  0  0  0  0  0  0  0
    2.4418   -0.2613   -1.1534 H   0  0  0  0  0  0  0  0  0  0  0  0
    1.0136    0.6764   -1.6318 H   0  0  0  0  0  0  0  0  0  0  0  0
    1.1690   -1.4755    0.2589 H   0  0  0  0  0  0  0  0  0  0  0  0
    1.8949    0.6570    1.7817 H   0  0  0  0  0  0  0  0  0  0  0  0
    0.9484   -0.7540    2.3835 H   0  0  0  0  0  0  0  0  0  0  0  0
    0.0593    0.7179    1.9550 H   0  0  0  0  0  0  0  0  0  0  0  0
   -2.4145    0.5506   -0.7762 H   0  0  0  0  0  0  0  0  0  0  0  0
   -1.8797    1.0872    0.8225 H   0  0  0  0  0  0  0  0  0  0  0  0
   -0.7781    2.6145   -0.1013 H   0  0  0  0  0  0  0  0  0  0  0  0
   -0.3478   -2.4306   -1.2088 H   0  0  0  0  0  0  0  0  0  0  0  0
   -1.9814   -1.5254   -1.6495 H   0  0  0  0  0  0  0  0  0  0  0  0
  1  2  1  0
  2  3  1  0
  2  4  1  0
  4  5  1  0
  5  6  1  0
  4  7  1  0
  7  8  1  0
  8  4  1  0
  1  9  1  0
  1 10  1  0
  1 11  1  0
  2 12  1  0
  3 13  1  0
  3 14  1  0
  3 15  1  0
  5 16  1  0
  5 17  1  0
  6 18  1  0
  7 19  1  0
  7 20  1  0
M  END
