
     RDKit          3D

 25 25  0  0  0  0  0  0  0  0999 V2000
   -1.5534   -1.2705   -0.4583 C   0  0  0  0  0  0  0  0  0  0  0  0
   -1.1244    0.1672   -0.2340 C   0  0  0  0  0  0  0  0  0  0  0  0
   -2.2919    0.9257    0.3542 C   0  0  0  0  0  0  0  0  0  0  0  0
   -0.0071    0.1586    0.7602 C   0  0  0  0  0  0  0  0  0  0  0  0
    0.5889    1.4559    1.1484 C   0  0  0  0  0  0  0  0  0  0  0  0
    1.8560    0.8330    1.1428 O   0  0  0  0  0  0  0  0  0  0  0  0
    1.3732   -0.0540    0.2020 C   0  0  0  0  0  0  0  0  0  0  0  0
    1.8011   -1.4771    0.3428 C   0  0  0  0  0  0  0  0  0  0  0  0
    1.5879    0.4745   -1.1940 C   0  0  0  0  0  0  0  0  0  0  0  0
   -1.2893   -1.6345   -1.4706 H   0  0  0  0  0  0  0  0  0  0  0  0
   -2.6565   -1.3934   -0.2760 H   0  0  0  0  0  0  0  0  0  0  0  0
   -1.0695   -1.9615    0.2726 H   0  0  0  0  0  0  0  0  0  0  0  0
   -0.8570    0.6459   -1.1937 H   0  0  0  0  0  0  0  0  0  0  0  0
   -2.2704    1.9986    0.0786 H   0  0  0  0  0  0  0  0  0  0  0  0
   -2.2683    0.8435    1.4588 H   0  0  0  0  0  0  0  0  0  0  0  0
   -3.2761    0.4715    0.0443 H   0  0  0  0  0  0  0  0  0  0  0  0
   -0.2193   -0.4886    1.6169 H   0  0  0  0  0  0  0  0  0  0  0  0
    0.5894    2.2763    0.4326 H   0  0  0  0  0  0  0  0  0  0  0  0
    0.2840    1.7999    2.1677 H   0  0  0  0  0  0  0  0  0  0  0  0
    1.2244   -2.0670   -0.4254 H   0  0  0  0  0  0  0  0  0  0  0  0
    2.8703   -1.5647    0.0637 H   0  0  0  0  0  0  0  0  0  0  0  0
    1.5652   -1.8927    1.3235 H   0  0  0  0  0  0  0  0  0  0  0  0
    2.6881    0.3506   -1.4040 H   0  0  0  0  0  0  0  0  0  0  0  0
    1.3795    1.5445   -1.2997 H   0  0  0  0  0  0  0  0  0  0  0  0
    1.0753   -0.1418   -1.9595 H   0  0  0  0  0  0  0  0  0  0  0  0
  1  2  1  0
  2  3  1  0
  2  4  1  0
  4  5  1  0
  5  6  1  0
  6  7  1  0
  7  8  1  0
  7  9  1  0
  7  4  1  0
  1 10  1  0
  1 11  1  0
  1 12  1  0
  2 13  1  0
  3 14  1  0
  3 15  1  0
  3 16  1  0
  4 17  1  0
  5 18  1  0
  5 19  1  0
  8 20  1  0
  8 21  1  0
  8 22  1  0
  9 23  1  0
  9 24  1  0
  9 25  1  0
M  END
