
     RDKit          3D

 23 23  0  0  0  0  0  0  0  0999 V2000
   -2.1421    0.4471    0.6488 C   0  0  0  0  0  0  0  0  0  0  0  0
   -1.1303    0.0407   -0.4221 C   0  0  0  0  0  0  0  0  0  0  0  0
   -1.4313   -1.3596   -0.7810 C   0  0  0  0  0  0  0  0  0  0  0  0
   -2.4662   -1.5552   -1.3883 O   0  0  0  0  0  0  0  0  0  0  0  0
    0.2746    0.2862    0.0075 C   0  0  0  0  0  0  0  0  0  0  0  0
    0.5986    1.7292    0.3295 C   0  0  0  0  0  0  0  0  0  0  0  0
    1.2360   -0.2093   -1.0606 C   0  0  0  0  0  0  0  0  0  0  0  0
    2.0756   -0.8773    0.0077 C   0  0  0  0  0  0  0  0  0  0  0  0
    0.9053   -0.6319    0.9697 C   0  0  0  0  0  0  0  0  0  0  0  0
   -2.2896    1.5422    0.6364 H   0  0  0  0  0  0  0  0  0  0  0  0
   -3.1081    0.0006    0.3272 H   0  0  0  0  0  0  0  0  0  0  0  0
   -1.9033    0.0341    1.6296 H   0  0  0  0  0  0  0  0  0  0  0  0
   -1.3844    0.6628   -1.3073 H   0  0  0  0  0  0  0  0  0  0  0  0
   -0.8331   -2.2277   -0.5631 H   0  0  0  0  0  0  0  0  0  0  0  0
    1.1810    2.2178   -0.4834 H   0  0  0  0  0  0  0  0  0  0  0  0
    1.2410    1.8182    1.2464 H   0  0  0  0  0  0  0  0  0  0  0  0
   -0.3089    2.3346    0.5283 H   0  0  0  0  0  0  0  0  0  0  0  0
    0.7854   -0.9024   -1.8043 H   0  0  0  0  0  0  0  0  0  0  0  0
    1.7609    0.6023   -1.6080 H   0  0  0  0  0  0  0  0  0  0  0  0
    2.9672   -0.2735    0.2100 H   0  0  0  0  0  0  0  0  0  0  0  0
    2.2273   -1.9373   -0.2506 H   0  0  0  0  0  0  0  0  0  0  0  0
    0.4147   -1.5690    1.2279 H   0  0  0  0  0  0  0  0  0  0  0  0
    1.3298   -0.1726    1.8999 H   0  0  0  0  0  0  0  0  0  0  0  0
  1  2  1  0
  2  3  1  0
  3  4  2  0
  2  5  1  0
  5  6  1  0
  5  7  1  0
  7  8  1  0
  8  9  1  0
  9  5  1  0
  1 10  1  0
  1 11  1  0
  1 12  1  0
  2 13  1  0
  3 14  1  0
  6 15  1  0
  6 16  1  0
  6 17  1  0
  7 18  1  0
  7 19  1  0
  8 20  1  0
  8 21  1  0
  9 22  1  0
  9 23  1  0
M  END
