
     RDKit          3D

 21 21  0  0  0  0  0  0  0  0999 V2000
    2.0728    0.2533   -1.4691 C   0  0  0  0  0  0  0  0  0  0  0  0
    1.3631   -0.2795   -0.2262 C   0  0  0  0  0  0  0  0  0  0  0  0
    2.2760   -0.0101    0.9504 C   0  0  0  0  0  0  0  0  0  0  0  0
    0.2128    0.4659   -0.0689 O   0  0  0  0  0  0  0  0  0  0  0  0
   -0.9462   -0.2743   -0.0395 C   0  0  0  0  0  0  0  0  0  0  0  0
   -1.7727    0.0731    1.1818 C   0  0  0  0  0  0  0  0  0  0  0  0
   -2.9829   -0.0338    0.2584 C   0  0  0  0  0  0  0  0  0  0  0  0
   -2.0603    0.2511   -0.8752 C   0  0  0  0  0  0  0  0  0  0  0  0
   -2.1814    0.7128   -1.9918 O   0  0  0  0  0  0  0  0  0  0  0  0
    1.2737    0.5533   -2.1809 H   0  0  0  0  0  0  0  0  0  0  0  0
    2.7489   -0.5007   -1.9141 H   0  0  0  0  0  0  0  0  0  0  0  0
    2.6283    1.1538   -1.1421 H   0  0  0  0  0  0  0  0  0  0  0  0
    1.1831   -1.3685   -0.3061 H   0  0  0  0  0  0  0  0  0  0  0  0
    3.3469   -0.0300    0.6577 H   0  0  0  0  0  0  0  0  0  0  0  0
    2.0316   -0.7325    1.7521 H   0  0  0  0  0  0  0  0  0  0  0  0
    2.0470    1.0075    1.3282 H   0  0  0  0  0  0  0  0  0  0  0  0
   -0.8018   -1.3674   -0.1456 H   0  0  0  0  0  0  0  0  0  0  0  0
   -1.7507   -0.6848    1.9726 H   0  0  0  0  0  0  0  0  0  0  0  0
   -1.6025    1.1283    1.5340 H   0  0  0  0  0  0  0  0  0  0  0  0
   -3.7303    0.7579    0.4283 H   0  0  0  0  0  0  0  0  0  0  0  0
   -3.3556   -1.0754    0.2959 H   0  0  0  0  0  0  0  0  0  0  0  0
  1  2  1  0
  2  3  1  0
  2  4  1  0
  4  5  1  0
  5  6  1  0
  6  7  1  0
  7  8  1  0
  8  9  2  0
  8  5  1  0
  1 10  1  0
  1 11  1  0
  1 12  1  0
  2 13  1  0
  3 14  1  0
  3 15  1  0
  3 16  1  0
  5 17  1  0
  6 18  1  0
  6 19  1  0
  7 20  1  0
  7 21  1  0
M  END
