
     RDKit          3D

 23 23  0  0  0  0  0  0  0  0999 V2000
    1.9505    0.7087   -1.0256 C   0  0  0  0  0  0  0  0  0  0  0  0
    1.0681    0.4994    0.1610 C   0  0  0  0  0  0  0  0  0  0  0  0
    1.9351    0.1620    1.3457 C   0  0  0  0  0  0  0  0  0  0  0  0
    0.0684   -0.6134   -0.0324 C   0  0  0  0  0  0  0  0  0  0  0  0
   -0.7607   -0.7450    1.1967 C   0  0  0  0  0  0  0  0  0  0  0  0
   -2.0544   -0.6593    0.9107 C   0  0  0  0  0  0  0  0  0  0  0  0
   -2.2678   -0.4585   -0.5494 C   0  0  0  0  0  0  0  0  0  0  0  0
   -3.0533    0.6743   -0.7163 O   0  0  0  0  0  0  0  0  0  0  0  0
   -0.9042   -0.3230   -1.1453 C   0  0  0  0  0  0  0  0  0  0  0  0
    2.5702    1.6089   -0.8301 H   0  0  0  0  0  0  0  0  0  0  0  0
    2.6422   -0.1350   -1.2168 H   0  0  0  0  0  0  0  0  0  0  0  0
    1.3299    0.8653   -1.9305 H   0  0  0  0  0  0  0  0  0  0  0  0
    0.5252    1.4610    0.3432 H   0  0  0  0  0  0  0  0  0  0  0  0
    3.0137    0.3972    1.1565 H   0  0  0  0  0  0  0  0  0  0  0  0
    1.6499    0.7998    2.2156 H   0  0  0  0  0  0  0  0  0  0  0  0
    1.8616   -0.9064    1.6464 H   0  0  0  0  0  0  0  0  0  0  0  0
    0.6459   -1.5579   -0.2092 H   0  0  0  0  0  0  0  0  0  0  0  0
   -0.3592   -0.8915    2.1936 H   0  0  0  0  0  0  0  0  0  0  0  0
   -2.8922   -0.7206    1.6098 H   0  0  0  0  0  0  0  0  0  0  0  0
   -2.8477   -1.3117   -0.9724 H   0  0  0  0  0  0  0  0  0  0  0  0
   -2.5435    1.5128   -0.5804 H   0  0  0  0  0  0  0  0  0  0  0  0
   -0.8131   -1.0487   -1.9794 H   0  0  0  0  0  0  0  0  0  0  0  0
   -0.7648    0.6815   -1.5917 H   0  0  0  0  0  0  0  0  0  0  0  0
  1  2  1  0
  2  3  1  0
  2  4  1  0
  4  5  1  0
  5  6  2  0
  6  7  1  0
  7  8  1  0
  7  9  1  0
  9  4  1  0
  1 10  1  0
  1 11  1  0
  1 12  1  0
  2 13  1  0
  3 14  1  0
  3 15  1  0
  3 16  1  0
  4 17  1  0
  5 18  1  0
  6 19  1  0
  7 20  1  0
  8 21  1  0
  9 22  1  0
  9 23  1  0
M  END
