
     RDKit          3D

 21 21  0  0  0  0  0  0  0  0999 V2000
   -1.4777    0.0411    1.1524 C   0  0  0  0  0  0  0  0  0  0  0  0
   -0.6809   -0.3445   -0.0982 C   0  0  0  0  0  0  0  0  0  0  0  0
   -1.0220    0.6603   -1.1609 C   0  0  0  0  0  0  0  0  0  0  0  0
   -1.1148   -1.6998   -0.5411 C   0  0  0  0  0  0  0  0  0  0  0  0
   -1.2247   -2.6376    0.2325 O   0  0  0  0  0  0  0  0  0  0  0  0
    0.7616   -0.3058    0.2971 C   0  0  0  0  0  0  0  0  0  0  0  0
    1.2420    1.0378    0.7811 C   0  0  0  0  0  0  0  0  0  0  0  0
    1.8019    0.3688   -0.4580 C   0  0  0  0  0  0  0  0  0  0  0  0
    3.1263   -0.0736   -0.2720 O   0  0  0  0  0  0  0  0  0  0  0  0
   -1.4545   -0.8076    1.8718 H   0  0  0  0  0  0  0  0  0  0  0  0
   -0.9052    0.8638    1.6347 H   0  0  0  0  0  0  0  0  0  0  0  0
   -2.4781    0.3967    0.9208 H   0  0  0  0  0  0  0  0  0  0  0  0
   -1.0645    1.6841   -0.6988 H   0  0  0  0  0  0  0  0  0  0  0  0
   -0.3516    0.6202   -2.0367 H   0  0  0  0  0  0  0  0  0  0  0  0
   -2.0447    0.4606   -1.5273 H   0  0  0  0  0  0  0  0  0  0  0  0
   -1.3549   -1.9105   -1.5901 H   0  0  0  0  0  0  0  0  0  0  0  0
    1.0704   -1.1621    0.9494 H   0  0  0  0  0  0  0  0  0  0  0  0
    0.6350    1.9509    0.5398 H   0  0  0  0  0  0  0  0  0  0  0  0
    1.8219    1.0903    1.6982 H   0  0  0  0  0  0  0  0  0  0  0  0
    1.5940    0.8172   -1.4555 H   0  0  0  0  0  0  0  0  0  0  0  0
    3.1204   -1.0502   -0.2391 H   0  0  0  0  0  0  0  0  0  0  0  0
  1  2  1  0
  2  3  1  0
  2  4  1  0
  4  5  2  0
  2  6  1  0
  6  7  1  0
  7  8  1  0
  8  9  1  0
  8  6  1  0
  1 10  1  0
  1 11  1  0
  1 12  1  0
  3 13  1  0
  3 14  1  0
  3 15  1  0
  4 16  1  0
  6 17  1  0
  7 18  1  0
  7 19  1  0
  8 20  1  0
  9 21  1  0
M  END
