
     RDKit          3D

 21 21  0  0  0  0  0  0  0  0999 V2000
    0.5842    1.7355   -0.2317 C   0  0  0  0  0  0  0  0  0  0  0  0
    0.6783    0.3892    0.3927 C   0  0  0  0  0  0  0  0  0  0  0  0
    1.6667   -0.5063   -0.3510 C   0  0  0  0  0  0  0  0  0  0  0  0
    1.7055   -1.7268    0.2733 O   0  0  0  0  0  0  0  0  0  0  0  0
   -0.6085   -0.3425    0.5194 C   0  0  0  0  0  0  0  0  0  0  0  0
   -0.4299   -1.5854    1.1104 O   0  0  0  0  0  0  0  0  0  0  0  0
   -1.4836   -0.4387   -0.6779 C   0  0  0  0  0  0  0  0  0  0  0  0
   -2.5989   -0.3449    0.1867 O   0  0  0  0  0  0  0  0  0  0  0  0
   -1.7871    0.4040    1.0397 C   0  0  0  0  0  0  0  0  0  0  0  0
    1.3162    1.7728   -1.0909 H   0  0  0  0  0  0  0  0  0  0  0  0
   -0.3949    2.0084   -0.6298 H   0  0  0  0  0  0  0  0  0  0  0  0
    0.9575    2.5399    0.4659 H   0  0  0  0  0  0  0  0  0  0  0  0
    1.1064    0.5036    1.4232 H   0  0  0  0  0  0  0  0  0  0  0  0
    1.4244   -0.5566   -1.4314 H   0  0  0  0  0  0  0  0  0  0  0  0
    2.6536    0.0078   -0.2860 H   0  0  0  0  0  0  0  0  0  0  0  0
    2.5761   -2.1921    0.1411 H   0  0  0  0  0  0  0  0  0  0  0  0
   -0.5584   -2.2959    0.4309 H   0  0  0  0  0  0  0  0  0  0  0  0
   -1.5284   -1.4473   -1.1596 H   0  0  0  0  0  0  0  0  0  0  0  0
   -1.4192    0.4080   -1.3716 H   0  0  0  0  0  0  0  0  0  0  0  0
   -1.8283    1.4731    0.8245 H   0  0  0  0  0  0  0  0  0  0  0  0
   -2.0319    0.1944    2.1197 H   0  0  0  0  0  0  0  0  0  0  0  0
  1  2  1  0
  2  3  1  0
  3  4  1  0
  2  5  1  0
  5  6  1  0
  5  7  1  0
  7  8  1  0
  8  9  1  0
  9  5  1  0
  1 10  1  0
  1 11  1  0
  1 12  1  0
  2 13  1  0
  3 14  1  0
  3 15  1  0
  4 16  1  0
  6 17  1  0
  7 18  1  0
  7 19  1  0
  9 20  1  0
  9 21  1  0
M  END
