
     RDKit          3D

 21 21  0  0  0  0  0  0  0  0999 V2000
   -1.9548    0.5793   -0.7893 C   0  0  0  0  0  0  0  0  0  0  0  0
   -1.0793   -0.5265   -0.1916 C   0  0  0  0  0  0  0  0  0  0  0  0
   -1.3125   -0.5726    1.2752 C   0  0  0  0  0  0  0  0  0  0  0  0
    0.3312   -0.2317   -0.5912 C   0  0  0  0  0  0  0  0  0  0  0  0
    0.8425    1.0864   -0.1100 C   0  0  0  0  0  0  0  0  0  0  0  0
    2.2866    0.8284    0.1265 C   0  0  0  0  0  0  0  0  0  0  0  0
    2.5553   -0.4593    0.1113 C   0  0  0  0  0  0  0  0  0  0  0  0
    1.3119   -1.2182   -0.1390 C   0  0  0  0  0  0  0  0  0  0  0  0
    1.1317   -2.4570    0.0061 O   0  0  0  0  0  0  0  0  0  0  0  0
   -1.4597    1.0862   -1.6290 H   0  0  0  0  0  0  0  0  0  0  0  0
   -2.8907    0.0816   -1.1406 H   0  0  0  0  0  0  0  0  0  0  0  0
   -2.1536    1.3283    0.0044 H   0  0  0  0  0  0  0  0  0  0  0  0
   -1.3524   -1.5113   -0.6211 H   0  0  0  0  0  0  0  0  0  0  0  0
   -0.4510   -0.9287    1.8637 H   0  0  0  0  0  0  0  0  0  0  0  0
   -2.1607   -1.2651    1.4715 H   0  0  0  0  0  0  0  0  0  0  0  0
   -1.6637    0.4323    1.6087 H   0  0  0  0  0  0  0  0  0  0  0  0
    0.3629   -0.2108   -1.7061 H   0  0  0  0  0  0  0  0  0  0  0  0
    0.7914    1.8678   -0.9081 H   0  0  0  0  0  0  0  0  0  0  0  0
    0.3320    1.4097    0.8145 H   0  0  0  0  0  0  0  0  0  0  0  0
    3.0166    1.6085    0.2894 H   0  0  0  0  0  0  0  0  0  0  0  0
    3.5163   -0.9272    0.2546 H   0  0  0  0  0  0  0  0  0  0  0  0
  1  2  1  0
  2  3  1  0
  2  4  1  0
  4  5  1  0
  5  6  1  0
  6  7  2  0
  7  8  1  0
  8  9  2  0
  8  4  1  0
  1 10  1  0
  1 11  1  0
  1 12  1  0
  2 13  1  0
  3 14  1  0
  3 15  1  0
  3 16  1  0
  4 17  1  0
  5 18  1  0
  5 19  1  0
  6 20  1  0
  7 21  1  0
M  END
