
     RDKit          3D

 23 23  0  0  0  0  0  0  0  0999 V2000
   -2.4131   -0.9852   -0.6354 C   0  0  0  0  0  0  0  0  0  0  0  0
   -1.1560   -0.4399    0.0129 C   0  0  0  0  0  0  0  0  0  0  0  0
   -1.5344    0.7515    0.8572 C   0  0  0  0  0  0  0  0  0  0  0  0
   -0.1145   -0.0900   -1.0398 C   0  0  0  0  0  0  0  0  0  0  0  0
    1.0916    0.4363   -0.3452 C   0  0  0  0  0  0  0  0  0  0  0  0
    0.8520    1.5571    0.3990 O   0  0  0  0  0  0  0  0  0  0  0  0
    1.8795   -0.6166    0.4310 C   0  0  0  0  0  0  0  0  0  0  0  0
    3.0362    0.1236    0.0926 O   0  0  0  0  0  0  0  0  0  0  0  0
    2.3793    0.4061   -1.1276 C   0  0  0  0  0  0  0  0  0  0  0  0
   -2.9633   -1.6672    0.0421 H   0  0  0  0  0  0  0  0  0  0  0  0
   -3.0899   -0.1965   -0.9844 H   0  0  0  0  0  0  0  0  0  0  0  0
   -2.1075   -1.6038   -1.5251 H   0  0  0  0  0  0  0  0  0  0  0  0
   -0.7890   -1.2289    0.7072 H   0  0  0  0  0  0  0  0  0  0  0  0
   -1.4751    1.6853    0.2750 H   0  0  0  0  0  0  0  0  0  0  0  0
   -0.8858    0.8249    1.7705 H   0  0  0  0  0  0  0  0  0  0  0  0
   -2.5942    0.5832    1.1888 H   0  0  0  0  0  0  0  0  0  0  0  0
   -0.5588    0.7279   -1.6446 H   0  0  0  0  0  0  0  0  0  0  0  0
    0.0753   -0.9760   -1.6620 H   0  0  0  0  0  0  0  0  0  0  0  0
    1.6631    2.1126    0.4407 H   0  0  0  0  0  0  0  0  0  0  0  0
    1.9370   -1.5895   -0.0804 H   0  0  0  0  0  0  0  0  0  0  0  0
    1.6609   -0.6620    1.5019 H   0  0  0  0  0  0  0  0  0  0  0  0
    2.6905    1.3471   -1.5953 H   0  0  0  0  0  0  0  0  0  0  0  0
    2.4164   -0.5001   -1.7513 H   0  0  0  0  0  0  0  0  0  0  0  0
  1  2  1  0
  2  3  1  0
  2  4  1  0
  4  5  1  0
  5  6  1  0
  5  7  1  0
  7  8  1  0
  8  9  1  0
  9  5  1  0
  1 10  1  0
  1 11  1  0
  1 12  1  0
  2 13  1  0
  3 14  1  0
  3 15  1  0
  3 16  1  0
  4 17  1  0
  4 18  1  0
  6 19  1  0
  7 20  1  0
  7 21  1  0
  9 22  1  0
  9 23  1  0
M  END
