
     RDKit          3D

 21 22  0  0  0  0  0  0  0  0999 V2000
   -1.8320    1.3083   -0.2570 C   0  0  0  0  0  0  0  0  0  0  0  0
   -1.1797   -0.0297   -0.1850 C   0  0  0  0  0  0  0  0  0  0  0  0
   -2.1309   -1.0339    0.4360 C   0  0  0  0  0  0  0  0  0  0  0  0
    0.0909    0.0082    0.6721 C   0  0  0  0  0  0  0  0  0  0  0  0
    0.7171   -1.3177    0.7299 O   0  0  0  0  0  0  0  0  0  0  0  0
    1.3039   -0.2295    0.1649 C   0  0  0  0  0  0  0  0  0  0  0  0
    1.8799   -0.2106   -1.1981 C   0  0  0  0  0  0  0  0  0  0  0  0
    2.7958    0.7554   -0.7819 O   0  0  0  0  0  0  0  0  0  0  0  0
    2.6874    0.2076    0.5052 C   0  0  0  0  0  0  0  0  0  0  0  0
   -1.0778    2.1206   -0.2538 H   0  0  0  0  0  0  0  0  0  0  0  0
   -2.4727    1.3498   -1.1494 H   0  0  0  0  0  0  0  0  0  0  0  0
   -2.4851    1.4319    0.6444 H   0  0  0  0  0  0  0  0  0  0  0  0
   -0.8585   -0.3561   -1.1949 H   0  0  0  0  0  0  0  0  0  0  0  0
   -1.7176   -2.0556    0.3452 H   0  0  0  0  0  0  0  0  0  0  0  0
   -2.2036   -0.7919    1.5127 H   0  0  0  0  0  0  0  0  0  0  0  0
   -3.1173   -0.9488   -0.0873 H   0  0  0  0  0  0  0  0  0  0  0  0
   -0.1225    0.4448    1.6781 H   0  0  0  0  0  0  0  0  0  0  0  0
    1.1830    0.1269   -1.9909 H   0  0  0  0  0  0  0  0  0  0  0  0
    2.4196   -1.1363   -1.4943 H   0  0  0  0  0  0  0  0  0  0  0  0
    3.4375   -0.6062    0.6045 H   0  0  0  0  0  0  0  0  0  0  0  0
    2.6826    0.9628    1.3053 H   0  0  0  0  0  0  0  0  0  0  0  0
  1  2  1  0
  2  3  1  0
  2  4  1  0
  4  5  1  0
  5  6  1  0
  6  7  1  0
  7  8  1  0
  8  9  1  0
  6  4  1  0
  9  6  1  0
  1 10  1  0
  1 11  1  0
  1 12  1  0
  2 13  1  0
  3 14  1  0
  3 15  1  0
  3 16  1  0
  4 17  1  0
  7 18  1  0
  7 19  1  0
  9 20  1  0
  9 21  1  0
M  END
