
     RDKit          3D

 22 22  0  0  0  0  0  0  0  0999 V2000
   -0.5137   -0.0841    1.6974 C   0  0  0  0  0  0  0  0  0  0  0  0
   -0.4071   -0.2667    0.1967 C   0  0  0  0  0  0  0  0  0  0  0  0
   -1.1878   -1.4903   -0.2422 C   0  0  0  0  0  0  0  0  0  0  0  0
   -0.9433    0.9563   -0.5075 C   0  0  0  0  0  0  0  0  0  0  0  0
   -2.2792    1.1273   -0.1489 O   0  0  0  0  0  0  0  0  0  0  0  0
    1.0405   -0.5211   -0.1180 C   0  0  0  0  0  0  0  0  0  0  0  0
    2.0675    0.5002    0.2322 C   0  0  0  0  0  0  0  0  0  0  0  0
    1.7509    0.1297   -1.2161 C   0  0  0  0  0  0  0  0  0  0  0  0
   -1.4871    0.3317    2.0040 H   0  0  0  0  0  0  0  0  0  0  0  0
    0.3166    0.6222    1.9758 H   0  0  0  0  0  0  0  0  0  0  0  0
   -0.3123   -1.0624    2.2039 H   0  0  0  0  0  0  0  0  0  0  0  0
   -1.1767   -1.4684   -1.3656 H   0  0  0  0  0  0  0  0  0  0  0  0
   -2.2099   -1.5096    0.1520 H   0  0  0  0  0  0  0  0  0  0  0  0
   -0.5940   -2.3902    0.0310 H   0  0  0  0  0  0  0  0  0  0  0  0
   -0.4164    1.8808   -0.1991 H   0  0  0  0  0  0  0  0  0  0  0  0
   -0.8954    0.8950   -1.5907 H   0  0  0  0  0  0  0  0  0  0  0  0
   -2.6683    1.8137   -0.7526 H   0  0  0  0  0  0  0  0  0  0  0  0
    1.3308   -1.5936    0.0822 H   0  0  0  0  0  0  0  0  0  0  0  0
    1.7110    1.5195    0.5115 H   0  0  0  0  0  0  0  0  0  0  0  0
    3.0044    0.1465    0.6762 H   0  0  0  0  0  0  0  0  0  0  0  0
    1.3085    0.9047   -1.8688 H   0  0  0  0  0  0  0  0  0  0  0  0
    2.5609   -0.4413   -1.7534 H   0  0  0  0  0  0  0  0  0  0  0  0
  1  2  1  0
  2  3  1  0
  2  4  1  0
  4  5  1  0
  2  6  1  0
  6  7  1  0
  7  8  1  0
  8  6  1  0
  1  9  1  0
  1 10  1  0
  1 11  1  0
  3 12  1  0
  3 13  1  0
  3 14  1  0
  4 15  1  0
  4 16  1  0
  5 17  1  0
  6 18  1  0
  7 19  1  0
  7 20  1  0
  8 21  1  0
  8 22  1  0
M  END
