
     RDKit          3D

 25 26  0  0  0  0  0  0  0  0999 V2000
   -2.2339    0.6463   -0.8179 C   0  0  0  0  0  0  0  0  0  0  0  0
   -1.1718   -0.4106   -0.4712 C   0  0  0  0  0  0  0  0  0  0  0  0
   -1.9281   -1.4608    0.3547 C   0  0  0  0  0  0  0  0  0  0  0  0
   -0.1624    0.2056    0.3618 C   0  0  0  0  0  0  0  0  0  0  0  0
    0.6077    1.4020   -0.2281 C   0  0  0  0  0  0  0  0  0  0  0  0
    1.4337    1.1319    0.9969 C   0  0  0  0  0  0  0  0  0  0  0  0
    2.2825    0.0358    1.3253 C   0  0  0  0  0  0  0  0  0  0  0  0
    1.2251   -0.3407    0.4402 C   0  0  0  0  0  0  0  0  0  0  0  0
    1.7814   -0.6309   -0.9416 C   0  0  0  0  0  0  0  0  0  0  0  0
   -1.8609    1.2995   -1.6389 H   0  0  0  0  0  0  0  0  0  0  0  0
   -3.1504    0.1654   -1.1664 H   0  0  0  0  0  0  0  0  0  0  0  0
   -2.4776    1.2646    0.0621 H   0  0  0  0  0  0  0  0  0  0  0  0
   -0.9100   -0.8909   -1.4011 H   0  0  0  0  0  0  0  0  0  0  0  0
   -2.8030   -1.0155    0.8579 H   0  0  0  0  0  0  0  0  0  0  0  0
   -1.2560   -1.8856    1.1408 H   0  0  0  0  0  0  0  0  0  0  0  0
   -2.2521   -2.3119   -0.2777 H   0  0  0  0  0  0  0  0  0  0  0  0
   -0.5514    0.4929    1.3636 H   0  0  0  0  0  0  0  0  0  0  0  0
    0.0251    2.3214   -0.1905 H   0  0  0  0  0  0  0  0  0  0  0  0
    1.0485    1.2639   -1.1984 H   0  0  0  0  0  0  0  0  0  0  0  0
    0.7601    1.3810    1.8832 H   0  0  0  0  0  0  0  0  0  0  0  0
    2.2828   -0.5009    2.3232 H   0  0  0  0  0  0  0  0  0  0  0  0
    3.3673    0.1877    1.0327 H   0  0  0  0  0  0  0  0  0  0  0  0
    2.2281   -1.6687   -0.8504 H   0  0  0  0  0  0  0  0  0  0  0  0
    2.6429    0.0059   -1.2124 H   0  0  0  0  0  0  0  0  0  0  0  0
    1.0724   -0.6874   -1.7479 H   0  0  0  0  0  0  0  0  0  0  0  0
  1  2  1  0
  2  3  1  0
  2  4  1  0
  4  5  1  0
  5  6  1  0
  6  7  1  0
  7  8  1  0
  8  9  1  0
  8  4  1  0
  8  6  1  0
  1 10  1  0
  1 11  1  0
  1 12  1  0
  2 13  1  0
  3 14  1  0
  3 15  1  0
  3 16  1  0
  4 17  1  0
  5 18  1  0
  5 19  1  0
  6 20  1  0
  7 21  1  0
  7 22  1  0
  9 23  1  0
  9 24  1  0
  9 25  1  0
M  END
