
     RDKit          3D

 23 24  0  0  0  0  0  0  0  0999 V2000
   -1.5719   -0.2418    1.4127 C   0  0  0  0  0  0  0  0  0  0  0  0
   -1.1594   -0.5247   -0.0373 C   0  0  0  0  0  0  0  0  0  0  0  0
   -2.0230    0.4221   -0.8837 C   0  0  0  0  0  0  0  0  0  0  0  0
    0.2513   -0.1741   -0.2619 C   0  0  0  0  0  0  0  0  0  0  0  0
    0.8045   -0.3912   -1.6238 C   0  0  0  0  0  0  0  0  0  0  0  0
    1.3543   -1.0954   -0.4359 C   0  0  0  0  0  0  0  0  0  0  0  0
    2.1919   -0.2640    0.5383 C   0  0  0  0  0  0  0  0  0  0  0  0
    1.0236    0.7261    0.6490 C   0  0  0  0  0  0  0  0  0  0  0  0
    1.2774    1.9407   -0.0012 O   0  0  0  0  0  0  0  0  0  0  0  0
   -1.7080    0.8253    1.6043 H   0  0  0  0  0  0  0  0  0  0  0  0
   -0.7995   -0.7294    2.0369 H   0  0  0  0  0  0  0  0  0  0  0  0
   -2.5337   -0.8103    1.5612 H   0  0  0  0  0  0  0  0  0  0  0  0
   -1.4246   -1.5700   -0.2490 H   0  0  0  0  0  0  0  0  0  0  0  0
   -3.0879    0.2656   -0.6997 H   0  0  0  0  0  0  0  0  0  0  0  0
   -1.7212    0.2350   -1.9316 H   0  0  0  0  0  0  0  0  0  0  0  0
   -1.7017    1.4446   -0.5864 H   0  0  0  0  0  0  0  0  0  0  0  0
    1.2944    0.4860   -2.0703 H   0  0  0  0  0  0  0  0  0  0  0  0
    0.1954   -1.0505   -2.2995 H   0  0  0  0  0  0  0  0  0  0  0  0
    1.3187   -2.1795   -0.3245 H   0  0  0  0  0  0  0  0  0  0  0  0
    2.3852   -0.8169    1.4625 H   0  0  0  0  0  0  0  0  0  0  0  0
    3.0641    0.2244    0.0679 H   0  0  0  0  0  0  0  0  0  0  0  0
    0.5917    0.8087    1.6544 H   0  0  0  0  0  0  0  0  0  0  0  0
    1.9784    2.4692    0.4177 H   0  0  0  0  0  0  0  0  0  0  0  0
  1  2  1  0
  2  3  1  0
  2  4  1  0
  4  5  1  0
  5  6  1  0
  6  7  1  0
  7  8  1  0
  8  9  1  0
  6  4  1  0
  8  4  1  0
  1 10  1  0
  1 11  1  0
  1 12  1  0
  2 13  1  0
  3 14  1  0
  3 15  1  0
  3 16  1  0
  5 17  1  0
  5 18  1  0
  6 19  1  0
  7 20  1  0
  7 21  1  0
  8 22  1  0
  9 23  1  0
M  END
