
     RDKit          3D

 23 22  0  0  0  0  0  0  0  0999 V2000
   -1.6720    0.9953    0.8741 C   0  0  0  0  0  0  0  0  0  0  0  0
   -1.4496    0.8656   -0.8269 C   0  0  0  0  0  0  0  0  0  0  0  0
   -2.0033   -0.7949   -0.7670 C   0  0  0  0  0  0  0  0  0  0  0  0
   -0.4252    0.5647   -0.7213 O   0  0  0  0  0  0  0  0  0  0  0  0
    0.8702    0.1849   -0.5921 C   0  0  0  0  0  0  0  0  0  0  0  0
    1.5917    1.1144    0.5852 C   0  0  0  0  0  0  0  0  0  0  0  0
    0.9118   -1.1630    0.0130 C   0  0  0  0  0  0  0  0  0  0  0  0
    2.3362   -1.1584    0.2499 C   0  0  0  0  0  0  0  0  0  0  0  0
    3.2349   -1.1713   -0.5380 O   0  0  0  0  0  0  0  0  0  0  0  0
   -1.1003    0.2067    1.2086 H   0  0  0  0  0  0  0  0  0  0  0  0
   -2.7345    0.8300    0.7981 H   0  0  0  0  0  0  0  0  0  0  0  0
   -1.2761    1.9933    0.8699 H   0  0  0  0  0  0  0  0  0  0  0  0
   -2.4555    1.1795   -1.0088 H   0  0  0  0  0  0  0  0  0  0  0  0
   -1.4105   -1.3403   -1.4905 H   0  0  0  0  0  0  0  0  0  0  0  0
   -2.9578   -0.7165   -1.0428 H   0  0  0  0  0  0  0  0  0  0  0  0
   -1.8533   -1.0696    0.2331 H   0  0  0  0  0  0  0  0  0  0  0  0
    1.4234    0.1546   -1.3599 H   0  0  0  0  0  0  0  0  0  0  0  0
    0.8576    1.0983    1.4014 H   0  0  0  0  0  0  0  0  0  0  0  0
    2.5023    0.6953    0.9272 H   0  0  0  0  0  0  0  0  0  0  0  0
    1.7014    2.1271    0.2469 H   0  0  0  0  0  0  0  0  0  0  0  0
    0.8897   -1.7787   -1.0836 H   0  0  0  0  0  0  0  0  0  0  0  0
    0.3892   -1.6145    0.6144 H   0  0  0  0  0  0  0  0  0  0  0  0
    2.6296   -1.2025    1.4094 H   0  0  0  0  0  0  0  0  0  0  0  0
  1  2  1  0
  2  3  1  0
  2  4  1  0
  4  5  1  0
  5  6  1  0
  5  7  1  0
  7  8  1  0
  8  9  2  0
  1 10  1  0
  1 11  1  0
  1 12  1  0
  2 13  1  0
  3 14  1  0
  3 15  1  0
  3 16  1  0
  5 17  1  0
  6 18  1  0
  6 19  1  0
  6 20  1  0
  7 21  1  0
  7 22  1  0
  8 23  1  0
M  END
