
     RDKit          3D

 19 19  0  0  0  0  0  0  0  0999 V2000
   -2.2645   -0.2092   -0.8574 C   0  0  0  0  0  0  0  0  0  0  0  0
   -1.2813    0.1535    0.2458 C   0  0  0  0  0  0  0  0  0  0  0  0
   -1.5695    1.5642    0.6201 C   0  0  0  0  0  0  0  0  0  0  0  0
   -1.7712    2.3444   -0.2970 O   0  0  0  0  0  0  0  0  0  0  0  0
    0.1475    0.0473   -0.2286 C   0  0  0  0  0  0  0  0  0  0  0  0
    0.4400   -1.3241   -0.6638 O   0  0  0  0  0  0  0  0  0  0  0  0
    1.0605   -0.8148    0.4945 C   0  0  0  0  0  0  0  0  0  0  0  0
    2.5478   -0.7439    0.3770 C   0  0  0  0  0  0  0  0  0  0  0  0
    2.9425    0.0906   -0.6913 O   0  0  0  0  0  0  0  0  0  0  0  0
   -3.0798    0.5368   -0.9490 H   0  0  0  0  0  0  0  0  0  0  0  0
   -2.7441   -1.1901   -0.6891 H   0  0  0  0  0  0  0  0  0  0  0  0
   -1.6889   -0.1946   -1.8069 H   0  0  0  0  0  0  0  0  0  0  0  0
   -1.4932   -0.4904    1.1132 H   0  0  0  0  0  0  0  0  0  0  0  0
   -1.5956    1.8682    1.6571 H   0  0  0  0  0  0  0  0  0  0  0  0
    0.5454    0.8279   -0.8994 H   0  0  0  0  0  0  0  0  0  0  0  0
    0.7046   -1.2147    1.4786 H   0  0  0  0  0  0  0  0  0  0  0  0
    3.0554   -0.4758    1.3182 H   0  0  0  0  0  0  0  0  0  0  0  0
    2.8992   -1.7743    0.0759 H   0  0  0  0  0  0  0  0  0  0  0  0
    3.1450    0.9991   -0.2980 H   0  0  0  0  0  0  0  0  0  0  0  0
  1  2  1  0
  2  3  1  0
  3  4  2  0
  2  5  1  0
  5  6  1  0
  6  7  1  0
  7  8  1  0
  8  9  1  0
  7  5  1  0
  1 10  1  0
  1 11  1  0
  1 12  1  0
  2 13  1  0
  3 14  1  0
  5 15  1  0
  7 16  1  0
  8 17  1  0
  8 18  1  0
  9 19  1  0
M  END
