
     RDKit          3D

 23 23  0  0  0  0  0  0  0  0999 V2000
    1.0694    0.8105    0.9824 C   0  0  0  0  0  0  0  0  0  0  0  0
    0.9251   -0.4397    0.1581 C   0  0  0  0  0  0  0  0  0  0  0  0
    1.8805   -0.5020   -0.9934 C   0  0  0  0  0  0  0  0  0  0  0  0
    3.1866   -0.4594   -0.4527 O   0  0  0  0  0  0  0  0  0  0  0  0
   -0.4998   -0.6875   -0.2664 C   0  0  0  0  0  0  0  0  0  0  0  0
   -1.4055   -0.8397    0.9060 C   0  0  0  0  0  0  0  0  0  0  0  0
   -2.4159    0.2681    0.8247 C   0  0  0  0  0  0  0  0  0  0  0  0
   -2.2334    0.9653   -0.2831 C   0  0  0  0  0  0  0  0  0  0  0  0
   -1.0928    0.4160   -1.0687 C   0  0  0  0  0  0  0  0  0  0  0  0
    1.0724    0.6061    2.0711 H   0  0  0  0  0  0  0  0  0  0  0  0
    2.0666    1.2400    0.7482 H   0  0  0  0  0  0  0  0  0  0  0  0
    0.3200    1.5869    0.7449 H   0  0  0  0  0  0  0  0  0  0  0  0
    1.1965   -1.2964    0.8432 H   0  0  0  0  0  0  0  0  0  0  0  0
    1.7878   -1.4959   -1.4637 H   0  0  0  0  0  0  0  0  0  0  0  0
    1.7890    0.3202   -1.7034 H   0  0  0  0  0  0  0  0  0  0  0  0
    3.6462    0.3845   -0.6879 H   0  0  0  0  0  0  0  0  0  0  0  0
   -0.4921   -1.6588   -0.8317 H   0  0  0  0  0  0  0  0  0  0  0  0
   -1.9692   -1.8115    0.8730 H   0  0  0  0  0  0  0  0  0  0  0  0
   -0.9049   -0.7886    1.8780 H   0  0  0  0  0  0  0  0  0  0  0  0
   -3.1533    0.3988    1.6135 H   0  0  0  0  0  0  0  0  0  0  0  0
   -2.8445    1.8147   -0.5565 H   0  0  0  0  0  0  0  0  0  0  0  0
   -0.3714    1.2118   -1.3470 H   0  0  0  0  0  0  0  0  0  0  0  0
   -1.5575   -0.0435   -1.9884 H   0  0  0  0  0  0  0  0  0  0  0  0
  1  2  1  0
  2  3  1  0
  3  4  1  0
  2  5  1  0
  5  6  1  0
  6  7  1  0
  7  8  2  0
  8  9  1  0
  9  5  1  0
  1 10  1  0
  1 11  1  0
  1 12  1  0
  2 13  1  0
  3 14  1  0
  3 15  1  0
  4 16  1  0
  5 17  1  0
  6 18  1  0
  6 19  1  0
  7 20  1  0
  8 21  1  0
  9 22  1  0
  9 23  1  0
M  END
