
     RDKit          3D

 21 21  0  0  0  0  0  0  0  0999 V2000
    0.2809   -1.6675   -1.0332 C   0  0  0  0  0  0  0  0  0  0  0  0
    0.4163   -0.2043   -0.6409 C   0  0  0  0  0  0  0  0  0  0  0  0
    1.7393   -0.0887    0.0458 C   0  0  0  0  0  0  0  0  0  0  0  0
    2.0591    1.2781    0.5087 C   0  0  0  0  0  0  0  0  0  0  0  0
    3.1262    1.4372    1.0779 O   0  0  0  0  0  0  0  0  0  0  0  0
   -0.7634    0.1211    0.2126 C   0  0  0  0  0  0  0  0  0  0  0  0
   -0.8593   -0.6437    1.3757 O   0  0  0  0  0  0  0  0  0  0  0  0
   -2.0579    0.3015   -0.5837 C   0  0  0  0  0  0  0  0  0  0  0  0
   -1.4486    1.4217    0.1960 C   0  0  0  0  0  0  0  0  0  0  0  0
    0.4300   -2.2422   -0.0750 H   0  0  0  0  0  0  0  0  0  0  0  0
   -0.7175   -1.9225   -1.3954 H   0  0  0  0  0  0  0  0  0  0  0  0
    1.1019   -1.8968   -1.7369 H   0  0  0  0  0  0  0  0  0  0  0  0
    0.4338    0.3657   -1.5948 H   0  0  0  0  0  0  0  0  0  0  0  0
    1.7729   -0.8343    0.8606 H   0  0  0  0  0  0  0  0  0  0  0  0
    2.5197   -0.3733   -0.6922 H   0  0  0  0  0  0  0  0  0  0  0  0
    1.4309    2.1375    0.3849 H   0  0  0  0  0  0  0  0  0  0  0  0
   -1.4587   -1.3962    1.1597 H   0  0  0  0  0  0  0  0  0  0  0  0
   -2.9686   -0.2067   -0.2361 H   0  0  0  0  0  0  0  0  0  0  0  0
   -1.9849    0.4052   -1.6857 H   0  0  0  0  0  0  0  0  0  0  0  0
   -1.0323    2.3127   -0.3160 H   0  0  0  0  0  0  0  0  0  0  0  0
   -2.0198    1.6958    1.1095 H   0  0  0  0  0  0  0  0  0  0  0  0
  1  2  1  0
  2  3  1  0
  3  4  1  0
  4  5  2  0
  2  6  1  0
  6  7  1  0
  6  8  1  0
  8  9  1  0
  9  6  1  0
  1 10  1  0
  1 11  1  0
  1 12  1  0
  2 13  1  0
  3 14  1  0
  3 15  1  0
  4 16  1  0
  7 17  1  0
  8 18  1  0
  8 19  1  0
  9 20  1  0
  9 21  1  0
M  END
