
     RDKit          3D

 23 22  0  0  0  0  0  0  0  0999 V2000
   -3.0531    0.1756    0.9781 C   0  0  0  0  0  0  0  0  0  0  0  0
   -1.8932   -0.3621    0.1886 C   0  0  0  0  0  0  0  0  0  0  0  0
   -2.1516   -0.2969   -1.2849 C   0  0  0  0  0  0  0  0  0  0  0  0
   -0.5783    0.2673    0.5869 C   0  0  0  0  0  0  0  0  0  0  0  0
    0.4285   -0.2695   -0.1714 O   0  0  0  0  0  0  0  0  0  0  0  0
    1.6684    0.2652    0.1428 C   0  0  0  0  0  0  0  0  0  0  0  0
    2.7692   -0.3396   -0.7051 C   0  0  0  0  0  0  0  0  0  0  0  0
    4.0971    0.2308   -0.3713 C   0  0  0  0  0  0  0  0  0  0  0  0
    4.2821    1.0777    0.4761 O   0  0  0  0  0  0  0  0  0  0  0  0
   -2.8567   -0.0696    2.0541 H   0  0  0  0  0  0  0  0  0  0  0  0
   -3.9505   -0.3895    0.6819 H   0  0  0  0  0  0  0  0  0  0  0  0
   -3.1555    1.2725    0.8693 H   0  0  0  0  0  0  0  0  0  0  0  0
   -1.7996   -1.4547    0.4525 H   0  0  0  0  0  0  0  0  0  0  0  0
   -2.5093    0.6737   -1.6425 H   0  0  0  0  0  0  0  0  0  0  0  0
   -1.2304   -0.6482   -1.8194 H   0  0  0  0  0  0  0  0  0  0  0  0
   -2.9178   -1.0978   -1.5098 H   0  0  0  0  0  0  0  0  0  0  0  0
   -0.3961   -0.0215    1.6556 H   0  0  0  0  0  0  0  0  0  0  0  0
   -0.6148    1.3685    0.5775 H   0  0  0  0  0  0  0  0  0  0  0  0
    1.8555    0.0332    1.2112 H   0  0  0  0  0  0  0  0  0  0  0  0
    1.6246    1.3625    0.0484 H   0  0  0  0  0  0  0  0  0  0  0  0
    2.6069   -0.2054   -1.7736 H   0  0  0  0  0  0  0  0  0  0  0  0
    2.8312   -1.4292   -0.4914 H   0  0  0  0  0  0  0  0  0  0  0  0
    4.9432   -0.1432   -0.9282 H   0  0  0  0  0  0  0  0  0  0  0  0
  1  2  1  0
  2  3  1  0
  2  4  1  0
  4  5  1  0
  5  6  1  0
  6  7  1  0
  7  8  1  0
  8  9  2  0
  1 10  1  0
  1 11  1  0
  1 12  1  0
  2 13  1  0
  3 14  1  0
  3 15  1  0
  3 16  1  0
  4 17  1  0
  4 18  1  0
  6 19  1  0
  6 20  1  0
  7 21  1  0
  7 22  1  0
  8 23  1  0
M  END
