
     RDKit          3D

 21 21  0  0  0  0  0  0  0  0999 V2000
   -3.1877    0.2234   -0.2384 C   0  0  0  0  0  0  0  0  0  0  0  0
   -1.7843   -0.2493    0.0733 C   0  0  0  0  0  0  0  0  0  0  0  0
   -1.4357   -1.4091   -0.8506 C   0  0  0  0  0  0  0  0  0  0  0  0
   -0.8501    0.9172   -0.2692 C   0  0  0  0  0  0  0  0  0  0  0  0
    0.5438    0.5318    0.0092 C   0  0  0  0  0  0  0  0  0  0  0  0
    1.6883    0.2000    0.2541 C   0  0  0  0  0  0  0  0  0  0  0  0
    3.0701   -0.1797    0.5647 C   0  0  0  0  0  0  0  0  0  0  0  0
    4.1377    0.5172   -0.0228 C   0  0  0  0  0  0  0  0  0  0  0  0
    3.7738    0.8445    1.3926 O   0  0  0  0  0  0  0  0  0  0  0  0
   -3.1546    0.9904   -1.0111 H   0  0  0  0  0  0  0  0  0  0  0  0
   -3.7828   -0.6723   -0.5339 H   0  0  0  0  0  0  0  0  0  0  0  0
   -3.6291    0.5714    0.7242 H   0  0  0  0  0  0  0  0  0  0  0  0
   -1.6906   -0.5399    1.1210 H   0  0  0  0  0  0  0  0  0  0  0  0
   -0.4956   -1.8519   -0.4668 H   0  0  0  0  0  0  0  0  0  0  0  0
   -1.2770   -1.0839   -1.8815 H   0  0  0  0  0  0  0  0  0  0  0  0
   -2.2726   -2.1273   -0.7717 H   0  0  0  0  0  0  0  0  0  0  0  0
   -0.8926    1.1460   -1.3491 H   0  0  0  0  0  0  0  0  0  0  0  0
   -1.1771    1.7770    0.3488 H   0  0  0  0  0  0  0  0  0  0  0  0
    3.2357   -1.1777    1.0451 H   0  0  0  0  0  0  0  0  0  0  0  0
    3.9910    1.4191   -0.6372 H   0  0  0  0  0  0  0  0  0  0  0  0
    5.1894    0.1530    0.0179 H   0  0  0  0  0  0  0  0  0  0  0  0
  1  2  1  0
  2  3  1  0
  2  4  1  0
  4  5  1  0
  5  6  3  0
  6  7  1  0
  7  8  1  0
  8  9  1  0
  9  7  1  0
  1 10  1  0
  1 11  1  0
  1 12  1  0
  2 13  1  0
  3 14  1  0
  3 15  1  0
  3 16  1  0
  4 17  1  0
  4 18  1  0
  7 19  1  0
  8 20  1  0
  8 21  1  0
M  END
