
     RDKit          3D

 23 23  0  0  0  0  0  0  0  0999 V2000
   -1.3452    0.6620   -1.2472 C   0  0  0  0  0  0  0  0  0  0  0  0
   -1.0457    0.3265    0.1696 C   0  0  0  0  0  0  0  0  0  0  0  0
   -2.0377   -0.6630    0.7454 C   0  0  0  0  0  0  0  0  0  0  0  0
   -1.2192    1.5173    0.9193 O   0  0  0  0  0  0  0  0  0  0  0  0
    0.3420   -0.1358    0.4335 C   0  0  0  0  0  0  0  0  0  0  0  0
    1.4613    0.8139    0.0972 C   0  0  0  0  0  0  0  0  0  0  0  0
    2.2759   -0.4562   -0.1903 C   0  0  0  0  0  0  0  0  0  0  0  0
    2.7215   -0.9675    1.0338 O   0  0  0  0  0  0  0  0  0  0  0  0
    0.9495   -1.0476   -0.6314 C   0  0  0  0  0  0  0  0  0  0  0  0
   -2.0714    1.5220   -1.3453 H   0  0  0  0  0  0  0  0  0  0  0  0
   -1.8690   -0.2007   -1.7146 H   0  0  0  0  0  0  0  0  0  0  0  0
   -0.4611    0.9704   -1.8392 H   0  0  0  0  0  0  0  0  0  0  0  0
   -2.4670   -0.3408    1.7039 H   0  0  0  0  0  0  0  0  0  0  0  0
   -1.5904   -1.6610    0.9096 H   0  0  0  0  0  0  0  0  0  0  0  0
   -2.9064   -0.7337    0.0318 H   0  0  0  0  0  0  0  0  0  0  0  0
   -2.2129    1.5985    1.0112 H   0  0  0  0  0  0  0  0  0  0  0  0
    0.5220   -0.5940    1.4249 H   0  0  0  0  0  0  0  0  0  0  0  0
    1.3400    1.3421   -0.8804 H   0  0  0  0  0  0  0  0  0  0  0  0
    1.8527    1.4183    0.9212 H   0  0  0  0  0  0  0  0  0  0  0  0
    3.0334   -0.3391   -0.9678 H   0  0  0  0  0  0  0  0  0  0  0  0
    3.1998   -0.2245    1.5149 H   0  0  0  0  0  0  0  0  0  0  0  0
    0.8172   -2.1171   -0.4464 H   0  0  0  0  0  0  0  0  0  0  0  0
    0.7106   -0.6903   -1.6540 H   0  0  0  0  0  0  0  0  0  0  0  0
  1  2  1  0
  2  3  1  0
  2  4  1  0
  2  5  1  0
  5  6  1  0
  6  7  1  0
  7  8  1  0
  7  9  1  0
  9  5  1  0
  1 10  1  0
  1 11  1  0
  1 12  1  0
  3 13  1  0
  3 14  1  0
  3 15  1  0
  4 16  1  0
  5 17  1  0
  6 18  1  0
  6 19  1  0
  7 20  1  0
  8 21  1  0
  9 22  1  0
  9 23  1  0
M  END
