
     RDKit          3D

 25 25  0  0  0  0  0  0  0  0999 V2000
   -2.0601   -1.1836    0.8181 C   0  0  0  0  0  0  0  0  0  0  0  0
   -1.6973   -0.5813   -0.5300 C   0  0  0  0  0  0  0  0  0  0  0  0
   -2.2564    0.7989   -0.6977 C   0  0  0  0  0  0  0  0  0  0  0  0
   -0.2417   -0.7082   -0.8373 C   0  0  0  0  0  0  0  0  0  0  0  0
    0.6683   -0.0376    0.1491 C   0  0  0  0  0  0  0  0  0  0  0  0
    0.5646    1.4371    0.3819 C   0  0  0  0  0  0  0  0  0  0  0  0
    1.1512   -0.7546    1.2366 O   0  0  0  0  0  0  0  0  0  0  0  0
    2.0605   -0.6644    0.2036 C   0  0  0  0  0  0  0  0  0  0  0  0
    3.2341    0.2755    0.2966 C   0  0  0  0  0  0  0  0  0  0  0  0
   -1.2361   -1.8069    1.2307 H   0  0  0  0  0  0  0  0  0  0  0  0
   -2.9720   -1.8333    0.7459 H   0  0  0  0  0  0  0  0  0  0  0  0
   -2.3185   -0.3666    1.5414 H   0  0  0  0  0  0  0  0  0  0  0  0
   -2.2273   -1.2257   -1.2942 H   0  0  0  0  0  0  0  0  0  0  0  0
   -2.1048    1.4461    0.1683 H   0  0  0  0  0  0  0  0  0  0  0  0
   -3.3583    0.6862   -0.9198 H   0  0  0  0  0  0  0  0  0  0  0  0
   -1.8320    1.2059   -1.6487 H   0  0  0  0  0  0  0  0  0  0  0  0
   -0.0747   -0.2098   -1.8250 H   0  0  0  0  0  0  0  0  0  0  0  0
    0.0019   -1.7712   -0.9932 H   0  0  0  0  0  0  0  0  0  0  0  0
    0.1421    1.9470   -0.5064 H   0  0  0  0  0  0  0  0  0  0  0  0
    1.5993    1.8260    0.6135 H   0  0  0  0  0  0  0  0  0  0  0  0
   -0.0152    1.6772    1.3207 H   0  0  0  0  0  0  0  0  0  0  0  0
    2.2320   -1.6241   -0.3239 H   0  0  0  0  0  0  0  0  0  0  0  0
    3.4106    0.6613    1.3168 H   0  0  0  0  0  0  0  0  0  0  0  0
    3.1684    1.0956   -0.4662 H   0  0  0  0  0  0  0  0  0  0  0  0
    4.1613   -0.2895    0.0192 H   0  0  0  0  0  0  0  0  0  0  0  0
  1  2  1  0
  2  3  1  0
  2  4  1  0
  4  5  1  0
  5  6  1  0
  5  7  1  0
  7  8  1  0
  8  9  1  0
  8  5  1  0
  1 10  1  0
  1 11  1  0
  1 12  1  0
  2 13  1  0
  3 14  1  0
  3 15  1  0
  3 16  1  0
  4 17  1  0
  4 18  1  0
  6 19  1  0
  6 20  1  0
  6 21  1  0
  8 22  1  0
  9 23  1  0
  9 24  1  0
  9 25  1  0
M  END
