
     RDKit          3D

 19 19  0  0  0  0  0  0  0  0999 V2000
   -1.0186   -1.5399    0.5531 C   0  0  0  0  0  0  0  0  0  0  0  0
   -0.2372   -0.5827   -0.3580 C   0  0  0  0  0  0  0  0  0  0  0  0
   -1.1751    0.2533   -1.1153 C   0  0  0  0  0  0  0  0  0  0  0  0
   -1.1829    0.2257   -2.3637 O   0  0  0  0  0  0  0  0  0  0  0  0
   -2.1052    1.1220   -0.4395 C   0  0  0  0  0  0  0  0  0  0  0  0
   -2.0975    1.1496    0.8150 O   0  0  0  0  0  0  0  0  0  0  0  0
    0.7271    0.1939    0.4881 C   0  0  0  0  0  0  0  0  0  0  0  0
    1.6354    1.2020   -0.0617 C   0  0  0  0  0  0  0  0  0  0  0  0
    2.2021   -0.1074    0.3502 C   0  0  0  0  0  0  0  0  0  0  0  0
   -1.4256   -1.0025    1.4325 H   0  0  0  0  0  0  0  0  0  0  0  0
   -0.2926   -2.3257    0.8508 H   0  0  0  0  0  0  0  0  0  0  0  0
   -1.8169   -2.0306   -0.0129 H   0  0  0  0  0  0  0  0  0  0  0  0
    0.3618   -1.2538   -1.0214 H   0  0  0  0  0  0  0  0  0  0  0  0
   -2.8199    1.7613   -0.9400 H   0  0  0  0  0  0  0  0  0  0  0  0
    0.3443    0.3952    1.5281 H   0  0  0  0  0  0  0  0  0  0  0  0
    1.6493    1.4742   -1.1432 H   0  0  0  0  0  0  0  0  0  0  0  0
    1.9419    2.0534    0.5810 H   0  0  0  0  0  0  0  0  0  0  0  0
    2.5614   -0.7599   -0.4494 H   0  0  0  0  0  0  0  0  0  0  0  0
    2.7481   -0.2281    1.3064 H   0  0  0  0  0  0  0  0  0  0  0  0
  1  2  1  0
  2  3  1  0
  3  4  2  0
  3  5  1  0
  5  6  2  0
  2  7  1  0
  7  8  1  0
  8  9  1  0
  9  7  1  0
  1 10  1  0
  1 11  1  0
  1 12  1  0
  2 13  1  0
  5 14  1  0
  7 15  1  0
  8 16  1  0
  8 17  1  0
  9 18  1  0
  9 19  1  0
M  END
