
     RDKit          3D

 20 19  0  0  0  0  0  0  0  0999 V2000
    1.2354   -1.0011    0.6965 C   0  0  0  0  0  0  0  0  0  0  0  0
    0.7205   -0.2915   -0.5597 C   0  0  0  0  0  0  0  0  0  0  0  0
    1.7476    0.6330   -1.0663 C   0  0  0  0  0  0  0  0  0  0  0  0
   -0.6084    0.2904   -0.2285 C   0  0  0  0  0  0  0  0  0  0  0  0
   -0.6485    1.2764    0.8688 C   0  0  0  0  0  0  0  0  0  0  0  0
   -1.4698   -0.7909    0.1251 O   0  0  0  0  0  0  0  0  0  0  0  0
   -2.5839   -1.0745   -0.6522 C   0  0  0  0  0  0  0  0  0  0  0  0
   -2.7730   -0.3303   -1.6617 O   0  0  0  0  0  0  0  0  0  0  0  0
    2.1734   -1.5422    0.5033 H   0  0  0  0  0  0  0  0  0  0  0  0
    0.4464   -1.7623    0.9380 H   0  0  0  0  0  0  0  0  0  0  0  0
    1.2846   -0.3173    1.5551 H   0  0  0  0  0  0  0  0  0  0  0  0
    0.5626   -1.1003   -1.3055 H   0  0  0  0  0  0  0  0  0  0  0  0
    1.7017    0.6973   -2.1885 H   0  0  0  0  0  0  0  0  0  0  0  0
    1.7748    1.6324   -0.6368 H   0  0  0  0  0  0  0  0  0  0  0  0
    2.7584    0.1747   -0.8473 H   0  0  0  0  0  0  0  0  0  0  0  0
   -1.0020    0.7807   -1.1570 H   0  0  0  0  0  0  0  0  0  0  0  0
    0.1478    2.0407    0.8573 H   0  0  0  0  0  0  0  0  0  0  0  0
   -0.6215    0.7427    1.8503 H   0  0  0  0  0  0  0  0  0  0  0  0
   -1.6112    1.8297    0.8170 H   0  0  0  0  0  0  0  0  0  0  0  0
   -3.2350   -1.8876   -0.3896 H   0  0  0  0  0  0  0  0  0  0  0  0
  1  2  1  0
  2  3  1  0
  2  4  1  0
  4  5  1  0
  4  6  1  0
  6  7  1  0
  7  8  2  0
  1  9  1  0
  1 10  1  0
  1 11  1  0
  2 12  1  0
  3 13  1  0
  3 14  1  0
  3 15  1  0
  4 16  1  0
  5 17  1  0
  5 18  1  0
  5 19  1  0
  7 20  1  0
M  END
