
     RDKit          3D

 21 21  0  0  0  0  0  0  0  0999 V2000
   -1.1412    0.0547   -2.4695 C   0  0  0  0  0  0  0  0  0  0  0  0
   -1.5877   -0.0886   -0.9220 C   0  0  0  0  0  0  0  0  0  0  0  0
   -2.7343    0.7898   -0.8350 C   0  0  0  0  0  0  0  0  0  0  0  0
   -0.6299   -0.2434   -0.1552 C   0  0  0  0  0  0  0  0  0  0  0  0
    0.4291   -0.4074    0.7201 C   0  0  0  0  0  0  0  0  0  0  0  0
    1.3864   -0.5612    1.5011 C   0  0  0  0  0  0  0  0  0  0  0  0
    2.2160   -1.8483    0.9215 O   0  0  0  0  0  0  0  0  0  0  0  0
    2.5332    0.5382    1.6206 C   0  0  0  0  0  0  0  0  0  0  0  0
    2.0324   -0.3563    2.7438 C   0  0  0  0  0  0  0  0  0  0  0  0
   -0.1753    0.5524   -2.4015 H   0  0  0  0  0  0  0  0  0  0  0  0
   -1.9173    0.8436   -2.8860 H   0  0  0  0  0  0  0  0  0  0  0  0
   -1.2827   -0.8398   -3.0812 H   0  0  0  0  0  0  0  0  0  0  0  0
   -2.1110   -1.2574   -1.1760 H   0  0  0  0  0  0  0  0  0  0  0  0
   -3.1011    0.8873   -2.0008 H   0  0  0  0  0  0  0  0  0  0  0  0
   -2.4868    1.8676   -0.5456 H   0  0  0  0  0  0  0  0  0  0  0  0
   -3.6848    0.4564   -0.3649 H   0  0  0  0  0  0  0  0  0  0  0  0
    2.3474   -1.4928   -0.0451 H   0  0  0  0  0  0  0  0  0  0  0  0
    2.1127    1.5961    1.5920 H   0  0  0  0  0  0  0  0  0  0  0  0
    3.4290    0.3643    1.0341 H   0  0  0  0  0  0  0  0  0  0  0  0
    1.5004    0.1714    3.5670 H   0  0  0  0  0  0  0  0  0  0  0  0
    2.8657   -1.0265    3.1826 H   0  0  0  0  0  0  0  0  0  0  0  0
  1  2  1  0
  2  3  1  0
  2  4  1  0
  4  5  3  0
  5  6  1  0
  6  7  1  0
  6  8  1  0
  8  9  1  0
  9  6  1  0
  1 10  1  0
  1 11  1  0
  1 12  1  0
  2 13  1  0
  3 14  1  0
  3 15  1  0
  3 16  1  0
  7 17  1  0
  8 18  1  0
  8 19  1  0
  9 20  1  0
  9 21  1  0
M  END
