
     RDKit          3D

 25 24  0  0  0  0  0  0  0  0999 V2000
   -1.2974    0.8992    1.3672 C   0  0  0  0  0  0  0  0  0  0  0  0
   -1.1739   -0.0187    0.2135 C   0  0  0  0  0  0  0  0  0  0  0  0
   -2.5326   -0.0803   -0.4589 C   0  0  0  0  0  0  0  0  0  0  0  0
   -0.0831    0.3239   -0.7637 C   0  0  0  0  0  0  0  0  0  0  0  0
   -0.0557   -0.6829   -1.8946 C   0  0  0  0  0  0  0  0  0  0  0  0
    1.2495    0.5427   -0.1390 C   0  0  0  0  0  0  0  0  0  0  0  0
    1.7804   -0.6511    0.6122 C   0  0  0  0  0  0  0  0  0  0  0  0
    3.1055   -0.3485    1.2002 C   0  0  0  0  0  0  0  0  0  0  0  0
    3.6063    0.7405    1.0401 O   0  0  0  0  0  0  0  0  0  0  0  0
   -2.0958    1.6837    1.2202 H   0  0  0  0  0  0  0  0  0  0  0  0
   -1.6684    0.3162    2.2617 H   0  0  0  0  0  0  0  0  0  0  0  0
   -0.4053    1.4184    1.6846 H   0  0  0  0  0  0  0  0  0  0  0  0
   -0.9712   -1.0632    0.5868 H   0  0  0  0  0  0  0  0  0  0  0  0
   -3.2638   -0.4987    0.2641 H   0  0  0  0  0  0  0  0  0  0  0  0
   -2.8441    0.9608   -0.7646 H   0  0  0  0  0  0  0  0  0  0  0  0
   -2.4808   -0.6701   -1.3943 H   0  0  0  0  0  0  0  0  0  0  0  0
   -0.3963    1.2887   -1.2341 H   0  0  0  0  0  0  0  0  0  0  0  0
   -0.8627   -0.4309   -2.6123 H   0  0  0  0  0  0  0  0  0  0  0  0
    0.9101   -0.6814   -2.4216 H   0  0  0  0  0  0  0  0  0  0  0  0
   -0.3185   -1.6675   -1.4642 H   0  0  0  0  0  0  0  0  0  0  0  0
    1.9858    0.7321   -0.9658 H   0  0  0  0  0  0  0  0  0  0  0  0
    1.2202    1.4585    0.4537 H   0  0  0  0  0  0  0  0  0  0  0  0
    1.1211   -0.9403    1.4702 H   0  0  0  0  0  0  0  0  0  0  0  0
    1.8301   -1.5487   -0.0348 H   0  0  0  0  0  0  0  0  0  0  0  0
    3.6406   -1.0823    1.7734 H   0  0  0  0  0  0  0  0  0  0  0  0
  1  2  1  0
  2  3  1  0
  2  4  1  0
  4  5  1  0
  4  6  1  0
  6  7  1  0
  7  8  1  0
  8  9  2  0
  1 10  1  0
  1 11  1  0
  1 12  1  0
  2 13  1  0
  3 14  1  0
  3 15  1  0
  3 16  1  0
  4 17  1  0
  5 18  1  0
  5 19  1  0
  5 20  1  0
  6 21  1  0
  6 22  1  0
  7 23  1  0
  7 24  1  0
  8 25  1  0
M  END
