
     RDKit          3D

 21 20  0  0  0  0  0  0  0  0999 V2000
   -0.8341   -0.6896   -2.0765 C   0  0  0  0  0  0  0  0  0  0  0  0
   -0.6142    0.6214   -1.3159 C   0  0  0  0  0  0  0  0  0  0  0  0
   -0.0785    0.3473    0.0136 C   0  0  0  0  0  0  0  0  0  0  0  0
    0.3913    0.1213    1.1287 C   0  0  0  0  0  0  0  0  0  0  0  0
    0.9654   -0.1285    2.4454 C   0  0  0  0  0  0  0  0  0  0  0  0
    2.2867   -0.8467    2.2286 C   0  0  0  0  0  0  0  0  0  0  0  0
    2.1025   -2.0551    1.5633 O   0  0  0  0  0  0  0  0  0  0  0  0
   -2.0013    1.2653   -1.1863 C   0  0  0  0  0  0  0  0  0  0  0  0
   -2.5389    1.5042   -2.4283 O   0  0  0  0  0  0  0  0  0  0  0  0
    0.1127   -0.9820   -2.5956 H   0  0  0  0  0  0  0  0  0  0  0  0
   -1.6373   -0.5530   -2.8435 H   0  0  0  0  0  0  0  0  0  0  0  0
   -1.1821   -1.4990   -1.3975 H   0  0  0  0  0  0  0  0  0  0  0  0
    0.0801    1.2590   -1.8645 H   0  0  0  0  0  0  0  0  0  0  0  0
    0.2662   -0.7498    3.0402 H   0  0  0  0  0  0  0  0  0  0  0  0
    1.1258    0.8324    2.9736 H   0  0  0  0  0  0  0  0  0  0  0  0
    2.7825   -1.0775    3.1971 H   0  0  0  0  0  0  0  0  0  0  0  0
    2.9732   -0.2425    1.6021 H   0  0  0  0  0  0  0  0  0  0  0  0
    2.9832   -2.3499    1.2103 H   0  0  0  0  0  0  0  0  0  0  0  0
   -2.6151    0.5415   -0.6174 H   0  0  0  0  0  0  0  0  0  0  0  0
   -1.9346    2.1859   -0.5554 H   0  0  0  0  0  0  0  0  0  0  0  0
   -2.6335    2.4952   -2.5219 H   0  0  0  0  0  0  0  0  0  0  0  0
  1  2  1  0
  2  3  1  0
  3  4  3  0
  4  5  1  0
  5  6  1  0
  6  7  1  0
  2  8  1  0
  8  9  1  0
  1 10  1  0
  1 11  1  0
  1 12  1  0
  2 13  1  0
  5 14  1  0
  5 15  1  0
  6 16  1  0
  6 17  1  0
  7 18  1  0
  8 19  1  0
  8 20  1  0
  9 21  1  0
M  END
