
     RDKit          3D

 23 23  0  0  0  0  0  0  0  0999 V2000
    1.1939    1.5100   -0.1226 C   0  0  0  0  0  0  0  0  0  0  0  0
    0.9823    0.0320   -0.3270 C   0  0  0  0  0  0  0  0  0  0  0  0
    1.7594   -0.6752    0.7664 C   0  0  0  0  0  0  0  0  0  0  0  0
   -0.4656   -0.3668   -0.3244 C   0  0  0  0  0  0  0  0  0  0  0  0
   -0.6159   -1.8485   -0.5322 C   0  0  0  0  0  0  0  0  0  0  0  0
   -1.2021    0.0470    0.9520 C   0  0  0  0  0  0  0  0  0  0  0  0
   -1.5722    1.3066    0.2285 C   0  0  0  0  0  0  0  0  0  0  0  0
   -1.8582    2.4171    0.5890 O   0  0  0  0  0  0  0  0  0  0  0  0
   -1.4114    0.5222   -1.0482 C   0  0  0  0  0  0  0  0  0  0  0  0
    2.3002    1.6678   -0.1423 H   0  0  0  0  0  0  0  0  0  0  0  0
    0.8760    1.8224    0.9035 H   0  0  0  0  0  0  0  0  0  0  0  0
    0.7665    2.1361   -0.9130 H   0  0  0  0  0  0  0  0  0  0  0  0
    1.4154   -0.2543   -1.2919 H   0  0  0  0  0  0  0  0  0  0  0  0
    1.5600   -0.0929    1.7085 H   0  0  0  0  0  0  0  0  0  0  0  0
    2.8345   -0.5295    0.5278 H   0  0  0  0  0  0  0  0  0  0  0  0
    1.4879   -1.7240    0.8835 H   0  0  0  0  0  0  0  0  0  0  0  0
    0.0973   -2.2582   -1.2823 H   0  0  0  0  0  0  0  0  0  0  0  0
   -1.6583   -2.1045   -0.8301 H   0  0  0  0  0  0  0  0  0  0  0  0
   -0.4009   -2.3501    0.4339 H   0  0  0  0  0  0  0  0  0  0  0  0
   -0.5650    0.1878    1.8294 H   0  0  0  0  0  0  0  0  0  0  0  0
   -2.1366   -0.5419    1.1114 H   0  0  0  0  0  0  0  0  0  0  0  0
   -1.0091    1.1081   -1.8773 H   0  0  0  0  0  0  0  0  0  0  0  0
   -2.3780   -0.0114   -1.2425 H   0  0  0  0  0  0  0  0  0  0  0  0
  1  2  1  0
  2  3  1  0
  2  4  1  0
  4  5  1  0
  4  6  1  0
  6  7  1  0
  7  8  2  0
  7  9  1  0
  9  4  1  0
  1 10  1  0
  1 11  1  0
  1 12  1  0
  2 13  1  0
  3 14  1  0
  3 15  1  0
  3 16  1  0
  5 17  1  0
  5 18  1  0
  5 19  1  0
  6 20  1  0
  6 21  1  0
  9 22  1  0
  9 23  1  0
M  END
