
     RDKit          3D

 23 22  0  0  0  0  0  0  0  0999 V2000
   -1.9889    1.1090    0.6879 C   0  0  0  0  0  0  0  0  0  0  0  0
   -0.8670    0.5255   -0.1385 C   0  0  0  0  0  0  0  0  0  0  0  0
   -1.3358   -0.4756   -1.1470 C   0  0  0  0  0  0  0  0  0  0  0  0
    0.2515    0.0258    0.7296 C   0  0  0  0  0  0  0  0  0  0  0  0
   -0.1483   -1.0426    1.6881 C   0  0  0  0  0  0  0  0  0  0  0  0
    1.3534   -0.4854   -0.1158 C   0  0  0  0  0  0  0  0  0  0  0  0
    1.7127   -1.6331   -0.0366 O   0  0  0  0  0  0  0  0  0  0  0  0
    2.0107    0.4484   -1.0684 C   0  0  0  0  0  0  0  0  0  0  0  0
    3.0222   -0.2335   -1.7677 O   0  0  0  0  0  0  0  0  0  0  0  0
   -1.5844    2.0533    1.1508 H   0  0  0  0  0  0  0  0  0  0  0  0
   -2.3623    0.4177    1.4596 H   0  0  0  0  0  0  0  0  0  0  0  0
   -2.7889    1.4558   -0.0046 H   0  0  0  0  0  0  0  0  0  0  0  0
   -0.4407    1.3932   -0.7249 H   0  0  0  0  0  0  0  0  0  0  0  0
   -1.7806    0.0984   -2.0108 H   0  0  0  0  0  0  0  0  0  0  0  0
   -0.4646   -0.9993   -1.5498 H   0  0  0  0  0  0  0  0  0  0  0  0
   -2.0919   -1.1663   -0.7745 H   0  0  0  0  0  0  0  0  0  0  0  0
    0.5839    0.9112    1.3487 H   0  0  0  0  0  0  0  0  0  0  0  0
   -0.4824   -1.9657    1.1340 H   0  0  0  0  0  0  0  0  0  0  0  0
    0.7611   -1.3565    2.2423 H   0  0  0  0  0  0  0  0  0  0  0  0
   -0.9376   -0.7055    2.3943 H   0  0  0  0  0  0  0  0  0  0  0  0
    2.4922    1.2566   -0.4939 H   0  0  0  0  0  0  0  0  0  0  0  0
    1.2815    0.7889   -1.8152 H   0  0  0  0  0  0  0  0  0  0  0  0
    3.8042   -0.4206   -1.1877 H   0  0  0  0  0  0  0  0  0  0  0  0
  1  2  1  0
  2  3  1  0
  2  4  1  0
  4  5  1  0
  4  6  1  0
  6  7  2  0
  6  8  1  0
  8  9  1  0
  1 10  1  0
  1 11  1  0
  1 12  1  0
  2 13  1  0
  3 14  1  0
  3 15  1  0
  3 16  1  0
  4 17  1  0
  5 18  1  0
  5 19  1  0
  5 20  1  0
  8 21  1  0
  8 22  1  0
  9 23  1  0
M  END
