
     RDKit          3D

 21 22  0  0  0  0  0  0  0  0999 V2000
   -1.9589   -1.1609   -0.5263 C   0  0  0  0  0  0  0  0  0  0  0  0
   -0.9418   -0.0347   -0.5129 C   0  0  0  0  0  0  0  0  0  0  0  0
   -1.6349    1.1536    0.0906 C   0  0  0  0  0  0  0  0  0  0  0  0
   -0.8358    2.2763    0.1757 O   0  0  0  0  0  0  0  0  0  0  0  0
    0.3061   -0.4418    0.1489 C   0  0  0  0  0  0  0  0  0  0  0  0
    1.4968    0.3564    0.3524 C   0  0  0  0  0  0  0  0  0  0  0  0
    2.7253   -0.3857    0.8732 C   0  0  0  0  0  0  0  0  0  0  0  0
    2.6646   -1.1689   -0.2925 O   0  0  0  0  0  0  0  0  0  0  0  0
    1.5239   -0.6088   -0.7903 C   0  0  0  0  0  0  0  0  0  0  0  0
   -2.4237   -1.1591    0.5038 H   0  0  0  0  0  0  0  0  0  0  0  0
   -2.7751   -0.9628   -1.2280 H   0  0  0  0  0  0  0  0  0  0  0  0
   -1.4735   -2.1511   -0.6722 H   0  0  0  0  0  0  0  0  0  0  0  0
   -0.7679    0.2172   -1.5991 H   0  0  0  0  0  0  0  0  0  0  0  0
   -2.0208    0.9487    1.1122 H   0  0  0  0  0  0  0  0  0  0  0  0
   -2.5178    1.4257   -0.5231 H   0  0  0  0  0  0  0  0  0  0  0  0
   -0.8052    2.6831    1.0657 H   0  0  0  0  0  0  0  0  0  0  0  0
    0.2106   -1.3629    0.7986 H   0  0  0  0  0  0  0  0  0  0  0  0
    1.6441    1.3983    0.1010 H   0  0  0  0  0  0  0  0  0  0  0  0
    3.6288    0.2131    0.9622 H   0  0  0  0  0  0  0  0  0  0  0  0
    2.5072   -1.0339    1.7636 H   0  0  0  0  0  0  0  0  0  0  0  0
    1.4481   -0.2019   -1.8035 H   0  0  0  0  0  0  0  0  0  0  0  0
  1  2  1  0
  2  3  1  0
  3  4  1  0
  2  5  1  0
  5  6  1  0
  6  7  1  0
  7  8  1  0
  8  9  1  0
  9  5  1  0
  9  6  1  0
  1 10  1  0
  1 11  1  0
  1 12  1  0
  2 13  1  0
  3 14  1  0
  3 15  1  0
  4 16  1  0
  5 17  1  0
  6 18  1  0
  7 19  1  0
  7 20  1  0
  9 21  1  0
M  END
