
     RDKit          3D

 23 22  0  0  0  0  0  0  0  0999 V2000
   -1.5260    0.8343   -0.9726 C   0  0  0  0  0  0  0  0  0  0  0  0
   -1.2701    0.0508    0.2805 C   0  0  0  0  0  0  0  0  0  0  0  0
   -1.7685   -1.3504    0.0933 C   0  0  0  0  0  0  0  0  0  0  0  0
   -1.9940    0.5951    1.3544 O   0  0  0  0  0  0  0  0  0  0  0  0
    0.1848    0.1172    0.6639 C   0  0  0  0  0  0  0  0  0  0  0  0
    0.5386    1.4391    0.8820 O   0  0  0  0  0  0  0  0  0  0  0  0
    1.0582   -0.5623   -0.3660 C   0  0  0  0  0  0  0  0  0  0  0  0
    2.5034   -0.4548    0.0874 C   0  0  0  0  0  0  0  0  0  0  0  0
    2.9076    0.8618    0.2169 O   0  0  0  0  0  0  0  0  0  0  0  0
   -2.0337    0.2014   -1.7445 H   0  0  0  0  0  0  0  0  0  0  0  0
   -2.1907    1.7068   -0.7253 H   0  0  0  0  0  0  0  0  0  0  0  0
   -0.6269    1.2476   -1.4438 H   0  0  0  0  0  0  0  0  0  0  0  0
   -1.4064   -2.0541    0.8709 H   0  0  0  0  0  0  0  0  0  0  0  0
   -1.6244   -1.7437   -0.9296 H   0  0  0  0  0  0  0  0  0  0  0  0
   -2.8878   -1.3108    0.2354 H   0  0  0  0  0  0  0  0  0  0  0  0
   -1.6931    1.4986    1.5855 H   0  0  0  0  0  0  0  0  0  0  0  0
    0.3150   -0.3949    1.6585 H   0  0  0  0  0  0  0  0  0  0  0  0
    0.6172    1.9779    0.0845 H   0  0  0  0  0  0  0  0  0  0  0  0
    0.8094   -1.6487   -0.3367 H   0  0  0  0  0  0  0  0  0  0  0  0
    0.8905   -0.1124   -1.3482 H   0  0  0  0  0  0  0  0  0  0  0  0
    3.1128   -0.9689   -0.6983 H   0  0  0  0  0  0  0  0  0  0  0  0
    2.5583   -1.0083    1.0574 H   0  0  0  0  0  0  0  0  0  0  0  0
    3.5257    1.0787   -0.5055 H   0  0  0  0  0  0  0  0  0  0  0  0
  1  2  1  0
  2  3  1  0
  2  4  1  0
  2  5  1  0
  5  6  1  0
  5  7  1  0
  7  8  1  0
  8  9  1  0
  1 10  1  0
  1 11  1  0
  1 12  1  0
  3 13  1  0
  3 14  1  0
  3 15  1  0
  4 16  1  0
  5 17  1  0
  6 18  1  0
  7 19  1  0
  7 20  1  0
  8 21  1  0
  8 22  1  0
  9 23  1  0
M  END
