
     RDKit          3D

 19 19  0  0  0  0  0  0  0  0999 V2000
    0.0090    0.7572   -1.6647 C   0  0  0  0  0  0  0  0  0  0  0  0
   -0.0334   -0.4889   -0.8566 C   0  0  0  0  0  0  0  0  0  0  0  0
    1.2008   -0.5365   -0.0469 C   0  0  0  0  0  0  0  0  0  0  0  0
    2.2031   -0.5589    0.6263 C   0  0  0  0  0  0  0  0  0  0  0  0
    3.3904   -0.5880    1.4466 C   0  0  0  0  0  0  0  0  0  0  0  0
    4.3908   -1.2930    1.1161 O   0  0  0  0  0  0  0  0  0  0  0  0
   -1.2167   -0.6054    0.0509 C   0  0  0  0  0  0  0  0  0  0  0  0
   -1.3999    0.4660    1.1116 C   0  0  0  0  0  0  0  0  0  0  0  0
   -2.3972    0.2438   -0.0330 C   0  0  0  0  0  0  0  0  0  0  0  0
    0.6844    0.5720   -2.5488 H   0  0  0  0  0  0  0  0  0  0  0  0
    0.4638    1.5774   -1.0588 H   0  0  0  0  0  0  0  0  0  0  0  0
   -0.9450    1.0881   -2.0823 H   0  0  0  0  0  0  0  0  0  0  0  0
   -0.0693   -1.3588   -1.5629 H   0  0  0  0  0  0  0  0  0  0  0  0
    3.4801   -0.0252    2.3566 H   0  0  0  0  0  0  0  0  0  0  0  0
   -1.3474   -1.6474    0.4655 H   0  0  0  0  0  0  0  0  0  0  0  0
   -1.7237    0.1666    2.1271 H   0  0  0  0  0  0  0  0  0  0  0  0
   -0.8094    1.4095    1.0269 H   0  0  0  0  0  0  0  0  0  0  0  0
   -3.3699   -0.2099    0.3022 H   0  0  0  0  0  0  0  0  0  0  0  0
   -2.5103    1.0313   -0.7757 H   0  0  0  0  0  0  0  0  0  0  0  0
  1  2  1  0
  2  3  1  0
  3  4  3  0
  4  5  1  0
  5  6  2  0
  2  7  1  0
  7  8  1  0
  8  9  1  0
  9  7  1  0
  1 10  1  0
  1 11  1  0
  1 12  1  0
  2 13  1  0
  5 14  1  0
  7 15  1  0
  8 16  1  0
  8 17  1  0
  9 18  1  0
  9 19  1  0
M  END
