
     RDKit          3D

 24 24  0  0  0  0  0  0  0  0999 V2000
    1.1622   -0.3582   -1.4581 C   0  0  0  0  0  0  0  0  0  0  0  0
    0.6884   -0.0264   -0.0798 C   0  0  0  0  0  0  0  0  0  0  0  0
    1.2176   -1.1181    0.8522 C   0  0  0  0  0  0  0  0  0  0  0  0
    1.3422    1.2556    0.3853 C   0  0  0  0  0  0  0  0  0  0  0  0
   -0.8096    0.0232    0.0329 C   0  0  0  0  0  0  0  0  0  0  0  0
   -1.4782   -1.2977   -0.3243 C   0  0  0  0  0  0  0  0  0  0  0  0
   -1.4399    0.8491    1.0755 C   0  0  0  0  0  0  0  0  0  0  0  0
   -1.5811    1.2200   -0.3701 C   0  0  0  0  0  0  0  0  0  0  0  0
    0.7524   -1.3387   -1.7841 H   0  0  0  0  0  0  0  0  0  0  0  0
    2.2744   -0.4894   -1.3999 H   0  0  0  0  0  0  0  0  0  0  0  0
    0.8783    0.4060   -2.2111 H   0  0  0  0  0  0  0  0  0  0  0  0
    0.8771   -0.8329    1.8699 H   0  0  0  0  0  0  0  0  0  0  0  0
    0.8691   -2.1136    0.5476 H   0  0  0  0  0  0  0  0  0  0  0  0
    2.3367   -1.0258    0.7992 H   0  0  0  0  0  0  0  0  0  0  0  0
    2.4540    1.0510    0.3557 H   0  0  0  0  0  0  0  0  0  0  0  0
    1.1263    1.4779    1.4494 H   0  0  0  0  0  0  0  0  0  0  0  0
    1.1500    2.1100   -0.2814 H   0  0  0  0  0  0  0  0  0  0  0  0
   -1.1820   -2.0615    0.4252 H   0  0  0  0  0  0  0  0  0  0  0  0
   -1.2154   -1.6387   -1.3362 H   0  0  0  0  0  0  0  0  0  0  0  0
   -2.5944   -1.2146   -0.2287 H   0  0  0  0  0  0  0  0  0  0  0  0
   -0.8978    1.5716    1.6874 H   0  0  0  0  0  0  0  0  0  0  0  0
   -2.3176    0.4020    1.5836 H   0  0  0  0  0  0  0  0  0  0  0  0
   -2.6038    1.0998   -0.7873 H   0  0  0  0  0  0  0  0  0  0  0  0
   -1.0090    2.0491   -0.8026 H   0  0  0  0  0  0  0  0  0  0  0  0
  1  2  1  0
  2  3  1  0
  2  4  1  0
  2  5  1  0
  5  6  1  0
  5  7  1  0
  7  8  1  0
  8  5  1  0
  1  9  1  0
  1 10  1  0
  1 11  1  0
  3 12  1  0
  3 13  1  0
  3 14  1  0
  4 15  1  0
  4 16  1  0
  4 17  1  0
  6 18  1  0
  6 19  1  0
  6 20  1  0
  7 21  1  0
  7 22  1  0
  8 23  1  0
  8 24  1  0
M  END
