
     RDKit          3D

 21 21  0  0  0  0  0  0  0  0999 V2000
   -1.2153    0.2812    1.4178 C   0  0  0  0  0  0  0  0  0  0  0  0
   -0.8582   -0.3911    0.1360 C   0  0  0  0  0  0  0  0  0  0  0  0
   -1.7246    0.3022   -0.9415 C   0  0  0  0  0  0  0  0  0  0  0  0
    0.5549   -0.2947   -0.3523 C   0  0  0  0  0  0  0  0  0  0  0  0
    1.0810    0.9586   -0.6376 O   0  0  0  0  0  0  0  0  0  0  0  0
    1.3456    2.0087    0.1441 C   0  0  0  0  0  0  0  0  0  0  0  0
    1.1394    1.9618    1.3755 O   0  0  0  0  0  0  0  0  0  0  0  0
    1.5567   -1.2614    0.2604 C   0  0  0  0  0  0  0  0  0  0  0  0
    1.1268   -1.3951   -1.1777 C   0  0  0  0  0  0  0  0  0  0  0  0
   -0.4727    0.0820    2.2184 H   0  0  0  0  0  0  0  0  0  0  0  0
   -2.2266   -0.1470    1.7885 H   0  0  0  0  0  0  0  0  0  0  0  0
   -1.4086    1.3594    1.3584 H   0  0  0  0  0  0  0  0  0  0  0  0
   -1.2079   -1.4603    0.1576 H   0  0  0  0  0  0  0  0  0  0  0  0
   -1.6680   -0.3291   -1.8261 H   0  0  0  0  0  0  0  0  0  0  0  0
   -1.1969    1.2640   -1.1376 H   0  0  0  0  0  0  0  0  0  0  0  0
   -2.7457    0.4423   -0.5671 H   0  0  0  0  0  0  0  0  0  0  0  0
    1.7558    2.9544   -0.2719 H   0  0  0  0  0  0  0  0  0  0  0  0
    1.1782   -1.9385    1.0212 H   0  0  0  0  0  0  0  0  0  0  0  0
    2.5950   -0.9404    0.3985 H   0  0  0  0  0  0  0  0  0  0  0  0
    0.5660   -2.3222   -1.3682 H   0  0  0  0  0  0  0  0  0  0  0  0
    1.8253   -1.1349   -1.9965 H   0  0  0  0  0  0  0  0  0  0  0  0
  1  2  1  0
  2  3  1  0
  2  4  1  0
  4  5  1  0
  5  6  1  0
  6  7  2  0
  4  8  1  0
  8  9  1  0
  9  4  1  0
  1 10  1  0
  1 11  1  0
  1 12  1  0
  2 13  1  0
  3 14  1  0
  3 15  1  0
  3 16  1  0
  6 17  1  0
  8 18  1  0
  8 19  1  0
  9 20  1  0
  9 21  1  0
M  END
