
     RDKit          3D

 23 23  0  0  0  0  0  0  0  0999 V2000
    2.1804    0.6594   -0.4408 C   0  0  0  0  0  0  0  0  0  0  0  0
    1.0830    0.3526    0.5341 C   0  0  0  0  0  0  0  0  0  0  0  0
    1.6885   -0.0981    1.7974 C   0  0  0  0  0  0  0  0  0  0  0  0
    2.1155    0.7317    2.6006 O   0  0  0  0  0  0  0  0  0  0  0  0
    0.1373   -0.6243   -0.0713 C   0  0  0  0  0  0  0  0  0  0  0  0
   -1.0077   -1.0102    0.8123 C   0  0  0  0  0  0  0  0  0  0  0  0
   -2.2100   -0.2430    0.3402 C   0  0  0  0  0  0  0  0  0  0  0  0
   -1.6660    0.7463   -0.6904 C   0  0  0  0  0  0  0  0  0  0  0  0
   -0.5215   -0.0414   -1.2783 C   0  0  0  0  0  0  0  0  0  0  0  0
    2.1839    1.7423   -0.7595 H   0  0  0  0  0  0  0  0  0  0  0  0
    3.1964    0.4099   -0.0255 H   0  0  0  0  0  0  0  0  0  0  0  0
    2.0938    0.0463   -1.3643 H   0  0  0  0  0  0  0  0  0  0  0  0
    0.5123    1.2943    0.7474 H   0  0  0  0  0  0  0  0  0  0  0  0
    1.7504   -1.1636    2.0042 H   0  0  0  0  0  0  0  0  0  0  0  0
    0.7210   -1.5122   -0.4148 H   0  0  0  0  0  0  0  0  0  0  0  0
   -0.8061   -0.8741    1.8897 H   0  0  0  0  0  0  0  0  0  0  0  0
   -1.2148   -2.0913    0.6653 H   0  0  0  0  0  0  0  0  0  0  0  0
   -2.9496   -0.9036   -0.1934 H   0  0  0  0  0  0  0  0  0  0  0  0
   -2.7665    0.2616    1.1401 H   0  0  0  0  0  0  0  0  0  0  0  0
   -1.3040    1.6445   -0.1689 H   0  0  0  0  0  0  0  0  0  0  0  0
   -2.4695    0.9464   -1.4040 H   0  0  0  0  0  0  0  0  0  0  0  0
   -0.9279   -0.8373   -1.9373 H   0  0  0  0  0  0  0  0  0  0  0  0
    0.1812    0.5639   -1.8498 H   0  0  0  0  0  0  0  0  0  0  0  0
  1  2  1  0
  2  3  1  0
  3  4  2  0
  2  5  1  0
  5  6  1  0
  6  7  1  0
  7  8  1  0
  8  9  1  0
  9  5  1  0
  1 10  1  0
  1 11  1  0
  1 12  1  0
  2 13  1  0
  3 14  1  0
  5 15  1  0
  6 16  1  0
  6 17  1  0
  7 18  1  0
  7 19  1  0
  8 20  1  0
  8 21  1  0
  9 22  1  0
  9 23  1  0
M  END
