
     RDKit          3D

 22 21  0  0  0  0  0  0  0  0999 V2000
    1.1596    1.0671    0.6587 C   0  0  0  0  0  0  0  0  0  0  0  0
    0.7092   -0.3063    0.2467 C   0  0  0  0  0  0  0  0  0  0  0  0
    1.5832   -0.8137   -0.8782 C   0  0  0  0  0  0  0  0  0  0  0  0
    0.7897   -1.1828    1.3281 O   0  0  0  0  0  0  0  0  0  0  0  0
   -0.7511   -0.2503   -0.1589 C   0  0  0  0  0  0  0  0  0  0  0  0
   -1.0205    0.7126   -1.2642 C   0  0  0  0  0  0  0  0  0  0  0  0
   -1.5468    0.1527    1.0694 C   0  0  0  0  0  0  0  0  0  0  0  0
   -1.1738   -1.5468   -0.5220 O   0  0  0  0  0  0  0  0  0  0  0  0
    1.5386    1.5734   -0.2564 H   0  0  0  0  0  0  0  0  0  0  0  0
    1.9807    0.9279    1.4022 H   0  0  0  0  0  0  0  0  0  0  0  0
    0.3420    1.6991    1.0615 H   0  0  0  0  0  0  0  0  0  0  0  0
    1.0161   -1.4090   -1.6047 H   0  0  0  0  0  0  0  0  0  0  0  0
    2.1474    0.0172   -1.3620 H   0  0  0  0  0  0  0  0  0  0  0  0
    2.3655   -1.4703   -0.4117 H   0  0  0  0  0  0  0  0  0  0  0  0
    1.6950   -1.3784    1.6180 H   0  0  0  0  0  0  0  0  0  0  0  0
   -1.4380    1.6686   -0.8297 H   0  0  0  0  0  0  0  0  0  0  0  0
   -1.8088    0.3422   -1.9449 H   0  0  0  0  0  0  0  0  0  0  0  0
   -0.1356    0.9542   -1.8857 H   0  0  0  0  0  0  0  0  0  0  0  0
   -2.2399   -0.6707    1.3985 H   0  0  0  0  0  0  0  0  0  0  0  0
   -2.1406    1.0633    0.8805 H   0  0  0  0  0  0  0  0  0  0  0  0
   -0.8945    0.3418    1.9499 H   0  0  0  0  0  0  0  0  0  0  0  0
   -2.1775   -1.4920   -0.4953 H   0  0  0  0  0  0  0  0  0  0  0  0
  1  2  1  0
  2  3  1  0
  2  4  1  0
  2  5  1  0
  5  6  1  0
  5  7  1  0
  5  8  1  0
  1  9  1  0
  1 10  1  0
  1 11  1  0
  3 12  1  0
  3 13  1  0
  3 14  1  0
  4 15  1  0
  6 16  1  0
  6 17  1  0
  6 18  1  0
  7 19  1  0
  7 20  1  0
  7 21  1  0
  8 22  1  0
M  END
