
     RDKit          3D

 23 23  0  0  0  0  0  0  0  0999 V2000
   -1.8438   -0.7952    1.6905 C   0  0  0  0  0  0  0  0  0  0  0  0
   -1.5194   -0.3442    0.2753 C   0  0  0  0  0  0  0  0  0  0  0  0
   -2.7115    0.4422   -0.2172 C   0  0  0  0  0  0  0  0  0  0  0  0
   -0.3375    0.3333    0.1840 O   0  0  0  0  0  0  0  0  0  0  0  0
    0.5305   -0.3502   -0.6438 C   0  0  0  0  0  0  0  0  0  0  0  0
    1.2944    0.5260   -1.6480 C   0  0  0  0  0  0  0  0  0  0  0  0
    1.9982   -0.1991   -0.5308 C   0  0  0  0  0  0  0  0  0  0  0  0
    2.6063    0.6932    0.5197 C   0  0  0  0  0  0  0  0  0  0  0  0
    2.2065    0.2167    1.7603 O   0  0  0  0  0  0  0  0  0  0  0  0
   -2.8827   -1.2173    1.6409 H   0  0  0  0  0  0  0  0  0  0  0  0
   -1.8794    0.0311    2.4048 H   0  0  0  0  0  0  0  0  0  0  0  0
   -1.1667   -1.6148    1.9656 H   0  0  0  0  0  0  0  0  0  0  0  0
   -1.4660   -1.2625   -0.3399 H   0  0  0  0  0  0  0  0  0  0  0  0
   -2.4285    1.3568   -0.7731 H   0  0  0  0  0  0  0  0  0  0  0  0
   -3.3811   -0.1706   -0.8592 H   0  0  0  0  0  0  0  0  0  0  0  0
   -3.3378    0.7912    0.6383 H   0  0  0  0  0  0  0  0  0  0  0  0
    0.1811   -1.3024   -1.1013 H   0  0  0  0  0  0  0  0  0  0  0  0
    1.4060    0.1815   -2.6760 H   0  0  0  0  0  0  0  0  0  0  0  0
    1.1636    1.6245   -1.5514 H   0  0  0  0  0  0  0  0  0  0  0  0
    2.6377   -1.0564   -0.8147 H   0  0  0  0  0  0  0  0  0  0  0  0
    2.2989    1.7619    0.3710 H   0  0  0  0  0  0  0  0  0  0  0  0
    3.7118    0.6157    0.4744 H   0  0  0  0  0  0  0  0  0  0  0  0
    2.9194   -0.2614    2.2245 H   0  0  0  0  0  0  0  0  0  0  0  0
  1  2  1  0
  2  3  1  0
  2  4  1  0
  4  5  1  0
  5  6  1  0
  6  7  1  0
  7  8  1  0
  8  9  1  0
  7  5  1  0
  1 10  1  0
  1 11  1  0
  1 12  1  0
  2 13  1  0
  3 14  1  0
  3 15  1  0
  3 16  1  0
  5 17  1  0
  6 18  1  0
  6 19  1  0
  7 20  1  0
  8 21  1  0
  8 22  1  0
  9 23  1  0
M  END
