
     RDKit          3D

 21 21  0  0  0  0  0  0  0  0999 V2000
   -0.7505   -1.2955   -0.8207 C   0  0  0  0  0  0  0  0  0  0  0  0
   -0.5957   -0.3264    0.3260 C   0  0  0  0  0  0  0  0  0  0  0  0
   -1.7805    0.6339    0.3432 C   0  0  0  0  0  0  0  0  0  0  0  0
   -0.6025   -1.0563    1.5104 O   0  0  0  0  0  0  0  0  0  0  0  0
    0.6438    0.5283    0.1722 C   0  0  0  0  0  0  0  0  0  0  0  0
    1.9063   -0.2513   -0.0412 C   0  0  0  0  0  0  0  0  0  0  0  0
    1.7305   -1.1879   -1.0349 O   0  0  0  0  0  0  0  0  0  0  0  0
    0.5632    1.8917   -0.2083 C   0  0  0  0  0  0  0  0  0  0  0  0
    0.8262    1.5084    1.2047 O   0  0  0  0  0  0  0  0  0  0  0  0
   -0.2858   -2.2790   -0.6375 H   0  0  0  0  0  0  0  0  0  0  0  0
   -0.4445   -0.8600   -1.7947 H   0  0  0  0  0  0  0  0  0  0  0  0
   -1.8429   -1.4781   -0.9173 H   0  0  0  0  0  0  0  0  0  0  0  0
   -2.7190    0.1108    0.6367 H   0  0  0  0  0  0  0  0  0  0  0  0
   -1.5752    1.4190    1.0686 H   0  0  0  0  0  0  0  0  0  0  0  0
   -1.9131    0.9854   -0.6989 H   0  0  0  0  0  0  0  0  0  0  0  0
   -1.4497   -0.9893    2.0096 H   0  0  0  0  0  0  0  0  0  0  0  0
    2.7715    0.3947   -0.2926 H   0  0  0  0  0  0  0  0  0  0  0  0
    2.1348   -0.7547    0.9453 H   0  0  0  0  0  0  0  0  0  0  0  0
    2.3697   -1.9164   -0.8945 H   0  0  0  0  0  0  0  0  0  0  0  0
   -0.3864    2.4698   -0.2146 H   0  0  0  0  0  0  0  0  0  0  0  0
    1.3998    2.4530   -0.6615 H   0  0  0  0  0  0  0  0  0  0  0  0
  1  2  1  0
  2  3  1  0
  2  4  1  0
  2  5  1  0
  5  6  1  0
  6  7  1  0
  5  8  1  0
  8  9  1  0
  9  5  1  0
  1 10  1  0
  1 11  1  0
  1 12  1  0
  3 13  1  0
  3 14  1  0
  3 15  1  0
  4 16  1  0
  6 17  1  0
  6 18  1  0
  7 19  1  0
  8 20  1  0
  8 21  1  0
M  END
