
     RDKit          3D

 25 25  0  0  0  0  0  0  0  0999 V2000
   -1.6183    1.3747   -0.2490 C   0  0  0  0  0  0  0  0  0  0  0  0
   -1.3315   -0.1271   -0.1773 C   0  0  0  0  0  0  0  0  0  0  0  0
   -2.6312   -0.8198    0.1557 C   0  0  0  0  0  0  0  0  0  0  0  0
   -0.9415   -0.5366   -1.4321 O   0  0  0  0  0  0  0  0  0  0  0  0
   -0.2704   -0.4010    0.8783 C   0  0  0  0  0  0  0  0  0  0  0  0
    0.9612    0.3607    0.4513 C   0  0  0  0  0  0  0  0  0  0  0  0
    1.4671   -0.0804   -0.9085 C   0  0  0  0  0  0  0  0  0  0  0  0
    2.8695    0.1951   -0.3545 C   0  0  0  0  0  0  0  0  0  0  0  0
    2.2597   -0.1080    1.0216 C   0  0  0  0  0  0  0  0  0  0  0  0
   -1.1576    1.8270   -1.1518 H   0  0  0  0  0  0  0  0  0  0  0  0
   -2.7034    1.5812   -0.2227 H   0  0  0  0  0  0  0  0  0  0  0  0
   -1.1503    1.8524    0.6346 H   0  0  0  0  0  0  0  0  0  0  0  0
   -2.6338   -1.8290   -0.3128 H   0  0  0  0  0  0  0  0  0  0  0  0
   -2.7767   -0.9110    1.2454 H   0  0  0  0  0  0  0  0  0  0  0  0
   -3.4705   -0.2649   -0.2604 H   0  0  0  0  0  0  0  0  0  0  0  0
   -1.0654   -1.5048   -1.5915 H   0  0  0  0  0  0  0  0  0  0  0  0
   -0.6770   -0.0005    1.8293 H   0  0  0  0  0  0  0  0  0  0  0  0
   -0.0957   -1.4740    0.8885 H   0  0  0  0  0  0  0  0  0  0  0  0
    0.8484    1.4529    0.4617 H   0  0  0  0  0  0  0  0  0  0  0  0
    1.2619   -1.1863   -1.0032 H   0  0  0  0  0  0  0  0  0  0  0  0
    1.1759    0.5314   -1.7585 H   0  0  0  0  0  0  0  0  0  0  0  0
    3.0752    1.2787   -0.4834 H   0  0  0  0  0  0  0  0  0  0  0  0
    3.6361   -0.5036   -0.6751 H   0  0  0  0  0  0  0  0  0  0  0  0
    2.2687   -1.2056    1.1791 H   0  0  0  0  0  0  0  0  0  0  0  0
    2.6999    0.4982    1.8355 H   0  0  0  0  0  0  0  0  0  0  0  0
  1  2  1  0
  2  3  1  0
  2  4  1  0
  2  5  1  0
  5  6  1  0
  6  7  1  0
  7  8  1  0
  8  9  1  0
  9  6  1  0
  1 10  1  0
  1 11  1  0
  1 12  1  0
  3 13  1  0
  3 14  1  0
  3 15  1  0
  4 16  1  0
  5 17  1  0
  5 18  1  0
  6 19  1  0
  7 20  1  0
  7 21  1  0
  8 22  1  0
  8 23  1  0
  9 24  1  0
  9 25  1  0
M  END
