
     RDKit          3D

 21 20  0  0  0  0  0  0  0  0999 V2000
    1.8483   -0.9132   -0.2715 C   0  0  0  0  0  0  0  0  0  0  0  0
    0.8557    0.1949   -0.3294 C   0  0  0  0  0  0  0  0  0  0  0  0
    1.2896    1.2510    0.6103 C   0  0  0  0  0  0  0  0  0  0  0  0
    1.7561    0.9081    1.6858 O   0  0  0  0  0  0  0  0  0  0  0  0
   -0.5637   -0.2508   -0.0804 C   0  0  0  0  0  0  0  0  0  0  0  0
   -0.7477   -0.8826    1.2684 C   0  0  0  0  0  0  0  0  0  0  0  0
   -0.9401   -1.1737   -1.0560 O   0  0  0  0  0  0  0  0  0  0  0  0
   -1.5359    0.9057   -0.1766 C   0  0  0  0  0  0  0  0  0  0  0  0
   -1.4561    1.4563   -1.4315 O   0  0  0  0  0  0  0  0  0  0  0  0
    2.1923   -1.0105    0.7802 H   0  0  0  0  0  0  0  0  0  0  0  0
    2.7229   -0.6283   -0.9124 H   0  0  0  0  0  0  0  0  0  0  0  0
    1.4777   -1.8773   -0.6786 H   0  0  0  0  0  0  0  0  0  0  0  0
    0.8956    0.6353   -1.3500 H   0  0  0  0  0  0  0  0  0  0  0  0
    1.2269    2.3131    0.4207 H   0  0  0  0  0  0  0  0  0  0  0  0
   -0.4638   -0.1598    2.0658 H   0  0  0  0  0  0  0  0  0  0  0  0
   -0.1871   -1.8226    1.4008 H   0  0  0  0  0  0  0  0  0  0  0  0
   -1.8230   -1.1388    1.3669 H   0  0  0  0  0  0  0  0  0  0  0  0
   -0.4866   -0.9786   -1.9023 H   0  0  0  0  0  0  0  0  0  0  0  0
   -1.3767    1.6358    0.6432 H   0  0  0  0  0  0  0  0  0  0  0  0
   -2.5570    0.4992   -0.0358 H   0  0  0  0  0  0  0  0  0  0  0  0
   -2.1273    1.0369   -2.0177 H   0  0  0  0  0  0  0  0  0  0  0  0
  1  2  1  0
  2  3  1  0
  3  4  2  0
  2  5  1  0
  5  6  1  0
  5  7  1  0
  5  8  1  0
  8  9  1  0
  1 10  1  0
  1 11  1  0
  1 12  1  0
  2 13  1  0
  3 14  1  0
  6 15  1  0
  6 16  1  0
  6 17  1  0
  7 18  1  0
  8 19  1  0
  8 20  1  0
  9 21  1  0
M  END
