
     RDKit          3D

 21 22  0  0  0  0  0  0  0  0999 V2000
   -1.5542   -1.4993   -0.0309 C   0  0  0  0  0  0  0  0  0  0  0  0
   -1.2470   -0.0887    0.4456 C   0  0  0  0  0  0  0  0  0  0  0  0
   -2.1923    0.9207   -0.1418 C   0  0  0  0  0  0  0  0  0  0  0  0
    0.1708    0.2795    0.2326 C   0  0  0  0  0  0  0  0  0  0  0  0
    0.7533    1.3105   -0.3663 C   0  0  0  0  0  0  0  0  0  0  0  0
    2.1969    0.9623   -0.1734 C   0  0  0  0  0  0  0  0  0  0  0  0
    2.2950   -0.5127   -0.4905 C   0  0  0  0  0  0  0  0  0  0  0  0
    1.3589   -0.5006    0.6868 C   0  0  0  0  0  0  0  0  0  0  0  0
    2.1669    0.5522    1.1821 O   0  0  0  0  0  0  0  0  0  0  0  0
   -1.4669   -2.2343    0.7875 H   0  0  0  0  0  0  0  0  0  0  0  0
   -0.8766   -1.8219   -0.8483 H   0  0  0  0  0  0  0  0  0  0  0  0
   -2.6044   -1.5553   -0.4233 H   0  0  0  0  0  0  0  0  0  0  0  0
   -1.4568   -0.1044    1.5555 H   0  0  0  0  0  0  0  0  0  0  0  0
   -3.2267    0.5509    0.0126 H   0  0  0  0  0  0  0  0  0  0  0  0
   -1.9728    1.1637   -1.1883 H   0  0  0  0  0  0  0  0  0  0  0  0
   -2.1097    1.8496    0.4746 H   0  0  0  0  0  0  0  0  0  0  0  0
    0.4011    2.1879   -0.8713 H   0  0  0  0  0  0  0  0  0  0  0  0
    2.9462    1.6298   -0.4842 H   0  0  0  0  0  0  0  0  0  0  0  0
    3.2927   -0.8924   -0.1982 H   0  0  0  0  0  0  0  0  0  0  0  0
    1.8957   -0.8396   -1.4459 H   0  0  0  0  0  0  0  0  0  0  0  0
    1.2299   -1.3576    1.2852 H   0  0  0  0  0  0  0  0  0  0  0  0
  1  2  1  0
  2  3  1  0
  2  4  1  0
  4  5  2  0
  5  6  1  0
  6  7  1  0
  7  8  1  0
  8  9  1  0
  8  4  1  0
  9  6  1  0
  1 10  1  0
  1 11  1  0
  1 12  1  0
  2 13  1  0
  3 14  1  0
  3 15  1  0
  3 16  1  0
  5 17  1  0
  6 18  1  0
  7 19  1  0
  7 20  1  0
  8 21  1  0
M  END
