
     RDKit          3D

 25 24  0  0  0  0  0  0  0  0999 V2000
   -1.4667   -0.9632    0.8497 C   0  0  0  0  0  0  0  0  0  0  0  0
   -1.2846    0.1582   -0.1353 C   0  0  0  0  0  0  0  0  0  0  0  0
   -1.4285    1.4563    0.5878 C   0  0  0  0  0  0  0  0  0  0  0  0
   -2.4271    0.0965   -0.9807 O   0  0  0  0  0  0  0  0  0  0  0  0
   -0.1316    0.0213   -1.0318 C   0  0  0  0  0  0  0  0  0  0  0  0
    1.2249   -0.0617   -0.4589 C   0  0  0  0  0  0  0  0  0  0  0  0
    1.6247    1.1479    0.3611 C   0  0  0  0  0  0  0  0  0  0  0  0
    1.5548   -1.2922    0.3041 C   0  0  0  0  0  0  0  0  0  0  0  0
    2.1311   -0.0473   -1.5550 O   0  0  0  0  0  0  0  0  0  0  0  0
   -1.1190   -1.9412    0.4595 H   0  0  0  0  0  0  0  0  0  0  0  0
   -1.0114   -0.7238    1.8407 H   0  0  0  0  0  0  0  0  0  0  0  0
   -2.5517   -1.0831    1.0548 H   0  0  0  0  0  0  0  0  0  0  0  0
   -2.5101    1.5214    0.9120 H   0  0  0  0  0  0  0  0  0  0  0  0
   -1.2995    2.3386   -0.0909 H   0  0  0  0  0  0  0  0  0  0  0  0
   -0.8323    1.5767    1.4787 H   0  0  0  0  0  0  0  0  0  0  0  0
   -2.4339   -0.7563   -1.4704 H   0  0  0  0  0  0  0  0  0  0  0  0
   -0.2976   -0.8970   -1.6479 H   0  0  0  0  0  0  0  0  0  0  0  0
   -0.1527    0.8627   -1.7654 H   0  0  0  0  0  0  0  0  0  0  0  0
    1.0751    2.0512    0.0996 H   0  0  0  0  0  0  0  0  0  0  0  0
    2.7345    1.3375    0.2645 H   0  0  0  0  0  0  0  0  0  0  0  0
    1.4830    0.9459    1.4568 H   0  0  0  0  0  0  0  0  0  0  0  0
    2.6848   -1.3687    0.3200 H   0  0  0  0  0  0  0  0  0  0  0  0
    1.2135   -2.2167   -0.1795 H   0  0  0  0  0  0  0  0  0  0  0  0
    1.2768   -1.2658    1.3769 H   0  0  0  0  0  0  0  0  0  0  0  0
    1.9437   -0.8971   -2.0501 H   0  0  0  0  0  0  0  0  0  0  0  0
  1  2  1  0
  2  3  1  0
  2  4  1  0
  2  5  1  0
  5  6  1  0
  6  7  1  0
  6  8  1  0
  6  9  1  0
  1 10  1  0
  1 11  1  0
  1 12  1  0
  3 13  1  0
  3 14  1  0
  3 15  1  0
  4 16  1  0
  5 17  1  0
  5 18  1  0
  7 19  1  0
  7 20  1  0
  7 21  1  0
  8 22  1  0
  8 23  1  0
  8 24  1  0
  9 25  1  0
M  END
