
     RDKit          3D

 21 23  0  0  0  0  0  0  0  0999 V2000
   -1.6344    1.1189   -0.6266 C   0  0  0  0  0  0  0  0  0  0  0  0
   -1.1908    0.2233    0.5100 C   0  0  0  0  0  0  0  0  0  0  0  0
   -1.9883   -1.0615    0.5586 C   0  0  0  0  0  0  0  0  0  0  0  0
    0.2656   -0.0998    0.4496 C   0  0  0  0  0  0  0  0  0  0  0  0
    0.7199   -0.9134    1.4635 O   0  0  0  0  0  0  0  0  0  0  0  0
    0.9350   -1.2441    0.1565 C   0  0  0  0  0  0  0  0  0  0  0  0
    2.0991   -0.5237   -0.4858 C   0  0  0  0  0  0  0  0  0  0  0  0
    2.6222    0.7216    0.0802 C   0  0  0  0  0  0  0  0  0  0  0  0
    1.2150    0.7546   -0.3412 C   0  0  0  0  0  0  0  0  0  0  0  0
   -1.5126    0.5993   -1.5781 H   0  0  0  0  0  0  0  0  0  0  0  0
   -2.6848    1.4044   -0.4302 H   0  0  0  0  0  0  0  0  0  0  0  0
   -1.0280    2.0473   -0.5485 H   0  0  0  0  0  0  0  0  0  0  0  0
   -1.3821    0.7528    1.4657 H   0  0  0  0  0  0  0  0  0  0  0  0
   -1.5013   -1.7880   -0.1175 H   0  0  0  0  0  0  0  0  0  0  0  0
   -1.8947   -1.4779    1.5824 H   0  0  0  0  0  0  0  0  0  0  0  0
   -3.0243   -0.8151    0.2738 H   0  0  0  0  0  0  0  0  0  0  0  0
    0.5954   -2.1774   -0.2886 H   0  0  0  0  0  0  0  0  0  0  0  0
    2.4014   -0.8018   -1.5025 H   0  0  0  0  0  0  0  0  0  0  0  0
    2.7775    0.8556    1.1895 H   0  0  0  0  0  0  0  0  0  0  0  0
    3.3461    1.2832   -0.5176 H   0  0  0  0  0  0  0  0  0  0  0  0
    0.8641    1.1418   -1.2931 H   0  0  0  0  0  0  0  0  0  0  0  0
  1  2  1  0
  2  3  1  0
  2  4  1  0
  4  5  1  0
  5  6  1  0
  6  7  1  0
  7  8  1  0
  8  9  1  0
  6  4  1  0
  9  7  1  0
  9  4  1  0
  1 10  1  0
  1 11  1  0
  1 12  1  0
  2 13  1  0
  3 14  1  0
  3 15  1  0
  3 16  1  0
  6 17  1  0
  7 18  1  0
  8 19  1  0
  8 20  1  0
  9 21  1  0
M  END
