
     RDKit          3D

 19 18  0  0  0  0  0  0  0  0999 V2000
   -0.1961   -1.6825   -0.2194 C   0  0  0  0  0  0  0  0  0  0  0  0
    0.1600   -0.2297   -0.5450 C   0  0  0  0  0  0  0  0  0  0  0  0
    1.5691   -0.0301   -0.0758 C   0  0  0  0  0  0  0  0  0  0  0  0
    2.0709    1.3481   -0.3227 C   0  0  0  0  0  0  0  0  0  0  0  0
    3.2139    1.5851    0.0337 O   0  0  0  0  0  0  0  0  0  0  0  0
   -0.7954    0.6280    0.2512 C   0  0  0  0  0  0  0  0  0  0  0  0
   -0.6742    0.4037    1.6163 O   0  0  0  0  0  0  0  0  0  0  0  0
   -2.2047    0.3938   -0.1411 C   0  0  0  0  0  0  0  0  0  0  0  0
   -2.9967    0.0635    0.7192 O   0  0  0  0  0  0  0  0  0  0  0  0
   -0.4123   -1.7720    0.8607 H   0  0  0  0  0  0  0  0  0  0  0  0
   -1.1347   -1.9191   -0.7573 H   0  0  0  0  0  0  0  0  0  0  0  0
    0.6432   -2.3520   -0.4826 H   0  0  0  0  0  0  0  0  0  0  0  0
    0.0361   -0.0496   -1.6293 H   0  0  0  0  0  0  0  0  0  0  0  0
    2.2736   -0.7608   -0.4552 H   0  0  0  0  0  0  0  0  0  0  0  0
    1.5501   -0.1498    1.0465 H   0  0  0  0  0  0  0  0  0  0  0  0
    1.4956    2.1193   -0.7840 H   0  0  0  0  0  0  0  0  0  0  0  0
   -0.5198    1.6990    0.0437 H   0  0  0  0  0  0  0  0  0  0  0  0
   -1.5620    0.1858    2.0332 H   0  0  0  0  0  0  0  0  0  0  0  0
   -2.5167    0.5192   -1.1922 H   0  0  0  0  0  0  0  0  0  0  0  0
  1  2  1  0
  2  3  1  0
  3  4  1  0
  4  5  2  0
  2  6  1  0
  6  7  1  0
  6  8  1  0
  8  9  2  0
  1 10  1  0
  1 11  1  0
  1 12  1  0
  2 13  1  0
  3 14  1  0
  3 15  1  0
  4 16  1  0
  6 17  1  0
  7 18  1  0
  8 19  1  0
M  END
