
     RDKit          3D

 21 20  0  0  0  0  0  0  0  0999 V2000
   -1.1603    0.5797    1.6604 C   0  0  0  0  0  0  0  0  0  0  0  0
   -0.3085   -0.0386    0.5445 C   0  0  0  0  0  0  0  0  0  0  0  0
   -1.1785   -0.0410   -0.6909 C   0  0  0  0  0  0  0  0  0  0  0  0
   -2.3841   -0.8723   -0.3606 C   0  0  0  0  0  0  0  0  0  0  0  0
   -2.3289   -2.1023   -0.3462 O   0  0  0  0  0  0  0  0  0  0  0  0
    0.9139    0.7979    0.4043 C   0  0  0  0  0  0  0  0  0  0  0  0
    1.8898    0.3732   -0.6372 C   0  0  0  0  0  0  0  0  0  0  0  0
    2.4662   -0.9736   -0.4407 C   0  0  0  0  0  0  0  0  0  0  0  0
    2.1666   -1.6358    0.5297 O   0  0  0  0  0  0  0  0  0  0  0  0
   -1.1480   -0.1377    2.5142 H   0  0  0  0  0  0  0  0  0  0  0  0
   -2.2002    0.7405    1.3550 H   0  0  0  0  0  0  0  0  0  0  0  0
   -0.7011    1.5080    2.0385 H   0  0  0  0  0  0  0  0  0  0  0  0
   -0.0338   -1.0706    0.7886 H   0  0  0  0  0  0  0  0  0  0  0  0
   -0.6442   -0.4642   -1.5416 H   0  0  0  0  0  0  0  0  0  0  0  0
   -1.5574    0.9898   -0.8532 H   0  0  0  0  0  0  0  0  0  0  0  0
   -3.3499   -0.4395   -0.1216 H   0  0  0  0  0  0  0  0  0  0  0  0
    1.4583    0.7125    1.3939 H   0  0  0  0  0  0  0  0  0  0  0  0
    0.6796    1.8945    0.3427 H   0  0  0  0  0  0  0  0  0  0  0  0
    1.5001    0.4906   -1.6730 H   0  0  0  0  0  0  0  0  0  0  0  0
    2.7563    1.0971   -0.5855 H   0  0  0  0  0  0  0  0  0  0  0  0
    3.1641   -1.4082   -1.1446 H   0  0  0  0  0  0  0  0  0  0  0  0
  1  2  1  0
  2  3  1  0
  3  4  1  0
  4  5  2  0
  2  6  1  0
  6  7  1  0
  7  8  1  0
  8  9  2  0
  1 10  1  0
  1 11  1  0
  1 12  1  0
  2 13  1  0
  3 14  1  0
  3 15  1  0
  4 16  1  0
  6 17  1  0
  6 18  1  0
  7 19  1  0
  7 20  1  0
  8 21  1  0
M  END
