
     RDKit          3D

 23 22  0  0  0  0  0  0  0  0999 V2000
   -2.2274    0.9914   -0.3231 C   0  0  0  0  0  0  0  0  0  0  0  0
   -1.7391   -0.1469    0.5336 C   0  0  0  0  0  0  0  0  0  0  0  0
   -2.5035   -1.4219    0.2618 C   0  0  0  0  0  0  0  0  0  0  0  0
   -0.2745   -0.3607    0.3924 C   0  0  0  0  0  0  0  0  0  0  0  0
    0.1065   -1.4345   -0.0101 O   0  0  0  0  0  0  0  0  0  0  0  0
    0.7138    0.6740    0.7206 C   0  0  0  0  0  0  0  0  0  0  0  0
    2.1275    0.2695    0.4264 C   0  0  0  0  0  0  0  0  0  0  0  0
    2.3944   -0.0180   -1.0274 C   0  0  0  0  0  0  0  0  0  0  0  0
    3.7551   -0.3823   -1.1834 O   0  0  0  0  0  0  0  0  0  0  0  0
   -2.7039    1.7848    0.3021 H   0  0  0  0  0  0  0  0  0  0  0  0
   -1.3732    1.4888   -0.8428 H   0  0  0  0  0  0  0  0  0  0  0  0
   -2.9516    0.6127   -1.0832 H   0  0  0  0  0  0  0  0  0  0  0  0
   -1.9151    0.1203    1.5978 H   0  0  0  0  0  0  0  0  0  0  0  0
   -2.3870   -2.1399    1.0971 H   0  0  0  0  0  0  0  0  0  0  0  0
   -2.0220   -1.8994   -0.6315 H   0  0  0  0  0  0  0  0  0  0  0  0
   -3.5491   -1.2336   -0.0239 H   0  0  0  0  0  0  0  0  0  0  0  0
    0.6458    0.8737    1.8160 H   0  0  0  0  0  0  0  0  0  0  0  0
    0.4840    1.5977    0.1396 H   0  0  0  0  0  0  0  0  0  0  0  0
    2.8287    1.0672    0.7613 H   0  0  0  0  0  0  0  0  0  0  0  0
    2.3739   -0.6352    1.0592 H   0  0  0  0  0  0  0  0  0  0  0  0
    2.1976    0.8948   -1.6448 H   0  0  0  0  0  0  0  0  0  0  0  0
    1.7759   -0.8360   -1.3991 H   0  0  0  0  0  0  0  0  0  0  0  0
    4.2431    0.1333   -0.4915 H   0  0  0  0  0  0  0  0  0  0  0  0
  1  2  1  0
  2  3  1  0
  2  4  1  0
  4  5  2  0
  4  6  1  0
  6  7  1  0
  7  8  1  0
  8  9  1  0
  1 10  1  0
  1 11  1  0
  1 12  1  0
  2 13  1  0
  3 14  1  0
  3 15  1  0
  3 16  1  0
  6 17  1  0
  6 18  1  0
  7 19  1  0
  7 20  1  0
  8 21  1  0
  8 22  1  0
  9 23  1  0
M  END
