
     RDKit          3D

 25 25  0  0  0  0  0  0  0  0999 V2000
   -2.3412    0.9338   -0.1314 C   0  0  0  0  0  0  0  0  0  0  0  0
   -1.3725   -0.1002    0.4215 C   0  0  0  0  0  0  0  0  0  0  0  0
   -2.0145   -1.4453    0.2858 C   0  0  0  0  0  0  0  0  0  0  0  0
   -0.0655    0.0234   -0.2864 C   0  0  0  0  0  0  0  0  0  0  0  0
    0.5110    1.4180   -0.0762 C   0  0  0  0  0  0  0  0  0  0  0  0
    1.7902    0.8410    0.4859 C   0  0  0  0  0  0  0  0  0  0  0  0
    2.8384    1.0250   -0.4285 O   0  0  0  0  0  0  0  0  0  0  0  0
    1.1385   -0.5346    0.4002 C   0  0  0  0  0  0  0  0  0  0  0  0
    1.9647   -1.4294   -0.5309 C   0  0  0  0  0  0  0  0  0  0  0  0
   -2.1797    1.8602    0.4288 H   0  0  0  0  0  0  0  0  0  0  0  0
   -3.3775    0.5621   -0.1210 H   0  0  0  0  0  0  0  0  0  0  0  0
   -2.0849    1.1135   -1.2132 H   0  0  0  0  0  0  0  0  0  0  0  0
   -1.1976    0.0952    1.5088 H   0  0  0  0  0  0  0  0  0  0  0  0
   -2.3542   -1.6434   -0.7496 H   0  0  0  0  0  0  0  0  0  0  0  0
   -1.3795   -2.2778    0.6281 H   0  0  0  0  0  0  0  0  0  0  0  0
   -2.9090   -1.4445    0.9729 H   0  0  0  0  0  0  0  0  0  0  0  0
   -0.1001   -0.2376   -1.3647 H   0  0  0  0  0  0  0  0  0  0  0  0
    0.6070    2.0230   -0.9831 H   0  0  0  0  0  0  0  0  0  0  0  0
   -0.0083    2.0055    0.7168 H   0  0  0  0  0  0  0  0  0  0  0  0
    2.0397    1.1714    1.4985 H   0  0  0  0  0  0  0  0  0  0  0  0
    3.0406    1.9796   -0.4795 H   0  0  0  0  0  0  0  0  0  0  0  0
    0.9362   -1.0001    1.3869 H   0  0  0  0  0  0  0  0  0  0  0  0
    2.7075   -0.8303   -1.1022 H   0  0  0  0  0  0  0  0  0  0  0  0
    1.3038   -1.8973   -1.3007 H   0  0  0  0  0  0  0  0  0  0  0  0
    2.5067   -2.2113    0.0330 H   0  0  0  0  0  0  0  0  0  0  0  0
  1  2  1  0
  2  3  1  0
  2  4  1  0
  4  5  1  0
  5  6  1  0
  6  7  1  0
  6  8  1  0
  8  9  1  0
  8  4  1  0
  1 10  1  0
  1 11  1  0
  1 12  1  0
  2 13  1  0
  3 14  1  0
  3 15  1  0
  3 16  1  0
  4 17  1  0
  5 18  1  0
  5 19  1  0
  6 20  1  0
  7 21  1  0
  8 22  1  0
  9 23  1  0
  9 24  1  0
  9 25  1  0
M  END
