
     RDKit          3D

 23 23  0  0  0  0  0  0  0  0999 V2000
   -1.9335    0.9403    0.3071 C   0  0  0  0  0  0  0  0  0  0  0  0
   -1.0257    0.1885   -0.6537 C   0  0  0  0  0  0  0  0  0  0  0  0
   -1.5753   -1.2244   -0.7405 C   0  0  0  0  0  0  0  0  0  0  0  0
    0.3583    0.2143   -0.0477 C   0  0  0  0  0  0  0  0  0  0  0  0
    0.4262   -0.4331    1.2988 C   0  0  0  0  0  0  0  0  0  0  0  0
    1.7722   -0.4700    1.7054 O   0  0  0  0  0  0  0  0  0  0  0  0
    1.4768   -0.2166   -0.9314 C   0  0  0  0  0  0  0  0  0  0  0  0
    2.0905    1.1257   -0.5533 C   0  0  0  0  0  0  0  0  0  0  0  0
    0.8488    1.5191   -0.0656 O   0  0  0  0  0  0  0  0  0  0  0  0
   -2.0614    0.3263    1.2241 H   0  0  0  0  0  0  0  0  0  0  0  0
   -2.9199    1.1658   -0.1683 H   0  0  0  0  0  0  0  0  0  0  0  0
   -1.4154    1.8893    0.5661 H   0  0  0  0  0  0  0  0  0  0  0  0
   -1.0800    0.7047   -1.6171 H   0  0  0  0  0  0  0  0  0  0  0  0
   -0.8207   -1.9695   -0.9880 H   0  0  0  0  0  0  0  0  0  0  0  0
   -2.3587   -1.2258   -1.5546 H   0  0  0  0  0  0  0  0  0  0  0  0
   -2.1454   -1.4911    0.1829 H   0  0  0  0  0  0  0  0  0  0  0  0
    0.0873   -1.4843    1.2103 H   0  0  0  0  0  0  0  0  0  0  0  0
   -0.1904    0.1486    2.0184 H   0  0  0  0  0  0  0  0  0  0  0  0
    1.8476   -1.1464    2.4441 H   0  0  0  0  0  0  0  0  0  0  0  0
    1.2715   -0.3487   -1.9957 H   0  0  0  0  0  0  0  0  0  0  0  0
    2.1109   -1.0327   -0.5006 H   0  0  0  0  0  0  0  0  0  0  0  0
    2.8485    1.0609    0.2572 H   0  0  0  0  0  0  0  0  0  0  0  0
    2.3877    1.7592   -1.3980 H   0  0  0  0  0  0  0  0  0  0  0  0
  1  2  1  0
  2  3  1  0
  2  4  1  0
  4  5  1  0
  5  6  1  0
  4  7  1  0
  7  8  1  0
  8  9  1  0
  9  4  1  0
  1 10  1  0
  1 11  1  0
  1 12  1  0
  2 13  1  0
  3 14  1  0
  3 15  1  0
  3 16  1  0
  5 17  1  0
  5 18  1  0
  6 19  1  0
  7 20  1  0
  7 21  1  0
  8 22  1  0
  8 23  1  0
M  END
