
     RDKit          3D

 25 25  0  0  0  0  0  0  0  0999 V2000
   -2.9466   -0.6493    0.4654 C   0  0  0  0  0  0  0  0  0  0  0  0
   -1.7569   -0.2217   -0.3687 C   0  0  0  0  0  0  0  0  0  0  0  0
   -1.7474    1.2992   -0.3549 C   0  0  0  0  0  0  0  0  0  0  0  0
   -0.4870   -0.7734    0.2336 C   0  0  0  0  0  0  0  0  0  0  0  0
    0.7393   -0.4038   -0.5204 C   0  0  0  0  0  0  0  0  0  0  0  0
    1.9689   -0.9907    0.1407 C   0  0  0  0  0  0  0  0  0  0  0  0
    2.6520    0.3619    0.1618 C   0  0  0  0  0  0  0  0  0  0  0  0
    3.6247    0.5347   -0.8166 O   0  0  0  0  0  0  0  0  0  0  0  0
    1.3137    0.9630   -0.2654 C   0  0  0  0  0  0  0  0  0  0  0  0
   -2.5976   -0.8106    1.5213 H   0  0  0  0  0  0  0  0  0  0  0  0
   -3.7211    0.1452    0.5316 H   0  0  0  0  0  0  0  0  0  0  0  0
   -3.4286   -1.5598    0.0759 H   0  0  0  0  0  0  0  0  0  0  0  0
   -1.9223   -0.5350   -1.3952 H   0  0  0  0  0  0  0  0  0  0  0  0
   -2.7360    1.6005   -0.8102 H   0  0  0  0  0  0  0  0  0  0  0  0
   -1.7387    1.6980    0.6854 H   0  0  0  0  0  0  0  0  0  0  0  0
   -0.9773    1.7336   -0.9935 H   0  0  0  0  0  0  0  0  0  0  0  0
   -0.4162   -0.5332    1.3103 H   0  0  0  0  0  0  0  0  0  0  0  0
   -0.5870   -1.8931    0.1855 H   0  0  0  0  0  0  0  0  0  0  0  0
    0.7000   -0.7040   -1.5758 H   0  0  0  0  0  0  0  0  0  0  0  0
    2.5244   -1.7279   -0.4458 H   0  0  0  0  0  0  0  0  0  0  0  0
    1.8001   -1.3246    1.1971 H   0  0  0  0  0  0  0  0  0  0  0  0
    3.0168    0.6945    1.1420 H   0  0  0  0  0  0  0  0  0  0  0  0
    4.4395    0.0536   -0.6063 H   0  0  0  0  0  0  0  0  0  0  0  0
    1.4020    1.5216   -1.2231 H   0  0  0  0  0  0  0  0  0  0  0  0
    0.8815    1.5213    0.5710 H   0  0  0  0  0  0  0  0  0  0  0  0
  1  2  1  0
  2  3  1  0
  2  4  1  0
  4  5  1  0
  5  6  1  0
  6  7  1  0
  7  8  1  0
  7  9  1  0
  9  5  1  0
  1 10  1  0
  1 11  1  0
  1 12  1  0
  2 13  1  0
  3 14  1  0
  3 15  1  0
  3 16  1  0
  4 17  1  0
  4 18  1  0
  5 19  1  0
  6 20  1  0
  6 21  1  0
  7 22  1  0
  8 23  1  0
  9 24  1  0
  9 25  1  0
M  END
