
     RDKit          3D

 23 24  0  0  0  0  0  0  0  0999 V2000
   -2.4332   -0.3731   -1.1010 C   0  0  0  0  0  0  0  0  0  0  0  0
   -1.5583   -0.3168    0.1569 C   0  0  0  0  0  0  0  0  0  0  0  0
   -1.7923    0.9996    0.8143 C   0  0  0  0  0  0  0  0  0  0  0  0
   -0.1744   -0.6056   -0.2443 C   0  0  0  0  0  0  0  0  0  0  0  0
    0.9009   -0.6191    0.7780 C   0  0  0  0  0  0  0  0  0  0  0  0
    0.8257    0.7616    0.8084 O   0  0  0  0  0  0  0  0  0  0  0  0
    0.7439    0.5157   -0.5568 C   0  0  0  0  0  0  0  0  0  0  0  0
    1.8741   -0.4547   -0.3565 C   0  0  0  0  0  0  0  0  0  0  0  0
    3.1964    0.1446   -0.0068 C   0  0  0  0  0  0  0  0  0  0  0  0
   -1.8705   -0.7800   -1.9655 H   0  0  0  0  0  0  0  0  0  0  0  0
   -2.7276    0.6682   -1.4085 H   0  0  0  0  0  0  0  0  0  0  0  0
   -3.3166   -1.0133   -0.9565 H   0  0  0  0  0  0  0  0  0  0  0  0
   -1.9649   -1.1087    0.8472 H   0  0  0  0  0  0  0  0  0  0  0  0
   -2.8842    1.2503    0.6660 H   0  0  0  0  0  0  0  0  0  0  0  0
   -1.6940    0.9253    1.9379 H   0  0  0  0  0  0  0  0  0  0  0  0
   -1.2268    1.8378    0.4035 H   0  0  0  0  0  0  0  0  0  0  0  0
   -0.1212   -1.4336   -0.9828 H   0  0  0  0  0  0  0  0  0  0  0  0
    1.0072   -1.2399    1.5669 H   0  0  0  0  0  0  0  0  0  0  0  0
    0.6710    1.2049   -1.2866 H   0  0  0  0  0  0  0  0  0  0  0  0
    1.9184   -1.3053   -1.0691 H   0  0  0  0  0  0  0  0  0  0  0  0
    3.8405    0.0879   -0.9157 H   0  0  0  0  0  0  0  0  0  0  0  0
    3.0479    1.2280    0.1851 H   0  0  0  0  0  0  0  0  0  0  0  0
    3.7381   -0.3737    0.7992 H   0  0  0  0  0  0  0  0  0  0  0  0
  1  2  1  0
  2  3  1  0
  2  4  1  0
  4  5  1  0
  5  6  1  0
  6  7  1  0
  7  8  1  0
  8  9  1  0
  7  4  1  0
  8  5  1  0
  1 10  1  0
  1 11  1  0
  1 12  1  0
  2 13  1  0
  3 14  1  0
  3 15  1  0
  3 16  1  0
  4 17  1  0
  5 18  1  0
  7 19  1  0
  8 20  1  0
  9 21  1  0
  9 22  1  0
  9 23  1  0
M  END
