
     RDKit          3D

 25 25  0  0  0  0  0  0  0  0999 V2000
   -2.1543   -0.1681   -1.0264 C   0  0  0  0  0  0  0  0  0  0  0  0
   -1.6430   -0.0780    0.3643 C   0  0  0  0  0  0  0  0  0  0  0  0
   -1.6447   -1.4283    1.0300 C   0  0  0  0  0  0  0  0  0  0  0  0
   -0.2505    0.4973    0.4729 C   0  0  0  0  0  0  0  0  0  0  0  0
   -0.1501    1.8851   -0.0709 C   0  0  0  0  0  0  0  0  0  0  0  0
    0.7854   -0.3951   -0.1538 C   0  0  0  0  0  0  0  0  0  0  0  0
    2.1479    0.2350   -0.0106 C   0  0  0  0  0  0  0  0  0  0  0  0
    3.3605   -0.3367   -0.4895 C   0  0  0  0  0  0  0  0  0  0  0  0
    3.0468   -0.4213    0.9087 O   0  0  0  0  0  0  0  0  0  0  0  0
   -2.7580    0.7078   -1.3460 H   0  0  0  0  0  0  0  0  0  0  0  0
   -2.8637   -1.0433   -1.0636 H   0  0  0  0  0  0  0  0  0  0  0  0
   -1.3703   -0.4184   -1.7842 H   0  0  0  0  0  0  0  0  0  0  0  0
   -2.3135    0.6042    0.9405 H   0  0  0  0  0  0  0  0  0  0  0  0
   -1.7138   -2.2711    0.3017 H   0  0  0  0  0  0  0  0  0  0  0  0
   -2.5481   -1.5101    1.6916 H   0  0  0  0  0  0  0  0  0  0  0  0
   -0.7238   -1.6113    1.6244 H   0  0  0  0  0  0  0  0  0  0  0  0
   -0.0318    0.5496    1.5606 H   0  0  0  0  0  0  0  0  0  0  0  0
    0.4923    2.4842    0.6034 H   0  0  0  0  0  0  0  0  0  0  0  0
   -1.1554    2.3521   -0.0386 H   0  0  0  0  0  0  0  0  0  0  0  0
    0.3115    1.9404   -1.0756 H   0  0  0  0  0  0  0  0  0  0  0  0
    0.6092   -0.5013   -1.2609 H   0  0  0  0  0  0  0  0  0  0  0  0
    0.8104   -1.3997    0.2947 H   0  0  0  0  0  0  0  0  0  0  0  0
    2.1104    1.3330    0.1680 H   0  0  0  0  0  0  0  0  0  0  0  0
    3.4228   -1.3314   -0.9480 H   0  0  0  0  0  0  0  0  0  0  0  0
    4.2239    0.3254   -0.6926 H   0  0  0  0  0  0  0  0  0  0  0  0
  1  2  1  0
  2  3  1  0
  2  4  1  0
  4  5  1  0
  4  6  1  0
  6  7  1  0
  7  8  1  0
  8  9  1  0
  9  7  1  0
  1 10  1  0
  1 11  1  0
  1 12  1  0
  2 13  1  0
  3 14  1  0
  3 15  1  0
  3 16  1  0
  4 17  1  0
  5 18  1  0
  5 19  1  0
  5 20  1  0
  6 21  1  0
  6 22  1  0
  7 23  1  0
  8 24  1  0
  8 25  1  0
M  END
