
     RDKit          3D

 19 18  0  0  0  0  0  0  0  0999 V2000
   -1.6114    0.1360    1.2148 C   0  0  0  0  0  0  0  0  0  0  0  0
   -1.3104    0.3484   -0.2303 C   0  0  0  0  0  0  0  0  0  0  0  0
   -2.3738   -0.1689   -1.1601 C   0  0  0  0  0  0  0  0  0  0  0  0
   -0.0134   -0.2699   -0.5616 C   0  0  0  0  0  0  0  0  0  0  0  0
    0.1328   -1.1698   -1.4044 O   0  0  0  0  0  0  0  0  0  0  0  0
    1.1095    0.1855    0.1126 O   0  0  0  0  0  0  0  0  0  0  0  0
    2.3996   -0.3044   -0.0957 C   0  0  0  0  0  0  0  0  0  0  0  0
    3.3300    0.4235    0.8032 C   0  0  0  0  0  0  0  0  0  0  0  0
    2.9245    1.2782    1.5488 O   0  0  0  0  0  0  0  0  0  0  0  0
   -1.9458   -0.8919    1.4534 H   0  0  0  0  0  0  0  0  0  0  0  0
   -0.6654    0.2876    1.7828 H   0  0  0  0  0  0  0  0  0  0  0  0
   -2.3223    0.9051    1.5955 H   0  0  0  0  0  0  0  0  0  0  0  0
   -1.2650    1.4624   -0.3959 H   0  0  0  0  0  0  0  0  0  0  0  0
   -2.2120    0.3464   -2.1526 H   0  0  0  0  0  0  0  0  0  0  0  0
   -2.3105   -1.2400   -1.3682 H   0  0  0  0  0  0  0  0  0  0  0  0
   -3.3873    0.1682   -0.8385 H   0  0  0  0  0  0  0  0  0  0  0  0
    2.4222   -1.4104    0.1253 H   0  0  0  0  0  0  0  0  0  0  0  0
    2.7146   -0.2236   -1.1729 H   0  0  0  0  0  0  0  0  0  0  0  0
    4.3840    0.1375    0.7437 H   0  0  0  0  0  0  0  0  0  0  0  0
  1  2  1  0
  2  3  1  0
  2  4  1  0
  4  5  2  0
  4  6  1  0
  6  7  1  0
  7  8  1  0
  8  9  2  0
  1 10  1  0
  1 11  1  0
  1 12  1  0
  2 13  1  0
  3 14  1  0
  3 15  1  0
  3 16  1  0
  7 17  1  0
  7 18  1  0
  8 19  1  0
M  END
