
     RDKit          3D

 23 25  0  0  0  0  0  0  0  0999 V2000
   -1.5176    1.2777   -0.6088 C   0  0  0  0  0  0  0  0  0  0  0  0
   -1.1922   -0.1897   -0.5154 C   0  0  0  0  0  0  0  0  0  0  0  0
   -2.1507   -0.8089    0.4849 C   0  0  0  0  0  0  0  0  0  0  0  0
    0.1986   -0.3822   -0.0044 C   0  0  0  0  0  0  0  0  0  0  0  0
    0.6723   -1.8017    0.1447 C   0  0  0  0  0  0  0  0  0  0  0  0
    1.2981   -0.8962   -0.8345 C   0  0  0  0  0  0  0  0  0  0  0  0
    2.2760    0.1090   -0.2628 C   0  0  0  0  0  0  0  0  0  0  0  0
    1.9167    1.5289   -0.4104 C   0  0  0  0  0  0  0  0  0  0  0  0
    1.0399    0.7347    0.4664 C   0  0  0  0  0  0  0  0  0  0  0  0
   -1.4205    1.6867    0.4369 H   0  0  0  0  0  0  0  0  0  0  0  0
   -0.8750    1.8276   -1.3089 H   0  0  0  0  0  0  0  0  0  0  0  0
   -2.6030    1.3745   -0.8603 H   0  0  0  0  0  0  0  0  0  0  0  0
   -1.3247   -0.6891   -1.5130 H   0  0  0  0  0  0  0  0  0  0  0  0
   -2.2096   -0.1024    1.3400 H   0  0  0  0  0  0  0  0  0  0  0  0
   -1.6780   -1.7312    0.8665 H   0  0  0  0  0  0  0  0  0  0  0  0
   -3.1451   -1.0056    0.0354 H   0  0  0  0  0  0  0  0  0  0  0  0
    1.1811   -1.9879    1.1324 H   0  0  0  0  0  0  0  0  0  0  0  0
    0.0124   -2.5984   -0.2174 H   0  0  0  0  0  0  0  0  0  0  0  0
    1.2356   -1.0421   -1.9096 H   0  0  0  0  0  0  0  0  0  0  0  0
    3.0766   -0.2569    0.3823 H   0  0  0  0  0  0  0  0  0  0  0  0
    2.5215    2.3113    0.0986 H   0  0  0  0  0  0  0  0  0  0  0  0
    1.5234    1.8337   -1.3932 H   0  0  0  0  0  0  0  0  0  0  0  0
    1.1642    0.8078    1.5767 H   0  0  0  0  0  0  0  0  0  0  0  0
  1  2  1  0
  2  3  1  0
  2  4  1  0
  4  5  1  0
  5  6  1  0
  6  7  1  0
  7  8  1  0
  8  9  1  0
  6  4  1  0
  9  7  1  0
  9  4  1  0
  1 10  1  0
  1 11  1  0
  1 12  1  0
  2 13  1  0
  3 14  1  0
  3 15  1  0
  3 16  1  0
  5 17  1  0
  5 18  1  0
  6 19  1  0
  7 20  1  0
  8 21  1  0
  8 22  1  0
  9 23  1  0
M  END
