
     RDKit          3D

 23 24  0  0  0  0  0  0  0  0999 V2000
   -0.6691   -0.6316    1.5577 C   0  0  0  0  0  0  0  0  0  0  0  0
   -0.1295   -0.8131    0.1283 C   0  0  0  0  0  0  0  0  0  0  0  0
   -0.8220    0.1115   -0.7887 C   0  0  0  0  0  0  0  0  0  0  0  0
   -2.3404   -0.0995   -0.8489 C   0  0  0  0  0  0  0  0  0  0  0  0
   -1.7496    1.1681   -0.3458 C   0  0  0  0  0  0  0  0  0  0  0  0
    1.3349   -0.7457    0.1966 C   0  0  0  0  0  0  0  0  0  0  0  0
    1.8659    0.6088    0.7603 C   0  0  0  0  0  0  0  0  0  0  0  0
    2.2252    0.0804   -0.5927 C   0  0  0  0  0  0  0  0  0  0  0  0
    1.8500    0.8736   -1.6503 O   0  0  0  0  0  0  0  0  0  0  0  0
   -1.7224   -0.9079    1.6357 H   0  0  0  0  0  0  0  0  0  0  0  0
   -0.1050   -1.3997    2.1651 H   0  0  0  0  0  0  0  0  0  0  0  0
   -0.4405    0.3890    1.9284 H   0  0  0  0  0  0  0  0  0  0  0  0
   -0.4242   -1.8709   -0.1402 H   0  0  0  0  0  0  0  0  0  0  0  0
   -0.3879    0.2356   -1.8008 H   0  0  0  0  0  0  0  0  0  0  0  0
   -2.8384   -0.1536   -1.8251 H   0  0  0  0  0  0  0  0  0  0  0  0
   -2.8075   -0.7536   -0.0850 H   0  0  0  0  0  0  0  0  0  0  0  0
   -1.9015    2.0557   -0.9877 H   0  0  0  0  0  0  0  0  0  0  0  0
   -1.8226    1.3788    0.7312 H   0  0  0  0  0  0  0  0  0  0  0  0
    1.7941   -1.6445    0.7107 H   0  0  0  0  0  0  0  0  0  0  0  0
    1.1624    1.4396    0.8171 H   0  0  0  0  0  0  0  0  0  0  0  0
    2.5669    0.5435    1.6001 H   0  0  0  0  0  0  0  0  0  0  0  0
    3.2998   -0.2429   -0.6656 H   0  0  0  0  0  0  0  0  0  0  0  0
    2.0615    0.3783   -2.5005 H   0  0  0  0  0  0  0  0  0  0  0  0
  1  2  1  0
  2  3  1  0
  3  4  1  0
  4  5  1  0
  2  6  1  0
  6  7  1  0
  7  8  1  0
  8  9  1  0
  5  3  1  0
  8  6  1  0
  1 10  1  0
  1 11  1  0
  1 12  1  0
  2 13  1  0
  3 14  1  0
  4 15  1  0
  4 16  1  0
  5 17  1  0
  5 18  1  0
  6 19  1  0
  7 20  1  0
  7 21  1  0
  8 22  1  0
  9 23  1  0
M  END
