
     RDKit          3D

 24 23  0  0  0  0  0  0  0  0999 V2000
   -1.6575   -0.6879   -0.7961 C   0  0  0  0  0  0  0  0  0  0  0  0
   -0.8083   -0.4079    0.4097 C   0  0  0  0  0  0  0  0  0  0  0  0
   -1.7136    0.1233    1.4955 C   0  0  0  0  0  0  0  0  0  0  0  0
    0.3333    0.5289    0.1182 C   0  0  0  0  0  0  0  0  0  0  0  0
   -0.1170    1.8725   -0.3813 C   0  0  0  0  0  0  0  0  0  0  0  0
    1.3445   -0.0341   -0.8179 C   0  0  0  0  0  0  0  0  0  0  0  0
    1.9862   -1.3071   -0.2874 C   0  0  0  0  0  0  0  0  0  0  0  0
    2.6372   -1.0642    0.9333 O   0  0  0  0  0  0  0  0  0  0  0  0
   -1.2709   -1.6024   -1.3286 H   0  0  0  0  0  0  0  0  0  0  0  0
   -1.7690    0.1689   -1.4761 H   0  0  0  0  0  0  0  0  0  0  0  0
   -2.6704   -0.9884   -0.4299 H   0  0  0  0  0  0  0  0  0  0  0  0
   -0.3914   -1.3770    0.7524 H   0  0  0  0  0  0  0  0  0  0  0  0
   -2.3731   -0.7012    1.8440 H   0  0  0  0  0  0  0  0  0  0  0  0
   -2.4057    0.8675    1.0206 H   0  0  0  0  0  0  0  0  0  0  0  0
   -1.1668    0.5475    2.3498 H   0  0  0  0  0  0  0  0  0  0  0  0
    0.8492    0.7120    1.0933 H   0  0  0  0  0  0  0  0  0  0  0  0
    0.5752    2.6952   -0.1011 H   0  0  0  0  0  0  0  0  0  0  0  0
   -1.1206    2.1582   -0.0106 H   0  0  0  0  0  0  0  0  0  0  0  0
   -0.1938    1.8935   -1.4975 H   0  0  0  0  0  0  0  0  0  0  0  0
    0.9614   -0.2768   -1.8218 H   0  0  0  0  0  0  0  0  0  0  0  0
    2.1762    0.6848   -0.9658 H   0  0  0  0  0  0  0  0  0  0  0  0
    2.8153   -1.5965   -0.9985 H   0  0  0  0  0  0  0  0  0  0  0  0
    1.2378   -2.1148   -0.2164 H   0  0  0  0  0  0  0  0  0  0  0  0
    2.7420   -0.0938    1.1120 H   0  0  0  0  0  0  0  0  0  0  0  0
  1  2  1  0
  2  3  1  0
  2  4  1  0
  4  5  1  0
  4  6  1  0
  6  7  1  0
  7  8  1  0
  1  9  1  0
  1 10  1  0
  1 11  1  0
  2 12  1  0
  3 13  1  0
  3 14  1  0
  3 15  1  0
  4 16  1  0
  5 17  1  0
  5 18  1  0
  5 19  1  0
  6 20  1  0
  6 21  1  0
  7 22  1  0
  7 23  1  0
  8 24  1  0
M  END
