
     RDKit          3D

 27 26  0  0  0  0  0  0  0  0999 V2000
   -2.3660   -0.5704    0.6956 C   0  0  0  0  0  0  0  0  0  0  0  0
   -0.9303   -0.7607    0.1823 C   0  0  0  0  0  0  0  0  0  0  0  0
   -1.0312   -1.0653   -1.2841 C   0  0  0  0  0  0  0  0  0  0  0  0
   -0.1083    0.4763    0.4798 C   0  0  0  0  0  0  0  0  0  0  0  0
   -0.7214    1.6620   -0.2031 C   0  0  0  0  0  0  0  0  0  0  0  0
    0.0145    2.8180    0.0525 O   0  0  0  0  0  0  0  0  0  0  0  0
    1.3385    0.3100    0.3078 C   0  0  0  0  0  0  0  0  0  0  0  0
    1.8536   -0.0665   -1.0175 C   0  0  0  0  0  0  0  0  0  0  0  0
    1.8326   -0.7385    1.3135 C   0  0  0  0  0  0  0  0  0  0  0  0
   -3.0384   -0.2243   -0.0988 H   0  0  0  0  0  0  0  0  0  0  0  0
   -2.7241   -1.4797    1.2245 H   0  0  0  0  0  0  0  0  0  0  0  0
   -2.3040    0.2250    1.4663 H   0  0  0  0  0  0  0  0  0  0  0  0
   -0.5403   -1.6543    0.6932 H   0  0  0  0  0  0  0  0  0  0  0  0
   -0.5714   -2.0697   -1.5224 H   0  0  0  0  0  0  0  0  0  0  0  0
   -0.5548   -0.3446   -1.9442 H   0  0  0  0  0  0  0  0  0  0  0  0
   -2.1016   -1.1934   -1.6233 H   0  0  0  0  0  0  0  0  0  0  0  0
   -0.2812    0.6580    1.5874 H   0  0  0  0  0  0  0  0  0  0  0  0
   -1.7210    1.8326    0.2975 H   0  0  0  0  0  0  0  0  0  0  0  0
   -0.9365    1.5361   -1.2583 H   0  0  0  0  0  0  0  0  0  0  0  0
    0.8173    2.8881   -0.5101 H   0  0  0  0  0  0  0  0  0  0  0  0
    1.8383    1.2590    0.6271 H   0  0  0  0  0  0  0  0  0  0  0  0
    1.6191   -1.1241   -1.2987 H   0  0  0  0  0  0  0  0  0  0  0  0
    2.9839   -0.0608   -0.9468 H   0  0  0  0  0  0  0  0  0  0  0  0
    1.6299    0.6318   -1.8420 H   0  0  0  0  0  0  0  0  0  0  0  0
    1.3861   -0.6002    2.3012 H   0  0  0  0  0  0  0  0  0  0  0  0
    1.6945   -1.7663    0.9097 H   0  0  0  0  0  0  0  0  0  0  0  0
    2.9221   -0.5781    1.4110 H   0  0  0  0  0  0  0  0  0  0  0  0
  1  2  1  0
  2  3  1  0
  2  4  1  0
  4  5  1  0
  5  6  1  0
  4  7  1  0
  7  8  1  0
  7  9  1  0
  1 10  1  0
  1 11  1  0
  1 12  1  0
  2 13  1  0
  3 14  1  0
  3 15  1  0
  3 16  1  0
  4 17  1  0
  5 18  1  0
  5 19  1  0
  6 20  1  0
  7 21  1  0
  8 22  1  0
  8 23  1  0
  8 24  1  0
  9 25  1  0
  9 26  1  0
  9 27  1  0
M  END
