
     RDKit          3D

 23 23  0  0  0  0  0  0  0  0999 V2000
    2.0208    0.2021    0.9159 C   0  0  0  0  0  0  0  0  0  0  0  0
    1.3476   -0.6305   -0.1416 C   0  0  0  0  0  0  0  0  0  0  0  0
    1.6001    0.0466   -1.4638 C   0  0  0  0  0  0  0  0  0  0  0  0
   -0.0423   -0.9832    0.1384 C   0  0  0  0  0  0  0  0  0  0  0  0
   -1.0575    0.0753    0.3142 C   0  0  0  0  0  0  0  0  0  0  0  0
   -1.0042    1.1048    1.3610 C   0  0  0  0  0  0  0  0  0  0  0  0
   -1.8701    1.9573    1.4281 O   0  0  0  0  0  0  0  0  0  0  0  0
   -2.5007   -0.4277    0.1006 C   0  0  0  0  0  0  0  0  0  0  0  0
   -1.9121    0.4696   -0.9153 C   0  0  0  0  0  0  0  0  0  0  0  0
    3.1496    0.1427    0.8081 H   0  0  0  0  0  0  0  0  0  0  0  0
    1.8032    1.2785    0.8545 H   0  0  0  0  0  0  0  0  0  0  0  0
    1.7777   -0.1423    1.9438 H   0  0  0  0  0  0  0  0  0  0  0  0
    1.9486   -1.5891   -0.1943 H   0  0  0  0  0  0  0  0  0  0  0  0
    1.4119    1.1590   -1.3982 H   0  0  0  0  0  0  0  0  0  0  0  0
    2.6925   -0.0363   -1.6557 H   0  0  0  0  0  0  0  0  0  0  0  0
    1.0866   -0.4185   -2.3102 H   0  0  0  0  0  0  0  0  0  0  0  0
   -0.0504   -1.6215    1.0743 H   0  0  0  0  0  0  0  0  0  0  0  0
   -0.4297   -1.7066   -0.6400 H   0  0  0  0  0  0  0  0  0  0  0  0
   -0.2096    1.1260    2.0812 H   0  0  0  0  0  0  0  0  0  0  0  0
   -3.2936   -0.0997    0.7794 H   0  0  0  0  0  0  0  0  0  0  0  0
   -2.6460   -1.4756   -0.2364 H   0  0  0  0  0  0  0  0  0  0  0  0
   -1.5554    0.0658   -1.8852 H   0  0  0  0  0  0  0  0  0  0  0  0
   -2.2670    1.5032   -0.9589 H   0  0  0  0  0  0  0  0  0  0  0  0
  1  2  1  0
  2  3  1  0
  2  4  1  0
  4  5  1  0
  5  6  1  0
  6  7  2  0
  5  8  1  0
  8  9  1  0
  9  5  1  0
  1 10  1  0
  1 11  1  0
  1 12  1  0
  2 13  1  0
  3 14  1  0
  3 15  1  0
  3 16  1  0
  4 17  1  0
  4 18  1  0
  6 19  1  0
  8 20  1  0
  8 21  1  0
  9 22  1  0
  9 23  1  0
M  END
