
     RDKit          3D

 25 25  0  0  0  0  0  0  0  0999 V2000
    2.4155   -0.6525    0.0300 C   0  0  0  0  0  0  0  0  0  0  0  0
    1.0952   -0.1609   -0.5296 C   0  0  0  0  0  0  0  0  0  0  0  0
    1.3001    1.2893   -0.9142 C   0  0  0  0  0  0  0  0  0  0  0  0
    0.0298   -0.2887    0.5286 C   0  0  0  0  0  0  0  0  0  0  0  0
   -0.1515   -1.7178    0.9838 C   0  0  0  0  0  0  0  0  0  0  0  0
   -1.2817    0.3028    0.1188 C   0  0  0  0  0  0  0  0  0  0  0  0
   -2.0304   -0.1814   -1.0747 C   0  0  0  0  0  0  0  0  0  0  0  0
   -1.7623    1.5528    0.8370 C   0  0  0  0  0  0  0  0  0  0  0  0
   -2.1844    0.3103    1.2820 O   0  0  0  0  0  0  0  0  0  0  0  0
    3.2042   -0.3354   -0.6929 H   0  0  0  0  0  0  0  0  0  0  0  0
    2.4230   -1.7339    0.2312 H   0  0  0  0  0  0  0  0  0  0  0  0
    2.6008   -0.0459    0.9542 H   0  0  0  0  0  0  0  0  0  0  0  0
    0.8780   -0.7767   -1.4197 H   0  0  0  0  0  0  0  0  0  0  0  0
    2.2502    1.4148   -1.4707 H   0  0  0  0  0  0  0  0  0  0  0  0
    1.4495    1.8408    0.0529 H   0  0  0  0  0  0  0  0  0  0  0  0
    0.4241    1.7208   -1.4365 H   0  0  0  0  0  0  0  0  0  0  0  0
    0.3892    0.2805    1.4136 H   0  0  0  0  0  0  0  0  0  0  0  0
   -0.5673   -2.3629    0.1793 H   0  0  0  0  0  0  0  0  0  0  0  0
   -0.8785   -1.6781    1.8422 H   0  0  0  0  0  0  0  0  0  0  0  0
    0.7687   -2.1492    1.3853 H   0  0  0  0  0  0  0  0  0  0  0  0
   -2.3602   -1.2535   -0.9379 H   0  0  0  0  0  0  0  0  0  0  0  0
   -2.9854    0.3934   -1.1281 H   0  0  0  0  0  0  0  0  0  0  0  0
   -1.5212   -0.0350   -2.0286 H   0  0  0  0  0  0  0  0  0  0  0  0
   -2.4656    2.2170    0.3006 H   0  0  0  0  0  0  0  0  0  0  0  0
   -1.0398    2.0492    1.4935 H   0  0  0  0  0  0  0  0  0  0  0  0
  1  2  1  0
  2  3  1  0
  2  4  1  0
  4  5  1  0
  4  6  1  0
  6  7  1  0
  6  8  1  0
  8  9  1  0
  9  6  1  0
  1 10  1  0
  1 11  1  0
  1 12  1  0
  2 13  1  0
  3 14  1  0
  3 15  1  0
  3 16  1  0
  4 17  1  0
  5 18  1  0
  5 19  1  0
  5 20  1  0
  7 21  1  0
  7 22  1  0
  7 23  1  0
  8 24  1  0
  8 25  1  0
M  END
