
     RDKit          3D

 23 23  0  0  0  0  0  0  0  0999 V2000
   -2.0948   -1.2030    0.1724 C   0  0  0  0  0  0  0  0  0  0  0  0
   -1.1141   -0.2434   -0.4031 C   0  0  0  0  0  0  0  0  0  0  0  0
   -1.7285    1.1441   -0.5416 C   0  0  0  0  0  0  0  0  0  0  0  0
    0.1295   -0.0788    0.4380 C   0  0  0  0  0  0  0  0  0  0  0  0
    0.8767   -1.3773    0.6145 C   0  0  0  0  0  0  0  0  0  0  0  0
    2.1429   -0.9168    0.9953 O   0  0  0  0  0  0  0  0  0  0  0  0
    2.4557    0.1089    0.1293 C   0  0  0  0  0  0  0  0  0  0  0  0
    1.1589    0.7775   -0.2671 C   0  0  0  0  0  0  0  0  0  0  0  0
    1.1150    2.1059    0.1671 O   0  0  0  0  0  0  0  0  0  0  0  0
   -2.4124   -0.9567    1.2024 H   0  0  0  0  0  0  0  0  0  0  0  0
   -1.6683   -2.2167    0.1854 H   0  0  0  0  0  0  0  0  0  0  0  0
   -2.9856   -1.2238   -0.4700 H   0  0  0  0  0  0  0  0  0  0  0  0
   -0.8400   -0.5732   -1.4130 H   0  0  0  0  0  0  0  0  0  0  0  0
   -2.0031    1.5705    0.4540 H   0  0  0  0  0  0  0  0  0  0  0  0
   -2.5904    1.1098   -1.2349 H   0  0  0  0  0  0  0  0  0  0  0  0
   -0.9190    1.7951   -0.9420 H   0  0  0  0  0  0  0  0  0  0  0  0
   -0.0638    0.3652    1.4168 H   0  0  0  0  0  0  0  0  0  0  0  0
    0.4366   -2.0030    1.3981 H   0  0  0  0  0  0  0  0  0  0  0  0
    1.0143   -1.9010   -0.3536 H   0  0  0  0  0  0  0  0  0  0  0  0
    3.1380    0.8594    0.5615 H   0  0  0  0  0  0  0  0  0  0  0  0
    2.9493   -0.3323   -0.7582 H   0  0  0  0  0  0  0  0  0  0  0  0
    0.9990    0.6639   -1.3424 H   0  0  0  0  0  0  0  0  0  0  0  0
    2.0039    2.5256   -0.0088 H   0  0  0  0  0  0  0  0  0  0  0  0
  1  2  1  0
  2  3  1  0
  2  4  1  0
  4  5  1  0
  5  6  1  0
  6  7  1  0
  7  8  1  0
  8  9  1  0
  8  4  1  0
  1 10  1  0
  1 11  1  0
  1 12  1  0
  2 13  1  0
  3 14  1  0
  3 15  1  0
  3 16  1  0
  4 17  1  0
  5 18  1  0
  5 19  1  0
  7 20  1  0
  7 21  1  0
  8 22  1  0
  9 23  1  0
M  END
