
     RDKit          3D

 25 25  0  0  0  0  0  0  0  0999 V2000
   -2.0058   -0.8352    1.1383 C   0  0  0  0  0  0  0  0  0  0  0  0
   -1.3609    0.4565    0.6891 C   0  0  0  0  0  0  0  0  0  0  0  0
   -2.4585    1.3224    0.1109 C   0  0  0  0  0  0  0  0  0  0  0  0
   -0.3582    0.1265   -0.4173 C   0  0  0  0  0  0  0  0  0  0  0  0
    0.2537    1.2932   -0.8538 O   0  0  0  0  0  0  0  0  0  0  0  0
    0.6162   -0.9305    0.0271 C   0  0  0  0  0  0  0  0  0  0  0  0
    1.4963   -0.7119    1.1946 C   0  0  0  0  0  0  0  0  0  0  0  0
    2.0487   -0.8679   -0.2218 C   0  0  0  0  0  0  0  0  0  0  0  0
    2.7684    0.3492   -0.7131 C   0  0  0  0  0  0  0  0  0  0  0  0
   -2.7897   -0.5765    1.9005 H   0  0  0  0  0  0  0  0  0  0  0  0
   -1.2725   -1.5460    1.5501 H   0  0  0  0  0  0  0  0  0  0  0  0
   -2.5120   -1.2869    0.2741 H   0  0  0  0  0  0  0  0  0  0  0  0
   -0.8823    0.9288    1.5531 H   0  0  0  0  0  0  0  0  0  0  0  0
   -3.3186    1.3530    0.7996 H   0  0  0  0  0  0  0  0  0  0  0  0
   -2.0847    2.3271   -0.1659 H   0  0  0  0  0  0  0  0  0  0  0  0
   -2.7898    0.8353   -0.8325 H   0  0  0  0  0  0  0  0  0  0  0  0
   -0.9693   -0.2477   -1.2651 H   0  0  0  0  0  0  0  0  0  0  0  0
    0.4605    1.1836   -1.8082 H   0  0  0  0  0  0  0  0  0  0  0  0
    0.1595   -1.9649   -0.0073 H   0  0  0  0  0  0  0  0  0  0  0  0
    1.5407    0.2770    1.6777 H   0  0  0  0  0  0  0  0  0  0  0  0
    1.7629   -1.5633    1.8741 H   0  0  0  0  0  0  0  0  0  0  0  0
    2.6007   -1.8220   -0.4522 H   0  0  0  0  0  0  0  0  0  0  0  0
    2.7377    0.4286   -1.8211 H   0  0  0  0  0  0  0  0  0  0  0  0
    2.4952    1.2815   -0.1938 H   0  0  0  0  0  0  0  0  0  0  0  0
    3.8616    0.1902   -0.4735 H   0  0  0  0  0  0  0  0  0  0  0  0
  1  2  1  0
  2  3  1  0
  2  4  1  0
  4  5  1  0
  4  6  1  0
  6  7  1  0
  7  8  1  0
  8  9  1  0
  8  6  1  0
  1 10  1  0
  1 11  1  0
  1 12  1  0
  2 13  1  0
  3 14  1  0
  3 15  1  0
  3 16  1  0
  4 17  1  0
  5 18  1  0
  6 19  1  0
  7 20  1  0
  7 21  1  0
  8 22  1  0
  9 23  1  0
  9 24  1  0
  9 25  1  0
M  END
