
     RDKit          3D

 23 23  0  0  0  0  0  0  0  0999 V2000
   -1.0367   -1.2047   -0.5754 C   0  0  0  0  0  0  0  0  0  0  0  0
   -0.8749    0.1428    0.0845 C   0  0  0  0  0  0  0  0  0  0  0  0
   -0.7366    0.0952    1.5760 C   0  0  0  0  0  0  0  0  0  0  0  0
   -2.2067    0.8753   -0.2123 C   0  0  0  0  0  0  0  0  0  0  0  0
    0.2172    0.9364   -0.4860 C   0  0  0  0  0  0  0  0  0  0  0  0
   -0.1118    2.0771   -0.8883 O   0  0  0  0  0  0  0  0  0  0  0  0
    1.6213    0.5962   -0.6522 C   0  0  0  0  0  0  0  0  0  0  0  0
    2.2992   -0.1705    0.4847 C   0  0  0  0  0  0  0  0  0  0  0  0
    2.1372   -0.7567   -0.8932 C   0  0  0  0  0  0  0  0  0  0  0  0
   -0.6949   -1.2322   -1.6065 H   0  0  0  0  0  0  0  0  0  0  0  0
   -2.1285   -1.4999   -0.6098 H   0  0  0  0  0  0  0  0  0  0  0  0
   -0.5843   -1.9560    0.1048 H   0  0  0  0  0  0  0  0  0  0  0  0
   -0.5137   -0.9193    1.9757 H   0  0  0  0  0  0  0  0  0  0  0  0
   -1.7099    0.4110    2.0205 H   0  0  0  0  0  0  0  0  0  0  0  0
   -0.0143    0.8726    1.9249 H   0  0  0  0  0  0  0  0  0  0  0  0
   -3.0351    0.1388   -0.2641 H   0  0  0  0  0  0  0  0  0  0  0  0
   -2.0947    1.4597   -1.1506 H   0  0  0  0  0  0  0  0  0  0  0  0
   -2.4242    1.6032    0.6030 H   0  0  0  0  0  0  0  0  0  0  0  0
    2.2461    1.4235   -1.1151 H   0  0  0  0  0  0  0  0  0  0  0  0
    3.2959    0.2285    0.7861 H   0  0  0  0  0  0  0  0  0  0  0  0
    1.7110   -0.6089    1.2980 H   0  0  0  0  0  0  0  0  0  0  0  0
    3.0842   -0.8379   -1.4795 H   0  0  0  0  0  0  0  0  0  0  0  0
    1.5542   -1.6740   -0.9251 H   0  0  0  0  0  0  0  0  0  0  0  0
  1  2  1  0
  2  3  1  0
  2  4  1  0
  2  5  1  0
  5  6  2  0
  5  7  1  0
  7  8  1  0
  8  9  1  0
  9  7  1  0
  1 10  1  0
  1 11  1  0
  1 12  1  0
  3 13  1  0
  3 14  1  0
  3 15  1  0
  4 16  1  0
  4 17  1  0
  4 18  1  0
  7 19  1  0
  8 20  1  0
  8 21  1  0
  9 22  1  0
  9 23  1  0
M  END
