
     RDKit          3D

 23 23  0  0  0  0  0  0  0  0999 V2000
   -2.0368    0.8583   -0.8643 C   0  0  0  0  0  0  0  0  0  0  0  0
   -1.4888    0.2837    0.4395 C   0  0  0  0  0  0  0  0  0  0  0  0
   -2.2247   -0.9292    0.8657 C   0  0  0  0  0  0  0  0  0  0  0  0
   -0.0362    0.0956    0.2481 C   0  0  0  0  0  0  0  0  0  0  0  0
    0.7011   -1.0009    0.4030 C   0  0  0  0  0  0  0  0  0  0  0  0
    2.1394   -0.7057    0.0924 C   0  0  0  0  0  0  0  0  0  0  0  0
    3.0081   -1.3729    0.9218 O   0  0  0  0  0  0  0  0  0  0  0  0
    2.1832    0.7829    0.4091 C   0  0  0  0  0  0  0  0  0  0  0  0
    0.8553    1.2233   -0.1823 C   0  0  0  0  0  0  0  0  0  0  0  0
   -1.4359    0.5119   -1.7370 H   0  0  0  0  0  0  0  0  0  0  0  0
   -3.1072    0.5735   -0.9595 H   0  0  0  0  0  0  0  0  0  0  0  0
   -1.9477    1.9618   -0.8557 H   0  0  0  0  0  0  0  0  0  0  0  0
   -1.6267    1.0782    1.2136 H   0  0  0  0  0  0  0  0  0  0  0  0
   -1.6388   -1.8230    1.0496 H   0  0  0  0  0  0  0  0  0  0  0  0
   -2.8217   -0.7420    1.8054 H   0  0  0  0  0  0  0  0  0  0  0  0
   -2.9661   -1.1896    0.0547 H   0  0  0  0  0  0  0  0  0  0  0  0
    0.3636   -1.9627    0.7006 H   0  0  0  0  0  0  0  0  0  0  0  0
    2.3614   -0.8246   -0.9841 H   0  0  0  0  0  0  0  0  0  0  0  0
    3.0963   -2.3198    0.6900 H   0  0  0  0  0  0  0  0  0  0  0  0
    3.0425    1.2791   -0.0387 H   0  0  0  0  0  0  0  0  0  0  0  0
    2.1258    0.8649    1.5163 H   0  0  0  0  0  0  0  0  0  0  0  0
    0.9358    1.1631   -1.2692 H   0  0  0  0  0  0  0  0  0  0  0  0
    0.5180    2.1943    0.2097 H   0  0  0  0  0  0  0  0  0  0  0  0
  1  2  1  0
  2  3  1  0
  2  4  1  0
  4  5  2  0
  5  6  1  0
  6  7  1  0
  6  8  1  0
  8  9  1  0
  9  4  1  0
  1 10  1  0
  1 11  1  0
  1 12  1  0
  2 13  1  0
  3 14  1  0
  3 15  1  0
  3 16  1  0
  5 17  1  0
  6 18  1  0
  7 19  1  0
  8 20  1  0
  8 21  1  0
  9 22  1  0
  9 23  1  0
M  END
