
     RDKit          3D

 21 21  0  0  0  0  0  0  0  0999 V2000
   -1.6248    0.9779   -0.4290 C   0  0  0  0  0  0  0  0  0  0  0  0
   -1.1395   -0.3865   -0.0913 C   0  0  0  0  0  0  0  0  0  0  0  0
   -1.9387   -0.9444    1.0495 C   0  0  0  0  0  0  0  0  0  0  0  0
    0.3434   -0.4398    0.1783 C   0  0  0  0  0  0  0  0  0  0  0  0
    1.1694    0.0013   -0.9881 C   0  0  0  0  0  0  0  0  0  0  0  0
    2.3545    0.5958   -0.2895 C   0  0  0  0  0  0  0  0  0  0  0  0
    3.3275    1.1593   -0.7573 O   0  0  0  0  0  0  0  0  0  0  0  0
    2.0977    0.3513    1.1561 C   0  0  0  0  0  0  0  0  0  0  0  0
    0.7110    0.4155    1.2222 O   0  0  0  0  0  0  0  0  0  0  0  0
   -1.3314    1.2056   -1.4729 H   0  0  0  0  0  0  0  0  0  0  0  0
   -1.1742    1.6959    0.2894 H   0  0  0  0  0  0  0  0  0  0  0  0
   -2.7258    0.9865   -0.3942 H   0  0  0  0  0  0  0  0  0  0  0  0
   -1.3186   -1.0439   -0.9799 H   0  0  0  0  0  0  0  0  0  0  0  0
   -2.7062   -0.2336    1.4249 H   0  0  0  0  0  0  0  0  0  0  0  0
   -2.5226   -1.8609    0.7421 H   0  0  0  0  0  0  0  0  0  0  0  0
   -1.3200   -1.2732    1.9031 H   0  0  0  0  0  0  0  0  0  0  0  0
    0.6500   -1.4660    0.4646 H   0  0  0  0  0  0  0  0  0  0  0  0
    0.7194    0.7664   -1.6143 H   0  0  0  0  0  0  0  0  0  0  0  0
    1.4491   -0.8808   -1.5935 H   0  0  0  0  0  0  0  0  0  0  0  0
    2.3784   -0.7046    1.3810 H   0  0  0  0  0  0  0  0  0  0  0  0
    2.6013    1.0781    1.8140 H   0  0  0  0  0  0  0  0  0  0  0  0
  1  2  1  0
  2  3  1  0
  2  4  1  0
  4  5  1  0
  5  6  1  0
  6  7  2  0
  6  8  1  0
  8  9  1  0
  9  4  1  0
  1 10  1  0
  1 11  1  0
  1 12  1  0
  2 13  1  0
  3 14  1  0
  3 15  1  0
  3 16  1  0
  4 17  1  0
  5 18  1  0
  5 19  1  0
  8 20  1  0
  8 21  1  0
M  END
