
     RDKit          3D

 23 23  0  0  0  0  0  0  0  0999 V2000
    2.0142    1.2906   -0.2224 C   0  0  0  0  0  0  0  0  0  0  0  0
    1.3856   -0.0678   -0.1593 C   0  0  0  0  0  0  0  0  0  0  0  0
    2.1406   -0.9608    0.8066 C   0  0  0  0  0  0  0  0  0  0  0  0
   -0.0583   -0.0388    0.2426 C   0  0  0  0  0  0  0  0  0  0  0  0
   -1.0771    0.6789   -0.5350 C   0  0  0  0  0  0  0  0  0  0  0  0
   -2.3368    1.1677    0.1536 C   0  0  0  0  0  0  0  0  0  0  0  0
   -1.0036   -0.7872   -0.7458 C   0  0  0  0  0  0  0  0  0  0  0  0
   -1.9670   -1.6962   -0.0908 C   0  0  0  0  0  0  0  0  0  0  0  0
   -2.2272   -2.7586   -0.6284 O   0  0  0  0  0  0  0  0  0  0  0  0
    2.7187    1.4058   -1.0874 H   0  0  0  0  0  0  0  0  0  0  0  0
    2.6612    1.4644    0.6842 H   0  0  0  0  0  0  0  0  0  0  0  0
    1.3044    2.1167   -0.2685 H   0  0  0  0  0  0  0  0  0  0  0  0
    1.5260   -0.5412   -1.1730 H   0  0  0  0  0  0  0  0  0  0  0  0
    3.1068   -1.3154    0.3583 H   0  0  0  0  0  0  0  0  0  0  0  0
    1.5227   -1.8977    0.9105 H   0  0  0  0  0  0  0  0  0  0  0  0
    2.2852   -0.4624    1.7788 H   0  0  0  0  0  0  0  0  0  0  0  0
   -0.2808   -0.1765    1.3234 H   0  0  0  0  0  0  0  0  0  0  0  0
   -0.7072    1.3528   -1.3349 H   0  0  0  0  0  0  0  0  0  0  0  0
   -3.1605    1.0449   -0.5860 H   0  0  0  0  0  0  0  0  0  0  0  0
   -2.5548    0.5379    1.0354 H   0  0  0  0  0  0  0  0  0  0  0  0
   -2.2677    2.2432    0.3958 H   0  0  0  0  0  0  0  0  0  0  0  0
   -0.5599   -1.1095   -1.6954 H   0  0  0  0  0  0  0  0  0  0  0  0
   -2.4645   -1.4910    0.8376 H   0  0  0  0  0  0  0  0  0  0  0  0
  1  2  1  0
  2  3  1  0
  2  4  1  0
  4  5  1  0
  5  6  1  0
  5  7  1  0
  7  8  1  0
  8  9  2  0
  7  4  1  0
  1 10  1  0
  1 11  1  0
  1 12  1  0
  2 13  1  0
  3 14  1  0
  3 15  1  0
  3 16  1  0
  4 17  1  0
  5 18  1  0
  6 19  1  0
  6 20  1  0
  6 21  1  0
  7 22  1  0
  8 23  1  0
M  END
