
     RDKit          3D

 22 21  0  0  0  0  0  0  0  0999 V2000
    0.5321    1.7934    0.4131 C   0  0  0  0  0  0  0  0  0  0  0  0
    0.4747    0.2757    0.5030 C   0  0  0  0  0  0  0  0  0  0  0  0
    1.8112   -0.2348    0.0144 C   0  0  0  0  0  0  0  0  0  0  0  0
    1.8241   -1.6282    0.0719 O   0  0  0  0  0  0  0  0  0  0  0  0
   -0.6215   -0.1977   -0.4128 C   0  0  0  0  0  0  0  0  0  0  0  0
   -1.9563    0.3552   -0.0455 C   0  0  0  0  0  0  0  0  0  0  0  0
   -0.7256   -1.6971   -0.4679 C   0  0  0  0  0  0  0  0  0  0  0  0
   -0.2798    0.2239   -1.7191 O   0  0  0  0  0  0  0  0  0  0  0  0
   -0.4479    2.2004    0.0977 H   0  0  0  0  0  0  0  0  0  0  0  0
    1.3434    2.1366   -0.2612 H   0  0  0  0  0  0  0  0  0  0  0  0
    0.8167    2.1414    1.4385 H   0  0  0  0  0  0  0  0  0  0  0  0
    0.2717   -0.0539    1.5399 H   0  0  0  0  0  0  0  0  0  0  0  0
    2.6448    0.1193    0.6567 H   0  0  0  0  0  0  0  0  0  0  0  0
    2.0177    0.1321   -0.9987 H   0  0  0  0  0  0  0  0  0  0  0  0
    2.4702   -1.9678    0.7257 H   0  0  0  0  0  0  0  0  0  0  0  0
   -2.7239   -0.4356    0.1582 H   0  0  0  0  0  0  0  0  0  0  0  0
   -2.3666    0.9564   -0.8819 H   0  0  0  0  0  0  0  0  0  0  0  0
   -1.9435    1.0142    0.8431 H   0  0  0  0  0  0  0  0  0  0  0  0
   -1.7710   -1.9321   -0.8225 H   0  0  0  0  0  0  0  0  0  0  0  0
   -0.0579   -2.1649   -1.2074 H   0  0  0  0  0  0  0  0  0  0  0  0
   -0.6331   -2.1424    0.5483 H   0  0  0  0  0  0  0  0  0  0  0  0
   -0.6794    1.1058   -1.8367 H   0  0  0  0  0  0  0  0  0  0  0  0
  1  2  1  0
  2  3  1  0
  3  4  1  0
  2  5  1  0
  5  6  1  0
  5  7  1  0
  5  8  1  0
  1  9  1  0
  1 10  1  0
  1 11  1  0
  2 12  1  0
  3 13  1  0
  3 14  1  0
  4 15  1  0
  6 16  1  0
  6 17  1  0
  6 18  1  0
  7 19  1  0
  7 20  1  0
  7 21  1  0
  8 22  1  0
M  END
