
     RDKit          3D

 25 24  0  0  0  0  0  0  0  0999 V2000
   -1.9427    1.6157    0.1230 C   0  0  0  0  0  0  0  0  0  0  0  0
   -1.8632    0.1355    0.2541 C   0  0  0  0  0  0  0  0  0  0  0  0
   -2.9911   -0.5828   -0.4599 C   0  0  0  0  0  0  0  0  0  0  0  0
   -0.5741   -0.4642   -0.2124 C   0  0  0  0  0  0  0  0  0  0  0  0
    0.6323    0.0384    0.5266 C   0  0  0  0  0  0  0  0  0  0  0  0
    1.8456   -0.6762   -0.0783 C   0  0  0  0  0  0  0  0  0  0  0  0
    1.9589   -0.3934   -1.4337 O   0  0  0  0  0  0  0  0  0  0  0  0
    3.0846   -0.3049    0.6944 C   0  0  0  0  0  0  0  0  0  0  0  0
    3.3768    1.0466    0.5998 O   0  0  0  0  0  0  0  0  0  0  0  0
   -2.9156    1.8512   -0.3995 H   0  0  0  0  0  0  0  0  0  0  0  0
   -1.1542    2.0674   -0.5051 H   0  0  0  0  0  0  0  0  0  0  0  0
   -2.0350    2.1253    1.1136 H   0  0  0  0  0  0  0  0  0  0  0  0
   -1.9835   -0.1171    1.3429 H   0  0  0  0  0  0  0  0  0  0  0  0
   -2.6965   -1.6650   -0.5033 H   0  0  0  0  0  0  0  0  0  0  0  0
   -3.9383   -0.4512    0.0908 H   0  0  0  0  0  0  0  0  0  0  0  0
   -3.0583   -0.2635   -1.5285 H   0  0  0  0  0  0  0  0  0  0  0  0
   -0.6595   -1.5660   -0.1059 H   0  0  0  0  0  0  0  0  0  0  0  0
   -0.4417   -0.2386   -1.2905 H   0  0  0  0  0  0  0  0  0  0  0  0
    0.7843    1.1155    0.3278 H   0  0  0  0  0  0  0  0  0  0  0  0
    0.5819   -0.0992    1.6084 H   0  0  0  0  0  0  0  0  0  0  0  0
    1.7147   -1.7749    0.0119 H   0  0  0  0  0  0  0  0  0  0  0  0
    1.8889   -1.2073   -2.0002 H   0  0  0  0  0  0  0  0  0  0  0  0
    2.8777   -0.5356    1.7634 H   0  0  0  0  0  0  0  0  0  0  0  0
    3.9201   -0.9620    0.3900 H   0  0  0  0  0  0  0  0  0  0  0  0
    3.5880    1.3063   -0.3295 H   0  0  0  0  0  0  0  0  0  0  0  0
  1  2  1  0
  2  3  1  0
  2  4  1  0
  4  5  1  0
  5  6  1  0
  6  7  1  0
  6  8  1  0
  8  9  1  0
  1 10  1  0
  1 11  1  0
  1 12  1  0
  2 13  1  0
  3 14  1  0
  3 15  1  0
  3 16  1  0
  4 17  1  0
  4 18  1  0
  5 19  1  0
  5 20  1  0
  6 21  1  0
  7 22  1  0
  8 23  1  0
  8 24  1  0
  9 25  1  0
M  END
