
     RDKit          3D

 19 18  0  0  0  0  0  0  0  0999 V2000
    0.1845   -2.1713    0.7105 C   0  0  0  0  0  0  0  0  0  0  0  0
   -0.1838   -0.7046    0.7761 C   0  0  0  0  0  0  0  0  0  0  0  0
    1.0392    0.0800    0.5556 C   0  0  0  0  0  0  0  0  0  0  0  0
    2.0463    0.7144    0.3573 C   0  0  0  0  0  0  0  0  0  0  0  0
    3.2338    1.4860    0.1165 C   0  0  0  0  0  0  0  0  0  0  0  0
    3.1402    2.7339   -0.0374 O   0  0  0  0  0  0  0  0  0  0  0  0
   -1.1474   -0.4215   -0.3338 C   0  0  0  0  0  0  0  0  0  0  0  0
   -1.6061    0.9987   -0.3988 C   0  0  0  0  0  0  0  0  0  0  0  0
   -2.4930    1.1094   -1.4743 O   0  0  0  0  0  0  0  0  0  0  0  0
    1.2648   -2.2660    0.9895 H   0  0  0  0  0  0  0  0  0  0  0  0
    0.1044   -2.4944   -0.3389 H   0  0  0  0  0  0  0  0  0  0  0  0
   -0.4604   -2.7764    1.4009 H   0  0  0  0  0  0  0  0  0  0  0  0
   -0.6554   -0.4405    1.7476 H   0  0  0  0  0  0  0  0  0  0  0  0
    4.2224    1.0481    0.0588 H   0  0  0  0  0  0  0  0  0  0  0  0
   -2.0582   -1.0578   -0.1460 H   0  0  0  0  0  0  0  0  0  0  0  0
   -0.6841   -0.7061   -1.3130 H   0  0  0  0  0  0  0  0  0  0  0  0
   -2.1560    1.2753    0.5110 H   0  0  0  0  0  0  0  0  0  0  0  0
   -0.7445    1.6836   -0.5196 H   0  0  0  0  0  0  0  0  0  0  0  0
   -3.0468    1.9090   -1.2887 H   0  0  0  0  0  0  0  0  0  0  0  0
  1  2  1  0
  2  3  1  0
  3  4  3  0
  4  5  1  0
  5  6  2  0
  2  7  1  0
  7  8  1  0
  8  9  1  0
  1 10  1  0
  1 11  1  0
  1 12  1  0
  2 13  1  0
  5 14  1  0
  7 15  1  0
  7 16  1  0
  8 17  1  0
  8 18  1  0
  9 19  1  0
M  END
