
     RDKit          3D

 23 23  0  0  0  0  0  0  0  0999 V2000
    1.2306    1.5751    0.3141 C   0  0  0  0  0  0  0  0  0  0  0  0
    0.7870    0.1536    0.4015 C   0  0  0  0  0  0  0  0  0  0  0  0
    1.7283   -0.7050   -0.4040 C   0  0  0  0  0  0  0  0  0  0  0  0
    1.3628   -2.0628   -0.3621 O   0  0  0  0  0  0  0  0  0  0  0  0
   -0.6410   -0.0222    0.0549 C   0  0  0  0  0  0  0  0  0  0  0  0
   -1.0892    0.3844   -1.3049 C   0  0  0  0  0  0  0  0  0  0  0  0
   -1.3101   -1.2869    0.5169 C   0  0  0  0  0  0  0  0  0  0  0  0
   -2.4504   -0.5160    0.8000 O   0  0  0  0  0  0  0  0  0  0  0  0
   -1.5823    0.5316    1.1050 C   0  0  0  0  0  0  0  0  0  0  0  0
    2.2771    1.6429   -0.0990 H   0  0  0  0  0  0  0  0  0  0  0  0
    0.6149    2.2045   -0.3540 H   0  0  0  0  0  0  0  0  0  0  0  0
    1.2374    2.0978    1.3023 H   0  0  0  0  0  0  0  0  0  0  0  0
    0.9171   -0.1652    1.4724 H   0  0  0  0  0  0  0  0  0  0  0  0
    2.7576   -0.6459   -0.0115 H   0  0  0  0  0  0  0  0  0  0  0  0
    1.7414   -0.4260   -1.4789 H   0  0  0  0  0  0  0  0  0  0  0  0
    1.8655   -2.4898   -1.1060 H   0  0  0  0  0  0  0  0  0  0  0  0
   -2.1214   -0.0401   -1.4642 H   0  0  0  0  0  0  0  0  0  0  0  0
   -0.4721   -0.0152   -2.1260 H   0  0  0  0  0  0  0  0  0  0  0  0
   -1.2441    1.4983   -1.4030 H   0  0  0  0  0  0  0  0  0  0  0  0
   -1.5190   -2.0089   -0.2890 H   0  0  0  0  0  0  0  0  0  0  0  0
   -0.9332   -1.7089    1.4684 H   0  0  0  0  0  0  0  0  0  0  0  0
   -1.1564    0.4614    2.1217 H   0  0  0  0  0  0  0  0  0  0  0  0
   -2.0005    1.5434    0.8454 H   0  0  0  0  0  0  0  0  0  0  0  0
  1  2  1  0
  2  3  1  0
  3  4  1  0
  2  5  1  0
  5  6  1  0
  5  7  1  0
  7  8  1  0
  8  9  1  0
  9  5  1  0
  1 10  1  0
  1 11  1  0
  1 12  1  0
  2 13  1  0
  3 14  1  0
  3 15  1  0
  4 16  1  0
  6 17  1  0
  6 18  1  0
  6 19  1  0
  7 20  1  0
  7 21  1  0
  9 22  1  0
  9 23  1  0
M  END
