
     RDKit          3D

 23 24  0  0  0  0  0  0  0  0999 V2000
   -0.4395   -0.6195    2.1705 C   0  0  0  0  0  0  0  0  0  0  0  0
   -0.3421   -0.7645    0.6205 C   0  0  0  0  0  0  0  0  0  0  0  0
   -1.5467   -0.1632    0.0232 C   0  0  0  0  0  0  0  0  0  0  0  0
   -1.8231   -0.1327   -1.4611 C   0  0  0  0  0  0  0  0  0  0  0  0
   -1.5755    1.1259   -0.6812 C   0  0  0  0  0  0  0  0  0  0  0  0
    0.9867   -0.2531    0.2820 C   0  0  0  0  0  0  0  0  0  0  0  0
    1.5146   -0.1992   -1.0905 C   0  0  0  0  0  0  0  0  0  0  0  0
    2.4197    0.8240   -0.3591 C   0  0  0  0  0  0  0  0  0  0  0  0
    1.2556    1.1063    0.4066 O   0  0  0  0  0  0  0  0  0  0  0  0
   -1.2681   -1.2136    2.5549 H   0  0  0  0  0  0  0  0  0  0  0  0
    0.5421   -0.9334    2.5907 H   0  0  0  0  0  0  0  0  0  0  0  0
   -0.5666    0.4461    2.4339 H   0  0  0  0  0  0  0  0  0  0  0  0
   -0.3550   -1.8615    0.4578 H   0  0  0  0  0  0  0  0  0  0  0  0
   -2.4798   -0.3944    0.6238 H   0  0  0  0  0  0  0  0  0  0  0  0
   -1.0982   -0.5660   -2.1491 H   0  0  0  0  0  0  0  0  0  0  0  0
   -2.8699   -0.3090   -1.8139 H   0  0  0  0  0  0  0  0  0  0  0  0
   -2.4832    1.7836   -0.5386 H   0  0  0  0  0  0  0  0  0  0  0  0
   -0.7089    1.7019   -0.9803 H   0  0  0  0  0  0  0  0  0  0  0  0
    1.7714   -0.7756    0.9297 H   0  0  0  0  0  0  0  0  0  0  0  0
    1.0231    0.3351   -1.8903 H   0  0  0  0  0  0  0  0  0  0  0  0
    2.1403   -1.0737   -1.4134 H   0  0  0  0  0  0  0  0  0  0  0  0
    2.7645    1.6428   -0.9871 H   0  0  0  0  0  0  0  0  0  0  0  0
    3.1385    0.2937    0.2712 H   0  0  0  0  0  0  0  0  0  0  0  0
  1  2  1  0
  2  3  1  0
  3  4  1  0
  4  5  1  0
  2  6  1  0
  6  7  1  0
  7  8  1  0
  8  9  1  0
  5  3  1  0
  9  6  1  0
  1 10  1  0
  1 11  1  0
  1 12  1  0
  2 13  1  0
  3 14  1  0
  4 15  1  0
  4 16  1  0
  5 17  1  0
  5 18  1  0
  6 19  1  0
  7 20  1  0
  7 21  1  0
  8 22  1  0
  8 23  1  0
M  END
