
     RDKit          3D

 23 23  0  0  0  0  0  0  0  0999 V2000
   -1.8653    1.2587   -0.3530 C   0  0  0  0  0  0  0  0  0  0  0  0
   -1.1319   -0.0338   -0.6220 C   0  0  0  0  0  0  0  0  0  0  0  0
   -1.6455   -1.0908    0.3134 C   0  0  0  0  0  0  0  0  0  0  0  0
    0.3551    0.1291   -0.5759 C   0  0  0  0  0  0  0  0  0  0  0  0
    1.1243   -1.1177   -0.8350 C   0  0  0  0  0  0  0  0  0  0  0  0
    2.4773   -0.7434   -0.2667 C   0  0  0  0  0  0  0  0  0  0  0  0
    2.3103    0.1870    0.6616 C   0  0  0  0  0  0  0  0  0  0  0  0
    0.8676    0.5117    0.7954 C   0  0  0  0  0  0  0  0  0  0  0  0
    0.6332    1.8353    1.1104 O   0  0  0  0  0  0  0  0  0  0  0  0
   -1.9264    1.5165    0.7115 H   0  0  0  0  0  0  0  0  0  0  0  0
   -2.8852    1.1362   -0.8086 H   0  0  0  0  0  0  0  0  0  0  0  0
   -1.3784    2.0845   -0.9274 H   0  0  0  0  0  0  0  0  0  0  0  0
   -1.3973   -0.3491   -1.6531 H   0  0  0  0  0  0  0  0  0  0  0  0
   -2.7451   -1.1995    0.1065 H   0  0  0  0  0  0  0  0  0  0  0  0
   -1.2086   -2.0803    0.1454 H   0  0  0  0  0  0  0  0  0  0  0  0
   -1.5269   -0.8203    1.3780 H   0  0  0  0  0  0  0  0  0  0  0  0
    0.6575    0.8927   -1.3041 H   0  0  0  0  0  0  0  0  0  0  0  0
    1.2124   -1.3830   -1.9080 H   0  0  0  0  0  0  0  0  0  0  0  0
    0.7969   -1.9783   -0.2122 H   0  0  0  0  0  0  0  0  0  0  0  0
    3.4051   -1.1955   -0.6016 H   0  0  0  0  0  0  0  0  0  0  0  0
    3.1048    0.6354    1.2290 H   0  0  0  0  0  0  0  0  0  0  0  0
    0.4571   -0.1605    1.5779 H   0  0  0  0  0  0  0  0  0  0  0  0
    0.3090    1.9652    2.0386 H   0  0  0  0  0  0  0  0  0  0  0  0
  1  2  1  0
  2  3  1  0
  2  4  1  0
  4  5  1  0
  5  6  1  0
  6  7  2  0
  7  8  1  0
  8  9  1  0
  8  4  1  0
  1 10  1  0
  1 11  1  0
  1 12  1  0
  2 13  1  0
  3 14  1  0
  3 15  1  0
  3 16  1  0
  4 17  1  0
  5 18  1  0
  5 19  1  0
  6 20  1  0
  7 21  1  0
  8 22  1  0
  9 23  1  0
M  END
