
     RDKit          3D

 23 24  0  0  0  0  0  0  0  0999 V2000
   -2.0265    0.4867    0.9721 C   0  0  0  0  0  0  0  0  0  0  0  0
   -1.1945   -0.4367    0.1091 C   0  0  0  0  0  0  0  0  0  0  0  0
   -1.9368   -0.5259   -1.2313 C   0  0  0  0  0  0  0  0  0  0  0  0
    0.1846    0.1227   -0.1377 C   0  0  0  0  0  0  0  0  0  0  0  0
    1.1663   -0.6336   -0.9672 C   0  0  0  0  0  0  0  0  0  0  0  0
    2.2865   -0.2456    0.0102 C   0  0  0  0  0  0  0  0  0  0  0  0
    3.0091   -1.3084    0.5026 O   0  0  0  0  0  0  0  0  0  0  0  0
    1.1813    0.2624    0.9201 C   0  0  0  0  0  0  0  0  0  0  0  0
    0.4931    1.4643    0.3912 C   0  0  0  0  0  0  0  0  0  0  0  0
   -1.5438    0.6799    1.9491 H   0  0  0  0  0  0  0  0  0  0  0  0
   -2.2098    1.4124    0.3890 H   0  0  0  0  0  0  0  0  0  0  0  0
   -3.0163    0.0112    1.1143 H   0  0  0  0  0  0  0  0  0  0  0  0
   -1.1767   -1.4196    0.6088 H   0  0  0  0  0  0  0  0  0  0  0  0
   -2.6215   -1.4041   -1.2414 H   0  0  0  0  0  0  0  0  0  0  0  0
   -1.2185   -0.5435   -2.0794 H   0  0  0  0  0  0  0  0  0  0  0  0
   -2.5474    0.4043   -1.3899 H   0  0  0  0  0  0  0  0  0  0  0  0
    1.0813   -1.7246   -0.9806 H   0  0  0  0  0  0  0  0  0  0  0  0
    1.2719   -0.1615   -1.9673 H   0  0  0  0  0  0  0  0  0  0  0  0
    2.9096    0.5464   -0.4417 H   0  0  0  0  0  0  0  0  0  0  0  0
    3.9376   -1.0428    0.7263 H   0  0  0  0  0  0  0  0  0  0  0  0
    1.0884   -0.0938    1.9391 H   0  0  0  0  0  0  0  0  0  0  0  0
    1.1275    2.1825   -0.2019 H   0  0  0  0  0  0  0  0  0  0  0  0
   -0.2455    1.9673    1.0066 H   0  0  0  0  0  0  0  0  0  0  0  0
  1  2  1  0
  2  3  1  0
  2  4  1  0
  4  5  1  0
  5  6  1  0
  6  7  1  0
  6  8  1  0
  8  9  1  0
  8  4  1  0
  9  4  1  0
  1 10  1  0
  1 11  1  0
  1 12  1  0
  2 13  1  0
  3 14  1  0
  3 15  1  0
  3 16  1  0
  5 17  1  0
  5 18  1  0
  6 19  1  0
  7 20  1  0
  8 21  1  0
  9 22  1  0
  9 23  1  0
M  END
