
     RDKit          3D

 21 21  0  0  0  0  0  0  0  0999 V2000
   -1.8621   -0.7040   -0.6264 C   0  0  0  0  0  0  0  0  0  0  0  0
   -1.2522   -0.0856    0.5809 C   0  0  0  0  0  0  0  0  0  0  0  0
   -1.8512    1.2274    0.9222 C   0  0  0  0  0  0  0  0  0  0  0  0
   -2.7343    1.7052    0.2301 O   0  0  0  0  0  0  0  0  0  0  0  0
    0.2290    0.0874    0.5042 C   0  0  0  0  0  0  0  0  0  0  0  0
    1.0416   -1.1772    0.3205 C   0  0  0  0  0  0  0  0  0  0  0  0
    2.0195   -0.2784   -0.4495 C   0  0  0  0  0  0  0  0  0  0  0  0
    2.7456    0.4768    0.4352 O   0  0  0  0  0  0  0  0  0  0  0  0
    0.7618    0.4979   -0.8693 C   0  0  0  0  0  0  0  0  0  0  0  0
   -2.9437   -0.9058   -0.3842 H   0  0  0  0  0  0  0  0  0  0  0  0
   -1.8765   -0.0598   -1.5171 H   0  0  0  0  0  0  0  0  0  0  0  0
   -1.4112   -1.6948   -0.7927 H   0  0  0  0  0  0  0  0  0  0  0  0
   -1.4657   -0.7662    1.4490 H   0  0  0  0  0  0  0  0  0  0  0  0
   -1.4884    1.7465    1.7932 H   0  0  0  0  0  0  0  0  0  0  0  0
    0.6700    0.7395    1.2687 H   0  0  0  0  0  0  0  0  0  0  0  0
    1.4350   -1.5454    1.2844 H   0  0  0  0  0  0  0  0  0  0  0  0
    0.5618   -1.9159   -0.3253 H   0  0  0  0  0  0  0  0  0  0  0  0
    2.5414   -0.7656   -1.2697 H   0  0  0  0  0  0  0  0  0  0  0  0
    3.6472    0.7004    0.1553 H   0  0  0  0  0  0  0  0  0  0  0  0
    0.2971   -0.0393   -1.7168 H   0  0  0  0  0  0  0  0  0  0  0  0
    0.9354    1.5733   -0.9926 H   0  0  0  0  0  0  0  0  0  0  0  0
  1  2  1  0
  2  3  1  0
  3  4  2  0
  2  5  1  0
  5  6  1  0
  6  7  1  0
  7  8  1  0
  7  9  1  0
  9  5  1  0
  1 10  1  0
  1 11  1  0
  1 12  1  0
  2 13  1  0
  3 14  1  0
  5 15  1  0
  6 16  1  0
  6 17  1  0
  7 18  1  0
  8 19  1  0
  9 20  1  0
  9 21  1  0
M  END
