
     RDKit          3D

 23 22  0  0  0  0  0  0  0  0999 V2000
   -1.9357   -0.8441    0.9518 C   0  0  0  0  0  0  0  0  0  0  0  0
   -1.3421   -0.4085   -0.3462 C   0  0  0  0  0  0  0  0  0  0  0  0
   -1.6633    1.0228   -0.7073 C   0  0  0  0  0  0  0  0  0  0  0  0
    0.0823   -0.6914   -0.5387 C   0  0  0  0  0  0  0  0  0  0  0  0
    1.0809   -0.1310    0.3948 C   0  0  0  0  0  0  0  0  0  0  0  0
    2.4376   -0.6479   -0.1323 C   0  0  0  0  0  0  0  0  0  0  0  0
    1.2034    1.3459    0.4624 C   0  0  0  0  0  0  0  0  0  0  0  0
   -2.8750   -0.2756    1.1153 H   0  0  0  0  0  0  0  0  0  0  0  0
   -2.2405   -1.9213    0.9466 H   0  0  0  0  0  0  0  0  0  0  0  0
   -1.2722   -0.7127    1.8231 H   0  0  0  0  0  0  0  0  0  0  0  0
   -1.9021   -1.0074   -1.1390 H   0  0  0  0  0  0  0  0  0  0  0  0
   -2.7513    1.0587   -0.9642 H   0  0  0  0  0  0  0  0  0  0  0  0
   -1.4024    1.7394    0.0673 H   0  0  0  0  0  0  0  0  0  0  0  0
   -1.0915    1.2474   -1.6384 H   0  0  0  0  0  0  0  0  0  0  0  0
    0.3984   -0.3974   -1.5829 H   0  0  0  0  0  0  0  0  0  0  0  0
    0.2381   -1.8117   -0.5397 H   0  0  0  0  0  0  0  0  0  0  0  0
    0.9884   -0.6207    1.3903 H   0  0  0  0  0  0  0  0  0  0  0  0
    2.5930   -0.0617   -1.0845 H   0  0  0  0  0  0  0  0  0  0  0  0
    2.3453   -1.6925   -0.4219 H   0  0  0  0  0  0  0  0  0  0  0  0
    3.2482   -0.4131    0.5561 H   0  0  0  0  0  0  0  0  0  0  0  0
    0.9284    1.8040   -0.4917 H   0  0  0  0  0  0  0  0  0  0  0  0
    0.6340    1.8205    1.2841 H   0  0  0  0  0  0  0  0  0  0  0  0
    2.2982    1.5983    0.5949 H   0  0  0  0  0  0  0  0  0  0  0  0
  1  2  1  0
  2  3  1  0
  2  4  1  0
  4  5  1  0
  5  6  1  0
  5  7  1  0
  1  8  1  0
  1  9  1  0
  1 10  1  0
  2 11  1  0
  3 12  1  0
  3 13  1  0
  3 14  1  0
  4 15  1  0
  4 16  1  0
  5 17  1  0
  6 18  1  0
  6 19  1  0
  6 20  1  0
  7 21  1  0
  7 22  1  0
  7 23  1  0
M  END
