
     RDKit          3D

 18 17  0  0  0  0  0  0  0  0999 V2000
   -1.7865    1.0544   -0.2161 C   0  0  0  0  0  0  0  0  0  0  0  0
   -0.7939    0.3157    0.6543 C   0  0  0  0  0  0  0  0  0  0  0  0
    0.4770    0.2031   -0.0424 C   0  0  0  0  0  0  0  0  0  0  0  0
    1.5492    0.1224   -0.6122 C   0  0  0  0  0  0  0  0  0  0  0  0
    2.8496    0.0314   -1.2771 C   0  0  0  0  0  0  0  0  0  0  0  0
    3.8923    0.1485   -0.3770 O   0  0  0  0  0  0  0  0  0  0  0  0
   -1.3378   -1.0316    1.0823 C   0  0  0  0  0  0  0  0  0  0  0  0
   -2.5092   -0.7856    1.7989 O   0  0  0  0  0  0  0  0  0  0  0  0
   -1.5616    2.1353   -0.2568 H   0  0  0  0  0  0  0  0  0  0  0  0
   -2.8097    0.9766    0.2522 H   0  0  0  0  0  0  0  0  0  0  0  0
   -1.8400    0.6575   -1.2480 H   0  0  0  0  0  0  0  0  0  0  0  0
   -0.7001    0.9219    1.5922 H   0  0  0  0  0  0  0  0  0  0  0  0
    2.8782   -0.9341   -1.8427 H   0  0  0  0  0  0  0  0  0  0  0  0
    2.9708    0.8414   -2.0408 H   0  0  0  0  0  0  0  0  0  0  0  0
    4.1471   -0.7335   -0.0191 H   0  0  0  0  0  0  0  0  0  0  0  0
   -1.5031   -1.6988    0.2135 H   0  0  0  0  0  0  0  0  0  0  0  0
   -0.6084   -1.4629    1.7974 H   0  0  0  0  0  0  0  0  0  0  0  0
   -3.3140   -0.7614    1.2436 H   0  0  0  0  0  0  0  0  0  0  0  0
  1  2  1  0
  2  3  1  0
  3  4  3  0
  4  5  1  0
  5  6  1  0
  2  7  1  0
  7  8  1  0
  1  9  1  0
  1 10  1  0
  1 11  1  0
  2 12  1  0
  5 13  1  0
  5 14  1  0
  6 15  1  0
  7 16  1  0
  7 17  1  0
  8 18  1  0
M  END
