
     RDKit          3D

 25 24  0  0  0  0  0  0  0  0999 V2000
   -0.6859    0.2177   -1.9091 C   0  0  0  0  0  0  0  0  0  0  0  0
   -0.9043    0.2347   -0.4266 C   0  0  0  0  0  0  0  0  0  0  0  0
   -1.9023   -0.8235   -0.0790 C   0  0  0  0  0  0  0  0  0  0  0  0
   -1.4723    1.4891   -0.1185 O   0  0  0  0  0  0  0  0  0  0  0  0
    0.3858    0.1467    0.2917 C   0  0  0  0  0  0  0  0  0  0  0  0
    1.2319    1.3504   -0.1187 C   0  0  0  0  0  0  0  0  0  0  0  0
    0.2613    0.2100    1.7866 C   0  0  0  0  0  0  0  0  0  0  0  0
    1.1923   -1.0879   -0.0477 C   0  0  0  0  0  0  0  0  0  0  0  0
    2.3953   -1.1182    0.6567 O   0  0  0  0  0  0  0  0  0  0  0  0
    0.3617    0.3247   -2.1861 H   0  0  0  0  0  0  0  0  0  0  0  0
   -1.1076   -0.7131   -2.3623 H   0  0  0  0  0  0  0  0  0  0  0  0
   -1.2370    1.0529   -2.4316 H   0  0  0  0  0  0  0  0  0  0  0  0
   -2.8972   -0.3726    0.1924 H   0  0  0  0  0  0  0  0  0  0  0  0
   -2.1446   -1.4882   -0.9566 H   0  0  0  0  0  0  0  0  0  0  0  0
   -1.5923   -1.4890    0.7345 H   0  0  0  0  0  0  0  0  0  0  0  0
   -1.7515    1.4897    0.8258 H   0  0  0  0  0  0  0  0  0  0  0  0
    0.5925    2.1927   -0.3972 H   0  0  0  0  0  0  0  0  0  0  0  0
    1.9300    1.6025    0.7234 H   0  0  0  0  0  0  0  0  0  0  0  0
    1.8399    1.0519   -0.9835 H   0  0  0  0  0  0  0  0  0  0  0  0
   -0.1771   -0.7098    2.2227 H   0  0  0  0  0  0  0  0  0  0  0  0
   -0.2234    1.1235    2.1281 H   0  0  0  0  0  0  0  0  0  0  0  0
    1.3174    0.2406    2.1882 H   0  0  0  0  0  0  0  0  0  0  0  0
    0.6408   -2.0212    0.1183 H   0  0  0  0  0  0  0  0  0  0  0  0
    1.4793   -1.0513   -1.1378 H   0  0  0  0  0  0  0  0  0  0  0  0
    2.4671   -1.8525    1.2863 H   0  0  0  0  0  0  0  0  0  0  0  0
  1  2  1  0
  2  3  1  0
  2  4  1  0
  2  5  1  0
  5  6  1  0
  5  7  1  0
  5  8  1  0
  8  9  1  0
  1 10  1  0
  1 11  1  0
  1 12  1  0
  3 13  1  0
  3 14  1  0
  3 15  1  0
  4 16  1  0
  6 17  1  0
  6 18  1  0
  6 19  1  0
  7 20  1  0
  7 21  1  0
  7 22  1  0
  8 23  1  0
  8 24  1  0
  9 25  1  0
M  END
