
     RDKit          3D

 23 23  0  0  0  0  0  0  0  0999 V2000
   -1.5609   -0.0684    1.6559 C   0  0  0  0  0  0  0  0  0  0  0  0
   -1.7075    0.1975    0.1718 C   0  0  0  0  0  0  0  0  0  0  0  0
   -1.8889   -1.1053   -0.5691 C   0  0  0  0  0  0  0  0  0  0  0  0
   -2.7784    1.0532   -0.0097 O   0  0  0  0  0  0  0  0  0  0  0  0
   -0.4403    0.8917   -0.3475 C   0  0  0  0  0  0  0  0  0  0  0  0
    0.5990    0.0318   -0.1588 O   0  0  0  0  0  0  0  0  0  0  0  0
    1.8289    0.4553   -0.5552 C   0  0  0  0  0  0  0  0  0  0  0  0
    2.9872   -0.0534    0.3226 C   0  0  0  0  0  0  0  0  0  0  0  0
    2.8363   -0.6068   -1.0479 C   0  0  0  0  0  0  0  0  0  0  0  0
   -1.1873    0.8741    2.1361 H   0  0  0  0  0  0  0  0  0  0  0  0
   -2.4891   -0.4329    2.0801 H   0  0  0  0  0  0  0  0  0  0  0  0
   -0.7999   -0.8937    1.7479 H   0  0  0  0  0  0  0  0  0  0  0  0
   -2.3077   -1.8407    0.1392 H   0  0  0  0  0  0  0  0  0  0  0  0
   -2.5841   -0.8961   -1.4245 H   0  0  0  0  0  0  0  0  0  0  0  0
   -0.9199   -1.4841   -0.9293 H   0  0  0  0  0  0  0  0  0  0  0  0
   -3.1668    1.4023    0.8218 H   0  0  0  0  0  0  0  0  0  0  0  0
   -0.3303    1.8778    0.1343 H   0  0  0  0  0  0  0  0  0  0  0  0
   -0.5603    1.0679   -1.4364 H   0  0  0  0  0  0  0  0  0  0  0  0
    1.9457    1.4604   -1.0078 H   0  0  0  0  0  0  0  0  0  0  0  0
    2.7331   -0.6922    1.1866 H   0  0  0  0  0  0  0  0  0  0  0  0
    3.8043    0.6631    0.5027 H   0  0  0  0  0  0  0  0  0  0  0  0
    2.4050   -1.6106   -1.2188 H   0  0  0  0  0  0  0  0  0  0  0  0
    3.5820   -0.2912   -1.7882 H   0  0  0  0  0  0  0  0  0  0  0  0
  1  2  1  0
  2  3  1  0
  2  4  1  0
  2  5  1  0
  5  6  1  0
  6  7  1  0
  7  8  1  0
  8  9  1  0
  9  7  1  0
  1 10  1  0
  1 11  1  0
  1 12  1  0
  3 13  1  0
  3 14  1  0
  3 15  1  0
  4 16  1  0
  5 17  1  0
  5 18  1  0
  7 19  1  0
  8 20  1  0
  8 21  1  0
  9 22  1  0
  9 23  1  0
M  END
