
     RDKit          3D

 20 19  0  0  0  0  0  0  0  0999 V2000
   -2.3914   -1.3680    0.2384 C   0  0  0  0  0  0  0  0  0  0  0  0
   -1.8308   -0.4193   -0.8209 C   0  0  0  0  0  0  0  0  0  0  0  0
   -2.4018    0.9693   -0.6674 C   0  0  0  0  0  0  0  0  0  0  0  0
   -0.3821   -0.3003   -0.6373 C   0  0  0  0  0  0  0  0  0  0  0  0
    0.8246   -0.2092   -0.4923 C   0  0  0  0  0  0  0  0  0  0  0  0
    2.2765   -0.0949   -0.3329 C   0  0  0  0  0  0  0  0  0  0  0  0
    2.6337    0.6430    0.9444 C   0  0  0  0  0  0  0  0  0  0  0  0
    4.0419    0.6866    0.9815 O   0  0  0  0  0  0  0  0  0  0  0  0
   -1.9289   -1.0412    1.1988 H   0  0  0  0  0  0  0  0  0  0  0  0
   -1.9571   -2.3661    0.0215 H   0  0  0  0  0  0  0  0  0  0  0  0
   -3.4829   -1.3483    0.2560 H   0  0  0  0  0  0  0  0  0  0  0  0
   -2.0619   -0.8331   -1.8121 H   0  0  0  0  0  0  0  0  0  0  0  0
   -3.3987    0.8890   -0.1764 H   0  0  0  0  0  0  0  0  0  0  0  0
   -1.7687    1.5899   -0.0305 H   0  0  0  0  0  0  0  0  0  0  0  0
   -2.5279    1.3850   -1.6936 H   0  0  0  0  0  0  0  0  0  0  0  0
    2.6986    0.4104   -1.2193 H   0  0  0  0  0  0  0  0  0  0  0  0
    2.7660   -1.0970   -0.2884 H   0  0  0  0  0  0  0  0  0  0  0  0
    2.2787    1.6774    0.9188 H   0  0  0  0  0  0  0  0  0  0  0  0
    2.2456    0.0709    1.8068 H   0  0  0  0  0  0  0  0  0  0  0  0
    4.3668    0.7559    0.0336 H   0  0  0  0  0  0  0  0  0  0  0  0
  1  2  1  0
  2  3  1  0
  2  4  1  0
  4  5  3  0
  5  6  1  0
  6  7  1  0
  7  8  1  0
  1  9  1  0
  1 10  1  0
  1 11  1  0
  2 12  1  0
  3 13  1  0
  3 14  1  0
  3 15  1  0
  6 16  1  0
  6 17  1  0
  7 18  1  0
  7 19  1  0
  8 20  1  0
M  END
