
     RDKit          3D

 25 25  0  0  0  0  0  0  0  0999 V2000
   -1.6708   -1.2283   -0.2900 C   0  0  0  0  0  0  0  0  0  0  0  0
   -1.5702    0.1009    0.3902 C   0  0  0  0  0  0  0  0  0  0  0  0
   -2.8587    0.8572    0.0074 C   0  0  0  0  0  0  0  0  0  0  0  0
   -0.3693    0.9064    0.1005 C   0  0  0  0  0  0  0  0  0  0  0  0
    0.9667    0.3411    0.4550 C   0  0  0  0  0  0  0  0  0  0  0  0
    2.0394    1.4041    0.0780 C   0  0  0  0  0  0  0  0  0  0  0  0
    1.3584   -0.8505   -0.3847 C   0  0  0  0  0  0  0  0  0  0  0  0
    2.6291   -1.5185   -0.1722 C   0  0  0  0  0  0  0  0  0  0  0  0
    1.3765   -2.0803    0.2965 O   0  0  0  0  0  0  0  0  0  0  0  0
   -1.2650   -1.2156   -1.3021 H   0  0  0  0  0  0  0  0  0  0  0  0
   -1.2983   -2.0458    0.3648 H   0  0  0  0  0  0  0  0  0  0  0  0
   -2.7736   -1.4915   -0.4572 H   0  0  0  0  0  0  0  0  0  0  0  0
   -1.7041   -0.0889    1.5025 H   0  0  0  0  0  0  0  0  0  0  0  0
   -2.7488    1.9298    0.1688 H   0  0  0  0  0  0  0  0  0  0  0  0
   -3.7044    0.4715    0.5797 H   0  0  0  0  0  0  0  0  0  0  0  0
   -3.0156    0.6255   -1.0771 H   0  0  0  0  0  0  0  0  0  0  0  0
   -0.4767    1.9019    0.6030 H   0  0  0  0  0  0  0  0  0  0  0  0
   -0.3605    1.1196   -1.0173 H   0  0  0  0  0  0  0  0  0  0  0  0
    1.1022    0.1156    1.5087 H   0  0  0  0  0  0  0  0  0  0  0  0
    1.7350    1.9634   -0.8087 H   0  0  0  0  0  0  0  0  0  0  0  0
    3.0030    0.9074   -0.1373 H   0  0  0  0  0  0  0  0  0  0  0  0
    2.2068    2.0829    0.9391 H   0  0  0  0  0  0  0  0  0  0  0  0
    1.0139   -0.7927   -1.4313 H   0  0  0  0  0  0  0  0  0  0  0  0
    3.0247   -2.1572   -0.9788 H   0  0  0  0  0  0  0  0  0  0  0  0
    3.3601   -1.2581    0.5966 H   0  0  0  0  0  0  0  0  0  0  0  0
  1  2  1  0
  2  3  1  0
  2  4  1  0
  4  5  1  0
  5  6  1  0
  5  7  1  0
  7  8  1  0
  8  9  1  0
  9  7  1  0
  1 10  1  0
  1 11  1  0
  1 12  1  0
  2 13  1  0
  3 14  1  0
  3 15  1  0
  3 16  1  0
  4 17  1  0
  4 18  1  0
  5 19  1  0
  6 20  1  0
  6 21  1  0
  6 22  1  0
  7 23  1  0
  8 24  1  0
  8 25  1  0
M  END
