
     RDKit          3D

 27 27  0  0  0  0  0  0  0  0999 V2000
   -2.5256   -0.4471    1.0685 C   0  0  0  0  0  0  0  0  0  0  0  0
   -1.5216    0.1469    0.1143 C   0  0  0  0  0  0  0  0  0  0  0  0
   -1.1844    1.5544    0.4808 C   0  0  0  0  0  0  0  0  0  0  0  0
   -0.2819   -0.7500    0.0710 C   0  0  0  0  0  0  0  0  0  0  0  0
   -0.7551   -2.1001   -0.4042 C   0  0  0  0  0  0  0  0  0  0  0  0
    0.8028   -0.1574   -0.7415 C   0  0  0  0  0  0  0  0  0  0  0  0
    2.1046   -0.7338   -0.9922 C   0  0  0  0  0  0  0  0  0  0  0  0
    2.0272    0.3029    0.0806 C   0  0  0  0  0  0  0  0  0  0  0  0
    2.4901    1.7048   -0.1697 C   0  0  0  0  0  0  0  0  0  0  0  0
   -2.6129   -1.5416    0.9266 H   0  0  0  0  0  0  0  0  0  0  0  0
   -2.2123   -0.2040    2.1057 H   0  0  0  0  0  0  0  0  0  0  0  0
   -3.5168   -0.0109    0.8177 H   0  0  0  0  0  0  0  0  0  0  0  0
   -1.9738    0.0567   -0.9140 H   0  0  0  0  0  0  0  0  0  0  0  0
   -1.1627    2.1504   -0.4660 H   0  0  0  0  0  0  0  0  0  0  0  0
   -0.2540    1.6612    1.0650 H   0  0  0  0  0  0  0  0  0  0  0  0
   -2.0003    1.9905    1.0943 H   0  0  0  0  0  0  0  0  0  0  0  0
    0.0257   -0.8757    1.1288 H   0  0  0  0  0  0  0  0  0  0  0  0
   -1.0237   -2.7771    0.4417 H   0  0  0  0  0  0  0  0  0  0  0  0
   -1.6988   -1.9959   -1.0094 H   0  0  0  0  0  0  0  0  0  0  0  0
   -0.0446   -2.6306   -1.0321 H   0  0  0  0  0  0  0  0  0  0  0  0
    0.4259    0.6016   -1.4926 H   0  0  0  0  0  0  0  0  0  0  0  0
    2.4147   -1.7569   -0.6964 H   0  0  0  0  0  0  0  0  0  0  0  0
    2.6619   -0.3917   -1.9021 H   0  0  0  0  0  0  0  0  0  0  0  0
    2.1042   -0.0863    1.1172 H   0  0  0  0  0  0  0  0  0  0  0  0
    1.6908    2.3109   -0.6783 H   0  0  0  0  0  0  0  0  0  0  0  0
    2.6455    2.2022    0.8112 H   0  0  0  0  0  0  0  0  0  0  0  0
    3.3751    1.7764   -0.8248 H   0  0  0  0  0  0  0  0  0  0  0  0
  1  2  1  0
  2  3  1  0
  2  4  1  0
  4  5  1  0
  4  6  1  0
  6  7  1  0
  7  8  1  0
  8  9  1  0
  8  6  1  0
  1 10  1  0
  1 11  1  0
  1 12  1  0
  2 13  1  0
  3 14  1  0
  3 15  1  0
  3 16  1  0
  4 17  1  0
  5 18  1  0
  5 19  1  0
  5 20  1  0
  6 21  1  0
  7 22  1  0
  7 23  1  0
  8 24  1  0
  9 25  1  0
  9 26  1  0
  9 27  1  0
M  END
