
     RDKit          3D

 20 19  0  0  0  0  0  0  0  0999 V2000
   -1.6520    1.0376   -0.4691 C   0  0  0  0  0  0  0  0  0  0  0  0
   -0.4448    0.1022   -0.5412 C   0  0  0  0  0  0  0  0  0  0  0  0
   -0.9424   -1.2611   -0.1131 C   0  0  0  0  0  0  0  0  0  0  0  0
   -1.4452   -1.2288    1.1717 O   0  0  0  0  0  0  0  0  0  0  0  0
    0.6425    0.6299    0.3796 C   0  0  0  0  0  0  0  0  0  0  0  0
    0.9336    1.9210   -0.1243 O   0  0  0  0  0  0  0  0  0  0  0  0
    1.9105   -0.1482    0.2811 C   0  0  0  0  0  0  0  0  0  0  0  0
    1.8414   -1.4494    0.7309 O   0  0  0  0  0  0  0  0  0  0  0  0
   -2.4120    0.6678    0.2486 H   0  0  0  0  0  0  0  0  0  0  0  0
   -1.3428    2.0609   -0.1632 H   0  0  0  0  0  0  0  0  0  0  0  0
   -2.1192    1.0148   -1.4720 H   0  0  0  0  0  0  0  0  0  0  0  0
   -0.0454    0.0226   -1.5719 H   0  0  0  0  0  0  0  0  0  0  0  0
   -1.8148   -1.4997   -0.7894 H   0  0  0  0  0  0  0  0  0  0  0  0
   -0.2041   -2.0585   -0.1977 H   0  0  0  0  0  0  0  0  0  0  0  0
   -2.4284   -1.1462    1.1796 H   0  0  0  0  0  0  0  0  0  0  0  0
    0.2744    0.6889    1.4230 H   0  0  0  0  0  0  0  0  0  0  0  0
    1.6866    2.3296    0.3793 H   0  0  0  0  0  0  0  0  0  0  0  0
    2.6776    0.3888    0.8846 H   0  0  0  0  0  0  0  0  0  0  0  0
    2.2601   -0.1408   -0.7748 H   0  0  0  0  0  0  0  0  0  0  0  0
    2.6245   -1.9313    0.3572 H   0  0  0  0  0  0  0  0  0  0  0  0
  1  2  1  0
  2  3  1  0
  3  4  1  0
  2  5  1  0
  5  6  1  0
  5  7  1  0
  7  8  1  0
  1  9  1  0
  1 10  1  0
  1 11  1  0
  2 12  1  0
  3 13  1  0
  3 14  1  0
  4 15  1  0
  5 16  1  0
  6 17  1  0
  7 18  1  0
  7 19  1  0
  8 20  1  0
M  END
