
     RDKit          3D

 23 23  0  0  0  0  0  0  0  0999 V2000
   -2.0368    1.0597    0.0453 C   0  0  0  0  0  0  0  0  0  0  0  0
   -1.3764   -0.2739   -0.2975 C   0  0  0  0  0  0  0  0  0  0  0  0
   -2.0432   -1.4278    0.3920 C   0  0  0  0  0  0  0  0  0  0  0  0
    0.0829   -0.1379    0.0523 C   0  0  0  0  0  0  0  0  0  0  0  0
    0.6275    1.0151   -0.8008 C   0  0  0  0  0  0  0  0  0  0  0  0
    1.9793    1.2916   -0.2582 C   0  0  0  0  0  0  0  0  0  0  0  0
    2.6364    0.2426    0.2286 C   0  0  0  0  0  0  0  0  0  0  0  0
    2.0953   -1.1329    0.2499 C   0  0  0  0  0  0  0  0  0  0  0  0
    0.8302   -1.2461   -0.2580 O   0  0  0  0  0  0  0  0  0  0  0  0
   -2.9560    0.8109    0.6143 H   0  0  0  0  0  0  0  0  0  0  0  0
   -2.2396    1.6647   -0.8547 H   0  0  0  0  0  0  0  0  0  0  0  0
   -1.3805    1.6757    0.7105 H   0  0  0  0  0  0  0  0  0  0  0  0
   -1.5259   -0.4085   -1.3880 H   0  0  0  0  0  0  0  0  0  0  0  0
   -1.3136   -1.8820    1.0874 H   0  0  0  0  0  0  0  0  0  0  0  0
   -2.8743   -0.9981    1.0197 H   0  0  0  0  0  0  0  0  0  0  0  0
   -2.4402   -2.1924   -0.3177 H   0  0  0  0  0  0  0  0  0  0  0  0
    0.2207    0.0818    1.1264 H   0  0  0  0  0  0  0  0  0  0  0  0
   -0.0342    1.8773   -0.8091 H   0  0  0  0  0  0  0  0  0  0  0  0
    0.7741    0.5808   -1.8206 H   0  0  0  0  0  0  0  0  0  0  0  0
    2.3721    2.2942   -0.2745 H   0  0  0  0  0  0  0  0  0  0  0  0
    3.6270    0.3947    0.6357 H   0  0  0  0  0  0  0  0  0  0  0  0
    2.1903   -1.5320    1.2884 H   0  0  0  0  0  0  0  0  0  0  0  0
    2.7847   -1.7576   -0.3715 H   0  0  0  0  0  0  0  0  0  0  0  0
  1  2  1  0
  2  3  1  0
  2  4  1  0
  4  5  1  0
  5  6  1  0
  6  7  2  0
  7  8  1  0
  8  9  1  0
  9  4  1  0
  1 10  1  0
  1 11  1  0
  1 12  1  0
  2 13  1  0
  3 14  1  0
  3 15  1  0
  3 16  1  0
  4 17  1  0
  5 18  1  0
  5 19  1  0
  6 20  1  0
  7 21  1  0
  8 22  1  0
  8 23  1  0
M  END
