
     RDKit          3D

 21 21  0  0  0  0  0  0  0  0999 V2000
   -1.4638   -1.2380    0.4153 C   0  0  0  0  0  0  0  0  0  0  0  0
   -1.1667   -0.0958   -0.4971 C   0  0  0  0  0  0  0  0  0  0  0  0
   -1.9639    1.1138   -0.0050 C   0  0  0  0  0  0  0  0  0  0  0  0
    0.2729    0.3147   -0.5259 C   0  0  0  0  0  0  0  0  0  0  0  0
    0.7833    0.7431    0.7951 C   0  0  0  0  0  0  0  0  0  0  0  0
    2.0619    0.3840    0.9054 C   0  0  0  0  0  0  0  0  0  0  0  0
    2.5178   -0.3136   -0.3274 C   0  0  0  0  0  0  0  0  0  0  0  0
    1.1935   -0.7849   -0.8837 C   0  0  0  0  0  0  0  0  0  0  0  0
    1.0179   -1.8221   -1.4660 O   0  0  0  0  0  0  0  0  0  0  0  0
   -2.4865   -1.0894    0.8714 H   0  0  0  0  0  0  0  0  0  0  0  0
   -0.7442   -1.3498    1.2357 H   0  0  0  0  0  0  0  0  0  0  0  0
   -1.5661   -2.2053   -0.1585 H   0  0  0  0  0  0  0  0  0  0  0  0
   -1.4719   -0.2907   -1.5531 H   0  0  0  0  0  0  0  0  0  0  0  0
   -1.3980    2.0679   -0.2088 H   0  0  0  0  0  0  0  0  0  0  0  0
   -2.9135    1.2218   -0.5645 H   0  0  0  0  0  0  0  0  0  0  0  0
   -2.0772    1.0580    1.0791 H   0  0  0  0  0  0  0  0  0  0  0  0
    0.3809    1.1232   -1.2687 H   0  0  0  0  0  0  0  0  0  0  0  0
    0.2491    1.2671    1.5844 H   0  0  0  0  0  0  0  0  0  0  0  0
    2.6921    0.5680    1.7662 H   0  0  0  0  0  0  0  0  0  0  0  0
    2.8728    0.4575   -1.0435 H   0  0  0  0  0  0  0  0  0  0  0  0
    3.2097   -1.1295   -0.1504 H   0  0  0  0  0  0  0  0  0  0  0  0
  1  2  1  0
  2  3  1  0
  2  4  1  0
  4  5  1  0
  5  6  2  0
  6  7  1  0
  7  8  1  0
  8  9  2  0
  8  4  1  0
  1 10  1  0
  1 11  1  0
  1 12  1  0
  2 13  1  0
  3 14  1  0
  3 15  1  0
  3 16  1  0
  4 17  1  0
  5 18  1  0
  6 19  1  0
  7 20  1  0
  7 21  1  0
M  END
