
     RDKit          3D

 14 13  0  0  0  0  0  0  0  0999 V2000
    1.4260    0.2193   -0.0959 C   0  0  0  0  0  0  0  0  0  0  0  0
   -0.0465    0.1256   -0.3258 C   0  0  0  0  0  0  0  0  0  0  0  0
   -0.5151   -1.3279   -0.2451 C   0  0  0  0  0  0  0  0  0  0  0  0
   -0.8629    1.0301    0.5486 C   0  0  0  0  0  0  0  0  0  0  0  0
    1.8495   -0.7063    0.3731 H   0  0  0  0  0  0  0  0  0  0  0  0
    1.9743    0.3618   -1.0573 H   0  0  0  0  0  0  0  0  0  0  0  0
    1.6872    1.0470    0.5793 H   0  0  0  0  0  0  0  0  0  0  0  0
   -0.2636    0.4265   -1.3882 H   0  0  0  0  0  0  0  0  0  0  0  0
   -1.6221   -1.3219   -0.0981 H   0  0  0  0  0  0  0  0  0  0  0  0
   -0.0532   -1.7930    0.6422 H   0  0  0  0  0  0  0  0  0  0  0  0
   -0.2896   -1.8659   -1.1922 H   0  0  0  0  0  0  0  0  0  0  0  0
   -0.5790    1.0123    1.6088 H   0  0  0  0  0  0  0  0  0  0  0  0
   -0.7767    2.0681    0.1851 H   0  0  0  0  0  0  0  0  0  0  0  0
   -1.9283    0.7242    0.4656 H   0  0  0  0  0  0  0  0  0  0  0  0
  1  2  1  0
  2  3  1  0
  2  4  1  0
  1  5  1  0
  1  6  1  0
  1  7  1  0
  2  8  1  0
  3  9  1  0
  3 10  1  0
  3 11  1  0
  4 12  1  0
  4 13  1  0
  4 14  1  0
M  END
