
     RDKit          3D

 20 20  0  0  0  0  0  0  0  0999 V2000
   -1.3654   -1.0999    0.5358 C   0  0  0  0  0  0  0  0  0  0  0  0
   -0.6515   -0.1041   -0.3571 C   0  0  0  0  0  0  0  0  0  0  0  0
   -1.5095    1.1402   -0.3895 C   0  0  0  0  0  0  0  0  0  0  0  0
    0.7104    0.1464    0.2156 C   0  0  0  0  0  0  0  0  0  0  0  0
    0.7657    0.6569    1.4852 O   0  0  0  0  0  0  0  0  0  0  0  0
    1.5661   -1.0946    0.0856 C   0  0  0  0  0  0  0  0  0  0  0  0
    2.0556   -0.6299   -1.1525 O   0  0  0  0  0  0  0  0  0  0  0  0
    1.7502    0.6503   -0.7478 C   0  0  0  0  0  0  0  0  0  0  0  0
   -0.7141   -1.8701    0.9494 H   0  0  0  0  0  0  0  0  0  0  0  0
   -1.8462   -0.5063    1.3489 H   0  0  0  0  0  0  0  0  0  0  0  0
   -2.2026   -1.5220   -0.0895 H   0  0  0  0  0  0  0  0  0  0  0  0
   -0.5826   -0.4711   -1.3953 H   0  0  0  0  0  0  0  0  0  0  0  0
   -0.9493    2.0520   -0.6347 H   0  0  0  0  0  0  0  0  0  0  0  0
   -2.0826    1.2606    0.5479 H   0  0  0  0  0  0  0  0  0  0  0  0
   -2.2845    1.0267   -1.2023 H   0  0  0  0  0  0  0  0  0  0  0  0
   -0.0246    1.1970    1.7342 H   0  0  0  0  0  0  0  0  0  0  0  0
    1.0349   -2.0358   -0.0823 H   0  0  0  0  0  0  0  0  0  0  0  0
    2.3411   -1.2130    0.8599 H   0  0  0  0  0  0  0  0  0  0  0  0
    2.6032    1.0883   -0.1658 H   0  0  0  0  0  0  0  0  0  0  0  0
    1.3856    1.3284   -1.5459 H   0  0  0  0  0  0  0  0  0  0  0  0
  1  2  1  0
  2  3  1  0
  2  4  1  0
  4  5  1  0
  4  6  1  0
  6  7  1  0
  7  8  1  0
  8  4  1  0
  1  9  1  0
  1 10  1  0
  1 11  1  0
  2 12  1  0
  3 13  1  0
  3 14  1  0
  3 15  1  0
  5 16  1  0
  6 17  1  0
  6 18  1  0
  8 19  1  0
  8 20  1  0
M  END
