
     RDKit          3D

 27 26  0  0  0  0  0  0  0  0999 V2000
    2.4020    0.9255   -0.1752 C   0  0  0  0  0  0  0  0  0  0  0  0
    1.3766   -0.1304    0.2836 C   0  0  0  0  0  0  0  0  0  0  0  0
    1.4227   -0.1706    1.7598 C   0  0  0  0  0  0  0  0  0  0  0  0
    0.1028    0.1358   -0.3874 C   0  0  0  0  0  0  0  0  0  0  0  0
    0.3544    0.0422   -1.9002 C   0  0  0  0  0  0  0  0  0  0  0  0
   -1.0809   -0.6941   -0.1021 C   0  0  0  0  0  0  0  0  0  0  0  0
   -2.2300   -0.1540   -0.9699 C   0  0  0  0  0  0  0  0  0  0  0  0
   -1.6004   -0.6354    1.3137 C   0  0  0  0  0  0  0  0  0  0  0  0
   -1.9407    0.6697    1.5921 O   0  0  0  0  0  0  0  0  0  0  0  0
    2.3683    1.7898    0.5213 H   0  0  0  0  0  0  0  0  0  0  0  0
    2.1462    1.2028   -1.2151 H   0  0  0  0  0  0  0  0  0  0  0  0
    3.4196    0.5020   -0.1692 H   0  0  0  0  0  0  0  0  0  0  0  0
    1.8358   -1.1002   -0.0803 H   0  0  0  0  0  0  0  0  0  0  0  0
    1.3847   -1.1976    2.1876 H   0  0  0  0  0  0  0  0  0  0  0  0
    0.7198    0.5334    2.2615 H   0  0  0  0  0  0  0  0  0  0  0  0
    2.4371    0.2186    2.0801 H   0  0  0  0  0  0  0  0  0  0  0  0
   -0.1875    1.2080   -0.2221 H   0  0  0  0  0  0  0  0  0  0  0  0
    0.4723    1.0219   -2.3663 H   0  0  0  0  0  0  0  0  0  0  0  0
   -0.4191   -0.5520   -2.4133 H   0  0  0  0  0  0  0  0  0  0  0  0
    1.3216   -0.5090   -2.1014 H   0  0  0  0  0  0  0  0  0  0  0  0
   -0.9686   -1.7646   -0.4051 H   0  0  0  0  0  0  0  0  0  0  0  0
   -2.0575    0.8907   -1.2802 H   0  0  0  0  0  0  0  0  0  0  0  0
   -3.2012   -0.1812   -0.4387 H   0  0  0  0  0  0  0  0  0  0  0  0
   -2.3693   -0.7846   -1.8742 H   0  0  0  0  0  0  0  0  0  0  0  0
   -2.5592   -1.2487    1.2992 H   0  0  0  0  0  0  0  0  0  0  0  0
   -0.9825   -1.1301    2.0635 H   0  0  0  0  0  0  0  0  0  0  0  0
   -2.1671    1.1122    0.7385 H   0  0  0  0  0  0  0  0  0  0  0  0
  1  2  1  0
  2  3  1  0
  2  4  1  0
  4  5  1  0
  4  6  1  0
  6  7  1  0
  6  8  1  0
  8  9  1  0
  1 10  1  0
  1 11  1  0
  1 12  1  0
  2 13  1  0
  3 14  1  0
  3 15  1  0
  3 16  1  0
  4 17  1  0
  5 18  1  0
  5 19  1  0
  5 20  1  0
  6 21  1  0
  7 22  1  0
  7 23  1  0
  7 24  1  0
  8 25  1  0
  8 26  1  0
  9 27  1  0
M  END
