
     RDKit          3D

 19 19  0  0  0  0  0  0  0  0999 V2000
   -0.7773   -0.3828    1.2777 C   0  0  0  0  0  0  0  0  0  0  0  0
   -0.2673   -0.2380   -0.1434 C   0  0  0  0  0  0  0  0  0  0  0  0
   -0.2003   -1.6086   -0.7204 C   0  0  0  0  0  0  0  0  0  0  0  0
    0.8530   -2.1366   -0.9996 O   0  0  0  0  0  0  0  0  0  0  0  0
   -1.3479    0.5069   -0.9236 C   0  0  0  0  0  0  0  0  0  0  0  0
   -1.5216    1.7403   -0.3070 O   0  0  0  0  0  0  0  0  0  0  0  0
    1.0239    0.5006   -0.2355 C   0  0  0  0  0  0  0  0  0  0  0  0
    2.2463    0.0681    0.4079 C   0  0  0  0  0  0  0  0  0  0  0  0
    1.4359    1.0395    1.0966 O   0  0  0  0  0  0  0  0  0  0  0  0
   -1.8805   -0.4935    1.2491 H   0  0  0  0  0  0  0  0  0  0  0  0
   -0.4682    0.4986    1.8640 H   0  0  0  0  0  0  0  0  0  0  0  0
   -0.3806   -1.3016    1.7434 H   0  0  0  0  0  0  0  0  0  0  0  0
   -1.1377   -2.1251   -0.8845 H   0  0  0  0  0  0  0  0  0  0  0  0
   -2.3015   -0.0341   -0.8546 H   0  0  0  0  0  0  0  0  0  0  0  0
   -1.0028    0.6184   -1.9897 H   0  0  0  0  0  0  0  0  0  0  0  0
   -0.8496    2.4062   -0.5465 H   0  0  0  0  0  0  0  0  0  0  0  0
    1.0947    1.3535   -0.9686 H   0  0  0  0  0  0  0  0  0  0  0  0
    2.2847   -0.9413    0.8533 H   0  0  0  0  0  0  0  0  0  0  0  0
    3.1972    0.5295    0.0814 H   0  0  0  0  0  0  0  0  0  0  0  0
  1  2  1  0
  2  3  1  0
  3  4  2  0
  2  5  1  0
  5  6  1  0
  2  7  1  0
  7  8  1  0
  8  9  1  0
  9  7  1  0
  1 10  1  0
  1 11  1  0
  1 12  1  0
  3 13  1  0
  5 14  1  0
  5 15  1  0
  6 16  1  0
  7 17  1  0
  8 18  1  0
  8 19  1  0
M  END
