
     RDKit          3D

 23 24  0  0  0  0  0  0  0  0999 V2000
   -2.4718    0.7818    0.4660 C   0  0  0  0  0  0  0  0  0  0  0  0
   -1.4335   -0.2632    0.1155 C   0  0  0  0  0  0  0  0  0  0  0  0
   -2.0113   -1.4908   -0.5050 C   0  0  0  0  0  0  0  0  0  0  0  0
   -0.4024    0.4082   -0.7654 C   0  0  0  0  0  0  0  0  0  0  0  0
    0.1877    1.5260    0.0205 O   0  0  0  0  0  0  0  0  0  0  0  0
    0.9189    0.4703   -0.4521 C   0  0  0  0  0  0  0  0  0  0  0  0
    1.7551   -0.3797    0.4306 C   0  0  0  0  0  0  0  0  0  0  0  0
    2.9594   -0.0314   -0.4114 C   0  0  0  0  0  0  0  0  0  0  0  0
    2.0699    0.7542   -1.3585 C   0  0  0  0  0  0  0  0  0  0  0  0
   -1.9086    1.7472    0.5830 H   0  0  0  0  0  0  0  0  0  0  0  0
   -2.9856    0.5910    1.4094 H   0  0  0  0  0  0  0  0  0  0  0  0
   -3.1670    0.9569   -0.3855 H   0  0  0  0  0  0  0  0  0  0  0  0
   -0.9779   -0.5764    1.0988 H   0  0  0  0  0  0  0  0  0  0  0  0
   -2.2980   -1.3817   -1.5506 H   0  0  0  0  0  0  0  0  0  0  0  0
   -1.2886   -2.3378   -0.3367 H   0  0  0  0  0  0  0  0  0  0  0  0
   -2.9119   -1.7757    0.1058 H   0  0  0  0  0  0  0  0  0  0  0  0
   -0.8285    0.7562   -1.7304 H   0  0  0  0  0  0  0  0  0  0  0  0
    1.8148   -0.1106    1.4925 H   0  0  0  0  0  0  0  0  0  0  0  0
    1.5078   -1.4654    0.2811 H   0  0  0  0  0  0  0  0  0  0  0  0
    3.6998    0.5955    0.1266 H   0  0  0  0  0  0  0  0  0  0  0  0
    3.4678   -0.8932   -0.8757 H   0  0  0  0  0  0  0  0  0  0  0  0
    1.9153    0.3059   -2.3476 H   0  0  0  0  0  0  0  0  0  0  0  0
    2.3885    1.8125   -1.4381 H   0  0  0  0  0  0  0  0  0  0  0  0
  1  2  1  0
  2  3  1  0
  2  4  1  0
  4  5  1  0
  5  6  1  0
  6  7  1  0
  7  8  1  0
  8  9  1  0
  6  4  1  0
  9  6  1  0
  1 10  1  0
  1 11  1  0
  1 12  1  0
  2 13  1  0
  3 14  1  0
  3 15  1  0
  3 16  1  0
  4 17  1  0
  7 18  1  0
  7 19  1  0
  8 20  1  0
  8 21  1  0
  9 22  1  0
  9 23  1  0
M  END
