
     RDKit          3D

 20 20  0  0  0  0  0  0  0  0999 V2000
   -0.1922   -1.2197    1.0353 C   0  0  0  0  0  0  0  0  0  0  0  0
   -0.1230   -0.2354   -0.1231 C   0  0  0  0  0  0  0  0  0  0  0  0
   -0.8516   -0.8044   -1.3385 C   0  0  0  0  0  0  0  0  0  0  0  0
   -0.8341    1.0158    0.3669 C   0  0  0  0  0  0  0  0  0  0  0  0
   -2.1587    0.6897    0.6911 O   0  0  0  0  0  0  0  0  0  0  0  0
    1.2627    0.1255   -0.4983 C   0  0  0  0  0  0  0  0  0  0  0  0
    2.2288    0.7483    0.3494 C   0  0  0  0  0  0  0  0  0  0  0  0
    1.5134    1.5502   -0.6260 O   0  0  0  0  0  0  0  0  0  0  0  0
   -1.0928   -1.8482    0.8335 H   0  0  0  0  0  0  0  0  0  0  0  0
   -0.3812   -0.7164    1.9990 H   0  0  0  0  0  0  0  0  0  0  0  0
    0.6866   -1.8816    1.0736 H   0  0  0  0  0  0  0  0  0  0  0  0
   -0.1082   -1.1333   -2.0949 H   0  0  0  0  0  0  0  0  0  0  0  0
   -1.5945   -0.0906   -1.7307 H   0  0  0  0  0  0  0  0  0  0  0  0
   -1.3954   -1.7219   -1.0151 H   0  0  0  0  0  0  0  0  0  0  0  0
   -0.7997    1.8062   -0.4131 H   0  0  0  0  0  0  0  0  0  0  0  0
   -0.3567    1.3555    1.3082 H   0  0  0  0  0  0  0  0  0  0  0  0
   -2.7664    1.1398    0.0566 H   0  0  0  0  0  0  0  0  0  0  0  0
    1.6533   -0.4331   -1.3984 H   0  0  0  0  0  0  0  0  0  0  0  0
    2.0057    1.0025    1.4112 H   0  0  0  0  0  0  0  0  0  0  0  0
    3.3043    0.6509    0.1133 H   0  0  0  0  0  0  0  0  0  0  0  0
  1  2  1  0
  2  3  1  0
  2  4  1  0
  4  5  1  0
  2  6  1  0
  6  7  1  0
  7  8  1  0
  8  6  1  0
  1  9  1  0
  1 10  1  0
  1 11  1  0
  3 12  1  0
  3 13  1  0
  3 14  1  0
  4 15  1  0
  4 16  1  0
  5 17  1  0
  6 18  1  0
  7 19  1  0
  7 20  1  0
M  END
