
     RDKit          3D

 21 22  0  0  0  0  0  0  0  0999 V2000
   -1.7398   -0.8065   -0.6237 C   0  0  0  0  0  0  0  0  0  0  0  0
   -1.0737   -0.0221    0.5138 C   0  0  0  0  0  0  0  0  0  0  0  0
   -1.5960    1.3606    0.5602 C   0  0  0  0  0  0  0  0  0  0  0  0
    0.3547   -0.0673    0.3424 C   0  0  0  0  0  0  0  0  0  0  0  0
    1.0341   -1.4160    0.3431 C   0  0  0  0  0  0  0  0  0  0  0  0
    2.3233   -1.0300    0.1794 C   0  0  0  0  0  0  0  0  0  0  0  0
    2.1524    0.4544    0.1346 C   0  0  0  0  0  0  0  0  0  0  0  0
    1.0020    0.5836   -0.8415 C   0  0  0  0  0  0  0  0  0  0  0  0
    1.2031    0.6697    1.1372 O   0  0  0  0  0  0  0  0  0  0  0  0
   -1.3155   -0.3620   -1.5626 H   0  0  0  0  0  0  0  0  0  0  0  0
   -1.4490   -1.8616   -0.6042 H   0  0  0  0  0  0  0  0  0  0  0  0
   -2.8335   -0.6748   -0.5557 H   0  0  0  0  0  0  0  0  0  0  0  0
   -1.3668   -0.5422    1.4489 H   0  0  0  0  0  0  0  0  0  0  0  0
   -1.0520    2.0821   -0.0891 H   0  0  0  0  0  0  0  0  0  0  0  0
   -1.6763    1.7573    1.6107 H   0  0  0  0  0  0  0  0  0  0  0  0
   -2.6589    1.3573    0.1905 H   0  0  0  0  0  0  0  0  0  0  0  0
    0.6182   -2.4010    0.4442 H   0  0  0  0  0  0  0  0  0  0  0  0
    3.2084   -1.6463    0.1053 H   0  0  0  0  0  0  0  0  0  0  0  0
    2.9924    1.0810    0.0514 H   0  0  0  0  0  0  0  0  0  0  0  0
    0.6850    1.5938   -1.0888 H   0  0  0  0  0  0  0  0  0  0  0  0
    1.1880   -0.1099   -1.6961 H   0  0  0  0  0  0  0  0  0  0  0  0
  1  2  1  0
  2  3  1  0
  2  4  1  0
  4  5  1  0
  5  6  2  0
  6  7  1  0
  7  8  1  0
  7  9  1  0
  8  4  1  0
  9  4  1  0
  1 10  1  0
  1 11  1  0
  1 12  1  0
  2 13  1  0
  3 14  1  0
  3 15  1  0
  3 16  1  0
  5 17  1  0
  6 18  1  0
  7 19  1  0
  8 20  1  0
  8 21  1  0
M  END
