
     RDKit          3D

 21 20  0  0  0  0  0  0  0  0999 V2000
   -1.0759   -0.6047    1.4075 C   0  0  0  0  0  0  0  0  0  0  0  0
   -0.7567   -0.0722    0.0187 C   0  0  0  0  0  0  0  0  0  0  0  0
   -1.0864    1.3855    0.0075 C   0  0  0  0  0  0  0  0  0  0  0  0
   -1.6183   -0.8189   -0.9727 C   0  0  0  0  0  0  0  0  0  0  0  0
    0.6488   -0.3880   -0.2698 C   0  0  0  0  0  0  0  0  0  0  0  0
    0.9349   -1.5819   -0.3298 O   0  0  0  0  0  0  0  0  0  0  0  0
    1.7469    0.5793   -0.4268 C   0  0  0  0  0  0  0  0  0  0  0  0
    3.0734   -0.0899   -0.2525 C   0  0  0  0  0  0  0  0  0  0  0  0
    4.0912    0.2860   -0.7907 O   0  0  0  0  0  0  0  0  0  0  0  0
   -2.0868   -0.3067    1.7420 H   0  0  0  0  0  0  0  0  0  0  0  0
   -0.9572   -1.7130    1.3563 H   0  0  0  0  0  0  0  0  0  0  0  0
   -0.2667   -0.2452    2.0701 H   0  0  0  0  0  0  0  0  0  0  0  0
   -1.0487    1.8551   -0.9961 H   0  0  0  0  0  0  0  0  0  0  0  0
   -2.1556    1.4729    0.3317 H   0  0  0  0  0  0  0  0  0  0  0  0
   -0.5098    1.9358    0.7731 H   0  0  0  0  0  0  0  0  0  0  0  0
   -2.1419   -0.1207   -1.6668 H   0  0  0  0  0  0  0  0  0  0  0  0
   -2.3290   -1.5168   -0.4642 H   0  0  0  0  0  0  0  0  0  0  0  0
   -1.0051   -1.4757   -1.6412 H   0  0  0  0  0  0  0  0  0  0  0  0
    1.7260    1.4141    0.2925 H   0  0  0  0  0  0  0  0  0  0  0  0
    1.7411    0.9902   -1.4650 H   0  0  0  0  0  0  0  0  0  0  0  0
    3.0758   -0.9852    0.3600 H   0  0  0  0  0  0  0  0  0  0  0  0
  1  2  1  0
  2  3  1  0
  2  4  1  0
  2  5  1  0
  5  6  2  0
  5  7  1  0
  7  8  1  0
  8  9  2  0
  1 10  1  0
  1 11  1  0
  1 12  1  0
  3 13  1  0
  3 14  1  0
  3 15  1  0
  4 16  1  0
  4 17  1  0
  4 18  1  0
  7 19  1  0
  7 20  1  0
  8 21  1  0
M  END
