
     RDKit          3D

 25 24  0  0  0  0  0  0  0  0999 V2000
   -3.0474   -0.6303    0.0848 C   0  0  0  0  0  0  0  0  0  0  0  0
   -1.6768   -0.2652    0.5959 C   0  0  0  0  0  0  0  0  0  0  0  0
   -1.6092    1.2360    0.7072 C   0  0  0  0  0  0  0  0  0  0  0  0
   -0.5867   -0.7293   -0.3663 C   0  0  0  0  0  0  0  0  0  0  0  0
   -0.7790   -0.1204   -1.6057 O   0  0  0  0  0  0  0  0  0  0  0  0
    0.7153   -0.2437    0.1982 C   0  0  0  0  0  0  0  0  0  0  0  0
    1.8998   -0.6305   -0.6535 C   0  0  0  0  0  0  0  0  0  0  0  0
    3.1436   -0.0683    0.0480 C   0  0  0  0  0  0  0  0  0  0  0  0
    3.0624    1.3059    0.1617 O   0  0  0  0  0  0  0  0  0  0  0  0
   -3.2958   -0.0748   -0.8358 H   0  0  0  0  0  0  0  0  0  0  0  0
   -3.7750   -0.3315    0.8603 H   0  0  0  0  0  0  0  0  0  0  0  0
   -3.1498   -1.7132   -0.1076 H   0  0  0  0  0  0  0  0  0  0  0  0
   -1.5337   -0.6866    1.5999 H   0  0  0  0  0  0  0  0  0  0  0  0
   -1.4321    1.7151   -0.2648 H   0  0  0  0  0  0  0  0  0  0  0  0
   -0.8139    1.4713    1.4578 H   0  0  0  0  0  0  0  0  0  0  0  0
   -2.6111    1.5925    1.0815 H   0  0  0  0  0  0  0  0  0  0  0  0
   -0.6216   -1.8177   -0.5049 H   0  0  0  0  0  0  0  0  0  0  0  0
   -0.2668    0.7307   -1.6195 H   0  0  0  0  0  0  0  0  0  0  0  0
    0.6894    0.8679    0.2184 H   0  0  0  0  0  0  0  0  0  0  0  0
    0.8499   -0.6784    1.1983 H   0  0  0  0  0  0  0  0  0  0  0  0
    1.9784   -1.7151   -0.7798 H   0  0  0  0  0  0  0  0  0  0  0  0
    1.8704   -0.1656   -1.6515 H   0  0  0  0  0  0  0  0  0  0  0  0
    4.0428   -0.3493   -0.5215 H   0  0  0  0  0  0  0  0  0  0  0  0
    3.2046   -0.4867    1.0766 H   0  0  0  0  0  0  0  0  0  0  0  0
    3.7425    1.7871   -0.3778 H   0  0  0  0  0  0  0  0  0  0  0  0
  1  2  1  0
  2  3  1  0
  2  4  1  0
  4  5  1  0
  4  6  1  0
  6  7  1  0
  7  8  1  0
  8  9  1  0
  1 10  1  0
  1 11  1  0
  1 12  1  0
  2 13  1  0
  3 14  1  0
  3 15  1  0
  3 16  1  0
  4 17  1  0
  5 18  1  0
  6 19  1  0
  6 20  1  0
  7 21  1  0
  7 22  1  0
  8 23  1  0
  8 24  1  0
  9 25  1  0
M  END
