
     RDKit          3D

 23 24  0  0  0  0  0  0  0  0999 V2000
   -1.5879    1.2105    0.3237 C   0  0  0  0  0  0  0  0  0  0  0  0
   -1.2085    0.1520   -0.6625 C   0  0  0  0  0  0  0  0  0  0  0  0
   -2.1100   -1.0336   -0.4561 C   0  0  0  0  0  0  0  0  0  0  0  0
    0.2318   -0.2680   -0.5647 C   0  0  0  0  0  0  0  0  0  0  0  0
    1.1836    0.8635   -0.8027 C   0  0  0  0  0  0  0  0  0  0  0  0
    2.4468    0.4097   -0.1194 C   0  0  0  0  0  0  0  0  0  0  0  0
    2.8031   -0.8942   -0.4357 O   0  0  0  0  0  0  0  0  0  0  0  0
    2.1257   -0.7378    0.7597 C   0  0  0  0  0  0  0  0  0  0  0  0
    0.6189   -0.7625    0.7883 C   0  0  0  0  0  0  0  0  0  0  0  0
   -1.4555    0.9276    1.3757 H   0  0  0  0  0  0  0  0  0  0  0  0
   -1.0767    2.1888    0.1465 H   0  0  0  0  0  0  0  0  0  0  0  0
   -2.6777    1.4414    0.1307 H   0  0  0  0  0  0  0  0  0  0  0  0
   -1.3992    0.5458   -1.6750 H   0  0  0  0  0  0  0  0  0  0  0  0
   -1.4863   -1.9701   -0.4574 H   0  0  0  0  0  0  0  0  0  0  0  0
   -2.6319   -1.0227    0.5157 H   0  0  0  0  0  0  0  0  0  0  0  0
   -2.8256   -1.1697   -1.3049 H   0  0  0  0  0  0  0  0  0  0  0  0
    0.4100   -1.0839   -1.2900 H   0  0  0  0  0  0  0  0  0  0  0  0
    0.8346    1.8420   -0.4734 H   0  0  0  0  0  0  0  0  0  0  0  0
    1.4295    0.9615   -1.8934 H   0  0  0  0  0  0  0  0  0  0  0  0
    3.1838    1.1203    0.2467 H   0  0  0  0  0  0  0  0  0  0  0  0
    2.6783   -0.9367    1.6855 H   0  0  0  0  0  0  0  0  0  0  0  0
    0.3189   -0.0499    1.6058 H   0  0  0  0  0  0  0  0  0  0  0  0
    0.1943   -1.7341    1.0653 H   0  0  0  0  0  0  0  0  0  0  0  0
  1  2  1  0
  2  3  1  0
  2  4  1  0
  4  5  1  0
  5  6  1  0
  6  7  1  0
  7  8  1  0
  8  9  1  0
  9  4  1  0
  8  6  1  0
  1 10  1  0
  1 11  1  0
  1 12  1  0
  2 13  1  0
  3 14  1  0
  3 15  1  0
  3 16  1  0
  4 17  1  0
  5 18  1  0
  5 19  1  0
  6 20  1  0
  8 21  1  0
  9 22  1  0
  9 23  1  0
M  END
