
     RDKit          3D

 16 15  0  0  0  0  0  0  0  0999 V2000
    0.2853   -0.3742   -1.3771 C   0  0  0  0  0  0  0  0  0  0  0  0
   -0.2935   -0.1285    0.0013 C   0  0  0  0  0  0  0  0  0  0  0  0
   -1.2146    1.0656   -0.0141 C   0  0  0  0  0  0  0  0  0  0  0  0
   -2.3470    1.0219    0.4036 O   0  0  0  0  0  0  0  0  0  0  0  0
   -1.0599   -1.3041    0.4979 C   0  0  0  0  0  0  0  0  0  0  0  0
   -2.2970   -1.3284    0.4578 O   0  0  0  0  0  0  0  0  0  0  0  0
    0.8856    0.1969    0.9158 C   0  0  0  0  0  0  0  0  0  0  0  0
    1.5112    1.3206    0.4209 O   0  0  0  0  0  0  0  0  0  0  0  0
    0.2107   -1.4511   -1.5857 H   0  0  0  0  0  0  0  0  0  0  0  0
   -0.2858    0.2460   -2.0971 H   0  0  0  0  0  0  0  0  0  0  0  0
    1.3609   -0.1097   -1.4381 H   0  0  0  0  0  0  0  0  0  0  0  0
   -0.8147    1.9732   -0.4194 H   0  0  0  0  0  0  0  0  0  0  0  0
   -0.5750   -2.1706    0.9074 H   0  0  0  0  0  0  0  0  0  0  0  0
    0.5326    0.3618    1.9363 H   0  0  0  0  0  0  0  0  0  0  0  0
    1.6118   -0.6577    0.8297 H   0  0  0  0  0  0  0  0  0  0  0  0
    2.4894    1.3383    0.5608 H   0  0  0  0  0  0  0  0  0  0  0  0
  1  2  1  0
  2  3  1  0
  3  4  2  0
  2  5  1  0
  5  6  2  0
  2  7  1  0
  7  8  1  0
  1  9  1  0
  1 10  1  0
  1 11  1  0
  3 12  1  0
  5 13  1  0
  7 14  1  0
  7 15  1  0
  8 16  1  0
M  END
