
     RDKit          3D

 20 21  0  0  0  0  0  0  0  0999 V2000
    1.3442   -0.8814   -0.8207 C   0  0  0  0  0  0  0  0  0  0  0  0
    1.0066   -0.2132    0.5191 C   0  0  0  0  0  0  0  0  0  0  0  0
    1.8648    0.9881    0.7439 C   0  0  0  0  0  0  0  0  0  0  0  0
   -0.4585    0.0513    0.6545 C   0  0  0  0  0  0  0  0  0  0  0  0
   -1.1871    0.9276   -0.3092 C   0  0  0  0  0  0  0  0  0  0  0  0
   -2.3814   -0.0174   -0.1889 C   0  0  0  0  0  0  0  0  0  0  0  0
   -1.4948   -0.9215    0.6305 C   0  0  0  0  0  0  0  0  0  0  0  0
   -1.1114   -0.3736    1.8301 O   0  0  0  0  0  0  0  0  0  0  0  0
    0.6171   -1.7066   -0.9349 H   0  0  0  0  0  0  0  0  0  0  0  0
    2.3467   -1.3403   -0.7170 H   0  0  0  0  0  0  0  0  0  0  0  0
    1.2991   -0.1451   -1.6301 H   0  0  0  0  0  0  0  0  0  0  0  0
    1.2844   -0.9725    1.2908 H   0  0  0  0  0  0  0  0  0  0  0  0
    2.8040    0.8375    0.1386 H   0  0  0  0  0  0  0  0  0  0  0  0
    2.2081    1.0848    1.7931 H   0  0  0  0  0  0  0  0  0  0  0  0
    1.4223    1.9307    0.3711 H   0  0  0  0  0  0  0  0  0  0  0  0
   -0.7745    0.8375   -1.3308 H   0  0  0  0  0  0  0  0  0  0  0  0
   -1.4629    1.9279    0.0171 H   0  0  0  0  0  0  0  0  0  0  0  0
   -2.7449   -0.4203   -1.1379 H   0  0  0  0  0  0  0  0  0  0  0  0
   -3.1872    0.3861    0.4691 H   0  0  0  0  0  0  0  0  0  0  0  0
   -1.3946   -1.9794    0.4006 H   0  0  0  0  0  0  0  0  0  0  0  0
  1  2  1  0
  2  3  1  0
  2  4  1  0
  4  5  1  0
  5  6  1  0
  6  7  1  0
  7  8  1  0
  7  4  1  0
  8  4  1  0
  1  9  1  0
  1 10  1  0
  1 11  1  0
  2 12  1  0
  3 13  1  0
  3 14  1  0
  3 15  1  0
  5 16  1  0
  5 17  1  0
  6 18  1  0
  6 19  1  0
  7 20  1  0
M  END
