
     RDKit          3D

 21 20  0  0  0  0  0  0  0  0999 V2000
   -0.7604    0.3669    1.7220 C   0  0  0  0  0  0  0  0  0  0  0  0
   -0.3510   -0.0284    0.3232 C   0  0  0  0  0  0  0  0  0  0  0  0
   -1.1445   -1.2559   -0.0609 C   0  0  0  0  0  0  0  0  0  0  0  0
   -0.6983    1.0688   -0.6791 C   0  0  0  0  0  0  0  0  0  0  0  0
   -2.0866    1.2774   -0.6443 O   0  0  0  0  0  0  0  0  0  0  0  0
    1.0955   -0.2271    0.2821 C   0  0  0  0  0  0  0  0  0  0  0  0
    1.7665   -0.0695    1.2848 O   0  0  0  0  0  0  0  0  0  0  0  0
    1.8197   -0.6253   -0.9598 C   0  0  0  0  0  0  0  0  0  0  0  0
    3.1729   -0.7549   -0.7675 O   0  0  0  0  0  0  0  0  0  0  0  0
   -0.5600   -0.5150    2.3706 H   0  0  0  0  0  0  0  0  0  0  0  0
   -1.8169    0.6933    1.7864 H   0  0  0  0  0  0  0  0  0  0  0  0
   -0.0821    1.1723    2.1148 H   0  0  0  0  0  0  0  0  0  0  0  0
   -1.3279   -1.3098   -1.1592 H   0  0  0  0  0  0  0  0  0  0  0  0
   -2.1469   -1.1512    0.4201 H   0  0  0  0  0  0  0  0  0  0  0  0
   -0.6930   -2.1955    0.3181 H   0  0  0  0  0  0  0  0  0  0  0  0
   -0.4327    0.7740   -1.7064 H   0  0  0  0  0  0  0  0  0  0  0  0
   -0.1443    2.0085   -0.4392 H   0  0  0  0  0  0  0  0  0  0  0  0
   -2.2903    2.1934   -0.3164 H   0  0  0  0  0  0  0  0  0  0  0  0
    1.5914    0.1071   -1.7514 H   0  0  0  0  0  0  0  0  0  0  0  0
    1.4155   -1.6235   -1.2891 H   0  0  0  0  0  0  0  0  0  0  0  0
    3.6734    0.0943   -0.8487 H   0  0  0  0  0  0  0  0  0  0  0  0
  1  2  1  0
  2  3  1  0
  2  4  1  0
  4  5  1  0
  2  6  1  0
  6  7  2  0
  6  8  1  0
  8  9  1  0
  1 10  1  0
  1 11  1  0
  1 12  1  0
  3 13  1  0
  3 14  1  0
  3 15  1  0
  4 16  1  0
  4 17  1  0
  5 18  1  0
  8 19  1  0
  8 20  1  0
  9 21  1  0
M  END
