
     RDKit          3D

 25 25  0  0  0  0  0  0  0  0999 V2000
   -2.5750   -0.9491    0.0032 C   0  0  0  0  0  0  0  0  0  0  0  0
   -1.8480    0.1834   -0.6410 C   0  0  0  0  0  0  0  0  0  0  0  0
   -2.1360    1.4561    0.1196 C   0  0  0  0  0  0  0  0  0  0  0  0
   -0.3928   -0.0574   -0.8592 C   0  0  0  0  0  0  0  0  0  0  0  0
    0.4062   -0.3231    0.3635 C   0  0  0  0  0  0  0  0  0  0  0  0
    1.8523   -0.5401   -0.0789 C   0  0  0  0  0  0  0  0  0  0  0  0
    2.8185   -0.8228    1.0114 C   0  0  0  0  0  0  0  0  0  0  0  0
    3.5136    0.3744    0.7771 O   0  0  0  0  0  0  0  0  0  0  0  0
    2.6463    0.7314   -0.2311 C   0  0  0  0  0  0  0  0  0  0  0  0
   -3.2498   -0.5938    0.8311 H   0  0  0  0  0  0  0  0  0  0  0  0
   -1.9289   -1.7291    0.4293 H   0  0  0  0  0  0  0  0  0  0  0  0
   -3.2664   -1.4732   -0.7079 H   0  0  0  0  0  0  0  0  0  0  0  0
   -2.3030    0.3290   -1.6594 H   0  0  0  0  0  0  0  0  0  0  0  0
   -3.2618    1.5357    0.1638 H   0  0  0  0  0  0  0  0  0  0  0  0
   -1.8056    2.3616   -0.4265 H   0  0  0  0  0  0  0  0  0  0  0  0
   -1.7857    1.4227    1.1654 H   0  0  0  0  0  0  0  0  0  0  0  0
   -0.2902   -0.9239   -1.5440 H   0  0  0  0  0  0  0  0  0  0  0  0
    0.0262    0.8457   -1.3576 H   0  0  0  0  0  0  0  0  0  0  0  0
    0.4352    0.6051    1.0021 H   0  0  0  0  0  0  0  0  0  0  0  0
    0.0660   -1.1639    0.9702 H   0  0  0  0  0  0  0  0  0  0  0  0
    1.9671   -1.1996   -0.9518 H   0  0  0  0  0  0  0  0  0  0  0  0
    2.4515   -0.8962    2.0339 H   0  0  0  0  0  0  0  0  0  0  0  0
    3.5292   -1.6696    0.7824 H   0  0  0  0  0  0  0  0  0  0  0  0
    3.0670    0.8557   -1.2403 H   0  0  0  0  0  0  0  0  0  0  0  0
    2.0641    1.6408    0.0448 H   0  0  0  0  0  0  0  0  0  0  0  0
  1  2  1  0
  2  3  1  0
  2  4  1  0
  4  5  1  0
  5  6  1  0
  6  7  1  0
  7  8  1  0
  8  9  1  0
  9  6  1  0
  1 10  1  0
  1 11  1  0
  1 12  1  0
  2 13  1  0
  3 14  1  0
  3 15  1  0
  3 16  1  0
  4 17  1  0
  4 18  1  0
  5 19  1  0
  5 20  1  0
  6 21  1  0
  7 22  1  0
  7 23  1  0
  9 24  1  0
  9 25  1  0
M  END
