
     RDKit          3D

 23 24  0  0  0  0  0  0  0  0999 V2000
   -0.1346   -1.6280    0.9120 C   0  0  0  0  0  0  0  0  0  0  0  0
   -0.1920   -0.6327   -0.2522 C   0  0  0  0  0  0  0  0  0  0  0  0
    1.1216   -0.3811   -0.8768 C   0  0  0  0  0  0  0  0  0  0  0  0
    2.2255    0.1609   -0.0829 C   0  0  0  0  0  0  0  0  0  0  0  0
    2.3533    1.3753    0.6336 C   0  0  0  0  0  0  0  0  0  0  0  0
    2.8120    1.3843   -0.6786 O   0  0  0  0  0  0  0  0  0  0  0  0
   -1.0618    0.5299    0.0412 C   0  0  0  0  0  0  0  0  0  0  0  0
   -2.5158    0.1298    0.3291 C   0  0  0  0  0  0  0  0  0  0  0  0
   -2.2318    0.8560   -0.9331 C   0  0  0  0  0  0  0  0  0  0  0  0
    0.6957   -2.3297    0.7637 H   0  0  0  0  0  0  0  0  0  0  0  0
   -0.0760   -1.0839    1.8863 H   0  0  0  0  0  0  0  0  0  0  0  0
   -1.0693   -2.2278    0.9627 H   0  0  0  0  0  0  0  0  0  0  0  0
   -0.7668   -1.2344   -1.0387 H   0  0  0  0  0  0  0  0  0  0  0  0
    0.9338    0.2406   -1.7924 H   0  0  0  0  0  0  0  0  0  0  0  0
    1.4445   -1.3707   -1.3288 H   0  0  0  0  0  0  0  0  0  0  0  0
    3.0741   -0.5868    0.0701 H   0  0  0  0  0  0  0  0  0  0  0  0
    1.5150    1.9914    0.9392 H   0  0  0  0  0  0  0  0  0  0  0  0
    3.2062    1.4795    1.3642 H   0  0  0  0  0  0  0  0  0  0  0  0
   -0.7392    1.4243    0.5906 H   0  0  0  0  0  0  0  0  0  0  0  0
   -2.8186   -0.9184    0.2170 H   0  0  0  0  0  0  0  0  0  0  0  0
   -3.0416    0.6541    1.1489 H   0  0  0  0  0  0  0  0  0  0  0  0
   -2.5892    1.8829   -0.9917 H   0  0  0  0  0  0  0  0  0  0  0  0
   -2.1449    0.2845   -1.8836 H   0  0  0  0  0  0  0  0  0  0  0  0
  1  2  1  0
  2  3  1  0
  3  4  1  0
  4  5  1  0
  5  6  1  0
  2  7  1  0
  7  8  1  0
  8  9  1  0
  6  4  1  0
  9  7  1  0
  1 10  1  0
  1 11  1  0
  1 12  1  0
  2 13  1  0
  3 14  1  0
  3 15  1  0
  4 16  1  0
  5 17  1  0
  5 18  1  0
  7 19  1  0
  8 20  1  0
  8 21  1  0
  9 22  1  0
  9 23  1  0
M  END
