
     RDKit          3D

 27 27  0  0  0  0  0  0  0  0999 V2000
   -3.0771   -0.6856    0.1316 C   0  0  0  0  0  0  0  0  0  0  0  0
   -1.6258   -0.3670   -0.2732 C   0  0  0  0  0  0  0  0  0  0  0  0
   -1.5860    1.1010   -0.6401 C   0  0  0  0  0  0  0  0  0  0  0  0
   -0.7102   -0.7120    0.8264 C   0  0  0  0  0  0  0  0  0  0  0  0
    0.7181   -0.5217    0.7112 C   0  0  0  0  0  0  0  0  0  0  0  0
    1.3288   -1.3309   -0.4482 C   0  0  0  0  0  0  0  0  0  0  0  0
    2.4862   -0.3235   -0.3518 C   0  0  0  0  0  0  0  0  0  0  0  0
    1.3984    0.6442    0.1646 C   0  0  0  0  0  0  0  0  0  0  0  0
    2.0795    1.5737    1.1713 C   0  0  0  0  0  0  0  0  0  0  0  0
   -3.5283    0.1847    0.6667 H   0  0  0  0  0  0  0  0  0  0  0  0
   -3.1035   -1.5530    0.8234 H   0  0  0  0  0  0  0  0  0  0  0  0
   -3.7053   -0.8911   -0.7381 H   0  0  0  0  0  0  0  0  0  0  0  0
   -1.4713   -0.9283   -1.2140 H   0  0  0  0  0  0  0  0  0  0  0  0
   -2.6227    1.4642   -0.7221 H   0  0  0  0  0  0  0  0  0  0  0  0
   -1.1261    1.2564   -1.6422 H   0  0  0  0  0  0  0  0  0  0  0  0
   -1.1161    1.6885    0.1673 H   0  0  0  0  0  0  0  0  0  0  0  0
   -1.0779   -0.1680    1.7495 H   0  0  0  0  0  0  0  0  0  0  0  0
   -0.9060   -1.7950    1.0949 H   0  0  0  0  0  0  0  0  0  0  0  0
    1.2719   -0.8774    1.6364 H   0  0  0  0  0  0  0  0  0  0  0  0
    0.7781   -1.2070   -1.3956 H   0  0  0  0  0  0  0  0  0  0  0  0
    1.5810   -2.3496   -0.1599 H   0  0  0  0  0  0  0  0  0  0  0  0
    2.9355   -0.0462   -1.3041 H   0  0  0  0  0  0  0  0  0  0  0  0
    3.1678   -0.6515    0.4517 H   0  0  0  0  0  0  0  0  0  0  0  0
    1.0511    1.1987   -0.6950 H   0  0  0  0  0  0  0  0  0  0  0  0
    2.4468    0.9534    2.0068 H   0  0  0  0  0  0  0  0  0  0  0  0
    1.4189    2.3951    1.4868 H   0  0  0  0  0  0  0  0  0  0  0  0
    2.9940    1.9478    0.6431 H   0  0  0  0  0  0  0  0  0  0  0  0
  1  2  1  0
  2  3  1  0
  2  4  1  0
  4  5  1  0
  5  6  1  0
  6  7  1  0
  7  8  1  0
  8  9  1  0
  8  5  1  0
  1 10  1  0
  1 11  1  0
  1 12  1  0
  2 13  1  0
  3 14  1  0
  3 15  1  0
  3 16  1  0
  4 17  1  0
  4 18  1  0
  5 19  1  0
  6 20  1  0
  6 21  1  0
  7 22  1  0
  7 23  1  0
  8 24  1  0
  9 25  1  0
  9 26  1  0
  9 27  1  0
M  END
