
     RDKit          3D

 18 17  0  0  0  0  0  0  0  0999 V2000
   -1.8297   -0.8565   -1.0762 C   0  0  0  0  0  0  0  0  0  0  0  0
   -1.0826   -0.0522   -0.0118 C   0  0  0  0  0  0  0  0  0  0  0  0
   -1.7540   -0.3421    1.3057 C   0  0  0  0  0  0  0  0  0  0  0  0
    0.2755   -0.3421   -0.0362 O   0  0  0  0  0  0  0  0  0  0  0  0
    1.2609    0.5993   -0.2456 C   0  0  0  0  0  0  0  0  0  0  0  0
    0.8760    1.7736   -0.4205 O   0  0  0  0  0  0  0  0  0  0  0  0
    2.6878    0.2243   -0.2595 C   0  0  0  0  0  0  0  0  0  0  0  0
    3.5064    1.3288   -0.4874 O   0  0  0  0  0  0  0  0  0  0  0  0
   -1.4686   -0.6331   -2.0828 H   0  0  0  0  0  0  0  0  0  0  0  0
   -2.9176   -0.6598   -0.9949 H   0  0  0  0  0  0  0  0  0  0  0  0
   -1.6513   -1.9287   -0.8049 H   0  0  0  0  0  0  0  0  0  0  0  0
   -1.2098    1.0493   -0.1885 H   0  0  0  0  0  0  0  0  0  0  0  0
   -2.8505   -0.3973    1.0972 H   0  0  0  0  0  0  0  0  0  0  0  0
   -1.5704    0.4311    2.0720 H   0  0  0  0  0  0  0  0  0  0  0  0
   -1.4621   -1.3603    1.6366 H   0  0  0  0  0  0  0  0  0  0  0  0
    2.9859   -0.3267    0.6723 H   0  0  0  0  0  0  0  0  0  0  0  0
    2.8262   -0.4380   -1.1644 H   0  0  0  0  0  0  0  0  0  0  0  0
    3.3781    1.9304    0.2905 H   0  0  0  0  0  0  0  0  0  0  0  0
  1  2  1  0
  2  3  1  0
  2  4  1  0
  4  5  1  0
  5  6  2  0
  5  7  1  0
  7  8  1  0
  1  9  1  0
  1 10  1  0
  1 11  1  0
  2 12  1  0
  3 13  1  0
  3 14  1  0
  3 15  1  0
  7 16  1  0
  7 17  1  0
  8 18  1  0
M  END
