
     RDKit          3D

 23 23  0  0  0  0  0  0  0  0999 V2000
    2.1877    0.5194   -1.3398 C   0  0  0  0  0  0  0  0  0  0  0  0
    1.7139   -0.0088   -0.0026 C   0  0  0  0  0  0  0  0  0  0  0  0
    2.4725   -1.2561    0.4026 C   0  0  0  0  0  0  0  0  0  0  0  0
    0.3797   -0.3338   -0.1293 O   0  0  0  0  0  0  0  0  0  0  0  0
   -0.3976    0.4240    0.7379 C   0  0  0  0  0  0  0  0  0  0  0  0
   -1.8412    0.0098    0.5389 C   0  0  0  0  0  0  0  0  0  0  0  0
   -2.8640    1.1167    0.6098 C   0  0  0  0  0  0  0  0  0  0  0  0
   -2.1420   -0.9977   -0.5728 C   0  0  0  0  0  0  0  0  0  0  0  0
   -2.2039   -1.2960    0.7656 O   0  0  0  0  0  0  0  0  0  0  0  0
    2.6764    1.5004   -1.1878 H   0  0  0  0  0  0  0  0  0  0  0  0
    2.9330   -0.1496   -1.8173 H   0  0  0  0  0  0  0  0  0  0  0  0
    1.3461    0.6651   -2.0587 H   0  0  0  0  0  0  0  0  0  0  0  0
    1.8173    0.7835    0.7694 H   0  0  0  0  0  0  0  0  0  0  0  0
    1.8041   -2.0429    0.7941 H   0  0  0  0  0  0  0  0  0  0  0  0
    3.1549   -0.9845    1.2362 H   0  0  0  0  0  0  0  0  0  0  0  0
    3.0935   -1.6495   -0.4320 H   0  0  0  0  0  0  0  0  0  0  0  0
   -0.0848    0.2539    1.7903 H   0  0  0  0  0  0  0  0  0  0  0  0
   -0.3226    1.5160    0.5158 H   0  0  0  0  0  0  0  0  0  0  0  0
   -2.6326    1.8910    1.3442 H   0  0  0  0  0  0  0  0  0  0  0  0
   -3.8558    0.6561    0.7142 H   0  0  0  0  0  0  0  0  0  0  0  0
   -2.8624    1.6013   -0.4104 H   0  0  0  0  0  0  0  0  0  0  0  0
   -3.1114   -0.9566   -1.0836 H   0  0  0  0  0  0  0  0  0  0  0  0
   -1.2609   -1.2618   -1.1847 H   0  0  0  0  0  0  0  0  0  0  0  0
  1  2  1  0
  2  3  1  0
  2  4  1  0
  4  5  1  0
  5  6  1  0
  6  7  1  0
  6  8  1  0
  8  9  1  0
  9  6  1  0
  1 10  1  0
  1 11  1  0
  1 12  1  0
  2 13  1  0
  3 14  1  0
  3 15  1  0
  3 16  1  0
  5 17  1  0
  5 18  1  0
  7 19  1  0
  7 20  1  0
  7 21  1  0
  8 22  1  0
  8 23  1  0
M  END
