
     RDKit          3D

 21 20  0  0  0  0  0  0  0  0999 V2000
   -0.7663   -0.9036   -1.1577 C   0  0  0  0  0  0  0  0  0  0  0  0
   -0.6902    0.2303   -0.1769 C   0  0  0  0  0  0  0  0  0  0  0  0
   -1.8136    0.1136    0.8118 C   0  0  0  0  0  0  0  0  0  0  0  0
   -1.7713    1.1408    1.7265 O   0  0  0  0  0  0  0  0  0  0  0  0
    0.6549    0.4019    0.4398 C   0  0  0  0  0  0  0  0  0  0  0  0
    1.1751   -0.7227    1.1950 C   0  0  0  0  0  0  0  0  0  0  0  0
    0.5470   -1.6448    1.6689 O   0  0  0  0  0  0  0  0  0  0  0  0
    1.6413    0.7271   -0.6645 C   0  0  0  0  0  0  0  0  0  0  0  0
    1.7095   -0.2827   -1.6194 O   0  0  0  0  0  0  0  0  0  0  0  0
   -1.8419   -1.2433   -1.1997 H   0  0  0  0  0  0  0  0  0  0  0  0
   -0.1638   -1.7762   -0.8877 H   0  0  0  0  0  0  0  0  0  0  0  0
   -0.5515   -0.5490   -2.2053 H   0  0  0  0  0  0  0  0  0  0  0  0
   -0.8964    1.1664   -0.7514 H   0  0  0  0  0  0  0  0  0  0  0  0
   -2.7697    0.2196    0.2323 H   0  0  0  0  0  0  0  0  0  0  0  0
   -1.8680   -0.8456    1.3283 H   0  0  0  0  0  0  0  0  0  0  0  0
   -1.7130    2.0125    1.2644 H   0  0  0  0  0  0  0  0  0  0  0  0
    0.6188    1.2938    1.0982 H   0  0  0  0  0  0  0  0  0  0  0  0
    2.2486   -0.7555    1.3629 H   0  0  0  0  0  0  0  0  0  0  0  0
    2.6440    0.7664   -0.1791 H   0  0  0  0  0  0  0  0  0  0  0  0
    1.4767    1.7260   -1.1054 H   0  0  0  0  0  0  0  0  0  0  0  0
    2.1300   -1.0751   -1.1810 H   0  0  0  0  0  0  0  0  0  0  0  0
  1  2  1  0
  2  3  1  0
  3  4  1  0
  2  5  1  0
  5  6  1  0
  6  7  2  0
  5  8  1  0
  8  9  1  0
  1 10  1  0
  1 11  1  0
  1 12  1  0
  2 13  1  0
  3 14  1  0
  3 15  1  0
  4 16  1  0
  5 17  1  0
  6 18  1  0
  8 19  1  0
  8 20  1  0
  9 21  1  0
M  END
