
     RDKit          3D

 19 18  0  0  0  0  0  0  0  0999 V2000
   -1.0611   -1.1823    0.8739 C   0  0  0  0  0  0  0  0  0  0  0  0
   -0.9803   -0.1734   -0.2171 C   0  0  0  0  0  0  0  0  0  0  0  0
   -1.5653    1.1492    0.2450 C   0  0  0  0  0  0  0  0  0  0  0  0
   -1.1950    1.6753    1.2681 O   0  0  0  0  0  0  0  0  0  0  0  0
    0.2698    0.0158   -0.9606 C   0  0  0  0  0  0  0  0  0  0  0  0
   -0.0023    1.0350   -1.9283 O   0  0  0  0  0  0  0  0  0  0  0  0
    1.5213    0.3789   -0.2856 C   0  0  0  0  0  0  0  0  0  0  0  0
    2.1244   -0.5218    0.6870 C   0  0  0  0  0  0  0  0  0  0  0  0
    1.7648   -1.6448    0.8672 O   0  0  0  0  0  0  0  0  0  0  0  0
   -2.1858   -1.2903    1.1208 H   0  0  0  0  0  0  0  0  0  0  0  0
   -0.5796   -0.9190    1.8235 H   0  0  0  0  0  0  0  0  0  0  0  0
   -0.7869   -2.2060    0.5875 H   0  0  0  0  0  0  0  0  0  0  0  0
   -1.7428   -0.5499   -0.9923 H   0  0  0  0  0  0  0  0  0  0  0  0
   -2.3215    1.6503   -0.3250 H   0  0  0  0  0  0  0  0  0  0  0  0
    0.4732   -0.9062   -1.5637 H   0  0  0  0  0  0  0  0  0  0  0  0
   -0.5075    1.7278   -1.4526 H   0  0  0  0  0  0  0  0  0  0  0  0
    2.3085    0.4640   -1.1192 H   0  0  0  0  0  0  0  0  0  0  0  0
    1.5183    1.4485    0.0893 H   0  0  0  0  0  0  0  0  0  0  0  0
    2.9478   -0.1510    1.2822 H   0  0  0  0  0  0  0  0  0  0  0  0
  1  2  1  0
  2  3  1  0
  3  4  2  0
  2  5  1  0
  5  6  1  0
  5  7  1  0
  7  8  1  0
  8  9  2  0
  1 10  1  0
  1 11  1  0
  1 12  1  0
  2 13  1  0
  3 14  1  0
  5 15  1  0
  6 16  1  0
  7 17  1  0
  7 18  1  0
  8 19  1  0
M  END
