
     RDKit          3D

 19 19  0  0  0  0  0  0  0  0999 V2000
   -0.8494   -0.7767   -1.2000 C   0  0  0  0  0  0  0  0  0  0  0  0
   -0.0909    0.1007   -0.1961 C   0  0  0  0  0  0  0  0  0  0  0  0
   -0.2959   -0.5309    1.1514 C   0  0  0  0  0  0  0  0  0  0  0  0
   -0.5558    1.4257   -0.2560 O   0  0  0  0  0  0  0  0  0  0  0  0
   -1.8400    1.8224   -0.0127 C   0  0  0  0  0  0  0  0  0  0  0  0
   -2.6922    0.9498    0.2912 O   0  0  0  0  0  0  0  0  0  0  0  0
    1.3727    0.1209   -0.5723 C   0  0  0  0  0  0  0  0  0  0  0  0
    2.3097   -0.1685    0.5762 C   0  0  0  0  0  0  0  0  0  0  0  0
    2.0918   -1.0620   -0.5964 O   0  0  0  0  0  0  0  0  0  0  0  0
   -1.2205   -0.1921   -2.0520 H   0  0  0  0  0  0  0  0  0  0  0  0
   -1.7626   -1.1955   -0.6917 H   0  0  0  0  0  0  0  0  0  0  0  0
   -0.1898   -1.6256   -1.4947 H   0  0  0  0  0  0  0  0  0  0  0  0
    0.1634   -1.5533    1.0971 H   0  0  0  0  0  0  0  0  0  0  0  0
   -1.3937   -0.7283    1.2850 H   0  0  0  0  0  0  0  0  0  0  0  0
    0.1127    0.0481    1.9869 H   0  0  0  0  0  0  0  0  0  0  0  0
   -2.1673    2.8521   -0.0670 H   0  0  0  0  0  0  0  0  0  0  0  0
    1.6892    0.9503   -1.2464 H   0  0  0  0  0  0  0  0  0  0  0  0
    1.9609   -0.6547    1.4845 H   0  0  0  0  0  0  0  0  0  0  0  0
    3.3577    0.2176    0.5130 H   0  0  0  0  0  0  0  0  0  0  0  0
  1  2  1  0
  2  3  1  0
  2  4  1  0
  4  5  1  0
  5  6  2  0
  2  7  1  0
  7  8  1  0
  8  9  1  0
  9  7  1  0
  1 10  1  0
  1 11  1  0
  1 12  1  0
  3 13  1  0
  3 14  1  0
  3 15  1  0
  5 16  1  0
  7 17  1  0
  8 18  1  0
  8 19  1  0
M  END
