
     RDKit          3D

 23 23  0  0  0  0  0  0  0  0999 V2000
   -0.8126    2.2285    0.2314 C   0  0  0  0  0  0  0  0  0  0  0  0
   -0.3569    0.7756    0.2629 C   0  0  0  0  0  0  0  0  0  0  0  0
   -1.6005   -0.0586    0.0575 C   0  0  0  0  0  0  0  0  0  0  0  0
   -1.2815   -1.5360    0.0681 C   0  0  0  0  0  0  0  0  0  0  0  0
   -2.4058   -2.3056   -0.1179 O   0  0  0  0  0  0  0  0  0  0  0  0
    0.5956    0.5148   -0.8834 C   0  0  0  0  0  0  0  0  0  0  0  0
    1.7700    1.2808   -0.9077 O   0  0  0  0  0  0  0  0  0  0  0  0
    1.8410   -0.1961   -0.7507 C   0  0  0  0  0  0  0  0  0  0  0  0
    2.5059   -0.5254    0.5371 C   0  0  0  0  0  0  0  0  0  0  0  0
   -1.7568    2.2550    0.8473 H   0  0  0  0  0  0  0  0  0  0  0  0
   -0.0565    2.9239    0.5960 H   0  0  0  0  0  0  0  0  0  0  0  0
   -1.1452    2.4378   -0.8090 H   0  0  0  0  0  0  0  0  0  0  0  0
    0.1033    0.5235    1.2460 H   0  0  0  0  0  0  0  0  0  0  0  0
   -2.3071    0.1873    0.8924 H   0  0  0  0  0  0  0  0  0  0  0  0
   -2.0868    0.2655   -0.8804 H   0  0  0  0  0  0  0  0  0  0  0  0
   -0.5319   -1.7035   -0.7437 H   0  0  0  0  0  0  0  0  0  0  0  0
   -0.7669   -1.7386    1.0353 H   0  0  0  0  0  0  0  0  0  0  0  0
   -2.1832   -3.2358    0.1909 H   0  0  0  0  0  0  0  0  0  0  0  0
    0.0886    0.4940   -1.8683 H   0  0  0  0  0  0  0  0  0  0  0  0
    2.2595   -0.6985   -1.6447 H   0  0  0  0  0  0  0  0  0  0  0  0
    3.6221   -0.4495    0.3820 H   0  0  0  0  0  0  0  0  0  0  0  0
    2.2066    0.1373    1.3658 H   0  0  0  0  0  0  0  0  0  0  0  0
    2.2990   -1.5764    0.8412 H   0  0  0  0  0  0  0  0  0  0  0  0
  1  2  1  0
  2  3  1  0
  3  4  1  0
  4  5  1  0
  2  6  1  0
  6  7  1  0
  7  8  1  0
  8  9  1  0
  8  6  1  0
  1 10  1  0
  1 11  1  0
  1 12  1  0
  2 13  1  0
  3 14  1  0
  3 15  1  0
  4 16  1  0
  4 17  1  0
  5 18  1  0
  6 19  1  0
  8 20  1  0
  9 21  1  0
  9 22  1  0
  9 23  1  0
M  END
