
     RDKit          3D

 22 22  0  0  0  0  0  0  0  0999 V2000
   -0.7400    1.4039   -1.1057 C   0  0  0  0  0  0  0  0  0  0  0  0
   -0.6836    0.0015   -0.5367 C   0  0  0  0  0  0  0  0  0  0  0  0
   -2.1039   -0.4945   -0.3947 C   0  0  0  0  0  0  0  0  0  0  0  0
    0.0512    0.0656    0.7666 C   0  0  0  0  0  0  0  0  0  0  0  0
    0.1809   -1.2729    1.4466 C   0  0  0  0  0  0  0  0  0  0  0  0
    1.4364    0.6007    0.4950 C   0  0  0  0  0  0  0  0  0  0  0  0
    2.3343   -0.1353   -0.4200 C   0  0  0  0  0  0  0  0  0  0  0  0
    2.5171   -0.1174    0.9751 O   0  0  0  0  0  0  0  0  0  0  0  0
   -1.7822    1.8162   -1.0388 H   0  0  0  0  0  0  0  0  0  0  0  0
   -0.1039    2.1172   -0.5566 H   0  0  0  0  0  0  0  0  0  0  0  0
   -0.4552    1.4322   -2.1848 H   0  0  0  0  0  0  0  0  0  0  0  0
   -0.1368   -0.6159   -1.2975 H   0  0  0  0  0  0  0  0  0  0  0  0
   -2.6858    0.2259    0.2040 H   0  0  0  0  0  0  0  0  0  0  0  0
   -2.1555   -1.5205   -0.0040 H   0  0  0  0  0  0  0  0  0  0  0  0
   -2.5472   -0.4594   -1.4242 H   0  0  0  0  0  0  0  0  0  0  0  0
   -0.4826    0.7473    1.4358 H   0  0  0  0  0  0  0  0  0  0  0  0
    1.0704   -1.2015    2.1165 H   0  0  0  0  0  0  0  0  0  0  0  0
   -0.6765   -1.5065    2.1077 H   0  0  0  0  0  0  0  0  0  0  0  0
    0.4109   -2.0904    0.7307 H   0  0  0  0  0  0  0  0  0  0  0  0
    1.5316    1.6809    0.5818 H   0  0  0  0  0  0  0  0  0  0  0  0
    2.9937    0.4498   -1.0624 H   0  0  0  0  0  0  0  0  0  0  0  0
    2.0267   -1.1267   -0.8345 H   0  0  0  0  0  0  0  0  0  0  0  0
  1  2  1  0
  2  3  1  0
  2  4  1  0
  4  5  1  0
  4  6  1  0
  6  7  1  0
  7  8  1  0
  8  6  1  0
  1  9  1  0
  1 10  1  0
  1 11  1  0
  2 12  1  0
  3 13  1  0
  3 14  1  0
  3 15  1  0
  4 16  1  0
  5 17  1  0
  5 18  1  0
  5 19  1  0
  6 20  1  0
  7 21  1  0
  7 22  1  0
M  END
