
     RDKit          3D

 23 23  0  0  0  0  0  0  0  0999 V2000
    1.2907   -1.2184   -0.7466 C   0  0  0  0  0  0  0  0  0  0  0  0
    0.9793    0.1981   -0.4105 C   0  0  0  0  0  0  0  0  0  0  0  0
    1.9344    0.6619    0.6694 C   0  0  0  0  0  0  0  0  0  0  0  0
   -0.4156    0.4742    0.0139 C   0  0  0  0  0  0  0  0  0  0  0  0
   -0.5821    1.9322    0.3184 C   0  0  0  0  0  0  0  0  0  0  0  0
   -0.5310    2.3518    1.4616 O   0  0  0  0  0  0  0  0  0  0  0  0
   -1.4744    0.0012   -0.9617 C   0  0  0  0  0  0  0  0  0  0  0  0
   -1.7243   -1.1681   -0.0319 C   0  0  0  0  0  0  0  0  0  0  0  0
   -1.0431   -0.3593    1.0500 C   0  0  0  0  0  0  0  0  0  0  0  0
    2.3748   -1.2784   -0.9853 H   0  0  0  0  0  0  0  0  0  0  0  0
    1.1185   -1.9295    0.0766 H   0  0  0  0  0  0  0  0  0  0  0  0
    0.7772   -1.5444   -1.6988 H   0  0  0  0  0  0  0  0  0  0  0  0
    1.1983    0.8163   -1.3109 H   0  0  0  0  0  0  0  0  0  0  0  0
    1.6870    0.1792    1.6465 H   0  0  0  0  0  0  0  0  0  0  0  0
    1.9772    1.7654    0.7396 H   0  0  0  0  0  0  0  0  0  0  0  0
    2.9396    0.2362    0.3873 H   0  0  0  0  0  0  0  0  0  0  0  0
   -0.7545    2.6641   -0.4741 H   0  0  0  0  0  0  0  0  0  0  0  0
   -2.3460    0.6939   -0.9893 H   0  0  0  0  0  0  0  0  0  0  0  0
   -1.1119   -0.2768   -1.9608 H   0  0  0  0  0  0  0  0  0  0  0  0
   -2.8105   -1.3517    0.1539 H   0  0  0  0  0  0  0  0  0  0  0  0
   -1.2422   -2.1084   -0.3141 H   0  0  0  0  0  0  0  0  0  0  0  0
   -1.8345    0.1909    1.6258 H   0  0  0  0  0  0  0  0  0  0  0  0
   -0.4070   -0.9301    1.7408 H   0  0  0  0  0  0  0  0  0  0  0  0
  1  2  1  0
  2  3  1  0
  2  4  1  0
  4  5  1  0
  5  6  2  0
  4  7  1  0
  7  8  1  0
  8  9  1  0
  9  4  1  0
  1 10  1  0
  1 11  1  0
  1 12  1  0
  2 13  1  0
  3 14  1  0
  3 15  1  0
  3 16  1  0
  5 17  1  0
  7 18  1  0
  7 19  1  0
  8 20  1  0
  8 21  1  0
  9 22  1  0
  9 23  1  0
M  END
