
     RDKit          3D

 24 23  0  0  0  0  0  0  0  0999 V2000
    1.3338   -1.1643   -0.7658 C   0  0  0  0  0  0  0  0  0  0  0  0
    0.7024    0.1782   -0.4628 C   0  0  0  0  0  0  0  0  0  0  0  0
    1.4719    0.7713    0.6977 C   0  0  0  0  0  0  0  0  0  0  0  0
    2.8050    0.9150    0.3183 O   0  0  0  0  0  0  0  0  0  0  0  0
   -0.7651    0.0447   -0.1447 C   0  0  0  0  0  0  0  0  0  0  0  0
   -1.3267    1.4189    0.1457 C   0  0  0  0  0  0  0  0  0  0  0  0
   -0.9560   -0.7772    1.1320 C   0  0  0  0  0  0  0  0  0  0  0  0
   -1.5303   -0.6539   -1.2341 C   0  0  0  0  0  0  0  0  0  0  0  0
    0.5387   -1.9586   -0.7599 H   0  0  0  0  0  0  0  0  0  0  0  0
    1.8658   -1.1379   -1.7477 H   0  0  0  0  0  0  0  0  0  0  0  0
    2.0630   -1.4739    0.0124 H   0  0  0  0  0  0  0  0  0  0  0  0
    0.7898    0.8766   -1.3222 H   0  0  0  0  0  0  0  0  0  0  0  0
    1.4760    0.0646    1.5651 H   0  0  0  0  0  0  0  0  0  0  0  0
    1.0563    1.7415    1.0266 H   0  0  0  0  0  0  0  0  0  0  0  0
    3.3193    1.0483    1.1537 H   0  0  0  0  0  0  0  0  0  0  0  0
   -2.2814    1.5469   -0.4153 H   0  0  0  0  0  0  0  0  0  0  0  0
   -0.5932    2.2069   -0.1767 H   0  0  0  0  0  0  0  0  0  0  0  0
   -1.5204    1.5934    1.2039 H   0  0  0  0  0  0  0  0  0  0  0  0
   -2.0314   -1.0453    1.1784 H   0  0  0  0  0  0  0  0  0  0  0  0
   -0.3020   -1.6625    1.1467 H   0  0  0  0  0  0  0  0  0  0  0  0
   -0.7823   -0.1018    2.0101 H   0  0  0  0  0  0  0  0  0  0  0  0
   -1.0701   -0.5130   -2.2395 H   0  0  0  0  0  0  0  0  0  0  0  0
   -1.7162   -1.7285   -1.0129 H   0  0  0  0  0  0  0  0  0  0  0  0
   -2.5469   -0.1894   -1.3090 H   0  0  0  0  0  0  0  0  0  0  0  0
  1  2  1  0
  2  3  1  0
  3  4  1  0
  2  5  1  0
  5  6  1  0
  5  7  1  0
  5  8  1  0
  1  9  1  0
  1 10  1  0
  1 11  1  0
  2 12  1  0
  3 13  1  0
  3 14  1  0
  4 15  1  0
  6 16  1  0
  6 17  1  0
  6 18  1  0
  7 19  1  0
  7 20  1  0
  7 21  1  0
  8 22  1  0
  8 23  1  0
  8 24  1  0
M  END
