
     RDKit          3D

 25 26  0  0  0  0  0  0  0  0999 V2000
   -2.0847   -0.0886    1.3305 C   0  0  0  0  0  0  0  0  0  0  0  0
   -1.4464   -0.3671   -0.0367 C   0  0  0  0  0  0  0  0  0  0  0  0
   -2.1546    0.5740   -1.0223 C   0  0  0  0  0  0  0  0  0  0  0  0
   -0.0311    0.0516    0.0507 C   0  0  0  0  0  0  0  0  0  0  0  0
    0.8769   -0.0783   -1.0952 C   0  0  0  0  0  0  0  0  0  0  0  0
    0.9050   -1.5689   -0.8181 C   0  0  0  0  0  0  0  0  0  0  0  0
    0.9836   -0.9515    0.5303 C   0  0  0  0  0  0  0  0  0  0  0  0
    2.0024   -0.0292   -0.0895 C   0  0  0  0  0  0  0  0  0  0  0  0
    2.2416    1.2630    0.5900 C   0  0  0  0  0  0  0  0  0  0  0  0
   -3.1790    0.0290    1.2071 H   0  0  0  0  0  0  0  0  0  0  0  0
   -1.8414   -0.8766    2.0563 H   0  0  0  0  0  0  0  0  0  0  0  0
   -1.6199    0.8525    1.6908 H   0  0  0  0  0  0  0  0  0  0  0  0
   -1.6631   -1.3747   -0.3827 H   0  0  0  0  0  0  0  0  0  0  0  0
   -3.1869    0.8027   -0.6711 H   0  0  0  0  0  0  0  0  0  0  0  0
   -1.6218    1.5499   -1.0822 H   0  0  0  0  0  0  0  0  0  0  0  0
   -2.1337    0.1548   -2.0472 H   0  0  0  0  0  0  0  0  0  0  0  0
    0.0518    0.9790    0.6722 H   0  0  0  0  0  0  0  0  0  0  0  0
    0.8698    0.3482   -1.9995 H   0  0  0  0  0  0  0  0  0  0  0  0
    1.9105   -2.0013   -1.0916 H   0  0  0  0  0  0  0  0  0  0  0  0
    0.0487   -2.1596   -1.1061 H   0  0  0  0  0  0  0  0  0  0  0  0
    1.0318   -1.3837    1.4274 H   0  0  0  0  0  0  0  0  0  0  0  0
    2.9053   -0.5634   -0.4340 H   0  0  0  0  0  0  0  0  0  0  0  0
    2.1391    1.1794    1.7044 H   0  0  0  0  0  0  0  0  0  0  0  0
    3.3241    1.5365    0.4313 H   0  0  0  0  0  0  0  0  0  0  0  0
    1.6719    2.1224    0.1853 H   0  0  0  0  0  0  0  0  0  0  0  0
  1  2  1  0
  2  3  1  0
  2  4  1  0
  4  5  1  0
  5  6  1  0
  6  7  1  0
  7  8  1  0
  8  9  1  0
  7  4  1  0
  8  5  1  0
  1 10  1  0
  1 11  1  0
  1 12  1  0
  2 13  1  0
  3 14  1  0
  3 15  1  0
  3 16  1  0
  4 17  1  0
  5 18  1  0
  6 19  1  0
  6 20  1  0
  7 21  1  0
  8 22  1  0
  9 23  1  0
  9 24  1  0
  9 25  1  0
M  END
