
     RDKit          3D

 21 21  0  0  0  0  0  0  0  0999 V2000
   -1.4995   -1.5580   -0.1129 C   0  0  0  0  0  0  0  0  0  0  0  0
   -1.2194   -0.0896   -0.4612 C   0  0  0  0  0  0  0  0  0  0  0  0
   -2.3172    0.6889    0.1505 C   0  0  0  0  0  0  0  0  0  0  0  0
   -2.6899    0.4038    1.2626 O   0  0  0  0  0  0  0  0  0  0  0  0
    0.0857    0.3562    0.1611 C   0  0  0  0  0  0  0  0  0  0  0  0
    0.1570    0.2785    1.5515 O   0  0  0  0  0  0  0  0  0  0  0  0
    0.8708    1.4711   -0.4323 C   0  0  0  0  0  0  0  0  0  0  0  0
    1.3669    0.1069   -0.6343 C   0  0  0  0  0  0  0  0  0  0  0  0
    2.4691   -0.4984    0.1680 C   0  0  0  0  0  0  0  0  0  0  0  0
   -2.5708   -1.7349   -0.2583 H   0  0  0  0  0  0  0  0  0  0  0  0
   -0.9377   -2.2456   -0.7642 H   0  0  0  0  0  0  0  0  0  0  0  0
   -1.1639   -1.7007    0.9379 H   0  0  0  0  0  0  0  0  0  0  0  0
   -1.2408    0.0480   -1.5447 H   0  0  0  0  0  0  0  0  0  0  0  0
   -2.7728    1.4932   -0.3877 H   0  0  0  0  0  0  0  0  0  0  0  0
    0.1166    1.2331    1.8716 H   0  0  0  0  0  0  0  0  0  0  0  0
    1.4582    2.1534    0.2066 H   0  0  0  0  0  0  0  0  0  0  0  0
    0.3868    1.9936   -1.2830 H   0  0  0  0  0  0  0  0  0  0  0  0
    1.2609   -0.3110   -1.6560 H   0  0  0  0  0  0  0  0  0  0  0  0
    2.3621   -0.3164    1.2734 H   0  0  0  0  0  0  0  0  0  0  0  0
    3.4828   -0.1505   -0.1208 H   0  0  0  0  0  0  0  0  0  0  0  0
    2.3952   -1.6216    0.0720 H   0  0  0  0  0  0  0  0  0  0  0  0
  1  2  1  0
  2  3  1  0
  3  4  2  0
  2  5  1  0
  5  6  1  0
  5  7  1  0
  7  8  1  0
  8  9  1  0
  8  5  1  0
  1 10  1  0
  1 11  1  0
  1 12  1  0
  2 13  1  0
  3 14  1  0
  6 15  1  0
  7 16  1  0
  7 17  1  0
  8 18  1  0
  9 19  1  0
  9 20  1  0
  9 21  1  0
M  END
