
     RDKit          3D

 21 22  0  0  0  0  0  0  0  0999 V2000
    0.9363    1.6346   -0.1077 C   0  0  0  0  0  0  0  0  0  0  0  0
    0.5144    0.3300   -0.7739 C   0  0  0  0  0  0  0  0  0  0  0  0
    1.6725   -0.6576   -0.6816 C   0  0  0  0  0  0  0  0  0  0  0  0
    2.0334   -0.9312    0.6179 O   0  0  0  0  0  0  0  0  0  0  0  0
   -0.6413   -0.1716   -0.2111 C   0  0  0  0  0  0  0  0  0  0  0  0
   -1.9859    0.4196   -0.1137 C   0  0  0  0  0  0  0  0  0  0  0  0
   -2.0643   -0.9615    0.4651 C   0  0  0  0  0  0  0  0  0  0  0  0
   -0.7939   -0.6647    1.1963 C   0  0  0  0  0  0  0  0  0  0  0  0
   -1.2698   -1.3684   -0.5992 O   0  0  0  0  0  0  0  0  0  0  0  0
    0.0866    2.3546   -0.2528 H   0  0  0  0  0  0  0  0  0  0  0  0
    1.8241    2.0796   -0.6116 H   0  0  0  0  0  0  0  0  0  0  0  0
    1.0777    1.5284    0.9727 H   0  0  0  0  0  0  0  0  0  0  0  0
    0.4113    0.5653   -1.8517 H   0  0  0  0  0  0  0  0  0  0  0  0
    1.3218   -1.6110   -1.1550 H   0  0  0  0  0  0  0  0  0  0  0  0
    2.5457   -0.3277   -1.2694 H   0  0  0  0  0  0  0  0  0  0  0  0
    2.9917   -1.2231    0.5977 H   0  0  0  0  0  0  0  0  0  0  0  0
   -2.5447    0.5659   -1.0791 H   0  0  0  0  0  0  0  0  0  0  0  0
   -2.1640    1.2422    0.5827 H   0  0  0  0  0  0  0  0  0  0  0  0
   -2.8841   -1.4274    0.8207 H   0  0  0  0  0  0  0  0  0  0  0  0
   -0.1609   -1.5089    1.4801 H   0  0  0  0  0  0  0  0  0  0  0  0
   -0.9066    0.1327    1.9737 H   0  0  0  0  0  0  0  0  0  0  0  0
  1  2  1  0
  2  3  1  0
  3  4  1  0
  2  5  1  0
  5  6  1  0
  6  7  1  0
  7  8  1  0
  7  9  1  0
  8  5  1  0
  9  5  1  0
  1 10  1  0
  1 11  1  0
  1 12  1  0
  2 13  1  0
  3 14  1  0
  3 15  1  0
  4 16  1  0
  6 17  1  0
  6 18  1  0
  7 19  1  0
  8 20  1  0
  8 21  1  0
M  END
