
     RDKit          3D

 21 20  0  0  0  0  0  0  0  0999 V2000
   -1.8969    0.4992    0.7059 C   0  0  0  0  0  0  0  0  0  0  0  0
   -1.2541   -0.4866   -0.2573 C   0  0  0  0  0  0  0  0  0  0  0  0
   -1.2224    0.0394   -1.6588 C   0  0  0  0  0  0  0  0  0  0  0  0
    0.0852   -0.9039    0.2487 C   0  0  0  0  0  0  0  0  0  0  0  0
    1.0435    0.2486    0.4112 C   0  0  0  0  0  0  0  0  0  0  0  0
    2.3746   -0.2558    0.9263 C   0  0  0  0  0  0  0  0  0  0  0  0
    1.1727    0.8475   -0.8531 O   0  0  0  0  0  0  0  0  0  0  0  0
   -1.9521   -0.0031    1.7019 H   0  0  0  0  0  0  0  0  0  0  0  0
   -2.9199    0.7612    0.3783 H   0  0  0  0  0  0  0  0  0  0  0  0
   -1.2736    1.4200    0.7348 H   0  0  0  0  0  0  0  0  0  0  0  0
   -1.9102   -1.3854   -0.2540 H   0  0  0  0  0  0  0  0  0  0  0  0
   -2.1573   -0.1363   -2.2159 H   0  0  0  0  0  0  0  0  0  0  0  0
   -0.4153   -0.5229   -2.2081 H   0  0  0  0  0  0  0  0  0  0  0  0
   -1.0067    1.1146   -1.6857 H   0  0  0  0  0  0  0  0  0  0  0  0
    0.5172   -1.6801   -0.3925 H   0  0  0  0  0  0  0  0  0  0  0  0
   -0.0760   -1.3750    1.2583 H   0  0  0  0  0  0  0  0  0  0  0  0
    0.6896    1.0099    1.1108 H   0  0  0  0  0  0  0  0  0  0  0  0
    2.2666   -0.4113    2.0181 H   0  0  0  0  0  0  0  0  0  0  0  0
    3.1556    0.5251    0.7525 H   0  0  0  0  0  0  0  0  0  0  0  0
    2.6590   -1.1825    0.3876 H   0  0  0  0  0  0  0  0  0  0  0  0
    2.1204    0.9770   -1.1089 H   0  0  0  0  0  0  0  0  0  0  0  0
  1  2  1  0
  2  3  1  0
  2  4  1  0
  4  5  1  0
  5  6  1  0
  5  7  1  0
  1  8  1  0
  1  9  1  0
  1 10  1  0
  2 11  1  0
  3 12  1  0
  3 13  1  0
  3 14  1  0
  4 15  1  0
  4 16  1  0
  5 17  1  0
  6 18  1  0
  6 19  1  0
  6 20  1  0
  7 21  1  0
M  END
