
     RDKit          3D

 25 24  0  0  0  0  0  0  0  0999 V2000
   -1.6030    1.3052   -0.9079 C   0  0  0  0  0  0  0  0  0  0  0  0
   -1.2432   -0.0359   -0.4029 C   0  0  0  0  0  0  0  0  0  0  0  0
   -2.3125   -0.4892    0.5733 C   0  0  0  0  0  0  0  0  0  0  0  0
    0.0756   -0.1433    0.2866 C   0  0  0  0  0  0  0  0  0  0  0  0
    0.2371   -1.5973    0.7191 C   0  0  0  0  0  0  0  0  0  0  0  0
    1.2608    0.1997   -0.5665 C   0  0  0  0  0  0  0  0  0  0  0  0
    1.2562    1.4754   -1.0639 O   0  0  0  0  0  0  0  0  0  0  0  0
    2.5067   -0.0763    0.2803 C   0  0  0  0  0  0  0  0  0  0  0  0
    2.6066    0.7641    1.3559 O   0  0  0  0  0  0  0  0  0  0  0  0
   -0.9398    2.1291   -0.5989 H   0  0  0  0  0  0  0  0  0  0  0  0
   -1.6429    1.2954   -2.0225 H   0  0  0  0  0  0  0  0  0  0  0  0
   -2.6390    1.6083   -0.5882 H   0  0  0  0  0  0  0  0  0  0  0  0
   -1.2323   -0.7813   -1.2477 H   0  0  0  0  0  0  0  0  0  0  0  0
   -2.6477   -1.5257    0.3821 H   0  0  0  0  0  0  0  0  0  0  0  0
   -3.2202    0.1743    0.5135 H   0  0  0  0  0  0  0  0  0  0  0  0
   -1.9580   -0.3513    1.6366 H   0  0  0  0  0  0  0  0  0  0  0  0
    0.0633    0.4624    1.2151 H   0  0  0  0  0  0  0  0  0  0  0  0
    0.8183   -2.1834   -0.0375 H   0  0  0  0  0  0  0  0  0  0  0  0
    0.7464   -1.7043    1.6759 H   0  0  0  0  0  0  0  0  0  0  0  0
   -0.7404   -2.1143    0.8031 H   0  0  0  0  0  0  0  0  0  0  0  0
    1.3455   -0.4993   -1.4259 H   0  0  0  0  0  0  0  0  0  0  0  0
    1.2662    1.5196   -2.0599 H   0  0  0  0  0  0  0  0  0  0  0  0
    2.4125   -1.1072    0.6423 H   0  0  0  0  0  0  0  0  0  0  0  0
    3.3662    0.0282   -0.4076 H   0  0  0  0  0  0  0  0  0  0  0  0
    2.2174    1.6471    1.2456 H   0  0  0  0  0  0  0  0  0  0  0  0
  1  2  1  0
  2  3  1  0
  2  4  1  0
  4  5  1  0
  4  6  1  0
  6  7  1  0
  6  8  1  0
  8  9  1  0
  1 10  1  0
  1 11  1  0
  1 12  1  0
  2 13  1  0
  3 14  1  0
  3 15  1  0
  3 16  1  0
  4 17  1  0
  5 18  1  0
  5 19  1  0
  5 20  1  0
  6 21  1  0
  7 22  1  0
  8 23  1  0
  8 24  1  0
  9 25  1  0
M  END
