
     RDKit          3D

 23 23  0  0  0  0  0  0  0  0999 V2000
   -2.7613   -0.4696   -0.3937 C   0  0  0  0  0  0  0  0  0  0  0  0
   -1.4801   -0.0460    0.3482 C   0  0  0  0  0  0  0  0  0  0  0  0
   -1.4103    1.4493    0.3261 C   0  0  0  0  0  0  0  0  0  0  0  0
   -0.3171   -0.6836   -0.3461 C   0  0  0  0  0  0  0  0  0  0  0  0
    0.9613   -0.3379    0.3142 C   0  0  0  0  0  0  0  0  0  0  0  0
    2.1907   -1.0245   -0.3555 C   0  0  0  0  0  0  0  0  0  0  0  0
    2.9354    0.1585    0.2866 C   0  0  0  0  0  0  0  0  0  0  0  0
    1.6588    0.9078   -0.0260 C   0  0  0  0  0  0  0  0  0  0  0  0
    1.4715    2.0236   -0.3829 O   0  0  0  0  0  0  0  0  0  0  0  0
   -3.5844    0.2020   -0.0931 H   0  0  0  0  0  0  0  0  0  0  0  0
   -2.9530   -1.5070   -0.0756 H   0  0  0  0  0  0  0  0  0  0  0  0
   -2.5108   -0.3990   -1.4650 H   0  0  0  0  0  0  0  0  0  0  0  0
   -1.5984   -0.3966    1.3965 H   0  0  0  0  0  0  0  0  0  0  0  0
   -1.1796    1.8018   -0.6918 H   0  0  0  0  0  0  0  0  0  0  0  0
   -0.7339    1.7866    1.1181 H   0  0  0  0  0  0  0  0  0  0  0  0
   -2.4416    1.8303    0.6380 H   0  0  0  0  0  0  0  0  0  0  0  0
   -0.4201   -1.8101   -0.3044 H   0  0  0  0  0  0  0  0  0  0  0  0
   -0.2776   -0.3923   -1.4194 H   0  0  0  0  0  0  0  0  0  0  0  0
    1.0142   -0.5423    1.4046 H   0  0  0  0  0  0  0  0  0  0  0  0
    2.1349   -0.9178   -1.4529 H   0  0  0  0  0  0  0  0  0  0  0  0
    2.4251   -1.9992    0.0609 H   0  0  0  0  0  0  0  0  0  0  0  0
    3.0922   -0.0550    1.3437 H   0  0  0  0  0  0  0  0  0  0  0  0
    3.7840    0.4211   -0.3371 H   0  0  0  0  0  0  0  0  0  0  0  0
  1  2  1  0
  2  3  1  0
  2  4  1  0
  4  5  1  0
  5  6  1  0
  6  7  1  0
  7  8  1  0
  8  9  2  0
  8  5  1  0
  1 10  1  0
  1 11  1  0
  1 12  1  0
  2 13  1  0
  3 14  1  0
  3 15  1  0
  3 16  1  0
  4 17  1  0
  4 18  1  0
  5 19  1  0
  6 20  1  0
  6 21  1  0
  7 22  1  0
  7 23  1  0
M  END
