
     RDKit          2D

 23 25  0  0  0  0  0  0  0  0999 V2000
    0.8660    2.1213    0.0000 C   0  0  0  0  0  0  0  0  0  0  0  0
    1.9267    1.0607    0.0000 C   0  0  0  0  0  0  0  0  0  0  0  0
    2.9873   -0.0000    0.0000 C   0  0  0  0  0  0  0  0  0  0  0  0
    0.8660    0.0000    0.0000 C   0  0  0  0  0  0  0  0  0  0  0  0
    1.6160   -1.2990    0.0000 C   0  0  0  0  0  0  0  0  0  0  0  0
    0.3170   -2.0490    0.0000 C   0  0  0  0  0  0  0  0  0  0  0  0
   -1.1830   -0.5490    0.0000 C   0  0  0  0  0  0  0  0  0  0  0  0
   -0.4330    0.7500    0.0000 C   0  0  0  0  0  0  0  0  0  0  0  0
   -0.4330   -0.7500    0.0000 C   0  0  0  0  0  0  0  0  0  0  0  0
   -0.1946    3.1820    0.0000 H   0  0  0  0  0  0  0  0  0  0  0  0
    1.9267    3.1820    0.0000 H   0  0  0  0  0  0  0  0  0  0  0  0
   -0.0713    1.5582    0.0000 H   0  0  0  0  0  0  0  0  0  0  0  0
    2.9873    2.1213    0.0000 H   0  0  0  0  0  0  0  0  0  0  0  0
    4.0480   -1.0607    0.0000 H   0  0  0  0  0  0  0  0  0  0  0  0
    4.0480    1.0607    0.0000 H   0  0  0  0  0  0  0  0  0  0  0  0
    2.5768   -0.6833    0.0000 H   0  0  0  0  0  0  0  0  0  0  0  0
    2.3660   -2.5981    0.0000 H   0  0  0  0  0  0  0  0  0  0  0  0
    2.6672   -0.9977    0.0000 H   0  0  0  0  0  0  0  0  0  0  0  0
   -0.0712   -3.4979    0.0000 H   0  0  0  0  0  0  0  0  0  0  0  0
   -2.4821    0.2010    0.0000 H   0  0  0  0  0  0  0  0  0  0  0  0
   -2.0858   -1.7470    0.0000 H   0  0  0  0  0  0  0  0  0  0  0  0
   -1.1830    2.0490    0.0000 H   0  0  0  0  0  0  0  0  0  0  0  0
   -1.8238   -1.3119    0.0000 H   0  0  0  0  0  0  0  0  0  0  0  0
  1  2  1  0
  2  3  1  0
  2  4  1  0
  4  5  1  0
  5  6  1  0
  6  7  1  0
  7  8  1  0
  8  9  1  0
  8  4  1  0
  9  4  1  0
  9  6  1  0
  1 10  1  0
  1 11  1  0
  1 12  1  0
  2 13  1  0
  3 14  1  0
  3 15  1  0
  3 16  1  0
  5 17  1  0
  5 18  1  0
  6 19  1  0
  7 20  1  0
  7 21  1  0
  8 22  1  0
  9 23  1  0
M  END
