
     RDKit          3D

 25 24  0  0  0  0  0  0  0  0999 V2000
    1.0336   -0.9755   -1.1252 C   0  0  0  0  0  0  0  0  0  0  0  0
    0.9890    0.3007   -0.3279 C   0  0  0  0  0  0  0  0  0  0  0  0
    2.4316    0.5302    0.1511 C   0  0  0  0  0  0  0  0  0  0  0  0
    3.2621    0.6444   -0.9417 O   0  0  0  0  0  0  0  0  0  0  0  0
    0.0760    0.2647    0.8385 C   0  0  0  0  0  0  0  0  0  0  0  0
   -1.3612    0.0254    0.5940 C   0  0  0  0  0  0  0  0  0  0  0  0
   -1.7377   -1.2553   -0.0604 C   0  0  0  0  0  0  0  0  0  0  0  0
   -2.0309    1.1554   -0.1710 C   0  0  0  0  0  0  0  0  0  0  0  0
   -1.9869    0.0475    1.8693 O   0  0  0  0  0  0  0  0  0  0  0  0
    1.9615   -0.8794   -1.7778 H   0  0  0  0  0  0  0  0  0  0  0  0
    0.1975   -1.1438   -1.7926 H   0  0  0  0  0  0  0  0  0  0  0  0
    1.2857   -1.8323   -0.4570 H   0  0  0  0  0  0  0  0  0  0  0  0
    0.6782    1.1396   -0.9949 H   0  0  0  0  0  0  0  0  0  0  0  0
    2.4911    1.3895    0.8424 H   0  0  0  0  0  0  0  0  0  0  0  0
    2.7105   -0.3895    0.7034 H   0  0  0  0  0  0  0  0  0  0  0  0
    3.5412    1.5980   -1.0336 H   0  0  0  0  0  0  0  0  0  0  0  0
    0.4153   -0.5266    1.5760 H   0  0  0  0  0  0  0  0  0  0  0  0
    0.1649    1.2266    1.4107 H   0  0  0  0  0  0  0  0  0  0  0  0
   -2.6910   -1.6237    0.4361 H   0  0  0  0  0  0  0  0  0  0  0  0
   -1.0151   -2.0783    0.0462 H   0  0  0  0  0  0  0  0  0  0  0  0
   -2.0602   -1.0639   -1.1127 H   0  0  0  0  0  0  0  0  0  0  0  0
   -1.6928    1.1299   -1.2261 H   0  0  0  0  0  0  0  0  0  0  0  0
   -3.1252    0.9226   -0.1694 H   0  0  0  0  0  0  0  0  0  0  0  0
   -1.8319    2.1194    0.3331 H   0  0  0  0  0  0  0  0  0  0  0  0
   -1.7052   -0.7255    2.3896 H   0  0  0  0  0  0  0  0  0  0  0  0
  1  2  1  0
  2  3  1  0
  3  4  1  0
  2  5  1  0
  5  6  1  0
  6  7  1  0
  6  8  1  0
  6  9  1  0
  1 10  1  0
  1 11  1  0
  1 12  1  0
  2 13  1  0
  3 14  1  0
  3 15  1  0
  4 16  1  0
  5 17  1  0
  5 18  1  0
  7 19  1  0
  7 20  1  0
  7 21  1  0
  8 22  1  0
  8 23  1  0
  8 24  1  0
  9 25  1  0
M  END
