
     RDKit          3D

 21 20  0  0  0  0  0  0  0  0999 V2000
   -1.6838    1.4662   -0.4784 C   0  0  0  0  0  0  0  0  0  0  0  0
   -1.0169    0.3995    0.3639 C   0  0  0  0  0  0  0  0  0  0  0  0
   -1.7453   -0.9146    0.1603 C   0  0  0  0  0  0  0  0  0  0  0  0
   -3.0702   -0.7841    0.5427 O   0  0  0  0  0  0  0  0  0  0  0  0
    0.4007    0.3105   -0.0641 C   0  0  0  0  0  0  0  0  0  0  0  0
    0.8456    1.0170   -0.9466 O   0  0  0  0  0  0  0  0  0  0  0  0
    1.3377   -0.6498    0.5715 C   0  0  0  0  0  0  0  0  0  0  0  0
    2.6897   -0.5207   -0.0544 C   0  0  0  0  0  0  0  0  0  0  0  0
    3.1826    0.7687    0.1146 O   0  0  0  0  0  0  0  0  0  0  0  0
   -1.2982    2.4389   -0.1707 H   0  0  0  0  0  0  0  0  0  0  0  0
   -1.3227    1.2983   -1.5327 H   0  0  0  0  0  0  0  0  0  0  0  0
   -2.7861    1.3879   -0.4732 H   0  0  0  0  0  0  0  0  0  0  0  0
   -1.1114    0.7101    1.4238 H   0  0  0  0  0  0  0  0  0  0  0  0
   -1.2732   -1.6605    0.8406 H   0  0  0  0  0  0  0  0  0  0  0  0
   -1.6216   -1.2741   -0.8722 H   0  0  0  0  0  0  0  0  0  0  0  0
   -3.6688   -0.6501   -0.2405 H   0  0  0  0  0  0  0  0  0  0  0  0
    0.9160   -1.6747    0.4400 H   0  0  0  0  0  0  0  0  0  0  0  0
    1.3407   -0.4606    1.6630 H   0  0  0  0  0  0  0  0  0  0  0  0
    2.6715   -0.7117   -1.1450 H   0  0  0  0  0  0  0  0  0  0  0  0
    3.3917   -1.2844    0.3678 H   0  0  0  0  0  0  0  0  0  0  0  0
    3.8219    0.7883    0.8639 H   0  0  0  0  0  0  0  0  0  0  0  0
  1  2  1  0
  2  3  1  0
  3  4  1  0
  2  5  1  0
  5  6  2  0
  5  7  1  0
  7  8  1  0
  8  9  1  0
  1 10  1  0
  1 11  1  0
  1 12  1  0
  2 13  1  0
  3 14  1  0
  3 15  1  0
  4 16  1  0
  7 17  1  0
  7 18  1  0
  8 19  1  0
  8 20  1  0
  9 21  1  0
M  END
