
     RDKit          3D

 23 23  0  0  0  0  0  0  0  0999 V2000
   -1.4988    1.3210    0.1406 C   0  0  0  0  0  0  0  0  0  0  0  0
   -1.0178   -0.0896    0.3881 C   0  0  0  0  0  0  0  0  0  0  0  0
   -1.8800   -1.0058   -0.4272 C   0  0  0  0  0  0  0  0  0  0  0  0
    0.4497   -0.2572    0.0672 C   0  0  0  0  0  0  0  0  0  0  0  0
    0.8085   -1.7018    0.3539 C   0  0  0  0  0  0  0  0  0  0  0  0
    1.3313    0.6257    0.8786 C   0  0  0  0  0  0  0  0  0  0  0  0
    1.4711    1.7331    0.0188 O   0  0  0  0  0  0  0  0  0  0  0  0
    1.7853    1.0381   -1.1731 C   0  0  0  0  0  0  0  0  0  0  0  0
    0.7485    0.1003   -1.2359 O   0  0  0  0  0  0  0  0  0  0  0  0
   -1.6229    1.5567   -0.9154 H   0  0  0  0  0  0  0  0  0  0  0  0
   -2.5303    1.3752    0.5960 H   0  0  0  0  0  0  0  0  0  0  0  0
   -0.8824    2.0853    0.6152 H   0  0  0  0  0  0  0  0  0  0  0  0
   -1.1446   -0.3130    1.4693 H   0  0  0  0  0  0  0  0  0  0  0  0
   -2.8468   -1.1296    0.1442 H   0  0  0  0  0  0  0  0  0  0  0  0
   -2.2029   -0.5180   -1.3939 H   0  0  0  0  0  0  0  0  0  0  0  0
   -1.4388   -1.9841   -0.6373 H   0  0  0  0  0  0  0  0  0  0  0  0
    1.8828   -1.8106    0.6201 H   0  0  0  0  0  0  0  0  0  0  0  0
    0.5774   -2.2869   -0.5518 H   0  0  0  0  0  0  0  0  0  0  0  0
    0.1732   -2.0464    1.2096 H   0  0  0  0  0  0  0  0  0  0  0  0
    0.9051    0.9241    1.8534 H   0  0  0  0  0  0  0  0  0  0  0  0
    2.3479    0.1940    0.9699 H   0  0  0  0  0  0  0  0  0  0  0  0
    2.7427    0.4988   -0.9514 H   0  0  0  0  0  0  0  0  0  0  0  0
    1.8417    1.6907   -2.0390 H   0  0  0  0  0  0  0  0  0  0  0  0
  1  2  1  0
  2  3  1  0
  2  4  1  0
  4  5  1  0
  4  6  1  0
  6  7  1  0
  7  8  1  0
  8  9  1  0
  9  4  1  0
  1 10  1  0
  1 11  1  0
  1 12  1  0
  2 13  1  0
  3 14  1  0
  3 15  1  0
  3 16  1  0
  5 17  1  0
  5 18  1  0
  5 19  1  0
  6 20  1  0
  6 21  1  0
  8 22  1  0
  8 23  1  0
M  END
