
     RDKit          3D

 21 20  0  0  0  0  0  0  0  0999 V2000
   -2.0646    1.0661   -0.3492 C   0  0  0  0  0  0  0  0  0  0  0  0
   -1.1801   -0.0560    0.1763 C   0  0  0  0  0  0  0  0  0  0  0  0
   -1.8963   -1.3753   -0.0411 C   0  0  0  0  0  0  0  0  0  0  0  0
   -1.0798    0.1278    1.5491 O   0  0  0  0  0  0  0  0  0  0  0  0
    0.1535   -0.0481   -0.4833 C   0  0  0  0  0  0  0  0  0  0  0  0
    0.1786   -0.2020   -1.6923 O   0  0  0  0  0  0  0  0  0  0  0  0
    1.3563    0.1432    0.3513 C   0  0  0  0  0  0  0  0  0  0  0  0
    2.6280    0.1258   -0.4676 C   0  0  0  0  0  0  0  0  0  0  0  0
    3.7468    0.3084    0.3429 O   0  0  0  0  0  0  0  0  0  0  0  0
   -2.7178    0.6955   -1.1773 H   0  0  0  0  0  0  0  0  0  0  0  0
   -2.7736    1.3996    0.4480 H   0  0  0  0  0  0  0  0  0  0  0  0
   -1.4580    1.9442   -0.6533 H   0  0  0  0  0  0  0  0  0  0  0  0
   -2.8858   -1.2052   -0.5059 H   0  0  0  0  0  0  0  0  0  0  0  0
   -1.2606   -2.0162   -0.7020 H   0  0  0  0  0  0  0  0  0  0  0  0
   -2.0623   -1.9259    0.9034 H   0  0  0  0  0  0  0  0  0  0  0  0
   -0.7240    1.0640    1.6688 H   0  0  0  0  0  0  0  0  0  0  0  0
    1.4171   -0.7558    1.0295 H   0  0  0  0  0  0  0  0  0  0  0  0
    1.2593    1.0752    0.9225 H   0  0  0  0  0  0  0  0  0  0  0  0
    2.6107    0.9875   -1.1867 H   0  0  0  0  0  0  0  0  0  0  0  0
    2.7754   -0.8433   -0.9865 H   0  0  0  0  0  0  0  0  0  0  0  0
    3.9771   -0.5093    0.8535 H   0  0  0  0  0  0  0  0  0  0  0  0
  1  2  1  0
  2  3  1  0
  2  4  1  0
  2  5  1  0
  5  6  2  0
  5  7  1  0
  7  8  1  0
  8  9  1  0
  1 10  1  0
  1 11  1  0
  1 12  1  0
  3 13  1  0
  3 14  1  0
  3 15  1  0
  4 16  1  0
  7 17  1  0
  7 18  1  0
  8 19  1  0
  8 20  1  0
  9 21  1  0
M  END
