
     RDKit          3D

 23 22  0  0  0  0  0  0  0  0999 V2000
   -1.5924   -1.5820   -0.7170 C   0  0  0  0  0  0  0  0  0  0  0  0
   -1.0458   -0.2460   -0.2437 C   0  0  0  0  0  0  0  0  0  0  0  0
   -1.7022    0.8733   -1.0386 C   0  0  0  0  0  0  0  0  0  0  0  0
   -1.3088   -0.0701    1.2172 C   0  0  0  0  0  0  0  0  0  0  0  0
    0.4294   -0.2080   -0.5790 C   0  0  0  0  0  0  0  0  0  0  0  0
    0.9736    0.9810   -0.1716 O   0  0  0  0  0  0  0  0  0  0  0  0
    2.3071    1.1503   -0.4151 C   0  0  0  0  0  0  0  0  0  0  0  0
    3.1628    0.1220    0.2593 C   0  0  0  0  0  0  0  0  0  0  0  0
    4.3694    0.1110    0.1534 O   0  0  0  0  0  0  0  0  0  0  0  0
   -1.0494   -2.3828   -0.1665 H   0  0  0  0  0  0  0  0  0  0  0  0
   -1.3955   -1.6588   -1.8025 H   0  0  0  0  0  0  0  0  0  0  0  0
   -2.6777   -1.6630   -0.5345 H   0  0  0  0  0  0  0  0  0  0  0  0
   -1.6761    1.7954   -0.4449 H   0  0  0  0  0  0  0  0  0  0  0  0
   -2.7489    0.5883   -1.2727 H   0  0  0  0  0  0  0  0  0  0  0  0
   -1.1764    1.0453   -2.0095 H   0  0  0  0  0  0  0  0  0  0  0  0
   -1.9246   -0.9159    1.6166 H   0  0  0  0  0  0  0  0  0  0  0  0
   -0.4036   -0.0157    1.8336 H   0  0  0  0  0  0  0  0  0  0  0  0
   -1.9039    0.8608    1.4345 H   0  0  0  0  0  0  0  0  0  0  0  0
    0.9545   -1.0438   -0.0772 H   0  0  0  0  0  0  0  0  0  0  0  0
    0.5202   -0.3928   -1.6692 H   0  0  0  0  0  0  0  0  0  0  0  0
    2.6120    2.1264    0.0149 H   0  0  0  0  0  0  0  0  0  0  0  0
    2.5697    1.1739   -1.4915 H   0  0  0  0  0  0  0  0  0  0  0  0
    2.7067   -0.6489    0.8688 H   0  0  0  0  0  0  0  0  0  0  0  0
  1  2  1  0
  2  3  1  0
  2  4  1  0
  2  5  1  0
  5  6  1  0
  6  7  1  0
  7  8  1  0
  8  9  2  0
  1 10  1  0
  1 11  1  0
  1 12  1  0
  3 13  1  0
  3 14  1  0
  3 15  1  0
  4 16  1  0
  4 17  1  0
  4 18  1  0
  5 19  1  0
  5 20  1  0
  7 21  1  0
  7 22  1  0
  8 23  1  0
M  END
