
     RDKit          3D

 19 19  0  0  0  0  0  0  0  0999 V2000
    2.2574   -0.9658    0.0769 C   0  0  0  0  0  0  0  0  0  0  0  0
    1.2669    0.1608    0.3475 C   0  0  0  0  0  0  0  0  0  0  0  0
    2.0142    1.4318    0.1851 C   0  0  0  0  0  0  0  0  0  0  0  0
    1.6591    2.2216   -0.6621 O   0  0  0  0  0  0  0  0  0  0  0  0
    0.2303    0.0805   -0.5429 O   0  0  0  0  0  0  0  0  0  0  0  0
   -1.0024   -0.0202    0.0933 C   0  0  0  0  0  0  0  0  0  0  0  0
   -1.9760   -1.0369   -0.4624 C   0  0  0  0  0  0  0  0  0  0  0  0
   -2.1893    0.4179   -0.6634 C   0  0  0  0  0  0  0  0  0  0  0  0
   -3.2543    1.0300   -0.0105 O   0  0  0  0  0  0  0  0  0  0  0  0
    1.8278   -1.6586   -0.6756 H   0  0  0  0  0  0  0  0  0  0  0  0
    2.4284   -1.5026    1.0280 H   0  0  0  0  0  0  0  0  0  0  0  0
    3.2077   -0.5909   -0.3476 H   0  0  0  0  0  0  0  0  0  0  0  0
    0.8867    0.1271    1.3921 H   0  0  0  0  0  0  0  0  0  0  0  0
    2.8700    1.6679    0.8077 H   0  0  0  0  0  0  0  0  0  0  0  0
   -0.9535   -0.0195    1.1952 H   0  0  0  0  0  0  0  0  0  0  0  0
   -2.6566   -1.5581    0.2387 H   0  0  0  0  0  0  0  0  0  0  0  0
   -1.5923   -1.6933   -1.2581 H   0  0  0  0  0  0  0  0  0  0  0  0
   -2.0235    0.7990   -1.6932 H   0  0  0  0  0  0  0  0  0  0  0  0
   -3.0005    1.1092    0.9514 H   0  0  0  0  0  0  0  0  0  0  0  0
  1  2  1  0
  2  3  1  0
  3  4  2  0
  2  5  1  0
  5  6  1  0
  6  7  1  0
  7  8  1  0
  8  9  1  0
  8  6  1  0
  1 10  1  0
  1 11  1  0
  1 12  1  0
  2 13  1  0
  3 14  1  0
  6 15  1  0
  7 16  1  0
  7 17  1  0
  8 18  1  0
  9 19  1  0
M  END
