
     RDKit          3D

 23 23  0  0  0  0  0  0  0  0999 V2000
    1.1303   -0.0239    1.2769 C   0  0  0  0  0  0  0  0  0  0  0  0
    0.7139   -0.7208    0.0184 C   0  0  0  0  0  0  0  0  0  0  0  0
    1.7728   -0.4501   -1.0249 C   0  0  0  0  0  0  0  0  0  0  0  0
    1.8471    0.9166   -1.2144 O   0  0  0  0  0  0  0  0  0  0  0  0
   -0.6654   -0.3655   -0.4479 C   0  0  0  0  0  0  0  0  0  0  0  0
   -0.9762   -1.0540   -1.6233 O   0  0  0  0  0  0  0  0  0  0  0  0
   -1.7573   -0.5267    0.5521 C   0  0  0  0  0  0  0  0  0  0  0  0
   -1.8039    0.9674    0.7317 C   0  0  0  0  0  0  0  0  0  0  0  0
   -0.9988    1.0810   -0.5685 C   0  0  0  0  0  0  0  0  0  0  0  0
    1.2100    1.0818    1.1453 H   0  0  0  0  0  0  0  0  0  0  0  0
    0.5045   -0.2905    2.1512 H   0  0  0  0  0  0  0  0  0  0  0  0
    2.1580   -0.3673    1.5201 H   0  0  0  0  0  0  0  0  0  0  0  0
    0.7371   -1.8197    0.2374 H   0  0  0  0  0  0  0  0  0  0  0  0
    2.7452   -0.7739   -0.5486 H   0  0  0  0  0  0  0  0  0  0  0  0
    1.6001   -1.0099   -1.9611 H   0  0  0  0  0  0  0  0  0  0  0  0
    2.4295    1.3173   -0.4992 H   0  0  0  0  0  0  0  0  0  0  0  0
   -0.4497   -1.8930   -1.6545 H   0  0  0  0  0  0  0  0  0  0  0  0
   -1.5462   -1.1175    1.4439 H   0  0  0  0  0  0  0  0  0  0  0  0
   -2.7468   -0.8633    0.1270 H   0  0  0  0  0  0  0  0  0  0  0  0
   -1.1793    1.3648    1.5546 H   0  0  0  0  0  0  0  0  0  0  0  0
   -2.7922    1.4250    0.7037 H   0  0  0  0  0  0  0  0  0  0  0  0
   -0.1941    1.8151   -0.5300 H   0  0  0  0  0  0  0  0  0  0  0  0
   -1.7384    1.3072   -1.3900 H   0  0  0  0  0  0  0  0  0  0  0  0
  1  2  1  0
  2  3  1  0
  3  4  1  0
  2  5  1  0
  5  6  1  0
  5  7  1  0
  7  8  1  0
  8  9  1  0
  9  5  1  0
  1 10  1  0
  1 11  1  0
  1 12  1  0
  2 13  1  0
  3 14  1  0
  3 15  1  0
  4 16  1  0
  6 17  1  0
  7 18  1  0
  7 19  1  0
  8 20  1  0
  8 21  1  0
  9 22  1  0
  9 23  1  0
M  END
