
     RDKit          3D

 21 20  0  0  0  0  0  0  0  0999 V2000
   -1.8172    0.2003    0.9158 C   0  0  0  0  0  0  0  0  0  0  0  0
   -1.0941    0.3031   -0.3952 C   0  0  0  0  0  0  0  0  0  0  0  0
   -1.1547   -0.9876   -1.1415 C   0  0  0  0  0  0  0  0  0  0  0  0
   -1.6972    1.3549   -1.1161 O   0  0  0  0  0  0  0  0  0  0  0  0
    0.3667    0.6906   -0.1538 C   0  0  0  0  0  0  0  0  0  0  0  0
    0.9998   -0.3599    0.6902 C   0  0  0  0  0  0  0  0  0  0  0  0
    2.3299   -0.1803    1.0196 O   0  0  0  0  0  0  0  0  0  0  0  0
    3.2922   -0.1135    0.0375 C   0  0  0  0  0  0  0  0  0  0  0  0
    2.9109   -0.2237   -1.1486 O   0  0  0  0  0  0  0  0  0  0  0  0
   -1.2721    0.6913    1.7468 H   0  0  0  0  0  0  0  0  0  0  0  0
   -2.8251    0.6646    0.8610 H   0  0  0  0  0  0  0  0  0  0  0  0
   -1.9865   -0.8702    1.1632 H   0  0  0  0  0  0  0  0  0  0  0  0
   -0.9994   -1.8180   -0.4267 H   0  0  0  0  0  0  0  0  0  0  0  0
   -0.4601   -1.0151   -2.0009 H   0  0  0  0  0  0  0  0  0  0  0  0
   -2.1766   -1.1424   -1.5670 H   0  0  0  0  0  0  0  0  0  0  0  0
   -1.2265    2.1791   -0.8544 H   0  0  0  0  0  0  0  0  0  0  0  0
    0.8243    0.7533   -1.1598 H   0  0  0  0  0  0  0  0  0  0  0  0
    0.3281    1.6790    0.3515 H   0  0  0  0  0  0  0  0  0  0  0  0
    0.4155   -0.4706    1.6473 H   0  0  0  0  0  0  0  0  0  0  0  0
    0.8941   -1.3624    0.1852 H   0  0  0  0  0  0  0  0  0  0  0  0
    4.3482    0.0277    0.2378 H   0  0  0  0  0  0  0  0  0  0  0  0
  1  2  1  0
  2  3  1  0
  2  4  1  0
  2  5  1  0
  5  6  1  0
  6  7  1  0
  7  8  1  0
  8  9  2  0
  1 10  1  0
  1 11  1  0
  1 12  1  0
  3 13  1  0
  3 14  1  0
  3 15  1  0
  4 16  1  0
  5 17  1  0
  5 18  1  0
  6 19  1  0
  6 20  1  0
  8 21  1  0
M  END
