
     RDKit          3D

 21 21  0  0  0  0  0  0  0  0999 V2000
   -1.4229   -1.4379   -0.4761 C   0  0  0  0  0  0  0  0  0  0  0  0
   -1.0438    0.0204   -0.5983 C   0  0  0  0  0  0  0  0  0  0  0  0
   -2.1352    0.9055   -0.0606 C   0  0  0  0  0  0  0  0  0  0  0  0
   -2.3374    0.5950    1.2836 O   0  0  0  0  0  0  0  0  0  0  0  0
    0.2231    0.3324    0.1016 C   0  0  0  0  0  0  0  0  0  0  0  0
    0.1859    1.1532    0.9961 O   0  0  0  0  0  0  0  0  0  0  0  0
    1.5116   -0.2990   -0.2327 C   0  0  0  0  0  0  0  0  0  0  0  0
    2.5891   -0.4699    0.7683 C   0  0  0  0  0  0  0  0  0  0  0  0
    2.6867    0.6702   -0.2176 C   0  0  0  0  0  0  0  0  0  0  0  0
   -0.6746   -2.0283    0.0780 H   0  0  0  0  0  0  0  0  0  0  0  0
   -1.6365   -1.8249   -1.4902 H   0  0  0  0  0  0  0  0  0  0  0  0
   -2.3813   -1.5387    0.0960 H   0  0  0  0  0  0  0  0  0  0  0  0
   -0.8618    0.2836   -1.6824 H   0  0  0  0  0  0  0  0  0  0  0  0
   -1.7851    1.9574   -0.1701 H   0  0  0  0  0  0  0  0  0  0  0  0
   -3.0995    0.7625   -0.5701 H   0  0  0  0  0  0  0  0  0  0  0  0
   -3.0018    1.2268    1.6597 H   0  0  0  0  0  0  0  0  0  0  0  0
    1.4487   -1.0348   -1.0618 H   0  0  0  0  0  0  0  0  0  0  0  0
    3.3258   -1.2815    0.5570 H   0  0  0  0  0  0  0  0  0  0  0  0
    2.4517   -0.2786    1.8316 H   0  0  0  0  0  0  0  0  0  0  0  0
    2.5402    1.6645    0.2338 H   0  0  0  0  0  0  0  0  0  0  0  0
    3.4171    0.6222   -1.0459 H   0  0  0  0  0  0  0  0  0  0  0  0
  1  2  1  0
  2  3  1  0
  3  4  1  0
  2  5  1  0
  5  6  2  0
  5  7  1  0
  7  8  1  0
  8  9  1  0
  9  7  1  0
  1 10  1  0
  1 11  1  0
  1 12  1  0
  2 13  1  0
  3 14  1  0
  3 15  1  0
  4 16  1  0
  7 17  1  0
  8 18  1  0
  8 19  1  0
  9 20  1  0
  9 21  1  0
M  END
