
     RDKit          3D

 19 18  0  0  0  0  0  0  0  0999 V2000
   -2.5440   -1.3432   -0.0099 C   0  0  0  0  0  0  0  0  0  0  0  0
   -1.9577    0.0273    0.2613 C   0  0  0  0  0  0  0  0  0  0  0  0
   -2.1775    0.8722   -0.9719 C   0  0  0  0  0  0  0  0  0  0  0  0
   -0.4944   -0.0578    0.4678 C   0  0  0  0  0  0  0  0  0  0  0  0
    0.7031   -0.1113    0.6245 C   0  0  0  0  0  0  0  0  0  0  0  0
    2.1564   -0.2004    0.8070 C   0  0  0  0  0  0  0  0  0  0  0  0
    2.7906    0.8286    0.0860 O   0  0  0  0  0  0  0  0  0  0  0  0
    4.1762    0.8958    0.1460 C   0  0  0  0  0  0  0  0  0  0  0  0
    4.8203    0.0499    0.8316 O   0  0  0  0  0  0  0  0  0  0  0  0
   -3.3064   -1.2594   -0.7828 H   0  0  0  0  0  0  0  0  0  0  0  0
   -2.9121   -1.7604    0.9477 H   0  0  0  0  0  0  0  0  0  0  0  0
   -1.7200   -2.0280   -0.3582 H   0  0  0  0  0  0  0  0  0  0  0  0
   -2.4702    0.4404    1.1494 H   0  0  0  0  0  0  0  0  0  0  0  0
   -1.2564    1.4146   -1.2848 H   0  0  0  0  0  0  0  0  0  0  0  0
   -2.5162    0.2840   -1.8370 H   0  0  0  0  0  0  0  0  0  0  0  0
   -2.9624    1.6132   -0.7142 H   0  0  0  0  0  0  0  0  0  0  0  0
    2.5655   -1.1609    0.4384 H   0  0  0  0  0  0  0  0  0  0  0  0
    2.3844   -0.1604    1.8958 H   0  0  0  0  0  0  0  0  0  0  0  0
    4.7208    1.6557   -0.3804 H   0  0  0  0  0  0  0  0  0  0  0  0
  1  2  1  0
  2  3  1  0
  2  4  1  0
  4  5  3  0
  5  6  1  0
  6  7  1  0
  7  8  1  0
  8  9  2  0
  1 10  1  0
  1 11  1  0
  1 12  1  0
  2 13  1  0
  3 14  1  0
  3 15  1  0
  3 16  1  0
  6 17  1  0
  6 18  1  0
  8 19  1  0
M  END
