
     RDKit          3D

 23 23  0  0  0  0  0  0  0  0999 V2000
    0.8472   -0.9007   -1.5273 C   0  0  0  0  0  0  0  0  0  0  0  0
    0.3623   -0.2033   -0.2543 C   0  0  0  0  0  0  0  0  0  0  0  0
    0.0552   -1.2401    0.7798 C   0  0  0  0  0  0  0  0  0  0  0  0
    1.5185    0.6662    0.2244 C   0  0  0  0  0  0  0  0  0  0  0  0
    2.6513   -0.0536    0.5037 O   0  0  0  0  0  0  0  0  0  0  0  0
   -0.7549    0.7264   -0.5584 C   0  0  0  0  0  0  0  0  0  0  0  0
   -1.9947    0.1489   -1.1637 C   0  0  0  0  0  0  0  0  0  0  0  0
   -2.7183    0.6518   -0.0860 O   0  0  0  0  0  0  0  0  0  0  0  0
   -1.5879    1.0150    0.6644 C   0  0  0  0  0  0  0  0  0  0  0  0
    1.0843   -0.1834   -2.3187 H   0  0  0  0  0  0  0  0  0  0  0  0
    1.7940   -1.4329   -1.2777 H   0  0  0  0  0  0  0  0  0  0  0  0
    0.1012   -1.6280   -1.8933 H   0  0  0  0  0  0  0  0  0  0  0  0
    0.6360   -2.1797    0.5532 H   0  0  0  0  0  0  0  0  0  0  0  0
    0.4213   -0.9118    1.7868 H   0  0  0  0  0  0  0  0  0  0  0  0
   -0.9914   -1.5117    0.8739 H   0  0  0  0  0  0  0  0  0  0  0  0
    1.1282    1.2009    1.1400 H   0  0  0  0  0  0  0  0  0  0  0  0
    1.6688    1.4381   -0.5643 H   0  0  0  0  0  0  0  0  0  0  0  0
    3.4390    0.5545    0.4236 H   0  0  0  0  0  0  0  0  0  0  0  0
   -0.3602    1.6450   -1.0686 H   0  0  0  0  0  0  0  0  0  0  0  0
   -2.2391    0.6692   -2.1228 H   0  0  0  0  0  0  0  0  0  0  0  0
   -2.0313   -0.9545   -1.2567 H   0  0  0  0  0  0  0  0  0  0  0  0
   -1.3919    0.3732    1.5460 H   0  0  0  0  0  0  0  0  0  0  0  0
   -1.6375    2.1105    0.9079 H   0  0  0  0  0  0  0  0  0  0  0  0
  1  2  1  0
  2  3  1  0
  2  4  1  0
  4  5  1  0
  2  6  1  0
  6  7  1  0
  7  8  1  0
  8  9  1  0
  9  6  1  0
  1 10  1  0
  1 11  1  0
  1 12  1  0
  3 13  1  0
  3 14  1  0
  3 15  1  0
  4 16  1  0
  4 17  1  0
  5 18  1  0
  6 19  1  0
  7 20  1  0
  7 21  1  0
  9 22  1  0
  9 23  1  0
M  END
