
     RDKit          3D

 22 22  0  0  0  0  0  0  0  0999 V2000
   -0.7409   -1.4623   -0.7230 C   0  0  0  0  0  0  0  0  0  0  0  0
   -0.5875   -0.0913   -0.1106 C   0  0  0  0  0  0  0  0  0  0  0  0
   -1.3292    0.9312   -0.9327 C   0  0  0  0  0  0  0  0  0  0  0  0
   -1.1041   -0.0388    1.3085 C   0  0  0  0  0  0  0  0  0  0  0  0
    0.9025    0.2168   -0.0426 C   0  0  0  0  0  0  0  0  0  0  0  0
    1.6880   -0.7582    0.7836 C   0  0  0  0  0  0  0  0  0  0  0  0
    1.4388    1.5001   -0.3256 C   0  0  0  0  0  0  0  0  0  0  0  0
    1.5342    0.5007   -1.3076 O   0  0  0  0  0  0  0  0  0  0  0  0
    0.1530   -1.7597   -1.3184 H   0  0  0  0  0  0  0  0  0  0  0  0
   -1.5954   -1.4258   -1.4275 H   0  0  0  0  0  0  0  0  0  0  0  0
   -0.8958   -2.2525    0.0288 H   0  0  0  0  0  0  0  0  0  0  0  0
   -1.9295    1.6249   -0.2950 H   0  0  0  0  0  0  0  0  0  0  0  0
   -0.6881    1.4765   -1.6437 H   0  0  0  0  0  0  0  0  0  0  0  0
   -2.0881    0.3788   -1.5479 H   0  0  0  0  0  0  0  0  0  0  0  0
   -1.4488    1.0205    1.4826 H   0  0  0  0  0  0  0  0  0  0  0  0
   -0.2937   -0.1974    2.0616 H   0  0  0  0  0  0  0  0  0  0  0  0
   -1.9857   -0.6714    1.4779 H   0  0  0  0  0  0  0  0  0  0  0  0
    1.1562   -1.7500    0.8735 H   0  0  0  0  0  0  0  0  0  0  0  0
    2.6770   -1.0177    0.3230 H   0  0  0  0  0  0  0  0  0  0  0  0
    1.8967   -0.4237    1.8048 H   0  0  0  0  0  0  0  0  0  0  0  0
    2.3904    1.8186    0.1849 H   0  0  0  0  0  0  0  0  0  0  0  0
    0.8500    2.3806   -0.6543 H   0  0  0  0  0  0  0  0  0  0  0  0
  1  2  1  0
  2  3  1  0
  2  4  1  0
  2  5  1  0
  5  6  1  0
  5  7  1  0
  7  8  1  0
  8  5  1  0
  1  9  1  0
  1 10  1  0
  1 11  1  0
  3 12  1  0
  3 13  1  0
  3 14  1  0
  4 15  1  0
  4 16  1  0
  4 17  1  0
  6 18  1  0
  6 19  1  0
  6 20  1  0
  7 21  1  0
  7 22  1  0
M  END
