
     RDKit          3D

 15 14  0  0  0  0  0  0  0  0999 V2000
    1.1955   -0.8093   -0.3614 C   0  0  0  0  0  0  0  0  0  0  0  0
    0.0666   -0.0561    0.2538 C   0  0  0  0  0  0  0  0  0  0  0  0
    0.2830    1.4362    0.2951 C   0  0  0  0  0  0  0  0  0  0  0  0
   -1.2114   -0.2897   -0.5373 C   0  0  0  0  0  0  0  0  0  0  0  0
   -0.0907   -0.4742    1.5888 O   0  0  0  0  0  0  0  0  0  0  0  0
    1.7004   -0.1433   -1.0871 H   0  0  0  0  0  0  0  0  0  0  0  0
    1.9232   -1.1860    0.4024 H   0  0  0  0  0  0  0  0  0  0  0  0
    0.8596   -1.7179   -0.9276 H   0  0  0  0  0  0  0  0  0  0  0  0
    0.2215    1.8000   -0.7554 H   0  0  0  0  0  0  0  0  0  0  0  0
    1.1737    1.7490    0.8319 H   0  0  0  0  0  0  0  0  0  0  0  0
   -0.6266    1.8590    0.8149 H   0  0  0  0  0  0  0  0  0  0  0  0
   -0.9449   -0.7563   -1.5062 H   0  0  0  0  0  0  0  0  0  0  0  0
   -1.7968    0.6534   -0.6631 H   0  0  0  0  0  0  0  0  0  0  0  0
   -1.8839   -0.9724    0.0377 H   0  0  0  0  0  0  0  0  0  0  0  0
   -0.8693   -1.0922    1.6136 H   0  0  0  0  0  0  0  0  0  0  0  0
  1  2  1  0
  2  3  1  0
  2  4  1  0
  2  5  1  0
  1  6  1  0
  1  7  1  0
  1  8  1  0
  3  9  1  0
  3 10  1  0
  3 11  1  0
  4 12  1  0
  4 13  1  0
  4 14  1  0
  5 15  1  0
M  END
