
     RDKit          3D

 20 19  0  0  0  0  0  0  0  0999 V2000
   -1.7764   -0.9469    0.8173 C   0  0  0  0  0  0  0  0  0  0  0  0
   -1.1782   -0.1782   -0.3513 C   0  0  0  0  0  0  0  0  0  0  0  0
   -2.2202    0.8542   -0.7546 C   0  0  0  0  0  0  0  0  0  0  0  0
    0.0174    0.3799    0.0155 O   0  0  0  0  0  0  0  0  0  0  0  0
    1.0194   -0.1071   -0.8142 C   0  0  0  0  0  0  0  0  0  0  0  0
    2.3753    0.4590   -0.4737 C   0  0  0  0  0  0  0  0  0  0  0  0
    2.8114    0.1637    0.8882 C   0  0  0  0  0  0  0  0  0  0  0  0
    3.2715   -0.9225    1.1671 O   0  0  0  0  0  0  0  0  0  0  0  0
   -1.8379   -0.3076    1.7053 H   0  0  0  0  0  0  0  0  0  0  0  0
   -2.7695   -1.3500    0.4999 H   0  0  0  0  0  0  0  0  0  0  0  0
   -1.1656   -1.8748    1.0265 H   0  0  0  0  0  0  0  0  0  0  0  0
   -1.0941   -0.8734   -1.2023 H   0  0  0  0  0  0  0  0  0  0  0  0
   -3.0804    0.2537   -1.1545 H   0  0  0  0  0  0  0  0  0  0  0  0
   -1.7843    1.5099   -1.5348 H   0  0  0  0  0  0  0  0  0  0  0  0
   -2.5841    1.4527    0.0830 H   0  0  0  0  0  0  0  0  0  0  0  0
    0.8148    0.1729   -1.8669 H   0  0  0  0  0  0  0  0  0  0  0  0
    1.0139   -1.2173   -0.7770 H   0  0  0  0  0  0  0  0  0  0  0  0
    3.0777    0.0696   -1.2582 H   0  0  0  0  0  0  0  0  0  0  0  0
    2.3555    1.5593   -0.6250 H   0  0  0  0  0  0  0  0  0  0  0  0
    2.7338    0.9029    1.6684 H   0  0  0  0  0  0  0  0  0  0  0  0
  1  2  1  0
  2  3  1  0
  2  4  1  0
  4  5  1  0
  5  6  1  0
  6  7  1  0
  7  8  2  0
  1  9  1  0
  1 10  1  0
  1 11  1  0
  2 12  1  0
  3 13  1  0
  3 14  1  0
  3 15  1  0
  5 16  1  0
  5 17  1  0
  6 18  1  0
  6 19  1  0
  7 20  1  0
M  END
