
     RDKit          3D

 19 20  0  0  0  0  0  0  0  0999 V2000
   -0.6252    1.4042    0.6521 C   0  0  0  0  0  0  0  0  0  0  0  0
   -0.9568    0.1807   -0.1761 C   0  0  0  0  0  0  0  0  0  0  0  0
   -1.9795   -0.7102    0.4743 C   0  0  0  0  0  0  0  0  0  0  0  0
    0.2847   -0.5542   -0.5821 C   0  0  0  0  0  0  0  0  0  0  0  0
    1.2483    0.2319   -1.4032 C   0  0  0  0  0  0  0  0  0  0  0  0
    1.3157    0.8682   -2.4254 O   0  0  0  0  0  0  0  0  0  0  0  0
    2.2730   -0.0824   -0.3671 C   0  0  0  0  0  0  0  0  0  0  0  0
    2.4348   -1.5164   -0.1034 O   0  0  0  0  0  0  0  0  0  0  0  0
    1.3744   -0.6345    0.4563 C   0  0  0  0  0  0  0  0  0  0  0  0
   -0.3588    2.2281   -0.0286 H   0  0  0  0  0  0  0  0  0  0  0  0
    0.2738    1.1525    1.2479 H   0  0  0  0  0  0  0  0  0  0  0  0
   -1.4993    1.6145    1.2953 H   0  0  0  0  0  0  0  0  0  0  0  0
   -1.4440    0.5779   -1.1160 H   0  0  0  0  0  0  0  0  0  0  0  0
   -1.6214   -1.7456    0.6326 H   0  0  0  0  0  0  0  0  0  0  0  0
   -2.2493   -0.3303    1.4978 H   0  0  0  0  0  0  0  0  0  0  0  0
   -2.9346   -0.7665   -0.0891 H   0  0  0  0  0  0  0  0  0  0  0  0
    0.0450   -1.5001   -1.1086 H   0  0  0  0  0  0  0  0  0  0  0  0
    3.2360    0.4004   -0.3511 H   0  0  0  0  0  0  0  0  0  0  0  0
    1.1833   -0.8181    1.4945 H   0  0  0  0  0  0  0  0  0  0  0  0
  1  2  1  0
  2  3  1  0
  2  4  1  0
  4  5  1  0
  5  6  2  0
  5  7  1  0
  7  8  1  0
  8  9  1  0
  9  4  1  0
  9  7  1  0
  1 10  1  0
  1 11  1  0
  1 12  1  0
  2 13  1  0
  3 14  1  0
  3 15  1  0
  3 16  1  0
  4 17  1  0
  7 18  1  0
  9 19  1  0
M  END
