
     RDKit          3D

 25 25  0  0  0  0  0  0  0  0999 V2000
   -0.9666    1.4387    0.3146 C   0  0  0  0  0  0  0  0  0  0  0  0
   -1.0763    0.0383   -0.1461 C   0  0  0  0  0  0  0  0  0  0  0  0
   -1.2666   -0.8461    1.0945 C   0  0  0  0  0  0  0  0  0  0  0  0
   -2.4056   -0.0803   -0.9112 C   0  0  0  0  0  0  0  0  0  0  0  0
   -0.0258   -0.4859   -1.0169 C   0  0  0  0  0  0  0  0  0  0  0  0
    1.3573   -0.5298   -0.5684 C   0  0  0  0  0  0  0  0  0  0  0  0
    2.0848    0.7039   -0.1851 C   0  0  0  0  0  0  0  0  0  0  0  0
    2.9070   -0.4016    0.5025 C   0  0  0  0  0  0  0  0  0  0  0  0
    1.6554   -1.0450    0.6843 O   0  0  0  0  0  0  0  0  0  0  0  0
   -1.9867    1.8707    0.3987 H   0  0  0  0  0  0  0  0  0  0  0  0
   -0.4182    2.1041   -0.3839 H   0  0  0  0  0  0  0  0  0  0  0  0
   -0.5610    1.4962    1.3539 H   0  0  0  0  0  0  0  0  0  0  0  0
   -2.2170   -0.4987    1.5528 H   0  0  0  0  0  0  0  0  0  0  0  0
   -0.3976   -0.7196    1.7544 H   0  0  0  0  0  0  0  0  0  0  0  0
   -1.4138   -1.8992    0.7616 H   0  0  0  0  0  0  0  0  0  0  0  0
   -2.4319    0.7691   -1.6368 H   0  0  0  0  0  0  0  0  0  0  0  0
   -2.4928   -1.0498   -1.4129 H   0  0  0  0  0  0  0  0  0  0  0  0
   -3.2482    0.0493   -0.2156 H   0  0  0  0  0  0  0  0  0  0  0  0
   -0.0560    0.0913   -1.9893 H   0  0  0  0  0  0  0  0  0  0  0  0
   -0.3248   -1.5266   -1.3275 H   0  0  0  0  0  0  0  0  0  0  0  0
    1.9938   -1.0946   -1.3170 H   0  0  0  0  0  0  0  0  0  0  0  0
    2.6475    1.2114   -0.9996 H   0  0  0  0  0  0  0  0  0  0  0  0
    1.7010    1.3533    0.5913 H   0  0  0  0  0  0  0  0  0  0  0  0
    3.3889   -0.0795    1.4326 H   0  0  0  0  0  0  0  0  0  0  0  0
    3.5531   -0.8697   -0.2472 H   0  0  0  0  0  0  0  0  0  0  0  0
  1  2  1  0
  2  3  1  0
  2  4  1  0
  2  5  1  0
  5  6  1  0
  6  7  1  0
  7  8  1  0
  8  9  1  0
  9  6  1  0
  1 10  1  0
  1 11  1  0
  1 12  1  0
  3 13  1  0
  3 14  1  0
  3 15  1  0
  4 16  1  0
  4 17  1  0
  4 18  1  0
  5 19  1  0
  5 20  1  0
  6 21  1  0
  7 22  1  0
  7 23  1  0
  8 24  1  0
  8 25  1  0
M  END
