
     RDKit          3D

 23 24  0  0  0  0  0  0  0  0999 V2000
   -2.5429    0.0813    0.7790 C   0  0  0  0  0  0  0  0  0  0  0  0
   -1.5327   -0.5324   -0.1440 C   0  0  0  0  0  0  0  0  0  0  0  0
   -2.1287   -0.9703   -1.4567 C   0  0  0  0  0  0  0  0  0  0  0  0
   -0.3962    0.4501   -0.4696 C   0  0  0  0  0  0  0  0  0  0  0  0
    0.3734    0.9337    0.6175 C   0  0  0  0  0  0  0  0  0  0  0  0
    1.4011    0.3042    1.3191 O   0  0  0  0  0  0  0  0  0  0  0  0
    2.1528    0.7309    0.1880 C   0  0  0  0  0  0  0  0  0  0  0  0
    3.4385   -0.0396    0.1338 C   0  0  0  0  0  0  0  0  0  0  0  0
    0.9846    0.0386   -0.5354 C   0  0  0  0  0  0  0  0  0  0  0  0
   -2.4157   -0.3777    1.7877 H   0  0  0  0  0  0  0  0  0  0  0  0
   -2.4460    1.1818    0.8669 H   0  0  0  0  0  0  0  0  0  0  0  0
   -3.5548   -0.2297    0.4356 H   0  0  0  0  0  0  0  0  0  0  0  0
   -1.0510   -1.4303    0.3098 H   0  0  0  0  0  0  0  0  0  0  0  0
   -2.3105   -0.0951   -2.1283 H   0  0  0  0  0  0  0  0  0  0  0  0
   -3.0623   -1.5589   -1.2900 H   0  0  0  0  0  0  0  0  0  0  0  0
   -1.4002   -1.6915   -1.9136 H   0  0  0  0  0  0  0  0  0  0  0  0
   -0.7331    1.1477   -1.2926 H   0  0  0  0  0  0  0  0  0  0  0  0
    0.6559    2.0311    0.5466 H   0  0  0  0  0  0  0  0  0  0  0  0
    2.2276    1.8023    0.0444 H   0  0  0  0  0  0  0  0  0  0  0  0
    3.8944    0.0364   -0.8721 H   0  0  0  0  0  0  0  0  0  0  0  0
    3.2489   -1.1043    0.3614 H   0  0  0  0  0  0  0  0  0  0  0  0
    4.1030    0.3507    0.9296 H   0  0  0  0  0  0  0  0  0  0  0  0
    1.0939   -1.0591   -0.2580 H   0  0  0  0  0  0  0  0  0  0  0  0
  1  2  1  0
  2  3  1  0
  2  4  1  0
  4  5  1  0
  5  6  1  0
  6  7  1  0
  7  8  1  0
  7  9  1  0
  9  4  1  0
  9  5  1  0
  1 10  1  0
  1 11  1  0
  1 12  1  0
  2 13  1  0
  3 14  1  0
  3 15  1  0
  3 16  1  0
  4 17  1  0
  5 18  1  0
  7 19  1  0
  8 20  1  0
  8 21  1  0
  8 22  1  0
  9 23  1  0
M  END
