
     RDKit          3D

 19 18  0  0  0  0  0  0  0  0999 V2000
   -1.2161    0.7623    0.9507 C   0  0  0  0  0  0  0  0  0  0  0  0
   -0.7531   -0.4237    0.1606 C   0  0  0  0  0  0  0  0  0  0  0  0
   -1.3531   -0.3996   -1.2317 C   0  0  0  0  0  0  0  0  0  0  0  0
    0.7543   -0.5478    0.1207 C   0  0  0  0  0  0  0  0  0  0  0  0
    1.1770   -0.6794    1.4498 O   0  0  0  0  0  0  0  0  0  0  0  0
    1.3947    0.6386   -0.5514 C   0  0  0  0  0  0  0  0  0  0  0  0
    2.7653    0.5698   -0.5890 O   0  0  0  0  0  0  0  0  0  0  0  0
   -0.3561    1.3081    1.4312 H   0  0  0  0  0  0  0  0  0  0  0  0
   -1.8781    0.4240    1.7969 H   0  0  0  0  0  0  0  0  0  0  0  0
   -1.8099    1.4527    0.3466 H   0  0  0  0  0  0  0  0  0  0  0  0
   -1.1257   -1.3668    0.6389 H   0  0  0  0  0  0  0  0  0  0  0  0
   -1.1354   -1.3818   -1.7095 H   0  0  0  0  0  0  0  0  0  0  0  0
   -2.4545   -0.2828   -1.0879 H   0  0  0  0  0  0  0  0  0  0  0  0
   -1.0192    0.4626   -1.8299 H   0  0  0  0  0  0  0  0  0  0  0  0
    0.9867   -1.4993   -0.4003 H   0  0  0  0  0  0  0  0  0  0  0  0
    0.7343   -1.4917    1.8039 H   0  0  0  0  0  0  0  0  0  0  0  0
    1.1227    1.5368    0.0358 H   0  0  0  0  0  0  0  0  0  0  0  0
    0.9926    0.6910   -1.5799 H   0  0  0  0  0  0  0  0  0  0  0  0
    3.1736    0.2268    0.2445 H   0  0  0  0  0  0  0  0  0  0  0  0
  1  2  1  0
  2  3  1  0
  2  4  1  0
  4  5  1  0
  4  6  1  0
  6  7  1  0
  1  8  1  0
  1  9  1  0
  1 10  1  0
  2 11  1  0
  3 12  1  0
  3 13  1  0
  3 14  1  0
  4 15  1  0
  5 16  1  0
  6 17  1  0
  6 18  1  0
  7 19  1  0
M  END
