
     RDKit          3D

 21 21  0  0  0  0  0  0  0  0999 V2000
   -2.8099   -0.8803   -0.2404 C   0  0  0  0  0  0  0  0  0  0  0  0
   -1.7285   -0.0560    0.4595 C   0  0  0  0  0  0  0  0  0  0  0  0
   -2.0908    1.3598    0.3103 C   0  0  0  0  0  0  0  0  0  0  0  0
   -3.2076    1.7075    0.6553 O   0  0  0  0  0  0  0  0  0  0  0  0
   -0.4226   -0.4113   -0.1658 C   0  0  0  0  0  0  0  0  0  0  0  0
    0.6623    0.2466    0.3523 O   0  0  0  0  0  0  0  0  0  0  0  0
    1.8037   -0.1830   -0.3238 C   0  0  0  0  0  0  0  0  0  0  0  0
    2.8889    0.8395   -0.6136 C   0  0  0  0  0  0  0  0  0  0  0  0
    3.1014   -0.2210    0.3982 C   0  0  0  0  0  0  0  0  0  0  0  0
   -3.8181   -0.4991   -0.0341 H   0  0  0  0  0  0  0  0  0  0  0  0
   -2.6496   -1.9333    0.0532 H   0  0  0  0  0  0  0  0  0  0  0  0
   -2.5889   -0.7900   -1.3350 H   0  0  0  0  0  0  0  0  0  0  0  0
   -1.6935   -0.2887    1.5427 H   0  0  0  0  0  0  0  0  0  0  0  0
   -1.4371    2.1199   -0.0849 H   0  0  0  0  0  0  0  0  0  0  0  0
   -0.2585   -1.5054   -0.0084 H   0  0  0  0  0  0  0  0  0  0  0  0
   -0.4307   -0.2641   -1.2611 H   0  0  0  0  0  0  0  0  0  0  0  0
    1.6689   -0.9380   -1.1210 H   0  0  0  0  0  0  0  0  0  0  0  0
    3.4138    0.7717   -1.5742 H   0  0  0  0  0  0  0  0  0  0  0  0
    2.6285    1.8705   -0.2905 H   0  0  0  0  0  0  0  0  0  0  0  0
    3.7880   -1.0621    0.1739 H   0  0  0  0  0  0  0  0  0  0  0  0
    3.1805    0.1169    1.4514 H   0  0  0  0  0  0  0  0  0  0  0  0
  1  2  1  0
  2  3  1  0
  3  4  2  0
  2  5  1  0
  5  6  1  0
  6  7  1  0
  7  8  1  0
  8  9  1  0
  9  7  1  0
  1 10  1  0
  1 11  1  0
  1 12  1  0
  2 13  1  0
  3 14  1  0
  5 15  1  0
  5 16  1  0
  7 17  1  0
  8 18  1  0
  8 19  1  0
  9 20  1  0
  9 21  1  0
M  END
