
     RDKit          3D

 25 26  0  0  0  0  0  0  0  0999 V2000
    2.1064    1.3016   -0.1316 C   0  0  0  0  0  0  0  0  0  0  0  0
    1.4074    0.0242   -0.4557 C   0  0  0  0  0  0  0  0  0  0  0  0
    2.2400   -1.1153    0.1123 C   0  0  0  0  0  0  0  0  0  0  0  0
    0.0381   -0.0805    0.1629 C   0  0  0  0  0  0  0  0  0  0  0  0
   -0.6272   -1.3695   -0.1838 C   0  0  0  0  0  0  0  0  0  0  0  0
   -2.0929   -1.0786    0.0522 C   0  0  0  0  0  0  0  0  0  0  0  0
   -2.3074    0.3804   -0.1972 C   0  0  0  0  0  0  0  0  0  0  0  0
   -1.9051    1.4202    0.7643 C   0  0  0  0  0  0  0  0  0  0  0  0
   -0.9153    0.9649   -0.2902 C   0  0  0  0  0  0  0  0  0  0  0  0
    1.8251    1.7280    0.8415 H   0  0  0  0  0  0  0  0  0  0  0  0
    1.8603    2.0335   -0.9521 H   0  0  0  0  0  0  0  0  0  0  0  0
    3.2148    1.0902   -0.1768 H   0  0  0  0  0  0  0  0  0  0  0  0
    1.3182   -0.1326   -1.5342 H   0  0  0  0  0  0  0  0  0  0  0  0
    3.3137   -1.0164   -0.1404 H   0  0  0  0  0  0  0  0  0  0  0  0
    1.7852   -2.0579   -0.2327 H   0  0  0  0  0  0  0  0  0  0  0  0
    2.1509   -1.0472    1.2274 H   0  0  0  0  0  0  0  0  0  0  0  0
    0.1755   -0.0535    1.2720 H   0  0  0  0  0  0  0  0  0  0  0  0
   -0.4581   -1.6074   -1.2423 H   0  0  0  0  0  0  0  0  0  0  0  0
   -0.2783   -2.1568    0.5056 H   0  0  0  0  0  0  0  0  0  0  0  0
   -2.6591   -1.6615   -0.7249 H   0  0  0  0  0  0  0  0  0  0  0  0
   -2.4404   -1.4246    1.0448 H   0  0  0  0  0  0  0  0  0  0  0  0
   -3.0636    0.6729   -0.9675 H   0  0  0  0  0  0  0  0  0  0  0  0
   -2.2857    2.4289    0.6126 H   0  0  0  0  0  0  0  0  0  0  0  0
   -1.6532    1.1910    1.8231 H   0  0  0  0  0  0  0  0  0  0  0  0
   -0.7493    1.5658   -1.1895 H   0  0  0  0  0  0  0  0  0  0  0  0
  1  2  1  0
  2  3  1  0
  2  4  1  0
  4  5  1  0
  5  6  1  0
  6  7  1  0
  7  8  1  0
  8  9  1  0
  9  4  1  0
  9  7  1  0
  1 10  1  0
  1 11  1  0
  1 12  1  0
  2 13  1  0
  3 14  1  0
  3 15  1  0
  3 16  1  0
  4 17  1  0
  5 18  1  0
  5 19  1  0
  6 20  1  0
  6 21  1  0
  7 22  1  0
  8 23  1  0
  8 24  1  0
  9 25  1  0
M  END
