
     RDKit          3D

 19 19  0  0  0  0  0  0  0  0999 V2000
   -1.3779   -1.1839    0.0466 C   0  0  0  0  0  0  0  0  0  0  0  0
   -0.9485    0.1085   -0.5305 C   0  0  0  0  0  0  0  0  0  0  0  0
   -1.8602    1.2081   -0.1083 C   0  0  0  0  0  0  0  0  0  0  0  0
   -3.0672    1.1235   -0.3550 O   0  0  0  0  0  0  0  0  0  0  0  0
    0.4465    0.5207   -0.2569 C   0  0  0  0  0  0  0  0  0  0  0  0
    1.5331   -0.4092   -0.7471 C   0  0  0  0  0  0  0  0  0  0  0  0
    2.3517    0.1284    0.3986 C   0  0  0  0  0  0  0  0  0  0  0  0
    3.5205    0.3378    0.6193 O   0  0  0  0  0  0  0  0  0  0  0  0
    1.0236    0.2663    1.1008 C   0  0  0  0  0  0  0  0  0  0  0  0
   -2.1740   -0.9942    0.8210 H   0  0  0  0  0  0  0  0  0  0  0  0
   -1.8931   -1.8388   -0.7116 H   0  0  0  0  0  0  0  0  0  0  0  0
   -0.5706   -1.7889    0.4765 H   0  0  0  0  0  0  0  0  0  0  0  0
   -1.0687    0.0390   -1.6522 H   0  0  0  0  0  0  0  0  0  0  0  0
   -1.5051    2.0985    0.4170 H   0  0  0  0  0  0  0  0  0  0  0  0
    0.6234    1.5672   -0.5613 H   0  0  0  0  0  0  0  0  0  0  0  0
    1.8822   -0.1371   -1.7371 H   0  0  0  0  0  0  0  0  0  0  0  0
    1.3076   -1.4638   -0.5446 H   0  0  0  0  0  0  0  0  0  0  0  0
    0.8068   -0.7197    1.5523 H   0  0  0  0  0  0  0  0  0  0  0  0
    0.9700    1.1377    1.7723 H   0  0  0  0  0  0  0  0  0  0  0  0
  1  2  1  0
  2  3  1  0
  3  4  2  0
  2  5  1  0
  5  6  1  0
  6  7  1  0
  7  8  2  0
  7  9  1  0
  9  5  1  0
  1 10  1  0
  1 11  1  0
  1 12  1  0
  2 13  1  0
  3 14  1  0
  5 15  1  0
  6 16  1  0
  6 17  1  0
  9 18  1  0
  9 19  1  0
M  END
