
     RDKit          3D

 25 25  0  0  0  0  0  0  0  0999 V2000
    1.3658    2.0558   -0.2531 C   0  0  0  0  0  0  0  0  0  0  0  0
    1.2986    0.5419    0.0038 C   0  0  0  0  0  0  0  0  0  0  0  0
    2.7229    0.0425   -0.2010 C   0  0  0  0  0  0  0  0  0  0  0  0
    0.4150    0.0241   -0.8863 O   0  0  0  0  0  0  0  0  0  0  0  0
   -0.7243   -0.5436   -0.3964 C   0  0  0  0  0  0  0  0  0  0  0  0
   -1.6552   -1.0814   -1.4793 C   0  0  0  0  0  0  0  0  0  0  0  0
   -0.6166   -1.4365    0.8098 C   0  0  0  0  0  0  0  0  0  0  0  0
   -1.8005   -0.7027    1.4020 C   0  0  0  0  0  0  0  0  0  0  0  0
   -1.4852    0.4372    0.4687 C   0  0  0  0  0  0  0  0  0  0  0  0
    2.1931    2.2638   -0.9929 H   0  0  0  0  0  0  0  0  0  0  0  0
    0.4451    2.4370   -0.7051 H   0  0  0  0  0  0  0  0  0  0  0  0
    1.6633    2.5811    0.6818 H   0  0  0  0  0  0  0  0  0  0  0  0
    0.9870    0.4508    1.0629 H   0  0  0  0  0  0  0  0  0  0  0  0
    3.3012    0.3949    0.6770 H   0  0  0  0  0  0  0  0  0  0  0  0
    2.7752   -1.0591   -0.2611 H   0  0  0  0  0  0  0  0  0  0  0  0
    3.0803    0.5097   -1.1366 H   0  0  0  0  0  0  0  0  0  0  0  0
   -2.6946   -1.2052   -1.0848 H   0  0  0  0  0  0  0  0  0  0  0  0
   -1.7019   -0.2760   -2.2643 H   0  0  0  0  0  0  0  0  0  0  0  0
   -1.2898   -2.0289   -1.8915 H   0  0  0  0  0  0  0  0  0  0  0  0
   -0.8878   -2.4824    0.5015 H   0  0  0  0  0  0  0  0  0  0  0  0
    0.3091   -1.4295    1.3807 H   0  0  0  0  0  0  0  0  0  0  0  0
   -2.7783   -1.1945    1.2259 H   0  0  0  0  0  0  0  0  0  0  0  0
   -1.6228   -0.3995    2.4627 H   0  0  0  0  0  0  0  0  0  0  0  0
   -0.8963    1.2607    0.8985 H   0  0  0  0  0  0  0  0  0  0  0  0
   -2.4034    0.8399   -0.0227 H   0  0  0  0  0  0  0  0  0  0  0  0
  1  2  1  0
  2  3  1  0
  2  4  1  0
  4  5  1  0
  5  6  1  0
  5  7  1  0
  7  8  1  0
  8  9  1  0
  9  5  1  0
  1 10  1  0
  1 11  1  0
  1 12  1  0
  2 13  1  0
  3 14  1  0
  3 15  1  0
  3 16  1  0
  6 17  1  0
  6 18  1  0
  6 19  1  0
  7 20  1  0
  7 21  1  0
  8 22  1  0
  8 23  1  0
  9 24  1  0
  9 25  1  0
M  END
