
     RDKit          3D

 23 24  0  0  0  0  0  0  0  0999 V2000
    1.7504    1.2537   -0.0592 C   0  0  0  0  0  0  0  0  0  0  0  0
    0.8961    0.2159    0.6430 C   0  0  0  0  0  0  0  0  0  0  0  0
    1.8026   -0.7813    1.2693 C   0  0  0  0  0  0  0  0  0  0  0  0
   -0.0734   -0.3554   -0.3467 C   0  0  0  0  0  0  0  0  0  0  0  0
    0.6310   -0.9536   -1.4029 O   0  0  0  0  0  0  0  0  0  0  0  0
   -1.1070   -1.2946    0.1698 C   0  0  0  0  0  0  0  0  0  0  0  0
   -2.1439   -0.5061   -0.5965 C   0  0  0  0  0  0  0  0  0  0  0  0
   -2.3641    0.8658   -0.0925 C   0  0  0  0  0  0  0  0  0  0  0  0
   -1.1046    0.6064   -0.8180 C   0  0  0  0  0  0  0  0  0  0  0  0
    2.0808    0.8247   -1.0110 H   0  0  0  0  0  0  0  0  0  0  0  0
    2.6415    1.4974    0.5822 H   0  0  0  0  0  0  0  0  0  0  0  0
    1.2124    2.2213   -0.1782 H   0  0  0  0  0  0  0  0  0  0  0  0
    0.3207    0.7731    1.4312 H   0  0  0  0  0  0  0  0  0  0  0  0
    2.6816   -0.9889    0.6081 H   0  0  0  0  0  0  0  0  0  0  0  0
    2.2104   -0.3962    2.2252 H   0  0  0  0  0  0  0  0  0  0  0  0
    1.3390   -1.7613    1.4763 H   0  0  0  0  0  0  0  0  0  0  0  0
    0.7203   -0.2462   -2.0935 H   0  0  0  0  0  0  0  0  0  0  0  0
   -1.3331   -1.2026    1.2622 H   0  0  0  0  0  0  0  0  0  0  0  0
   -1.0477   -2.3457   -0.1913 H   0  0  0  0  0  0  0  0  0  0  0  0
   -2.6611   -0.9276   -1.4500 H   0  0  0  0  0  0  0  0  0  0  0  0
   -3.0781    1.5380   -0.6057 H   0  0  0  0  0  0  0  0  0  0  0  0
   -2.3937    0.9657    1.0129 H   0  0  0  0  0  0  0  0  0  0  0  0
   -0.9800    0.9976   -1.8349 H   0  0  0  0  0  0  0  0  0  0  0  0
  1  2  1  0
  2  3  1  0
  2  4  1  0
  4  5  1  0
  4  6  1  0
  6  7  1  0
  7  8  1  0
  8  9  1  0
  9  4  1  0
  9  7  1  0
  1 10  1  0
  1 11  1  0
  1 12  1  0
  2 13  1  0
  3 14  1  0
  3 15  1  0
  3 16  1  0
  5 17  1  0
  6 18  1  0
  6 19  1  0
  7 20  1  0
  8 21  1  0
  8 22  1  0
  9 23  1  0
M  END
