
     RDKit          3D

 19 19  0  0  0  0  0  0  0  0999 V2000
   -2.1727   -0.1964    0.8419 C   0  0  0  0  0  0  0  0  0  0  0  0
   -1.3136    0.3186   -0.3156 C   0  0  0  0  0  0  0  0  0  0  0  0
   -2.0535   -0.0027   -1.5536 C   0  0  0  0  0  0  0  0  0  0  0  0
   -1.5381   -0.6879   -2.3995 O   0  0  0  0  0  0  0  0  0  0  0  0
   -0.0589   -0.2265   -0.2645 O   0  0  0  0  0  0  0  0  0  0  0  0
    0.8771    0.7507   -0.0195 C   0  0  0  0  0  0  0  0  0  0  0  0
    2.2798    0.2563    0.0548 C   0  0  0  0  0  0  0  0  0  0  0  0
    2.6652   -1.1183    0.0675 C   0  0  0  0  0  0  0  0  0  0  0  0
    2.6580   -0.3826   -1.2272 O   0  0  0  0  0  0  0  0  0  0  0  0
   -3.2576   -0.1505    0.5890 H   0  0  0  0  0  0  0  0  0  0  0  0
   -2.0400    0.4225    1.7436 H   0  0  0  0  0  0  0  0  0  0  0  0
   -1.9395   -1.2653    0.9967 H   0  0  0  0  0  0  0  0  0  0  0  0
   -1.2410    1.4175   -0.1435 H   0  0  0  0  0  0  0  0  0  0  0  0
   -3.0443    0.3753   -1.6925 H   0  0  0  0  0  0  0  0  0  0  0  0
    0.8163    1.4788   -0.8794 H   0  0  0  0  0  0  0  0  0  0  0  0
    0.6365    1.3451    0.8806 H   0  0  0  0  0  0  0  0  0  0  0  0
    3.0226    1.0231    0.3457 H   0  0  0  0  0  0  0  0  0  0  0  0
    1.9870   -1.9767    0.0264 H   0  0  0  0  0  0  0  0  0  0  0  0
    3.7166   -1.3810    0.2834 H   0  0  0  0  0  0  0  0  0  0  0  0
  1  2  1  0
  2  3  1  0
  3  4  2  0
  2  5  1  0
  5  6  1  0
  6  7  1  0
  7  8  1  0
  8  9  1  0
  9  7  1  0
  1 10  1  0
  1 11  1  0
  1 12  1  0
  2 13  1  0
  3 14  1  0
  6 15  1  0
  6 16  1  0
  7 17  1  0
  8 18  1  0
  8 19  1  0
M  END
