
     RDKit          3D

 25 25  0  0  0  0  0  0  0  0999 V2000
   -1.8188   -1.2615   -1.0862 C   0  0  0  0  0  0  0  0  0  0  0  0
   -1.4977    0.1429   -0.6208 C   0  0  0  0  0  0  0  0  0  0  0  0
   -2.7220    0.7127    0.0477 C   0  0  0  0  0  0  0  0  0  0  0  0
   -0.3441    0.1578    0.3388 C   0  0  0  0  0  0  0  0  0  0  0  0
    0.0405    1.5223    0.8513 C   0  0  0  0  0  0  0  0  0  0  0  0
    0.9506    0.7553   -0.0902 C   0  0  0  0  0  0  0  0  0  0  0  0
    2.2347    0.2944    0.5112 C   0  0  0  0  0  0  0  0  0  0  0  0
    2.4936   -1.1805    0.2846 C   0  0  0  0  0  0  0  0  0  0  0  0
    2.5581   -1.4913   -1.0676 O   0  0  0  0  0  0  0  0  0  0  0  0
   -1.5715   -1.9427   -0.2361 H   0  0  0  0  0  0  0  0  0  0  0  0
   -2.8878   -1.4013   -1.2974 H   0  0  0  0  0  0  0  0  0  0  0  0
   -1.2660   -1.5219   -2.0138 H   0  0  0  0  0  0  0  0  0  0  0  0
   -1.3034    0.7605   -1.5252 H   0  0  0  0  0  0  0  0  0  0  0  0
   -2.8094    1.8140   -0.1633 H   0  0  0  0  0  0  0  0  0  0  0  0
   -3.6081    0.2132   -0.3817 H   0  0  0  0  0  0  0  0  0  0  0  0
   -2.6249    0.5366    1.1512 H   0  0  0  0  0  0  0  0  0  0  0  0
   -0.2689   -0.7054    1.0223 H   0  0  0  0  0  0  0  0  0  0  0  0
   -0.4668    2.4234    0.4964 H   0  0  0  0  0  0  0  0  0  0  0  0
    0.2896    1.5436    1.9285 H   0  0  0  0  0  0  0  0  0  0  0  0
    1.0354    1.2254   -1.1047 H   0  0  0  0  0  0  0  0  0  0  0  0
    3.0757    0.8274   -0.0137 H   0  0  0  0  0  0  0  0  0  0  0  0
    2.2708    0.5296    1.5944 H   0  0  0  0  0  0  0  0  0  0  0  0
    3.4994   -1.3956    0.7210 H   0  0  0  0  0  0  0  0  0  0  0  0
    1.7771   -1.8195    0.8113 H   0  0  0  0  0  0  0  0  0  0  0  0
    2.9640   -0.7395   -1.5609 H   0  0  0  0  0  0  0  0  0  0  0  0
  1  2  1  0
  2  3  1  0
  2  4  1  0
  4  5  1  0
  5  6  1  0
  6  7  1  0
  7  8  1  0
  8  9  1  0
  6  4  1  0
  1 10  1  0
  1 11  1  0
  1 12  1  0
  2 13  1  0
  3 14  1  0
  3 15  1  0
  3 16  1  0
  4 17  1  0
  5 18  1  0
  5 19  1  0
  6 20  1  0
  7 21  1  0
  7 22  1  0
  8 23  1  0
  8 24  1  0
  9 25  1  0
M  END
