
     RDKit          3D

 23 22  0  0  0  0  0  0  0  0999 V2000
   -2.0168   -1.1511   -0.3922 C   0  0  0  0  0  0  0  0  0  0  0  0
   -0.7911   -0.3637    0.2159 C   0  0  0  0  0  0  0  0  0  0  0  0
   -1.0755    1.0327   -0.3412 C   0  0  0  0  0  0  0  0  0  0  0  0
   -2.4184    1.4784    0.1549 C   0  0  0  0  0  0  0  0  0  0  0  0
   -2.5047    1.9058    1.2867 O   0  0  0  0  0  0  0  0  0  0  0  0
    0.4006   -1.0166   -0.3572 C   0  0  0  0  0  0  0  0  0  0  0  0
    1.7503   -0.6039    0.0217 C   0  0  0  0  0  0  0  0  0  0  0  0
    2.2318    0.7718   -0.1900 C   0  0  0  0  0  0  0  0  0  0  0  0
    3.6113    0.7415    0.2397 O   0  0  0  0  0  0  0  0  0  0  0  0
   -2.8794   -0.7305    0.1310 H   0  0  0  0  0  0  0  0  0  0  0  0
   -1.7948   -2.2062   -0.1538 H   0  0  0  0  0  0  0  0  0  0  0  0
   -1.9624   -0.9140   -1.4704 H   0  0  0  0  0  0  0  0  0  0  0  0
   -0.8666   -0.4424    1.2896 H   0  0  0  0  0  0  0  0  0  0  0  0
   -1.1801    0.8889   -1.4401 H   0  0  0  0  0  0  0  0  0  0  0  0
   -0.2983    1.7320   -0.1178 H   0  0  0  0  0  0  0  0  0  0  0  0
   -3.2913    1.4234   -0.4738 H   0  0  0  0  0  0  0  0  0  0  0  0
    0.3114   -0.9537   -1.4855 H   0  0  0  0  0  0  0  0  0  0  0  0
    0.3354   -2.1510   -0.1913 H   0  0  0  0  0  0  0  0  0  0  0  0
    1.9633   -0.8417    1.1219 H   0  0  0  0  0  0  0  0  0  0  0  0
    2.4701   -1.2630   -0.5846 H   0  0  0  0  0  0  0  0  0  0  0  0
    1.7921    1.5543    0.4863 H   0  0  0  0  0  0  0  0  0  0  0  0
    2.2427    1.1591   -1.2031 H   0  0  0  0  0  0  0  0  0  0  0  0
    3.9703   -0.0501   -0.2389 H   0  0  0  0  0  0  0  0  0  0  0  0
  1  2  1  0
  2  3  1  0
  3  4  1  0
  4  5  2  0
  2  6  1  0
  6  7  1  0
  7  8  1  0
  8  9  1  0
  1 10  1  0
  1 11  1  0
  1 12  1  0
  2 13  1  0
  3 14  1  0
  3 15  1  0
  4 16  1  0
  6 17  1  0
  6 18  1  0
  7 19  1  0
  7 20  1  0
  8 21  1  0
  8 22  1  0
  9 23  1  0
M  END
