
     RDKit          3D

 21 21  0  0  0  0  0  0  0  0999 V2000
    1.7166   -1.3838   -0.1445 C   0  0  0  0  0  0  0  0  0  0  0  0
    1.0222   -0.0767   -0.2784 C   0  0  0  0  0  0  0  0  0  0  0  0
    1.9472    1.0056    0.1989 C   0  0  0  0  0  0  0  0  0  0  0  0
    2.5051    1.6905   -0.6127 O   0  0  0  0  0  0  0  0  0  0  0  0
   -0.2338    0.0454    0.5386 C   0  0  0  0  0  0  0  0  0  0  0  0
   -1.3165   -0.9346    0.2499 C   0  0  0  0  0  0  0  0  0  0  0  0
   -1.7836   -0.0112   -0.8793 C   0  0  0  0  0  0  0  0  0  0  0  0
   -1.1152    1.1258   -0.1068 C   0  0  0  0  0  0  0  0  0  0  0  0
   -2.0089    1.7142    0.7617 O   0  0  0  0  0  0  0  0  0  0  0  0
    1.4546   -2.1082   -0.9700 H   0  0  0  0  0  0  0  0  0  0  0  0
    2.8136   -1.2070   -0.2758 H   0  0  0  0  0  0  0  0  0  0  0  0
    1.6049   -1.8767    0.8340 H   0  0  0  0  0  0  0  0  0  0  0  0
    0.7815    0.0753   -1.3574 H   0  0  0  0  0  0  0  0  0  0  0  0
    2.0483    1.0939    1.2798 H   0  0  0  0  0  0  0  0  0  0  0  0
   -0.0075    0.2287    1.5996 H   0  0  0  0  0  0  0  0  0  0  0  0
   -1.0377   -1.9316   -0.0774 H   0  0  0  0  0  0  0  0  0  0  0  0
   -2.0917   -0.8985    1.0554 H   0  0  0  0  0  0  0  0  0  0  0  0
   -1.2145   -0.2592   -1.7901 H   0  0  0  0  0  0  0  0  0  0  0  0
   -2.8706    0.0695   -0.9785 H   0  0  0  0  0  0  0  0  0  0  0  0
   -0.5651    1.8432   -0.7306 H   0  0  0  0  0  0  0  0  0  0  0  0
   -1.6490    1.7954    1.6836 H   0  0  0  0  0  0  0  0  0  0  0  0
  1  2  1  0
  2  3  1  0
  3  4  2  0
  2  5  1  0
  5  6  1  0
  6  7  1  0
  7  8  1  0
  8  9  1  0
  8  5  1  0
  1 10  1  0
  1 11  1  0
  1 12  1  0
  2 13  1  0
  3 14  1  0
  5 15  1  0
  6 16  1  0
  6 17  1  0
  7 18  1  0
  7 19  1  0
  8 20  1  0
  9 21  1  0
M  END
