
     RDKit          3D

 25 24  0  0  0  0  0  0  0  0999 V2000
   -1.2375    1.2766    0.8456 C   0  0  0  0  0  0  0  0  0  0  0  0
   -1.0076   -0.0365    0.1890 C   0  0  0  0  0  0  0  0  0  0  0  0
   -1.6867   -0.0545   -1.1857 C   0  0  0  0  0  0  0  0  0  0  0  0
    0.4128   -0.4825    0.1047 C   0  0  0  0  0  0  0  0  0  0  0  0
    0.4056   -1.8463   -0.6019 C   0  0  0  0  0  0  0  0  0  0  0  0
    0.9170   -0.7336    1.5021 C   0  0  0  0  0  0  0  0  0  0  0  0
    1.3063    0.4045   -0.6894 C   0  0  0  0  0  0  0  0  0  0  0  0
    1.4287    1.7818   -0.2148 C   0  0  0  0  0  0  0  0  0  0  0  0
    2.1460    2.0458    0.7328 O   0  0  0  0  0  0  0  0  0  0  0  0
   -1.3335    2.0654    0.0534 H   0  0  0  0  0  0  0  0  0  0  0  0
   -2.2414    1.2931    1.3644 H   0  0  0  0  0  0  0  0  0  0  0  0
   -0.4475    1.6142    1.5241 H   0  0  0  0  0  0  0  0  0  0  0  0
   -1.5535   -0.8229    0.7882 H   0  0  0  0  0  0  0  0  0  0  0  0
   -1.4770    0.8768   -1.7378 H   0  0  0  0  0  0  0  0  0  0  0  0
   -1.3489   -0.8919   -1.7922 H   0  0  0  0  0  0  0  0  0  0  0  0
   -2.7733   -0.1831   -0.9966 H   0  0  0  0  0  0  0  0  0  0  0  0
    0.6964   -1.7449   -1.6629 H   0  0  0  0  0  0  0  0  0  0  0  0
   -0.5925   -2.3179   -0.5382 H   0  0  0  0  0  0  0  0  0  0  0  0
    1.1160   -2.5466   -0.1279 H   0  0  0  0  0  0  0  0  0  0  0  0
    2.0273   -0.6787    1.5702 H   0  0  0  0  0  0  0  0  0  0  0  0
    0.6568   -1.7867    1.8083 H   0  0  0  0  0  0  0  0  0  0  0  0
    0.4439   -0.0791    2.2539 H   0  0  0  0  0  0  0  0  0  0  0  0
    2.3132   -0.0967   -0.7330 H   0  0  0  0  0  0  0  0  0  0  0  0
    0.9448    0.3617   -1.7576 H   0  0  0  0  0  0  0  0  0  0  0  0
    0.8845    2.5817   -0.6988 H   0  0  0  0  0  0  0  0  0  0  0  0
  1  2  1  0
  2  3  1  0
  2  4  1  0
  4  5  1  0
  4  6  1  0
  4  7  1  0
  7  8  1  0
  8  9  2  0
  1 10  1  0
  1 11  1  0
  1 12  1  0
  2 13  1  0
  3 14  1  0
  3 15  1  0
  3 16  1  0
  5 17  1  0
  5 18  1  0
  5 19  1  0
  6 20  1  0
  6 21  1  0
  6 22  1  0
  7 23  1  0
  7 24  1  0
  8 25  1  0
M  END
