
     RDKit          3D

 19 18  0  0  0  0  0  0  0  0999 V2000
   -1.4411    0.9953    1.3478 C   0  0  0  0  0  0  0  0  0  0  0  0
   -1.3759   -0.1465    0.3590 C   0  0  0  0  0  0  0  0  0  0  0  0
   -2.1724    0.1506   -0.8912 C   0  0  0  0  0  0  0  0  0  0  0  0
   -1.9361   -1.2778    0.9735 O   0  0  0  0  0  0  0  0  0  0  0  0
    0.0329   -0.3909    0.0487 C   0  0  0  0  0  0  0  0  0  0  0  0
    1.2068   -0.5764   -0.2211 C   0  0  0  0  0  0  0  0  0  0  0  0
    2.6271   -0.7922   -0.5431 C   0  0  0  0  0  0  0  0  0  0  0  0
    3.1336    0.4072   -1.2330 C   0  0  0  0  0  0  0  0  0  0  0  0
    4.2943    0.4409   -1.5899 O   0  0  0  0  0  0  0  0  0  0  0  0
   -0.8307    1.8507    1.0593 H   0  0  0  0  0  0  0  0  0  0  0  0
   -1.2417    0.6173    2.3614 H   0  0  0  0  0  0  0  0  0  0  0  0
   -2.5152    1.3420    1.3470 H   0  0  0  0  0  0  0  0  0  0  0  0
   -1.6520   -0.3660   -1.7257 H   0  0  0  0  0  0  0  0  0  0  0  0
   -3.2012   -0.2572   -0.8401 H   0  0  0  0  0  0  0  0  0  0  0  0
   -2.1830    1.2540   -1.1142 H   0  0  0  0  0  0  0  0  0  0  0  0
   -1.2227   -1.8943    1.3059 H   0  0  0  0  0  0  0  0  0  0  0  0
    2.7421   -1.6612   -1.2263 H   0  0  0  0  0  0  0  0  0  0  0  0
    3.2203   -0.9605    0.3795 H   0  0  0  0  0  0  0  0  0  0  0  0
    2.5151    1.2651   -1.4377 H   0  0  0  0  0  0  0  0  0  0  0  0
  1  2  1  0
  2  3  1  0
  2  4  1  0
  2  5  1  0
  5  6  3  0
  6  7  1  0
  7  8  1  0
  8  9  2  0
  1 10  1  0
  1 11  1  0
  1 12  1  0
  3 13  1  0
  3 14  1  0
  3 15  1  0
  4 16  1  0
  7 17  1  0
  7 18  1  0
  8 19  1  0
M  END
