
     RDKit          3D

 21 21  0  0  0  0  0  0  0  0999 V2000
    1.5544    1.4967   -0.0185 C   0  0  0  0  0  0  0  0  0  0  0  0
    0.8297    0.2694    0.4993 C   0  0  0  0  0  0  0  0  0  0  0  0
    1.7309   -0.9371    0.4953 C   0  0  0  0  0  0  0  0  0  0  0  0
    2.1930   -1.2397   -0.7781 O   0  0  0  0  0  0  0  0  0  0  0  0
   -0.3977    0.0882   -0.3443 C   0  0  0  0  0  0  0  0  0  0  0  0
   -1.2186   -1.0649    0.0272 C   0  0  0  0  0  0  0  0  0  0  0  0
   -2.5075   -0.6919    0.0326 C   0  0  0  0  0  0  0  0  0  0  0  0
   -2.5264    0.7464   -0.3466 C   0  0  0  0  0  0  0  0  0  0  0  0
   -1.2540    1.1670   -0.0206 O   0  0  0  0  0  0  0  0  0  0  0  0
    2.3849    1.8117    0.6125 H   0  0  0  0  0  0  0  0  0  0  0  0
    0.7888    2.3252    0.0040 H   0  0  0  0  0  0  0  0  0  0  0  0
    1.8913    1.3222   -1.0754 H   0  0  0  0  0  0  0  0  0  0  0  0
    0.5241    0.4843    1.5284 H   0  0  0  0  0  0  0  0  0  0  0  0
    1.1952   -1.7846    0.9464 H   0  0  0  0  0  0  0  0  0  0  0  0
    2.5783   -0.7016    1.1872 H   0  0  0  0  0  0  0  0  0  0  0  0
    2.6612   -2.1308   -0.6969 H   0  0  0  0  0  0  0  0  0  0  0  0
   -0.1505    0.1212   -1.4405 H   0  0  0  0  0  0  0  0  0  0  0  0
   -0.8913   -2.0850    0.2708 H   0  0  0  0  0  0  0  0  0  0  0  0
   -3.3748   -1.2906    0.2611 H   0  0  0  0  0  0  0  0  0  0  0  0
   -2.7048    0.8533   -1.4165 H   0  0  0  0  0  0  0  0  0  0  0  0
   -3.3061    1.2406    0.2731 H   0  0  0  0  0  0  0  0  0  0  0  0
  1  2  1  0
  2  3  1  0
  3  4  1  0
  2  5  1  0
  5  6  1  0
  6  7  2  0
  7  8  1  0
  8  9  1  0
  9  5  1  0
  1 10  1  0
  1 11  1  0
  1 12  1  0
  2 13  1  0
  3 14  1  0
  3 15  1  0
  4 16  1  0
  5 17  1  0
  6 18  1  0
  7 19  1  0
  8 20  1  0
  8 21  1  0
M  END
