
     RDKit          3D

 25 25  0  0  0  0  0  0  0  0999 V2000
   -2.1266    1.0619   -0.2461 C   0  0  0  0  0  0  0  0  0  0  0  0
   -1.7393   -0.2567    0.3790 C   0  0  0  0  0  0  0  0  0  0  0  0
   -1.7979   -1.4104   -0.5541 C   0  0  0  0  0  0  0  0  0  0  0  0
   -2.6577   -0.4843    1.4215 O   0  0  0  0  0  0  0  0  0  0  0  0
   -0.3528   -0.0826    0.9623 C   0  0  0  0  0  0  0  0  0  0  0  0
    0.6076    0.2889   -0.1409 C   0  0  0  0  0  0  0  0  0  0  0  0
    2.0137    0.4777    0.3759 C   0  0  0  0  0  0  0  0  0  0  0  0
    3.0210    0.8523   -0.6908 C   0  0  0  0  0  0  0  0  0  0  0  0
    3.0749   -0.5193   -0.0666 C   0  0  0  0  0  0  0  0  0  0  0  0
   -1.7135    1.2240   -1.2367 H   0  0  0  0  0  0  0  0  0  0  0  0
   -1.7766    1.8716    0.4402 H   0  0  0  0  0  0  0  0  0  0  0  0
   -3.2509    1.1384   -0.2242 H   0  0  0  0  0  0  0  0  0  0  0  0
   -2.4725   -2.2287   -0.1643 H   0  0  0  0  0  0  0  0  0  0  0  0
   -2.2199   -1.1650   -1.5606 H   0  0  0  0  0  0  0  0  0  0  0  0
   -0.7959   -1.9170   -0.6456 H   0  0  0  0  0  0  0  0  0  0  0  0
   -3.4812   -0.8720    0.9956 H   0  0  0  0  0  0  0  0  0  0  0  0
   -0.4159    0.7992    1.6517 H   0  0  0  0  0  0  0  0  0  0  0  0
   -0.0322   -0.9397    1.5520 H   0  0  0  0  0  0  0  0  0  0  0  0
    0.5914   -0.4557   -0.9640 H   0  0  0  0  0  0  0  0  0  0  0  0
    0.3034    1.2577   -0.5881 H   0  0  0  0  0  0  0  0  0  0  0  0
    2.1513    0.8908    1.3924 H   0  0  0  0  0  0  0  0  0  0  0  0
    2.7026    0.9484   -1.7382 H   0  0  0  0  0  0  0  0  0  0  0  0
    3.7883    1.5893   -0.3811 H   0  0  0  0  0  0  0  0  0  0  0  0
    3.9128   -0.6888    0.6291 H   0  0  0  0  0  0  0  0  0  0  0  0
    2.6658   -1.3799   -0.5984 H   0  0  0  0  0  0  0  0  0  0  0  0
  1  2  1  0
  2  3  1  0
  2  4  1  0
  2  5  1  0
  5  6  1  0
  6  7  1  0
  7  8  1  0
  8  9  1  0
  9  7  1  0
  1 10  1  0
  1 11  1  0
  1 12  1  0
  3 13  1  0
  3 14  1  0
  3 15  1  0
  4 16  1  0
  5 17  1  0
  5 18  1  0
  6 19  1  0
  6 20  1  0
  7 21  1  0
  8 22  1  0
  8 23  1  0
  9 24  1  0
  9 25  1  0
M  END
