
     RDKit          3D

 21 20  0  0  0  0  0  0  0  0999 V2000
    2.2209    1.0635   -0.0693 C   0  0  0  0  0  0  0  0  0  0  0  0
    1.0768    0.1559   -0.4418 C   0  0  0  0  0  0  0  0  0  0  0  0
    1.5687   -1.2729   -0.4571 C   0  0  0  0  0  0  0  0  0  0  0  0
   -0.0291    0.3684    0.5106 C   0  0  0  0  0  0  0  0  0  0  0  0
    0.1145    1.1832    1.4015 O   0  0  0  0  0  0  0  0  0  0  0  0
   -1.3204   -0.3637    0.4423 C   0  0  0  0  0  0  0  0  0  0  0  0
   -2.0111   -0.0952   -0.8999 C   0  0  0  0  0  0  0  0  0  0  0  0
   -2.2037    0.1506    1.5142 C   0  0  0  0  0  0  0  0  0  0  0  0
   -2.2373    1.3315    1.7911 O   0  0  0  0  0  0  0  0  0  0  0  0
    2.4460    0.9862    1.0272 H   0  0  0  0  0  0  0  0  0  0  0  0
    1.8791    2.1119   -0.2399 H   0  0  0  0  0  0  0  0  0  0  0  0
    3.1342    0.8470   -0.6602 H   0  0  0  0  0  0  0  0  0  0  0  0
    0.7215    0.4351   -1.4544 H   0  0  0  0  0  0  0  0  0  0  0  0
    0.8268   -1.9737   -0.0301 H   0  0  0  0  0  0  0  0  0  0  0  0
    1.8419   -1.6062   -1.4795 H   0  0  0  0  0  0  0  0  0  0  0  0
    2.5198   -1.3536    0.1407 H   0  0  0  0  0  0  0  0  0  0  0  0
   -1.1807   -1.4587    0.5152 H   0  0  0  0  0  0  0  0  0  0  0  0
   -1.5001    0.7751   -1.3856 H   0  0  0  0  0  0  0  0  0  0  0  0
   -1.9701   -0.9867   -1.5550 H   0  0  0  0  0  0  0  0  0  0  0  0
   -3.0598    0.2217   -0.7425 H   0  0  0  0  0  0  0  0  0  0  0  0
   -2.8379   -0.5194    2.0724 H   0  0  0  0  0  0  0  0  0  0  0  0
  1  2  1  0
  2  3  1  0
  2  4  1  0
  4  5  2  0
  4  6  1  0
  6  7  1  0
  6  8  1  0
  8  9  2  0
  1 10  1  0
  1 11  1  0
  1 12  1  0
  2 13  1  0
  3 14  1  0
  3 15  1  0
  3 16  1  0
  6 17  1  0
  7 18  1  0
  7 19  1  0
  7 20  1  0
  8 21  1  0
M  END
