
     RDKit          3D

 20 20  0  0  0  0  0  0  0  0999 V2000
   -1.4934    1.4715    0.1685 C   0  0  0  0  0  0  0  0  0  0  0  0
   -0.6924    0.2143    0.3446 C   0  0  0  0  0  0  0  0  0  0  0  0
   -1.6685   -0.9716    0.3193 C   0  0  0  0  0  0  0  0  0  0  0  0
    0.2777   -0.0314   -0.7751 C   0  0  0  0  0  0  0  0  0  0  0  0
    1.0896   -1.3106   -0.5913 C   0  0  0  0  0  0  0  0  0  0  0  0
    1.7289    0.0245   -0.6334 C   0  0  0  0  0  0  0  0  0  0  0  0
    2.2797    0.5602    0.6402 C   0  0  0  0  0  0  0  0  0  0  0  0
    3.2744    1.2733    0.6803 O   0  0  0  0  0  0  0  0  0  0  0  0
   -1.0695    2.2556    0.8193 H   0  0  0  0  0  0  0  0  0  0  0  0
   -2.5424    1.2807    0.4939 H   0  0  0  0  0  0  0  0  0  0  0  0
   -1.4190    1.7838   -0.8782 H   0  0  0  0  0  0  0  0  0  0  0  0
   -0.2239    0.1805    1.3495 H   0  0  0  0  0  0  0  0  0  0  0  0
   -2.4507   -0.8153    1.0669 H   0  0  0  0  0  0  0  0  0  0  0  0
   -2.0570   -1.0155   -0.7320 H   0  0  0  0  0  0  0  0  0  0  0  0
   -1.1186   -1.9220    0.5204 H   0  0  0  0  0  0  0  0  0  0  0  0
   -0.1425    0.1676   -1.7860 H   0  0  0  0  0  0  0  0  0  0  0  0
    1.0600   -1.8232    0.3910 H   0  0  0  0  0  0  0  0  0  0  0  0
    1.0525   -1.9849   -1.4442 H   0  0  0  0  0  0  0  0  0  0  0  0
    2.3212    0.3427   -1.5333 H   0  0  0  0  0  0  0  0  0  0  0  0
    1.7938    0.3199    1.5797 H   0  0  0  0  0  0  0  0  0  0  0  0
  1  2  1  0
  2  3  1  0
  2  4  1  0
  4  5  1  0
  5  6  1  0
  6  7  1  0
  7  8  2  0
  6  4  1  0
  1  9  1  0
  1 10  1  0
  1 11  1  0
  2 12  1  0
  3 13  1  0
  3 14  1  0
  3 15  1  0
  4 16  1  0
  5 17  1  0
  5 18  1  0
  6 19  1  0
  7 20  1  0
M  END
