
     RDKit          3D

 22 21  0  0  0  0  0  0  0  0999 V2000
   -1.1303   -0.3112    1.3860 C   0  0  0  0  0  0  0  0  0  0  0  0
   -0.7334    0.1418    0.0230 C   0  0  0  0  0  0  0  0  0  0  0  0
   -1.1095   -0.9259   -1.0128 C   0  0  0  0  0  0  0  0  0  0  0  0
   -1.5576    1.3641   -0.3253 C   0  0  0  0  0  0  0  0  0  0  0  0
    0.7050    0.4903   -0.1276 C   0  0  0  0  0  0  0  0  0  0  0  0
    1.6475   -0.6482    0.1674 C   0  0  0  0  0  0  0  0  0  0  0  0
    3.0487   -0.1772   -0.0171 C   0  0  0  0  0  0  0  0  0  0  0  0
    3.2816    0.9716   -0.3562 O   0  0  0  0  0  0  0  0  0  0  0  0
   -2.1299    0.1174    1.6685 H   0  0  0  0  0  0  0  0  0  0  0  0
   -0.4327   -0.0066    2.1842 H   0  0  0  0  0  0  0  0  0  0  0  0
   -1.2829   -1.4138    1.3509 H   0  0  0  0  0  0  0  0  0  0  0  0
   -0.7042   -1.9041   -0.7367 H   0  0  0  0  0  0  0  0  0  0  0  0
   -2.2355   -0.9915   -0.9991 H   0  0  0  0  0  0  0  0  0  0  0  0
   -0.8056   -0.6196   -2.0176 H   0  0  0  0  0  0  0  0  0  0  0  0
   -1.9000    1.3348   -1.3824 H   0  0  0  0  0  0  0  0  0  0  0  0
   -0.9349    2.2804   -0.2123 H   0  0  0  0  0  0  0  0  0  0  0  0
   -2.4131    1.4976    0.3787 H   0  0  0  0  0  0  0  0  0  0  0  0
    0.8703    0.8252   -1.1725 H   0  0  0  0  0  0  0  0  0  0  0  0
    0.9425    1.3552    0.5271 H   0  0  0  0  0  0  0  0  0  0  0  0
    1.4903   -1.4501   -0.6022 H   0  0  0  0  0  0  0  0  0  0  0  0
    1.4732   -1.1124    1.1387 H   0  0  0  0  0  0  0  0  0  0  0  0
    3.9102   -0.8176    0.1373 H   0  0  0  0  0  0  0  0  0  0  0  0
  1  2  1  0
  2  3  1  0
  2  4  1  0
  2  5  1  0
  5  6  1  0
  6  7  1  0
  7  8  2  0
  1  9  1  0
  1 10  1  0
  1 11  1  0
  3 12  1  0
  3 13  1  0
  3 14  1  0
  4 15  1  0
  4 16  1  0
  4 17  1  0
  5 18  1  0
  5 19  1  0
  6 20  1  0
  6 21  1  0
  7 22  1  0
M  END
