
     RDKit          3D

 19 18  0  0  0  0  0  0  0  0999 V2000
   -1.7865   -0.6113   -1.1257 C   0  0  0  0  0  0  0  0  0  0  0  0
   -0.7230   -0.3504   -0.1115 C   0  0  0  0  0  0  0  0  0  0  0  0
   -1.1167    0.8863    0.6691 C   0  0  0  0  0  0  0  0  0  0  0  0
   -0.6542   -1.3936    0.8150 O   0  0  0  0  0  0  0  0  0  0  0  0
    0.6424   -0.1476   -0.7139 C   0  0  0  0  0  0  0  0  0  0  0  0
    1.6327    0.1049    0.3701 C   0  0  0  0  0  0  0  0  0  0  0  0
    1.2444    0.1178    1.5628 O   0  0  0  0  0  0  0  0  0  0  0  0
    3.0406    0.3381    0.0934 C   0  0  0  0  0  0  0  0  0  0  0  0
    3.4514    0.3290   -1.0994 O   0  0  0  0  0  0  0  0  0  0  0  0
   -2.2547    0.3436   -1.5018 H   0  0  0  0  0  0  0  0  0  0  0  0
   -1.4171   -1.1432   -2.0237 H   0  0  0  0  0  0  0  0  0  0  0  0
   -2.6321   -1.1715   -0.6627 H   0  0  0  0  0  0  0  0  0  0  0  0
   -2.1973    1.1121    0.5223 H   0  0  0  0  0  0  0  0  0  0  0  0
   -0.4821    1.7173    0.3413 H   0  0  0  0  0  0  0  0  0  0  0  0
   -0.9995    0.7396    1.7744 H   0  0  0  0  0  0  0  0  0  0  0  0
   -1.0975   -1.1671    1.6736 H   0  0  0  0  0  0  0  0  0  0  0  0
    0.6650    0.7617   -1.3614 H   0  0  0  0  0  0  0  0  0  0  0  0
    0.9842   -0.9801   -1.3231 H   0  0  0  0  0  0  0  0  0  0  0  0
    3.7000    0.5145    0.9326 H   0  0  0  0  0  0  0  0  0  0  0  0
  1  2  1  0
  2  3  1  0
  2  4  1  0
  2  5  1  0
  5  6  1  0
  6  7  2  0
  6  8  1  0
  8  9  2  0
  1 10  1  0
  1 11  1  0
  1 12  1  0
  3 13  1  0
  3 14  1  0
  3 15  1  0
  4 16  1  0
  5 17  1  0
  5 18  1  0
  8 19  1  0
M  END
