
     RDKit          3D

 23 23  0  0  0  0  0  0  0  0999 V2000
    0.2723   -1.3689   -1.1659 C   0  0  0  0  0  0  0  0  0  0  0  0
    0.0430   -0.3014   -0.1503 C   0  0  0  0  0  0  0  0  0  0  0  0
    0.8922    0.9189   -0.3429 C   0  0  0  0  0  0  0  0  0  0  0  0
    2.3684    0.5749   -0.2691 C   0  0  0  0  0  0  0  0  0  0  0  0
    2.6526    0.0277    0.9734 O   0  0  0  0  0  0  0  0  0  0  0  0
   -1.4063    0.0728   -0.1257 C   0  0  0  0  0  0  0  0  0  0  0  0
   -1.8091    1.1349    0.8423 C   0  0  0  0  0  0  0  0  0  0  0  0
   -2.7075    0.2195    1.4275 O   0  0  0  0  0  0  0  0  0  0  0  0
   -2.2396   -0.8728    0.7328 C   0  0  0  0  0  0  0  0  0  0  0  0
    0.7317   -2.2773   -0.7124 H   0  0  0  0  0  0  0  0  0  0  0  0
    0.9121   -1.0788   -2.0095 H   0  0  0  0  0  0  0  0  0  0  0  0
   -0.7058   -1.7322   -1.5973 H   0  0  0  0  0  0  0  0  0  0  0  0
    0.3018   -0.7207    0.8628 H   0  0  0  0  0  0  0  0  0  0  0  0
    0.6928    1.5884    0.5400 H   0  0  0  0  0  0  0  0  0  0  0  0
    0.6482    1.5057   -1.2295 H   0  0  0  0  0  0  0  0  0  0  0  0
    2.9060    1.5677   -0.2948 H   0  0  0  0  0  0  0  0  0  0  0  0
    2.6685   -0.0674   -1.1151 H   0  0  0  0  0  0  0  0  0  0  0  0
    3.5938    0.2156    1.2659 H   0  0  0  0  0  0  0  0  0  0  0  0
   -1.8144    0.1514   -1.1435 H   0  0  0  0  0  0  0  0  0  0  0  0
   -2.3246    2.0205    0.4205 H   0  0  0  0  0  0  0  0  0  0  0  0
   -1.0760    1.4396    1.5972 H   0  0  0  0  0  0  0  0  0  0  0  0
   -1.5917   -1.5795    1.3047 H   0  0  0  0  0  0  0  0  0  0  0  0
   -3.0084   -1.4384    0.1888 H   0  0  0  0  0  0  0  0  0  0  0  0
  1  2  1  0
  2  3  1  0
  3  4  1  0
  4  5  1  0
  2  6  1  0
  6  7  1  0
  7  8  1  0
  8  9  1  0
  9  6  1  0
  1 10  1  0
  1 11  1  0
  1 12  1  0
  2 13  1  0
  3 14  1  0
  3 15  1  0
  4 16  1  0
  4 17  1  0
  5 18  1  0
  6 19  1  0
  7 20  1  0
  7 21  1  0
  9 22  1  0
  9 23  1  0
M  END
