
     RDKit          3D

 23 23  0  0  0  0  0  0  0  0999 V2000
   -2.1980   -1.1859    0.1703 C   0  0  0  0  0  0  0  0  0  0  0  0
   -1.3747    0.0988    0.0964 C   0  0  0  0  0  0  0  0  0  0  0  0
   -2.0721    1.1310    0.9199 C   0  0  0  0  0  0  0  0  0  0  0  0
    0.0004   -0.2416    0.6117 C   0  0  0  0  0  0  0  0  0  0  0  0
    0.6998   -1.3251   -0.1947 C   0  0  0  0  0  0  0  0  0  0  0  0
    1.2212    0.1081   -0.1558 C   0  0  0  0  0  0  0  0  0  0  0  0
    1.1161    0.8780   -1.3100 O   0  0  0  0  0  0  0  0  0  0  0  0
    2.5218    0.2448    0.5896 C   0  0  0  0  0  0  0  0  0  0  0  0
    2.7745    1.5394    1.0163 O   0  0  0  0  0  0  0  0  0  0  0  0
   -2.9927   -1.0986   -0.5875 H   0  0  0  0  0  0  0  0  0  0  0  0
   -2.6020   -1.3154    1.1972 H   0  0  0  0  0  0  0  0  0  0  0  0
   -1.5075   -2.0300   -0.0411 H   0  0  0  0  0  0  0  0  0  0  0  0
   -1.3362    0.4743   -0.9539 H   0  0  0  0  0  0  0  0  0  0  0  0
   -2.6207    0.6967    1.7995 H   0  0  0  0  0  0  0  0  0  0  0  0
   -1.4210    1.9364    1.2889 H   0  0  0  0  0  0  0  0  0  0  0  0
   -2.8728    1.6179    0.2948 H   0  0  0  0  0  0  0  0  0  0  0  0
    0.1245   -0.3300    1.6943 H   0  0  0  0  0  0  0  0  0  0  0  0
    1.2501   -2.1116    0.3424 H   0  0  0  0  0  0  0  0  0  0  0  0
    0.2243   -1.6838   -1.1262 H   0  0  0  0  0  0  0  0  0  0  0  0
    2.0336    0.9810   -1.6705 H   0  0  0  0  0  0  0  0  0  0  0  0
    2.5455   -0.4417    1.4478 H   0  0  0  0  0  0  0  0  0  0  0  0
    3.3306   -0.0433   -0.1317 H   0  0  0  0  0  0  0  0  0  0  0  0
    3.1553    2.1005    0.2789 H   0  0  0  0  0  0  0  0  0  0  0  0
  1  2  1  0
  2  3  1  0
  2  4  1  0
  4  5  1  0
  5  6  1  0
  6  7  1  0
  6  8  1  0
  8  9  1  0
  6  4  1  0
  1 10  1  0
  1 11  1  0
  1 12  1  0
  2 13  1  0
  3 14  1  0
  3 15  1  0
  3 16  1  0
  4 17  1  0
  5 18  1  0
  5 19  1  0
  7 20  1  0
  8 21  1  0
  8 22  1  0
  9 23  1  0
M  END
