
     RDKit          3D

 20 20  0  0  0  0  0  0  0  0999 V2000
   -1.9064    0.7966    1.0276 C   0  0  0  0  0  0  0  0  0  0  0  0
   -1.3023   -0.0757   -0.0576 C   0  0  0  0  0  0  0  0  0  0  0  0
   -1.7860    0.3942   -1.4164 C   0  0  0  0  0  0  0  0  0  0  0  0
    0.0600    0.0949   -0.0182 O   0  0  0  0  0  0  0  0  0  0  0  0
    0.7535   -1.0881    0.2308 C   0  0  0  0  0  0  0  0  0  0  0  0
    2.2307   -0.8123    0.2570 C   0  0  0  0  0  0  0  0  0  0  0  0
    2.7877    0.5043    0.2582 C   0  0  0  0  0  0  0  0  0  0  0  0
    2.6808   -0.2716   -1.0072 O   0  0  0  0  0  0  0  0  0  0  0  0
   -2.6974    1.4180    0.5815 H   0  0  0  0  0  0  0  0  0  0  0  0
   -2.3925    0.1557    1.7879 H   0  0  0  0  0  0  0  0  0  0  0  0
   -1.1430    1.3923    1.5650 H   0  0  0  0  0  0  0  0  0  0  0  0
   -1.6007   -1.1370    0.1184 H   0  0  0  0  0  0  0  0  0  0  0  0
   -2.8868    0.3410   -1.5186 H   0  0  0  0  0  0  0  0  0  0  0  0
   -1.2419   -0.1856   -2.1786 H   0  0  0  0  0  0  0  0  0  0  0  0
   -1.4309    1.4620   -1.5094 H   0  0  0  0  0  0  0  0  0  0  0  0
    0.5788   -1.8291   -0.5824 H   0  0  0  0  0  0  0  0  0  0  0  0
    0.4298   -1.5756    1.1680 H   0  0  0  0  0  0  0  0  0  0  0  0
    2.8544   -1.6635    0.5954 H   0  0  0  0  0  0  0  0  0  0  0  0
    3.8302    0.6602    0.5511 H   0  0  0  0  0  0  0  0  0  0  0  0
    2.1818    1.4193    0.1473 H   0  0  0  0  0  0  0  0  0  0  0  0
  1  2  1  0
  2  3  1  0
  2  4  1  0
  4  5  1  0
  5  6  1  0
  6  7  1  0
  7  8  1  0
  8  6  1  0
  1  9  1  0
  1 10  1  0
  1 11  1  0
  2 12  1  0
  3 13  1  0
  3 14  1  0
  3 15  1  0
  5 16  1  0
  5 17  1  0
  6 18  1  0
  7 19  1  0
  7 20  1  0
M  END
