
     RDKit          3D

 21 21  0  0  0  0  0  0  0  0999 V2000
   -1.4501    0.8505    0.8473 C   0  0  0  0  0  0  0  0  0  0  0  0
   -0.7611   -0.0572   -0.1298 C   0  0  0  0  0  0  0  0  0  0  0  0
   -1.5555   -1.3630   -0.2811 C   0  0  0  0  0  0  0  0  0  0  0  0
   -0.6348    0.6265   -1.4662 C   0  0  0  0  0  0  0  0  0  0  0  0
    0.6164   -0.4670    0.3312 C   0  0  0  0  0  0  0  0  0  0  0  0
    1.3803   -1.2984   -0.4564 O   0  0  0  0  0  0  0  0  0  0  0  0
    1.7349    0.1625   -0.3292 C   0  0  0  0  0  0  0  0  0  0  0  0
    3.0963    0.2354    0.2353 C   0  0  0  0  0  0  0  0  0  0  0  0
    3.9569    0.8357   -0.3801 O   0  0  0  0  0  0  0  0  0  0  0  0
   -2.4924    0.9883    0.4907 H   0  0  0  0  0  0  0  0  0  0  0  0
   -1.4009    0.4915    1.8787 H   0  0  0  0  0  0  0  0  0  0  0  0
   -0.9707    1.8500    0.7941 H   0  0  0  0  0  0  0  0  0  0  0  0
   -2.6396   -1.1756   -0.2354 H   0  0  0  0  0  0  0  0  0  0  0  0
   -1.2365   -1.8892   -1.1967 H   0  0  0  0  0  0  0  0  0  0  0  0
   -1.2483   -1.9910    0.5868 H   0  0  0  0  0  0  0  0  0  0  0  0
   -0.0856   -0.0056   -2.1958 H   0  0  0  0  0  0  0  0  0  0  0  0
   -1.6631    0.8075   -1.8918 H   0  0  0  0  0  0  0  0  0  0  0  0
   -0.1876    1.6288   -1.3969 H   0  0  0  0  0  0  0  0  0  0  0  0
    0.6702   -0.6489    1.4427 H   0  0  0  0  0  0  0  0  0  0  0  0
    1.5965    0.6726   -1.2947 H   0  0  0  0  0  0  0  0  0  0  0  0
    3.2746   -0.2535    1.1837 H   0  0  0  0  0  0  0  0  0  0  0  0
  1  2  1  0
  2  3  1  0
  2  4  1  0
  2  5  1  0
  5  6  1  0
  6  7  1  0
  7  8  1  0
  8  9  2  0
  7  5  1  0
  1 10  1  0
  1 11  1  0
  1 12  1  0
  3 13  1  0
  3 14  1  0
  3 15  1  0
  4 16  1  0
  4 17  1  0
  4 18  1  0
  5 19  1  0
  7 20  1  0
  8 21  1  0
M  END
