
     RDKit          3D

 21 21  0  0  0  0  0  0  0  0999 V2000
   -1.9765   -1.1635    0.4920 C   0  0  0  0  0  0  0  0  0  0  0  0
   -1.1225    0.0851    0.4129 C   0  0  0  0  0  0  0  0  0  0  0  0
   -2.0562    1.2028    0.0923 C   0  0  0  0  0  0  0  0  0  0  0  0
   -2.5428    1.3092   -1.0016 O   0  0  0  0  0  0  0  0  0  0  0  0
   -0.1528   -0.0198   -0.7285 C   0  0  0  0  0  0  0  0  0  0  0  0
    0.8000    1.1405   -0.9774 C   0  0  0  0  0  0  0  0  0  0  0  0
    1.2772   -0.2610   -0.5686 C   0  0  0  0  0  0  0  0  0  0  0  0
    2.0062   -0.2913    0.7181 C   0  0  0  0  0  0  0  0  0  0  0  0
    3.3551   -0.5477    0.4772 O   0  0  0  0  0  0  0  0  0  0  0  0
   -1.5630   -1.9312    1.1548 H   0  0  0  0  0  0  0  0  0  0  0  0
   -2.0946   -1.5675   -0.5476 H   0  0  0  0  0  0  0  0  0  0  0  0
   -3.0151   -0.9325    0.8300 H   0  0  0  0  0  0  0  0  0  0  0  0
   -0.6519    0.2183    1.3949 H   0  0  0  0  0  0  0  0  0  0  0  0
   -2.2932    1.9212    0.8565 H   0  0  0  0  0  0  0  0  0  0  0  0
   -0.6257   -0.3955   -1.6595 H   0  0  0  0  0  0  0  0  0  0  0  0
    0.9927    1.4641   -2.0145 H   0  0  0  0  0  0  0  0  0  0  0  0
    0.7797    1.9247   -0.2111 H   0  0  0  0  0  0  0  0  0  0  0  0
    1.7937   -0.8221   -1.4018 H   0  0  0  0  0  0  0  0  0  0  0  0
    1.6460   -1.0939    1.4143 H   0  0  0  0  0  0  0  0  0  0  0  0
    1.9632    0.6457    1.3032 H   0  0  0  0  0  0  0  0  0  0  0  0
    3.4807   -0.8856   -0.4479 H   0  0  0  0  0  0  0  0  0  0  0  0
  1  2  1  0
  2  3  1  0
  3  4  2  0
  2  5  1  0
  5  6  1  0
  6  7  1  0
  7  8  1  0
  8  9  1  0
  7  5  1  0
  1 10  1  0
  1 11  1  0
  1 12  1  0
  2 13  1  0
  3 14  1  0
  5 15  1  0
  6 16  1  0
  6 17  1  0
  7 18  1  0
  8 19  1  0
  8 20  1  0
  9 21  1  0
M  END
