
     RDKit          3D

 23 24  0  0  0  0  0  0  0  0999 V2000
   -2.5903    0.9734    0.0940 C   0  0  0  0  0  0  0  0  0  0  0  0
   -1.4167    0.1617   -0.4145 C   0  0  0  0  0  0  0  0  0  0  0  0
   -1.8173   -1.2768   -0.4471 C   0  0  0  0  0  0  0  0  0  0  0  0
   -0.2437    0.4390    0.4852 C   0  0  0  0  0  0  0  0  0  0  0  0
    0.9963   -0.3055    0.0942 C   0  0  0  0  0  0  0  0  0  0  0  0
    2.1387   -0.0036    1.0116 C   0  0  0  0  0  0  0  0  0  0  0  0
    3.0672   -0.3892   -0.0987 C   0  0  0  0  0  0  0  0  0  0  0  0
    2.0019    0.4855   -0.6717 C   0  0  0  0  0  0  0  0  0  0  0  0
    2.1409    1.2690    0.4672 O   0  0  0  0  0  0  0  0  0  0  0  0
   -2.9806    0.5781    1.0528 H   0  0  0  0  0  0  0  0  0  0  0  0
   -3.4419    0.9826   -0.6148 H   0  0  0  0  0  0  0  0  0  0  0  0
   -2.2492    2.0091    0.2904 H   0  0  0  0  0  0  0  0  0  0  0  0
   -1.2400    0.4886   -1.4599 H   0  0  0  0  0  0  0  0  0  0  0  0
   -2.9116   -1.3107   -0.6921 H   0  0  0  0  0  0  0  0  0  0  0  0
   -1.3223   -1.8544   -1.2637 H   0  0  0  0  0  0  0  0  0  0  0  0
   -1.7078   -1.8036    0.5191 H   0  0  0  0  0  0  0  0  0  0  0  0
   -0.5231    0.1913    1.5159 H   0  0  0  0  0  0  0  0  0  0  0  0
   -0.0448    1.5425    0.4120 H   0  0  0  0  0  0  0  0  0  0  0  0
    0.8752   -1.3411   -0.2341 H   0  0  0  0  0  0  0  0  0  0  0  0
    2.2210   -0.2491    1.9846 H   0  0  0  0  0  0  0  0  0  0  0  0
    3.0398   -1.4544   -0.3307 H   0  0  0  0  0  0  0  0  0  0  0  0
    4.0793    0.0485   -0.0786 H   0  0  0  0  0  0  0  0  0  0  0  0
    1.9288    0.8191   -1.6211 H   0  0  0  0  0  0  0  0  0  0  0  0
  1  2  1  0
  2  3  1  0
  2  4  1  0
  4  5  1  0
  5  6  1  0
  6  7  1  0
  7  8  1  0
  8  9  1  0
  8  5  1  0
  9  6  1  0
  1 10  1  0
  1 11  1  0
  1 12  1  0
  2 13  1  0
  3 14  1  0
  3 15  1  0
  3 16  1  0
  4 17  1  0
  4 18  1  0
  5 19  1  0
  6 20  1  0
  7 21  1  0
  7 22  1  0
  8 23  1  0
M  END
