
     RDKit          3D

 21 21  0  0  0  0  0  0  0  0999 V2000
   -1.8672    1.1835   -0.2010 C   0  0  0  0  0  0  0  0  0  0  0  0
   -1.3503   -0.0138    0.4994 C   0  0  0  0  0  0  0  0  0  0  0  0
   -1.4746   -1.2686   -0.2655 C   0  0  0  0  0  0  0  0  0  0  0  0
    0.0271    0.2703    0.9734 C   0  0  0  0  0  0  0  0  0  0  0  0
    0.2113    0.8086    1.9853 O   0  0  0  0  0  0  0  0  0  0  0  0
    1.2503   -0.0912    0.1509 C   0  0  0  0  0  0  0  0  0  0  0  0
    1.3412    0.2063   -1.3018 C   0  0  0  0  0  0  0  0  0  0  0  0
    2.4823   -0.3416    0.9742 C   0  0  0  0  0  0  0  0  0  0  0  0
    1.7752   -1.3865    0.4584 O   0  0  0  0  0  0  0  0  0  0  0  0
   -1.4302    2.1039    0.3102 H   0  0  0  0  0  0  0  0  0  0  0  0
   -2.9866    1.3314    0.0288 H   0  0  0  0  0  0  0  0  0  0  0  0
   -1.6989    1.2818   -1.2563 H   0  0  0  0  0  0  0  0  0  0  0  0
   -1.9574   -0.1645    1.4536 H   0  0  0  0  0  0  0  0  0  0  0  0
   -2.5166   -1.3943   -0.6523 H   0  0  0  0  0  0  0  0  0  0  0  0
   -0.7486   -1.3192   -1.0853 H   0  0  0  0  0  0  0  0  0  0  0  0
   -1.2882   -2.1298    0.3820 H   0  0  0  0  0  0  0  0  0  0  0  0
    0.7029    1.0969   -1.5605 H   0  0  0  0  0  0  0  0  0  0  0  0
    2.4123    0.6363   -1.5156 H   0  0  0  0  0  0  0  0  0  0  0  0
    1.2770   -0.6036   -2.0246 H   0  0  0  0  0  0  0  0  0  0  0  0
    2.4035   -0.2260    2.0867 H   0  0  0  0  0  0  0  0  0  0  0  0
    3.4352    0.0199    0.5601 H   0  0  0  0  0  0  0  0  0  0  0  0
  1  2  1  0
  2  3  1  0
  2  4  1  0
  4  5  2  0
  4  6  1  0
  6  7  1  0
  6  8  1  0
  8  9  1  0
  9  6  1  0
  1 10  1  0
  1 11  1  0
  1 12  1  0
  2 13  1  0
  3 14  1  0
  3 15  1  0
  3 16  1  0
  7 17  1  0
  7 18  1  0
  7 19  1  0
  8 20  1  0
  8 21  1  0
M  END
