
     RDKit          3D

 21 20  0  0  0  0  0  0  0  0999 V2000
    1.0152   -0.0508   -1.4724 C   0  0  0  0  0  0  0  0  0  0  0  0
    0.7223    0.2609   -0.0296 C   0  0  0  0  0  0  0  0  0  0  0  0
    1.7790   -0.3159    0.8828 C   0  0  0  0  0  0  0  0  0  0  0  0
    0.7579    1.6365    0.1358 O   0  0  0  0  0  0  0  0  0  0  0  0
   -0.6553   -0.2625    0.2768 C   0  0  0  0  0  0  0  0  0  0  0  0
   -1.6178    0.3754   -0.7343 C   0  0  0  0  0  0  0  0  0  0  0  0
   -0.6429   -1.6424    0.0874 O   0  0  0  0  0  0  0  0  0  0  0  0
   -1.1156    0.0364    1.6303 C   0  0  0  0  0  0  0  0  0  0  0  0
   -1.4091   -0.8789    2.3735 O   0  0  0  0  0  0  0  0  0  0  0  0
    1.7308    0.6807   -1.9053 H   0  0  0  0  0  0  0  0  0  0  0  0
    0.0570   -0.1032   -2.0224 H   0  0  0  0  0  0  0  0  0  0  0  0
    1.4305   -1.0900   -1.4946 H   0  0  0  0  0  0  0  0  0  0  0  0
    2.7200    0.2524    0.6853 H   0  0  0  0  0  0  0  0  0  0  0  0
    2.0092   -1.3702    0.6480 H   0  0  0  0  0  0  0  0  0  0  0  0
    1.4841   -0.1457    1.9248 H   0  0  0  0  0  0  0  0  0  0  0  0
   -0.0969    1.9154    0.5393 H   0  0  0  0  0  0  0  0  0  0  0  0
   -2.5677    0.6427   -0.1860 H   0  0  0  0  0  0  0  0  0  0  0  0
   -1.9014   -0.3372   -1.5338 H   0  0  0  0  0  0  0  0  0  0  0  0
   -1.2007    1.2682   -1.2042 H   0  0  0  0  0  0  0  0  0  0  0  0
   -1.2895   -1.9183   -0.6088 H   0  0  0  0  0  0  0  0  0  0  0  0
   -1.2090    1.0466    2.0075 H   0  0  0  0  0  0  0  0  0  0  0  0
  1  2  1  0
  2  3  1  0
  2  4  1  0
  2  5  1  0
  5  6  1  0
  5  7  1  0
  5  8  1  0
  8  9  2  0
  1 10  1  0
  1 11  1  0
  1 12  1  0
  3 13  1  0
  3 14  1  0
  3 15  1  0
  4 16  1  0
  6 17  1  0
  6 18  1  0
  6 19  1  0
  7 20  1  0
  8 21  1  0
M  END
