
     RDKit          3D

 21 20  0  0  0  0  0  0  0  0999 V2000
   -0.9518   -0.2458    1.4800 C   0  0  0  0  0  0  0  0  0  0  0  0
   -0.5630    0.0382    0.0441 C   0  0  0  0  0  0  0  0  0  0  0  0
   -1.6543   -0.4639   -0.8814 C   0  0  0  0  0  0  0  0  0  0  0  0
   -0.4374    1.5322   -0.1002 C   0  0  0  0  0  0  0  0  0  0  0  0
   -0.0801    1.9040   -1.3947 O   0  0  0  0  0  0  0  0  0  0  0  0
    0.6963   -0.6923   -0.2962 C   0  0  0  0  0  0  0  0  0  0  0  0
    1.7910   -0.3255    0.5149 O   0  0  0  0  0  0  0  0  0  0  0  0
    3.0228   -0.9296    0.3041 C   0  0  0  0  0  0  0  0  0  0  0  0
    3.1721   -1.7927   -0.5941 O   0  0  0  0  0  0  0  0  0  0  0  0
   -1.6406   -1.1134    1.5105 H   0  0  0  0  0  0  0  0  0  0  0  0
    0.0065   -0.4527    2.0202 H   0  0  0  0  0  0  0  0  0  0  0  0
   -1.3849    0.6612    1.9590 H   0  0  0  0  0  0  0  0  0  0  0  0
   -2.4622   -0.9634   -0.3014 H   0  0  0  0  0  0  0  0  0  0  0  0
   -1.2705   -1.2372   -1.5966 H   0  0  0  0  0  0  0  0  0  0  0  0
   -2.1181    0.3544   -1.4630 H   0  0  0  0  0  0  0  0  0  0  0  0
    0.2811    1.9095    0.6603 H   0  0  0  0  0  0  0  0  0  0  0  0
   -1.4256    1.9652    0.1652 H   0  0  0  0  0  0  0  0  0  0  0  0
   -0.2733    2.8689   -1.5123 H   0  0  0  0  0  0  0  0  0  0  0  0
    0.9366   -0.6263   -1.3767 H   0  0  0  0  0  0  0  0  0  0  0  0
    0.5111   -1.7759   -0.0980 H   0  0  0  0  0  0  0  0  0  0  0  0
    3.8442   -0.6148    0.9564 H   0  0  0  0  0  0  0  0  0  0  0  0
  1  2  1  0
  2  3  1  0
  2  4  1  0
  4  5  1  0
  2  6  1  0
  6  7  1  0
  7  8  1  0
  8  9  2  0
  1 10  1  0
  1 11  1  0
  1 12  1  0
  3 13  1  0
  3 14  1  0
  3 15  1  0
  4 16  1  0
  4 17  1  0
  5 18  1  0
  6 19  1  0
  6 20  1  0
  8 21  1  0
M  END
