
     RDKit          3D

 25 25  0  0  0  0  0  0  0  0999 V2000
   -2.1237   -0.7134    0.9841 C   0  0  0  0  0  0  0  0  0  0  0  0
   -1.5699    0.4334    0.2141 C   0  0  0  0  0  0  0  0  0  0  0  0
   -2.1613    0.5497   -1.1588 C   0  0  0  0  0  0  0  0  0  0  0  0
   -0.0790    0.4274    0.0883 C   0  0  0  0  0  0  0  0  0  0  0  0
    0.6262    0.4747    1.3891 C   0  0  0  0  0  0  0  0  0  0  0  0
    1.9445    0.3175    1.3164 C   0  0  0  0  0  0  0  0  0  0  0  0
    2.7109    0.1091    0.0809 C   0  0  0  0  0  0  0  0  0  0  0  0
    1.8875   -0.4101   -1.0616 C   0  0  0  0  0  0  0  0  0  0  0  0
    0.4663   -0.7261   -0.6801 C   0  0  0  0  0  0  0  0  0  0  0  0
   -3.0833   -0.3990    1.4568 H   0  0  0  0  0  0  0  0  0  0  0  0
   -2.3996   -1.5358    0.2780 H   0  0  0  0  0  0  0  0  0  0  0  0
   -1.4551   -1.0858    1.7795 H   0  0  0  0  0  0  0  0  0  0  0  0
   -1.8455    1.3725    0.7638 H   0  0  0  0  0  0  0  0  0  0  0  0
   -1.5974    1.3697   -1.6896 H   0  0  0  0  0  0  0  0  0  0  0  0
   -2.0958   -0.3516   -1.7671 H   0  0  0  0  0  0  0  0  0  0  0  0
   -3.2141    0.9134   -1.0355 H   0  0  0  0  0  0  0  0  0  0  0  0
    0.2027    1.3629   -0.4677 H   0  0  0  0  0  0  0  0  0  0  0  0
    0.1120    0.6269    2.3454 H   0  0  0  0  0  0  0  0  0  0  0  0
    2.5060    0.3468    2.2579 H   0  0  0  0  0  0  0  0  0  0  0  0
    3.1921    1.0588   -0.2770 H   0  0  0  0  0  0  0  0  0  0  0  0
    3.5249   -0.6092    0.3167 H   0  0  0  0  0  0  0  0  0  0  0  0
    2.3526   -1.3351   -1.4578 H   0  0  0  0  0  0  0  0  0  0  0  0
    1.8451    0.3002   -1.9182 H   0  0  0  0  0  0  0  0  0  0  0  0
    0.3671   -1.6893   -0.1370 H   0  0  0  0  0  0  0  0  0  0  0  0
   -0.1129   -0.8076   -1.6206 H   0  0  0  0  0  0  0  0  0  0  0  0
  1  2  1  0
  2  3  1  0
  2  4  1  0
  4  5  1  0
  5  6  2  0
  6  7  1  0
  7  8  1  0
  8  9  1  0
  9  4  1  0
  1 10  1  0
  1 11  1  0
  1 12  1  0
  2 13  1  0
  3 14  1  0
  3 15  1  0
  3 16  1  0
  4 17  1  0
  5 18  1  0
  6 19  1  0
  7 20  1  0
  7 21  1  0
  8 22  1  0
  8 23  1  0
  9 24  1  0
  9 25  1  0
M  END
