
     RDKit          3D

 25 25  0  0  0  0  0  0  0  0999 V2000
   -1.9174    1.3822    0.3457 C   0  0  0  0  0  0  0  0  0  0  0  0
   -1.3734    0.1024   -0.3158 C   0  0  0  0  0  0  0  0  0  0  0  0
   -2.0064   -1.0368    0.5051 C   0  0  0  0  0  0  0  0  0  0  0  0
   -2.0425    0.0005   -1.5363 O   0  0  0  0  0  0  0  0  0  0  0  0
    0.0442    0.0951   -0.4352 C   0  0  0  0  0  0  0  0  0  0  0  0
    0.4962    0.1924    0.9370 C   0  0  0  0  0  0  0  0  0  0  0  0
    1.4094   -0.0305   -0.0345 C   0  0  0  0  0  0  0  0  0  0  0  0
    2.0275   -1.4342   -0.2027 C   0  0  0  0  0  0  0  0  0  0  0  0
    2.5045    1.0345   -0.2163 C   0  0  0  0  0  0  0  0  0  0  0  0
   -2.9764    1.5421    0.0365 H   0  0  0  0  0  0  0  0  0  0  0  0
   -1.9407    1.2040    1.4444 H   0  0  0  0  0  0  0  0  0  0  0  0
   -1.3043    2.2563    0.0710 H   0  0  0  0  0  0  0  0  0  0  0  0
   -1.5815   -2.0164    0.2177 H   0  0  0  0  0  0  0  0  0  0  0  0
   -1.9170   -0.8300    1.5883 H   0  0  0  0  0  0  0  0  0  0  0  0
   -3.0978   -1.0708    0.2886 H   0  0  0  0  0  0  0  0  0  0  0  0
   -2.0790   -0.9556   -1.8352 H   0  0  0  0  0  0  0  0  0  0  0  0
    0.2615    0.5151   -1.4202 H   0  0  0  0  0  0  0  0  0  0  0  0
    0.2062   -0.6652    1.6098 H   0  0  0  0  0  0  0  0  0  0  0  0
    0.4730    1.1418    1.5349 H   0  0  0  0  0  0  0  0  0  0  0  0
    2.7110   -1.4562   -1.0692 H   0  0  0  0  0  0  0  0  0  0  0  0
    1.2346   -2.1957   -0.2728 H   0  0  0  0  0  0  0  0  0  0  0  0
    2.6499   -1.6200    0.6999 H   0  0  0  0  0  0  0  0  0  0  0  0
    3.3001    0.8494    0.5054 H   0  0  0  0  0  0  0  0  0  0  0  0
    2.8680    0.9517   -1.2612 H   0  0  0  0  0  0  0  0  0  0  0  0
    2.0502    2.0441   -0.0748 H   0  0  0  0  0  0  0  0  0  0  0  0
  1  2  1  0
  2  3  1  0
  2  4  1  0
  2  5  1  0
  5  6  1  0
  6  7  1  0
  7  8  1  0
  7  9  1  0
  7  5  1  0
  1 10  1  0
  1 11  1  0
  1 12  1  0
  3 13  1  0
  3 14  1  0
  3 15  1  0
  4 16  1  0
  5 17  1  0
  6 18  1  0
  6 19  1  0
  8 20  1  0
  8 21  1  0
  8 22  1  0
  9 23  1  0
  9 24  1  0
  9 25  1  0
M  END
