
     RDKit          3D

 21 21  0  0  0  0  0  0  0  0999 V2000
   -1.4975    0.7047   -0.9205 C   0  0  0  0  0  0  0  0  0  0  0  0
   -0.9641   -0.5709   -0.3780 C   0  0  0  0  0  0  0  0  0  0  0  0
   -1.7983   -0.9497    0.8509 C   0  0  0  0  0  0  0  0  0  0  0  0
    0.4599   -0.5363    0.0535 C   0  0  0  0  0  0  0  0  0  0  0  0
    0.7444    0.4661    1.1458 C   0  0  0  0  0  0  0  0  0  0  0  0
    2.1602    0.4302    1.1438 O   0  0  0  0  0  0  0  0  0  0  0  0
    2.5073    0.5634   -0.2018 C   0  0  0  0  0  0  0  0  0  0  0  0
    1.4081   -0.0818   -0.9701 C   0  0  0  0  0  0  0  0  0  0  0  0
    1.3652   -0.1779   -2.1719 O   0  0  0  0  0  0  0  0  0  0  0  0
   -1.3427    0.7611   -2.0361 H   0  0  0  0  0  0  0  0  0  0  0  0
   -1.1108    1.6191   -0.4639 H   0  0  0  0  0  0  0  0  0  0  0  0
   -2.6124    0.6845   -0.8025 H   0  0  0  0  0  0  0  0  0  0  0  0
   -1.0974   -1.3839   -1.0962 H   0  0  0  0  0  0  0  0  0  0  0  0
   -2.8044   -1.2365    0.5098 H   0  0  0  0  0  0  0  0  0  0  0  0
   -1.7813   -0.1416    1.5930 H   0  0  0  0  0  0  0  0  0  0  0  0
   -1.3059   -1.8863    1.2442 H   0  0  0  0  0  0  0  0  0  0  0  0
    0.7555   -1.5527    0.3691 H   0  0  0  0  0  0  0  0  0  0  0  0
    0.3484    0.1607    2.1119 H   0  0  0  0  0  0  0  0  0  0  0  0
    0.4629    1.4759    0.8246 H   0  0  0  0  0  0  0  0  0  0  0  0
    3.4795    0.0142   -0.3686 H   0  0  0  0  0  0  0  0  0  0  0  0
    2.6234    1.6378   -0.4370 H   0  0  0  0  0  0  0  0  0  0  0  0
  1  2  1  0
  2  3  1  0
  2  4  1  0
  4  5  1  0
  5  6  1  0
  6  7  1  0
  7  8  1  0
  8  9  2  0
  8  4  1  0
  1 10  1  0
  1 11  1  0
  1 12  1  0
  2 13  1  0
  3 14  1  0
  3 15  1  0
  3 16  1  0
  4 17  1  0
  5 18  1  0
  5 19  1  0
  7 20  1  0
  7 21  1  0
M  END
