
     RDKit          3D

 21 21  0  0  0  0  0  0  0  0999 V2000
    1.4029   -1.2325    0.3789 C   0  0  0  0  0  0  0  0  0  0  0  0
    0.7349    0.1014    0.3831 C   0  0  0  0  0  0  0  0  0  0  0  0
    1.8630    1.1444    0.3555 C   0  0  0  0  0  0  0  0  0  0  0  0
   -0.1093    0.3597   -0.8357 C   0  0  0  0  0  0  0  0  0  0  0  0
   -0.6871    1.6379   -0.7254 O   0  0  0  0  0  0  0  0  0  0  0  0
   -1.7882    1.0653   -0.0984 C   0  0  0  0  0  0  0  0  0  0  0  0
   -1.4766   -0.2171   -0.8472 C   0  0  0  0  0  0  0  0  0  0  0  0
   -1.7313   -1.4304   -0.0878 C   0  0  0  0  0  0  0  0  0  0  0  0
   -2.3917   -1.3913    0.9263 O   0  0  0  0  0  0  0  0  0  0  0  0
    1.0072   -1.9369   -0.3696 H   0  0  0  0  0  0  0  0  0  0  0  0
    2.5060   -1.1832    0.2000 H   0  0  0  0  0  0  0  0  0  0  0  0
    1.2762   -1.7019    1.3655 H   0  0  0  0  0  0  0  0  0  0  0  0
    0.1952    0.2750    1.3220 H   0  0  0  0  0  0  0  0  0  0  0  0
    2.7530    0.7327   -0.2046 H   0  0  0  0  0  0  0  0  0  0  0  0
    2.1261    1.4629    1.3759 H   0  0  0  0  0  0  0  0  0  0  0  0
    1.5523    2.0419   -0.2134 H   0  0  0  0  0  0  0  0  0  0  0  0
    0.4851    0.3042   -1.7517 H   0  0  0  0  0  0  0  0  0  0  0  0
   -1.6964    0.9776    1.0044 H   0  0  0  0  0  0  0  0  0  0  0  0
   -2.7477    1.5367   -0.3478 H   0  0  0  0  0  0  0  0  0  0  0  0
   -1.9238   -0.1591   -1.8575 H   0  0  0  0  0  0  0  0  0  0  0  0
   -1.3500   -2.3873   -0.3934 H   0  0  0  0  0  0  0  0  0  0  0  0
  1  2  1  0
  2  3  1  0
  2  4  1  0
  4  5  1  0
  5  6  1  0
  6  7  1  0
  7  8  1  0
  8  9  2  0
  7  4  1  0
  1 10  1  0
  1 11  1  0
  1 12  1  0
  2 13  1  0
  3 14  1  0
  3 15  1  0
  3 16  1  0
  4 17  1  0
  6 18  1  0
  6 19  1  0
  7 20  1  0
  8 21  1  0
M  END
