
     RDKit          3D

 19 19  0  0  0  0  0  0  0  0999 V2000
   -1.2934   -0.4345   -1.1001 C   0  0  0  0  0  0  0  0  0  0  0  0
   -0.8033    0.4602   -0.0112 C   0  0  0  0  0  0  0  0  0  0  0  0
   -1.6030    0.1598    1.2217 C   0  0  0  0  0  0  0  0  0  0  0  0
   -2.3386    0.9798    1.7350 O   0  0  0  0  0  0  0  0  0  0  0  0
    0.6339    0.3001    0.3285 C   0  0  0  0  0  0  0  0  0  0  0  0
    1.0096    1.1662    1.3481 O   0  0  0  0  0  0  0  0  0  0  0  0
    1.6239    0.3323   -0.7851 C   0  0  0  0  0  0  0  0  0  0  0  0
    2.4071   -0.5816   -0.0404 O   0  0  0  0  0  0  0  0  0  0  0  0
    1.1761   -1.0828    0.4463 C   0  0  0  0  0  0  0  0  0  0  0  0
   -1.5650   -1.4609   -0.7134 H   0  0  0  0  0  0  0  0  0  0  0  0
   -0.6590   -0.4824   -1.9884 H   0  0  0  0  0  0  0  0  0  0  0  0
   -2.2836   -0.0204   -1.4539 H   0  0  0  0  0  0  0  0  0  0  0  0
   -0.9874    1.5218   -0.2688 H   0  0  0  0  0  0  0  0  0  0  0  0
   -1.5299   -0.8291    1.6846 H   0  0  0  0  0  0  0  0  0  0  0  0
    0.6999    2.0747    1.1471 H   0  0  0  0  0  0  0  0  0  0  0  0
    2.1298    1.3149   -0.9437 H   0  0  0  0  0  0  0  0  0  0  0  0
    1.3399   -0.1683   -1.7309 H   0  0  0  0  0  0  0  0  0  0  0  0
    1.2907   -1.4971    1.4503 H   0  0  0  0  0  0  0  0  0  0  0  0
    0.7524   -1.7525   -0.3255 H   0  0  0  0  0  0  0  0  0  0  0  0
  1  2  1  0
  2  3  1  0
  3  4  2  0
  2  5  1  0
  5  6  1  0
  5  7  1  0
  7  8  1  0
  8  9  1  0
  9  5  1  0
  1 10  1  0
  1 11  1  0
  1 12  1  0
  2 13  1  0
  3 14  1  0
  6 15  1  0
  7 16  1  0
  7 17  1  0
  9 18  1  0
  9 19  1  0
M  END
