
     RDKit          3D

 23 22  0  0  0  0  0  0  0  0999 V2000
   -2.7762   -1.0050    0.0613 C   0  0  0  0  0  0  0  0  0  0  0  0
   -1.4024   -0.4389    0.3966 C   0  0  0  0  0  0  0  0  0  0  0  0
   -1.6269    0.8493    1.1370 C   0  0  0  0  0  0  0  0  0  0  0  0
   -0.7247   -0.1854   -0.9539 C   0  0  0  0  0  0  0  0  0  0  0  0
    0.6802    0.3913   -0.7377 C   0  0  0  0  0  0  0  0  0  0  0  0
    1.4510   -0.4775   -0.0201 O   0  0  0  0  0  0  0  0  0  0  0  0
    2.7319   -0.1010    0.2553 C   0  0  0  0  0  0  0  0  0  0  0  0
    3.6065    0.1357   -0.9077 C   0  0  0  0  0  0  0  0  0  0  0  0
    3.2125   -0.0113   -2.0348 O   0  0  0  0  0  0  0  0  0  0  0  0
   -2.6867   -2.0104   -0.4055 H   0  0  0  0  0  0  0  0  0  0  0  0
   -3.2444   -0.3000   -0.6586 H   0  0  0  0  0  0  0  0  0  0  0  0
   -3.4351   -1.0629    0.9317 H   0  0  0  0  0  0  0  0  0  0  0  0
   -0.7959   -1.1403    0.9988 H   0  0  0  0  0  0  0  0  0  0  0  0
   -2.3522    0.6316    1.9549 H   0  0  0  0  0  0  0  0  0  0  0  0
   -0.7109    1.2244    1.6311 H   0  0  0  0  0  0  0  0  0  0  0  0
   -2.1046    1.5888    0.4796 H   0  0  0  0  0  0  0  0  0  0  0  0
   -1.3197    0.5985   -1.4486 H   0  0  0  0  0  0  0  0  0  0  0  0
   -0.6427   -1.0910   -1.5443 H   0  0  0  0  0  0  0  0  0  0  0  0
    1.0386    0.6936   -1.7162 H   0  0  0  0  0  0  0  0  0  0  0  0
    0.5748    1.3268   -0.1291 H   0  0  0  0  0  0  0  0  0  0  0  0
    3.1727   -0.9266    0.8918 H   0  0  0  0  0  0  0  0  0  0  0  0
    2.7353    0.8636    0.8352 H   0  0  0  0  0  0  0  0  0  0  0  0
    4.6188    0.4468   -0.7345 H   0  0  0  0  0  0  0  0  0  0  0  0
  1  2  1  0
  2  3  1  0
  2  4  1  0
  4  5  1  0
  5  6  1  0
  6  7  1  0
  7  8  1  0
  8  9  2  0
  1 10  1  0
  1 11  1  0
  1 12  1  0
  2 13  1  0
  3 14  1  0
  3 15  1  0
  3 16  1  0
  4 17  1  0
  4 18  1  0
  5 19  1  0
  5 20  1  0
  7 21  1  0
  7 22  1  0
  8 23  1  0
M  END
