
     RDKit          3D

 23 23  0  0  0  0  0  0  0  0999 V2000
   -1.6461    0.8416    0.9154 C   0  0  0  0  0  0  0  0  0  0  0  0
   -0.8558    0.2949   -0.2784 C   0  0  0  0  0  0  0  0  0  0  0  0
   -1.6629   -0.7595   -0.9315 C   0  0  0  0  0  0  0  0  0  0  0  0
   -0.6563    1.3896   -1.1279 O   0  0  0  0  0  0  0  0  0  0  0  0
    0.4754   -0.1404    0.2336 C   0  0  0  0  0  0  0  0  0  0  0  0
    0.5264   -1.3830    1.0520 C   0  0  0  0  0  0  0  0  0  0  0  0
    1.6175   -0.0595   -0.7463 C   0  0  0  0  0  0  0  0  0  0  0  0
    2.1737    1.0592    0.1011 C   0  0  0  0  0  0  0  0  0  0  0  0
    1.0746    0.9129    0.9364 O   0  0  0  0  0  0  0  0  0  0  0  0
   -2.3141    0.0760    1.3476 H   0  0  0  0  0  0  0  0  0  0  0  0
   -0.9391    1.1861    1.7096 H   0  0  0  0  0  0  0  0  0  0  0  0
   -2.2454    1.7156    0.5989 H   0  0  0  0  0  0  0  0  0  0  0  0
   -2.0512   -0.3936   -1.9131 H   0  0  0  0  0  0  0  0  0  0  0  0
   -2.5932   -1.0044   -0.3403 H   0  0  0  0  0  0  0  0  0  0  0  0
   -1.1531   -1.7251   -1.0822 H   0  0  0  0  0  0  0  0  0  0  0  0
   -0.5656    1.0921   -2.0786 H   0  0  0  0  0  0  0  0  0  0  0  0
    0.3547   -1.2236    2.1377 H   0  0  0  0  0  0  0  0  0  0  0  0
    1.5639   -1.8259    0.9900 H   0  0  0  0  0  0  0  0  0  0  0  0
   -0.1500   -2.1819    0.7077 H   0  0  0  0  0  0  0  0  0  0  0  0
    1.3514    0.2306   -1.7723 H   0  0  0  0  0  0  0  0  0  0  0  0
    2.3261   -0.9135   -0.7329 H   0  0  0  0  0  0  0  0  0  0  0  0
    3.0973    0.7933    0.6787 H   0  0  0  0  0  0  0  0  0  0  0  0
    2.2718    2.0186   -0.4052 H   0  0  0  0  0  0  0  0  0  0  0  0
  1  2  1  0
  2  3  1  0
  2  4  1  0
  2  5  1  0
  5  6  1  0
  5  7  1  0
  7  8  1  0
  8  9  1  0
  9  5  1  0
  1 10  1  0
  1 11  1  0
  1 12  1  0
  3 13  1  0
  3 14  1  0
  3 15  1  0
  4 16  1  0
  6 17  1  0
  6 18  1  0
  6 19  1  0
  7 20  1  0
  7 21  1  0
  8 22  1  0
  8 23  1  0
M  END
