
     RDKit          3D

 25 25  0  0  0  0  0  0  0  0999 V2000
    1.2349    1.4118   -0.0691 C   0  0  0  0  0  0  0  0  0  0  0  0
    0.7401   -0.0372    0.0445 C   0  0  0  0  0  0  0  0  0  0  0  0
    1.4053   -0.8428   -1.0134 C   0  0  0  0  0  0  0  0  0  0  0  0
    1.0966   -0.5248    1.4332 C   0  0  0  0  0  0  0  0  0  0  0  0
   -0.7562    0.0044   -0.0517 C   0  0  0  0  0  0  0  0  0  0  0  0
   -1.3494    0.8351    1.0493 C   0  0  0  0  0  0  0  0  0  0  0  0
   -1.4612   -1.2971   -0.2243 C   0  0  0  0  0  0  0  0  0  0  0  0
   -1.5530   -1.1028   -1.5954 O   0  0  0  0  0  0  0  0  0  0  0  0
   -1.2503    0.2563   -1.4331 C   0  0  0  0  0  0  0  0  0  0  0  0
    1.5938    1.7860    0.9152 H   0  0  0  0  0  0  0  0  0  0  0  0
    2.0150    1.4960   -0.8648 H   0  0  0  0  0  0  0  0  0  0  0  0
    0.4201    2.0938   -0.3761 H   0  0  0  0  0  0  0  0  0  0  0  0
    2.1882   -1.5375   -0.5896 H   0  0  0  0  0  0  0  0  0  0  0  0
    1.9919   -0.1870   -1.7199 H   0  0  0  0  0  0  0  0  0  0  0  0
    0.7574   -1.4548   -1.6315 H   0  0  0  0  0  0  0  0  0  0  0  0
    0.3898   -1.3159    1.7840 H   0  0  0  0  0  0  0  0  0  0  0  0
    0.9647    0.3186    2.1550 H   0  0  0  0  0  0  0  0  0  0  0  0
    2.1089   -0.9634    1.4890 H   0  0  0  0  0  0  0  0  0  0  0  0
   -1.5217    0.1892    1.9343 H   0  0  0  0  0  0  0  0  0  0  0  0
   -2.3285    1.2510    0.7222 H   0  0  0  0  0  0  0  0  0  0  0  0
   -0.6495    1.6454    1.3772 H   0  0  0  0  0  0  0  0  0  0  0  0
   -2.5069   -1.2419    0.2012 H   0  0  0  0  0  0  0  0  0  0  0  0
   -0.9248   -2.1782    0.1221 H   0  0  0  0  0  0  0  0  0  0  0  0
   -2.1782    0.8398   -1.5273 H   0  0  0  0  0  0  0  0  0  0  0  0
   -0.4268    0.5559   -2.1310 H   0  0  0  0  0  0  0  0  0  0  0  0
  1  2  1  0
  2  3  1  0
  2  4  1  0
  2  5  1  0
  5  6  1  0
  5  7  1  0
  7  8  1  0
  8  9  1  0
  9  5  1  0
  1 10  1  0
  1 11  1  0
  1 12  1  0
  3 13  1  0
  3 14  1  0
  3 15  1  0
  4 16  1  0
  4 17  1  0
  4 18  1  0
  6 19  1  0
  6 20  1  0
  6 21  1  0
  7 22  1  0
  7 23  1  0
  9 24  1  0
  9 25  1  0
M  END
