
     RDKit          3D

 23 23  0  0  0  0  0  0  0  0999 V2000
   -2.2142   -1.3214   -0.0156 C   0  0  0  0  0  0  0  0  0  0  0  0
   -1.3293   -0.1726   -0.4368 C   0  0  0  0  0  0  0  0  0  0  0  0
   -1.5156    1.0276    0.4574 C   0  0  0  0  0  0  0  0  0  0  0  0
    0.0923   -0.5327   -0.6149 C   0  0  0  0  0  0  0  0  0  0  0  0
    0.9175   -1.0837    0.5015 C   0  0  0  0  0  0  0  0  0  0  0  0
    1.2874    0.1977   -0.2610 C   0  0  0  0  0  0  0  0  0  0  0  0
    1.4366    1.3540    0.6680 C   0  0  0  0  0  0  0  0  0  0  0  0
    2.4609    0.0753   -1.2149 C   0  0  0  0  0  0  0  0  0  0  0  0
    3.1385    1.0621   -1.3759 O   0  0  0  0  0  0  0  0  0  0  0  0
   -3.2074   -0.9035    0.2511 H   0  0  0  0  0  0  0  0  0  0  0  0
   -2.4080   -2.0133   -0.8736 H   0  0  0  0  0  0  0  0  0  0  0  0
   -1.8365   -1.9064    0.8119 H   0  0  0  0  0  0  0  0  0  0  0  0
   -1.7701    0.1455   -1.4337 H   0  0  0  0  0  0  0  0  0  0  0  0
   -0.9099    1.8913    0.1388 H   0  0  0  0  0  0  0  0  0  0  0  0
   -2.5837    1.4160    0.3792 H   0  0  0  0  0  0  0  0  0  0  0  0
   -1.4185    0.7822    1.5379 H   0  0  0  0  0  0  0  0  0  0  0  0
    0.2186   -1.2024   -1.5396 H   0  0  0  0  0  0  0  0  0  0  0  0
    1.6359   -1.9001    0.3525 H   0  0  0  0  0  0  0  0  0  0  0  0
    0.5740   -1.0107    1.5494 H   0  0  0  0  0  0  0  0  0  0  0  0
    0.8798    1.2993    1.6119 H   0  0  0  0  0  0  0  0  0  0  0  0
    1.4032    2.3559    0.1757 H   0  0  0  0  0  0  0  0  0  0  0  0
    2.5205    1.3101    1.0230 H   0  0  0  0  0  0  0  0  0  0  0  0
    2.6278   -0.8702   -1.6924 H   0  0  0  0  0  0  0  0  0  0  0  0
  1  2  1  0
  2  3  1  0
  2  4  1  0
  4  5  1  0
  5  6  1  0
  6  7  1  0
  6  8  1  0
  8  9  2  0
  6  4  1  0
  1 10  1  0
  1 11  1  0
  1 12  1  0
  2 13  1  0
  3 14  1  0
  3 15  1  0
  3 16  1  0
  4 17  1  0
  5 18  1  0
  5 19  1  0
  7 20  1  0
  7 21  1  0
  7 22  1  0
  8 23  1  0
M  END
