
     RDKit          3D

 25 26  0  0  0  0  0  0  0  0999 V2000
    0.4371    1.5963    0.7020 C   0  0  0  0  0  0  0  0  0  0  0  0
    0.1326    0.1165    0.7003 C   0  0  0  0  0  0  0  0  0  0  0  0
    1.3319   -0.6737    0.2956 C   0  0  0  0  0  0  0  0  0  0  0  0
    1.9987   -0.5156   -1.0088 C   0  0  0  0  0  0  0  0  0  0  0  0
    2.6356    0.0571    0.2319 C   0  0  0  0  0  0  0  0  0  0  0  0
   -1.1196   -0.2433   -0.0374 C   0  0  0  0  0  0  0  0  0  0  0  0
   -1.3848   -1.7554   -0.0123 C   0  0  0  0  0  0  0  0  0  0  0  0
   -1.6710    0.5254   -1.1404 C   0  0  0  0  0  0  0  0  0  0  0  0
   -2.3319    0.5717    0.2411 C   0  0  0  0  0  0  0  0  0  0  0  0
   -0.4085    2.2153    1.0340 H   0  0  0  0  0  0  0  0  0  0  0  0
    1.2244    1.7374    1.5021 H   0  0  0  0  0  0  0  0  0  0  0  0
    0.8181    1.9160   -0.2864 H   0  0  0  0  0  0  0  0  0  0  0  0
   -0.0680   -0.1376    1.7849 H   0  0  0  0  0  0  0  0  0  0  0  0
    1.4356   -1.7016    0.7508 H   0  0  0  0  0  0  0  0  0  0  0  0
    2.5567   -1.3667   -1.4427 H   0  0  0  0  0  0  0  0  0  0  0  0
    1.5944    0.1725   -1.7809 H   0  0  0  0  0  0  0  0  0  0  0  0
    3.5633   -0.4231    0.6253 H   0  0  0  0  0  0  0  0  0  0  0  0
    2.6990    1.1510    0.2270 H   0  0  0  0  0  0  0  0  0  0  0  0
   -2.4716   -1.9747   -0.0462 H   0  0  0  0  0  0  0  0  0  0  0  0
   -0.9986   -2.1898    0.9257 H   0  0  0  0  0  0  0  0  0  0  0  0
   -0.9189   -2.1839   -0.9208 H   0  0  0  0  0  0  0  0  0  0  0  0
   -2.2826    0.0335   -1.8938 H   0  0  0  0  0  0  0  0  0  0  0  0
   -1.1536    1.4353   -1.5071 H   0  0  0  0  0  0  0  0  0  0  0  0
   -3.3159    0.0698    0.3642 H   0  0  0  0  0  0  0  0  0  0  0  0
   -2.3022    1.5676    0.6919 H   0  0  0  0  0  0  0  0  0  0  0  0
  1  2  1  0
  2  3  1  0
  3  4  1  0
  4  5  1  0
  2  6  1  0
  6  7  1  0
  6  8  1  0
  8  9  1  0
  5  3  1  0
  9  6  1  0
  1 10  1  0
  1 11  1  0
  1 12  1  0
  2 13  1  0
  3 14  1  0
  4 15  1  0
  4 16  1  0
  5 17  1  0
  5 18  1  0
  7 19  1  0
  7 20  1  0
  7 21  1  0
  8 22  1  0
  8 23  1  0
  9 24  1  0
  9 25  1  0
M  END
