
     RDKit          3D

 25 26  0  0  0  0  0  0  0  0999 V2000
    1.5247   -0.6432   -1.4977 C   0  0  0  0  0  0  0  0  0  0  0  0
    1.2292   -0.4444   -0.0509 C   0  0  0  0  0  0  0  0  0  0  0  0
    2.1106    0.6778    0.4571 C   0  0  0  0  0  0  0  0  0  0  0  0
   -0.1915   -0.2640    0.2994 C   0  0  0  0  0  0  0  0  0  0  0  0
   -1.0427   -1.4494   -0.0944 C   0  0  0  0  0  0  0  0  0  0  0  0
   -2.1054   -0.4695   -0.5428 C   0  0  0  0  0  0  0  0  0  0  0  0
   -1.0633    0.6212   -0.4659 C   0  0  0  0  0  0  0  0  0  0  0  0
   -1.2568    1.4912    0.7445 C   0  0  0  0  0  0  0  0  0  0  0  0
   -0.5549    0.4055    1.5630 C   0  0  0  0  0  0  0  0  0  0  0  0
    2.0427    0.2645   -1.9269 H   0  0  0  0  0  0  0  0  0  0  0  0
    0.6352   -0.8801   -2.1140 H   0  0  0  0  0  0  0  0  0  0  0  0
    2.2416   -1.4791   -1.6774 H   0  0  0  0  0  0  0  0  0  0  0  0
    1.5976   -1.3700    0.4854 H   0  0  0  0  0  0  0  0  0  0  0  0
    1.7076    1.6200    0.0445 H   0  0  0  0  0  0  0  0  0  0  0  0
    2.1755    0.6835    1.5672 H   0  0  0  0  0  0  0  0  0  0  0  0
    3.1567    0.4948    0.0999 H   0  0  0  0  0  0  0  0  0  0  0  0
   -1.3374   -2.0956    0.7575 H   0  0  0  0  0  0  0  0  0  0  0  0
   -0.6303   -1.9923   -0.9608 H   0  0  0  0  0  0  0  0  0  0  0  0
   -2.8987   -0.4003    0.2537 H   0  0  0  0  0  0  0  0  0  0  0  0
   -2.4747   -0.6145   -1.5647 H   0  0  0  0  0  0  0  0  0  0  0  0
   -0.7559    1.0831   -1.3862 H   0  0  0  0  0  0  0  0  0  0  0  0
   -0.6726    2.4242    0.6562 H   0  0  0  0  0  0  0  0  0  0  0  0
   -2.3315    1.6139    0.9782 H   0  0  0  0  0  0  0  0  0  0  0  0
   -1.3240   -0.1224    2.1904 H   0  0  0  0  0  0  0  0  0  0  0  0
    0.2184    0.8453    2.1847 H   0  0  0  0  0  0  0  0  0  0  0  0
  1  2  1  0
  2  3  1  0
  2  4  1  0
  4  5  1  0
  5  6  1  0
  6  7  1  0
  7  8  1  0
  8  9  1  0
  7  4  1  0
  9  4  1  0
  1 10  1  0
  1 11  1  0
  1 12  1  0
  2 13  1  0
  3 14  1  0
  3 15  1  0
  3 16  1  0
  5 17  1  0
  5 18  1  0
  6 19  1  0
  6 20  1  0
  7 21  1  0
  8 22  1  0
  8 23  1  0
  9 24  1  0
  9 25  1  0
M  END
