
     RDKit          3D

 29 28  0  0  0  0  0  0  0  0999 V2000
    3.3615    1.0930    0.1707 C   0  0  0  0  0  0  0  0  0  0  0  0
    2.0143    0.5076   -0.2697 C   0  0  0  0  0  0  0  0  0  0  0  0
    2.3012   -0.5003   -1.3591 C   0  0  0  0  0  0  0  0  0  0  0  0
    1.3760   -0.1818    0.9031 C   0  0  0  0  0  0  0  0  0  0  0  0
    0.0451   -0.8008    0.5930 C   0  0  0  0  0  0  0  0  0  0  0  0
   -0.9101    0.2497    0.1345 C   0  0  0  0  0  0  0  0  0  0  0  0
   -2.2798   -0.3056   -0.1916 C   0  0  0  0  0  0  0  0  0  0  0  0
   -2.9264   -0.9689    0.9846 C   0  0  0  0  0  0  0  0  0  0  0  0
   -3.1393    0.8729   -0.6555 C   0  0  0  0  0  0  0  0  0  0  0  0
    3.2349    1.9373    0.8594 H   0  0  0  0  0  0  0  0  0  0  0  0
    3.9119    0.2803    0.7041 H   0  0  0  0  0  0  0  0  0  0  0  0
    3.9725    1.3478   -0.7172 H   0  0  0  0  0  0  0  0  0  0  0  0
    1.3662    1.3368   -0.6090 H   0  0  0  0  0  0  0  0  0  0  0  0
    2.9777   -1.2674   -0.8954 H   0  0  0  0  0  0  0  0  0  0  0  0
    2.8859   -0.0572   -2.1867 H   0  0  0  0  0  0  0  0  0  0  0  0
    1.3831   -0.9885   -1.7269 H   0  0  0  0  0  0  0  0  0  0  0  0
    2.1122   -0.9669    1.2470 H   0  0  0  0  0  0  0  0  0  0  0  0
    1.3252    0.5388    1.7489 H   0  0  0  0  0  0  0  0  0  0  0  0
    0.1858   -1.5872   -0.1779 H   0  0  0  0  0  0  0  0  0  0  0  0
   -0.3128   -1.2908    1.5317 H   0  0  0  0  0  0  0  0  0  0  0  0
   -0.9309    1.0876    0.8369 H   0  0  0  0  0  0  0  0  0  0  0  0
   -0.5211    0.6501   -0.8482 H   0  0  0  0  0  0  0  0  0  0  0  0
   -2.1470   -1.0312   -1.0248 H   0  0  0  0  0  0  0  0  0  0  0  0
   -2.4303   -0.7234    1.9442 H   0  0  0  0  0  0  0  0  0  0  0  0
   -3.9857   -0.6406    1.0837 H   0  0  0  0  0  0  0  0  0  0  0  0
   -2.9543   -2.0650    0.8129 H   0  0  0  0  0  0  0  0  0  0  0  0
   -2.4607    1.5343   -1.2348 H   0  0  0  0  0  0  0  0  0  0  0  0
   -3.4930    1.3983    0.2435 H   0  0  0  0  0  0  0  0  0  0  0  0
   -3.9623    0.5410   -1.3190 H   0  0  0  0  0  0  0  0  0  0  0  0
  1  2  1  0
  2  3  1  0
  2  4  1  0
  4  5  1  0
  5  6  1  0
  6  7  1  0
  7  8  1  0
  7  9  1  0
  1 10  1  0
  1 11  1  0
  1 12  1  0
  2 13  1  0
  3 14  1  0
  3 15  1  0
  3 16  1  0
  4 17  1  0
  4 18  1  0
  5 19  1  0
  5 20  1  0
  6 21  1  0
  6 22  1  0
  7 23  1  0
  8 24  1  0
  8 25  1  0
  8 26  1  0
  9 27  1  0
  9 28  1  0
  9 29  1  0
M  END
