
     RDKit          3D

 21 22  0  0  0  0  0  0  0  0999 V2000
    0.9385   -1.8359   -0.5320 C   0  0  0  0  0  0  0  0  0  0  0  0
    0.3525   -0.4694   -0.8465 C   0  0  0  0  0  0  0  0  0  0  0  0
    1.2552    0.6337   -0.4442 C   0  0  0  0  0  0  0  0  0  0  0  0
    1.7329    0.9093    0.8745 C   0  0  0  0  0  0  0  0  0  0  0  0
    2.6341    0.2075   -0.0838 O   0  0  0  0  0  0  0  0  0  0  0  0
   -1.0615   -0.3550   -0.3358 C   0  0  0  0  0  0  0  0  0  0  0  0
   -1.7518    0.9985   -0.6050 C   0  0  0  0  0  0  0  0  0  0  0  0
   -1.4487    0.4963    0.7942 C   0  0  0  0  0  0  0  0  0  0  0  0
   -2.5843    0.1659    1.5333 O   0  0  0  0  0  0  0  0  0  0  0  0
    1.4976   -1.7795    0.4141 H   0  0  0  0  0  0  0  0  0  0  0  0
    0.1168   -2.6046   -0.4864 H   0  0  0  0  0  0  0  0  0  0  0  0
    1.6631   -2.1644   -1.3138 H   0  0  0  0  0  0  0  0  0  0  0  0
    0.2457   -0.4785   -1.9744 H   0  0  0  0  0  0  0  0  0  0  0  0
    1.3222    1.4758   -1.1944 H   0  0  0  0  0  0  0  0  0  0  0  0
    2.1808    1.8901    1.0988 H   0  0  0  0  0  0  0  0  0  0  0  0
    1.6018    0.2688    1.7488 H   0  0  0  0  0  0  0  0  0  0  0  0
   -1.7436   -1.2258   -0.5532 H   0  0  0  0  0  0  0  0  0  0  0  0
   -2.7928    0.9919   -0.9484 H   0  0  0  0  0  0  0  0  0  0  0  0
   -1.0815    1.7977   -1.0280 H   0  0  0  0  0  0  0  0  0  0  0  0
   -0.6628    0.9713    1.3795 H   0  0  0  0  0  0  0  0  0  0  0  0
   -2.4143    0.1062    2.5028 H   0  0  0  0  0  0  0  0  0  0  0  0
  1  2  1  0
  2  3  1  0
  3  4  1  0
  4  5  1  0
  2  6  1  0
  6  7  1  0
  7  8  1  0
  8  9  1  0
  5  3  1  0
  8  6  1  0
  1 10  1  0
  1 11  1  0
  1 12  1  0
  2 13  1  0
  3 14  1  0
  4 15  1  0
  4 16  1  0
  6 17  1  0
  7 18  1  0
  7 19  1  0
  8 20  1  0
  9 21  1  0
M  END
