
     RDKit          3D

 22 21  0  0  0  0  0  0  0  0999 V2000
    2.2193    1.3138   -0.4624 C   0  0  0  0  0  0  0  0  0  0  0  0
    1.2698    0.1136   -0.5383 C   0  0  0  0  0  0  0  0  0  0  0  0
    1.8208   -0.9318    0.3831 C   0  0  0  0  0  0  0  0  0  0  0  0
   -0.0873    0.6217   -0.1231 C   0  0  0  0  0  0  0  0  0  0  0  0
   -1.1431   -0.4532   -0.1464 C   0  0  0  0  0  0  0  0  0  0  0  0
   -0.8816   -1.5115    0.6876 O   0  0  0  0  0  0  0  0  0  0  0  0
   -2.4646    0.2418    0.1931 C   0  0  0  0  0  0  0  0  0  0  0  0
   -3.5411   -0.6125    0.0936 O   0  0  0  0  0  0  0  0  0  0  0  0
    1.9293    1.8322    0.4986 H   0  0  0  0  0  0  0  0  0  0  0  0
    2.0661    2.0062   -1.2959 H   0  0  0  0  0  0  0  0  0  0  0  0
    3.2431    0.9234   -0.3623 H   0  0  0  0  0  0  0  0  0  0  0  0
    1.1798   -0.2742   -1.5606 H   0  0  0  0  0  0  0  0  0  0  0  0
    1.3786   -1.9267    0.2602 H   0  0  0  0  0  0  0  0  0  0  0  0
    1.7310   -0.5404    1.4293 H   0  0  0  0  0  0  0  0  0  0  0  0
    2.9164   -1.0327    0.1307 H   0  0  0  0  0  0  0  0  0  0  0  0
   -0.3890    1.3769   -0.8889 H   0  0  0  0  0  0  0  0  0  0  0  0
   -0.0848    1.1438    0.8421 H   0  0  0  0  0  0  0  0  0  0  0  0
   -1.1973   -0.8364   -1.1960 H   0  0  0  0  0  0  0  0  0  0  0  0
   -1.3100   -2.3185    0.3069 H   0  0  0  0  0  0  0  0  0  0  0  0
   -2.5308    1.1165   -0.4900 H   0  0  0  0  0  0  0  0  0  0  0  0
   -2.3607    0.6605    1.2243 H   0  0  0  0  0  0  0  0  0  0  0  0
   -3.7639   -0.9126    1.0145 H   0  0  0  0  0  0  0  0  0  0  0  0
  1  2  1  0
  2  3  1  0
  2  4  1  0
  4  5  1  0
  5  6  1  0
  5  7  1  0
  7  8  1  0
  1  9  1  0
  1 10  1  0
  1 11  1  0
  2 12  1  0
  3 13  1  0
  3 14  1  0
  3 15  1  0
  4 16  1  0
  4 17  1  0
  5 18  1  0
  6 19  1  0
  7 20  1  0
  7 21  1  0
  8 22  1  0
M  END
