
     RDKit          3D

 21 22  0  0  0  0  0  0  0  0999 V2000
   -1.8219    0.8870    1.3929 C   0  0  0  0  0  0  0  0  0  0  0  0
   -1.3384    0.2142    0.1153 C   0  0  0  0  0  0  0  0  0  0  0  0
   -2.3880   -0.7078   -0.4486 C   0  0  0  0  0  0  0  0  0  0  0  0
   -0.1612   -0.4463    0.4369 O   0  0  0  0  0  0  0  0  0  0  0  0
    0.8632    0.0958   -0.2862 C   0  0  0  0  0  0  0  0  0  0  0  0
    1.7442   -0.8594   -1.0499 C   0  0  0  0  0  0  0  0  0  0  0  0
    2.9466   -0.1916   -0.4627 C   0  0  0  0  0  0  0  0  0  0  0  0
    3.0232    1.1706   -0.3053 O   0  0  0  0  0  0  0  0  0  0  0  0
    2.1035    0.5008    0.4619 C   0  0  0  0  0  0  0  0  0  0  0  0
   -2.9227    0.9666    1.4047 H   0  0  0  0  0  0  0  0  0  0  0  0
   -1.4018    1.9299    1.3979 H   0  0  0  0  0  0  0  0  0  0  0  0
   -1.3996    0.3879    2.2847 H   0  0  0  0  0  0  0  0  0  0  0  0
   -1.1078    0.9904   -0.6351 H   0  0  0  0  0  0  0  0  0  0  0  0
   -2.6284   -0.4324   -1.4956 H   0  0  0  0  0  0  0  0  0  0  0  0
   -2.0157   -1.7624   -0.4475 H   0  0  0  0  0  0  0  0  0  0  0  0
   -3.3320   -0.6472    0.1279 H   0  0  0  0  0  0  0  0  0  0  0  0
    0.5650    0.9397   -0.9753 H   0  0  0  0  0  0  0  0  0  0  0  0
    1.5856   -1.9034   -0.6506 H   0  0  0  0  0  0  0  0  0  0  0  0
    1.6420   -0.8234   -2.1455 H   0  0  0  0  0  0  0  0  0  0  0  0
    3.8729   -0.7315   -0.2625 H   0  0  0  0  0  0  0  0  0  0  0  0
    2.1713    0.4225    1.5428 H   0  0  0  0  0  0  0  0  0  0  0  0
  1  2  1  0
  2  3  1  0
  2  4  1  0
  4  5  1  0
  5  6  1  0
  6  7  1  0
  7  8  1  0
  8  9  1  0
  9  5  1  0
  9  7  1  0
  1 10  1  0
  1 11  1  0
  1 12  1  0
  2 13  1  0
  3 14  1  0
  3 15  1  0
  3 16  1  0
  5 17  1  0
  6 18  1  0
  6 19  1  0
  7 20  1  0
  9 21  1  0
M  END
