
     RDKit          3D

 25 25  0  0  0  0  0  0  0  0999 V2000
    2.3365    0.9241   -0.2850 C   0  0  0  0  0  0  0  0  0  0  0  0
    1.4244   -0.1339    0.2482 C   0  0  0  0  0  0  0  0  0  0  0  0
    2.0646   -1.4886   -0.0813 C   0  0  0  0  0  0  0  0  0  0  0  0
    0.0491   -0.1162   -0.3050 C   0  0  0  0  0  0  0  0  0  0  0  0
   -0.8864    0.9978   -0.2026 C   0  0  0  0  0  0  0  0  0  0  0  0
   -1.9610    1.1526   -1.2697 C   0  0  0  0  0  0  0  0  0  0  0  0
   -1.0479   -0.0722    0.7905 C   0  0  0  0  0  0  0  0  0  0  0  0
   -2.1179   -1.1238    0.6826 C   0  0  0  0  0  0  0  0  0  0  0  0
   -0.6522    0.2135    2.0796 O   0  0  0  0  0  0  0  0  0  0  0  0
    3.3911    0.5519   -0.1176 H   0  0  0  0  0  0  0  0  0  0  0  0
    2.2514    1.1064   -1.3614 H   0  0  0  0  0  0  0  0  0  0  0  0
    2.2646    1.8450    0.3280 H   0  0  0  0  0  0  0  0  0  0  0  0
    1.4556   -0.0641    1.3690 H   0  0  0  0  0  0  0  0  0  0  0  0
    1.6391   -2.2796    0.5616 H   0  0  0  0  0  0  0  0  0  0  0  0
    3.1521   -1.4341   -0.0241 H   0  0  0  0  0  0  0  0  0  0  0  0
    1.7508   -1.6957   -1.1437 H   0  0  0  0  0  0  0  0  0  0  0  0
   -0.1552   -0.8416   -1.1468 H   0  0  0  0  0  0  0  0  0  0  0  0
   -0.4931    1.9842    0.1347 H   0  0  0  0  0  0  0  0  0  0  0  0
   -1.4815    1.0853   -2.2862 H   0  0  0  0  0  0  0  0  0  0  0  0
   -2.5150    2.1071   -1.1635 H   0  0  0  0  0  0  0  0  0  0  0  0
   -2.7107    0.3426   -1.1984 H   0  0  0  0  0  0  0  0  0  0  0  0
   -3.0078   -0.7685    1.2174 H   0  0  0  0  0  0  0  0  0  0  0  0
   -2.2970   -1.4859   -0.3280 H   0  0  0  0  0  0  0  0  0  0  0  0
   -1.7414   -2.0122    1.2698 H   0  0  0  0  0  0  0  0  0  0  0  0
   -0.7124    1.2059    2.2319 H   0  0  0  0  0  0  0  0  0  0  0  0
  1  2  1  0
  2  3  1  0
  2  4  1  0
  4  5  1  0
  5  6  1  0
  5  7  1  0
  7  8  1  0
  7  9  1  0
  7  4  1  0
  1 10  1  0
  1 11  1  0
  1 12  1  0
  2 13  1  0
  3 14  1  0
  3 15  1  0
  3 16  1  0
  4 17  1  0
  5 18  1  0
  6 19  1  0
  6 20  1  0
  6 21  1  0
  8 22  1  0
  8 23  1  0
  8 24  1  0
  9 25  1  0
M  END
