
     RDKit          3D

 21 21  0  0  0  0  0  0  0  0999 V2000
    2.1675   -1.0533    0.1287 C   0  0  0  0  0  0  0  0  0  0  0  0
    1.3328    0.1224    0.6515 C   0  0  0  0  0  0  0  0  0  0  0  0
    1.5912    1.3527   -0.1063 C   0  0  0  0  0  0  0  0  0  0  0  0
    1.4958    2.4339    0.4105 O   0  0  0  0  0  0  0  0  0  0  0  0
   -0.0858   -0.3215    0.6664 C   0  0  0  0  0  0  0  0  0  0  0  0
   -0.6128   -0.7255   -0.7214 C   0  0  0  0  0  0  0  0  0  0  0  0
   -1.1964    0.4067    0.0735 C   0  0  0  0  0  0  0  0  0  0  0  0
   -2.5969    0.1229    0.5983 C   0  0  0  0  0  0  0  0  0  0  0  0
   -1.0762    1.6685   -0.4928 O   0  0  0  0  0  0  0  0  0  0  0  0
    1.8587   -1.3026   -0.9188 H   0  0  0  0  0  0  0  0  0  0  0  0
    1.8750   -1.9279    0.7398 H   0  0  0  0  0  0  0  0  0  0  0  0
    3.2343   -0.8361    0.1292 H   0  0  0  0  0  0  0  0  0  0  0  0
    1.7127    0.2930    1.6953 H   0  0  0  0  0  0  0  0  0  0  0  0
    1.8793    1.3376   -1.1656 H   0  0  0  0  0  0  0  0  0  0  0  0
   -0.3344   -1.0214    1.5169 H   0  0  0  0  0  0  0  0  0  0  0  0
   -0.0186   -0.4704   -1.6006 H   0  0  0  0  0  0  0  0  0  0  0  0
   -1.1552   -1.7076   -0.7488 H   0  0  0  0  0  0  0  0  0  0  0  0
   -3.0088    1.0155    1.1237 H   0  0  0  0  0  0  0  0  0  0  0  0
   -3.2062   -0.1491   -0.2921 H   0  0  0  0  0  0  0  0  0  0  0  0
   -2.6049   -0.7825    1.2550 H   0  0  0  0  0  0  0  0  0  0  0  0
   -1.2512    1.5446   -1.4784 H   0  0  0  0  0  0  0  0  0  0  0  0
  1  2  1  0
  2  3  1  0
  3  4  2  0
  2  5  1  0
  5  6  1  0
  6  7  1  0
  7  8  1  0
  7  9  1  0
  7  5  1  0
  1 10  1  0
  1 11  1  0
  1 12  1  0
  2 13  1  0
  3 14  1  0
  5 15  1  0
  6 16  1  0
  6 17  1  0
  8 18  1  0
  8 19  1  0
  8 20  1  0
  9 21  1  0
M  END
