
     RDKit          3D

 21 22  0  0  0  0  0  0  0  0999 V2000
   -1.9396    1.3447   -0.8067 C   0  0  0  0  0  0  0  0  0  0  0  0
   -1.2124    0.4542    0.1793 C   0  0  0  0  0  0  0  0  0  0  0  0
   -1.7250   -0.9474    0.1481 C   0  0  0  0  0  0  0  0  0  0  0  0
    0.2703    0.5494   -0.0805 C   0  0  0  0  0  0  0  0  0  0  0  0
    0.7064    0.1737   -1.3217 O   0  0  0  0  0  0  0  0  0  0  0  0
    1.6590   -0.7272   -0.9199 C   0  0  0  0  0  0  0  0  0  0  0  0
    2.5090   -0.5160    0.2736 C   0  0  0  0  0  0  0  0  0  0  0  0
    3.0488    0.7470    0.5497 O   0  0  0  0  0  0  0  0  0  0  0  0
    1.0422   -0.6015    0.5079 C   0  0  0  0  0  0  0  0  0  0  0  0
   -3.0364    1.2228   -0.7009 H   0  0  0  0  0  0  0  0  0  0  0  0
   -1.6542    1.0338   -1.8425 H   0  0  0  0  0  0  0  0  0  0  0  0
   -1.6224    2.3881   -0.6739 H   0  0  0  0  0  0  0  0  0  0  0  0
   -1.3810    0.9022    1.1847 H   0  0  0  0  0  0  0  0  0  0  0  0
   -1.7539   -1.3227    1.1927 H   0  0  0  0  0  0  0  0  0  0  0  0
   -2.7708   -0.9446   -0.2336 H   0  0  0  0  0  0  0  0  0  0  0  0
   -1.0772   -1.6174   -0.4686 H   0  0  0  0  0  0  0  0  0  0  0  0
    0.6923    1.5324    0.2113 H   0  0  0  0  0  0  0  0  0  0  0  0
    1.5994   -1.7383   -1.3479 H   0  0  0  0  0  0  0  0  0  0  0  0
    3.1825   -1.3399    0.5380 H   0  0  0  0  0  0  0  0  0  0  0  0
    2.9122    0.8881    1.5340 H   0  0  0  0  0  0  0  0  0  0  0  0
    0.5508   -1.4812    0.9061 H   0  0  0  0  0  0  0  0  0  0  0  0
  1  2  1  0
  2  3  1  0
  2  4  1  0
  4  5  1  0
  5  6  1  0
  6  7  1  0
  7  8  1  0
  7  9  1  0
  9  4  1  0
  9  6  1  0
  1 10  1  0
  1 11  1  0
  1 12  1  0
  2 13  1  0
  3 14  1  0
  3 15  1  0
  3 16  1  0
  4 17  1  0
  6 18  1  0
  7 19  1  0
  8 20  1  0
  9 21  1  0
M  END
