
     RDKit          3D

 25 26  0  0  0  0  0  0  0  0999 V2000
    2.2349   -0.5385   -1.1056 C   0  0  0  0  0  0  0  0  0  0  0  0
    1.8100   -0.3016    0.3210 C   0  0  0  0  0  0  0  0  0  0  0  0
    1.8199    1.1680    0.5966 C   0  0  0  0  0  0  0  0  0  0  0  0
    0.4385   -0.9310    0.5881 C   0  0  0  0  0  0  0  0  0  0  0  0
   -0.6060   -0.3609   -0.2948 C   0  0  0  0  0  0  0  0  0  0  0  0
   -1.9979   -0.8233   -0.2106 C   0  0  0  0  0  0  0  0  0  0  0  0
   -2.1251   -0.0175    1.0529 C   0  0  0  0  0  0  0  0  0  0  0  0
   -1.3406    0.8685    0.1698 C   0  0  0  0  0  0  0  0  0  0  0  0
   -2.3372    0.4881   -0.8992 C   0  0  0  0  0  0  0  0  0  0  0  0
    1.8251   -1.4609   -1.5358 H   0  0  0  0  0  0  0  0  0  0  0  0
    3.3506   -0.6396   -1.1638 H   0  0  0  0  0  0  0  0  0  0  0  0
    1.9813    0.3760   -1.6843 H   0  0  0  0  0  0  0  0  0  0  0  0
    2.5767   -0.7716    0.9684 H   0  0  0  0  0  0  0  0  0  0  0  0
    1.4970    1.7829   -0.2819 H   0  0  0  0  0  0  0  0  0  0  0  0
    1.1319    1.3655    1.4460 H   0  0  0  0  0  0  0  0  0  0  0  0
    2.8249    1.5174    0.9441 H   0  0  0  0  0  0  0  0  0  0  0  0
    0.2273   -0.8530    1.6673 H   0  0  0  0  0  0  0  0  0  0  0  0
    0.5698   -2.0258    0.3878 H   0  0  0  0  0  0  0  0  0  0  0  0
   -0.3001   -0.1836   -1.3589 H   0  0  0  0  0  0  0  0  0  0  0  0
   -2.4138   -1.7078   -0.4067 H   0  0  0  0  0  0  0  0  0  0  0  0
   -3.1938    0.3396    1.1306 H   0  0  0  0  0  0  0  0  0  0  0  0
   -1.7053   -0.4188    1.9667 H   0  0  0  0  0  0  0  0  0  0  0  0
   -0.9555    1.7742    0.3339 H   0  0  0  0  0  0  0  0  0  0  0  0
   -3.3396    0.8787   -0.7030 H   0  0  0  0  0  0  0  0  0  0  0  0
   -1.9731    0.4750   -1.9287 H   0  0  0  0  0  0  0  0  0  0  0  0
  1  2  1  0
  2  3  1  0
  2  4  1  0
  4  5  1  0
  5  6  1  0
  6  7  1  0
  7  8  1  0
  8  9  1  0
  8  5  1  0
  9  6  1  0
  1 10  1  0
  1 11  1  0
  1 12  1  0
  2 13  1  0
  3 14  1  0
  3 15  1  0
  3 16  1  0
  4 17  1  0
  4 18  1  0
  5 19  1  0
  6 20  1  0
  7 21  1  0
  7 22  1  0
  8 23  1  0
  9 24  1  0
  9 25  1  0
M  END
