
     RDKit          3D

 22 22  0  0  0  0  0  0  0  0999 V2000
   -0.7230    0.6997   -1.1670 C   0  0  0  0  0  0  0  0  0  0  0  0
   -0.5560    0.0628    0.1968 C   0  0  0  0  0  0  0  0  0  0  0  0
   -0.9750    1.0825    1.2317 C   0  0  0  0  0  0  0  0  0  0  0  0
   -1.5117   -1.0970    0.2810 C   0  0  0  0  0  0  0  0  0  0  0  0
    0.8677   -0.3249    0.4633 C   0  0  0  0  0  0  0  0  0  0  0  0
    1.4966   -1.3018   -0.4664 C   0  0  0  0  0  0  0  0  0  0  0  0
    2.6978   -0.5613   -0.3529 O   0  0  0  0  0  0  0  0  0  0  0  0
    1.8881    0.5765   -0.2422 C   0  0  0  0  0  0  0  0  0  0  0  0
   -0.2856    1.7297   -1.1904 H   0  0  0  0  0  0  0  0  0  0  0  0
   -1.8352    0.7801   -1.3267 H   0  0  0  0  0  0  0  0  0  0  0  0
   -0.3539    0.0502   -1.9688 H   0  0  0  0  0  0  0  0  0  0  0  0
   -0.1455    1.2932    1.9545 H   0  0  0  0  0  0  0  0  0  0  0  0
   -1.2089    2.0757    0.7663 H   0  0  0  0  0  0  0  0  0  0  0  0
   -1.8239    0.7168    1.8564 H   0  0  0  0  0  0  0  0  0  0  0  0
   -1.1753   -1.9930   -0.2554 H   0  0  0  0  0  0  0  0  0  0  0  0
   -2.4664   -0.7756   -0.1851 H   0  0  0  0  0  0  0  0  0  0  0  0
   -1.7448   -1.2919    1.3510 H   0  0  0  0  0  0  0  0  0  0  0  0
    1.1630   -0.4402    1.5038 H   0  0  0  0  0  0  0  0  0  0  0  0
    1.1593   -1.2391   -1.5122 H   0  0  0  0  0  0  0  0  0  0  0  0
    1.6786   -2.3172   -0.0762 H   0  0  0  0  0  0  0  0  0  0  0  0
    2.2811    1.3846    0.3820 H   0  0  0  0  0  0  0  0  0  0  0  0
    1.5730    0.8901   -1.2437 H   0  0  0  0  0  0  0  0  0  0  0  0
  1  2  1  0
  2  3  1  0
  2  4  1  0
  2  5  1  0
  5  6  1  0
  6  7  1  0
  7  8  1  0
  8  5  1  0
  1  9  1  0
  1 10  1  0
  1 11  1  0
  3 12  1  0
  3 13  1  0
  3 14  1  0
  4 15  1  0
  4 16  1  0
  4 17  1  0
  5 18  1  0
  6 19  1  0
  6 20  1  0
  8 21  1  0
  8 22  1  0
M  END
