
     RDKit          3D

 21 21  0  0  0  0  0  0  0  0999 V2000
   -1.6003   -1.0896    1.0829 C   0  0  0  0  0  0  0  0  0  0  0  0
   -1.1575    0.0452    0.1778 C   0  0  0  0  0  0  0  0  0  0  0  0
   -2.2515    0.3297   -0.8614 C   0  0  0  0  0  0  0  0  0  0  0  0
   -3.4286    0.6919   -0.2070 O   0  0  0  0  0  0  0  0  0  0  0  0
    0.0194   -0.3155   -0.4378 O   0  0  0  0  0  0  0  0  0  0  0  0
    1.0766    0.5382   -0.1109 C   0  0  0  0  0  0  0  0  0  0  0  0
    2.3208    0.0692   -0.8273 C   0  0  0  0  0  0  0  0  0  0  0  0
    3.5228   -0.1765    0.0089 C   0  0  0  0  0  0  0  0  0  0  0  0
    2.7094   -1.2307   -0.4942 O   0  0  0  0  0  0  0  0  0  0  0  0
   -0.7677   -1.2940    1.7869 H   0  0  0  0  0  0  0  0  0  0  0  0
   -2.4763   -0.8040    1.6950 H   0  0  0  0  0  0  0  0  0  0  0  0
   -1.7984   -2.0007    0.4567 H   0  0  0  0  0  0  0  0  0  0  0  0
   -1.0431    0.9418    0.8141 H   0  0  0  0  0  0  0  0  0  0  0  0
   -1.9222    1.1404   -1.5258 H   0  0  0  0  0  0  0  0  0  0  0  0
   -2.4848   -0.6090   -1.4150 H   0  0  0  0  0  0  0  0  0  0  0  0
   -3.3112    1.4148    0.4299 H   0  0  0  0  0  0  0  0  0  0  0  0
    0.8504    1.5599   -0.4920 H   0  0  0  0  0  0  0  0  0  0  0  0
    1.2006    0.5398    0.9904 H   0  0  0  0  0  0  0  0  0  0  0  0
    2.5198    0.4404   -1.8450 H   0  0  0  0  0  0  0  0  0  0  0  0
    4.5256   -0.1906   -0.4460 H   0  0  0  0  0  0  0  0  0  0  0  0
    3.4961   -0.0007    1.1048 H   0  0  0  0  0  0  0  0  0  0  0  0
  1  2  1  0
  2  3  1  0
  3  4  1  0
  2  5  1  0
  5  6  1  0
  6  7  1  0
  7  8  1  0
  8  9  1  0
  9  7  1  0
  1 10  1  0
  1 11  1  0
  1 12  1  0
  2 13  1  0
  3 14  1  0
  3 15  1  0
  4 16  1  0
  6 17  1  0
  6 18  1  0
  7 19  1  0
  8 20  1  0
  8 21  1  0
M  END
