
     RDKit          3D

 21 22  0  0  0  0  0  0  0  0999 V2000
   -1.6473   -1.1860   -0.4676 C   0  0  0  0  0  0  0  0  0  0  0  0
   -0.8765    0.1277   -0.5628 C   0  0  0  0  0  0  0  0  0  0  0  0
   -1.6409    1.1065    0.3317 C   0  0  0  0  0  0  0  0  0  0  0  0
    0.4376    0.0050   -0.2144 C   0  0  0  0  0  0  0  0  0  0  0  0
    1.4960    1.0743   -0.1867 C   0  0  0  0  0  0  0  0  0  0  0  0
    2.2031   -0.1589    0.2857 C   0  0  0  0  0  0  0  0  0  0  0  0
    0.9818   -0.4023    1.1373 C   0  0  0  0  0  0  0  0  0  0  0  0
    1.4671   -0.8741   -0.7838 C   0  0  0  0  0  0  0  0  0  0  0  0
    1.7121   -1.7058   -1.6035 O   0  0  0  0  0  0  0  0  0  0  0  0
   -2.7323   -0.9610   -0.4494 H   0  0  0  0  0  0  0  0  0  0  0  0
   -1.3635   -1.7528    0.4299 H   0  0  0  0  0  0  0  0  0  0  0  0
   -1.4046   -1.7917   -1.3777 H   0  0  0  0  0  0  0  0  0  0  0  0
   -1.0458    0.4897   -1.5979 H   0  0  0  0  0  0  0  0  0  0  0  0
   -0.9519    1.8400    0.8048 H   0  0  0  0  0  0  0  0  0  0  0  0
   -2.1500    0.5663    1.1623 H   0  0  0  0  0  0  0  0  0  0  0  0
   -2.3904    1.6836   -0.2377 H   0  0  0  0  0  0  0  0  0  0  0  0
    1.3053    1.8183    0.6258 H   0  0  0  0  0  0  0  0  0  0  0  0
    1.7971    1.4935   -1.1506 H   0  0  0  0  0  0  0  0  0  0  0  0
    3.1601   -0.2685    0.5504 H   0  0  0  0  0  0  0  0  0  0  0  0
    0.7949   -1.4560    1.4071 H   0  0  0  0  0  0  0  0  0  0  0  0
    0.8480    0.3522    1.9094 H   0  0  0  0  0  0  0  0  0  0  0  0
  1  2  1  0
  2  3  1  0
  2  4  1  0
  4  5  1  0
  5  6  1  0
  6  7  1  0
  6  8  1  0
  8  9  2  0
  7  4  1  0
  8  4  1  0
  1 10  1  0
  1 11  1  0
  1 12  1  0
  2 13  1  0
  3 14  1  0
  3 15  1  0
  3 16  1  0
  5 17  1  0
  5 18  1  0
  6 19  1  0
  7 20  1  0
  7 21  1  0
M  END
