
     RDKit          3D

 23 23  0  0  0  0  0  0  0  0999 V2000
   -2.1907    0.2277    2.2825 C   0  0  0  0  0  0  0  0  0  0  0  0
   -1.7406    0.0464    0.8438 C   0  0  0  0  0  0  0  0  0  0  0  0
   -2.7364   -0.8187    0.1530 C   0  0  0  0  0  0  0  0  0  0  0  0
   -0.4436   -0.3731    0.7506 O   0  0  0  0  0  0  0  0  0  0  0  0
    0.3984    0.5356    0.1369 C   0  0  0  0  0  0  0  0  0  0  0  0
    1.7991   -0.0260    0.0869 C   0  0  0  0  0  0  0  0  0  0  0  0
    2.5912    0.6829   -0.9930 C   0  0  0  0  0  0  0  0  0  0  0  0
    3.0793   -0.7041   -1.2196 C   0  0  0  0  0  0  0  0  0  0  0  0
    1.9432   -1.2092   -0.6014 O   0  0  0  0  0  0  0  0  0  0  0  0
   -3.3070    0.1589    2.2921 H   0  0  0  0  0  0  0  0  0  0  0  0
   -1.8052   -0.5914    2.9124 H   0  0  0  0  0  0  0  0  0  0  0  0
   -1.9036    1.2353    2.6349 H   0  0  0  0  0  0  0  0  0  0  0  0
   -1.7978    1.0658    0.3791 H   0  0  0  0  0  0  0  0  0  0  0  0
   -2.3320   -1.3348   -0.7572 H   0  0  0  0  0  0  0  0  0  0  0  0
   -3.1955   -1.5821    0.8473 H   0  0  0  0  0  0  0  0  0  0  0  0
   -3.5890   -0.1869   -0.1725 H   0  0  0  0  0  0  0  0  0  0  0  0
    0.4449    1.4334    0.7971 H   0  0  0  0  0  0  0  0  0  0  0  0
    0.0751    0.8752   -0.8440 H   0  0  0  0  0  0  0  0  0  0  0  0
    2.2508    0.0030    1.0987 H   0  0  0  0  0  0  0  0  0  0  0  0
    1.9672    1.0662   -1.8151 H   0  0  0  0  0  0  0  0  0  0  0  0
    3.3121    1.4027   -0.5626 H   0  0  0  0  0  0  0  0  0  0  0  0
    3.1519   -0.9157   -2.3141 H   0  0  0  0  0  0  0  0  0  0  0  0
    4.0282   -0.9912   -0.7189 H   0  0  0  0  0  0  0  0  0  0  0  0
  1  2  1  0
  2  3  1  0
  2  4  1  0
  4  5  1  0
  5  6  1  0
  6  7  1  0
  7  8  1  0
  8  9  1  0
  9  6  1  0
  1 10  1  0
  1 11  1  0
  1 12  1  0
  2 13  1  0
  3 14  1  0
  3 15  1  0
  3 16  1  0
  5 17  1  0
  5 18  1  0
  6 19  1  0
  7 20  1  0
  7 21  1  0
  8 22  1  0
  8 23  1  0
M  END
