
     RDKit          3D

 21 20  0  0  0  0  0  0  0  0999 V2000
   -1.2740    1.1356   -1.2883 C   0  0  0  0  0  0  0  0  0  0  0  0
   -1.0373    0.0250   -0.2751 C   0  0  0  0  0  0  0  0  0  0  0  0
   -2.0342    0.1717    0.8381 C   0  0  0  0  0  0  0  0  0  0  0  0
   -3.3141    0.0897    0.2911 O   0  0  0  0  0  0  0  0  0  0  0  0
    0.2330    0.1081    0.2807 O   0  0  0  0  0  0  0  0  0  0  0  0
    0.9634   -1.0523    0.1213 C   0  0  0  0  0  0  0  0  0  0  0  0
    2.3217   -0.8378    0.7655 C   0  0  0  0  0  0  0  0  0  0  0  0
    3.0482    0.2955    0.1311 C   0  0  0  0  0  0  0  0  0  0  0  0
    2.5720    0.9404   -0.7869 O   0  0  0  0  0  0  0  0  0  0  0  0
   -1.8967    1.9427   -0.8917 H   0  0  0  0  0  0  0  0  0  0  0  0
   -1.7325    0.7223   -2.1953 H   0  0  0  0  0  0  0  0  0  0  0  0
   -0.2803    1.5747   -1.5175 H   0  0  0  0  0  0  0  0  0  0  0  0
   -1.1965   -0.9745   -0.7369 H   0  0  0  0  0  0  0  0  0  0  0  0
   -1.8665   -0.6778    1.5467 H   0  0  0  0  0  0  0  0  0  0  0  0
   -1.9654    1.1509    1.3421 H   0  0  0  0  0  0  0  0  0  0  0  0
   -3.2544    0.4400   -0.6333 H   0  0  0  0  0  0  0  0  0  0  0  0
    0.4594   -1.8582    0.7081 H   0  0  0  0  0  0  0  0  0  0  0  0
    1.0450   -1.3961   -0.9154 H   0  0  0  0  0  0  0  0  0  0  0  0
    2.9778   -1.7364    0.6313 H   0  0  0  0  0  0  0  0  0  0  0  0
    2.2043   -0.5892    1.8396 H   0  0  0  0  0  0  0  0  0  0  0  0
    4.0274    0.5257    0.5232 H   0  0  0  0  0  0  0  0  0  0  0  0
  1  2  1  0
  2  3  1  0
  3  4  1  0
  2  5  1  0
  5  6  1  0
  6  7  1  0
  7  8  1  0
  8  9  2  0
  1 10  1  0
  1 11  1  0
  1 12  1  0
  2 13  1  0
  3 14  1  0
  3 15  1  0
  4 16  1  0
  6 17  1  0
  6 18  1  0
  7 19  1  0
  7 20  1  0
  8 21  1  0
M  END
