
     RDKit          3D

 21 20  0  0  0  0  0  0  0  0999 V2000
   -1.2012    0.1601    1.5759 C   0  0  0  0  0  0  0  0  0  0  0  0
   -0.7341    0.5873    0.2143 C   0  0  0  0  0  0  0  0  0  0  0  0
   -1.8233    1.2210   -0.6084 C   0  0  0  0  0  0  0  0  0  0  0  0
   -0.1238   -0.6054   -0.5183 C   0  0  0  0  0  0  0  0  0  0  0  0
    0.3177   -0.2627   -1.7684 O   0  0  0  0  0  0  0  0  0  0  0  0
    0.9676   -1.2006    0.3310 C   0  0  0  0  0  0  0  0  0  0  0  0
    2.0589   -0.3776    0.5758 O   0  0  0  0  0  0  0  0  0  0  0  0
    2.9539    0.1511   -0.3121 C   0  0  0  0  0  0  0  0  0  0  0  0
    2.8396   -0.1016   -1.5220 O   0  0  0  0  0  0  0  0  0  0  0  0
   -1.5527   -0.8950    1.5960 H   0  0  0  0  0  0  0  0  0  0  0  0
   -1.9790    0.8228    1.9900 H   0  0  0  0  0  0  0  0  0  0  0  0
   -0.3263    0.2139    2.2694 H   0  0  0  0  0  0  0  0  0  0  0  0
    0.0541    1.3591    0.3620 H   0  0  0  0  0  0  0  0  0  0  0  0
   -2.3423    0.4548   -1.2535 H   0  0  0  0  0  0  0  0  0  0  0  0
   -2.5652    1.7538    0.0274 H   0  0  0  0  0  0  0  0  0  0  0  0
   -1.4121    1.9665   -1.3323 H   0  0  0  0  0  0  0  0  0  0  0  0
   -0.9473   -1.3645   -0.6518 H   0  0  0  0  0  0  0  0  0  0  0  0
    0.2670   -1.0409   -2.3489 H   0  0  0  0  0  0  0  0  0  0  0  0
    1.2622   -2.2154   -0.0396 H   0  0  0  0  0  0  0  0  0  0  0  0
    0.5293   -1.4155    1.3557 H   0  0  0  0  0  0  0  0  0  0  0  0
    3.7571    0.7888    0.0578 H   0  0  0  0  0  0  0  0  0  0  0  0
  1  2  1  0
  2  3  1  0
  2  4  1  0
  4  5  1  0
  4  6  1  0
  6  7  1  0
  7  8  1  0
  8  9  2  0
  1 10  1  0
  1 11  1  0
  1 12  1  0
  2 13  1  0
  3 14  1  0
  3 15  1  0
  3 16  1  0
  4 17  1  0
  5 18  1  0
  6 19  1  0
  6 20  1  0
  8 21  1  0
M  END
