
     RDKit          3D

 25 25  0  0  0  0  0  0  0  0999 V2000
    2.9179   -0.3969    0.4006 C   0  0  0  0  0  0  0  0  0  0  0  0
    1.4788    0.1941    0.2593 C   0  0  0  0  0  0  0  0  0  0  0  0
    1.6201    1.4194   -0.5629 C   0  0  0  0  0  0  0  0  0  0  0  0
    0.6696   -0.9057   -0.2574 C   0  0  0  0  0  0  0  0  0  0  0  0
   -0.7496   -0.7947   -0.5732 C   0  0  0  0  0  0  0  0  0  0  0  0
   -1.7329   -0.4072    0.4736 C   0  0  0  0  0  0  0  0  0  0  0  0
   -3.2193   -0.3987    0.0130 C   0  0  0  0  0  0  0  0  0  0  0  0
   -1.5279    0.8487    1.3267 C   0  0  0  0  0  0  0  0  0  0  0  0
   -1.4525   -0.4505    1.8234 O   0  0  0  0  0  0  0  0  0  0  0  0
    3.4567    0.2518    1.1063 H   0  0  0  0  0  0  0  0  0  0  0  0
    3.3249   -0.3531   -0.6305 H   0  0  0  0  0  0  0  0  0  0  0  0
    2.8606   -1.4470    0.6988 H   0  0  0  0  0  0  0  0  0  0  0  0
    1.2150    0.3754    1.3420 H   0  0  0  0  0  0  0  0  0  0  0  0
    1.2898    2.3052    0.0537 H   0  0  0  0  0  0  0  0  0  0  0  0
    2.6541    1.6195   -0.9039 H   0  0  0  0  0  0  0  0  0  0  0  0
    0.9812    1.4325   -1.4735 H   0  0  0  0  0  0  0  0  0  0  0  0
    1.1853   -1.2878   -1.2080 H   0  0  0  0  0  0  0  0  0  0  0  0
    0.8001   -1.7780    0.4540 H   0  0  0  0  0  0  0  0  0  0  0  0
   -0.9482   -0.2400   -1.5443 H   0  0  0  0  0  0  0  0  0  0  0  0
   -1.0748   -1.8500   -0.8845 H   0  0  0  0  0  0  0  0  0  0  0  0
   -3.3409    0.5202   -0.5893 H   0  0  0  0  0  0  0  0  0  0  0  0
   -3.4480   -1.2920   -0.5665 H   0  0  0  0  0  0  0  0  0  0  0  0
   -3.8439   -0.2818    0.9220 H   0  0  0  0  0  0  0  0  0  0  0  0
   -0.6849    1.4973    1.1529 H   0  0  0  0  0  0  0  0  0  0  0  0
   -2.4313    1.4191    1.6695 H   0  0  0  0  0  0  0  0  0  0  0  0
  1  2  1  0
  2  3  1  0
  2  4  1  0
  4  5  1  0
  5  6  1  0
  6  7  1  0
  6  8  1  0
  8  9  1  0
  9  6  1  0
  1 10  1  0
  1 11  1  0
  1 12  1  0
  2 13  1  0
  3 14  1  0
  3 15  1  0
  3 16  1  0
  4 17  1  0
  4 18  1  0
  5 19  1  0
  5 20  1  0
  7 21  1  0
  7 22  1  0
  7 23  1  0
  8 24  1  0
  8 25  1  0
M  END
