
     RDKit          3D

 21 21  0  0  0  0  0  0  0  0999 V2000
   -1.0786   -1.1184    0.5654 C   0  0  0  0  0  0  0  0  0  0  0  0
   -1.1352    0.0781   -0.3141 C   0  0  0  0  0  0  0  0  0  0  0  0
   -1.9141    1.1819    0.4168 C   0  0  0  0  0  0  0  0  0  0  0  0
    0.1479    0.6258   -0.8057 C   0  0  0  0  0  0  0  0  0  0  0  0
    1.1878    1.1089    0.1919 C   0  0  0  0  0  0  0  0  0  0  0  0
    1.4475    0.0001   -0.8158 C   0  0  0  0  0  0  0  0  0  0  0  0
    1.8515   -1.2940   -0.2143 C   0  0  0  0  0  0  0  0  0  0  0  0
   -0.6099   -0.8869    1.5595 H   0  0  0  0  0  0  0  0  0  0  0  0
   -2.1141   -1.4727    0.8570 H   0  0  0  0  0  0  0  0  0  0  0  0
   -0.6049   -1.9970    0.1327 H   0  0  0  0  0  0  0  0  0  0  0  0
   -1.8129   -0.1896   -1.1790 H   0  0  0  0  0  0  0  0  0  0  0  0
   -2.9538    0.7943    0.4983 H   0  0  0  0  0  0  0  0  0  0  0  0
   -1.5147    1.3453    1.4243 H   0  0  0  0  0  0  0  0  0  0  0  0
   -1.9467    2.1018   -0.2101 H   0  0  0  0  0  0  0  0  0  0  0  0
   -0.0158    1.4196   -1.6053 H   0  0  0  0  0  0  0  0  0  0  0  0
    1.0680    0.8089    1.2547 H   0  0  0  0  0  0  0  0  0  0  0  0
    1.6711    2.0855    0.0805 H   0  0  0  0  0  0  0  0  0  0  0  0
    2.1763    0.3461   -1.6146 H   0  0  0  0  0  0  0  0  0  0  0  0
    2.9834   -1.3374   -0.2219 H   0  0  0  0  0  0  0  0  0  0  0  0
    1.5657   -2.1693   -0.8531 H   0  0  0  0  0  0  0  0  0  0  0  0
    1.6014   -1.4308    0.8530 H   0  0  0  0  0  0  0  0  0  0  0  0
  1  2  1  0
  2  3  1  0
  2  4  1  0
  4  5  1  0
  5  6  1  0
  6  7  1  0
  6  4  1  0
  1  8  1  0
  1  9  1  0
  1 10  1  0
  2 11  1  0
  3 12  1  0
  3 13  1  0
  3 14  1  0
  4 15  1  0
  5 16  1  0
  5 17  1  0
  6 18  1  0
  7 19  1  0
  7 20  1  0
  7 21  1  0
M  END
