
     RDKit          3D

 23 24  0  0  0  0  0  0  0  0999 V2000
   -1.4183    1.6658    0.0429 C   0  0  0  0  0  0  0  0  0  0  0  0
   -1.0892    0.2721    0.6034 C   0  0  0  0  0  0  0  0  0  0  0  0
   -2.2091   -0.6459    0.1578 C   0  0  0  0  0  0  0  0  0  0  0  0
    0.1542   -0.1422    0.2344 C   0  0  0  0  0  0  0  0  0  0  0  0
    1.4716    0.5499    0.5531 C   0  0  0  0  0  0  0  0  0  0  0  0
    1.8706   -0.6031   -0.3328 C   0  0  0  0  0  0  0  0  0  0  0  0
    3.0146   -0.9208   -0.7273 O   0  0  0  0  0  0  0  0  0  0  0  0
    0.6900   -0.1821   -1.1986 C   0  0  0  0  0  0  0  0  0  0  0  0
    0.8718   -1.4156    0.4369 C   0  0  0  0  0  0  0  0  0  0  0  0
   -0.9060    2.4597    0.6188 H   0  0  0  0  0  0  0  0  0  0  0  0
   -2.4924    1.8134   -0.0764 H   0  0  0  0  0  0  0  0  0  0  0  0
   -0.9694    1.7147   -0.9879 H   0  0  0  0  0  0  0  0  0  0  0  0
   -1.2196    0.3914    1.7071 H   0  0  0  0  0  0  0  0  0  0  0  0
   -2.6392   -1.2150    1.0093 H   0  0  0  0  0  0  0  0  0  0  0  0
   -3.0602   -0.0852   -0.2897 H   0  0  0  0  0  0  0  0  0  0  0  0
   -1.8254   -1.3700   -0.6097 H   0  0  0  0  0  0  0  0  0  0  0  0
    1.5777    1.5536    0.1231 H   0  0  0  0  0  0  0  0  0  0  0  0
    1.8143    0.4544    1.5932 H   0  0  0  0  0  0  0  0  0  0  0  0
    3.6997   -0.2109   -0.6827 H   0  0  0  0  0  0  0  0  0  0  0  0
    0.7879    0.8144   -1.6556 H   0  0  0  0  0  0  0  0  0  0  0  0
    0.2717   -0.9698   -1.8223 H   0  0  0  0  0  0  0  0  0  0  0  0
    0.4482   -2.2396   -0.1617 H   0  0  0  0  0  0  0  0  0  0  0  0
    1.1567   -1.6892    1.4645 H   0  0  0  0  0  0  0  0  0  0  0  0
  1  2  1  0
  2  3  1  0
  2  4  1  0
  4  5  1  0
  5  6  1  0
  6  7  1  0
  6  8  1  0
  6  9  1  0
  8  4  1  0
  9  4  1  0
  1 10  1  0
  1 11  1  0
  1 12  1  0
  2 13  1  0
  3 14  1  0
  3 15  1  0
  3 16  1  0
  5 17  1  0
  5 18  1  0
  7 19  1  0
  8 20  1  0
  8 21  1  0
  9 22  1  0
  9 23  1  0
M  END
