
     RDKit          3D

 27 27  0  0  0  0  0  0  0  0999 V2000
    2.2820   -1.2299    0.2409 C   0  0  0  0  0  0  0  0  0  0  0  0
    1.4896    0.0100    0.6004 C   0  0  0  0  0  0  0  0  0  0  0  0
    2.3944    1.1959    0.3300 C   0  0  0  0  0  0  0  0  0  0  0  0
    0.2361    0.0800   -0.2831 C   0  0  0  0  0  0  0  0  0  0  0  0
   -0.5644    1.2983    0.0536 C   0  0  0  0  0  0  0  0  0  0  0  0
   -1.8033    0.9808    0.8682 C   0  0  0  0  0  0  0  0  0  0  0  0
   -2.6400    0.1030   -0.0377 C   0  0  0  0  0  0  0  0  0  0  0  0
   -1.9573   -1.1693   -0.3587 C   0  0  0  0  0  0  0  0  0  0  0  0
   -0.4890   -1.1960   -0.2392 C   0  0  0  0  0  0  0  0  0  0  0  0
    2.9269   -1.5578    1.0984 H   0  0  0  0  0  0  0  0  0  0  0  0
    2.9647   -0.9929   -0.6211 H   0  0  0  0  0  0  0  0  0  0  0  0
    1.6699   -2.0762   -0.0604 H   0  0  0  0  0  0  0  0  0  0  0  0
    1.2057    0.0104    1.6830 H   0  0  0  0  0  0  0  0  0  0  0  0
    2.0832    2.1045    0.8750 H   0  0  0  0  0  0  0  0  0  0  0  0
    2.4742    1.3498   -0.7704 H   0  0  0  0  0  0  0  0  0  0  0  0
    3.4022    0.9195    0.7474 H   0  0  0  0  0  0  0  0  0  0  0  0
    0.6440    0.2466   -1.3222 H   0  0  0  0  0  0  0  0  0  0  0  0
    0.0091    2.0692    0.5953 H   0  0  0  0  0  0  0  0  0  0  0  0
   -0.9446    1.7957   -0.8763 H   0  0  0  0  0  0  0  0  0  0  0  0
   -1.5949    0.5162    1.8267 H   0  0  0  0  0  0  0  0  0  0  0  0
   -2.3689    1.9500    0.9581 H   0  0  0  0  0  0  0  0  0  0  0  0
   -3.6275   -0.0497    0.4064 H   0  0  0  0  0  0  0  0  0  0  0  0
   -2.8143    0.7018   -0.9781 H   0  0  0  0  0  0  0  0  0  0  0  0
   -2.3992   -1.9676    0.3095 H   0  0  0  0  0  0  0  0  0  0  0  0
   -2.2920   -1.4838   -1.3915 H   0  0  0  0  0  0  0  0  0  0  0  0
   -0.0952   -1.8674   -1.0605 H   0  0  0  0  0  0  0  0  0  0  0  0
   -0.1911   -1.7413    0.7048 H   0  0  0  0  0  0  0  0  0  0  0  0
  1  2  1  0
  2  3  1  0
  2  4  1  0
  4  5  1  0
  5  6  1  0
  6  7  1  0
  7  8  1  0
  8  9  1  0
  9  4  1  0
  1 10  1  0
  1 11  1  0
  1 12  1  0
  2 13  1  0
  3 14  1  0
  3 15  1  0
  3 16  1  0
  4 17  1  0
  5 18  1  0
  5 19  1  0
  6 20  1  0
  6 21  1  0
  7 22  1  0
  7 23  1  0
  8 24  1  0
  8 25  1  0
  9 26  1  0
  9 27  1  0
M  END
