
     RDKit          3D

 23 24  0  0  0  0  0  0  0  0999 V2000
    0.4781    1.6815   -0.4168 C   0  0  0  0  0  0  0  0  0  0  0  0
    0.0314    0.2457   -0.5765 C   0  0  0  0  0  0  0  0  0  0  0  0
    1.1221   -0.7389   -0.3032 C   0  0  0  0  0  0  0  0  0  0  0  0
    1.8076   -0.8184    1.0011 C   0  0  0  0  0  0  0  0  0  0  0  0
    2.4948   -0.1112   -0.1064 C   0  0  0  0  0  0  0  0  0  0  0  0
   -1.1499    0.0490    0.3462 C   0  0  0  0  0  0  0  0  0  0  0  0
   -1.7467   -1.3146    0.3400 C   0  0  0  0  0  0  0  0  0  0  0  0
   -2.5962   -0.9333   -0.7222 O   0  0  0  0  0  0  0  0  0  0  0  0
   -2.4397    0.4054   -0.3549 C   0  0  0  0  0  0  0  0  0  0  0  0
    1.1938    2.0061   -1.1761 H   0  0  0  0  0  0  0  0  0  0  0  0
   -0.4525    2.3055   -0.5536 H   0  0  0  0  0  0  0  0  0  0  0  0
    0.8061    1.8401    0.6253 H   0  0  0  0  0  0  0  0  0  0  0  0
   -0.3332    0.0710   -1.6095 H   0  0  0  0  0  0  0  0  0  0  0  0
    1.0683   -1.6795   -0.8941 H   0  0  0  0  0  0  0  0  0  0  0  0
    1.4917   -0.1986    1.8672 H   0  0  0  0  0  0  0  0  0  0  0  0
    2.1994   -1.8081    1.3141 H   0  0  0  0  0  0  0  0  0  0  0  0
    3.3734   -0.6520   -0.5635 H   0  0  0  0  0  0  0  0  0  0  0  0
    2.5973    0.9806   -0.1068 H   0  0  0  0  0  0  0  0  0  0  0  0
   -1.0496    0.5467    1.3325 H   0  0  0  0  0  0  0  0  0  0  0  0
   -1.0370   -2.1204    0.0845 H   0  0  0  0  0  0  0  0  0  0  0  0
   -2.2837   -1.5438    1.2771 H   0  0  0  0  0  0  0  0  0  0  0  0
   -3.2186    0.6945    0.3902 H   0  0  0  0  0  0  0  0  0  0  0  0
   -2.3568    1.0926   -1.1943 H   0  0  0  0  0  0  0  0  0  0  0  0
  1  2  1  0
  2  3  1  0
  3  4  1  0
  4  5  1  0
  2  6  1  0
  6  7  1  0
  7  8  1  0
  8  9  1  0
  5  3  1  0
  9  6  1  0
  1 10  1  0
  1 11  1  0
  1 12  1  0
  2 13  1  0
  3 14  1  0
  4 15  1  0
  4 16  1  0
  5 17  1  0
  5 18  1  0
  6 19  1  0
  7 20  1  0
  7 21  1  0
  9 22  1  0
  9 23  1  0
M  END
