
     RDKit          3D

 21 21  0  0  0  0  0  0  0  0999 V2000
   -1.5809   -0.9743   -1.3600 C   0  0  0  0  0  0  0  0  0  0  0  0
   -0.9160    0.2523   -0.7127 C   0  0  0  0  0  0  0  0  0  0  0  0
   -1.9487    1.1204   -0.0383 C   0  0  0  0  0  0  0  0  0  0  0  0
    0.1227   -0.2631    0.2118 C   0  0  0  0  0  0  0  0  0  0  0  0
    1.2141   -1.1094   -0.4934 C   0  0  0  0  0  0  0  0  0  0  0  0
    1.5279    0.1345    0.2571 C   0  0  0  0  0  0  0  0  0  0  0  0
    2.2029   -0.1354    1.4820 O   0  0  0  0  0  0  0  0  0  0  0  0
    2.0983    1.2956   -0.4502 C   0  0  0  0  0  0  0  0  0  0  0  0
    1.6271    1.6245   -1.5121 O   0  0  0  0  0  0  0  0  0  0  0  0
   -1.2471   -1.1297   -2.3860 H   0  0  0  0  0  0  0  0  0  0  0  0
   -1.3569   -1.8961   -0.7887 H   0  0  0  0  0  0  0  0  0  0  0  0
   -2.6927   -0.8467   -1.3310 H   0  0  0  0  0  0  0  0  0  0  0  0
   -0.5106    0.8328   -1.5560 H   0  0  0  0  0  0  0  0  0  0  0  0
   -2.1784    2.0460   -0.6344 H   0  0  0  0  0  0  0  0  0  0  0  0
   -1.6498    1.4585    0.9532 H   0  0  0  0  0  0  0  0  0  0  0  0
   -2.9039    0.5464   -0.0189 H   0  0  0  0  0  0  0  0  0  0  0  0
   -0.3007   -0.7731    1.1354 H   0  0  0  0  0  0  0  0  0  0  0  0
    1.2195   -1.1164   -1.5951 H   0  0  0  0  0  0  0  0  0  0  0  0
    1.4269   -2.1046   -0.0571 H   0  0  0  0  0  0  0  0  0  0  0  0
    2.9258   -0.8006    1.3362 H   0  0  0  0  0  0  0  0  0  0  0  0
    2.9206    1.8383   -0.0241 H   0  0  0  0  0  0  0  0  0  0  0  0
  1  2  1  0
  2  3  1  0
  2  4  1  0
  4  5  1  0
  5  6  1  0
  6  7  1  0
  6  8  1  0
  8  9  2  0
  6  4  1  0
  1 10  1  0
  1 11  1  0
  1 12  1  0
  2 13  1  0
  3 14  1  0
  3 15  1  0
  3 16  1  0
  4 17  1  0
  5 18  1  0
  5 19  1  0
  7 20  1  0
  8 21  1  0
M  END
