
     RDKit          3D

 21 21  0  0  0  0  0  0  0  0999 V2000
   -1.9980    0.4022   -0.7335 C   0  0  0  0  0  0  0  0  0  0  0  0
   -1.0477   -0.3634    0.1211 C   0  0  0  0  0  0  0  0  0  0  0  0
   -1.1062   -1.8150   -0.2379 C   0  0  0  0  0  0  0  0  0  0  0  0
    0.3532    0.1932    0.0978 C   0  0  0  0  0  0  0  0  0  0  0  0
    0.6076    1.5948    0.5479 C   0  0  0  0  0  0  0  0  0  0  0  0
    1.2703   -0.8214    0.6657 O   0  0  0  0  0  0  0  0  0  0  0  0
    1.3899   -0.4366   -0.7368 C   0  0  0  0  0  0  0  0  0  0  0  0
    2.6565    0.3128   -0.9486 C   0  0  0  0  0  0  0  0  0  0  0  0
    3.0760    1.1447   -0.1794 O   0  0  0  0  0  0  0  0  0  0  0  0
   -1.4251    1.1639   -1.2921 H   0  0  0  0  0  0  0  0  0  0  0  0
   -2.7788    0.9347   -0.1699 H   0  0  0  0  0  0  0  0  0  0  0  0
   -2.5314   -0.2509   -1.4777 H   0  0  0  0  0  0  0  0  0  0  0  0
   -1.4045   -0.2750    1.1819 H   0  0  0  0  0  0  0  0  0  0  0  0
   -2.1168   -2.1893    0.0418 H   0  0  0  0  0  0  0  0  0  0  0  0
   -0.9218   -1.9350   -1.3193 H   0  0  0  0  0  0  0  0  0  0  0  0
   -0.3860   -2.4254    0.3701 H   0  0  0  0  0  0  0  0  0  0  0  0
   -0.2939    2.0546    1.0012 H   0  0  0  0  0  0  0  0  0  0  0  0
    1.3786    1.5963    1.3623 H   0  0  0  0  0  0  0  0  0  0  0  0
    1.0026    2.2179   -0.2853 H   0  0  0  0  0  0  0  0  0  0  0  0
    1.0623   -1.1755   -1.4648 H   0  0  0  0  0  0  0  0  0  0  0  0
    3.2130    0.0724   -1.8611 H   0  0  0  0  0  0  0  0  0  0  0  0
  1  2  1  0
  2  3  1  0
  2  4  1  0
  4  5  1  0
  4  6  1  0
  6  7  1  0
  7  8  1  0
  8  9  2  0
  7  4  1  0
  1 10  1  0
  1 11  1  0
  1 12  1  0
  2 13  1  0
  3 14  1  0
  3 15  1  0
  3 16  1  0
  5 17  1  0
  5 18  1  0
  5 19  1  0
  7 20  1  0
  8 21  1  0
M  END
