
     RDKit          3D

 23 23  0  0  0  0  0  0  0  0999 V2000
    1.5570    0.8240    0.9638 C   0  0  0  0  0  0  0  0  0  0  0  0
    0.9373    0.3446   -0.3334 C   0  0  0  0  0  0  0  0  0  0  0  0
    1.6976   -0.8003   -0.9290 C   0  0  0  0  0  0  0  0  0  0  0  0
   -0.5232    0.0573   -0.0844 C   0  0  0  0  0  0  0  0  0  0  0  0
   -1.2602    1.3188    0.3942 C   0  0  0  0  0  0  0  0  0  0  0  0
   -1.1761    2.3277   -0.5587 O   0  0  0  0  0  0  0  0  0  0  0  0
   -1.2973   -0.8726   -0.9257 C   0  0  0  0  0  0  0  0  0  0  0  0
   -0.9799   -1.1945    0.5141 C   0  0  0  0  0  0  0  0  0  0  0  0
   -0.1693   -2.3160    0.6543 O   0  0  0  0  0  0  0  0  0  0  0  0
    0.9158    0.6099    1.8372 H   0  0  0  0  0  0  0  0  0  0  0  0
    1.7337    1.9188    0.9667 H   0  0  0  0  0  0  0  0  0  0  0  0
    2.5543    0.3456    1.0616 H   0  0  0  0  0  0  0  0  0  0  0  0
    1.0171    1.1998   -1.0480 H   0  0  0  0  0  0  0  0  0  0  0  0
    1.1420   -1.1858   -1.7846 H   0  0  0  0  0  0  0  0  0  0  0  0
    2.6739   -0.3659   -1.2931 H   0  0  0  0  0  0  0  0  0  0  0  0
    1.8886   -1.5475   -0.1357 H   0  0  0  0  0  0  0  0  0  0  0  0
   -2.2959    1.0095    0.6002 H   0  0  0  0  0  0  0  0  0  0  0  0
   -0.7563    1.6588    1.3010 H   0  0  0  0  0  0  0  0  0  0  0  0
   -1.8212    3.0245   -0.3025 H   0  0  0  0  0  0  0  0  0  0  0  0
   -2.3718   -0.6151   -1.1048 H   0  0  0  0  0  0  0  0  0  0  0  0
   -0.8712   -1.4777   -1.7323 H   0  0  0  0  0  0  0  0  0  0  0  0
   -1.7939   -1.1617    1.2666 H   0  0  0  0  0  0  0  0  0  0  0  0
   -0.8012   -3.1022    0.6725 H   0  0  0  0  0  0  0  0  0  0  0  0
  1  2  1  0
  2  3  1  0
  2  4  1  0
  4  5  1  0
  5  6  1  0
  4  7  1  0
  7  8  1  0
  8  9  1  0
  8  4  1  0
  1 10  1  0
  1 11  1  0
  1 12  1  0
  2 13  1  0
  3 14  1  0
  3 15  1  0
  3 16  1  0
  5 17  1  0
  5 18  1  0
  6 19  1  0
  7 20  1  0
  7 21  1  0
  8 22  1  0
  9 23  1  0
M  END
