
     RDKit          3D

 23 23  0  0  0  0  0  0  0  0999 V2000
   -2.3611   -1.2388    0.1414 C   0  0  0  0  0  0  0  0  0  0  0  0
   -1.5592    0.0036   -0.2721 C   0  0  0  0  0  0  0  0  0  0  0  0
   -1.7999    1.1328    0.6497 C   0  0  0  0  0  0  0  0  0  0  0  0
   -0.1602   -0.4050   -0.4743 C   0  0  0  0  0  0  0  0  0  0  0  0
    0.5474   -0.9542    0.5627 O   0  0  0  0  0  0  0  0  0  0  0  0
    1.6952   -0.5945   -0.1623 C   0  0  0  0  0  0  0  0  0  0  0  0
    2.9006   -0.3007    0.6893 C   0  0  0  0  0  0  0  0  0  0  0  0
    0.8918    0.6525   -0.5603 C   0  0  0  0  0  0  0  0  0  0  0  0
    0.9505    1.5603    0.4636 O   0  0  0  0  0  0  0  0  0  0  0  0
   -3.3989   -1.1239   -0.2295 H   0  0  0  0  0  0  0  0  0  0  0  0
   -2.3927   -1.3214    1.2554 H   0  0  0  0  0  0  0  0  0  0  0  0
   -1.9388   -2.1394   -0.3198 H   0  0  0  0  0  0  0  0  0  0  0  0
   -1.9715    0.2807   -1.2788 H   0  0  0  0  0  0  0  0  0  0  0  0
   -1.8185    2.1039    0.0755 H   0  0  0  0  0  0  0  0  0  0  0  0
   -1.1216    1.2317    1.4940 H   0  0  0  0  0  0  0  0  0  0  0  0
   -2.8377    1.0564    1.0891 H   0  0  0  0  0  0  0  0  0  0  0  0
   -0.0778   -1.0787   -1.3763 H   0  0  0  0  0  0  0  0  0  0  0  0
    1.9384   -1.2618   -0.9884 H   0  0  0  0  0  0  0  0  0  0  0  0
    3.2891   -1.2623    1.0521 H   0  0  0  0  0  0  0  0  0  0  0  0
    3.6686    0.1444    0.0366 H   0  0  0  0  0  0  0  0  0  0  0  0
    2.6575    0.4102    1.5033 H   0  0  0  0  0  0  0  0  0  0  0  0
    1.1119    1.0236   -1.5745 H   0  0  0  0  0  0  0  0  0  0  0  0
    1.7870    2.0807    0.3816 H   0  0  0  0  0  0  0  0  0  0  0  0
  1  2  1  0
  2  3  1  0
  2  4  1  0
  4  5  1  0
  5  6  1  0
  6  7  1  0
  6  8  1  0
  8  9  1  0
  8  4  1  0
  1 10  1  0
  1 11  1  0
  1 12  1  0
  2 13  1  0
  3 14  1  0
  3 15  1  0
  3 16  1  0
  4 17  1  0
  6 18  1  0
  7 19  1  0
  7 20  1  0
  7 21  1  0
  8 22  1  0
  9 23  1  0
M  END
