
     RDKit          3D

 25 25  0  0  0  0  0  0  0  0999 V2000
   -1.9847   -1.4386    0.1865 C   0  0  0  0  0  0  0  0  0  0  0  0
   -1.0595   -0.6164   -0.6464 C   0  0  0  0  0  0  0  0  0  0  0  0
   -1.7222    0.6915   -0.9751 C   0  0  0  0  0  0  0  0  0  0  0  0
   -2.0268    1.3854    0.1784 O   0  0  0  0  0  0  0  0  0  0  0  0
    0.2446   -0.3132    0.0415 C   0  0  0  0  0  0  0  0  0  0  0  0
    0.9966   -1.6045    0.3930 C   0  0  0  0  0  0  0  0  0  0  0  0
    1.1600    0.4844   -0.8255 C   0  0  0  0  0  0  0  0  0  0  0  0
    2.4987    0.8077   -0.1471 C   0  0  0  0  0  0  0  0  0  0  0  0
    1.5475    1.8669   -0.5525 C   0  0  0  0  0  0  0  0  0  0  0  0
   -3.0007   -1.3911   -0.2680 H   0  0  0  0  0  0  0  0  0  0  0  0
   -1.7112   -2.5097    0.2122 H   0  0  0  0  0  0  0  0  0  0  0  0
   -2.0978   -1.0729    1.2234 H   0  0  0  0  0  0  0  0  0  0  0  0
   -0.8215   -1.1785   -1.5725 H   0  0  0  0  0  0  0  0  0  0  0  0
   -1.0190    1.3478   -1.5613 H   0  0  0  0  0  0  0  0  0  0  0  0
   -2.6427    0.5391   -1.5930 H   0  0  0  0  0  0  0  0  0  0  0  0
   -2.3224    2.2966   -0.0225 H   0  0  0  0  0  0  0  0  0  0  0  0
    0.0655    0.2119    0.9907 H   0  0  0  0  0  0  0  0  0  0  0  0
    0.7691   -2.3941   -0.3703 H   0  0  0  0  0  0  0  0  0  0  0  0
    2.1006   -1.4443    0.3137 H   0  0  0  0  0  0  0  0  0  0  0  0
    0.7998   -1.9223    1.4183 H   0  0  0  0  0  0  0  0  0  0  0  0
    1.2168    0.1104   -1.8793 H   0  0  0  0  0  0  0  0  0  0  0  0
    3.4025    0.5709   -0.7343 H   0  0  0  0  0  0  0  0  0  0  0  0
    2.6059    0.6190    0.9265 H   0  0  0  0  0  0  0  0  0  0  0  0
    1.1177    2.4871    0.2348 H   0  0  0  0  0  0  0  0  0  0  0  0
    1.8831    2.4668   -1.4479 H   0  0  0  0  0  0  0  0  0  0  0  0
  1  2  1  0
  2  3  1  0
  3  4  1  0
  2  5  1  0
  5  6  1  0
  5  7  1  0
  7  8  1  0
  8  9  1  0
  9  7  1  0
  1 10  1  0
  1 11  1  0
  1 12  1  0
  2 13  1  0
  3 14  1  0
  3 15  1  0
  4 16  1  0
  5 17  1  0
  6 18  1  0
  6 19  1  0
  6 20  1  0
  7 21  1  0
  8 22  1  0
  8 23  1  0
  9 24  1  0
  9 25  1  0
M  END
