
     RDKit          3D

 19 19  0  0  0  0  0  0  0  0999 V2000
   -2.0158   -0.9565   -0.1314 C   0  0  0  0  0  0  0  0  0  0  0  0
   -1.2706    0.3654   -0.0786 C   0  0  0  0  0  0  0  0  0  0  0  0
   -1.8352    1.2509   -1.1070 C   0  0  0  0  0  0  0  0  0  0  0  0
   -1.1970    2.0524   -1.7682 O   0  0  0  0  0  0  0  0  0  0  0  0
    0.1891    0.0605   -0.3120 C   0  0  0  0  0  0  0  0  0  0  0  0
    0.6975   -0.8013    0.6571 O   0  0  0  0  0  0  0  0  0  0  0  0
    2.0561   -0.7944    0.3410 C   0  0  0  0  0  0  0  0  0  0  0  0
    2.2840    0.6561   -0.0076 C   0  0  0  0  0  0  0  0  0  0  0  0
    0.9948    1.1741   -0.1705 O   0  0  0  0  0  0  0  0  0  0  0  0
   -2.9605   -0.8599    0.4116 H   0  0  0  0  0  0  0  0  0  0  0  0
   -1.4095   -1.7305    0.4058 H   0  0  0  0  0  0  0  0  0  0  0  0
   -2.1205   -1.2989   -1.1679 H   0  0  0  0  0  0  0  0  0  0  0  0
   -1.4378    0.8216    0.9153 H   0  0  0  0  0  0  0  0  0  0  0  0
   -2.9009    1.1936   -1.2991 H   0  0  0  0  0  0  0  0  0  0  0  0
    0.3659   -0.4065   -1.2980 H   0  0  0  0  0  0  0  0  0  0  0  0
    2.1584   -1.4565   -0.5616 H   0  0  0  0  0  0  0  0  0  0  0  0
    2.6972   -1.1235    1.1757 H   0  0  0  0  0  0  0  0  0  0  0  0
    2.8434    1.1389    0.8011 H   0  0  0  0  0  0  0  0  0  0  0  0
    2.8614    0.7144   -0.9579 H   0  0  0  0  0  0  0  0  0  0  0  0
  1  2  1  0
  2  3  1  0
  3  4  2  0
  2  5  1  0
  5  6  1  0
  6  7  1  0
  7  8  1  0
  8  9  1  0
  9  5  1  0
  1 10  1  0
  1 11  1  0
  1 12  1  0
  2 13  1  0
  3 14  1  0
  5 15  1  0
  7 16  1  0
  7 17  1  0
  8 18  1  0
  8 19  1  0
M  END
