
     RDKit          3D

 19 19  0  0  0  0  0  0  0  0999 V2000
   -1.7556   -1.2475   -0.3720 C   0  0  0  0  0  0  0  0  0  0  0  0
   -1.0471    0.1031   -0.5342 C   0  0  0  0  0  0  0  0  0  0  0  0
   -1.6250    1.0442    0.4195 C   0  0  0  0  0  0  0  0  0  0  0  0
   -2.0128    0.6607    1.5020 O   0  0  0  0  0  0  0  0  0  0  0  0
    0.4097   -0.1611   -0.3508 C   0  0  0  0  0  0  0  0  0  0  0  0
    1.2901    1.0302   -0.4696 C   0  0  0  0  0  0  0  0  0  0  0  0
    1.9934    1.1045    0.7554 O   0  0  0  0  0  0  0  0  0  0  0  0
    2.0538   -0.2526    1.0833 C   0  0  0  0  0  0  0  0  0  0  0  0
    0.7055   -0.6510    0.9137 O   0  0  0  0  0  0  0  0  0  0  0  0
   -2.6131   -1.3270   -1.0689 H   0  0  0  0  0  0  0  0  0  0  0  0
   -2.0828   -1.3239    0.6956 H   0  0  0  0  0  0  0  0  0  0  0  0
   -1.0514   -2.0860   -0.6196 H   0  0  0  0  0  0  0  0  0  0  0  0
   -1.2134    0.3854   -1.6022 H   0  0  0  0  0  0  0  0  0  0  0  0
   -1.7204    2.0940    0.1870 H   0  0  0  0  0  0  0  0  0  0  0  0
    0.6982   -0.9527   -1.0926 H   0  0  0  0  0  0  0  0  0  0  0  0
    0.7785    1.9796   -0.6295 H   0  0  0  0  0  0  0  0  0  0  0  0
    2.0826    0.8233   -1.2336 H   0  0  0  0  0  0  0  0  0  0  0  0
    2.4161   -0.4417    2.0978 H   0  0  0  0  0  0  0  0  0  0  0  0
    2.6935   -0.7817    0.3187 H   0  0  0  0  0  0  0  0  0  0  0  0
  1  2  1  0
  2  3  1  0
  3  4  2  0
  2  5  1  0
  5  6  1  0
  6  7  1  0
  7  8  1  0
  8  9  1  0
  9  5  1  0
  1 10  1  0
  1 11  1  0
  1 12  1  0
  2 13  1  0
  3 14  1  0
  5 15  1  0
  6 16  1  0
  6 17  1  0
  8 18  1  0
  8 19  1  0
M  END
