
     RDKit          3D

 22 23  0  0  0  0  0  0  0  0999 V2000
   -2.2100    1.1502   -0.0672 C   0  0  0  0  0  0  0  0  0  0  0  0
   -1.3642   -0.1020    0.0545 C   0  0  0  0  0  0  0  0  0  0  0  0
   -1.8977   -1.0340    1.1163 C   0  0  0  0  0  0  0  0  0  0  0  0
    0.0397    0.3306    0.3122 C   0  0  0  0  0  0  0  0  0  0  0  0
    1.0588   -0.7268    0.4676 C   0  0  0  0  0  0  0  0  0  0  0  0
    2.5201   -0.4515    0.5039 C   0  0  0  0  0  0  0  0  0  0  0  0
    2.3996    0.6709   -0.5276 C   0  0  0  0  0  0  0  0  0  0  0  0
    1.0027    0.1795   -0.8065 C   0  0  0  0  0  0  0  0  0  0  0  0
   -3.2692    0.9112   -0.2863 H   0  0  0  0  0  0  0  0  0  0  0  0
   -1.7712    1.7212   -0.9369 H   0  0  0  0  0  0  0  0  0  0  0  0
   -2.1202    1.7855    0.8424 H   0  0  0  0  0  0  0  0  0  0  0  0
   -1.4255   -0.6015   -0.9469 H   0  0  0  0  0  0  0  0  0  0  0  0
   -2.9765   -0.8515    1.2575 H   0  0  0  0  0  0  0  0  0  0  0  0
   -1.3364   -0.9484    2.0787 H   0  0  0  0  0  0  0  0  0  0  0  0
   -1.7970   -2.0858    0.7606 H   0  0  0  0  0  0  0  0  0  0  0  0
    0.1347    1.3073    0.8553 H   0  0  0  0  0  0  0  0  0  0  0  0
    0.7350   -1.7597    0.3525 H   0  0  0  0  0  0  0  0  0  0  0  0
    2.9621   -0.1448    1.4655 H   0  0  0  0  0  0  0  0  0  0  0  0
    3.1188   -1.2764    0.0288 H   0  0  0  0  0  0  0  0  0  0  0  0
    3.0842    0.6078   -1.3713 H   0  0  0  0  0  0  0  0  0  0  0  0
    2.3398    1.6940   -0.0596 H   0  0  0  0  0  0  0  0  0  0  0  0
    0.7726   -0.3760   -1.7132 H   0  0  0  0  0  0  0  0  0  0  0  0
  1  2  1  0
  2  3  1  0
  2  4  1  0
  4  5  1  0
  5  6  1  0
  6  7  1  0
  7  8  1  0
  8  4  1  0
  8  5  1  0
  1  9  1  0
  1 10  1  0
  1 11  1  0
  2 12  1  0
  3 13  1  0
  3 14  1  0
  3 15  1  0
  4 16  1  0
  5 17  1  0
  6 18  1  0
  6 19  1  0
  7 20  1  0
  7 21  1  0
  8 22  1  0
M  END
