
     RDKit          3D

 19 18  0  0  0  0  0  0  0  0999 V2000
   -1.9403    1.1043   -0.5624 C   0  0  0  0  0  0  0  0  0  0  0  0
   -1.1363   -0.2000   -0.4514 C   0  0  0  0  0  0  0  0  0  0  0  0
   -2.0942   -1.2716    0.0194 C   0  0  0  0  0  0  0  0  0  0  0  0
   -0.1237    0.0546    0.4331 O   0  0  0  0  0  0  0  0  0  0  0  0
    1.1414   -0.0315   -0.0737 C   0  0  0  0  0  0  0  0  0  0  0  0
    2.1227    0.2647    0.9808 C   0  0  0  0  0  0  0  0  0  0  0  0
    1.7292    0.5397    2.1274 O   0  0  0  0  0  0  0  0  0  0  0  0
    3.5394    0.2377    0.6908 C   0  0  0  0  0  0  0  0  0  0  0  0
    3.9925   -0.0346   -0.4524 O   0  0  0  0  0  0  0  0  0  0  0  0
   -1.2884    1.8037   -1.1267 H   0  0  0  0  0  0  0  0  0  0  0  0
   -2.8860    0.8703   -1.0546 H   0  0  0  0  0  0  0  0  0  0  0  0
   -2.0562    1.5519    0.4504 H   0  0  0  0  0  0  0  0  0  0  0  0
   -0.8154   -0.4463   -1.4747 H   0  0  0  0  0  0  0  0  0  0  0  0
   -1.6067   -2.0483    0.6326 H   0  0  0  0  0  0  0  0  0  0  0  0
   -2.8981   -0.8321    0.6727 H   0  0  0  0  0  0  0  0  0  0  0  0
   -2.6312   -1.7339   -0.8333 H   0  0  0  0  0  0  0  0  0  0  0  0
    1.2898    0.7240   -0.8974 H   0  0  0  0  0  0  0  0  0  0  0  0
    1.3792   -1.0072   -0.5399 H   0  0  0  0  0  0  0  0  0  0  0  0
    4.2821    0.4545    1.4594 H   0  0  0  0  0  0  0  0  0  0  0  0
  1  2  1  0
  2  3  1  0
  2  4  1  0
  4  5  1  0
  5  6  1  0
  6  7  2  0
  6  8  1  0
  8  9  2  0
  1 10  1  0
  1 11  1  0
  1 12  1  0
  2 13  1  0
  3 14  1  0
  3 15  1  0
  3 16  1  0
  5 17  1  0
  5 18  1  0
  8 19  1  0
M  END
