
     RDKit          3D

 16 15  0  0  0  0  0  0  0  0999 V2000
   -0.2009    0.9014   -1.0495 C   0  0  0  0  0  0  0  0  0  0  0  0
    0.2607    0.1086    0.1470 C   0  0  0  0  0  0  0  0  0  0  0  0
   -0.8385   -0.8337    0.5858 C   0  0  0  0  0  0  0  0  0  0  0  0
   -2.0606   -0.0664    0.9355 C   0  0  0  0  0  0  0  0  0  0  0  0
   -3.1022   -0.1333    0.2648 O   0  0  0  0  0  0  0  0  0  0  0  0
    1.4644   -0.5604   -0.0948 O   0  0  0  0  0  0  0  0  0  0  0  0
    2.6446   -0.4551    0.5625 C   0  0  0  0  0  0  0  0  0  0  0  0
    2.6934    0.3497    1.5419 O   0  0  0  0  0  0  0  0  0  0  0  0
   -0.0156    1.9765   -0.9212 H   0  0  0  0  0  0  0  0  0  0  0  0
   -1.3047    0.7774   -1.1450 H   0  0  0  0  0  0  0  0  0  0  0  0
    0.2423    0.5255   -1.9975 H   0  0  0  0  0  0  0  0  0  0  0  0
    0.4266    0.8101    0.9869 H   0  0  0  0  0  0  0  0  0  0  0  0
   -1.0876   -1.4311   -0.3423 H   0  0  0  0  0  0  0  0  0  0  0  0
   -0.5543   -1.5709    1.3295 H   0  0  0  0  0  0  0  0  0  0  0  0
   -2.1018    0.5973    1.8038 H   0  0  0  0  0  0  0  0  0  0  0  0
    3.5342   -0.9956    0.3237 H   0  0  0  0  0  0  0  0  0  0  0  0
  1  2  1  0
  2  3  1  0
  3  4  1  0
  4  5  2  0
  2  6  1  0
  6  7  1  0
  7  8  2  0
  1  9  1  0
  1 10  1  0
  1 11  1  0
  2 12  1  0
  3 13  1  0
  3 14  1  0
  4 15  1  0
  7 16  1  0
M  END
