
     RDKit          3D

 19 19  0  0  0  0  0  0  0  0999 V2000
   -0.8649    0.8906   -1.0295 C   0  0  0  0  0  0  0  0  0  0  0  0
   -0.6343    0.3591    0.3410 C   0  0  0  0  0  0  0  0  0  0  0  0
   -1.8092   -0.5058    0.7499 C   0  0  0  0  0  0  0  0  0  0  0  0
    0.6805   -0.3127    0.5501 C   0  0  0  0  0  0  0  0  0  0  0  0
    1.8329    0.6047    0.2958 C   0  0  0  0  0  0  0  0  0  0  0  0
    2.2465   -0.1688   -0.7725 O   0  0  0  0  0  0  0  0  0  0  0  0
    1.2485   -1.1265   -0.5540 C   0  0  0  0  0  0  0  0  0  0  0  0
   -0.0583    0.6706   -1.7526 H   0  0  0  0  0  0  0  0  0  0  0  0
   -1.0061    2.0005   -1.0511 H   0  0  0  0  0  0  0  0  0  0  0  0
   -1.8039    0.4724   -1.4817 H   0  0  0  0  0  0  0  0  0  0  0  0
   -0.6441    1.2457    1.0436 H   0  0  0  0  0  0  0  0  0  0  0  0
   -2.5282   -0.6547   -0.0814 H   0  0  0  0  0  0  0  0  0  0  0  0
   -2.3769   -0.0848    1.6003 H   0  0  0  0  0  0  0  0  0  0  0  0
   -1.4863   -1.5353    1.0509 H   0  0  0  0  0  0  0  0  0  0  0  0
    0.7308   -0.7544    1.5642 H   0  0  0  0  0  0  0  0  0  0  0  0
    2.6144    0.6258    1.0828 H   0  0  0  0  0  0  0  0  0  0  0  0
    1.5241    1.6369    0.0538 H   0  0  0  0  0  0  0  0  0  0  0  0
    0.6364   -1.2998   -1.4451 H   0  0  0  0  0  0  0  0  0  0  0  0
    1.6983   -2.0636   -0.1646 H   0  0  0  0  0  0  0  0  0  0  0  0
  1  2  1  0
  2  3  1  0
  2  4  1  0
  4  5  1  0
  5  6  1  0
  6  7  1  0
  7  4  1  0
  1  8  1  0
  1  9  1  0
  1 10  1  0
  2 11  1  0
  3 12  1  0
  3 13  1  0
  3 14  1  0
  4 15  1  0
  5 16  1  0
  5 17  1  0
  7 18  1  0
  7 19  1  0
M  END
