
     RDKit          3D

 21 21  0  0  0  0  0  0  0  0999 V2000
   -1.2528    1.4526    1.6134 C   0  0  0  0  0  0  0  0  0  0  0  0
   -1.2729    0.4227    0.5237 C   0  0  0  0  0  0  0  0  0  0  0  0
   -2.6056    0.4788   -0.2026 C   0  0  0  0  0  0  0  0  0  0  0  0
   -0.2013    0.4815   -0.3283 O   0  0  0  0  0  0  0  0  0  0  0  0
    0.5835   -0.6398   -0.3670 C   0  0  0  0  0  0  0  0  0  0  0  0
    1.4422   -0.9963   -1.4989 C   0  0  0  0  0  0  0  0  0  0  0  0
    2.0892   -0.3282   -0.3441 C   0  0  0  0  0  0  0  0  0  0  0  0
    2.9109   -1.0638    0.6210 C   0  0  0  0  0  0  0  0  0  0  0  0
    3.8619   -0.5581    1.1764 O   0  0  0  0  0  0  0  0  0  0  0  0
   -2.1630    2.0890    1.5527 H   0  0  0  0  0  0  0  0  0  0  0  0
   -1.2626    1.0003    2.6296 H   0  0  0  0  0  0  0  0  0  0  0  0
   -0.3916    2.1695    1.4977 H   0  0  0  0  0  0  0  0  0  0  0  0
   -1.2458   -0.5934    1.0138 H   0  0  0  0  0  0  0  0  0  0  0  0
   -2.5765   -0.1178   -1.1462 H   0  0  0  0  0  0  0  0  0  0  0  0
   -3.4195    0.0385    0.4045 H   0  0  0  0  0  0  0  0  0  0  0  0
   -2.8517    1.5110   -0.4868 H   0  0  0  0  0  0  0  0  0  0  0  0
    0.2721   -1.4925    0.3006 H   0  0  0  0  0  0  0  0  0  0  0  0
    1.7058   -2.0574   -1.6655 H   0  0  0  0  0  0  0  0  0  0  0  0
    1.3067   -0.4271   -2.4425 H   0  0  0  0  0  0  0  0  0  0  0  0
    2.4022    0.7195   -0.5265 H   0  0  0  0  0  0  0  0  0  0  0  0
    2.6689   -2.0888    0.8505 H   0  0  0  0  0  0  0  0  0  0  0  0
  1  2  1  0
  2  3  1  0
  2  4  1  0
  4  5  1  0
  5  6  1  0
  6  7  1  0
  7  8  1  0
  8  9  2  0
  7  5  1  0
  1 10  1  0
  1 11  1  0
  1 12  1  0
  2 13  1  0
  3 14  1  0
  3 15  1  0
  3 16  1  0
  5 17  1  0
  6 18  1  0
  6 19  1  0
  7 20  1  0
  8 21  1  0
M  END
