
     RDKit          3D

 17 16  0  0  0  0  0  0  0  0999 V2000
   -0.2993    1.3830   -0.5354 C   0  0  0  0  0  0  0  0  0  0  0  0
   -0.2754   -0.1067   -0.4324 C   0  0  0  0  0  0  0  0  0  0  0  0
   -1.0485   -0.5420    0.7694 C   0  0  0  0  0  0  0  0  0  0  0  0
   -2.3642   -0.1031    0.6428 O   0  0  0  0  0  0  0  0  0  0  0  0
    1.1088   -0.6937   -0.4896 C   0  0  0  0  0  0  0  0  0  0  0  0
    1.9920   -0.2278    0.5803 C   0  0  0  0  0  0  0  0  0  0  0  0
    1.6005    0.5623    1.4181 O   0  0  0  0  0  0  0  0  0  0  0  0
    0.2705    1.7753   -1.4043 H   0  0  0  0  0  0  0  0  0  0  0  0
   -1.3704    1.6756   -0.7446 H   0  0  0  0  0  0  0  0  0  0  0  0
   -0.0364    1.8998    0.4156 H   0  0  0  0  0  0  0  0  0  0  0  0
   -0.8206   -0.5045   -1.3323 H   0  0  0  0  0  0  0  0  0  0  0  0
   -0.9680   -1.6401    0.8523 H   0  0  0  0  0  0  0  0  0  0  0  0
   -0.6492   -0.0385    1.6995 H   0  0  0  0  0  0  0  0  0  0  0  0
   -2.6845   -0.4745   -0.2397 H   0  0  0  0  0  0  0  0  0  0  0  0
    0.9790   -1.8056   -0.3519 H   0  0  0  0  0  0  0  0  0  0  0  0
    1.5530   -0.5854   -1.4997 H   0  0  0  0  0  0  0  0  0  0  0  0
    3.0126   -0.5742    0.6519 H   0  0  0  0  0  0  0  0  0  0  0  0
  1  2  1  0
  2  3  1  0
  3  4  1  0
  2  5  1  0
  5  6  1  0
  6  7  2  0
  1  8  1  0
  1  9  1  0
  1 10  1  0
  2 11  1  0
  3 12  1  0
  3 13  1  0
  4 14  1  0
  5 15  1  0
  5 16  1  0
  6 17  1  0
M  END
