
     RDKit          3D

 21 21  0  0  0  0  0  0  0  0999 V2000
   -1.5442    1.4680    0.3685 C   0  0  0  0  0  0  0  0  0  0  0  0
   -1.0966    0.1480   -0.1732 C   0  0  0  0  0  0  0  0  0  0  0  0
    0.1432   -0.4020    0.4348 C   0  0  0  0  0  0  0  0  0  0  0  0
    1.3656    0.4321    0.3003 C   0  0  0  0  0  0  0  0  0  0  0  0
    2.6026   -0.2034    0.9532 C   0  0  0  0  0  0  0  0  0  0  0  0
    2.5338   -0.1485   -0.5266 C   0  0  0  0  0  0  0  0  0  0  0  0
   -2.1467   -0.7796    0.0313 O   0  0  0  0  0  0  0  0  0  0  0  0
   -2.7790   -1.4044   -1.0342 C   0  0  0  0  0  0  0  0  0  0  0  0
   -2.3681   -1.1010   -2.1798 O   0  0  0  0  0  0  0  0  0  0  0  0
   -1.6077    2.2188   -0.4513 H   0  0  0  0  0  0  0  0  0  0  0  0
   -0.9183    1.8578    1.1852 H   0  0  0  0  0  0  0  0  0  0  0  0
   -2.5897    1.4318    0.7961 H   0  0  0  0  0  0  0  0  0  0  0  0
   -0.9391    0.2277   -1.2682 H   0  0  0  0  0  0  0  0  0  0  0  0
    0.3429   -1.3880   -0.0351 H   0  0  0  0  0  0  0  0  0  0  0  0
   -0.0634   -0.6171    1.5118 H   0  0  0  0  0  0  0  0  0  0  0  0
    1.3258    1.5283    0.2539 H   0  0  0  0  0  0  0  0  0  0  0  0
    2.5228   -1.1914    1.4017 H   0  0  0  0  0  0  0  0  0  0  0  0
    3.2834    0.5364    1.4525 H   0  0  0  0  0  0  0  0  0  0  0  0
    3.2114    0.5512   -1.0329 H   0  0  0  0  0  0  0  0  0  0  0  0
    2.3025   -1.0525   -1.1310 H   0  0  0  0  0  0  0  0  0  0  0  0
   -3.5815   -2.1121   -0.8569 H   0  0  0  0  0  0  0  0  0  0  0  0
  1  2  1  0
  2  3  1  0
  3  4  1  0
  4  5  1  0
  5  6  1  0
  2  7  1  0
  7  8  1  0
  8  9  2  0
  6  4  1  0
  1 10  1  0
  1 11  1  0
  1 12  1  0
  2 13  1  0
  3 14  1  0
  3 15  1  0
  4 16  1  0
  5 17  1  0
  5 18  1  0
  6 19  1  0
  6 20  1  0
  8 21  1  0
M  END
