
     RDKit          3D

 25 24  0  0  0  0  0  0  0  0999 V2000
   -2.8029    1.0744    0.1834 C   0  0  0  0  0  0  0  0  0  0  0  0
   -1.7069    0.0082    0.3073 C   0  0  0  0  0  0  0  0  0  0  0  0
   -2.0375   -1.0828   -0.6609 C   0  0  0  0  0  0  0  0  0  0  0  0
   -1.7451   -0.4542    1.6015 O   0  0  0  0  0  0  0  0  0  0  0  0
   -0.4135    0.7164   -0.0148 C   0  0  0  0  0  0  0  0  0  0  0  0
    0.7814   -0.2012    0.0620 C   0  0  0  0  0  0  0  0  0  0  0  0
    2.0080    0.6034   -0.2750 C   0  0  0  0  0  0  0  0  0  0  0  0
    3.2682   -0.2354   -0.2248 C   0  0  0  0  0  0  0  0  0  0  0  0
    3.4857   -0.7838    1.0272 O   0  0  0  0  0  0  0  0  0  0  0  0
   -3.7039    0.7642    0.7555 H   0  0  0  0  0  0  0  0  0  0  0  0
   -3.0496    1.2119   -0.8692 H   0  0  0  0  0  0  0  0  0  0  0  0
   -2.3722    1.9838    0.6585 H   0  0  0  0  0  0  0  0  0  0  0  0
   -1.4526   -2.0158   -0.4688 H   0  0  0  0  0  0  0  0  0  0  0  0
   -1.9704   -0.7671   -1.7039 H   0  0  0  0  0  0  0  0  0  0  0  0
   -3.1061   -1.3723   -0.4744 H   0  0  0  0  0  0  0  0  0  0  0  0
   -0.8830   -0.4705    2.0581 H   0  0  0  0  0  0  0  0  0  0  0  0
   -0.3142    1.5766    0.6739 H   0  0  0  0  0  0  0  0  0  0  0  0
   -0.4774    1.1219   -1.0446 H   0  0  0  0  0  0  0  0  0  0  0  0
    0.8915   -0.6969    1.0254 H   0  0  0  0  0  0  0  0  0  0  0  0
    0.6486   -0.9607   -0.7492 H   0  0  0  0  0  0  0  0  0  0  0  0
    1.9289    1.0071   -1.3063 H   0  0  0  0  0  0  0  0  0  0  0  0
    2.1232    1.4713    0.4023 H   0  0  0  0  0  0  0  0  0  0  0  0
    3.0852   -1.1033   -0.9208 H   0  0  0  0  0  0  0  0  0  0  0  0
    4.1184    0.3490   -0.6136 H   0  0  0  0  0  0  0  0  0  0  0  0
    3.6962   -1.7442    0.9847 H   0  0  0  0  0  0  0  0  0  0  0  0
  1  2  1  0
  2  3  1  0
  2  4  1  0
  2  5  1  0
  5  6  1  0
  6  7  1  0
  7  8  1  0
  8  9  1  0
  1 10  1  0
  1 11  1  0
  1 12  1  0
  3 13  1  0
  3 14  1  0
  3 15  1  0
  4 16  1  0
  5 17  1  0
  5 18  1  0
  6 19  1  0
  6 20  1  0
  7 21  1  0
  7 22  1  0
  8 23  1  0
  8 24  1  0
  9 25  1  0
M  END
