
     RDKit          3D

 24 23  0  0  0  0  0  0  0  0999 V2000
   -2.8900   -0.4414   -0.8164 C   0  0  0  0  0  0  0  0  0  0  0  0
   -1.8409    0.4451   -0.1859 C   0  0  0  0  0  0  0  0  0  0  0  0
   -2.0964    0.4476    1.3103 C   0  0  0  0  0  0  0  0  0  0  0  0
   -0.4910   -0.1884   -0.4230 C   0  0  0  0  0  0  0  0  0  0  0  0
    0.5478    0.5549    0.1218 O   0  0  0  0  0  0  0  0  0  0  0  0
    1.7311   -0.0957   -0.1426 C   0  0  0  0  0  0  0  0  0  0  0  0
    2.4798   -0.4893    1.1076 C   0  0  0  0  0  0  0  0  0  0  0  0
    2.6800    0.7631   -0.9629 C   0  0  0  0  0  0  0  0  0  0  0  0
   -3.0532   -1.3531   -0.1821 H   0  0  0  0  0  0  0  0  0  0  0  0
   -2.5046   -0.8433   -1.7904 H   0  0  0  0  0  0  0  0  0  0  0  0
   -3.8378    0.0731   -0.9981 H   0  0  0  0  0  0  0  0  0  0  0  0
   -1.9155    1.4603   -0.5705 H   0  0  0  0  0  0  0  0  0  0  0  0
   -1.1751    0.5878    1.9006 H   0  0  0  0  0  0  0  0  0  0  0  0
   -2.4553   -0.5919    1.5595 H   0  0  0  0  0  0  0  0  0  0  0  0
   -2.8810    1.1624    1.6067 H   0  0  0  0  0  0  0  0  0  0  0  0
   -0.3179   -0.2748   -1.5188 H   0  0  0  0  0  0  0  0  0  0  0  0
   -0.4365   -1.2049    0.0065 H   0  0  0  0  0  0  0  0  0  0  0  0
    1.5076   -1.0174   -0.7101 H   0  0  0  0  0  0  0  0  0  0  0  0
    3.2003    0.3153    1.3873 H   0  0  0  0  0  0  0  0  0  0  0  0
    3.1046   -1.3697    0.8424 H   0  0  0  0  0  0  0  0  0  0  0  0
    1.8278   -0.7917    1.9311 H   0  0  0  0  0  0  0  0  0  0  0  0
    2.4775    0.6397   -2.0543 H   0  0  0  0  0  0  0  0  0  0  0  0
    3.7102    0.3989   -0.7860 H   0  0  0  0  0  0  0  0  0  0  0  0
    2.6286    1.8131   -0.6324 H   0  0  0  0  0  0  0  0  0  0  0  0
  1  2  1  0
  2  3  1  0
  2  4  1  0
  4  5  1  0
  5  6  1  0
  6  7  1  0
  6  8  1  0
  1  9  1  0
  1 10  1  0
  1 11  1  0
  2 12  1  0
  3 13  1  0
  3 14  1  0
  3 15  1  0
  4 16  1  0
  4 17  1  0
  6 18  1  0
  7 19  1  0
  7 20  1  0
  7 21  1  0
  8 22  1  0
  8 23  1  0
  8 24  1  0
M  END
