
     RDKit          3D

 19 18  0  0  0  0  0  0  0  0999 V2000
   -0.6378   -1.8839    0.5670 C   0  0  0  0  0  0  0  0  0  0  0  0
   -0.4003   -0.4780   -0.0351 C   0  0  0  0  0  0  0  0  0  0  0  0
   -1.7299    0.1795   -0.1543 C   0  0  0  0  0  0  0  0  0  0  0  0
   -1.7327    1.5250   -0.7020 C   0  0  0  0  0  0  0  0  0  0  0  0
   -0.7657    2.1430   -1.0562 O   0  0  0  0  0  0  0  0  0  0  0  0
    0.5339    0.1988    0.7366 O   0  0  0  0  0  0  0  0  0  0  0  0
    1.7100    0.2861    0.0088 C   0  0  0  0  0  0  0  0  0  0  0  0
    2.7747    1.0049    0.7408 C   0  0  0  0  0  0  0  0  0  0  0  0
    2.5240    1.4258    1.8515 O   0  0  0  0  0  0  0  0  0  0  0  0
   -1.0640   -2.5369   -0.2229 H   0  0  0  0  0  0  0  0  0  0  0  0
   -1.4107   -1.7343    1.3466 H   0  0  0  0  0  0  0  0  0  0  0  0
    0.2960   -2.3199    0.9339 H   0  0  0  0  0  0  0  0  0  0  0  0
   -0.0109   -0.7069   -1.0524 H   0  0  0  0  0  0  0  0  0  0  0  0
   -2.2785    0.1176    0.8375 H   0  0  0  0  0  0  0  0  0  0  0  0
   -2.3963   -0.4506   -0.8252 H   0  0  0  0  0  0  0  0  0  0  0  0
   -2.6965    2.0385   -0.8089 H   0  0  0  0  0  0  0  0  0  0  0  0
    1.5394    0.8081   -0.9333 H   0  0  0  0  0  0  0  0  0  0  0  0
    1.9994   -0.7659   -0.2244 H   0  0  0  0  0  0  0  0  0  0  0  0
    3.7459    1.1491    0.2967 H   0  0  0  0  0  0  0  0  0  0  0  0
  1  2  1  0
  2  3  1  0
  3  4  1  0
  4  5  2  0
  2  6  1  0
  6  7  1  0
  7  8  1  0
  8  9  2  0
  1 10  1  0
  1 11  1  0
  1 12  1  0
  2 13  1  0
  3 14  1  0
  3 15  1  0
  4 16  1  0
  7 17  1  0
  7 18  1  0
  8 19  1  0
M  END
