
     RDKit          3D

 25 25  0  0  0  0  0  0  0  0999 V2000
   -2.2276    1.1465    0.5720 C   0  0  0  0  0  0  0  0  0  0  0  0
   -1.1958    0.1117    0.8754 C   0  0  0  0  0  0  0  0  0  0  0  0
   -1.7471   -1.2795    0.8169 C   0  0  0  0  0  0  0  0  0  0  0  0
    0.0395    0.2992    0.0147 C   0  0  0  0  0  0  0  0  0  0  0  0
   -0.2928    0.1960   -1.4583 C   0  0  0  0  0  0  0  0  0  0  0  0
    1.1033   -0.6269    0.4575 C   0  0  0  0  0  0  0  0  0  0  0  0
    2.4366   -0.7189   -0.1496 C   0  0  0  0  0  0  0  0  0  0  0  0
    2.2940    0.0315    1.1736 C   0  0  0  0  0  0  0  0  0  0  0  0
    2.4019    1.4284    1.0272 O   0  0  0  0  0  0  0  0  0  0  0  0
   -3.1742    0.6627    0.2397 H   0  0  0  0  0  0  0  0  0  0  0  0
   -1.9140    1.8015   -0.2752 H   0  0  0  0  0  0  0  0  0  0  0  0
   -2.4378    1.8072    1.4351 H   0  0  0  0  0  0  0  0  0  0  0  0
   -0.8448    0.2944    1.9326 H   0  0  0  0  0  0  0  0  0  0  0  0
   -1.4492   -1.8609    1.6968 H   0  0  0  0  0  0  0  0  0  0  0  0
   -1.5256   -1.8098   -0.1368 H   0  0  0  0  0  0  0  0  0  0  0  0
   -2.8714   -1.1783    0.8558 H   0  0  0  0  0  0  0  0  0  0  0  0
    0.3765    1.3408    0.1872 H   0  0  0  0  0  0  0  0  0  0  0  0
    0.5876   -0.0893   -2.0584 H   0  0  0  0  0  0  0  0  0  0  0  0
   -1.1312   -0.5049   -1.6518 H   0  0  0  0  0  0  0  0  0  0  0  0
   -0.6377    1.1881   -1.8175 H   0  0  0  0  0  0  0  0  0  0  0  0
    0.7216   -1.5455    0.9891 H   0  0  0  0  0  0  0  0  0  0  0  0
    2.7339   -0.1580   -1.0482 H   0  0  0  0  0  0  0  0  0  0  0  0
    2.9774   -1.6807   -0.0351 H   0  0  0  0  0  0  0  0  0  0  0  0
    2.6664   -0.4315    2.0927 H   0  0  0  0  0  0  0  0  0  0  0  0
    3.1104    1.5763    0.3664 H   0  0  0  0  0  0  0  0  0  0  0  0
  1  2  1  0
  2  3  1  0
  2  4  1  0
  4  5  1  0
  4  6  1  0
  6  7  1  0
  7  8  1  0
  8  9  1  0
  8  6  1  0
  1 10  1  0
  1 11  1  0
  1 12  1  0
  2 13  1  0
  3 14  1  0
  3 15  1  0
  3 16  1  0
  4 17  1  0
  5 18  1  0
  5 19  1  0
  5 20  1  0
  6 21  1  0
  7 22  1  0
  7 23  1  0
  8 24  1  0
  9 25  1  0
M  END
