
     RDKit          3D

 21 21  0  0  0  0  0  0  0  0999 V2000
   -1.6609   -0.9601   -0.7468 C   0  0  0  0  0  0  0  0  0  0  0  0
   -0.9973    0.3221   -0.3322 C   0  0  0  0  0  0  0  0  0  0  0  0
   -1.9887    1.1727    0.3353 C   0  0  0  0  0  0  0  0  0  0  0  0
   -1.7768    1.9280    1.2663 O   0  0  0  0  0  0  0  0  0  0  0  0
    0.1890   -0.0240    0.5277 C   0  0  0  0  0  0  0  0  0  0  0  0
   -0.1474   -0.7342    1.6822 O   0  0  0  0  0  0  0  0  0  0  0  0
    1.1945   -0.8060   -0.2928 C   0  0  0  0  0  0  0  0  0  0  0  0
    2.2043    0.2708    0.0103 C   0  0  0  0  0  0  0  0  0  0  0  0
    1.1691    1.0715    0.7854 C   0  0  0  0  0  0  0  0  0  0  0  0
   -2.5664   -1.1404   -0.1524 H   0  0  0  0  0  0  0  0  0  0  0  0
   -1.8684   -0.9545   -1.8349 H   0  0  0  0  0  0  0  0  0  0  0  0
   -0.9915   -1.8471   -0.5534 H   0  0  0  0  0  0  0  0  0  0  0  0
   -0.6116    0.8467   -1.2403 H   0  0  0  0  0  0  0  0  0  0  0  0
   -3.0076    1.1261   -0.0338 H   0  0  0  0  0  0  0  0  0  0  0  0
    0.5414   -1.4253    1.8893 H   0  0  0  0  0  0  0  0  0  0  0  0
    1.4366   -1.8125    0.1171 H   0  0  0  0  0  0  0  0  0  0  0  0
    0.9413   -0.9220   -1.3658 H   0  0  0  0  0  0  0  0  0  0  0  0
    3.0179   -0.1517    0.6357 H   0  0  0  0  0  0  0  0  0  0  0  0
    2.5784    0.7962   -0.8907 H   0  0  0  0  0  0  0  0  0  0  0  0
    0.8831    2.0231    0.3208 H   0  0  0  0  0  0  0  0  0  0  0  0
    1.4609    1.2207    1.8555 H   0  0  0  0  0  0  0  0  0  0  0  0
  1  2  1  0
  2  3  1  0
  3  4  2  0
  2  5  1  0
  5  6  1  0
  5  7  1  0
  7  8  1  0
  8  9  1  0
  9  5  1  0
  1 10  1  0
  1 11  1  0
  1 12  1  0
  2 13  1  0
  3 14  1  0
  6 15  1  0
  7 16  1  0
  7 17  1  0
  8 18  1  0
  8 19  1  0
  9 20  1  0
  9 21  1  0
M  END
