
     RDKit          3D

 25 25  0  0  0  0  0  0  0  0999 V2000
   -2.0944    0.2518   -0.5823 C   0  0  0  0  0  0  0  0  0  0  0  0
   -1.1879   -0.3827    0.4593 C   0  0  0  0  0  0  0  0  0  0  0  0
   -1.3873    0.2974    1.7609 C   0  0  0  0  0  0  0  0  0  0  0  0
    0.1901   -0.3752   -0.0809 C   0  0  0  0  0  0  0  0  0  0  0  0
    0.2736   -1.1608   -1.3733 C   0  0  0  0  0  0  0  0  0  0  0  0
    1.3371   -0.6462    0.7968 C   0  0  0  0  0  0  0  0  0  0  0  0
    2.0619    0.5464    0.1533 C   0  0  0  0  0  0  0  0  0  0  0  0
    2.8424    0.1725   -0.9468 O   0  0  0  0  0  0  0  0  0  0  0  0
    0.6963    1.0631   -0.2422 C   0  0  0  0  0  0  0  0  0  0  0  0
   -2.3460    1.2963   -0.2380 H   0  0  0  0  0  0  0  0  0  0  0  0
   -1.5671    0.3847   -1.5619 H   0  0  0  0  0  0  0  0  0  0  0  0
   -2.9890   -0.3394   -0.7914 H   0  0  0  0  0  0  0  0  0  0  0  0
   -1.5211   -1.4550    0.5574 H   0  0  0  0  0  0  0  0  0  0  0  0
   -1.8434    1.3167    1.6280 H   0  0  0  0  0  0  0  0  0  0  0  0
   -0.4991    0.3883    2.3942 H   0  0  0  0  0  0  0  0  0  0  0  0
   -2.1465   -0.2684    2.3755 H   0  0  0  0  0  0  0  0  0  0  0  0
    0.8803   -2.0808   -1.2706 H   0  0  0  0  0  0  0  0  0  0  0  0
   -0.7477   -1.4845   -1.7191 H   0  0  0  0  0  0  0  0  0  0  0  0
    0.7382   -0.5341   -2.1415 H   0  0  0  0  0  0  0  0  0  0  0  0
    1.2301   -0.5682    1.8784 H   0  0  0  0  0  0  0  0  0  0  0  0
    1.9406   -1.5619    0.5572 H   0  0  0  0  0  0  0  0  0  0  0  0
    2.5777    1.1644    0.9050 H   0  0  0  0  0  0  0  0  0  0  0  0
    2.7487    0.8303   -1.6691 H   0  0  0  0  0  0  0  0  0  0  0  0
    0.5742    1.3642   -1.2872 H   0  0  0  0  0  0  0  0  0  0  0  0
    0.2382    1.7810    0.4383 H   0  0  0  0  0  0  0  0  0  0  0  0
  1  2  1  0
  2  3  1  0
  2  4  1  0
  4  5  1  0
  4  6  1  0
  6  7  1  0
  7  8  1  0
  7  9  1  0
  9  4  1  0
  1 10  1  0
  1 11  1  0
  1 12  1  0
  2 13  1  0
  3 14  1  0
  3 15  1  0
  3 16  1  0
  5 17  1  0
  5 18  1  0
  5 19  1  0
  6 20  1  0
  6 21  1  0
  7 22  1  0
  8 23  1  0
  9 24  1  0
  9 25  1  0
M  END
