
     RDKit          3D

 25 24  0  0  0  0  0  0  0  0999 V2000
   -2.4208    0.7398   -0.7836 C   0  0  0  0  0  0  0  0  0  0  0  0
   -1.1334   -0.1005   -0.6020 C   0  0  0  0  0  0  0  0  0  0  0  0
   -1.5762   -1.4154   -0.0844 C   0  0  0  0  0  0  0  0  0  0  0  0
   -0.2398    0.7222    0.2304 C   0  0  0  0  0  0  0  0  0  0  0  0
    1.0932    0.2312    0.5973 C   0  0  0  0  0  0  0  0  0  0  0  0
    1.0591   -1.0451    1.3969 C   0  0  0  0  0  0  0  0  0  0  0  0
    1.6882    1.1770    1.4763 O   0  0  0  0  0  0  0  0  0  0  0  0
    2.0691    0.1363   -0.5527 C   0  0  0  0  0  0  0  0  0  0  0  0
    2.2057    1.3858   -1.1402 O   0  0  0  0  0  0  0  0  0  0  0  0
   -2.1751    1.7571   -1.0941 H   0  0  0  0  0  0  0  0  0  0  0  0
   -2.8995    0.7137    0.2303 H   0  0  0  0  0  0  0  0  0  0  0  0
   -3.0789    0.1813   -1.4504 H   0  0  0  0  0  0  0  0  0  0  0  0
   -0.7075   -0.2507   -1.6171 H   0  0  0  0  0  0  0  0  0  0  0  0
   -2.6618   -1.5607   -0.3949 H   0  0  0  0  0  0  0  0  0  0  0  0
   -1.5966   -1.5396    0.9990 H   0  0  0  0  0  0  0  0  0  0  0  0
   -1.0816   -2.2909   -0.5573 H   0  0  0  0  0  0  0  0  0  0  0  0
   -0.0920    1.7010   -0.3270 H   0  0  0  0  0  0  0  0  0  0  0  0
   -0.7933    1.0403    1.1652 H   0  0  0  0  0  0  0  0  0  0  0  0
    0.7587   -1.9359    0.8615 H   0  0  0  0  0  0  0  0  0  0  0  0
    0.3184   -0.8864    2.2281 H   0  0  0  0  0  0  0  0  0  0  0  0
    2.0290   -1.1945    1.9575 H   0  0  0  0  0  0  0  0  0  0  0  0
    1.8344    1.9902    0.9520 H   0  0  0  0  0  0  0  0  0  0  0  0
    3.0345   -0.2098   -0.1236 H   0  0  0  0  0  0  0  0  0  0  0  0
    1.7800   -0.5747   -1.3247 H   0  0  0  0  0  0  0  0  0  0  0  0
    2.5863    1.2284   -2.0424 H   0  0  0  0  0  0  0  0  0  0  0  0
  1  2  1  0
  2  3  1  0
  2  4  1  0
  4  5  1  0
  5  6  1  0
  5  7  1  0
  5  8  1  0
  8  9  1  0
  1 10  1  0
  1 11  1  0
  1 12  1  0
  2 13  1  0
  3 14  1  0
  3 15  1  0
  3 16  1  0
  4 17  1  0
  4 18  1  0
  6 19  1  0
  6 20  1  0
  6 21  1  0
  7 22  1  0
  8 23  1  0
  8 24  1  0
  9 25  1  0
M  END
