
     RDKit          3D

 23 23  0  0  0  0  0  0  0  0999 V2000
   -2.7778    0.1943   -1.1272 C   0  0  0  0  0  0  0  0  0  0  0  0
   -1.5191   -0.5309   -0.6880 C   0  0  0  0  0  0  0  0  0  0  0  0
   -1.9654   -1.5706    0.3044 C   0  0  0  0  0  0  0  0  0  0  0  0
   -1.7735   -2.7455    0.1726 O   0  0  0  0  0  0  0  0  0  0  0  0
   -0.6594    0.4653    0.0420 C   0  0  0  0  0  0  0  0  0  0  0  0
    0.6342   -0.1357    0.5351 C   0  0  0  0  0  0  0  0  0  0  0  0
    1.5160    0.8521    1.2740 C   0  0  0  0  0  0  0  0  0  0  0  0
    1.9289    0.3398   -0.0445 C   0  0  0  0  0  0  0  0  0  0  0  0
    3.1081   -0.5956   -0.0693 C   0  0  0  0  0  0  0  0  0  0  0  0
   -3.4970    0.2757   -0.2745 H   0  0  0  0  0  0  0  0  0  0  0  0
   -3.2298   -0.3013   -2.0092 H   0  0  0  0  0  0  0  0  0  0  0  0
   -2.5486    1.2378   -1.4430 H   0  0  0  0  0  0  0  0  0  0  0  0
   -1.0198   -1.0341   -1.5126 H   0  0  0  0  0  0  0  0  0  0  0  0
   -2.4937   -1.1980    1.1875 H   0  0  0  0  0  0  0  0  0  0  0  0
   -1.2082    0.8394    0.9165 H   0  0  0  0  0  0  0  0  0  0  0  0
   -0.4008    1.3262   -0.6001 H   0  0  0  0  0  0  0  0  0  0  0  0
    0.6469   -1.1780    0.9160 H   0  0  0  0  0  0  0  0  0  0  0  0
    1.1726    1.9032    1.3884 H   0  0  0  0  0  0  0  0  0  0  0  0
    2.0494    0.4938    2.1986 H   0  0  0  0  0  0  0  0  0  0  0  0
    1.8597    1.0333   -0.9034 H   0  0  0  0  0  0  0  0  0  0  0  0
    3.6339   -0.5898    0.9154 H   0  0  0  0  0  0  0  0  0  0  0  0
    3.8368   -0.2830   -0.8672 H   0  0  0  0  0  0  0  0  0  0  0  0
    2.7065   -1.6172   -0.3114 H   0  0  0  0  0  0  0  0  0  0  0  0
  1  2  1  0
  2  3  1  0
  3  4  2  0
  2  5  1  0
  5  6  1  0
  6  7  1  0
  7  8  1  0
  8  9  1  0
  8  6  1  0
  1 10  1  0
  1 11  1  0
  1 12  1  0
  2 13  1  0
  3 14  1  0
  5 15  1  0
  5 16  1  0
  6 17  1  0
  7 18  1  0
  7 19  1  0
  8 20  1  0
  9 21  1  0
  9 22  1  0
  9 23  1  0
M  END
