
     RDKit          3D

 23 22  0  0  0  0  0  0  0  0999 V2000
    0.8876    1.6333    0.6855 C   0  0  0  0  0  0  0  0  0  0  0  0
    0.6420    0.5582   -0.3782 C   0  0  0  0  0  0  0  0  0  0  0  0
    1.7328   -0.4520   -0.2354 C   0  0  0  0  0  0  0  0  0  0  0  0
    1.6494   -1.4984   -1.1369 O   0  0  0  0  0  0  0  0  0  0  0  0
   -0.7359   -0.0235   -0.1885 C   0  0  0  0  0  0  0  0  0  0  0  0
   -0.9586   -1.0831   -1.2484 C   0  0  0  0  0  0  0  0  0  0  0  0
   -0.9676   -0.5680    1.1864 C   0  0  0  0  0  0  0  0  0  0  0  0
   -1.7151    1.0607   -0.4725 C   0  0  0  0  0  0  0  0  0  0  0  0
   -2.7202    1.2046    0.1776 O   0  0  0  0  0  0  0  0  0  0  0  0
    1.9685    1.8264    0.7769 H   0  0  0  0  0  0  0  0  0  0  0  0
    0.3873    2.5744    0.3816 H   0  0  0  0  0  0  0  0  0  0  0  0
    0.4782    1.2102    1.6266 H   0  0  0  0  0  0  0  0  0  0  0  0
    0.7038    1.0725   -1.3592 H   0  0  0  0  0  0  0  0  0  0  0  0
    2.7086    0.0656   -0.3392 H   0  0  0  0  0  0  0  0  0  0  0  0
    1.7015   -0.8293    0.8237 H   0  0  0  0  0  0  0  0  0  0  0  0
    2.0454   -2.3305   -0.7635 H   0  0  0  0  0  0  0  0  0  0  0  0
   -0.6020   -2.0774   -0.9146 H   0  0  0  0  0  0  0  0  0  0  0  0
   -2.0420   -1.1001   -1.4684 H   0  0  0  0  0  0  0  0  0  0  0  0
   -0.3589   -0.7678   -2.1382 H   0  0  0  0  0  0  0  0  0  0  0  0
   -1.3084    0.2303    1.9058 H   0  0  0  0  0  0  0  0  0  0  0  0
   -0.1572   -1.1707    1.5915 H   0  0  0  0  0  0  0  0  0  0  0  0
   -1.8608   -1.2547    1.1124 H   0  0  0  0  0  0  0  0  0  0  0  0
   -1.4785    1.7194   -1.2987 H   0  0  0  0  0  0  0  0  0  0  0  0
  1  2  1  0
  2  3  1  0
  3  4  1  0
  2  5  1  0
  5  6  1  0
  5  7  1  0
  5  8  1  0
  8  9  2  0
  1 10  1  0
  1 11  1  0
  1 12  1  0
  2 13  1  0
  3 14  1  0
  3 15  1  0
  4 16  1  0
  6 17  1  0
  6 18  1  0
  6 19  1  0
  7 20  1  0
  7 21  1  0
  7 22  1  0
  8 23  1  0
M  END
