
     RDKit          3D

 25 25  0  0  0  0  0  0  0  0999 V2000
   -2.2655    1.0268    1.0611 C   0  0  0  0  0  0  0  0  0  0  0  0
   -1.9129    0.1288   -0.0696 C   0  0  0  0  0  0  0  0  0  0  0  0
   -3.0601   -0.8200   -0.3128 C   0  0  0  0  0  0  0  0  0  0  0  0
   -0.6464   -0.6539    0.1389 C   0  0  0  0  0  0  0  0  0  0  0  0
    0.5598    0.1928    0.3338 C   0  0  0  0  0  0  0  0  0  0  0  0
    1.7905   -0.6722    0.5368 C   0  0  0  0  0  0  0  0  0  0  0  0
    2.3781    0.5564   -0.1697 C   0  0  0  0  0  0  0  0  0  0  0  0
    3.5774    0.2402   -0.9962 C   0  0  0  0  0  0  0  0  0  0  0  0
    1.1675    0.6367   -0.8644 O   0  0  0  0  0  0  0  0  0  0  0  0
   -1.8414    2.0435    0.8756 H   0  0  0  0  0  0  0  0  0  0  0  0
   -1.9951    0.6439    2.0614 H   0  0  0  0  0  0  0  0  0  0  0  0
   -3.3702    1.1648    1.0710 H   0  0  0  0  0  0  0  0  0  0  0  0
   -1.7878    0.7402   -0.9929 H   0  0  0  0  0  0  0  0  0  0  0  0
   -3.0089   -1.5994    0.4768 H   0  0  0  0  0  0  0  0  0  0  0  0
   -4.0204   -0.2855   -0.1621 H   0  0  0  0  0  0  0  0  0  0  0  0
   -3.0443   -1.2894   -1.3012 H   0  0  0  0  0  0  0  0  0  0  0  0
   -0.7841   -1.3063    1.0357 H   0  0  0  0  0  0  0  0  0  0  0  0
   -0.4565   -1.3448   -0.7059 H   0  0  0  0  0  0  0  0  0  0  0  0
    0.5239    0.9597    1.1146 H   0  0  0  0  0  0  0  0  0  0  0  0
    1.8575   -1.5578   -0.1016 H   0  0  0  0  0  0  0  0  0  0  0  0
    2.1254   -0.7754    1.5767 H   0  0  0  0  0  0  0  0  0  0  0  0
    2.4664    1.4345    0.4943 H   0  0  0  0  0  0  0  0  0  0  0  0
    3.6301    0.8572   -1.9289 H   0  0  0  0  0  0  0  0  0  0  0  0
    4.4847    0.5157   -0.3896 H   0  0  0  0  0  0  0  0  0  0  0  0
    3.6324   -0.8367   -1.1927 H   0  0  0  0  0  0  0  0  0  0  0  0
  1  2  1  0
  2  3  1  0
  2  4  1  0
  4  5  1  0
  5  6  1  0
  6  7  1  0
  7  8  1  0
  7  9  1  0
  9  5  1  0
  1 10  1  0
  1 11  1  0
  1 12  1  0
  2 13  1  0
  3 14  1  0
  3 15  1  0
  3 16  1  0
  4 17  1  0
  4 18  1  0
  5 19  1  0
  6 20  1  0
  6 21  1  0
  7 22  1  0
  8 23  1  0
  8 24  1  0
  8 25  1  0
M  END
