
     RDKit          3D

 22 22  0  0  0  0  0  0  0  0999 V2000
    0.9864    1.1143    1.1526 C   0  0  0  0  0  0  0  0  0  0  0  0
    0.5273    0.2190    0.0168 C   0  0  0  0  0  0  0  0  0  0  0  0
    0.4639    1.0210   -1.2372 C   0  0  0  0  0  0  0  0  0  0  0  0
    1.5890   -0.8555   -0.1414 C   0  0  0  0  0  0  0  0  0  0  0  0
   -0.7577   -0.4707    0.3741 C   0  0  0  0  0  0  0  0  0  0  0  0
   -0.6601   -1.2791    1.5109 O   0  0  0  0  0  0  0  0  0  0  0  0
   -2.0739    0.0256    0.0027 C   0  0  0  0  0  0  0  0  0  0  0  0
   -1.5151   -1.1230   -0.7728 C   0  0  0  0  0  0  0  0  0  0  0  0
    2.0357    1.4272    0.9160 H   0  0  0  0  0  0  0  0  0  0  0  0
    1.0761    0.4553    2.0479 H   0  0  0  0  0  0  0  0  0  0  0  0
    0.3237    1.9718    1.3224 H   0  0  0  0  0  0  0  0  0  0  0  0
    0.7774    0.4388   -2.1175 H   0  0  0  0  0  0  0  0  0  0  0  0
   -0.5195    1.4643   -1.4533 H   0  0  0  0  0  0  0  0  0  0  0  0
    1.1793    1.8879   -1.1771 H   0  0  0  0  0  0  0  0  0  0  0  0
    1.7266   -1.3468    0.8330 H   0  0  0  0  0  0  0  0  0  0  0  0
    2.5408   -0.3115   -0.3546 H   0  0  0  0  0  0  0  0  0  0  0  0
    1.3528   -1.5491   -0.9692 H   0  0  0  0  0  0  0  0  0  0  0  0
   -0.7504   -0.7675    2.3396 H   0  0  0  0  0  0  0  0  0  0  0  0
   -2.9279   -0.2435    0.6925 H   0  0  0  0  0  0  0  0  0  0  0  0
   -2.2721    0.9607   -0.5373 H   0  0  0  0  0  0  0  0  0  0  0  0
   -1.8969   -2.1486   -0.6373 H   0  0  0  0  0  0  0  0  0  0  0  0
   -1.2056   -0.8908   -1.8108 H   0  0  0  0  0  0  0  0  0  0  0  0
  1  2  1  0
  2  3  1  0
  2  4  1  0
  2  5  1  0
  5  6  1  0
  5  7  1  0
  7  8  1  0
  8  5  1  0
  1  9  1  0
  1 10  1  0
  1 11  1  0
  3 12  1  0
  3 13  1  0
  3 14  1  0
  4 15  1  0
  4 16  1  0
  4 17  1  0
  6 18  1  0
  7 19  1  0
  7 20  1  0
  8 21  1  0
  8 22  1  0
M  END
