
     RDKit          3D

 23 22  0  0  0  0  0  0  0  0999 V2000
    1.2585    1.2485    0.8415 C   0  0  0  0  0  0  0  0  0  0  0  0
    0.7632    0.4180   -0.3114 C   0  0  0  0  0  0  0  0  0  0  0  0
    1.7701   -0.6521   -0.5893 C   0  0  0  0  0  0  0  0  0  0  0  0
   -0.5440   -0.2070    0.0678 C   0  0  0  0  0  0  0  0  0  0  0  0
   -1.1031   -1.0582   -1.0449 C   0  0  0  0  0  0  0  0  0  0  0  0
   -0.3353   -1.1178    1.2632 C   0  0  0  0  0  0  0  0  0  0  0  0
   -1.5314    0.7008    0.4654 O   0  0  0  0  0  0  0  0  0  0  0  0
   -2.0393    1.7150   -0.3088 C   0  0  0  0  0  0  0  0  0  0  0  0
   -1.5385    1.7849   -1.4589 O   0  0  0  0  0  0  0  0  0  0  0  0
    0.3783    1.5489    1.4674 H   0  0  0  0  0  0  0  0  0  0  0  0
    1.8271    2.1396    0.4991 H   0  0  0  0  0  0  0  0  0  0  0  0
    1.9219    0.6487    1.4877 H   0  0  0  0  0  0  0  0  0  0  0  0
    0.6577    1.0137   -1.2464 H   0  0  0  0  0  0  0  0  0  0  0  0
    2.5870   -0.6883    0.1902 H   0  0  0  0  0  0  0  0  0  0  0  0
    2.3356   -0.4667   -1.5498 H   0  0  0  0  0  0  0  0  0  0  0  0
    1.3701   -1.6614   -0.6668 H   0  0  0  0  0  0  0  0  0  0  0  0
   -2.1718   -1.2706   -0.7655 H   0  0  0  0  0  0  0  0  0  0  0  0
   -0.6035   -2.0362   -1.1336 H   0  0  0  0  0  0  0  0  0  0  0  0
   -1.1236   -0.4931   -1.9923 H   0  0  0  0  0  0  0  0  0  0  0  0
   -0.0547   -0.5179    2.1753 H   0  0  0  0  0  0  0  0  0  0  0  0
    0.3455   -1.9438    1.0743 H   0  0  0  0  0  0  0  0  0  0  0  0
   -1.3633   -1.5139    1.5148 H   0  0  0  0  0  0  0  0  0  0  0  0
   -2.8067    2.4089    0.0210 H   0  0  0  0  0  0  0  0  0  0  0  0
  1  2  1  0
  2  3  1  0
  2  4  1  0
  4  5  1  0
  4  6  1  0
  4  7  1  0
  7  8  1  0
  8  9  2  0
  1 10  1  0
  1 11  1  0
  1 12  1  0
  2 13  1  0
  3 14  1  0
  3 15  1  0
  3 16  1  0
  5 17  1  0
  5 18  1  0
  5 19  1  0
  6 20  1  0
  6 21  1  0
  6 22  1  0
  8 23  1  0
M  END
