
     RDKit          3D

 23 23  0  0  0  0  0  0  0  0999 V2000
    1.1799   -1.6821   -0.8412 C   0  0  0  0  0  0  0  0  0  0  0  0
    0.9397   -0.2498   -0.5043 C   0  0  0  0  0  0  0  0  0  0  0  0
    2.2234    0.3105    0.1151 C   0  0  0  0  0  0  0  0  0  0  0  0
    2.0470    1.7281    0.4822 C   0  0  0  0  0  0  0  0  0  0  0  0
    2.0070    2.1293    1.6276 O   0  0  0  0  0  0  0  0  0  0  0  0
   -0.1885    0.0367    0.4108 C   0  0  0  0  0  0  0  0  0  0  0  0
   -1.5310   -0.4099   -0.0904 C   0  0  0  0  0  0  0  0  0  0  0  0
   -2.6711   -0.0896    0.8973 C   0  0  0  0  0  0  0  0  0  0  0  0
   -2.5938    0.6144   -0.4291 C   0  0  0  0  0  0  0  0  0  0  0  0
    2.0912   -1.7357   -1.4707 H   0  0  0  0  0  0  0  0  0  0  0  0
    0.3650   -2.0981   -1.4681 H   0  0  0  0  0  0  0  0  0  0  0  0
    1.3740   -2.3162    0.0561 H   0  0  0  0  0  0  0  0  0  0  0  0
    0.7328    0.2739   -1.4738 H   0  0  0  0  0  0  0  0  0  0  0  0
    2.5005   -0.2640    1.0189 H   0  0  0  0  0  0  0  0  0  0  0  0
    3.0167    0.1471   -0.6358 H   0  0  0  0  0  0  0  0  0  0  0  0
    1.9500    2.4886   -0.3115 H   0  0  0  0  0  0  0  0  0  0  0  0
   -0.2409    1.1357    0.5442 H   0  0  0  0  0  0  0  0  0  0  0  0
   -0.0016   -0.3546    1.4483 H   0  0  0  0  0  0  0  0  0  0  0  0
   -1.6049   -1.3447   -0.6660 H   0  0  0  0  0  0  0  0  0  0  0  0
   -2.4376    0.5006    1.7968 H   0  0  0  0  0  0  0  0  0  0  0  0
   -3.4552   -0.8716    1.0482 H   0  0  0  0  0  0  0  0  0  0  0  0
   -2.3251    1.6971   -0.3999 H   0  0  0  0  0  0  0  0  0  0  0  0
   -3.3775    0.3544   -1.1547 H   0  0  0  0  0  0  0  0  0  0  0  0
  1  2  1  0
  2  3  1  0
  3  4  1  0
  4  5  2  0
  2  6  1  0
  6  7  1  0
  7  8  1  0
  8  9  1  0
  9  7  1  0
  1 10  1  0
  1 11  1  0
  1 12  1  0
  2 13  1  0
  3 14  1  0
  3 15  1  0
  4 16  1  0
  6 17  1  0
  6 18  1  0
  7 19  1  0
  8 20  1  0
  8 21  1  0
  9 22  1  0
  9 23  1  0
M  END
