
     RDKit          3D

 25 25  0  0  0  0  0  0  0  0999 V2000
   -1.3898    1.4424    0.2778 C   0  0  0  0  0  0  0  0  0  0  0  0
   -0.8479    0.0828    0.5901 C   0  0  0  0  0  0  0  0  0  0  0  0
   -1.9690   -0.9197    0.3045 C   0  0  0  0  0  0  0  0  0  0  0  0
    0.3088   -0.3286   -0.2632 C   0  0  0  0  0  0  0  0  0  0  0  0
    0.0440   -0.3921   -1.7410 C   0  0  0  0  0  0  0  0  0  0  0  0
    0.8734   -1.6459    0.2305 C   0  0  0  0  0  0  0  0  0  0  0  0
    1.9598   -1.0175    0.8279 O   0  0  0  0  0  0  0  0  0  0  0  0
    1.6636    0.1251    0.0981 C   0  0  0  0  0  0  0  0  0  0  0  0
    1.8369    1.3549    0.8980 C   0  0  0  0  0  0  0  0  0  0  0  0
   -0.9198    1.9333   -0.5785 H   0  0  0  0  0  0  0  0  0  0  0  0
   -1.3110    2.0528    1.2262 H   0  0  0  0  0  0  0  0  0  0  0  0
   -2.4939    1.4320    0.0616 H   0  0  0  0  0  0  0  0  0  0  0  0
   -0.5774   -0.0637    1.6526 H   0  0  0  0  0  0  0  0  0  0  0  0
   -2.7722   -0.4532   -0.3185 H   0  0  0  0  0  0  0  0  0  0  0  0
   -2.4580   -1.2679    1.2240 H   0  0  0  0  0  0  0  0  0  0  0  0
   -1.6175   -1.7952   -0.2441 H   0  0  0  0  0  0  0  0  0  0  0  0
    1.0308   -0.3437   -2.2743 H   0  0  0  0  0  0  0  0  0  0  0  0
   -0.5696    0.4357   -2.1068 H   0  0  0  0  0  0  0  0  0  0  0  0
   -0.3809   -1.3993   -2.0252 H   0  0  0  0  0  0  0  0  0  0  0  0
    0.2678   -2.1533    1.0087 H   0  0  0  0  0  0  0  0  0  0  0  0
    1.1975   -2.3496   -0.5343 H   0  0  0  0  0  0  0  0  0  0  0  0
    2.3309    0.1412   -0.8116 H   0  0  0  0  0  0  0  0  0  0  0  0
    1.0509    2.1138    0.7854 H   0  0  0  0  0  0  0  0  0  0  0  0
    1.9418    1.1404    1.9932 H   0  0  0  0  0  0  0  0  0  0  0  0
    2.8012    1.8754    0.6249 H   0  0  0  0  0  0  0  0  0  0  0  0
  1  2  1  0
  2  3  1  0
  2  4  1  0
  4  5  1  0
  4  6  1  0
  6  7  1  0
  7  8  1  0
  8  9  1  0
  8  4  1  0
  1 10  1  0
  1 11  1  0
  1 12  1  0
  2 13  1  0
  3 14  1  0
  3 15  1  0
  3 16  1  0
  5 17  1  0
  5 18  1  0
  5 19  1  0
  6 20  1  0
  6 21  1  0
  8 22  1  0
  9 23  1  0
  9 24  1  0
  9 25  1  0
M  END
