
     RDKit          3D

 22 22  0  0  0  0  0  0  0  0999 V2000
   -1.5603    1.2774   -0.0006 C   0  0  0  0  0  0  0  0  0  0  0  0
   -0.7767    0.0474    0.2906 C   0  0  0  0  0  0  0  0  0  0  0  0
   -1.7379   -1.1359    0.1776 C   0  0  0  0  0  0  0  0  0  0  0  0
   -0.2933    0.0412    1.5967 O   0  0  0  0  0  0  0  0  0  0  0  0
    0.3396   -0.2069   -0.6902 C   0  0  0  0  0  0  0  0  0  0  0  0
    1.3840    0.8718   -0.7806 C   0  0  0  0  0  0  0  0  0  0  0  0
    2.2065    0.0982    0.2282 C   0  0  0  0  0  0  0  0  0  0  0  0
    1.4188   -1.1381   -0.1666 C   0  0  0  0  0  0  0  0  0  0  0  0
   -1.9271    1.2193   -1.0505 H   0  0  0  0  0  0  0  0  0  0  0  0
   -2.4684    1.2665    0.6418 H   0  0  0  0  0  0  0  0  0  0  0  0
   -1.0266    2.2220    0.1703 H   0  0  0  0  0  0  0  0  0  0  0  0
   -1.9765   -1.2108   -0.9138 H   0  0  0  0  0  0  0  0  0  0  0  0
   -2.7115   -0.8639    0.6608 H   0  0  0  0  0  0  0  0  0  0  0  0
   -1.3068   -2.0582    0.5786 H   0  0  0  0  0  0  0  0  0  0  0  0
   -0.8779    0.5688    2.2064 H   0  0  0  0  0  0  0  0  0  0  0  0
   -0.0014   -0.5793   -1.6783 H   0  0  0  0  0  0  0  0  0  0  0  0
    1.9049    0.8134   -1.7737 H   0  0  0  0  0  0  0  0  0  0  0  0
    1.0388    1.8567   -0.4758 H   0  0  0  0  0  0  0  0  0  0  0  0
    3.2870    0.0543    0.0103 H   0  0  0  0  0  0  0  0  0  0  0  0
    2.0096    0.3372    1.2797 H   0  0  0  0  0  0  0  0  0  0  0  0
    1.1104   -1.7880    0.6562 H   0  0  0  0  0  0  0  0  0  0  0  0
    1.9647   -1.6932   -0.9672 H   0  0  0  0  0  0  0  0  0  0  0  0
  1  2  1  0
  2  3  1  0
  2  4  1  0
  2  5  1  0
  5  6  1  0
  6  7  1  0
  7  8  1  0
  8  5  1  0
  1  9  1  0
  1 10  1  0
  1 11  1  0
  3 12  1  0
  3 13  1  0
  3 14  1  0
  4 15  1  0
  5 16  1  0
  6 17  1  0
  6 18  1  0
  7 19  1  0
  7 20  1  0
  8 21  1  0
  8 22  1  0
M  END
