
     RDKit          3D

 25 24  0  0  0  0  0  0  0  0999 V2000
    2.0484   -0.1558    1.0434 C   0  0  0  0  0  0  0  0  0  0  0  0
    1.4824    0.2568   -0.2997 C   0  0  0  0  0  0  0  0  0  0  0  0
    1.3077   -0.9264   -1.1595 C   0  0  0  0  0  0  0  0  0  0  0  0
    0.3966    1.2480   -0.2021 C   0  0  0  0  0  0  0  0  0  0  0  0
   -0.8262    0.9322    0.5744 C   0  0  0  0  0  0  0  0  0  0  0  0
   -1.6285    2.1351    0.4510 O   0  0  0  0  0  0  0  0  0  0  0  0
   -1.7317   -0.1283   -0.0073 C   0  0  0  0  0  0  0  0  0  0  0  0
   -1.3562   -1.5362    0.3524 C   0  0  0  0  0  0  0  0  0  0  0  0
   -2.0261    0.0566   -1.3373 O   0  0  0  0  0  0  0  0  0  0  0  0
    1.2208   -0.0974    1.7694 H   0  0  0  0  0  0  0  0  0  0  0  0
    2.8708    0.5063    1.3955 H   0  0  0  0  0  0  0  0  0  0  0  0
    2.4803   -1.1649    0.9327 H   0  0  0  0  0  0  0  0  0  0  0  0
    2.3706    0.8420   -0.7674 H   0  0  0  0  0  0  0  0  0  0  0  0
    0.4437   -0.9358   -1.8365 H   0  0  0  0  0  0  0  0  0  0  0  0
    2.2070   -1.0256   -1.8428 H   0  0  0  0  0  0  0  0  0  0  0  0
    1.3677   -1.8509   -0.5339 H   0  0  0  0  0  0  0  0  0  0  0  0
    0.8719    2.2093    0.1862 H   0  0  0  0  0  0  0  0  0  0  0  0
    0.0676    1.5890   -1.2405 H   0  0  0  0  0  0  0  0  0  0  0  0
   -0.6805    0.8244    1.6543 H   0  0  0  0  0  0  0  0  0  0  0  0
   -1.6155    2.2921   -0.5305 H   0  0  0  0  0  0  0  0  0  0  0  0
   -2.7781    0.0023    0.4939 H   0  0  0  0  0  0  0  0  0  0  0  0
   -2.1599   -2.0677    0.9340 H   0  0  0  0  0  0  0  0  0  0  0  0
   -1.1873   -2.1523   -0.5650 H   0  0  0  0  0  0  0  0  0  0  0  0
   -0.4527   -1.6215    0.9847 H   0  0  0  0  0  0  0  0  0  0  0  0
   -2.6928    0.7687   -1.5038 H   0  0  0  0  0  0  0  0  0  0  0  0
  1  2  1  0
  2  3  1  0
  2  4  1  0
  4  5  1  0
  5  6  1  0
  5  7  1  0
  7  8  1  0
  7  9  1  0
  1 10  1  0
  1 11  1  0
  1 12  1  0
  2 13  1  0
  3 14  1  0
  3 15  1  0
  3 16  1  0
  4 17  1  0
  4 18  1  0
  5 19  1  0
  6 20  1  0
  7 21  1  0
  8 22  1  0
  8 23  1  0
  8 24  1  0
  9 25  1  0
M  END
