
     RDKit          3D

 25 25  0  0  0  0  0  0  0  0999 V2000
   -2.1056   -0.4570   -0.9680 C   0  0  0  0  0  0  0  0  0  0  0  0
   -0.7751   -0.7564   -0.2623 C   0  0  0  0  0  0  0  0  0  0  0  0
   -1.0944   -1.0120    1.1736 C   0  0  0  0  0  0  0  0  0  0  0  0
    0.0936    0.4351   -0.5000 C   0  0  0  0  0  0  0  0  0  0  0  0
   -0.5218    1.7076    0.0635 C   0  0  0  0  0  0  0  0  0  0  0  0
    0.3485    2.7657   -0.1998 O   0  0  0  0  0  0  0  0  0  0  0  0
    1.5068    0.2799   -0.0564 C   0  0  0  0  0  0  0  0  0  0  0  0
    2.3413   -0.7990   -0.6485 C   0  0  0  0  0  0  0  0  0  0  0  0
    1.9811   -0.7768    0.8335 C   0  0  0  0  0  0  0  0  0  0  0  0
   -2.6032   -1.4026   -1.2831 H   0  0  0  0  0  0  0  0  0  0  0  0
   -1.9649    0.2498   -1.7993 H   0  0  0  0  0  0  0  0  0  0  0  0
   -2.7796    0.0339   -0.2357 H   0  0  0  0  0  0  0  0  0  0  0  0
   -0.3356   -1.6184   -0.7775 H   0  0  0  0  0  0  0  0  0  0  0  0
   -2.1824   -0.8390    1.4202 H   0  0  0  0  0  0  0  0  0  0  0  0
   -0.9346   -2.0961    1.4394 H   0  0  0  0  0  0  0  0  0  0  0  0
   -0.5402   -0.3394    1.8728 H   0  0  0  0  0  0  0  0  0  0  0  0
    0.1156    0.5942   -1.6176 H   0  0  0  0  0  0  0  0  0  0  0  0
   -1.4744    1.9544   -0.4472 H   0  0  0  0  0  0  0  0  0  0  0  0
   -0.7396    1.6210    1.1423 H   0  0  0  0  0  0  0  0  0  0  0  0
    0.1540    3.5673    0.3321 H   0  0  0  0  0  0  0  0  0  0  0  0
    2.0483    1.2636    0.0093 H   0  0  0  0  0  0  0  0  0  0  0  0
    3.3994   -0.6464   -0.8948 H   0  0  0  0  0  0  0  0  0  0  0  0
    1.8472   -1.5560   -1.2976 H   0  0  0  0  0  0  0  0  0  0  0  0
    1.4045   -1.6450    1.1479 H   0  0  0  0  0  0  0  0  0  0  0  0
    2.8111   -0.5285    1.5534 H   0  0  0  0  0  0  0  0  0  0  0  0
  1  2  1  0
  2  3  1  0
  2  4  1  0
  4  5  1  0
  5  6  1  0
  4  7  1  0
  7  8  1  0
  8  9  1  0
  9  7  1  0
  1 10  1  0
  1 11  1  0
  1 12  1  0
  2 13  1  0
  3 14  1  0
  3 15  1  0
  3 16  1  0
  4 17  1  0
  5 18  1  0
  5 19  1  0
  6 20  1  0
  7 21  1  0
  8 22  1  0
  8 23  1  0
  9 24  1  0
  9 25  1  0
M  END
