
     RDKit          3D

 19 19  0  0  0  0  0  0  0  0999 V2000
   -1.3453    0.6705   -0.9556 C   0  0  0  0  0  0  0  0  0  0  0  0
   -0.6117   -0.3487   -0.1210 C   0  0  0  0  0  0  0  0  0  0  0  0
   -1.4547   -0.9372    0.9739 C   0  0  0  0  0  0  0  0  0  0  0  0
   -0.2096   -1.3844   -0.9509 O   0  0  0  0  0  0  0  0  0  0  0  0
    0.5590    0.3603    0.5268 C   0  0  0  0  0  0  0  0  0  0  0  0
    1.6036    1.0028   -0.3029 C   0  0  0  0  0  0  0  0  0  0  0  0
    1.9135   -0.2033    0.5147 C   0  0  0  0  0  0  0  0  0  0  0  0
   -2.2356    1.0825   -0.4560 H   0  0  0  0  0  0  0  0  0  0  0  0
   -0.6871    1.5342   -1.1913 H   0  0  0  0  0  0  0  0  0  0  0  0
   -1.6297    0.2408   -1.9485 H   0  0  0  0  0  0  0  0  0  0  0  0
   -2.0871   -0.1954    1.4769 H   0  0  0  0  0  0  0  0  0  0  0  0
   -2.0360   -1.8306    0.6454 H   0  0  0  0  0  0  0  0  0  0  0  0
   -0.7472   -1.3317    1.7548 H   0  0  0  0  0  0  0  0  0  0  0  0
    0.6409   -1.2279   -1.4105 H   0  0  0  0  0  0  0  0  0  0  0  0
    0.2320    0.9000    1.4649 H   0  0  0  0  0  0  0  0  0  0  0  0
    1.4895    0.8866   -1.4026 H   0  0  0  0  0  0  0  0  0  0  0  0
    1.9226    2.0062    0.0068 H   0  0  0  0  0  0  0  0  0  0  0  0
    2.5124   -0.1095    1.4406 H   0  0  0  0  0  0  0  0  0  0  0  0
    2.1706   -1.1151   -0.0654 H   0  0  0  0  0  0  0  0  0  0  0  0
  1  2  1  0
  2  3  1  0
  2  4  1  0
  2  5  1  0
  5  6  1  0
  6  7  1  0
  7  5  1  0
  1  8  1  0
  1  9  1  0
  1 10  1  0
  3 11  1  0
  3 12  1  0
  3 13  1  0
  4 14  1  0
  5 15  1  0
  6 16  1  0
  6 17  1  0
  7 18  1  0
  7 19  1  0
M  END
