
     RDKit          3D

 12 11  0  0  0  0  0  0  0  0999 V2000
   -0.7421   -1.0130    0.3732 C   0  0  0  0  0  0  0  0  0  0  0  0
    0.1063   -0.0696   -0.4306 C   0  0  0  0  0  0  0  0  0  0  0  0
    1.4900    0.0583    0.0876 C   0  0  0  0  0  0  0  0  0  0  0  0
    2.0328   -0.7355    0.8053 O   0  0  0  0  0  0  0  0  0  0  0  0
   -0.5145    1.2817   -0.3709 C   0  0  0  0  0  0  0  0  0  0  0  0
   -1.2559    1.5607    0.5779 O   0  0  0  0  0  0  0  0  0  0  0  0
   -0.1473   -1.7330    0.9782 H   0  0  0  0  0  0  0  0  0  0  0  0
   -1.4993   -1.5221   -0.2668 H   0  0  0  0  0  0  0  0  0  0  0  0
   -1.3325   -0.4243    1.1284 H   0  0  0  0  0  0  0  0  0  0  0  0
    0.1452   -0.3656   -1.5111 H   0  0  0  0  0  0  0  0  0  0  0  0
    2.0354    0.9582   -0.2259 H   0  0  0  0  0  0  0  0  0  0  0  0
   -0.3182    2.0043   -1.1454 H   0  0  0  0  0  0  0  0  0  0  0  0
  1  2  1  0
  2  3  1  0
  3  4  2  0
  2  5  1  0
  5  6  2  0
  1  7  1  0
  1  8  1  0
  1  9  1  0
  2 10  1  0
  3 11  1  0
  5 12  1  0
M  END
