
     RDKit          3D

 21 20  0  0  0  0  0  0  0  0999 V2000
   -0.8123    0.0461   -1.3576 C   0  0  0  0  0  0  0  0  0  0  0  0
   -0.4367   -0.2093    0.0768 C   0  0  0  0  0  0  0  0  0  0  0  0
   -1.4609    0.4661    0.9526 C   0  0  0  0  0  0  0  0  0  0  0  0
   -0.3882   -1.6725    0.4041 C   0  0  0  0  0  0  0  0  0  0  0  0
    0.9625    0.3492    0.3491 C   0  0  0  0  0  0  0  0  0  0  0  0
    1.0360    1.7955    0.1101 C   0  0  0  0  0  0  0  0  0  0  0  0
    0.8786    2.5776    1.0277 O   0  0  0  0  0  0  0  0  0  0  0  0
    1.9501   -0.4055   -0.4450 C   0  0  0  0  0  0  0  0  0  0  0  0
    2.6546   -1.2919    0.0035 O   0  0  0  0  0  0  0  0  0  0  0  0
   -0.4209   -0.7417   -2.0342 H   0  0  0  0  0  0  0  0  0  0  0  0
   -1.9024    0.1874   -1.4845 H   0  0  0  0  0  0  0  0  0  0  0  0
   -0.3412    1.0091   -1.7046 H   0  0  0  0  0  0  0  0  0  0  0  0
   -1.5527    1.5450    0.7288 H   0  0  0  0  0  0  0  0  0  0  0  0
   -2.4396    0.0060    0.7206 H   0  0  0  0  0  0  0  0  0  0  0  0
   -1.1406    0.3109    2.0025 H   0  0  0  0  0  0  0  0  0  0  0  0
   -0.2250   -1.7694    1.4988 H   0  0  0  0  0  0  0  0  0  0  0  0
   -1.3338   -2.2022    0.1787 H   0  0  0  0  0  0  0  0  0  0  0  0
    0.4840   -2.1644   -0.0784 H   0  0  0  0  0  0  0  0  0  0  0  0
    1.1916    0.1610    1.4216 H   0  0  0  0  0  0  0  0  0  0  0  0
    1.2293    2.1713   -0.8766 H   0  0  0  0  0  0  0  0  0  0  0  0
    2.0678   -0.1684   -1.4940 H   0  0  0  0  0  0  0  0  0  0  0  0
  1  2  1  0
  2  3  1  0
  2  4  1  0
  2  5  1  0
  5  6  1  0
  6  7  2  0
  5  8  1  0
  8  9  2  0
  1 10  1  0
  1 11  1  0
  1 12  1  0
  3 13  1  0
  3 14  1  0
  3 15  1  0
  4 16  1  0
  4 17  1  0
  4 18  1  0
  5 19  1  0
  6 20  1  0
  8 21  1  0
M  END
