
     RDKit          3D

 20 19  0  0  0  0  0  0  0  0999 V2000
   -1.4789   -1.0142    1.2224 C   0  0  0  0  0  0  0  0  0  0  0  0
   -0.5454   -0.5336    0.1460 C   0  0  0  0  0  0  0  0  0  0  0  0
   -1.3955   -0.1150   -1.0316 C   0  0  0  0  0  0  0  0  0  0  0  0
    0.3404    0.5901    0.5659 C   0  0  0  0  0  0  0  0  0  0  0  0
    1.1674    0.2732    1.6392 O   0  0  0  0  0  0  0  0  0  0  0  0
    1.2448    1.0505   -0.5545 C   0  0  0  0  0  0  0  0  0  0  0  0
    2.0891   -0.0717   -0.9764 C   0  0  0  0  0  0  0  0  0  0  0  0
    1.6593   -0.8938   -1.7620 O   0  0  0  0  0  0  0  0  0  0  0  0
   -0.9754   -1.2154    2.1832 H   0  0  0  0  0  0  0  0  0  0  0  0
   -2.2575   -0.2612    1.3718 H   0  0  0  0  0  0  0  0  0  0  0  0
   -1.9312   -1.9774    0.9085 H   0  0  0  0  0  0  0  0  0  0  0  0
    0.0637   -1.4118   -0.1487 H   0  0  0  0  0  0  0  0  0  0  0  0
   -2.4620   -0.4675   -0.9159 H   0  0  0  0  0  0  0  0  0  0  0  0
   -1.4189    0.9834   -1.1700 H   0  0  0  0  0  0  0  0  0  0  0  0
   -1.0459   -0.5651   -1.9978 H   0  0  0  0  0  0  0  0  0  0  0  0
   -0.2796    1.4588    0.8886 H   0  0  0  0  0  0  0  0  0  0  0  0
    1.7225    1.0987    1.7929 H   0  0  0  0  0  0  0  0  0  0  0  0
    1.8369    1.9080   -0.1675 H   0  0  0  0  0  0  0  0  0  0  0  0
    0.5679    1.3609   -1.3865 H   0  0  0  0  0  0  0  0  0  0  0  0
    3.0984   -0.1972   -0.6076 H   0  0  0  0  0  0  0  0  0  0  0  0
  1  2  1  0
  2  3  1  0
  2  4  1  0
  4  5  1  0
  4  6  1  0
  6  7  1  0
  7  8  2  0
  1  9  1  0
  1 10  1  0
  1 11  1  0
  2 12  1  0
  3 13  1  0
  3 14  1  0
  3 15  1  0
  4 16  1  0
  5 17  1  0
  6 18  1  0
  6 19  1  0
  7 20  1  0
M  END
