
     RDKit          3D

 23 23  0  0  0  0  0  0  0  0999 V2000
   -2.1688   -1.0367    0.2381 C   0  0  0  0  0  0  0  0  0  0  0  0
   -1.3341    0.1908    0.4013 C   0  0  0  0  0  0  0  0  0  0  0  0
   -2.0999    1.4714    0.1352 C   0  0  0  0  0  0  0  0  0  0  0  0
   -0.1023    0.2120   -0.4534 C   0  0  0  0  0  0  0  0  0  0  0  0
    0.8396   -0.9027   -0.2047 C   0  0  0  0  0  0  0  0  0  0  0  0
    2.1248   -0.9473   -1.0462 C   0  0  0  0  0  0  0  0  0  0  0  0
    2.2005   -0.5227    0.3618 C   0  0  0  0  0  0  0  0  0  0  0  0
    2.5599    0.8756    0.6085 C   0  0  0  0  0  0  0  0  0  0  0  0
    3.1470    1.2674    1.6097 O   0  0  0  0  0  0  0  0  0  0  0  0
   -3.1781   -0.7080   -0.1222 H   0  0  0  0  0  0  0  0  0  0  0  0
   -2.3752   -1.5635    1.2054 H   0  0  0  0  0  0  0  0  0  0  0  0
   -1.7835   -1.7411   -0.5254 H   0  0  0  0  0  0  0  0  0  0  0  0
   -0.9933    0.2212    1.4660 H   0  0  0  0  0  0  0  0  0  0  0  0
   -1.9375    2.2065    0.9666 H   0  0  0  0  0  0  0  0  0  0  0  0
   -3.1781    1.2780   -0.0265 H   0  0  0  0  0  0  0  0  0  0  0  0
   -1.7242    1.9818   -0.7787 H   0  0  0  0  0  0  0  0  0  0  0  0
   -0.4378    0.1565   -1.5160 H   0  0  0  0  0  0  0  0  0  0  0  0
    0.4046    1.1784   -0.3206 H   0  0  0  0  0  0  0  0  0  0  0  0
    0.4309   -1.9040    0.0637 H   0  0  0  0  0  0  0  0  0  0  0  0
    2.2007   -0.2057   -1.8418 H   0  0  0  0  0  0  0  0  0  0  0  0
    2.5379   -1.9466   -1.2830 H   0  0  0  0  0  0  0  0  0  0  0  0
    2.5527   -1.2092    1.1712 H   0  0  0  0  0  0  0  0  0  0  0  0
    2.3143    1.6477   -0.1089 H   0  0  0  0  0  0  0  0  0  0  0  0
  1  2  1  0
  2  3  1  0
  2  4  1  0
  4  5  1  0
  5  6  1  0
  6  7  1  0
  7  8  1  0
  8  9  2  0
  7  5  1  0
  1 10  1  0
  1 11  1  0
  1 12  1  0
  2 13  1  0
  3 14  1  0
  3 15  1  0
  3 16  1  0
  4 17  1  0
  4 18  1  0
  5 19  1  0
  6 20  1  0
  6 21  1  0
  7 22  1  0
  8 23  1  0
M  END
