
     RDKit          3D

 19 20  0  0  0  0  0  0  0  0999 V2000
   -1.7072   -1.3496   -0.5596 C   0  0  0  0  0  0  0  0  0  0  0  0
   -1.1212    0.0009   -0.8871 C   0  0  0  0  0  0  0  0  0  0  0  0
   -1.6797    0.9742    0.0870 C   0  0  0  0  0  0  0  0  0  0  0  0
   -1.8320    0.6667    1.2594 O   0  0  0  0  0  0  0  0  0  0  0  0
    0.3797    0.0006   -0.9050 C   0  0  0  0  0  0  0  0  0  0  0  0
    1.1201   -0.3670    0.3147 C   0  0  0  0  0  0  0  0  0  0  0  0
    2.5475    0.0508    0.5337 C   0  0  0  0  0  0  0  0  0  0  0  0
    2.3979    1.1897   -0.2558 O   0  0  0  0  0  0  0  0  0  0  0  0
    1.0338    1.0701   -0.1069 C   0  0  0  0  0  0  0  0  0  0  0  0
   -1.6593   -1.5634    0.5126 H   0  0  0  0  0  0  0  0  0  0  0  0
   -2.8021   -1.2839   -0.8198 H   0  0  0  0  0  0  0  0  0  0  0  0
   -1.2788   -2.1447   -1.1942 H   0  0  0  0  0  0  0  0  0  0  0  0
   -1.4559    0.2596   -1.9232 H   0  0  0  0  0  0  0  0  0  0  0  0
   -1.9440    1.9667   -0.2935 H   0  0  0  0  0  0  0  0  0  0  0  0
    0.8907   -0.2154   -1.8865 H   0  0  0  0  0  0  0  0  0  0  0  0
    0.5434   -0.7493    1.1621 H   0  0  0  0  0  0  0  0  0  0  0  0
    2.7881    0.3656    1.5788 H   0  0  0  0  0  0  0  0  0  0  0  0
    3.3239   -0.6607    0.1863 H   0  0  0  0  0  0  0  0  0  0  0  0
    0.4550    1.7890    0.4967 H   0  0  0  0  0  0  0  0  0  0  0  0
  1  2  1  0
  2  3  1  0
  3  4  2  0
  2  5  1  0
  5  6  1  0
  6  7  1  0
  7  8  1  0
  8  9  1  0
  9  5  1  0
  9  6  1  0
  1 10  1  0
  1 11  1  0
  1 12  1  0
  2 13  1  0
  3 14  1  0
  5 15  1  0
  6 16  1  0
  7 17  1  0
  7 18  1  0
  9 19  1  0
M  END
