
     RDKit          3D

 23 24  0  0  0  0  0  0  0  0999 V2000
    2.1383   -0.7118   -0.7024 C   0  0  0  0  0  0  0  0  0  0  0  0
    0.9726   -0.2394    0.1788 C   0  0  0  0  0  0  0  0  0  0  0  0
    1.4274    1.0351    0.8086 C   0  0  0  0  0  0  0  0  0  0  0  0
   -0.2022   -0.1225   -0.7145 C   0  0  0  0  0  0  0  0  0  0  0  0
   -0.6153   -1.3958   -1.4029 C   0  0  0  0  0  0  0  0  0  0  0  0
   -1.9495   -1.1003   -1.1759 O   0  0  0  0  0  0  0  0  0  0  0  0
   -1.5799   -0.0251   -0.3761 C   0  0  0  0  0  0  0  0  0  0  0  0
   -2.2256    0.2551    0.9027 C   0  0  0  0  0  0  0  0  0  0  0  0
   -0.8451    1.1479   -1.0757 C   0  0  0  0  0  0  0  0  0  0  0  0
    2.9509   -1.1410   -0.1136 H   0  0  0  0  0  0  0  0  0  0  0  0
    1.7018   -1.4500   -1.4065 H   0  0  0  0  0  0  0  0  0  0  0  0
    2.4611    0.1571   -1.3357 H   0  0  0  0  0  0  0  0  0  0  0  0
    0.8730   -1.0136    0.9725 H   0  0  0  0  0  0  0  0  0  0  0  0
    2.4901    0.8601    1.1519 H   0  0  0  0  0  0  0  0  0  0  0  0
    0.8761    1.3146    1.7234 H   0  0  0  0  0  0  0  0  0  0  0  0
    1.4249    1.8816    0.0963 H   0  0  0  0  0  0  0  0  0  0  0  0
   -0.3279   -2.2996   -0.8129 H   0  0  0  0  0  0  0  0  0  0  0  0
   -0.3638   -1.4698   -2.4723 H   0  0  0  0  0  0  0  0  0  0  0  0
   -1.5918    0.3721    1.7826 H   0  0  0  0  0  0  0  0  0  0  0  0
   -2.8728    1.1748    0.7985 H   0  0  0  0  0  0  0  0  0  0  0  0
   -2.9542   -0.5677    1.1367 H   0  0  0  0  0  0  0  0  0  0  0  0
   -1.0843    1.3107   -2.1400 H   0  0  0  0  0  0  0  0  0  0  0  0
   -0.7035    2.0276   -0.4545 H   0  0  0  0  0  0  0  0  0  0  0  0
  1  2  1  0
  2  3  1  0
  2  4  1  0
  4  5  1  0
  5  6  1  0
  6  7  1  0
  7  8  1  0
  7  9  1  0
  7  4  1  0
  9  4  1  0
  1 10  1  0
  1 11  1  0
  1 12  1  0
  2 13  1  0
  3 14  1  0
  3 15  1  0
  3 16  1  0
  5 17  1  0
  5 18  1  0
  8 19  1  0
  8 20  1  0
  8 21  1  0
  9 22  1  0
  9 23  1  0
M  END
