
     RDKit          3D

 27 27  0  0  0  0  0  0  0  0999 V2000
   -2.7369   -0.3749    1.2113 C   0  0  0  0  0  0  0  0  0  0  0  0
   -1.8861    0.2315    0.0617 C   0  0  0  0  0  0  0  0  0  0  0  0
   -2.1743   -0.6192   -1.1264 C   0  0  0  0  0  0  0  0  0  0  0  0
   -0.5037    0.2609    0.5774 C   0  0  0  0  0  0  0  0  0  0  0  0
    0.5868    0.8171   -0.2584 C   0  0  0  0  0  0  0  0  0  0  0  0
    0.7570    0.0645   -1.5412 C   0  0  0  0  0  0  0  0  0  0  0  0
    1.8872    0.7506    0.5145 C   0  0  0  0  0  0  0  0  0  0  0  0
    2.4299   -0.5242    0.9886 C   0  0  0  0  0  0  0  0  0  0  0  0
    3.1616    0.3366   -0.0507 C   0  0  0  0  0  0  0  0  0  0  0  0
   -3.6860   -0.7544    0.8396 H   0  0  0  0  0  0  0  0  0  0  0  0
   -2.8992    0.4415    1.9424 H   0  0  0  0  0  0  0  0  0  0  0  0
   -2.1745   -1.2125    1.6711 H   0  0  0  0  0  0  0  0  0  0  0  0
   -2.2211    1.2631   -0.1434 H   0  0  0  0  0  0  0  0  0  0  0  0
   -2.3538   -0.0537   -2.0707 H   0  0  0  0  0  0  0  0  0  0  0  0
   -1.4318   -1.4084   -1.2387 H   0  0  0  0  0  0  0  0  0  0  0  0
   -3.1605   -1.1461   -0.9619 H   0  0  0  0  0  0  0  0  0  0  0  0
   -0.2019   -0.7460    1.0060 H   0  0  0  0  0  0  0  0  0  0  0  0
   -0.5446    0.9097    1.5160 H   0  0  0  0  0  0  0  0  0  0  0  0
    0.3342    1.8913   -0.4948 H   0  0  0  0  0  0  0  0  0  0  0  0
   -0.0706    0.2047   -2.2649 H   0  0  0  0  0  0  0  0  0  0  0  0
    1.6647    0.4939   -2.0583 H   0  0  0  0  0  0  0  0  0  0  0  0
    0.9002   -0.9997   -1.3039 H   0  0  0  0  0  0  0  0  0  0  0  0
    1.9441    1.5949    1.2675 H   0  0  0  0  0  0  0  0  0  0  0  0
    2.1333   -1.5031    0.6070 H   0  0  0  0  0  0  0  0  0  0  0  0
    2.8639   -0.5872    2.0207 H   0  0  0  0  0  0  0  0  0  0  0  0
    3.2569   -0.0625   -1.0590 H   0  0  0  0  0  0  0  0  0  0  0  0
    4.1251    0.7314    0.3486 H   0  0  0  0  0  0  0  0  0  0  0  0
  1  2  1  0
  2  3  1  0
  2  4  1  0
  4  5  1  0
  5  6  1  0
  5  7  1  0
  7  8  1  0
  8  9  1  0
  9  7  1  0
  1 10  1  0
  1 11  1  0
  1 12  1  0
  2 13  1  0
  3 14  1  0
  3 15  1  0
  3 16  1  0
  4 17  1  0
  4 18  1  0
  5 19  1  0
  6 20  1  0
  6 21  1  0
  6 22  1  0
  7 23  1  0
  8 24  1  0
  8 25  1  0
  9 26  1  0
  9 27  1  0
M  END
