
     RDKit          3D

 18 17  0  0  0  0  0  0  0  0999 V2000
   -1.5060   -1.1234   -0.1619 C   0  0  0  0  0  0  0  0  0  0  0  0
   -0.6055    0.0765    0.1379 C   0  0  0  0  0  0  0  0  0  0  0  0
   -1.3539    1.2984   -0.3353 C   0  0  0  0  0  0  0  0  0  0  0  0
   -0.4009    0.2207    1.5054 O   0  0  0  0  0  0  0  0  0  0  0  0
    0.7030   -0.0853   -0.5140 C   0  0  0  0  0  0  0  0  0  0  0  0
    0.7458   -0.2276   -1.7229 O   0  0  0  0  0  0  0  0  0  0  0  0
    1.9992   -0.0839    0.2422 C   0  0  0  0  0  0  0  0  0  0  0  0
    3.0701   -0.2533   -0.6114 O   0  0  0  0  0  0  0  0  0  0  0  0
   -2.3244   -1.0797    0.5659 H   0  0  0  0  0  0  0  0  0  0  0  0
   -0.9309   -2.0538   -0.1440 H   0  0  0  0  0  0  0  0  0  0  0  0
   -1.9153   -0.9532   -1.1930 H   0  0  0  0  0  0  0  0  0  0  0  0
   -2.2417    1.4144    0.3447 H   0  0  0  0  0  0  0  0  0  0  0  0
   -1.7688    1.0774   -1.3398 H   0  0  0  0  0  0  0  0  0  0  0  0
   -0.7402    2.2018   -0.3825 H   0  0  0  0  0  0  0  0  0  0  0  0
   -0.7555   -0.5271    2.0315 H   0  0  0  0  0  0  0  0  0  0  0  0
    2.0962    0.9198    0.7084 H   0  0  0  0  0  0  0  0  0  0  0  0
    2.0298   -0.8561    1.0221 H   0  0  0  0  0  0  0  0  0  0  0  0
    3.8990    0.0343   -0.1532 H   0  0  0  0  0  0  0  0  0  0  0  0
  1  2  1  0
  2  3  1  0
  2  4  1  0
  2  5  1  0
  5  6  2  0
  5  7  1  0
  7  8  1  0
  1  9  1  0
  1 10  1  0
  1 11  1  0
  3 12  1  0
  3 13  1  0
  3 14  1  0
  4 15  1  0
  7 16  1  0
  7 17  1  0
  8 18  1  0
M  END
