
     RDKit          3D

 19 19  0  0  0  0  0  0  0  0999 V2000
    1.9008    0.9947    0.2355 C   0  0  0  0  0  0  0  0  0  0  0  0
    1.4352   -0.4470    0.2851 C   0  0  0  0  0  0  0  0  0  0  0  0
    1.7016   -1.0493   -1.0430 C   0  0  0  0  0  0  0  0  0  0  0  0
    1.8458   -2.2504   -1.1215 O   0  0  0  0  0  0  0  0  0  0  0  0
    0.0110   -0.4602    0.6537 C   0  0  0  0  0  0  0  0  0  0  0  0
   -0.3312   -1.0409    1.6668 O   0  0  0  0  0  0  0  0  0  0  0  0
   -1.0157    0.2074   -0.1644 C   0  0  0  0  0  0  0  0  0  0  0  0
   -2.2448    0.7784    0.4300 C   0  0  0  0  0  0  0  0  0  0  0  0
   -2.3709   -0.5139   -0.2479 C   0  0  0  0  0  0  0  0  0  0  0  0
    1.8956    1.4526    1.2503 H   0  0  0  0  0  0  0  0  0  0  0  0
    1.2225    1.5982   -0.4200 H   0  0  0  0  0  0  0  0  0  0  0  0
    2.9467    0.9933   -0.1311 H   0  0  0  0  0  0  0  0  0  0  0  0
    2.0843   -0.9631    1.0129 H   0  0  0  0  0  0  0  0  0  0  0  0
    1.7647   -0.4331   -1.9129 H   0  0  0  0  0  0  0  0  0  0  0  0
   -0.6435    0.7168   -1.0709 H   0  0  0  0  0  0  0  0  0  0  0  0
   -2.3212    0.7831    1.5415 H   0  0  0  0  0  0  0  0  0  0  0  0
   -2.6697    1.7041   -0.0206 H   0  0  0  0  0  0  0  0  0  0  0  0
   -2.7287   -0.6198   -1.2906 H   0  0  0  0  0  0  0  0  0  0  0  0
   -2.4824   -1.4509    0.3471 H   0  0  0  0  0  0  0  0  0  0  0  0
  1  2  1  0
  2  3  1  0
  3  4  2  0
  2  5  1  0
  5  6  2  0
  5  7  1  0
  7  8  1  0
  8  9  1  0
  9  7  1  0
  1 10  1  0
  1 11  1  0
  1 12  1  0
  2 13  1  0
  3 14  1  0
  7 15  1  0
  8 16  1  0
  8 17  1  0
  9 18  1  0
  9 19  1  0
M  END
