
     RDKit          3D

 22 21  0  0  0  0  0  0  0  0999 V2000
   -0.9002    0.3771    1.4722 C   0  0  0  0  0  0  0  0  0  0  0  0
   -0.6048   -0.0288    0.0481 C   0  0  0  0  0  0  0  0  0  0  0  0
   -1.0394    1.0845   -0.8693 C   0  0  0  0  0  0  0  0  0  0  0  0
   -1.4429   -1.2490   -0.2962 C   0  0  0  0  0  0  0  0  0  0  0  0
    0.8356   -0.4147   -0.1402 C   0  0  0  0  0  0  0  0  0  0  0  0
    1.0512   -0.7789   -1.4678 O   0  0  0  0  0  0  0  0  0  0  0  0
    1.7906    0.7011    0.1919 C   0  0  0  0  0  0  0  0  0  0  0  0
    3.0962    0.2451    0.0145 O   0  0  0  0  0  0  0  0  0  0  0  0
   -1.4200    1.3719    1.5112 H   0  0  0  0  0  0  0  0  0  0  0  0
   -0.0235    0.4003    2.1179 H   0  0  0  0  0  0  0  0  0  0  0  0
   -1.6310   -0.3302    1.9594 H   0  0  0  0  0  0  0  0  0  0  0  0
   -2.0337    0.8992   -1.3361 H   0  0  0  0  0  0  0  0  0  0  0  0
   -0.3281    1.2748   -1.6962 H   0  0  0  0  0  0  0  0  0  0  0  0
   -1.1726    2.0547   -0.3046 H   0  0  0  0  0  0  0  0  0  0  0  0
   -0.9437   -2.1143    0.1780 H   0  0  0  0  0  0  0  0  0  0  0  0
   -2.4658   -1.0751    0.0868 H   0  0  0  0  0  0  0  0  0  0  0  0
   -1.4204   -1.3737   -1.4084 H   0  0  0  0  0  0  0  0  0  0  0  0
    1.0336   -1.2774    0.5278 H   0  0  0  0  0  0  0  0  0  0  0  0
    1.0770   -1.7524   -1.5653 H   0  0  0  0  0  0  0  0  0  0  0  0
    1.6439    1.1185    1.1860 H   0  0  0  0  0  0  0  0  0  0  0  0
    1.6606    1.5277   -0.5664 H   0  0  0  0  0  0  0  0  0  0  0  0
    3.2373   -0.6603    0.3568 H   0  0  0  0  0  0  0  0  0  0  0  0
  1  2  1  0
  2  3  1  0
  2  4  1  0
  2  5  1  0
  5  6  1  0
  5  7  1  0
  7  8  1  0
  1  9  1  0
  1 10  1  0
  1 11  1  0
  3 12  1  0
  3 13  1  0
  3 14  1  0
  4 15  1  0
  4 16  1  0
  4 17  1  0
  5 18  1  0
  6 19  1  0
  7 20  1  0
  7 21  1  0
  8 22  1  0
M  END
