
     RDKit          3D

 23 23  0  0  0  0  0  0  0  0999 V2000
   -1.4700   -0.5361   -1.2485 C   0  0  0  0  0  0  0  0  0  0  0  0
   -0.8637   -0.4676    0.1237 C   0  0  0  0  0  0  0  0  0  0  0  0
   -1.9737   -0.2152    1.1288 C   0  0  0  0  0  0  0  0  0  0  0  0
    0.1659    0.6331    0.2311 C   0  0  0  0  0  0  0  0  0  0  0  0
   -0.3588    2.0278   -0.0431 C   0  0  0  0  0  0  0  0  0  0  0  0
    0.9971    0.4654    1.3735 O   0  0  0  0  0  0  0  0  0  0  0  0
    1.5719    0.3980    0.0618 C   0  0  0  0  0  0  0  0  0  0  0  0
    2.1789   -0.9302   -0.2867 C   0  0  0  0  0  0  0  0  0  0  0  0
    3.2052   -1.2073    0.6400 O   0  0  0  0  0  0  0  0  0  0  0  0
   -1.4744    0.4302   -1.7835 H   0  0  0  0  0  0  0  0  0  0  0  0
   -0.9006   -1.2539   -1.9084 H   0  0  0  0  0  0  0  0  0  0  0  0
   -2.4993   -0.9872   -1.1795 H   0  0  0  0  0  0  0  0  0  0  0  0
   -0.4401   -1.4575    0.3527 H   0  0  0  0  0  0  0  0  0  0  0  0
   -2.5874   -1.1563    1.1481 H   0  0  0  0  0  0  0  0  0  0  0  0
   -1.5563   -0.0833    2.1591 H   0  0  0  0  0  0  0  0  0  0  0  0
   -2.5598    0.6568    0.8356 H   0  0  0  0  0  0  0  0  0  0  0  0
    0.4063    2.7825    0.2949 H   0  0  0  0  0  0  0  0  0  0  0  0
   -0.3708    2.1273   -1.1678 H   0  0  0  0  0  0  0  0  0  0  0  0
   -1.3305    2.2288    0.4131 H   0  0  0  0  0  0  0  0  0  0  0  0
    2.2341    1.2613   -0.1484 H   0  0  0  0  0  0  0  0  0  0  0  0
    1.4654   -1.7533   -0.3323 H   0  0  0  0  0  0  0  0  0  0  0  0
    2.6943   -0.8068   -1.2684 H   0  0  0  0  0  0  0  0  0  0  0  0
    3.4664   -2.1564    0.6042 H   0  0  0  0  0  0  0  0  0  0  0  0
  1  2  1  0
  2  3  1  0
  2  4  1  0
  4  5  1  0
  4  6  1  0
  6  7  1  0
  7  8  1  0
  8  9  1  0
  7  4  1  0
  1 10  1  0
  1 11  1  0
  1 12  1  0
  2 13  1  0
  3 14  1  0
  3 15  1  0
  3 16  1  0
  5 17  1  0
  5 18  1  0
  5 19  1  0
  7 20  1  0
  8 21  1  0
  8 22  1  0
  9 23  1  0
M  END
