
     RDKit          3D

 19 18  0  0  0  0  0  0  0  0999 V2000
   -1.6565    0.2680    0.7932 C   0  0  0  0  0  0  0  0  0  0  0  0
   -0.4558    0.1049   -0.1162 C   0  0  0  0  0  0  0  0  0  0  0  0
   -0.4510   -1.3351   -0.6450 C   0  0  0  0  0  0  0  0  0  0  0  0
   -0.4664    1.0679   -1.2347 C   0  0  0  0  0  0  0  0  0  0  0  0
   -0.6716    2.2338   -1.0068 O   0  0  0  0  0  0  0  0  0  0  0  0
    0.8393    0.3076    0.6457 C   0  0  0  0  0  0  0  0  0  0  0  0
    0.9956   -0.5873    1.6771 O   0  0  0  0  0  0  0  0  0  0  0  0
    1.9461    0.1761   -0.3724 C   0  0  0  0  0  0  0  0  0  0  0  0
    2.8438   -0.6442   -0.2409 O   0  0  0  0  0  0  0  0  0  0  0  0
   -1.4035    0.8590    1.7047 H   0  0  0  0  0  0  0  0  0  0  0  0
   -2.0555   -0.7080    1.1452 H   0  0  0  0  0  0  0  0  0  0  0  0
   -2.4557    0.7530    0.1932 H   0  0  0  0  0  0  0  0  0  0  0  0
    0.4411   -1.8855   -0.2967 H   0  0  0  0  0  0  0  0  0  0  0  0
   -0.4115   -1.2951   -1.7588 H   0  0  0  0  0  0  0  0  0  0  0  0
   -1.3396   -1.8877   -0.2833 H   0  0  0  0  0  0  0  0  0  0  0  0
   -0.2955    0.7507   -2.2423 H   0  0  0  0  0  0  0  0  0  0  0  0
    0.8407    1.3332    1.0891 H   0  0  0  0  0  0  0  0  0  0  0  0
    1.7812   -0.3185    2.1986 H   0  0  0  0  0  0  0  0  0  0  0  0
    1.9747    0.8072   -1.2498 H   0  0  0  0  0  0  0  0  0  0  0  0
  1  2  1  0
  2  3  1  0
  2  4  1  0
  4  5  2  0
  2  6  1  0
  6  7  1  0
  6  8  1  0
  8  9  2  0
  1 10  1  0
  1 11  1  0
  1 12  1  0
  3 13  1  0
  3 14  1  0
  3 15  1  0
  4 16  1  0
  6 17  1  0
  7 18  1  0
  8 19  1  0
M  END
