
     RDKit          3D

 24 23  0  0  0  0  0  0  0  0999 V2000
   -1.1351    0.4897   -1.3926 C   0  0  0  0  0  0  0  0  0  0  0  0
   -0.8441    0.0202    0.0159 C   0  0  0  0  0  0  0  0  0  0  0  0
   -2.2103   -0.5938    0.5132 C   0  0  0  0  0  0  0  0  0  0  0  0
   -0.6547    1.2126    0.8864 C   0  0  0  0  0  0  0  0  0  0  0  0
    0.0888   -1.0996    0.1231 C   0  0  0  0  0  0  0  0  0  0  0  0
    1.4497   -1.0473   -0.4079 C   0  0  0  0  0  0  0  0  0  0  0  0
    2.3875   -0.0136    0.0959 C   0  0  0  0  0  0  0  0  0  0  0  0
    2.0147    1.2934   -0.1504 O   0  0  0  0  0  0  0  0  0  0  0  0
   -0.4162    1.3258   -1.6294 H   0  0  0  0  0  0  0  0  0  0  0  0
   -1.0187   -0.2794   -2.1516 H   0  0  0  0  0  0  0  0  0  0  0  0
   -2.1380    0.9686   -1.3656 H   0  0  0  0  0  0  0  0  0  0  0  0
   -2.1358   -0.5963    1.6150 H   0  0  0  0  0  0  0  0  0  0  0  0
   -3.0071    0.0796    0.2115 H   0  0  0  0  0  0  0  0  0  0  0  0
   -2.2868   -1.6282    0.1628 H   0  0  0  0  0  0  0  0  0  0  0  0
   -1.6335    1.4831    1.4133 H   0  0  0  0  0  0  0  0  0  0  0  0
    0.0895    1.1191    1.6934 H   0  0  0  0  0  0  0  0  0  0  0  0
   -0.4542    2.1674    0.3130 H   0  0  0  0  0  0  0  0  0  0  0  0
   -0.4475   -2.0181   -0.3038 H   0  0  0  0  0  0  0  0  0  0  0  0
    0.1694   -1.3304    1.2436 H   0  0  0  0  0  0  0  0  0  0  0  0
    1.9364   -2.0473   -0.1382 H   0  0  0  0  0  0  0  0  0  0  0  0
    1.4911   -1.1136   -1.5461 H   0  0  0  0  0  0  0  0  0  0  0  0
    2.5265   -0.1450    1.2056 H   0  0  0  0  0  0  0  0  0  0  0  0
    3.4255   -0.1356   -0.3068 H   0  0  0  0  0  0  0  0  0  0  0  0
    2.8028    1.8887   -0.1002 H   0  0  0  0  0  0  0  0  0  0  0  0
  1  2  1  0
  2  3  1  0
  2  4  1  0
  2  5  1  0
  5  6  1  0
  6  7  1  0
  7  8  1  0
  1  9  1  0
  1 10  1  0
  1 11  1  0
  3 12  1  0
  3 13  1  0
  3 14  1  0
  4 15  1  0
  4 16  1  0
  4 17  1  0
  5 18  1  0
  5 19  1  0
  6 20  1  0
  6 21  1  0
  7 22  1  0
  7 23  1  0
  8 24  1  0
M  END
