
     RDKit          3D

 23 22  0  0  0  0  0  0  0  0999 V2000
   -2.0322    1.2248   -0.4200 C   0  0  0  0  0  0  0  0  0  0  0  0
   -2.0584   -0.0325    0.4166 C   0  0  0  0  0  0  0  0  0  0  0  0
   -1.3527    0.2310    1.7204 C   0  0  0  0  0  0  0  0  0  0  0  0
   -1.5041   -1.2227   -0.3141 C   0  0  0  0  0  0  0  0  0  0  0  0
   -0.1137   -0.9312   -0.6761 C   0  0  0  0  0  0  0  0  0  0  0  0
    1.0299   -0.6720   -0.9657 C   0  0  0  0  0  0  0  0  0  0  0  0
    2.4224   -0.3683   -1.2946 C   0  0  0  0  0  0  0  0  0  0  0  0
    3.0168    0.5179   -0.2071 C   0  0  0  0  0  0  0  0  0  0  0  0
    2.9850   -0.1013    1.0336 O   0  0  0  0  0  0  0  0  0  0  0  0
   -2.1171    2.1159    0.2330 H   0  0  0  0  0  0  0  0  0  0  0  0
   -2.9291    1.2745   -1.1044 H   0  0  0  0  0  0  0  0  0  0  0  0
   -1.1203    1.2720   -1.0396 H   0  0  0  0  0  0  0  0  0  0  0  0
   -3.1230   -0.2478    0.6460 H   0  0  0  0  0  0  0  0  0  0  0  0
   -0.7736   -0.6662    2.0224 H   0  0  0  0  0  0  0  0  0  0  0  0
   -0.5881    1.0308    1.5419 H   0  0  0  0  0  0  0  0  0  0  0  0
   -2.0429    0.5146    2.5342 H   0  0  0  0  0  0  0  0  0  0  0  0
   -2.1351   -1.3683   -1.2214 H   0  0  0  0  0  0  0  0  0  0  0  0
   -1.6231   -2.1053    0.3074 H   0  0  0  0  0  0  0  0  0  0  0  0
    3.0261   -1.2869   -1.4376 H   0  0  0  0  0  0  0  0  0  0  0  0
    2.4883    0.2229   -2.2374 H   0  0  0  0  0  0  0  0  0  0  0  0
    2.4427    1.4545   -0.2057 H   0  0  0  0  0  0  0  0  0  0  0  0
    4.0593    0.7670   -0.5124 H   0  0  0  0  0  0  0  0  0  0  0  0
    2.0429   -0.3928    1.1805 H   0  0  0  0  0  0  0  0  0  0  0  0
  1  2  1  0
  2  3  1  0
  2  4  1  0
  4  5  1  0
  5  6  3  0
  6  7  1  0
  7  8  1  0
  8  9  1  0
  1 10  1  0
  1 11  1  0
  1 12  1  0
  2 13  1  0
  3 14  1  0
  3 15  1  0
  3 16  1  0
  4 17  1  0
  4 18  1  0
  7 19  1  0
  7 20  1  0
  8 21  1  0
  8 22  1  0
  9 23  1  0
M  END
