
     RDKit          3D

 23 22  0  0  0  0  0  0  0  0999 V2000
    2.6036   -1.5088    0.5487 C   0  0  0  0  0  0  0  0  0  0  0  0
    2.2455   -0.0759    0.2336 C   0  0  0  0  0  0  0  0  0  0  0  0
    2.6000    0.8618    1.3446 C   0  0  0  0  0  0  0  0  0  0  0  0
    0.7912   -0.0554   -0.0165 C   0  0  0  0  0  0  0  0  0  0  0  0
   -0.4012   -0.0503   -0.2040 C   0  0  0  0  0  0  0  0  0  0  0  0
   -1.8616   -0.0688   -0.4272 C   0  0  0  0  0  0  0  0  0  0  0  0
   -2.4719    1.1605    0.1836 C   0  0  0  0  0  0  0  0  0  0  0  0
   -2.1816   -0.0556   -1.9072 C   0  0  0  0  0  0  0  0  0  0  0  0
   -2.3811   -1.2441    0.1286 O   0  0  0  0  0  0  0  0  0  0  0  0
    2.1928   -2.1432   -0.2337 H   0  0  0  0  0  0  0  0  0  0  0  0
    3.7162   -1.5610    0.5618 H   0  0  0  0  0  0  0  0  0  0  0  0
    2.2662   -1.8238    1.5609 H   0  0  0  0  0  0  0  0  0  0  0  0
    2.8164    0.2072   -0.6717 H   0  0  0  0  0  0  0  0  0  0  0  0
    3.5077    1.4180    1.1005 H   0  0  0  0  0  0  0  0  0  0  0  0
    1.7451    1.5703    1.4669 H   0  0  0  0  0  0  0  0  0  0  0  0
    2.6665    0.3185    2.3280 H   0  0  0  0  0  0  0  0  0  0  0  0
   -3.4039    1.4204   -0.3956 H   0  0  0  0  0  0  0  0  0  0  0  0
   -1.7426    2.0035    0.0066 H   0  0  0  0  0  0  0  0  0  0  0  0
   -2.6644    1.0658    1.2617 H   0  0  0  0  0  0  0  0  0  0  0  0
   -3.0741   -0.6994   -2.0655 H   0  0  0  0  0  0  0  0  0  0  0  0
   -1.2977   -0.4526   -2.4504 H   0  0  0  0  0  0  0  0  0  0  0  0
   -2.3211    0.9759   -2.2242 H   0  0  0  0  0  0  0  0  0  0  0  0
   -3.3499   -1.2631   -0.1293 H   0  0  0  0  0  0  0  0  0  0  0  0
  1  2  1  0
  2  3  1  0
  2  4  1  0
  4  5  3  0
  5  6  1  0
  6  7  1  0
  6  8  1  0
  6  9  1  0
  1 10  1  0
  1 11  1  0
  1 12  1  0
  2 13  1  0
  3 14  1  0
  3 15  1  0
  3 16  1  0
  7 17  1  0
  7 18  1  0
  7 19  1  0
  8 20  1  0
  8 21  1  0
  8 22  1  0
  9 23  1  0
M  END
