
     RDKit          3D

 25 26  0  0  0  0  0  0  0  0999 V2000
    2.8855   -0.4795    0.3761 C   0  0  0  0  0  0  0  0  0  0  0  0
    1.4684    0.1286    0.3053 C   0  0  0  0  0  0  0  0  0  0  0  0
    1.4546    0.8984   -1.0099 C   0  0  0  0  0  0  0  0  0  0  0  0
    0.5421   -1.0232    0.3156 C   0  0  0  0  0  0  0  0  0  0  0  0
   -0.8992   -0.8093    0.2711 C   0  0  0  0  0  0  0  0  0  0  0  0
   -1.5161    0.0018    1.4267 C   0  0  0  0  0  0  0  0  0  0  0  0
   -2.6535    0.0455    0.4038 C   0  0  0  0  0  0  0  0  0  0  0  0
   -2.7247    0.7913   -0.7981 C   0  0  0  0  0  0  0  0  0  0  0  0
   -1.3878    0.4171   -0.4859 C   0  0  0  0  0  0  0  0  0  0  0  0
    3.0844   -0.9217    1.3552 H   0  0  0  0  0  0  0  0  0  0  0  0
    3.6452    0.2783    0.0918 H   0  0  0  0  0  0  0  0  0  0  0  0
    2.9691   -1.2982   -0.3950 H   0  0  0  0  0  0  0  0  0  0  0  0
    1.3960    0.8009    1.1614 H   0  0  0  0  0  0  0  0  0  0  0  0
    2.4422    0.8330   -1.5498 H   0  0  0  0  0  0  0  0  0  0  0  0
    1.3445    1.9957   -0.8285 H   0  0  0  0  0  0  0  0  0  0  0  0
    0.7235    0.4861   -1.7254 H   0  0  0  0  0  0  0  0  0  0  0  0
    0.7838   -1.6219    1.2447 H   0  0  0  0  0  0  0  0  0  0  0  0
    0.8383   -1.7148   -0.5181 H   0  0  0  0  0  0  0  0  0  0  0  0
   -1.4874   -1.6816   -0.0171 H   0  0  0  0  0  0  0  0  0  0  0  0
   -1.1136    0.9966    1.5598 H   0  0  0  0  0  0  0  0  0  0  0  0
   -1.7694   -0.5869    2.3095 H   0  0  0  0  0  0  0  0  0  0  0  0
   -2.9916   -1.0333    0.2798 H   0  0  0  0  0  0  0  0  0  0  0  0
   -3.1553    0.3560   -1.7499 H   0  0  0  0  0  0  0  0  0  0  0  0
   -3.0918    1.8584   -0.7118 H   0  0  0  0  0  0  0  0  0  0  0  0
   -0.7874    1.2827   -0.0503 H   0  0  0  0  0  0  0  0  0  0  0  0
  1  2  1  0
  2  3  1  0
  2  4  1  0
  4  5  1  0
  5  6  1  0
  6  7  1  0
  7  8  1  0
  8  9  1  0
  9  5  1  0
  9  7  1  0
  1 10  1  0
  1 11  1  0
  1 12  1  0
  2 13  1  0
  3 14  1  0
  3 15  1  0
  3 16  1  0
  4 17  1  0
  4 18  1  0
  5 19  1  0
  6 20  1  0
  6 21  1  0
  7 22  1  0
  8 23  1  0
  8 24  1  0
  9 25  1  0
M  END
