
     RDKit          3D

 20 20  0  0  0  0  0  0  0  0999 V2000
   -1.6443    1.4579    0.0001 C   0  0  0  0  0  0  0  0  0  0  0  0
   -0.7673    0.3438   -0.5287 C   0  0  0  0  0  0  0  0  0  0  0  0
   -1.3397   -0.9551    0.0548 C   0  0  0  0  0  0  0  0  0  0  0  0
   -2.6487   -1.1070   -0.3618 O   0  0  0  0  0  0  0  0  0  0  0  0
    0.6072    0.4919    0.0628 C   0  0  0  0  0  0  0  0  0  0  0  0
    1.5650   -0.5650   -0.3950 C   0  0  0  0  0  0  0  0  0  0  0  0
    2.9557   -0.4163    0.2025 C   0  0  0  0  0  0  0  0  0  0  0  0
    2.0969   -1.4782    0.4812 O   0  0  0  0  0  0  0  0  0  0  0  0
   -1.5509    2.3641   -0.6511 H   0  0  0  0  0  0  0  0  0  0  0  0
   -1.2781    1.7082    1.0136 H   0  0  0  0  0  0  0  0  0  0  0  0
   -2.6885    1.0756    0.0078 H   0  0  0  0  0  0  0  0  0  0  0  0
   -0.7807    0.3034   -1.6132 H   0  0  0  0  0  0  0  0  0  0  0  0
   -0.6723   -1.7619   -0.3154 H   0  0  0  0  0  0  0  0  0  0  0  0
   -1.2250   -0.9072    1.1438 H   0  0  0  0  0  0  0  0  0  0  0  0
   -2.6323   -1.3286   -1.3295 H   0  0  0  0  0  0  0  0  0  0  0  0
    1.0455    1.4812   -0.2119 H   0  0  0  0  0  0  0  0  0  0  0  0
    0.5949    0.4637    1.1722 H   0  0  0  0  0  0  0  0  0  0  0  0
    1.4823   -0.9243   -1.4370 H   0  0  0  0  0  0  0  0  0  0  0  0
    3.1144    0.2928    1.0171 H   0  0  0  0  0  0  0  0  0  0  0  0
    3.7660   -0.5389   -0.5318 H   0  0  0  0  0  0  0  0  0  0  0  0
  1  2  1  0
  2  3  1  0
  3  4  1  0
  2  5  1  0
  5  6  1  0
  6  7  1  0
  7  8  1  0
  8  6  1  0
  1  9  1  0
  1 10  1  0
  1 11  1  0
  2 12  1  0
  3 13  1  0
  3 14  1  0
  4 15  1  0
  5 16  1  0
  5 17  1  0
  6 18  1  0
  7 19  1  0
  7 20  1  0
M  END
