
     RDKit          3D

 21 21  0  0  0  0  0  0  0  0999 V2000
   -0.8492   -0.2244    1.3568 C   0  0  0  0  0  0  0  0  0  0  0  0
   -0.4983   -0.0449   -0.0583 C   0  0  0  0  0  0  0  0  0  0  0  0
   -1.0371    1.2995   -0.5589 C   0  0  0  0  0  0  0  0  0  0  0  0
   -1.2029   -1.1117   -0.8864 C   0  0  0  0  0  0  0  0  0  0  0  0
    0.9478   -0.1152   -0.4044 C   0  0  0  0  0  0  0  0  0  0  0  0
    1.8699    0.8621    0.2250 C   0  0  0  0  0  0  0  0  0  0  0  0
    2.1500   -0.1135    1.2007 O   0  0  0  0  0  0  0  0  0  0  0  0
    1.7867   -1.0778    0.2829 C   0  0  0  0  0  0  0  0  0  0  0  0
    2.0932   -2.2777    0.1533 O   0  0  0  0  0  0  0  0  0  0  0  0
   -1.3956   -1.1974    1.5323 H   0  0  0  0  0  0  0  0  0  0  0  0
   -1.5988    0.5578    1.6758 H   0  0  0  0  0  0  0  0  0  0  0  0
   -0.0455   -0.1903    2.0846 H   0  0  0  0  0  0  0  0  0  0  0  0
   -1.4183    1.2070   -1.5778 H   0  0  0  0  0  0  0  0  0  0  0  0
   -0.2329    2.0465   -0.5550 H   0  0  0  0  0  0  0  0  0  0  0  0
   -1.8301    1.6873    0.1254 H   0  0  0  0  0  0  0  0  0  0  0  0
   -0.7689   -1.0104   -1.9206 H   0  0  0  0  0  0  0  0  0  0  0  0
   -2.2888   -0.9245   -0.8767 H   0  0  0  0  0  0  0  0  0  0  0  0
   -0.9805   -2.1043   -0.4557 H   0  0  0  0  0  0  0  0  0  0  0  0
    1.0557   -0.0822   -1.5276 H   0  0  0  0  0  0  0  0  0  0  0  0
    1.4430    1.8084    0.5838 H   0  0  0  0  0  0  0  0  0  0  0  0
    2.8005    1.0059   -0.3993 H   0  0  0  0  0  0  0  0  0  0  0  0
  1  2  1  0
  2  3  1  0
  2  4  1  0
  2  5  1  0
  5  6  1  0
  6  7  1  0
  7  8  1  0
  8  9  2  0
  8  5  1  0
  1 10  1  0
  1 11  1  0
  1 12  1  0
  3 13  1  0
  3 14  1  0
  3 15  1  0
  4 16  1  0
  4 17  1  0
  4 18  1  0
  5 19  1  0
  6 20  1  0
  6 21  1  0
M  END
