
     RDKit          3D

 12 11  0  0  0  0  0  0  0  0999 V2000
    1.0770   -0.7452   -0.0513 C   0  0  0  0  0  0  0  0  0  0  0  0
   -0.2475   -0.1408    0.4171 C   0  0  0  0  0  0  0  0  0  0  0  0
   -0.3695    1.1919   -0.3184 C   0  0  0  0  0  0  0  0  0  0  0  0
   -1.2435   -1.0125    0.0013 O   0  0  0  0  0  0  0  0  0  0  0  0
    1.1383   -1.8095    0.1855 H   0  0  0  0  0  0  0  0  0  0  0  0
    1.0496   -0.6670   -1.1696 H   0  0  0  0  0  0  0  0  0  0  0  0
    1.9249   -0.1438    0.3231 H   0  0  0  0  0  0  0  0  0  0  0  0
   -0.2324    0.0179    1.5122 H   0  0  0  0  0  0  0  0  0  0  0  0
   -0.9907    1.0081   -1.2201 H   0  0  0  0  0  0  0  0  0  0  0  0
    0.6158    1.5419   -0.6952 H   0  0  0  0  0  0  0  0  0  0  0  0
   -0.8051    1.9667    0.3248 H   0  0  0  0  0  0  0  0  0  0  0  0
   -1.9168   -1.2076    0.6907 H   0  0  0  0  0  0  0  0  0  0  0  0
  1  2  1  0
  2  3  1  0
  2  4  1  0
  1  5  1  0
  1  6  1  0
  1  7  1  0
  2  8  1  0
  3  9  1  0
  3 10  1  0
  3 11  1  0
  4 12  1  0
M  END
