
     RDKit          3D

 25 26  0  0  0  0  0  0  0  0999 V2000
    1.6538    0.8348    0.9487 C   0  0  0  0  0  0  0  0  0  0  0  0
    1.4652    0.1192   -0.3710 C   0  0  0  0  0  0  0  0  0  0  0  0
    2.7516   -0.5927   -0.7304 C   0  0  0  0  0  0  0  0  0  0  0  0
    0.3087   -0.8407   -0.3503 C   0  0  0  0  0  0  0  0  0  0  0  0
   -0.8981   -0.2482   -0.0819 C   0  0  0  0  0  0  0  0  0  0  0  0
   -1.5908    0.8287   -0.8547 C   0  0  0  0  0  0  0  0  0  0  0  0
   -2.5751    0.4747    0.2313 C   0  0  0  0  0  0  0  0  0  0  0  0
   -2.2469   -0.9529   -0.0922 C   0  0  0  0  0  0  0  0  0  0  0  0
   -1.3712    0.4224    1.1467 C   0  0  0  0  0  0  0  0  0  0  0  0
    1.1535    0.2943    1.7709 H   0  0  0  0  0  0  0  0  0  0  0  0
    2.7504    0.8985    1.1656 H   0  0  0  0  0  0  0  0  0  0  0  0
    1.3196    1.8981    0.8845 H   0  0  0  0  0  0  0  0  0  0  0  0
    1.2403    0.8852   -1.1557 H   0  0  0  0  0  0  0  0  0  0  0  0
    2.6579   -1.0104   -1.7528 H   0  0  0  0  0  0  0  0  0  0  0  0
    3.5976    0.1017   -0.6452 H   0  0  0  0  0  0  0  0  0  0  0  0
    2.8905   -1.4124    0.0069 H   0  0  0  0  0  0  0  0  0  0  0  0
    0.5733   -1.6320    0.3908 H   0  0  0  0  0  0  0  0  0  0  0  0
    0.3231   -1.3717   -1.3355 H   0  0  0  0  0  0  0  0  0  0  0  0
   -1.1657    1.8280   -0.8286 H   0  0  0  0  0  0  0  0  0  0  0  0
   -1.9013    0.4404   -1.8527 H   0  0  0  0  0  0  0  0  0  0  0  0
   -3.4603    0.8883    0.4177 H   0  0  0  0  0  0  0  0  0  0  0  0
   -2.4008   -1.6525    0.7429 H   0  0  0  0  0  0  0  0  0  0  0  0
   -2.5752   -1.2933   -1.0923 H   0  0  0  0  0  0  0  0  0  0  0  0
   -1.5440   -0.2932    2.0000 H   0  0  0  0  0  0  0  0  0  0  0  0
   -0.9557    1.3859    1.4375 H   0  0  0  0  0  0  0  0  0  0  0  0
  1  2  1  0
  2  3  1  0
  2  4  1  0
  4  5  1  0
  5  6  1  0
  6  7  1  0
  7  8  1  0
  7  9  1  0
  8  5  1  0
  9  5  1  0
  1 10  1  0
  1 11  1  0
  1 12  1  0
  2 13  1  0
  3 14  1  0
  3 15  1  0
  3 16  1  0
  4 17  1  0
  4 18  1  0
  6 19  1  0
  6 20  1  0
  7 21  1  0
  8 22  1  0
  8 23  1  0
  9 24  1  0
  9 25  1  0
M  END
