
     RDKit          3D

 23 23  0  0  0  0  0  0  0  0999 V2000
   -2.3070   -0.1852    0.8916 C   0  0  0  0  0  0  0  0  0  0  0  0
   -1.2715    0.5756    0.0512 C   0  0  0  0  0  0  0  0  0  0  0  0
   -1.9751    1.0288   -1.1857 C   0  0  0  0  0  0  0  0  0  0  0  0
   -3.1972    0.9704   -1.2982 O   0  0  0  0  0  0  0  0  0  0  0  0
   -0.1999   -0.4449   -0.2541 C   0  0  0  0  0  0  0  0  0  0  0  0
    0.4665   -1.0284    0.9347 C   0  0  0  0  0  0  0  0  0  0  0  0
    1.2243   -0.1558   -0.1030 C   0  0  0  0  0  0  0  0  0  0  0  0
    2.1585   -0.8924   -1.0456 C   0  0  0  0  0  0  0  0  0  0  0  0
    1.7277    1.1495    0.4503 C   0  0  0  0  0  0  0  0  0  0  0  0
   -1.7891   -0.8992    1.5517 H   0  0  0  0  0  0  0  0  0  0  0  0
   -2.9965    0.4970    1.4006 H   0  0  0  0  0  0  0  0  0  0  0  0
   -2.8678   -0.8149    0.1402 H   0  0  0  0  0  0  0  0  0  0  0  0
   -0.8961    1.4650    0.5715 H   0  0  0  0  0  0  0  0  0  0  0  0
   -1.4125    1.4261   -2.0256 H   0  0  0  0  0  0  0  0  0  0  0  0
   -0.5152   -1.1770   -1.0329 H   0  0  0  0  0  0  0  0  0  0  0  0
    0.8172   -2.0628    0.9691 H   0  0  0  0  0  0  0  0  0  0  0  0
    0.2894   -0.5781    1.9259 H   0  0  0  0  0  0  0  0  0  0  0  0
    1.9664   -1.9746   -0.9216 H   0  0  0  0  0  0  0  0  0  0  0  0
    3.2127   -0.6766   -0.8083 H   0  0  0  0  0  0  0  0  0  0  0  0
    1.9417   -0.6359   -2.1027 H   0  0  0  0  0  0  0  0  0  0  0  0
    1.5549    1.2111    1.5633 H   0  0  0  0  0  0  0  0  0  0  0  0
    1.2377    2.0362   -0.0053 H   0  0  0  0  0  0  0  0  0  0  0  0
    2.8312    1.1662    0.3331 H   0  0  0  0  0  0  0  0  0  0  0  0
  1  2  1  0
  2  3  1  0
  3  4  2  0
  2  5  1  0
  5  6  1  0
  6  7  1  0
  7  8  1  0
  7  9  1  0
  7  5  1  0
  1 10  1  0
  1 11  1  0
  1 12  1  0
  2 13  1  0
  3 14  1  0
  5 15  1  0
  6 16  1  0
  6 17  1  0
  8 18  1  0
  8 19  1  0
  8 20  1  0
  9 21  1  0
  9 22  1  0
  9 23  1  0
M  END
