
     RDKit          3D

 23 24  0  0  0  0  0  0  0  0999 V2000
    2.9386   -0.4837    0.4437 C   0  0  0  0  0  0  0  0  0  0  0  0
    1.7150    0.0833   -0.1864 C   0  0  0  0  0  0  0  0  0  0  0  0
    1.9690    1.5688   -0.4532 C   0  0  0  0  0  0  0  0  0  0  0  0
    0.4755   -0.0316    0.6160 C   0  0  0  0  0  0  0  0  0  0  0  0
   -0.0600   -1.2187    1.0242 O   0  0  0  0  0  0  0  0  0  0  0  0
   -0.6587   -0.7621   -0.1059 C   0  0  0  0  0  0  0  0  0  0  0  0
   -1.9470   -0.0045   -0.1080 C   0  0  0  0  0  0  0  0  0  0  0  0
   -3.1680   -0.5621   -0.7672 C   0  0  0  0  0  0  0  0  0  0  0  0
   -3.0945   -0.3474    0.7280 C   0  0  0  0  0  0  0  0  0  0  0  0
    2.9072   -0.5753    1.5273 H   0  0  0  0  0  0  0  0  0  0  0  0
    3.1247   -1.5146    0.0276 H   0  0  0  0  0  0  0  0  0  0  0  0
    3.8241    0.1191    0.1062 H   0  0  0  0  0  0  0  0  0  0  0  0
    1.6260   -0.3749   -1.2132 H   0  0  0  0  0  0  0  0  0  0  0  0
    3.0020    1.6720   -0.8220 H   0  0  0  0  0  0  0  0  0  0  0  0
    1.8507    2.1508    0.4961 H   0  0  0  0  0  0  0  0  0  0  0  0
    1.2506    1.9609   -1.2049 H   0  0  0  0  0  0  0  0  0  0  0  0
    0.2193    0.8402    1.2420 H   0  0  0  0  0  0  0  0  0  0  0  0
   -0.4322   -1.2965   -1.0319 H   0  0  0  0  0  0  0  0  0  0  0  0
   -1.8012    1.1011   -0.2829 H   0  0  0  0  0  0  0  0  0  0  0  0
   -3.1324   -1.6008   -1.1540 H   0  0  0  0  0  0  0  0  0  0  0  0
   -3.8029    0.1062   -1.3848 H   0  0  0  0  0  0  0  0  0  0  0  0
   -3.0831   -1.2920    1.3209 H   0  0  0  0  0  0  0  0  0  0  0  0
   -3.7224    0.4618    1.1824 H   0  0  0  0  0  0  0  0  0  0  0  0
  1  2  1  0
  2  3  1  0
  2  4  1  0
  4  5  1  0
  5  6  1  0
  6  7  1  0
  7  8  1  0
  8  9  1  0
  6  4  1  0
  9  7  1  0
  1 10  1  0
  1 11  1  0
  1 12  1  0
  2 13  1  0
  3 14  1  0
  3 15  1  0
  3 16  1  0
  4 17  1  0
  6 18  1  0
  7 19  1  0
  8 20  1  0
  8 21  1  0
  9 22  1  0
  9 23  1  0
M  END
