
     RDKit          3D

 22 22  0  0  0  0  0  0  0  0999 V2000
    1.5344   -1.4858    0.6112 C   0  0  0  0  0  0  0  0  0  0  0  0
    0.6574   -0.7580   -0.3857 C   0  0  0  0  0  0  0  0  0  0  0  0
    1.3190    0.5097   -0.7729 C   0  0  0  0  0  0  0  0  0  0  0  0
    1.5614    1.3850    0.2573 O   0  0  0  0  0  0  0  0  0  0  0  0
   -0.7416   -0.6561    0.0882 C   0  0  0  0  0  0  0  0  0  0  0  0
   -1.6922    0.0548   -0.8455 C   0  0  0  0  0  0  0  0  0  0  0  0
   -1.6722    1.2282    0.1062 C   0  0  0  0  0  0  0  0  0  0  0  0
   -1.0945    0.3204    1.1354 C   0  0  0  0  0  0  0  0  0  0  0  0
    1.8788   -2.4694    0.2570 H   0  0  0  0  0  0  0  0  0  0  0  0
    0.9173   -1.6673    1.5319 H   0  0  0  0  0  0  0  0  0  0  0  0
    2.3713   -0.8402    0.9393 H   0  0  0  0  0  0  0  0  0  0  0  0
    0.6479   -1.4149   -1.3067 H   0  0  0  0  0  0  0  0  0  0  0  0
    2.3183    0.2533   -1.2054 H   0  0  0  0  0  0  0  0  0  0  0  0
    0.7846    1.0594   -1.5715 H   0  0  0  0  0  0  0  0  0  0  0  0
    2.3188    1.9728   -0.0041 H   0  0  0  0  0  0  0  0  0  0  0  0
   -1.1543   -1.6946    0.2642 H   0  0  0  0  0  0  0  0  0  0  0  0
   -1.2652    0.2938   -1.8495 H   0  0  0  0  0  0  0  0  0  0  0  0
   -2.7168   -0.3788   -0.8927 H   0  0  0  0  0  0  0  0  0  0  0  0
   -1.0441    2.0428   -0.2828 H   0  0  0  0  0  0  0  0  0  0  0  0
   -2.7081    1.6039    0.3592 H   0  0  0  0  0  0  0  0  0  0  0  0
   -0.2990    0.7256    1.7765 H   0  0  0  0  0  0  0  0  0  0  0  0
   -1.9213   -0.0846    1.7903 H   0  0  0  0  0  0  0  0  0  0  0  0
  1  2  1  0
  2  3  1  0
  3  4  1  0
  2  5  1  0
  5  6  1  0
  6  7  1  0
  7  8  1  0
  8  5  1  0
  1  9  1  0
  1 10  1  0
  1 11  1  0
  2 12  1  0
  3 13  1  0
  3 14  1  0
  4 15  1  0
  5 16  1  0
  6 17  1  0
  6 18  1  0
  7 19  1  0
  7 20  1  0
  8 21  1  0
  8 22  1  0
M  END
