
     RDKit          3D

 19 18  0  0  0  0  0  0  0  0999 V2000
    1.5479   -1.2093   -1.0237 C   0  0  0  0  0  0  0  0  0  0  0  0
    0.8040   -0.2977   -0.0911 C   0  0  0  0  0  0  0  0  0  0  0  0
    1.7999    0.7382    0.4180 C   0  0  0  0  0  0  0  0  0  0  0  0
    2.9068    0.1240    0.9539 O   0  0  0  0  0  0  0  0  0  0  0  0
   -0.3308    0.2856   -0.6414 O   0  0  0  0  0  0  0  0  0  0  0  0
   -1.5998    0.0794   -0.1403 C   0  0  0  0  0  0  0  0  0  0  0  0
   -1.6796   -0.6756    0.8560 O   0  0  0  0  0  0  0  0  0  0  0  0
   -2.8190    0.6978   -0.7207 C   0  0  0  0  0  0  0  0  0  0  0  0
   -3.9316    0.2938    0.0089 O   0  0  0  0  0  0  0  0  0  0  0  0
    2.4902   -1.5017   -0.5195 H   0  0  0  0  0  0  0  0  0  0  0  0
    0.9500   -2.1414   -1.1211 H   0  0  0  0  0  0  0  0  0  0  0  0
    1.8085   -0.7554   -1.9804 H   0  0  0  0  0  0  0  0  0  0  0  0
    0.4779   -0.9159    0.7725 H   0  0  0  0  0  0  0  0  0  0  0  0
    2.0299    1.4457   -0.3963 H   0  0  0  0  0  0  0  0  0  0  0  0
    1.3023    1.3046    1.2400 H   0  0  0  0  0  0  0  0  0  0  0  0
    3.6873    0.1054    0.3622 H   0  0  0  0  0  0  0  0  0  0  0  0
   -2.7986    1.7983   -0.6993 H   0  0  0  0  0  0  0  0  0  0  0  0
   -2.8846    0.3667   -1.7672 H   0  0  0  0  0  0  0  0  0  0  0  0
   -3.7607    0.2574    0.9764 H   0  0  0  0  0  0  0  0  0  0  0  0
  1  2  1  0
  2  3  1  0
  3  4  1  0
  2  5  1  0
  5  6  1  0
  6  7  2  0
  6  8  1  0
  8  9  1  0
  1 10  1  0
  1 11  1  0
  1 12  1  0
  2 13  1  0
  3 14  1  0
  3 15  1  0
  4 16  1  0
  8 17  1  0
  8 18  1  0
  9 19  1  0
M  END
