
     RDKit          3D

 25 25  0  0  0  0  0  0  0  0999 V2000
   -2.4647    0.5613    1.2193 C   0  0  0  0  0  0  0  0  0  0  0  0
   -1.4469   -0.2289    0.4251 C   0  0  0  0  0  0  0  0  0  0  0  0
   -2.1813   -0.8880   -0.7134 C   0  0  0  0  0  0  0  0  0  0  0  0
   -0.3503    0.6925   -0.0490 C   0  0  0  0  0  0  0  0  0  0  0  0
    0.6984   -0.0183   -0.8451 C   0  0  0  0  0  0  0  0  0  0  0  0
    1.3897   -1.1132   -0.0755 C   0  0  0  0  0  0  0  0  0  0  0  0
    2.7436   -0.4421   -0.3317 C   0  0  0  0  0  0  0  0  0  0  0  0
    1.9956    0.7782   -0.8186 C   0  0  0  0  0  0  0  0  0  0  0  0
    2.0364    1.7755    0.1361 O   0  0  0  0  0  0  0  0  0  0  0  0
   -3.4530    0.0383    1.1416 H   0  0  0  0  0  0  0  0  0  0  0  0
   -2.5229    1.6042    0.8460 H   0  0  0  0  0  0  0  0  0  0  0  0
   -2.1751    0.5422    2.2767 H   0  0  0  0  0  0  0  0  0  0  0  0
   -0.9757   -1.0225    1.0188 H   0  0  0  0  0  0  0  0  0  0  0  0
   -2.3786   -0.1950   -1.5582 H   0  0  0  0  0  0  0  0  0  0  0  0
   -1.7241   -1.8228   -1.0447 H   0  0  0  0  0  0  0  0  0  0  0  0
   -3.1981   -1.1647   -0.3122 H   0  0  0  0  0  0  0  0  0  0  0  0
    0.1039    1.1390    0.8676 H   0  0  0  0  0  0  0  0  0  0  0  0
   -0.7961    1.5388   -0.6090 H   0  0  0  0  0  0  0  0  0  0  0  0
    0.3507   -0.2885   -1.8554 H   0  0  0  0  0  0  0  0  0  0  0  0
    1.1319   -1.1770    0.9929 H   0  0  0  0  0  0  0  0  0  0  0  0
    1.2942   -2.1063   -0.5550 H   0  0  0  0  0  0  0  0  0  0  0  0
    3.3420   -0.2778    0.5886 H   0  0  0  0  0  0  0  0  0  0  0  0
    3.2978   -0.9683   -1.1346 H   0  0  0  0  0  0  0  0  0  0  0  0
    2.3077    1.0670   -1.8389 H   0  0  0  0  0  0  0  0  0  0  0  0
    2.9752    1.9762    0.3969 H   0  0  0  0  0  0  0  0  0  0  0  0
  1  2  1  0
  2  3  1  0
  2  4  1  0
  4  5  1  0
  5  6  1  0
  6  7  1  0
  7  8  1  0
  8  9  1  0
  8  5  1  0
  1 10  1  0
  1 11  1  0
  1 12  1  0
  2 13  1  0
  3 14  1  0
  3 15  1  0
  3 16  1  0
  4 17  1  0
  4 18  1  0
  5 19  1  0
  6 20  1  0
  6 21  1  0
  7 22  1  0
  7 23  1  0
  8 24  1  0
  9 25  1  0
M  END
