
     RDKit          3D

 23 23  0  0  0  0  0  0  0  0999 V2000
   -2.0685   -0.5404    0.9024 C   0  0  0  0  0  0  0  0  0  0  0  0
   -1.2439    0.0656   -0.2374 C   0  0  0  0  0  0  0  0  0  0  0  0
   -1.8336    1.3806   -0.5722 C   0  0  0  0  0  0  0  0  0  0  0  0
   -1.4530   -0.7956   -1.3371 O   0  0  0  0  0  0  0  0  0  0  0  0
    0.1912    0.0614    0.0497 C   0  0  0  0  0  0  0  0  0  0  0  0
    1.0146    1.1032    0.1271 C   0  0  0  0  0  0  0  0  0  0  0  0
    2.4032    0.6782    0.4404 C   0  0  0  0  0  0  0  0  0  0  0  0
    2.4168   -0.7571   -0.0343 C   0  0  0  0  0  0  0  0  0  0  0  0
    0.9848   -1.1707    0.3093 C   0  0  0  0  0  0  0  0  0  0  0  0
   -2.1005   -1.6490    0.8112 H   0  0  0  0  0  0  0  0  0  0  0  0
   -3.1236   -0.2026    0.7317 H   0  0  0  0  0  0  0  0  0  0  0  0
   -1.7202   -0.2083    1.8878 H   0  0  0  0  0  0  0  0  0  0  0  0
   -2.5685    1.2891   -1.3966 H   0  0  0  0  0  0  0  0  0  0  0  0
   -2.4171    1.7951    0.2946 H   0  0  0  0  0  0  0  0  0  0  0  0
   -1.1214    2.1661   -0.8652 H   0  0  0  0  0  0  0  0  0  0  0  0
   -1.3268   -1.7076   -0.9915 H   0  0  0  0  0  0  0  0  0  0  0  0
    0.7733    2.1660   -0.0102 H   0  0  0  0  0  0  0  0  0  0  0  0
    3.1639    1.2634   -0.1049 H   0  0  0  0  0  0  0  0  0  0  0  0
    2.5736    0.7275    1.5269 H   0  0  0  0  0  0  0  0  0  0  0  0
    2.6055   -0.8125   -1.1213 H   0  0  0  0  0  0  0  0  0  0  0  0
    3.1570   -1.3798    0.5028 H   0  0  0  0  0  0  0  0  0  0  0  0
    0.9934   -1.4516    1.3839 H   0  0  0  0  0  0  0  0  0  0  0  0
    0.6998   -2.0209   -0.3039 H   0  0  0  0  0  0  0  0  0  0  0  0
  1  2  1  0
  2  3  1  0
  2  4  1  0
  2  5  1  0
  5  6  2  0
  6  7  1  0
  7  8  1  0
  8  9  1  0
  9  5  1  0
  1 10  1  0
  1 11  1  0
  1 12  1  0
  3 13  1  0
  3 14  1  0
  3 15  1  0
  4 16  1  0
  6 17  1  0
  7 18  1  0
  7 19  1  0
  8 20  1  0
  8 21  1  0
  9 22  1  0
  9 23  1  0
M  END
