
     RDKit          3D

 27 27  0  0  0  0  0  0  0  0999 V2000
   -2.6631    0.6612    0.2000 C   0  0  0  0  0  0  0  0  0  0  0  0
   -1.8919   -0.3979   -0.5614 C   0  0  0  0  0  0  0  0  0  0  0  0
   -1.8865   -1.6431    0.2670 C   0  0  0  0  0  0  0  0  0  0  0  0
   -0.5273    0.0552   -0.9676 C   0  0  0  0  0  0  0  0  0  0  0  0
    0.3508    0.4334    0.1896 C   0  0  0  0  0  0  0  0  0  0  0  0
    1.7487    0.8960   -0.2526 C   0  0  0  0  0  0  0  0  0  0  0  0
    2.2775    2.1746    0.3531 C   0  0  0  0  0  0  0  0  0  0  0  0
    1.5433   -0.3177    0.5749 C   0  0  0  0  0  0  0  0  0  0  0  0
    1.8567   -1.6662   -0.0454 C   0  0  0  0  0  0  0  0  0  0  0  0
   -3.6718    0.8428   -0.2280 H   0  0  0  0  0  0  0  0  0  0  0  0
   -2.8423    0.3634    1.2625 H   0  0  0  0  0  0  0  0  0  0  0  0
   -2.0950    1.6090    0.2331 H   0  0  0  0  0  0  0  0  0  0  0  0
   -2.4703   -0.5816   -1.4998 H   0  0  0  0  0  0  0  0  0  0  0  0
   -2.9154   -2.0975    0.1751 H   0  0  0  0  0  0  0  0  0  0  0  0
   -1.1053   -2.3607    0.0152 H   0  0  0  0  0  0  0  0  0  0  0  0
   -1.7918   -1.3854    1.3597 H   0  0  0  0  0  0  0  0  0  0  0  0
   -0.0918   -0.6879   -1.6333 H   0  0  0  0  0  0  0  0  0  0  0  0
   -0.6639    0.9882   -1.5810 H   0  0  0  0  0  0  0  0  0  0  0  0
   -0.1507    1.0449    0.9731 H   0  0  0  0  0  0  0  0  0  0  0  0
    2.0577    0.7044   -1.2977 H   0  0  0  0  0  0  0  0  0  0  0  0
    1.4492    2.7536    0.8265 H   0  0  0  0  0  0  0  0  0  0  0  0
    2.6777    2.8339   -0.4482 H   0  0  0  0  0  0  0  0  0  0  0  0
    3.0698    1.9923    1.1116 H   0  0  0  0  0  0  0  0  0  0  0  0
    1.8530   -0.2739    1.6516 H   0  0  0  0  0  0  0  0  0  0  0  0
    1.2645   -2.4835    0.3736 H   0  0  0  0  0  0  0  0  0  0  0  0
    1.6821   -1.5641   -1.1362 H   0  0  0  0  0  0  0  0  0  0  0  0
    2.9361   -1.8935    0.0845 H   0  0  0  0  0  0  0  0  0  0  0  0
  1  2  1  0
  2  3  1  0
  2  4  1  0
  4  5  1  0
  5  6  1  0
  6  7  1  0
  6  8  1  0
  8  9  1  0
  8  5  1  0
  1 10  1  0
  1 11  1  0
  1 12  1  0
  2 13  1  0
  3 14  1  0
  3 15  1  0
  3 16  1  0
  4 17  1  0
  4 18  1  0
  5 19  1  0
  6 20  1  0
  7 21  1  0
  7 22  1  0
  7 23  1  0
  8 24  1  0
  9 25  1  0
  9 26  1  0
  9 27  1  0
M  END
