
     RDKit          3D

 23 22  0  0  0  0  0  0  0  0999 V2000
    1.3044    1.4701    0.0565 C   0  0  0  0  0  0  0  0  0  0  0  0
    1.0826    0.0643    0.4803 C   0  0  0  0  0  0  0  0  0  0  0  0
    2.4394   -0.6476    0.2756 C   0  0  0  0  0  0  0  0  0  0  0  0
    0.0878   -0.7380   -0.2504 C   0  0  0  0  0  0  0  0  0  0  0  0
   -1.3231   -0.3313   -0.2905 C   0  0  0  0  0  0  0  0  0  0  0  0
   -1.9522   -0.2373    1.1015 C   0  0  0  0  0  0  0  0  0  0  0  0
   -2.0076   -1.4611   -0.8676 O   0  0  0  0  0  0  0  0  0  0  0  0
   -1.7310    0.8265   -1.0479 C   0  0  0  0  0  0  0  0  0  0  0  0
   -1.4500    1.9944   -0.8471 O   0  0  0  0  0  0  0  0  0  0  0  0
    2.3941    1.7200    0.2825 H   0  0  0  0  0  0  0  0  0  0  0  0
    0.7576    2.2226    0.6604 H   0  0  0  0  0  0  0  0  0  0  0  0
    1.2101    1.5560   -1.0229 H   0  0  0  0  0  0  0  0  0  0  0  0
    0.8921   -0.0392    1.5766 H   0  0  0  0  0  0  0  0  0  0  0  0
    2.4987   -0.8259   -0.8293 H   0  0  0  0  0  0  0  0  0  0  0  0
    2.4911   -1.5753    0.8575 H   0  0  0  0  0  0  0  0  0  0  0  0
    3.2563    0.0662    0.5095 H   0  0  0  0  0  0  0  0  0  0  0  0
    0.1094   -1.7735    0.2216 H   0  0  0  0  0  0  0  0  0  0  0  0
    0.4492   -0.9492   -1.2868 H   0  0  0  0  0  0  0  0  0  0  0  0
   -3.0326   -0.0379    0.9331 H   0  0  0  0  0  0  0  0  0  0  0  0
   -1.5082    0.6634    1.5669 H   0  0  0  0  0  0  0  0  0  0  0  0
   -1.7860   -1.1607    1.6884 H   0  0  0  0  0  0  0  0  0  0  0  0
   -1.7969   -1.5095   -1.8287 H   0  0  0  0  0  0  0  0  0  0  0  0
   -2.3851    0.7029   -1.9391 H   0  0  0  0  0  0  0  0  0  0  0  0
  1  2  1  0
  2  3  1  0
  2  4  1  0
  4  5  1  0
  5  6  1  0
  5  7  1  0
  5  8  1  0
  8  9  2  0
  1 10  1  0
  1 11  1  0
  1 12  1  0
  2 13  1  0
  3 14  1  0
  3 15  1  0
  3 16  1  0
  4 17  1  0
  4 18  1  0
  6 19  1  0
  6 20  1  0
  6 21  1  0
  7 22  1  0
  8 23  1  0
M  END
