
     RDKit          3D

 23 24  0  0  0  0  0  0  0  0999 V2000
   -1.6958    1.5327    0.3886 C   0  0  0  0  0  0  0  0  0  0  0  0
   -1.2598    0.1023    0.3945 C   0  0  0  0  0  0  0  0  0  0  0  0
   -1.9552   -0.6711   -0.6975 C   0  0  0  0  0  0  0  0  0  0  0  0
    0.1595   -0.1683    0.6188 C   0  0  0  0  0  0  0  0  0  0  0  0
    1.2576    0.3364   -0.2354 C   0  0  0  0  0  0  0  0  0  0  0  0
    2.6079    0.3270    0.4745 C   0  0  0  0  0  0  0  0  0  0  0  0
    1.0236   -0.8221   -1.1034 C   0  0  0  0  0  0  0  0  0  0  0  0
    0.8708   -2.1327   -0.8905 O   0  0  0  0  0  0  0  0  0  0  0  0
    0.7123   -1.4957    0.2396 C   0  0  0  0  0  0  0  0  0  0  0  0
   -1.8535    1.9609    1.4014 H   0  0  0  0  0  0  0  0  0  0  0  0
   -2.6870    1.6131   -0.1233 H   0  0  0  0  0  0  0  0  0  0  0  0
   -1.0203    2.2213   -0.1389 H   0  0  0  0  0  0  0  0  0  0  0  0
   -1.7962   -0.2916    1.3367 H   0  0  0  0  0  0  0  0  0  0  0  0
   -1.5815   -1.6917   -0.8355 H   0  0  0  0  0  0  0  0  0  0  0  0
   -2.0640   -0.0848   -1.6542 H   0  0  0  0  0  0  0  0  0  0  0  0
   -3.0550   -0.8342   -0.4340 H   0  0  0  0  0  0  0  0  0  0  0  0
    0.4375    0.0896    1.6982 H   0  0  0  0  0  0  0  0  0  0  0  0
    1.1372    1.3145   -0.7160 H   0  0  0  0  0  0  0  0  0  0  0  0
    2.4388    0.1978    1.5438 H   0  0  0  0  0  0  0  0  0  0  0  0
    3.2715   -0.4764    0.0478 H   0  0  0  0  0  0  0  0  0  0  0  0
    3.1730    1.2706    0.3303 H   0  0  0  0  0  0  0  0  0  0  0  0
    0.2300   -0.5710   -1.8332 H   0  0  0  0  0  0  0  0  0  0  0  0
    1.6486   -1.7262    0.8582 H   0  0  0  0  0  0  0  0  0  0  0  0
  1  2  1  0
  2  3  1  0
  2  4  1  0
  4  5  1  0
  5  6  1  0
  5  7  1  0
  7  8  1  0
  8  9  1  0
  9  4  1  0
  9  7  1  0
  1 10  1  0
  1 11  1  0
  1 12  1  0
  2 13  1  0
  3 14  1  0
  3 15  1  0
  3 16  1  0
  4 17  1  0
  5 18  1  0
  6 19  1  0
  6 20  1  0
  6 21  1  0
  7 22  1  0
  9 23  1  0
M  END
