
     RDKit          3D

 21 22  0  0  0  0  0  0  0  0999 V2000
   -1.8005   -1.0896    0.1621 C   0  0  0  0  0  0  0  0  0  0  0  0
   -0.9612    0.1208    0.5825 C   0  0  0  0  0  0  0  0  0  0  0  0
   -1.8826    1.2746    0.7873 C   0  0  0  0  0  0  0  0  0  0  0  0
    0.0456    0.3301   -0.5151 C   0  0  0  0  0  0  0  0  0  0  0  0
    0.9500   -0.8248   -0.7457 C   0  0  0  0  0  0  0  0  0  0  0  0
    1.4340   -1.4226    0.4213 O   0  0  0  0  0  0  0  0  0  0  0  0
    2.3477   -0.3676    0.4972 C   0  0  0  0  0  0  0  0  0  0  0  0
    1.4652    0.5599   -0.2565 C   0  0  0  0  0  0  0  0  0  0  0  0
    2.1376    1.3286   -1.2332 O   0  0  0  0  0  0  0  0  0  0  0  0
   -1.2417   -2.0160    0.3279 H   0  0  0  0  0  0  0  0  0  0  0  0
   -1.9415   -1.0131   -0.9567 H   0  0  0  0  0  0  0  0  0  0  0  0
   -2.8082   -1.0654    0.5933 H   0  0  0  0  0  0  0  0  0  0  0  0
   -0.4586   -0.1812    1.5229 H   0  0  0  0  0  0  0  0  0  0  0  0
   -1.4266    2.1735    0.3444 H   0  0  0  0  0  0  0  0  0  0  0  0
   -2.8939    1.1199    0.3759 H   0  0  0  0  0  0  0  0  0  0  0  0
   -2.0266    1.4081    1.8953 H   0  0  0  0  0  0  0  0  0  0  0  0
   -0.4115    0.7457   -1.4522 H   0  0  0  0  0  0  0  0  0  0  0  0
    1.3208   -1.1166   -1.7223 H   0  0  0  0  0  0  0  0  0  0  0  0
    3.2558   -0.6663   -0.1040 H   0  0  0  0  0  0  0  0  0  0  0  0
    2.6443   -0.0649    1.5132 H   0  0  0  0  0  0  0  0  0  0  0  0
    2.2519    0.7668   -2.0377 H   0  0  0  0  0  0  0  0  0  0  0  0
  1  2  1  0
  2  3  1  0
  2  4  1  0
  4  5  1  0
  5  6  1  0
  6  7  1  0
  7  8  1  0
  8  9  1  0
  8  4  1  0
  8  5  1  0
  1 10  1  0
  1 11  1  0
  1 12  1  0
  2 13  1  0
  3 14  1  0
  3 15  1  0
  3 16  1  0
  4 17  1  0
  5 18  1  0
  7 19  1  0
  7 20  1  0
  9 21  1  0
M  END
