
     RDKit          3D

 25 25  0  0  0  0  0  0  0  0999 V2000
   -1.9222    0.8111   -1.0772 C   0  0  0  0  0  0  0  0  0  0  0  0
   -1.1204   -0.3468   -0.5521 C   0  0  0  0  0  0  0  0  0  0  0  0
   -1.9639   -1.1278    0.3908 C   0  0  0  0  0  0  0  0  0  0  0  0
    0.2122    0.0637    0.0052 C   0  0  0  0  0  0  0  0  0  0  0  0
    0.0811    1.0383    1.1590 C   0  0  0  0  0  0  0  0  0  0  0  0
    1.0634    0.7157   -1.0146 C   0  0  0  0  0  0  0  0  0  0  0  0
    2.3228    0.4129   -0.7422 C   0  0  0  0  0  0  0  0  0  0  0  0
    2.4444   -0.4550    0.4606 C   0  0  0  0  0  0  0  0  0  0  0  0
    1.0389   -1.0859    0.4820 C   0  0  0  0  0  0  0  0  0  0  0  0
   -2.1714    0.7026   -2.1697 H   0  0  0  0  0  0  0  0  0  0  0  0
   -1.4574    1.7882   -0.9317 H   0  0  0  0  0  0  0  0  0  0  0  0
   -2.9336    0.8723   -0.5769 H   0  0  0  0  0  0  0  0  0  0  0  0
   -0.9015   -1.0070   -1.4324 H   0  0  0  0  0  0  0  0  0  0  0  0
   -1.4809   -2.0387    0.7918 H   0  0  0  0  0  0  0  0  0  0  0  0
   -2.3354   -0.4671    1.2093 H   0  0  0  0  0  0  0  0  0  0  0  0
   -2.8671   -1.4675   -0.1592 H   0  0  0  0  0  0  0  0  0  0  0  0
   -0.3035    0.5704    2.0636 H   0  0  0  0  0  0  0  0  0  0  0  0
    1.1081    1.4114    1.3789 H   0  0  0  0  0  0  0  0  0  0  0  0
   -0.4974    1.9546    0.8610 H   0  0  0  0  0  0  0  0  0  0  0  0
    0.7440    1.3471   -1.8630 H   0  0  0  0  0  0  0  0  0  0  0  0
    3.1744    0.7532   -1.3228 H   0  0  0  0  0  0  0  0  0  0  0  0
    2.6622    0.0894    1.3816 H   0  0  0  0  0  0  0  0  0  0  0  0
    3.2261   -1.2332    0.3395 H   0  0  0  0  0  0  0  0  0  0  0  0
    0.7843   -1.3671    1.5230 H   0  0  0  0  0  0  0  0  0  0  0  0
    1.0930   -1.9350   -0.2045 H   0  0  0  0  0  0  0  0  0  0  0  0
  1  2  1  0
  2  3  1  0
  2  4  1  0
  4  5  1  0
  4  6  1  0
  6  7  2  0
  7  8  1  0
  8  9  1  0
  9  4  1  0
  1 10  1  0
  1 11  1  0
  1 12  1  0
  2 13  1  0
  3 14  1  0
  3 15  1  0
  3 16  1  0
  5 17  1  0
  5 18  1  0
  5 19  1  0
  6 20  1  0
  7 21  1  0
  8 22  1  0
  8 23  1  0
  9 24  1  0
  9 25  1  0
M  END
