
     RDKit          3D

 21 20  0  0  0  0  0  0  0  0999 V2000
   -1.7541    0.9155   -1.3929 C   0  0  0  0  0  0  0  0  0  0  0  0
   -1.5375   -0.2196   -0.4348 C   0  0  0  0  0  0  0  0  0  0  0  0
   -2.6978   -0.2735    0.5287 C   0  0  0  0  0  0  0  0  0  0  0  0
   -0.2456   -0.1380    0.3276 C   0  0  0  0  0  0  0  0  0  0  0  0
    0.9357   -0.1613   -0.6334 C   0  0  0  0  0  0  0  0  0  0  0  0
    2.2021   -0.1867    0.1281 C   0  0  0  0  0  0  0  0  0  0  0  0
    3.2259   -0.2279    0.7382 C   0  0  0  0  0  0  0  0  0  0  0  0
    4.5038   -0.2988    1.4890 C   0  0  0  0  0  0  0  0  0  0  0  0
    4.8862    0.4680    2.3138 O   0  0  0  0  0  0  0  0  0  0  0  0
   -2.7449    0.7707   -1.8907 H   0  0  0  0  0  0  0  0  0  0  0  0
   -0.9700    0.9771   -2.1943 H   0  0  0  0  0  0  0  0  0  0  0  0
   -1.8341    1.8679   -0.8121 H   0  0  0  0  0  0  0  0  0  0  0  0
   -1.5441   -1.2201   -1.0154 H   0  0  0  0  0  0  0  0  0  0  0  0
   -3.5029   -0.9227    0.1448 H   0  0  0  0  0  0  0  0  0  0  0  0
   -3.0904    0.7525    0.6476 H   0  0  0  0  0  0  0  0  0  0  0  0
   -2.2791   -0.6676    1.4856 H   0  0  0  0  0  0  0  0  0  0  0  0
   -0.2684    0.8244    0.9072 H   0  0  0  0  0  0  0  0  0  0  0  0
   -0.1568   -0.9853    1.0237 H   0  0  0  0  0  0  0  0  0  0  0  0
    0.8935   -0.9706   -1.3575 H   0  0  0  0  0  0  0  0  0  0  0  0
    0.8593    0.8238   -1.1982 H   0  0  0  0  0  0  0  0  0  0  0  0
    5.1191   -1.1991    1.1952 H   0  0  0  0  0  0  0  0  0  0  0  0
  1  2  1  0
  2  3  1  0
  2  4  1  0
  4  5  1  0
  5  6  1  0
  6  7  3  0
  7  8  1  0
  8  9  2  0
  1 10  1  0
  1 11  1  0
  1 12  1  0
  2 13  1  0
  3 14  1  0
  3 15  1  0
  3 16  1  0
  4 17  1  0
  4 18  1  0
  5 19  1  0
  5 20  1  0
  8 21  1  0
M  END
