
     RDKit          3D

 23 22  0  0  0  0  0  0  0  0999 V2000
    3.1788    0.3636    0.2197 C   0  0  0  0  0  0  0  0  0  0  0  0
    2.1265   -0.6383    0.6068 C   0  0  0  0  0  0  0  0  0  0  0  0
    2.0585   -1.7529   -0.4196 C   0  0  0  0  0  0  0  0  0  0  0  0
    0.8281    0.0087    0.7943 C   0  0  0  0  0  0  0  0  0  0  0  0
   -0.2378    0.5605    0.9597 C   0  0  0  0  0  0  0  0  0  0  0  0
   -1.5383    1.2261    1.1742 C   0  0  0  0  0  0  0  0  0  0  0  0
   -2.3801    0.9098   -0.0430 C   0  0  0  0  0  0  0  0  0  0  0  0
   -2.5694   -0.5841   -0.1941 C   0  0  0  0  0  0  0  0  0  0  0  0
   -3.6550    1.4470    0.1956 O   0  0  0  0  0  0  0  0  0  0  0  0
    3.1371    0.6368   -0.8591 H   0  0  0  0  0  0  0  0  0  0  0  0
    4.1766   -0.0751    0.4801 H   0  0  0  0  0  0  0  0  0  0  0  0
    2.9833    1.2866    0.7918 H   0  0  0  0  0  0  0  0  0  0  0  0
    2.4803   -1.1199    1.5563 H   0  0  0  0  0  0  0  0  0  0  0  0
    1.6456   -2.6697    0.0566 H   0  0  0  0  0  0  0  0  0  0  0  0
    1.5567   -1.4676   -1.3436 H   0  0  0  0  0  0  0  0  0  0  0  0
    3.1324   -2.0137   -0.6516 H   0  0  0  0  0  0  0  0  0  0  0  0
   -2.0786    0.7881    2.0467 H   0  0  0  0  0  0  0  0  0  0  0  0
   -1.4275    2.3233    1.2807 H   0  0  0  0  0  0  0  0  0  0  0  0
   -1.9867    1.3466   -0.9713 H   0  0  0  0  0  0  0  0  0  0  0  0
   -2.4546   -1.1164    0.7876 H   0  0  0  0  0  0  0  0  0  0  0  0
   -3.5827   -0.7855   -0.6001 H   0  0  0  0  0  0  0  0  0  0  0  0
   -1.7734   -1.0299   -0.8531 H   0  0  0  0  0  0  0  0  0  0  0  0
   -3.6197    2.3559    0.5596 H   0  0  0  0  0  0  0  0  0  0  0  0
  1  2  1  0
  2  3  1  0
  2  4  1  0
  4  5  3  0
  5  6  1  0
  6  7  1  0
  7  8  1  0
  7  9  1  0
  1 10  1  0
  1 11  1  0
  1 12  1  0
  2 13  1  0
  3 14  1  0
  3 15  1  0
  3 16  1  0
  6 17  1  0
  6 18  1  0
  7 19  1  0
  8 20  1  0
  8 21  1  0
  8 22  1  0
  9 23  1  0
M  END
