
     RDKit          3D

 23 23  0  0  0  0  0  0  0  0999 V2000
   -0.1616   -1.3307   -0.7336 C   0  0  0  0  0  0  0  0  0  0  0  0
   -0.0859    0.0021    0.0208 C   0  0  0  0  0  0  0  0  0  0  0  0
    0.8517   -0.1654    1.1599 C   0  0  0  0  0  0  0  0  0  0  0  0
    2.2268   -0.5440    0.7292 C   0  0  0  0  0  0  0  0  0  0  0  0
    2.9041    0.4381   -0.1392 C   0  0  0  0  0  0  0  0  0  0  0  0
    2.4280    1.4979   -0.4734 O   0  0  0  0  0  0  0  0  0  0  0  0
   -1.5073    0.2829    0.4522 C   0  0  0  0  0  0  0  0  0  0  0  0
   -2.4846    0.3994   -0.7312 C   0  0  0  0  0  0  0  0  0  0  0  0
   -2.1906    1.5364    0.1744 C   0  0  0  0  0  0  0  0  0  0  0  0
   -0.8803   -1.1365   -1.5783 H   0  0  0  0  0  0  0  0  0  0  0  0
   -0.5343   -2.1102   -0.0501 H   0  0  0  0  0  0  0  0  0  0  0  0
    0.7802   -1.6101   -1.1968 H   0  0  0  0  0  0  0  0  0  0  0  0
    0.2717    0.7765   -0.6697 H   0  0  0  0  0  0  0  0  0  0  0  0
    0.5191   -0.9540    1.8895 H   0  0  0  0  0  0  0  0  0  0  0  0
    0.9558    0.7752    1.7725 H   0  0  0  0  0  0  0  0  0  0  0  0
    2.2688   -1.5161    0.1897 H   0  0  0  0  0  0  0  0  0  0  0  0
    2.8751   -0.7030    1.6384 H   0  0  0  0  0  0  0  0  0  0  0  0
    3.8935    0.1884   -0.4985 H   0  0  0  0  0  0  0  0  0  0  0  0
   -1.8418   -0.3590    1.2960 H   0  0  0  0  0  0  0  0  0  0  0  0
   -3.4382   -0.1832   -0.6313 H   0  0  0  0  0  0  0  0  0  0  0  0
   -2.0968    0.4865   -1.7437 H   0  0  0  0  0  0  0  0  0  0  0  0
   -3.0392    1.7976    0.8709 H   0  0  0  0  0  0  0  0  0  0  0  0
   -1.7141    2.4311   -0.2420 H   0  0  0  0  0  0  0  0  0  0  0  0
  1  2  1  0
  2  3  1  0
  3  4  1  0
  4  5  1  0
  5  6  2  0
  2  7  1  0
  7  8  1  0
  8  9  1  0
  9  7  1  0
  1 10  1  0
  1 11  1  0
  1 12  1  0
  2 13  1  0
  3 14  1  0
  3 15  1  0
  4 16  1  0
  4 17  1  0
  5 18  1  0
  7 19  1  0
  8 20  1  0
  8 21  1  0
  9 22  1  0
  9 23  1  0
M  END
