
     RDKit          3D

 23 23  0  0  0  0  0  0  0  0999 V2000
    2.2503    1.0848   -0.9148 C   0  0  0  0  0  0  0  0  0  0  0  0
    1.5487    0.1669    0.0505 C   0  0  0  0  0  0  0  0  0  0  0  0
    2.4276   -1.0424    0.2579 C   0  0  0  0  0  0  0  0  0  0  0  0
    0.2606   -0.1458   -0.3207 O   0  0  0  0  0  0  0  0  0  0  0  0
   -0.6989    0.2805    0.5805 C   0  0  0  0  0  0  0  0  0  0  0  0
   -1.9975   -0.3916    0.6704 C   0  0  0  0  0  0  0  0  0  0  0  0
   -2.3111   -1.6469   -0.1000 C   0  0  0  0  0  0  0  0  0  0  0  0
   -1.9491    0.8590   -0.0926 C   0  0  0  0  0  0  0  0  0  0  0  0
   -2.3994    2.0658    0.4370 O   0  0  0  0  0  0  0  0  0  0  0  0
    2.0204    2.1598   -0.7227 H   0  0  0  0  0  0  0  0  0  0  0  0
    2.0830    0.8086   -1.9757 H   0  0  0  0  0  0  0  0  0  0  0  0
    3.3401    0.9753   -0.7305 H   0  0  0  0  0  0  0  0  0  0  0  0
    1.4904    0.7064    1.0226 H   0  0  0  0  0  0  0  0  0  0  0  0
    1.8480   -1.9710    0.4358 H   0  0  0  0  0  0  0  0  0  0  0  0
    3.1391   -1.1632   -0.6105 H   0  0  0  0  0  0  0  0  0  0  0  0
    3.1101   -0.8580    1.1348 H   0  0  0  0  0  0  0  0  0  0  0  0
   -0.3444    0.8152    1.4841 H   0  0  0  0  0  0  0  0  0  0  0  0
   -2.5460   -0.3369    1.6529 H   0  0  0  0  0  0  0  0  0  0  0  0
   -2.6907   -1.3798   -1.1184 H   0  0  0  0  0  0  0  0  0  0  0  0
   -3.1211   -2.2444    0.3670 H   0  0  0  0  0  0  0  0  0  0  0  0
   -1.4284   -2.3349   -0.1602 H   0  0  0  0  0  0  0  0  0  0  0  0
   -2.0233    0.8082   -1.1920 H   0  0  0  0  0  0  0  0  0  0  0  0
   -2.0086    2.7842   -0.1554 H   0  0  0  0  0  0  0  0  0  0  0  0
  1  2  1  0
  2  3  1  0
  2  4  1  0
  4  5  1  0
  5  6  1  0
  6  7  1  0
  6  8  1  0
  8  9  1  0
  8  5  1  0
  1 10  1  0
  1 11  1  0
  1 12  1  0
  2 13  1  0
  3 14  1  0
  3 15  1  0
  3 16  1  0
  5 17  1  0
  6 18  1  0
  7 19  1  0
  7 20  1  0
  7 21  1  0
  8 22  1  0
  9 23  1  0
M  END
