
     RDKit          3D

 18 17  0  0  0  0  0  0  0  0999 V2000
   -0.8461    1.8122    0.0336 C   0  0  0  0  0  0  0  0  0  0  0  0
   -0.9902    0.5273   -0.8550 C   0  0  0  0  0  0  0  0  0  0  0  0
   -2.3437   -0.0561   -0.6616 C   0  0  0  0  0  0  0  0  0  0  0  0
   -0.0132   -0.4271   -0.2052 C   0  0  0  0  0  0  0  0  0  0  0  0
    0.8627   -0.7674    0.2017 C   0  0  0  0  0  0  0  0  0  0  0  0
    2.2603   -1.3116    0.8796 C   0  0  0  0  0  0  0  0  0  0  0  0
    3.5315   -1.8299    1.4849 C   0  0  0  0  0  0  0  0  0  0  0  0
    3.1826   -1.5521    2.8735 O   0  0  0  0  0  0  0  0  0  0  0  0
   -0.0926    1.5470    0.8620 H   0  0  0  0  0  0  0  0  0  0  0  0
   -0.2043    2.4671   -0.6398 H   0  0  0  0  0  0  0  0  0  0  0  0
   -1.7040    2.2056    0.4372 H   0  0  0  0  0  0  0  0  0  0  0  0
   -0.7666    0.7866   -1.9427 H   0  0  0  0  0  0  0  0  0  0  0  0
   -2.9758    0.6911   -0.0394 H   0  0  0  0  0  0  0  0  0  0  0  0
   -2.8976   -0.2639   -1.5528 H   0  0  0  0  0  0  0  0  0  0  0  0
   -2.2522   -0.9868   -0.0299 H   0  0  0  0  0  0  0  0  0  0  0  0
    0.9498    0.4020   -1.1844 H   0  0  0  0  0  0  0  0  0  0  0  0
    0.0889   -1.0770   -1.5096 H   0  0  0  0  0  0  0  0  0  0  0  0
    4.2105   -2.1670    1.2221 H   0  0  0  0  0  0  0  0  0  0  0  0
  1  2  1  0
  2  3  1  0
  2  4  1  0
  4  5  1  0
  5  6  3  0
  6  7  1  0
  7  8  2  0
  1  9  1  0
  1 10  1  0
  1 11  1  0
  2 12  1  0
  3 13  1  0
  3 14  1  0
  3 15  1  0
  4 16  1  0
  4 17  1  0
  7 18  1  0
M  END
