
     RDKit          3D

 23 23  0  0  0  0  0  0  0  0999 V2000
   -1.4024   -1.3207    0.5667 C   0  0  0  0  0  0  0  0  0  0  0  0
   -1.0331   -0.4236   -0.5974 C   0  0  0  0  0  0  0  0  0  0  0  0
   -2.2855    0.3656   -0.9563 C   0  0  0  0  0  0  0  0  0  0  0  0
   -2.6705    1.1133    0.1588 O   0  0  0  0  0  0  0  0  0  0  0  0
    0.0021    0.5685   -0.1546 C   0  0  0  0  0  0  0  0  0  0  0  0
    1.2696   -0.0799    0.3424 C   0  0  0  0  0  0  0  0  0  0  0  0
    1.1278   -0.9318    1.4366 O   0  0  0  0  0  0  0  0  0  0  0  0
    2.4263    0.9254    0.4905 C   0  0  0  0  0  0  0  0  0  0  0  0
    2.4587   -0.2034   -0.5022 C   0  0  0  0  0  0  0  0  0  0  0  0
   -0.8676   -2.3045    0.4661 H   0  0  0  0  0  0  0  0  0  0  0  0
   -2.4936   -1.5602    0.5674 H   0  0  0  0  0  0  0  0  0  0  0  0
   -1.2051   -0.8393    1.5471 H   0  0  0  0  0  0  0  0  0  0  0  0
   -0.7106   -1.0279   -1.4696 H   0  0  0  0  0  0  0  0  0  0  0  0
   -3.1293   -0.2761   -1.2271 H   0  0  0  0  0  0  0  0  0  0  0  0
   -2.0032    1.0841   -1.7470 H   0  0  0  0  0  0  0  0  0  0  0  0
   -2.2451    2.0245    0.1403 H   0  0  0  0  0  0  0  0  0  0  0  0
    0.2142    1.2448   -1.0074 H   0  0  0  0  0  0  0  0  0  0  0  0
   -0.4478    1.1722    0.6611 H   0  0  0  0  0  0  0  0  0  0  0  0
    2.0228   -1.3346    1.6195 H   0  0  0  0  0  0  0  0  0  0  0  0
    2.3156    1.9211    0.0611 H   0  0  0  0  0  0  0  0  0  0  0  0
    3.0249    0.8840    1.4147 H   0  0  0  0  0  0  0  0  0  0  0  0
    3.1893   -1.0077   -0.2284 H   0  0  0  0  0  0  0  0  0  0  0  0
    2.4425    0.0062   -1.5824 H   0  0  0  0  0  0  0  0  0  0  0  0
  1  2  1  0
  2  3  1  0
  3  4  1  0
  2  5  1  0
  5  6  1  0
  6  7  1  0
  6  8  1  0
  8  9  1  0
  9  6  1  0
  1 10  1  0
  1 11  1  0
  1 12  1  0
  2 13  1  0
  3 14  1  0
  3 15  1  0
  4 16  1  0
  5 17  1  0
  5 18  1  0
  7 19  1  0
  8 20  1  0
  8 21  1  0
  9 22  1  0
  9 23  1  0
M  END
