
     RDKit          3D

 25 24  0  0  0  0  0  0  0  0999 V2000
    1.4816   -1.6343    0.0140 C   0  0  0  0  0  0  0  0  0  0  0  0
    1.2075   -0.1526    0.1707 C   0  0  0  0  0  0  0  0  0  0  0  0
    2.4274    0.5756   -0.4126 C   0  0  0  0  0  0  0  0  0  0  0  0
    2.2366    1.9352   -0.2984 O   0  0  0  0  0  0  0  0  0  0  0  0
    0.0232    0.3011   -0.6219 C   0  0  0  0  0  0  0  0  0  0  0  0
   -1.2574   -0.3859   -0.2435 C   0  0  0  0  0  0  0  0  0  0  0  0
   -1.6417   -0.1729    1.1964 C   0  0  0  0  0  0  0  0  0  0  0  0
   -2.3789    0.1565   -1.0995 C   0  0  0  0  0  0  0  0  0  0  0  0
   -2.5203    1.5333   -0.9039 O   0  0  0  0  0  0  0  0  0  0  0  0
    2.5957   -1.8162    0.0398 H   0  0  0  0  0  0  0  0  0  0  0  0
    1.1276   -2.0444   -0.9395 H   0  0  0  0  0  0  0  0  0  0  0  0
    1.0937   -2.2104    0.9018 H   0  0  0  0  0  0  0  0  0  0  0  0
    1.0814    0.0907    1.2281 H   0  0  0  0  0  0  0  0  0  0  0  0
    2.5592    0.2749   -1.4705 H   0  0  0  0  0  0  0  0  0  0  0  0
    3.3563    0.2354    0.1204 H   0  0  0  0  0  0  0  0  0  0  0  0
    2.5761    2.2513    0.5631 H   0  0  0  0  0  0  0  0  0  0  0  0
   -0.1147    1.3848   -0.4289 H   0  0  0  0  0  0  0  0  0  0  0  0
    0.1670    0.1804   -1.7072 H   0  0  0  0  0  0  0  0  0  0  0  0
   -1.1805   -1.4627   -0.4556 H   0  0  0  0  0  0  0  0  0  0  0  0
   -1.1529   -0.9177    1.8720 H   0  0  0  0  0  0  0  0  0  0  0  0
   -1.3452    0.8239    1.5550 H   0  0  0  0  0  0  0  0  0  0  0  0
   -2.7327   -0.3643    1.2734 H   0  0  0  0  0  0  0  0  0  0  0  0
   -3.3417   -0.3581   -0.8865 H   0  0  0  0  0  0  0  0  0  0  0  0
   -2.1605   -0.0560   -2.1728 H   0  0  0  0  0  0  0  0  0  0  0  0
   -2.1067    1.8325   -0.0550 H   0  0  0  0  0  0  0  0  0  0  0  0
  1  2  1  0
  2  3  1  0
  3  4  1  0
  2  5  1  0
  5  6  1  0
  6  7  1  0
  6  8  1  0
  8  9  1  0
  1 10  1  0
  1 11  1  0
  1 12  1  0
  2 13  1  0
  3 14  1  0
  3 15  1  0
  4 16  1  0
  5 17  1  0
  5 18  1  0
  6 19  1  0
  7 20  1  0
  7 21  1  0
  7 22  1  0
  8 23  1  0
  8 24  1  0
  9 25  1  0
M  END
