
     RDKit          3D

 23 23  0  0  0  0  0  0  0  0999 V2000
    1.3655    1.1571    1.0244 C   0  0  0  0  0  0  0  0  0  0  0  0
    1.0137   -0.1727    0.3459 C   0  0  0  0  0  0  0  0  0  0  0  0
    1.7815   -0.2303   -0.9299 C   0  0  0  0  0  0  0  0  0  0  0  0
   -0.4669   -0.2392    0.2166 C   0  0  0  0  0  0  0  0  0  0  0  0
   -1.1908   -0.1731    1.5697 C   0  0  0  0  0  0  0  0  0  0  0  0
   -1.0832    0.3785   -0.9662 C   0  0  0  0  0  0  0  0  0  0  0  0
   -2.2394    1.1493   -0.7049 O   0  0  0  0  0  0  0  0  0  0  0  0
   -1.1447   -1.0912   -0.7868 C   0  0  0  0  0  0  0  0  0  0  0  0
   -0.4018   -1.9340   -1.5794 O   0  0  0  0  0  0  0  0  0  0  0  0
    1.4165    1.9784    0.2770 H   0  0  0  0  0  0  0  0  0  0  0  0
    0.6368    1.4286    1.7937 H   0  0  0  0  0  0  0  0  0  0  0  0
    2.3900    1.0749    1.4504 H   0  0  0  0  0  0  0  0  0  0  0  0
    1.4323   -0.9565    1.0245 H   0  0  0  0  0  0  0  0  0  0  0  0
    2.8596   -0.0279   -0.6541 H   0  0  0  0  0  0  0  0  0  0  0  0
    1.8225   -1.2562   -1.3842 H   0  0  0  0  0  0  0  0  0  0  0  0
    1.5299    0.5424   -1.6640 H   0  0  0  0  0  0  0  0  0  0  0  0
   -0.5011   -0.3921    2.4055 H   0  0  0  0  0  0  0  0  0  0  0  0
   -1.6910    0.8162    1.6982 H   0  0  0  0  0  0  0  0  0  0  0  0
   -2.0016   -0.9292    1.6274 H   0  0  0  0  0  0  0  0  0  0  0  0
   -0.4837    0.8061   -1.7790 H   0  0  0  0  0  0  0  0  0  0  0  0
   -1.8960    1.9245   -0.1662 H   0  0  0  0  0  0  0  0  0  0  0  0
   -2.1765   -1.4793   -0.5577 H   0  0  0  0  0  0  0  0  0  0  0  0
   -0.9715   -2.3746   -2.2609 H   0  0  0  0  0  0  0  0  0  0  0  0
  1  2  1  0
  2  3  1  0
  2  4  1  0
  4  5  1  0
  4  6  1  0
  6  7  1  0
  6  8  1  0
  8  9  1  0
  8  4  1  0
  1 10  1  0
  1 11  1  0
  1 12  1  0
  2 13  1  0
  3 14  1  0
  3 15  1  0
  3 16  1  0
  5 17  1  0
  5 18  1  0
  5 19  1  0
  6 20  1  0
  7 21  1  0
  8 22  1  0
  9 23  1  0
M  END
