
     RDKit          3D

 16 16  0  0  0  0  0  0  0  0999 V2000
   -1.3503   -0.7200    0.1323 C   0  0  0  0  0  0  0  0  0  0  0  0
   -0.2597    0.2775    0.4454 C   0  0  0  0  0  0  0  0  0  0  0  0
   -0.7739    1.6476   -0.0130 C   0  0  0  0  0  0  0  0  0  0  0  0
    1.0442   -0.0611   -0.1963 C   0  0  0  0  0  0  0  0  0  0  0  0
    1.7636   -1.2735    0.0437 C   0  0  0  0  0  0  0  0  0  0  0  0
    2.1644   -0.0853    0.7979 O   0  0  0  0  0  0  0  0  0  0  0  0
   -1.7149   -1.2446    1.0456 H   0  0  0  0  0  0  0  0  0  0  0  0
   -0.9671   -1.4539   -0.6040 H   0  0  0  0  0  0  0  0  0  0  0  0
   -2.2491   -0.2468   -0.3201 H   0  0  0  0  0  0  0  0  0  0  0  0
   -0.1942    0.3565    1.5590 H   0  0  0  0  0  0  0  0  0  0  0  0
   -1.3154    1.5136   -0.9678 H   0  0  0  0  0  0  0  0  0  0  0  0
   -1.4943    2.0153    0.7470 H   0  0  0  0  0  0  0  0  0  0  0  0
    0.0382    2.3707   -0.1107 H   0  0  0  0  0  0  0  0  0  0  0  0
    1.3053    0.5653   -1.0664 H   0  0  0  0  0  0  0  0  0  0  0  0
    2.5942   -1.5529   -0.6323 H   0  0  0  0  0  0  0  0  0  0  0  0
    1.4089   -2.1085    0.6664 H   0  0  0  0  0  0  0  0  0  0  0  0
  1  2  1  0
  2  3  1  0
  2  4  1  0
  4  5  1  0
  5  6  1  0
  6  4  1  0
  1  7  1  0
  1  8  1  0
  1  9  1  0
  2 10  1  0
  3 11  1  0
  3 12  1  0
  3 13  1  0
  4 14  1  0
  5 15  1  0
  5 16  1  0
M  END
