
     RDKit          3D

 17 16  0  0  0  0  0  0  0  0999 V2000
   -0.8464    1.1569   -0.4329 C   0  0  0  0  0  0  0  0  0  0  0  0
   -0.3482   -0.2100   -0.0411 C   0  0  0  0  0  0  0  0  0  0  0  0
   -0.6987   -0.4377    1.3835 C   0  0  0  0  0  0  0  0  0  0  0  0
   -1.1487    0.3908    2.1320 O   0  0  0  0  0  0  0  0  0  0  0  0
   -1.0567   -1.2017   -0.8904 C   0  0  0  0  0  0  0  0  0  0  0  0
   -1.9108   -0.9039   -1.6901 O   0  0  0  0  0  0  0  0  0  0  0  0
    1.1306   -0.3677   -0.3214 C   0  0  0  0  0  0  0  0  0  0  0  0
    1.9444    0.6088    0.4221 C   0  0  0  0  0  0  0  0  0  0  0  0
    2.4594    0.3018    1.4714 O   0  0  0  0  0  0  0  0  0  0  0  0
   -1.8526    1.0620   -0.8819 H   0  0  0  0  0  0  0  0  0  0  0  0
   -0.9643    1.7747    0.4831 H   0  0  0  0  0  0  0  0  0  0  0  0
   -0.2076    1.6307   -1.2079 H   0  0  0  0  0  0  0  0  0  0  0  0
   -0.5257   -1.4555    1.7656 H   0  0  0  0  0  0  0  0  0  0  0  0
   -0.7796   -2.2460   -0.7752 H   0  0  0  0  0  0  0  0  0  0  0  0
    1.3544   -0.2751   -1.3989 H   0  0  0  0  0  0  0  0  0  0  0  0
    1.3698   -1.4271   -0.0491 H   0  0  0  0  0  0  0  0  0  0  0  0
    2.0807    1.5990    0.0312 H   0  0  0  0  0  0  0  0  0  0  0  0
  1  2  1  0
  2  3  1  0
  3  4  2  0
  2  5  1  0
  5  6  2  0
  2  7  1  0
  7  8  1  0
  8  9  2  0
  1 10  1  0
  1 11  1  0
  1 12  1  0
  3 13  1  0
  5 14  1  0
  7 15  1  0
  7 16  1  0
  8 17  1  0
M  END
