
     RDKit          3D

 21 21  0  0  0  0  0  0  0  0999 V2000
   -1.5022   -0.0345    1.1545 C   0  0  0  0  0  0  0  0  0  0  0  0
   -0.5212    0.3018    0.0949 C   0  0  0  0  0  0  0  0  0  0  0  0
   -1.2588    0.2441   -1.2501 C   0  0  0  0  0  0  0  0  0  0  0  0
   -0.0133    1.7001    0.2170 C   0  0  0  0  0  0  0  0  0  0  0  0
   -0.3716    2.6035   -0.4838 O   0  0  0  0  0  0  0  0  0  0  0  0
    0.6587   -0.6159    0.0098 C   0  0  0  0  0  0  0  0  0  0  0  0
    1.6464   -0.2490   -1.0825 C   0  0  0  0  0  0  0  0  0  0  0  0
    1.2229   -1.3053    1.1667 C   0  0  0  0  0  0  0  0  0  0  0  0
    0.4271   -1.9664    0.2610 O   0  0  0  0  0  0  0  0  0  0  0  0
   -2.4507   -0.4942    0.7483 H   0  0  0  0  0  0  0  0  0  0  0  0
   -1.8558    0.9366    1.6125 H   0  0  0  0  0  0  0  0  0  0  0  0
   -1.1521   -0.6789    1.9537 H   0  0  0  0  0  0  0  0  0  0  0  0
   -0.7859    0.8881   -1.9862 H   0  0  0  0  0  0  0  0  0  0  0  0
   -1.3952   -0.7976   -1.5768 H   0  0  0  0  0  0  0  0  0  0  0  0
   -2.2982    0.6410   -1.0694 H   0  0  0  0  0  0  0  0  0  0  0  0
    0.7222    1.8971    0.9883 H   0  0  0  0  0  0  0  0  0  0  0  0
    1.6832   -0.9956   -1.8861 H   0  0  0  0  0  0  0  0  0  0  0  0
    2.6857   -0.1451   -0.6657 H   0  0  0  0  0  0  0  0  0  0  0  0
    1.4139    0.7276   -1.5489 H   0  0  0  0  0  0  0  0  0  0  0  0
    0.8540   -1.0593    2.1804 H   0  0  0  0  0  0  0  0  0  0  0  0
    2.2909   -1.5984    1.1623 H   0  0  0  0  0  0  0  0  0  0  0  0
  1  2  1  0
  2  3  1  0
  2  4  1  0
  4  5  2  0
  2  6  1  0
  6  7  1  0
  6  8  1  0
  8  9  1  0
  9  6  1  0
  1 10  1  0
  1 11  1  0
  1 12  1  0
  3 13  1  0
  3 14  1  0
  3 15  1  0
  4 16  1  0
  7 17  1  0
  7 18  1  0
  7 19  1  0
  8 20  1  0
  8 21  1  0
M  END
