
     RDKit          3D

 19 20  0  0  0  0  0  0  0  0999 V2000
   -1.8914   -0.8122    0.2546 C   0  0  0  0  0  0  0  0  0  0  0  0
   -0.9127    0.3237    0.4187 C   0  0  0  0  0  0  0  0  0  0  0  0
   -0.9522    1.1903   -0.8317 C   0  0  0  0  0  0  0  0  0  0  0  0
    0.4630   -0.1189    0.7700 C   0  0  0  0  0  0  0  0  0  0  0  0
    1.2363   -1.0338   -0.1547 C   0  0  0  0  0  0  0  0  0  0  0  0
    2.4578   -0.2552    0.1973 C   0  0  0  0  0  0  0  0  0  0  0  0
    3.6392   -0.2960   -0.0895 O   0  0  0  0  0  0  0  0  0  0  0  0
    1.5891    0.5974    1.0584 C   0  0  0  0  0  0  0  0  0  0  0  0
    0.9228   -0.1100    2.0706 O   0  0  0  0  0  0  0  0  0  0  0  0
   -2.9008   -0.4420    0.5214 H   0  0  0  0  0  0  0  0  0  0  0  0
   -1.9376   -1.0796   -0.8252 H   0  0  0  0  0  0  0  0  0  0  0  0
   -1.6575   -1.6830    0.8918 H   0  0  0  0  0  0  0  0  0  0  0  0
   -1.2891    0.9598    1.2455 H   0  0  0  0  0  0  0  0  0  0  0  0
   -0.7458    0.5056   -1.6839 H   0  0  0  0  0  0  0  0  0  0  0  0
   -1.9855    1.6115   -0.8753 H   0  0  0  0  0  0  0  0  0  0  0  0
   -0.1899    1.9939   -0.7364 H   0  0  0  0  0  0  0  0  0  0  0  0
    1.3159   -2.0576    0.2607 H   0  0  0  0  0  0  0  0  0  0  0  0
    1.0181   -0.9427   -1.2225 H   0  0  0  0  0  0  0  0  0  0  0  0
    1.8202    1.6489    1.2039 H   0  0  0  0  0  0  0  0  0  0  0  0
  1  2  1  0
  2  3  1  0
  2  4  1  0
  4  5  1  0
  5  6  1  0
  6  7  2  0
  6  8  1  0
  8  9  1  0
  8  4  1  0
  9  4  1  0
  1 10  1  0
  1 11  1  0
  1 12  1  0
  2 13  1  0
  3 14  1  0
  3 15  1  0
  3 16  1  0
  5 17  1  0
  5 18  1  0
  8 19  1  0
M  END
