
     RDKit          3D

 21 20  0  0  0  0  0  0  0  0999 V2000
   -1.3703    1.1286    0.8742 C   0  0  0  0  0  0  0  0  0  0  0  0
   -1.3379   -0.3151    0.4601 C   0  0  0  0  0  0  0  0  0  0  0  0
   -2.5438   -0.6490   -0.3886 C   0  0  0  0  0  0  0  0  0  0  0  0
   -0.0487   -0.5509   -0.3161 C   0  0  0  0  0  0  0  0  0  0  0  0
    1.1167   -0.2157    0.6013 C   0  0  0  0  0  0  0  0  0  0  0  0
    2.3714   -0.4424   -0.1420 C   0  0  0  0  0  0  0  0  0  0  0  0
    2.5486   -1.5935   -0.6763 O   0  0  0  0  0  0  0  0  0  0  0  0
    3.3807    0.5694   -0.2799 C   0  0  0  0  0  0  0  0  0  0  0  0
    3.2945    1.7232    0.1898 O   0  0  0  0  0  0  0  0  0  0  0  0
   -2.4003    1.4852    1.1108 H   0  0  0  0  0  0  0  0  0  0  0  0
   -0.8338    1.7305    0.1219 H   0  0  0  0  0  0  0  0  0  0  0  0
   -0.7775    1.1855    1.8356 H   0  0  0  0  0  0  0  0  0  0  0  0
   -1.3528   -0.9662    1.3448 H   0  0  0  0  0  0  0  0  0  0  0  0
   -3.4301   -0.5592    0.2699 H   0  0  0  0  0  0  0  0  0  0  0  0
   -2.4483   -1.6719   -0.7490 H   0  0  0  0  0  0  0  0  0  0  0  0
   -2.6580    0.0677   -1.2384 H   0  0  0  0  0  0  0  0  0  0  0  0
    0.0409    0.1689   -1.1724 H   0  0  0  0  0  0  0  0  0  0  0  0
    0.0176   -1.5503   -0.7449 H   0  0  0  0  0  0  0  0  0  0  0  0
    1.0206    0.8782    0.8323 H   0  0  0  0  0  0  0  0  0  0  0  0
    1.1065   -0.7723    1.5545 H   0  0  0  0  0  0  0  0  0  0  0  0
    4.3041    0.3493   -0.8313 H   0  0  0  0  0  0  0  0  0  0  0  0
  1  2  1  0
  2  3  1  0
  2  4  1  0
  4  5  1  0
  5  6  1  0
  6  7  2  0
  6  8  1  0
  8  9  2  0
  1 10  1  0
  1 11  1  0
  1 12  1  0
  2 13  1  0
  3 14  1  0
  3 15  1  0
  3 16  1  0
  4 17  1  0
  4 18  1  0
  5 19  1  0
  5 20  1  0
  8 21  1  0
M  END
