
     RDKit          3D

 23 23  0  0  0  0  0  0  0  0999 V2000
   -2.0004   -1.3431    0.3119 C   0  0  0  0  0  0  0  0  0  0  0  0
   -1.0466   -0.3104   -0.3081 C   0  0  0  0  0  0  0  0  0  0  0  0
   -1.7304    1.0211   -0.1817 C   0  0  0  0  0  0  0  0  0  0  0  0
   -0.8683   -0.7045   -1.6248 O   0  0  0  0  0  0  0  0  0  0  0  0
    0.2328   -0.3437    0.4769 C   0  0  0  0  0  0  0  0  0  0  0  0
    1.2644    0.6107   -0.0080 C   0  0  0  0  0  0  0  0  0  0  0  0
    1.6819    0.3681   -1.4403 C   0  0  0  0  0  0  0  0  0  0  0  0
    3.0294    0.4329   -1.0292 O   0  0  0  0  0  0  0  0  0  0  0  0
    2.7091    0.2122    0.3159 C   0  0  0  0  0  0  0  0  0  0  0  0
   -1.6613   -2.3524    0.0436 H   0  0  0  0  0  0  0  0  0  0  0  0
   -1.9143   -1.1548    1.4232 H   0  0  0  0  0  0  0  0  0  0  0  0
   -2.9998   -1.0878   -0.0675 H   0  0  0  0  0  0  0  0  0  0  0  0
   -2.8268    0.9195    0.0576 H   0  0  0  0  0  0  0  0  0  0  0  0
   -1.3167    1.5831    0.7046 H   0  0  0  0  0  0  0  0  0  0  0  0
   -1.6848    1.6198   -1.1017 H   0  0  0  0  0  0  0  0  0  0  0  0
   -1.3653   -0.0848   -2.2212 H   0  0  0  0  0  0  0  0  0  0  0  0
    0.6711   -1.3767    0.4278 H   0  0  0  0  0  0  0  0  0  0  0  0
   -0.0246   -0.1914    1.5432 H   0  0  0  0  0  0  0  0  0  0  0  0
    1.0842    1.6809    0.1517 H   0  0  0  0  0  0  0  0  0  0  0  0
    1.4585   -0.6900   -1.7632 H   0  0  0  0  0  0  0  0  0  0  0  0
    1.3812    1.1140   -2.1743 H   0  0  0  0  0  0  0  0  0  0  0  0
    2.7496   -0.8370    0.6394 H   0  0  0  0  0  0  0  0  0  0  0  0
    3.1770    0.9144    1.0248 H   0  0  0  0  0  0  0  0  0  0  0  0
  1  2  1  0
  2  3  1  0
  2  4  1  0
  2  5  1  0
  5  6  1  0
  6  7  1  0
  7  8  1  0
  8  9  1  0
  9  6  1  0
  1 10  1  0
  1 11  1  0
  1 12  1  0
  3 13  1  0
  3 14  1  0
  3 15  1  0
  4 16  1  0
  5 17  1  0
  5 18  1  0
  6 19  1  0
  7 20  1  0
  7 21  1  0
  9 22  1  0
  9 23  1  0
M  END
