
     RDKit          3D

 20 20  0  0  0  0  0  0  0  0999 V2000
   -1.3562   -1.1471    0.4039 C   0  0  0  0  0  0  0  0  0  0  0  0
   -0.5923    0.1641    0.1682 C   0  0  0  0  0  0  0  0  0  0  0  0
   -1.4316    0.9137   -0.8560 C   0  0  0  0  0  0  0  0  0  0  0  0
   -0.5324    0.9345    1.3111 O   0  0  0  0  0  0  0  0  0  0  0  0
    0.7702   -0.1830   -0.3471 C   0  0  0  0  0  0  0  0  0  0  0  0
    1.5204   -1.0270    0.6359 C   0  0  0  0  0  0  0  0  0  0  0  0
    2.5384   -0.0927    0.7752 O   0  0  0  0  0  0  0  0  0  0  0  0
    1.8616    0.8163   -0.0379 C   0  0  0  0  0  0  0  0  0  0  0  0
   -1.4520   -1.6076   -0.6044 H   0  0  0  0  0  0  0  0  0  0  0  0
   -0.8126   -1.8330    1.0516 H   0  0  0  0  0  0  0  0  0  0  0  0
   -2.3600   -0.9408    0.8279 H   0  0  0  0  0  0  0  0  0  0  0  0
   -1.5055    0.3058   -1.7890 H   0  0  0  0  0  0  0  0  0  0  0  0
   -2.4802    0.9041   -0.4350 H   0  0  0  0  0  0  0  0  0  0  0  0
   -1.1136    1.9393   -1.0107 H   0  0  0  0  0  0  0  0  0  0  0  0
   -0.7497    1.8932    1.0978 H   0  0  0  0  0  0  0  0  0  0  0  0
    0.8169   -0.5739   -1.3584 H   0  0  0  0  0  0  0  0  0  0  0  0
    1.8986   -2.0017    0.2418 H   0  0  0  0  0  0  0  0  0  0  0  0
    1.0274   -1.1665    1.6322 H   0  0  0  0  0  0  0  0  0  0  0  0
    1.4679    1.6784    0.5017 H   0  0  0  0  0  0  0  0  0  0  0  0
    2.4847    1.0238   -0.9314 H   0  0  0  0  0  0  0  0  0  0  0  0
  1  2  1  0
  2  3  1  0
  2  4  1  0
  2  5  1  0
  5  6  1  0
  6  7  1  0
  7  8  1  0
  8  5  1  0
  1  9  1  0
  1 10  1  0
  1 11  1  0
  3 12  1  0
  3 13  1  0
  3 14  1  0
  4 15  1  0
  5 16  1  0
  6 17  1  0
  6 18  1  0
  8 19  1  0
  8 20  1  0
M  END
