
     RDKit          3D

 23 24  0  0  0  0  0  0  0  0999 V2000
    0.8471   -1.6032   -1.3952 C   0  0  0  0  0  0  0  0  0  0  0  0
    0.8434   -0.2407   -0.6277 C   0  0  0  0  0  0  0  0  0  0  0  0
   -0.5626    0.1598   -0.5910 C   0  0  0  0  0  0  0  0  0  0  0  0
   -1.0225    1.4214    0.0694 C   0  0  0  0  0  0  0  0  0  0  0  0
   -2.4071    0.7115    0.0989 C   0  0  0  0  0  0  0  0  0  0  0  0
   -1.5271   -0.5378    0.3460 C   0  0  0  0  0  0  0  0  0  0  0  0
    1.6027   -0.3718    0.6277 C   0  0  0  0  0  0  0  0  0  0  0  0
    1.8314    0.7487    1.5801 C   0  0  0  0  0  0  0  0  0  0  0  0
    2.8388    0.4304    0.6122 O   0  0  0  0  0  0  0  0  0  0  0  0
   -0.0729   -2.1525   -1.1093 H   0  0  0  0  0  0  0  0  0  0  0  0
    0.7623   -1.4009   -2.4843 H   0  0  0  0  0  0  0  0  0  0  0  0
    1.7762   -2.1502   -1.1667 H   0  0  0  0  0  0  0  0  0  0  0  0
    1.3733    0.4353   -1.3254 H   0  0  0  0  0  0  0  0  0  0  0  0
   -1.0043    0.1129   -1.6348 H   0  0  0  0  0  0  0  0  0  0  0  0
   -0.7536    1.5696    1.1251 H   0  0  0  0  0  0  0  0  0  0  0  0
   -1.0139    2.3050   -0.5781 H   0  0  0  0  0  0  0  0  0  0  0  0
   -2.8739    0.6362   -0.8988 H   0  0  0  0  0  0  0  0  0  0  0  0
   -3.0368    0.9975    0.9336 H   0  0  0  0  0  0  0  0  0  0  0  0
   -1.1924   -0.4907    1.3963 H   0  0  0  0  0  0  0  0  0  0  0  0
   -1.9664   -1.4683   -0.0102 H   0  0  0  0  0  0  0  0  0  0  0  0
    1.8885   -1.3782    1.0217 H   0  0  0  0  0  0  0  0  0  0  0  0
    1.5054    1.7876    1.3974 H   0  0  0  0  0  0  0  0  0  0  0  0
    2.1648    0.4785    2.6131 H   0  0  0  0  0  0  0  0  0  0  0  0
  1  2  1  0
  2  3  1  0
  3  4  1  0
  4  5  1  0
  5  6  1  0
  2  7  1  0
  7  8  1  0
  8  9  1  0
  6  3  1  0
  9  7  1  0
  1 10  1  0
  1 11  1  0
  1 12  1  0
  2 13  1  0
  3 14  1  0
  4 15  1  0
  4 16  1  0
  5 17  1  0
  5 18  1  0
  6 19  1  0
  6 20  1  0
  7 21  1  0
  8 22  1  0
  8 23  1  0
M  END
