
     RDKit          3D

 21 20  0  0  0  0  0  0  0  0999 V2000
   -1.6015   -1.1281   -0.5390 C   0  0  0  0  0  0  0  0  0  0  0  0
   -1.1061   -0.2716    0.6173 C   0  0  0  0  0  0  0  0  0  0  0  0
   -2.3258    0.3110    1.2422 C   0  0  0  0  0  0  0  0  0  0  0  0
   -2.8392    1.2444    0.6502 O   0  0  0  0  0  0  0  0  0  0  0  0
   -0.2595    0.8579    0.1406 C   0  0  0  0  0  0  0  0  0  0  0  0
    0.9683    0.4382   -0.6087 C   0  0  0  0  0  0  0  0  0  0  0  0
    1.6409    1.6249   -0.9791 O   0  0  0  0  0  0  0  0  0  0  0  0
    1.9413   -0.3410    0.2327 C   0  0  0  0  0  0  0  0  0  0  0  0
    3.0645   -0.5943   -0.5640 O   0  0  0  0  0  0  0  0  0  0  0  0
   -0.8212   -1.3811   -1.2555 H   0  0  0  0  0  0  0  0  0  0  0  0
   -2.1473   -2.0033   -0.1371 H   0  0  0  0  0  0  0  0  0  0  0  0
   -2.3792   -0.5078   -1.0623 H   0  0  0  0  0  0  0  0  0  0  0  0
   -0.5630   -0.8912    1.3659 H   0  0  0  0  0  0  0  0  0  0  0  0
   -2.7816   -0.0178    2.1549 H   0  0  0  0  0  0  0  0  0  0  0  0
    0.0475    1.4734    0.9909 H   0  0  0  0  0  0  0  0  0  0  0  0
   -0.8717    1.4781   -0.5479 H   0  0  0  0  0  0  0  0  0  0  0  0
    0.7675   -0.1310   -1.5285 H   0  0  0  0  0  0  0  0  0  0  0  0
    1.6199    1.7385   -1.9515 H   0  0  0  0  0  0  0  0  0  0  0  0
    2.3200    0.2786    1.0954 H   0  0  0  0  0  0  0  0  0  0  0  0
    1.5409   -1.2879    0.6092 H   0  0  0  0  0  0  0  0  0  0  0  0
    3.7853   -0.8899    0.0742 H   0  0  0  0  0  0  0  0  0  0  0  0
  1  2  1  0
  2  3  1  0
  3  4  2  0
  2  5  1  0
  5  6  1  0
  6  7  1  0
  6  8  1  0
  8  9  1  0
  1 10  1  0
  1 11  1  0
  1 12  1  0
  2 13  1  0
  3 14  1  0
  5 15  1  0
  5 16  1  0
  6 17  1  0
  7 18  1  0
  8 19  1  0
  8 20  1  0
  9 21  1  0
M  END
