
     RDKit          3D

 21 21  0  0  0  0  0  0  0  0999 V2000
   -0.5783   -1.0218    1.0982 C   0  0  0  0  0  0  0  0  0  0  0  0
   -0.6845   -0.0580   -0.0266 C   0  0  0  0  0  0  0  0  0  0  0  0
   -0.8519    1.3702    0.4685 C   0  0  0  0  0  0  0  0  0  0  0  0
   -1.9518   -0.3941   -0.7995 C   0  0  0  0  0  0  0  0  0  0  0  0
    0.5141   -0.1341   -0.8941 C   0  0  0  0  0  0  0  0  0  0  0  0
    0.2985   -0.4883   -2.0605 O   0  0  0  0  0  0  0  0  0  0  0  0
    1.8961    0.1541   -0.5399 C   0  0  0  0  0  0  0  0  0  0  0  0
    2.4055   -0.1220    0.7940 C   0  0  0  0  0  0  0  0  0  0  0  0
    2.2296    1.2593    0.2295 O   0  0  0  0  0  0  0  0  0  0  0  0
   -1.5093   -1.6472    1.1427 H   0  0  0  0  0  0  0  0  0  0  0  0
    0.2427   -1.7511    1.0285 H   0  0  0  0  0  0  0  0  0  0  0  0
   -0.4870   -0.5194    2.0916 H   0  0  0  0  0  0  0  0  0  0  0  0
   -0.3867    2.0263   -0.2960 H   0  0  0  0  0  0  0  0  0  0  0  0
   -1.9010    1.6621    0.5834 H   0  0  0  0  0  0  0  0  0  0  0  0
   -0.3648    1.4660    1.4629 H   0  0  0  0  0  0  0  0  0  0  0  0
   -1.9335    0.0689   -1.8084 H   0  0  0  0  0  0  0  0  0  0  0  0
   -2.8004    0.0697   -0.2395 H   0  0  0  0  0  0  0  0  0  0  0  0
   -2.0970   -1.4892   -0.8724 H   0  0  0  0  0  0  0  0  0  0  0  0
    2.6546    0.0077   -1.3699 H   0  0  0  0  0  0  0  0  0  0  0  0
    1.8237   -0.1124    1.7198 H   0  0  0  0  0  0  0  0  0  0  0  0
    3.4814   -0.3468    0.9767 H   0  0  0  0  0  0  0  0  0  0  0  0
  1  2  1  0
  2  3  1  0
  2  4  1  0
  2  5  1  0
  5  6  2  0
  5  7  1  0
  7  8  1  0
  8  9  1  0
  9  7  1  0
  1 10  1  0
  1 11  1  0
  1 12  1  0
  3 13  1  0
  3 14  1  0
  3 15  1  0
  4 16  1  0
  4 17  1  0
  4 18  1  0
  7 19  1  0
  8 20  1  0
  8 21  1  0
M  END
