
     RDKit          3D

 23 23  0  0  0  0  0  0  0  0999 V2000
   -1.1453   -1.1113   -0.9455 C   0  0  0  0  0  0  0  0  0  0  0  0
   -0.8925   -0.2018    0.2463 C   0  0  0  0  0  0  0  0  0  0  0  0
   -1.9763    0.7999    0.4455 C   0  0  0  0  0  0  0  0  0  0  0  0
   -0.8763   -1.0395    1.3796 O   0  0  0  0  0  0  0  0  0  0  0  0
    0.4719    0.3831    0.0986 C   0  0  0  0  0  0  0  0  0  0  0  0
    0.6949    1.2102   -1.1539 C   0  0  0  0  0  0  0  0  0  0  0  0
    1.3677    0.6228    1.2470 C   0  0  0  0  0  0  0  0  0  0  0  0
    1.6043   -0.6061    0.4399 C   0  0  0  0  0  0  0  0  0  0  0  0
    2.6745   -0.6620   -0.4437 O   0  0  0  0  0  0  0  0  0  0  0  0
   -0.4517   -0.8519   -1.7958 H   0  0  0  0  0  0  0  0  0  0  0  0
   -0.9244   -2.1751   -0.7094 H   0  0  0  0  0  0  0  0  0  0  0  0
   -2.1672   -0.9618   -1.3479 H   0  0  0  0  0  0  0  0  0  0  0  0
   -2.3478    0.8068    1.5120 H   0  0  0  0  0  0  0  0  0  0  0  0
   -2.8632    0.4642   -0.1576 H   0  0  0  0  0  0  0  0  0  0  0  0
   -1.7008    1.8339    0.1676 H   0  0  0  0  0  0  0  0  0  0  0  0
   -1.5887   -1.7082    1.2147 H   0  0  0  0  0  0  0  0  0  0  0  0
   -0.2481    1.4425   -1.6836 H   0  0  0  0  0  0  0  0  0  0  0  0
    1.2268    2.1295   -0.8421 H   0  0  0  0  0  0  0  0  0  0  0  0
    1.4026    0.6573   -1.8231 H   0  0  0  0  0  0  0  0  0  0  0  0
    2.1271    1.4207    1.1120 H   0  0  0  0  0  0  0  0  0  0  0  0
    1.0402    0.5104    2.2898 H   0  0  0  0  0  0  0  0  0  0  0  0
    1.3288   -1.5557    0.9251 H   0  0  0  0  0  0  0  0  0  0  0  0
    3.2433   -1.4079   -0.1754 H   0  0  0  0  0  0  0  0  0  0  0  0
  1  2  1  0
  2  3  1  0
  2  4  1  0
  2  5  1  0
  5  6  1  0
  5  7  1  0
  7  8  1  0
  8  9  1  0
  8  5  1  0
  1 10  1  0
  1 11  1  0
  1 12  1  0
  3 13  1  0
  3 14  1  0
  3 15  1  0
  4 16  1  0
  6 17  1  0
  6 18  1  0
  6 19  1  0
  7 20  1  0
  7 21  1  0
  8 22  1  0
  9 23  1  0
M  END
