
     RDKit          3D

 21 21  0  0  0  0  0  0  0  0999 V2000
   -2.0671   -0.6412    0.6819 C   0  0  0  0  0  0  0  0  0  0  0  0
   -1.4781    0.1226   -0.4894 C   0  0  0  0  0  0  0  0  0  0  0  0
   -1.2721    1.5431   -0.1613 C   0  0  0  0  0  0  0  0  0  0  0  0
   -1.5386    2.4235   -0.9723 O   0  0  0  0  0  0  0  0  0  0  0  0
   -0.2390   -0.5569   -1.0108 C   0  0  0  0  0  0  0  0  0  0  0  0
    0.8531   -0.6872   -0.0150 C   0  0  0  0  0  0  0  0  0  0  0  0
    1.4017    0.5656    0.5722 C   0  0  0  0  0  0  0  0  0  0  0  0
    2.7161   -0.1908    0.3820 C   0  0  0  0  0  0  0  0  0  0  0  0
    2.0922   -0.8996   -0.6442 O   0  0  0  0  0  0  0  0  0  0  0  0
   -2.7562   -1.4496    0.3358 H   0  0  0  0  0  0  0  0  0  0  0  0
   -1.2137   -1.0753    1.2471 H   0  0  0  0  0  0  0  0  0  0  0  0
   -2.6537    0.0291    1.3600 H   0  0  0  0  0  0  0  0  0  0  0  0
   -2.2358    0.0773   -1.3010 H   0  0  0  0  0  0  0  0  0  0  0  0
   -0.8820    1.8907    0.7930 H   0  0  0  0  0  0  0  0  0  0  0  0
    0.1255   -0.0175   -1.8931 H   0  0  0  0  0  0  0  0  0  0  0  0
   -0.5514   -1.5855   -1.3164 H   0  0  0  0  0  0  0  0  0  0  0  0
    0.7271   -1.4754    0.7610 H   0  0  0  0  0  0  0  0  0  0  0  0
    1.3249    1.4737   -0.0537 H   0  0  0  0  0  0  0  0  0  0  0  0
    1.1850    0.7215    1.6481 H   0  0  0  0  0  0  0  0  0  0  0  0
    2.9645   -0.7828    1.2859 H   0  0  0  0  0  0  0  0  0  0  0  0
    3.4975    0.5146    0.0749 H   0  0  0  0  0  0  0  0  0  0  0  0
  1  2  1  0
  2  3  1  0
  3  4  2  0
  2  5  1  0
  5  6  1  0
  6  7  1  0
  7  8  1  0
  8  9  1  0
  9  6  1  0
  1 10  1  0
  1 11  1  0
  1 12  1  0
  2 13  1  0
  3 14  1  0
  5 15  1  0
  5 16  1  0
  6 17  1  0
  7 18  1  0
  7 19  1  0
  8 20  1  0
  8 21  1  0
M  END
