
     RDKit          3D

 29 28  0  0  0  0  0  0  0  0999 V2000
    1.4161    0.9799    1.5676 C   0  0  0  0  0  0  0  0  0  0  0  0
    1.3087   -0.1210    0.5770 C   0  0  0  0  0  0  0  0  0  0  0  0
    2.6822   -0.2135   -0.0978 C   0  0  0  0  0  0  0  0  0  0  0  0
    0.3172    0.0411   -0.5156 C   0  0  0  0  0  0  0  0  0  0  0  0
    0.4203   -1.2249   -1.3837 C   0  0  0  0  0  0  0  0  0  0  0  0
   -1.1177    0.1352   -0.1172 C   0  0  0  0  0  0  0  0  0  0  0  0
   -1.5831   -1.1003    0.6285 C   0  0  0  0  0  0  0  0  0  0  0  0
   -1.4951    1.3322    0.6973 C   0  0  0  0  0  0  0  0  0  0  0  0
   -1.9453    0.2198   -1.4101 C   0  0  0  0  0  0  0  0  0  0  0  0
    0.7801    0.8701    2.4636 H   0  0  0  0  0  0  0  0  0  0  0  0
    2.4698    0.9549    1.9836 H   0  0  0  0  0  0  0  0  0  0  0  0
    1.2682    1.9662    1.1187 H   0  0  0  0  0  0  0  0  0  0  0  0
    1.1558   -1.0999    1.0799 H   0  0  0  0  0  0  0  0  0  0  0  0
    3.4482    0.1209    0.6302 H   0  0  0  0  0  0  0  0  0  0  0  0
    2.7068    0.4905   -0.9427 H   0  0  0  0  0  0  0  0  0  0  0  0
    2.9041   -1.2601   -0.3887 H   0  0  0  0  0  0  0  0  0  0  0  0
    0.6229    0.8653   -1.1605 H   0  0  0  0  0  0  0  0  0  0  0  0
   -0.2503   -1.1796   -2.2531 H   0  0  0  0  0  0  0  0  0  0  0  0
    0.1419   -2.0793   -0.7673 H   0  0  0  0  0  0  0  0  0  0  0  0
    1.4479   -1.3338   -1.8049 H   0  0  0  0  0  0  0  0  0  0  0  0
   -2.5213   -0.8091    1.1639 H   0  0  0  0  0  0  0  0  0  0  0  0
   -1.7866   -1.9354   -0.0683 H   0  0  0  0  0  0  0  0  0  0  0  0
   -0.8433   -1.3564    1.4051 H   0  0  0  0  0  0  0  0  0  0  0  0
   -0.9902    2.2684    0.3967 H   0  0  0  0  0  0  0  0  0  0  0  0
   -2.5888    1.5383    0.4841 H   0  0  0  0  0  0  0  0  0  0  0  0
   -1.4869    1.1524    1.7959 H   0  0  0  0  0  0  0  0  0  0  0  0
   -2.8881    0.7344   -1.1587 H   0  0  0  0  0  0  0  0  0  0  0  0
   -1.4041    0.8402   -2.1432 H   0  0  0  0  0  0  0  0  0  0  0  0
   -2.1894   -0.7966   -1.7804 H   0  0  0  0  0  0  0  0  0  0  0  0
  1  2  1  0
  2  3  1  0
  2  4  1  0
  4  5  1  0
  4  6  1  0
  6  7  1  0
  6  8  1  0
  6  9  1  0
  1 10  1  0
  1 11  1  0
  1 12  1  0
  2 13  1  0
  3 14  1  0
  3 15  1  0
  3 16  1  0
  4 17  1  0
  5 18  1  0
  5 19  1  0
  5 20  1  0
  7 21  1  0
  7 22  1  0
  7 23  1  0
  8 24  1  0
  8 25  1  0
  8 26  1  0
  9 27  1  0
  9 28  1  0
  9 29  1  0
M  END
