
     RDKit          3D

 21 21  0  0  0  0  0  0  0  0999 V2000
    2.5737    0.5284    0.5660 C   0  0  0  0  0  0  0  0  0  0  0  0
    1.7943   -0.7650    0.6467 C   0  0  0  0  0  0  0  0  0  0  0  0
    2.3565   -1.8159   -0.2847 C   0  0  0  0  0  0  0  0  0  0  0  0
    0.3932   -0.4615    0.3223 C   0  0  0  0  0  0  0  0  0  0  0  0
   -0.7542   -0.1996    0.0391 C   0  0  0  0  0  0  0  0  0  0  0  0
   -2.1567    0.1210   -0.2848 C   0  0  0  0  0  0  0  0  0  0  0  0
   -2.2910    1.6097   -0.4717 C   0  0  0  0  0  0  0  0  0  0  0  0
   -3.3514    1.6603    0.4214 O   0  0  0  0  0  0  0  0  0  0  0  0
   -3.0292    0.3976    0.9107 C   0  0  0  0  0  0  0  0  0  0  0  0
    1.9333    1.3605    0.8755 H   0  0  0  0  0  0  0  0  0  0  0  0
    2.8920    0.7279   -0.4770 H   0  0  0  0  0  0  0  0  0  0  0  0
    3.4503    0.4810    1.2500 H   0  0  0  0  0  0  0  0  0  0  0  0
    1.8971   -1.1521    1.6802 H   0  0  0  0  0  0  0  0  0  0  0  0
    1.5471   -2.5296   -0.5206 H   0  0  0  0  0  0  0  0  0  0  0  0
    2.7444   -1.3682   -1.2213 H   0  0  0  0  0  0  0  0  0  0  0  0
    3.1683   -2.3298    0.2380 H   0  0  0  0  0  0  0  0  0  0  0  0
   -2.6097   -0.5193   -1.0422 H   0  0  0  0  0  0  0  0  0  0  0  0
   -2.6461    1.8255   -1.5002 H   0  0  0  0  0  0  0  0  0  0  0  0
   -1.4313    2.2165   -0.1204 H   0  0  0  0  0  0  0  0  0  0  0  0
   -2.5320    0.4359    1.8851 H   0  0  0  0  0  0  0  0  0  0  0  0
   -3.9485   -0.2232    0.9567 H   0  0  0  0  0  0  0  0  0  0  0  0
  1  2  1  0
  2  3  1  0
  2  4  1  0
  4  5  3  0
  5  6  1  0
  6  7  1  0
  7  8  1  0
  8  9  1  0
  9  6  1  0
  1 10  1  0
  1 11  1  0
  1 12  1  0
  2 13  1  0
  3 14  1  0
  3 15  1  0
  3 16  1  0
  6 17  1  0
  7 18  1  0
  7 19  1  0
  9 20  1  0
  9 21  1  0
M  END
