
     RDKit          3D

 19 18  0  0  0  0  0  0  0  0999 V2000
   -1.4729    0.6196   -0.5222 C   0  0  0  0  0  0  0  0  0  0  0  0
   -0.4707   -0.2709    0.1499 C   0  0  0  0  0  0  0  0  0  0  0  0
   -0.4730    0.0413    1.6318 C   0  0  0  0  0  0  0  0  0  0  0  0
   -1.0031   -1.7063    0.0196 C   0  0  0  0  0  0  0  0  0  0  0  0
    0.7943   -0.2503   -0.4205 O   0  0  0  0  0  0  0  0  0  0  0  0
    1.6220    0.8254   -0.5607 C   0  0  0  0  0  0  0  0  0  0  0  0
    1.1891    1.9376   -0.1201 O   0  0  0  0  0  0  0  0  0  0  0  0
    2.9391    0.7976   -1.1654 C   0  0  0  0  0  0  0  0  0  0  0  0
    3.4066   -0.2782   -1.6137 O   0  0  0  0  0  0  0  0  0  0  0  0
   -1.5314    0.4522   -1.6137 H   0  0  0  0  0  0  0  0  0  0  0  0
   -2.4780    0.3528   -0.0928 H   0  0  0  0  0  0  0  0  0  0  0  0
   -1.3331    1.6834   -0.3523 H   0  0  0  0  0  0  0  0  0  0  0  0
    0.0980    0.9815    1.7791 H   0  0  0  0  0  0  0  0  0  0  0  0
   -1.5205    0.1080    1.9737 H   0  0  0  0  0  0  0  0  0  0  0  0
    0.1014   -0.7427    2.2032 H   0  0  0  0  0  0  0  0  0  0  0  0
   -0.6033   -2.1946   -0.8860 H   0  0  0  0  0  0  0  0  0  0  0  0
   -2.1005   -1.7210   -0.0579 H   0  0  0  0  0  0  0  0  0  0  0  0
   -0.7281   -2.3052    0.9061 H   0  0  0  0  0  0  0  0  0  0  0  0
    3.5643    1.6697   -1.2582 H   0  0  0  0  0  0  0  0  0  0  0  0
  1  2  1  0
  2  3  1  0
  2  4  1  0
  2  5  1  0
  5  6  1  0
  6  7  2  0
  6  8  1  0
  8  9  2  0
  1 10  1  0
  1 11  1  0
  1 12  1  0
  3 13  1  0
  3 14  1  0
  3 15  1  0
  4 16  1  0
  4 17  1  0
  4 18  1  0
  8 19  1  0
M  END
