
     RDKit          3D

 23 23  0  0  0  0  0  0  0  0999 V2000
   -2.5014   -0.9376   -0.1508 C   0  0  0  0  0  0  0  0  0  0  0  0
   -1.5080    0.1386    0.2589 C   0  0  0  0  0  0  0  0  0  0  0  0
   -1.9820    0.7675    1.5194 C   0  0  0  0  0  0  0  0  0  0  0  0
   -0.2657   -0.4135    0.2793 O   0  0  0  0  0  0  0  0  0  0  0  0
    0.6457    0.0361   -0.6152 C   0  0  0  0  0  0  0  0  0  0  0  0
    1.7775    0.7006    0.1852 C   0  0  0  0  0  0  0  0  0  0  0  0
    2.9371    0.4575   -0.7737 C   0  0  0  0  0  0  0  0  0  0  0  0
    2.7335   -0.8774   -1.1118 O   0  0  0  0  0  0  0  0  0  0  0  0
    1.3905   -1.0738   -1.2901 C   0  0  0  0  0  0  0  0  0  0  0  0
   -3.5208   -0.4984   -0.3028 H   0  0  0  0  0  0  0  0  0  0  0  0
   -2.1262   -1.3295   -1.1361 H   0  0  0  0  0  0  0  0  0  0  0  0
   -2.5046   -1.7905    0.5362 H   0  0  0  0  0  0  0  0  0  0  0  0
   -1.5300    0.9050   -0.5464 H   0  0  0  0  0  0  0  0  0  0  0  0
   -1.6480    0.1380    2.3927 H   0  0  0  0  0  0  0  0  0  0  0  0
   -1.6391    1.7772    1.7136 H   0  0  0  0  0  0  0  0  0  0  0  0
   -3.0925    0.7769    1.5758 H   0  0  0  0  0  0  0  0  0  0  0  0
    0.3015    0.8291   -1.3020 H   0  0  0  0  0  0  0  0  0  0  0  0
    1.5674    1.7730    0.3180 H   0  0  0  0  0  0  0  0  0  0  0  0
    1.9388    0.1970    1.1332 H   0  0  0  0  0  0  0  0  0  0  0  0
    3.9064    0.5895   -0.2582 H   0  0  0  0  0  0  0  0  0  0  0  0
    2.8146    1.0676   -1.6754 H   0  0  0  0  0  0  0  0  0  0  0  0
    1.1325   -2.0567   -0.7976 H   0  0  0  0  0  0  0  0  0  0  0  0
    1.1729   -1.1762   -2.3633 H   0  0  0  0  0  0  0  0  0  0  0  0
  1  2  1  0
  2  3  1  0
  2  4  1  0
  4  5  1  0
  5  6  1  0
  6  7  1  0
  7  8  1  0
  8  9  1  0
  9  5  1  0
  1 10  1  0
  1 11  1  0
  1 12  1  0
  2 13  1  0
  3 14  1  0
  3 15  1  0
  3 16  1  0
  5 17  1  0
  6 18  1  0
  6 19  1  0
  7 20  1  0
  7 21  1  0
  9 22  1  0
  9 23  1  0
M  END
