
     RDKit          3D

 23 24  0  0  0  0  0  0  0  0999 V2000
   -2.2279   -0.8017    0.3169 C   0  0  0  0  0  0  0  0  0  0  0  0
   -0.9681    0.0255    0.4504 C   0  0  0  0  0  0  0  0  0  0  0  0
   -1.3364    1.4656    0.1089 C   0  0  0  0  0  0  0  0  0  0  0  0
    0.0228   -0.4350   -0.5558 C   0  0  0  0  0  0  0  0  0  0  0  0
    0.4724   -1.8578   -0.4889 C   0  0  0  0  0  0  0  0  0  0  0  0
    1.8146   -1.4615   -0.7031 O   0  0  0  0  0  0  0  0  0  0  0  0
    1.4571   -0.2111   -0.2964 C   0  0  0  0  0  0  0  0  0  0  0  0
    2.0140    0.4972    0.8465 C   0  0  0  0  0  0  0  0  0  0  0  0
    2.1642    1.0186   -0.5695 C   0  0  0  0  0  0  0  0  0  0  0  0
   -3.1228   -0.1444    0.4303 H   0  0  0  0  0  0  0  0  0  0  0  0
   -2.2563   -1.6233    1.0346 H   0  0  0  0  0  0  0  0  0  0  0  0
   -2.2989   -1.2348   -0.6995 H   0  0  0  0  0  0  0  0  0  0  0  0
   -0.6051    0.0408    1.4904 H   0  0  0  0  0  0  0  0  0  0  0  0
   -1.2614    1.5662   -1.0058 H   0  0  0  0  0  0  0  0  0  0  0  0
   -0.6046    2.1501    0.5850 H   0  0  0  0  0  0  0  0  0  0  0  0
   -2.3803    1.6622    0.3901 H   0  0  0  0  0  0  0  0  0  0  0  0
   -0.2625   -0.0818   -1.5746 H   0  0  0  0  0  0  0  0  0  0  0  0
    0.0395   -2.4367   -1.3333 H   0  0  0  0  0  0  0  0  0  0  0  0
    0.3617   -2.3232    0.5007 H   0  0  0  0  0  0  0  0  0  0  0  0
    1.2812    1.0003    1.5271 H   0  0  0  0  0  0  0  0  0  0  0  0
    2.9531    0.1861    1.3386 H   0  0  0  0  0  0  0  0  0  0  0  0
    3.1486    1.0272   -1.0519 H   0  0  0  0  0  0  0  0  0  0  0  0
    1.5947    1.9714   -0.7407 H   0  0  0  0  0  0  0  0  0  0  0  0
  1  2  1  0
  2  3  1  0
  2  4  1  0
  4  5  1  0
  5  6  1  0
  6  7  1  0
  7  8  1  0
  8  9  1  0
  7  4  1  0
  9  7  1  0
  1 10  1  0
  1 11  1  0
  1 12  1  0
  2 13  1  0
  3 14  1  0
  3 15  1  0
  3 16  1  0
  4 17  1  0
  5 18  1  0
  5 19  1  0
  8 20  1  0
  8 21  1  0
  9 22  1  0
  9 23  1  0
M  END
