
     RDKit          3D

 23 23  0  0  0  0  0  0  0  0999 V2000
   -1.6981   -0.4935   -1.1573 C   0  0  0  0  0  0  0  0  0  0  0  0
   -0.8604   -0.1264    0.0535 C   0  0  0  0  0  0  0  0  0  0  0  0
   -0.9292    1.3536    0.3417 C   0  0  0  0  0  0  0  0  0  0  0  0
   -1.4294   -0.8347    1.2784 C   0  0  0  0  0  0  0  0  0  0  0  0
    0.5592   -0.5325   -0.0772 C   0  0  0  0  0  0  0  0  0  0  0  0
    1.2592    0.0281   -1.1599 O   0  0  0  0  0  0  0  0  0  0  0  0
    2.4279   -0.2337   -0.4046 C   0  0  0  0  0  0  0  0  0  0  0  0
    1.5693    0.0910    0.8267 C   0  0  0  0  0  0  0  0  0  0  0  0
    1.5483    1.4535    0.9972 O   0  0  0  0  0  0  0  0  0  0  0  0
   -1.0728   -0.6674   -2.0533 H   0  0  0  0  0  0  0  0  0  0  0  0
   -2.2953   -1.3991   -0.9116 H   0  0  0  0  0  0  0  0  0  0  0  0
   -2.3840    0.3395   -1.3783 H   0  0  0  0  0  0  0  0  0  0  0  0
   -0.7435    1.5015    1.4217 H   0  0  0  0  0  0  0  0  0  0  0  0
   -1.9784    1.6598    0.1432 H   0  0  0  0  0  0  0  0  0  0  0  0
   -0.3038    1.9642   -0.3228 H   0  0  0  0  0  0  0  0  0  0  0  0
   -1.3126   -1.9181    1.2211 H   0  0  0  0  0  0  0  0  0  0  0  0
   -2.4558   -0.5172    1.5007 H   0  0  0  0  0  0  0  0  0  0  0  0
   -0.8031   -0.4791    2.1396 H   0  0  0  0  0  0  0  0  0  0  0  0
    0.7470   -1.6412   -0.1124 H   0  0  0  0  0  0  0  0  0  0  0  0
    3.2507    0.4540   -0.5859 H   0  0  0  0  0  0  0  0  0  0  0  0
    2.6438   -1.3213   -0.5028 H   0  0  0  0  0  0  0  0  0  0  0  0
    1.8370   -0.5120    1.7157 H   0  0  0  0  0  0  0  0  0  0  0  0
    2.4239    1.8309    0.7670 H   0  0  0  0  0  0  0  0  0  0  0  0
  1  2  1  0
  2  3  1  0
  2  4  1  0
  2  5  1  0
  5  6  1  0
  6  7  1  0
  7  8  1  0
  8  9  1  0
  8  5  1  0
  1 10  1  0
  1 11  1  0
  1 12  1  0
  3 13  1  0
  3 14  1  0
  3 15  1  0
  4 16  1  0
  4 17  1  0
  4 18  1  0
  5 19  1  0
  7 20  1  0
  7 21  1  0
  8 22  1  0
  9 23  1  0
M  END
