
     RDKit          3D

 19 18  0  0  0  0  0  0  0  0999 V2000
   -0.4203   -1.3128   -1.0290 C   0  0  0  0  0  0  0  0  0  0  0  0
   -0.4119   -0.0575   -0.1483 C   0  0  0  0  0  0  0  0  0  0  0  0
   -1.2554   -0.2455    1.0724 C   0  0  0  0  0  0  0  0  0  0  0  0
    0.9716    0.1498    0.2879 C   0  0  0  0  0  0  0  0  0  0  0  0
    2.1291    0.3049    0.6601 C   0  0  0  0  0  0  0  0  0  0  0  0
    3.4777    0.5008    1.1155 C   0  0  0  0  0  0  0  0  0  0  0  0
    3.8252    0.3853    2.3188 O   0  0  0  0  0  0  0  0  0  0  0  0
   -0.8903    1.0845   -1.0271 C   0  0  0  0  0  0  0  0  0  0  0  0
   -2.1864    0.7151   -1.4428 O   0  0  0  0  0  0  0  0  0  0  0  0
    0.1939   -1.1528   -1.9236 H   0  0  0  0  0  0  0  0  0  0  0  0
   -0.0670   -2.1736   -0.4123 H   0  0  0  0  0  0  0  0  0  0  0  0
   -1.4721   -1.4251   -1.3601 H   0  0  0  0  0  0  0  0  0  0  0  0
   -1.7867    0.6952    1.2650 H   0  0  0  0  0  0  0  0  0  0  0  0
   -0.6265   -0.4969    1.9467 H   0  0  0  0  0  0  0  0  0  0  0  0
   -1.9907   -1.0602    0.8814 H   0  0  0  0  0  0  0  0  0  0  0  0
    4.2875    0.7636    0.4379 H   0  0  0  0  0  0  0  0  0  0  0  0
   -0.2159    1.1277   -1.8931 H   0  0  0  0  0  0  0  0  0  0  0  0
   -0.9438    2.0396   -0.4658 H   0  0  0  0  0  0  0  0  0  0  0  0
   -2.6179    0.1578   -0.7283 H   0  0  0  0  0  0  0  0  0  0  0  0
  1  2  1  0
  2  3  1  0
  2  4  1  0
  4  5  3  0
  5  6  1  0
  6  7  2  0
  2  8  1  0
  8  9  1  0
  1 10  1  0
  1 11  1  0
  1 12  1  0
  3 13  1  0
  3 14  1  0
  3 15  1  0
  6 16  1  0
  8 17  1  0
  8 18  1  0
  9 19  1  0
M  END
