
     RDKit          3D

 18 18  0  0  0  0  0  0  0  0999 V2000
    1.5471    0.7636    0.1605 C   0  0  0  0  0  0  0  0  0  0  0  0
    0.5266   -0.3551    0.2309 C   0  0  0  0  0  0  0  0  0  0  0  0
    1.0673   -1.6745   -0.2131 C   0  0  0  0  0  0  0  0  0  0  0  0
   -0.6572    0.0747   -0.6036 C   0  0  0  0  0  0  0  0  0  0  0  0
   -1.3096    1.3429   -0.1376 C   0  0  0  0  0  0  0  0  0  0  0  0
   -2.0186    0.0206   -0.0699 C   0  0  0  0  0  0  0  0  0  0  0  0
    1.7342    0.9472   -0.9182 H   0  0  0  0  0  0  0  0  0  0  0  0
    1.0422    1.6667    0.5768 H   0  0  0  0  0  0  0  0  0  0  0  0
    2.4380    0.5313    0.7424 H   0  0  0  0  0  0  0  0  0  0  0  0
    0.1988   -0.4162    1.3072 H   0  0  0  0  0  0  0  0  0  0  0  0
    0.3131   -2.1987   -0.8443 H   0  0  0  0  0  0  0  0  0  0  0  0
    2.0127   -1.5681   -0.7644 H   0  0  0  0  0  0  0  0  0  0  0  0
    1.2268   -2.3252    0.6698 H   0  0  0  0  0  0  0  0  0  0  0  0
   -0.5278   -0.1118   -1.6907 H   0  0  0  0  0  0  0  0  0  0  0  0
   -1.5265    2.0695   -0.9196 H   0  0  0  0  0  0  0  0  0  0  0  0
   -1.0050    1.7759    0.8274 H   0  0  0  0  0  0  0  0  0  0  0  0
   -2.8765   -0.0996   -0.7747 H   0  0  0  0  0  0  0  0  0  0  0  0
   -2.1857   -0.4432    0.9206 H   0  0  0  0  0  0  0  0  0  0  0  0
  1  2  1  0
  2  3  1  0
  2  4  1  0
  4  5  1  0
  5  6  1  0
  6  4  1  0
  1  7  1  0
  1  8  1  0
  1  9  1  0
  2 10  1  0
  3 11  1  0
  3 12  1  0
  3 13  1  0
  4 14  1  0
  5 15  1  0
  5 16  1  0
  6 17  1  0
  6 18  1  0
M  END
