
     RDKit          3D

 18 17  0  0  0  0  0  0  0  0999 V2000
   -0.1411    1.4627    0.1662 C   0  0  0  0  0  0  0  0  0  0  0  0
   -0.0417    0.1036   -0.4674 C   0  0  0  0  0  0  0  0  0  0  0  0
    1.3216   -0.3695   -0.7575 C   0  0  0  0  0  0  0  0  0  0  0  0
    2.2298   -0.4974    0.3730 C   0  0  0  0  0  0  0  0  0  0  0  0
    2.0114   -0.2624    1.5347 O   0  0  0  0  0  0  0  0  0  0  0  0
   -0.8829   -0.8386    0.3507 C   0  0  0  0  0  0  0  0  0  0  0  0
   -2.2758   -0.3106    0.2981 C   0  0  0  0  0  0  0  0  0  0  0  0
   -2.8119   -0.0751   -0.7782 O   0  0  0  0  0  0  0  0  0  0  0  0
   -1.2000    1.5706    0.5276 H   0  0  0  0  0  0  0  0  0  0  0  0
    0.5018    1.6014    1.0421 H   0  0  0  0  0  0  0  0  0  0  0  0
   -0.0010    2.2692   -0.5873 H   0  0  0  0  0  0  0  0  0  0  0  0
   -0.5757    0.2030   -1.4532 H   0  0  0  0  0  0  0  0  0  0  0  0
    1.2234   -1.3913   -1.2211 H   0  0  0  0  0  0  0  0  0  0  0  0
    1.7520    0.2763   -1.5640 H   0  0  0  0  0  0  0  0  0  0  0  0
    3.2382   -0.8490    0.1439 H   0  0  0  0  0  0  0  0  0  0  0  0
   -0.5668   -0.9574    1.3825 H   0  0  0  0  0  0  0  0  0  0  0  0
   -0.9249   -1.8173   -0.1908 H   0  0  0  0  0  0  0  0  0  0  0  0
   -2.8563   -0.1181    1.2007 H   0  0  0  0  0  0  0  0  0  0  0  0
  1  2  1  0
  2  3  1  0
  3  4  1  0
  4  5  2  0
  2  6  1  0
  6  7  1  0
  7  8  2  0
  1  9  1  0
  1 10  1  0
  1 11  1  0
  2 12  1  0
  3 13  1  0
  3 14  1  0
  4 15  1  0
  6 16  1  0
  6 17  1  0
  7 18  1  0
M  END
