
     RDKit          3D

 23 23  0  0  0  0  0  0  0  0999 V2000
   -0.8174    1.2131   -0.9710 C   0  0  0  0  0  0  0  0  0  0  0  0
   -0.7585   -0.0884   -0.2264 C   0  0  0  0  0  0  0  0  0  0  0  0
   -1.4073   -1.1601   -1.0461 C   0  0  0  0  0  0  0  0  0  0  0  0
   -1.5963    0.0869    1.0383 C   0  0  0  0  0  0  0  0  0  0  0  0
    0.6131   -0.4763    0.2056 C   0  0  0  0  0  0  0  0  0  0  0  0
    1.3100    0.4973    1.1337 C   0  0  0  0  0  0  0  0  0  0  0  0
    2.5753   -0.0813    0.4811 C   0  0  0  0  0  0  0  0  0  0  0  0
    1.7230   -0.3035   -0.7139 C   0  0  0  0  0  0  0  0  0  0  0  0
    1.9095   -0.3233   -1.9051 O   0  0  0  0  0  0  0  0  0  0  0  0
   -0.4321    2.0511   -0.3570 H   0  0  0  0  0  0  0  0  0  0  0  0
   -1.9071    1.4340   -1.1425 H   0  0  0  0  0  0  0  0  0  0  0  0
   -0.3543    1.1658   -1.9760 H   0  0  0  0  0  0  0  0  0  0  0  0
   -0.8093   -1.3393   -1.9717 H   0  0  0  0  0  0  0  0  0  0  0  0
   -1.3610   -2.1015   -0.4700 H   0  0  0  0  0  0  0  0  0  0  0  0
   -2.4315   -0.9052   -1.3289 H   0  0  0  0  0  0  0  0  0  0  0  0
   -1.0467   -0.2333    1.9474 H   0  0  0  0  0  0  0  0  0  0  0  0
   -2.5200   -0.5139    1.0033 H   0  0  0  0  0  0  0  0  0  0  0  0
   -1.8756    1.1456    1.2043 H   0  0  0  0  0  0  0  0  0  0  0  0
    0.5970   -1.4841    0.6740 H   0  0  0  0  0  0  0  0  0  0  0  0
    1.1987    0.2719    2.1946 H   0  0  0  0  0  0  0  0  0  0  0  0
    1.1831    1.5634    0.8292 H   0  0  0  0  0  0  0  0  0  0  0  0
    2.8088   -1.0379    1.0163 H   0  0  0  0  0  0  0  0  0  0  0  0
    3.3985    0.6193    0.3806 H   0  0  0  0  0  0  0  0  0  0  0  0
  1  2  1  0
  2  3  1  0
  2  4  1  0
  2  5  1  0
  5  6  1  0
  6  7  1  0
  7  8  1  0
  8  9  2  0
  8  5  1  0
  1 10  1  0
  1 11  1  0
  1 12  1  0
  3 13  1  0
  3 14  1  0
  3 15  1  0
  4 16  1  0
  4 17  1  0
  4 18  1  0
  5 19  1  0
  6 20  1  0
  6 21  1  0
  7 22  1  0
  7 23  1  0
M  END
