
     RDKit          3D

 21 21  0  0  0  0  0  0  0  0999 V2000
    1.5917   -1.3177    0.7281 C   0  0  0  0  0  0  0  0  0  0  0  0
    1.1020    0.1227    0.7292 C   0  0  0  0  0  0  0  0  0  0  0  0
    1.8048    0.8772   -0.3497 C   0  0  0  0  0  0  0  0  0  0  0  0
   -0.3818    0.0771    0.6036 C   0  0  0  0  0  0  0  0  0  0  0  0
   -0.9142   -0.5918   -0.6497 C   0  0  0  0  0  0  0  0  0  0  0  0
   -2.0379   -1.3917   -0.5595 O   0  0  0  0  0  0  0  0  0  0  0  0
   -1.1581    0.8924   -0.3266 C   0  0  0  0  0  0  0  0  0  0  0  0
   -2.5352    1.2698    0.0983 C   0  0  0  0  0  0  0  0  0  0  0  0
   -3.0873    2.2843   -0.3002 O   0  0  0  0  0  0  0  0  0  0  0  0
    2.6475   -1.4023    0.4088 H   0  0  0  0  0  0  0  0  0  0  0  0
    0.9162   -1.9057    0.0823 H   0  0  0  0  0  0  0  0  0  0  0  0
    1.4343   -1.6900    1.7692 H   0  0  0  0  0  0  0  0  0  0  0  0
    1.3575    0.5880    1.6997 H   0  0  0  0  0  0  0  0  0  0  0  0
    1.7495    0.4165   -1.3439 H   0  0  0  0  0  0  0  0  0  0  0  0
    1.4903    1.9303   -0.3970 H   0  0  0  0  0  0  0  0  0  0  0  0
    2.8904    0.8933   -0.0748 H   0  0  0  0  0  0  0  0  0  0  0  0
   -0.8936   -0.2809    1.5320 H   0  0  0  0  0  0  0  0  0  0  0  0
   -0.2179   -0.7918   -1.4852 H   0  0  0  0  0  0  0  0  0  0  0  0
   -1.9728   -2.2363   -1.0303 H   0  0  0  0  0  0  0  0  0  0  0  0
   -0.6950    1.6100   -1.0258 H   0  0  0  0  0  0  0  0  0  0  0  0
   -3.0903    0.6464    0.7805 H   0  0  0  0  0  0  0  0  0  0  0  0
  1  2  1  0
  2  3  1  0
  2  4  1  0
  4  5  1  0
  5  6  1  0
  5  7  1  0
  7  8  1  0
  8  9  2  0
  7  4  1  0
  1 10  1  0
  1 11  1  0
  1 12  1  0
  2 13  1  0
  3 14  1  0
  3 15  1  0
  3 16  1  0
  4 17  1  0
  5 18  1  0
  6 19  1  0
  7 20  1  0
  8 21  1  0
M  END
