
     RDKit          3D

 22 22  0  0  0  0  0  0  0  0999 V2000
   -2.2432   -0.3346    1.1264 C   0  0  0  0  0  0  0  0  0  0  0  0
   -1.0740    0.4319    0.4875 C   0  0  0  0  0  0  0  0  0  0  0  0
   -1.6662    1.0862   -0.7430 C   0  0  0  0  0  0  0  0  0  0  0  0
   -0.0390   -0.5832    0.1394 C   0  0  0  0  0  0  0  0  0  0  0  0
    1.1917   -0.0150   -0.5020 C   0  0  0  0  0  0  0  0  0  0  0  0
    2.2239   -1.0683   -0.8438 C   0  0  0  0  0  0  0  0  0  0  0  0
    3.1115   -0.5168    0.0885 O   0  0  0  0  0  0  0  0  0  0  0  0
    2.2353    0.5592    0.3618 C   0  0  0  0  0  0  0  0  0  0  0  0
   -2.8062    0.3502    1.7617 H   0  0  0  0  0  0  0  0  0  0  0  0
   -2.8934   -0.7132    0.3111 H   0  0  0  0  0  0  0  0  0  0  0  0
   -1.8345   -1.2163    1.6634 H   0  0  0  0  0  0  0  0  0  0  0  0
   -0.7561    1.1844    1.2153 H   0  0  0  0  0  0  0  0  0  0  0  0
   -2.2722    1.9587   -0.4155 H   0  0  0  0  0  0  0  0  0  0  0  0
   -2.3628    0.3604   -1.2144 H   0  0  0  0  0  0  0  0  0  0  0  0
   -0.9052    1.4020   -1.4689 H   0  0  0  0  0  0  0  0  0  0  0  0
    0.2417   -1.2198    1.0014 H   0  0  0  0  0  0  0  0  0  0  0  0
   -0.5051   -1.2670   -0.6193 H   0  0  0  0  0  0  0  0  0  0  0  0
    0.9804    0.6089   -1.3943 H   0  0  0  0  0  0  0  0  0  0  0  0
    1.9345   -2.0952   -0.5055 H   0  0  0  0  0  0  0  0  0  0  0  0
    2.6249   -1.0240   -1.8726 H   0  0  0  0  0  0  0  0  0  0  0  0
    2.7373    1.4971   -0.0136 H   0  0  0  0  0  0  0  0  0  0  0  0
    2.0766    0.6141    1.4363 H   0  0  0  0  0  0  0  0  0  0  0  0
  1  2  1  0
  2  3  1  0
  2  4  1  0
  4  5  1  0
  5  6  1  0
  6  7  1  0
  7  8  1  0
  8  5  1  0
  1  9  1  0
  1 10  1  0
  1 11  1  0
  2 12  1  0
  3 13  1  0
  3 14  1  0
  3 15  1  0
  4 16  1  0
  4 17  1  0
  5 18  1  0
  6 19  1  0
  6 20  1  0
  8 21  1  0
  8 22  1  0
M  END
