
     RDKit          3D

 25 26  0  0  0  0  0  0  0  0999 V2000
    1.6053   -1.6624   -0.0720 C   0  0  0  0  0  0  0  0  0  0  0  0
    1.1976   -0.2797   -0.4284 C   0  0  0  0  0  0  0  0  0  0  0  0
    2.4343    0.6089   -0.3402 C   0  0  0  0  0  0  0  0  0  0  0  0
    0.1311    0.3293    0.3933 C   0  0  0  0  0  0  0  0  0  0  0  0
   -0.1787    1.7379   -0.0861 C   0  0  0  0  0  0  0  0  0  0  0  0
   -1.6164    1.4687    0.3152 C   0  0  0  0  0  0  0  0  0  0  0  0
   -1.2633    0.0166    0.2490 C   0  0  0  0  0  0  0  0  0  0  0  0
   -1.9792   -0.8576   -0.6352 C   0  0  0  0  0  0  0  0  0  0  0  0
   -2.0380   -1.0344    0.8982 C   0  0  0  0  0  0  0  0  0  0  0  0
    2.7109   -1.7945   -0.2470 H   0  0  0  0  0  0  0  0  0  0  0  0
    1.4452   -1.9444    0.9809 H   0  0  0  0  0  0  0  0  0  0  0  0
    1.1420   -2.4074   -0.7832 H   0  0  0  0  0  0  0  0  0  0  0  0
    0.9142   -0.2769   -1.5128 H   0  0  0  0  0  0  0  0  0  0  0  0
    2.0358    1.6642   -0.3575 H   0  0  0  0  0  0  0  0  0  0  0  0
    2.8984    0.4881    0.6602 H   0  0  0  0  0  0  0  0  0  0  0  0
    3.1251    0.4282   -1.1756 H   0  0  0  0  0  0  0  0  0  0  0  0
    0.4391    0.4071    1.4724 H   0  0  0  0  0  0  0  0  0  0  0  0
   -0.1167    1.8304   -1.1843 H   0  0  0  0  0  0  0  0  0  0  0  0
    0.3135    2.5403    0.4940 H   0  0  0  0  0  0  0  0  0  0  0  0
   -2.3732    1.7970   -0.4250 H   0  0  0  0  0  0  0  0  0  0  0  0
   -1.7934    1.8788    1.3379 H   0  0  0  0  0  0  0  0  0  0  0  0
   -1.5588   -1.7158   -1.1896 H   0  0  0  0  0  0  0  0  0  0  0  0
   -2.9318   -0.4928   -1.0812 H   0  0  0  0  0  0  0  0  0  0  0  0
   -1.5295   -1.9093    1.3302 H   0  0  0  0  0  0  0  0  0  0  0  0
   -3.0137   -0.8204    1.3867 H   0  0  0  0  0  0  0  0  0  0  0  0
  1  2  1  0
  2  3  1  0
  2  4  1  0
  4  5  1  0
  5  6  1  0
  6  7  1  0
  7  8  1  0
  8  9  1  0
  7  4  1  0
  9  7  1  0
  1 10  1  0
  1 11  1  0
  1 12  1  0
  2 13  1  0
  3 14  1  0
  3 15  1  0
  3 16  1  0
  4 17  1  0
  5 18  1  0
  5 19  1  0
  6 20  1  0
  6 21  1  0
  8 22  1  0
  8 23  1  0
  9 24  1  0
  9 25  1  0
M  END
