
     RDKit          3D

 23 24  0  0  0  0  0  0  0  0999 V2000
   -1.6979   -1.1879    0.4351 C   0  0  0  0  0  0  0  0  0  0  0  0
   -1.0848    0.1080   -0.0327 C   0  0  0  0  0  0  0  0  0  0  0  0
   -1.3550    1.2132    0.9643 C   0  0  0  0  0  0  0  0  0  0  0  0
   -1.7373    0.4963   -1.2203 O   0  0  0  0  0  0  0  0  0  0  0  0
    0.3601   -0.0263   -0.3856 C   0  0  0  0  0  0  0  0  0  0  0  0
    1.1765    1.0993   -0.8675 C   0  0  0  0  0  0  0  0  0  0  0  0
    2.3413    0.5679   -0.0202 C   0  0  0  0  0  0  0  0  0  0  0  0
    1.4038   -0.4879    0.5018 C   0  0  0  0  0  0  0  0  0  0  0  0
    0.8690   -1.4328   -0.4885 C   0  0  0  0  0  0  0  0  0  0  0  0
   -1.7527   -1.9103   -0.4163 H   0  0  0  0  0  0  0  0  0  0  0  0
   -1.1406   -1.6293    1.2721 H   0  0  0  0  0  0  0  0  0  0  0  0
   -2.7204   -0.9663    0.8198 H   0  0  0  0  0  0  0  0  0  0  0  0
   -1.1465    2.1961    0.4895 H   0  0  0  0  0  0  0  0  0  0  0  0
   -0.7719    1.0397    1.8839 H   0  0  0  0  0  0  0  0  0  0  0  0
   -2.4187    1.1995    1.2222 H   0  0  0  0  0  0  0  0  0  0  0  0
   -1.5101   -0.2119   -1.8797 H   0  0  0  0  0  0  0  0  0  0  0  0
    0.8618    2.0894   -0.5154 H   0  0  0  0  0  0  0  0  0  0  0  0
    1.4244    1.0357   -1.9588 H   0  0  0  0  0  0  0  0  0  0  0  0
    2.6865    1.3020    0.7293 H   0  0  0  0  0  0  0  0  0  0  0  0
    3.1277    0.1041   -0.6425 H   0  0  0  0  0  0  0  0  0  0  0  0
    1.3101   -0.6902    1.5643 H   0  0  0  0  0  0  0  0  0  0  0  0
    1.5393   -1.6630   -1.3518 H   0  0  0  0  0  0  0  0  0  0  0  0
    0.2352   -2.2454   -0.1030 H   0  0  0  0  0  0  0  0  0  0  0  0
  1  2  1  0
  2  3  1  0
  2  4  1  0
  2  5  1  0
  5  6  1  0
  6  7  1  0
  7  8  1  0
  8  9  1  0
  8  5  1  0
  9  5  1  0
  1 10  1  0
  1 11  1  0
  1 12  1  0
  3 13  1  0
  3 14  1  0
  3 15  1  0
  4 16  1  0
  6 17  1  0
  6 18  1  0
  7 19  1  0
  7 20  1  0
  8 21  1  0
  9 22  1  0
  9 23  1  0
M  END
