
     RDKit          3D

 23 23  0  0  0  0  0  0  0  0999 V2000
    2.5263    0.5021   -0.8697 C   0  0  0  0  0  0  0  0  0  0  0  0
    1.2446   -0.2818   -0.5611 C   0  0  0  0  0  0  0  0  0  0  0  0
    1.4557   -1.0056    0.7203 C   0  0  0  0  0  0  0  0  0  0  0  0
    0.1167    0.6994   -0.5444 C   0  0  0  0  0  0  0  0  0  0  0  0
    0.2698    1.6879    0.4027 O   0  0  0  0  0  0  0  0  0  0  0  0
   -1.2232    0.0053   -0.4774 C   0  0  0  0  0  0  0  0  0  0  0  0
   -1.7418   -0.2610    0.9141 C   0  0  0  0  0  0  0  0  0  0  0  0
   -3.0520   -0.0514    0.1419 C   0  0  0  0  0  0  0  0  0  0  0  0
   -2.3183    0.8470   -0.6661 O   0  0  0  0  0  0  0  0  0  0  0  0
    2.5720    1.3272   -0.1286 H   0  0  0  0  0  0  0  0  0  0  0  0
    3.4126   -0.1403   -0.7507 H   0  0  0  0  0  0  0  0  0  0  0  0
    2.4185    0.8944   -1.9001 H   0  0  0  0  0  0  0  0  0  0  0  0
    1.1135   -0.9959   -1.3808 H   0  0  0  0  0  0  0  0  0  0  0  0
    0.6782   -0.8063    1.4876 H   0  0  0  0  0  0  0  0  0  0  0  0
    1.4767   -2.1045    0.5490 H   0  0  0  0  0  0  0  0  0  0  0  0
    2.4377   -0.7522    1.2139 H   0  0  0  0  0  0  0  0  0  0  0  0
    0.1355    1.2214   -1.5468 H   0  0  0  0  0  0  0  0  0  0  0  0
    0.2435    1.3638    1.3297 H   0  0  0  0  0  0  0  0  0  0  0  0
   -1.2331   -0.8908   -1.1012 H   0  0  0  0  0  0  0  0  0  0  0  0
   -1.7023   -1.2883    1.2674 H   0  0  0  0  0  0  0  0  0  0  0  0
   -1.6193    0.5511    1.6359 H   0  0  0  0  0  0  0  0  0  0  0  0
   -3.8566    0.3989    0.7231 H   0  0  0  0  0  0  0  0  0  0  0  0
   -3.3546   -0.9204   -0.4587 H   0  0  0  0  0  0  0  0  0  0  0  0
  1  2  1  0
  2  3  1  0
  2  4  1  0
  4  5  1  0
  4  6  1  0
  6  7  1  0
  7  8  1  0
  8  9  1  0
  9  6  1  0
  1 10  1  0
  1 11  1  0
  1 12  1  0
  2 13  1  0
  3 14  1  0
  3 15  1  0
  3 16  1  0
  4 17  1  0
  5 18  1  0
  6 19  1  0
  7 20  1  0
  7 21  1  0
  8 22  1  0
  8 23  1  0
M  END
