
     RDKit          3D

 25 24  0  0  0  0  0  0  0  0999 V2000
    0.8040    0.9726   -1.1682 C   0  0  0  0  0  0  0  0  0  0  0  0
    0.7713    0.1086    0.0704 C   0  0  0  0  0  0  0  0  0  0  0  0
    1.0380    1.0231    1.2465 C   0  0  0  0  0  0  0  0  0  0  0  0
    1.9082   -0.8598   -0.0165 C   0  0  0  0  0  0  0  0  0  0  0  0
   -0.5682   -0.5485    0.2366 C   0  0  0  0  0  0  0  0  0  0  0  0
   -1.6644    0.4880    0.3613 C   0  0  0  0  0  0  0  0  0  0  0  0
   -1.5276    1.3380    1.4221 O   0  0  0  0  0  0  0  0  0  0  0  0
   -0.9361   -1.4234   -0.9399 C   0  0  0  0  0  0  0  0  0  0  0  0
   -2.1849   -1.9883   -0.7009 O   0  0  0  0  0  0  0  0  0  0  0  0
    1.8388    1.4152   -1.2403 H   0  0  0  0  0  0  0  0  0  0  0  0
    0.5509    0.4322   -2.0899 H   0  0  0  0  0  0  0  0  0  0  0  0
    0.1321    1.8633   -1.0822 H   0  0  0  0  0  0  0  0  0  0  0  0
    2.1432    1.1013    1.4144 H   0  0  0  0  0  0  0  0  0  0  0  0
    0.6723    2.0467    1.0986 H   0  0  0  0  0  0  0  0  0  0  0  0
    0.5605    0.5980    2.1567 H   0  0  0  0  0  0  0  0  0  0  0  0
    1.8343   -1.6869    0.7233 H   0  0  0  0  0  0  0  0  0  0  0  0
    2.8650   -0.3421    0.2047 H   0  0  0  0  0  0  0  0  0  0  0  0
    1.9867   -1.2410   -1.0599 H   0  0  0  0  0  0  0  0  0  0  0  0
   -0.5618   -1.1615    1.1602 H   0  0  0  0  0  0  0  0  0  0  0  0
   -2.6257   -0.0906    0.4229 H   0  0  0  0  0  0  0  0  0  0  0  0
   -1.6992    1.0186   -0.6257 H   0  0  0  0  0  0  0  0  0  0  0  0
   -1.8209    2.2484    1.1517 H   0  0  0  0  0  0  0  0  0  0  0  0
   -1.0320   -0.8360   -1.8759 H   0  0  0  0  0  0  0  0  0  0  0  0
   -0.2192   -2.2287   -1.1276 H   0  0  0  0  0  0  0  0  0  0  0  0
   -2.2654   -2.2475    0.2574 H   0  0  0  0  0  0  0  0  0  0  0  0
  1  2  1  0
  2  3  1  0
  2  4  1  0
  2  5  1  0
  5  6  1  0
  6  7  1  0
  5  8  1  0
  8  9  1  0
  1 10  1  0
  1 11  1  0
  1 12  1  0
  3 13  1  0
  3 14  1  0
  3 15  1  0
  4 16  1  0
  4 17  1  0
  4 18  1  0
  5 19  1  0
  6 20  1  0
  6 21  1  0
  7 22  1  0
  8 23  1  0
  8 24  1  0
  9 25  1  0
M  END
