
     RDKit          3D

 19 18  0  0  0  0  0  0  0  0999 V2000
   -0.8125    1.8302    0.0442 C   0  0  0  0  0  0  0  0  0  0  0  0
   -0.1451    0.5016   -0.2614 C   0  0  0  0  0  0  0  0  0  0  0  0
   -0.9605   -0.6534    0.2441 C   0  0  0  0  0  0  0  0  0  0  0  0
   -2.3075   -0.7334   -0.3348 C   0  0  0  0  0  0  0  0  0  0  0  0
   -3.0415   -1.6399    0.0172 O   0  0  0  0  0  0  0  0  0  0  0  0
    1.2208    0.4950    0.3148 C   0  0  0  0  0  0  0  0  0  0  0  0
    1.5836    1.4755    0.9904 O   0  0  0  0  0  0  0  0  0  0  0  0
    2.1770   -0.6230    0.1279 C   0  0  0  0  0  0  0  0  0  0  0  0
    1.7004   -1.6179   -0.7009 O   0  0  0  0  0  0  0  0  0  0  0  0
   -0.5280    2.1155    1.0705 H   0  0  0  0  0  0  0  0  0  0  0  0
   -0.4430    2.6176   -0.6692 H   0  0  0  0  0  0  0  0  0  0  0  0
   -1.8944    1.7912   -0.0775 H   0  0  0  0  0  0  0  0  0  0  0  0
   -0.0630    0.4293   -1.3605 H   0  0  0  0  0  0  0  0  0  0  0  0
   -0.4479   -1.6087    0.0487 H   0  0  0  0  0  0  0  0  0  0  0  0
   -1.0792   -0.5904    1.3533 H   0  0  0  0  0  0  0  0  0  0  0  0
   -2.7150   -0.0434   -1.0623 H   0  0  0  0  0  0  0  0  0  0  0  0
    3.1038   -0.2271   -0.3481 H   0  0  0  0  0  0  0  0  0  0  0  0
    2.5214   -1.0325    1.1144 H   0  0  0  0  0  0  0  0  0  0  0  0
    2.1306   -2.4861   -0.5108 H   0  0  0  0  0  0  0  0  0  0  0  0
  1  2  1  0
  2  3  1  0
  3  4  1  0
  4  5  2  0
  2  6  1  0
  6  7  2  0
  6  8  1  0
  8  9  1  0
  1 10  1  0
  1 11  1  0
  1 12  1  0
  2 13  1  0
  3 14  1  0
  3 15  1  0
  4 16  1  0
  8 17  1  0
  8 18  1  0
  9 19  1  0
M  END
