
     RDKit          3D

 27 26  0  0  0  0  0  0  0  0999 V2000
   -2.1579    1.0209    0.3606 C   0  0  0  0  0  0  0  0  0  0  0  0
   -1.6090   -0.2862   -0.1668 C   0  0  0  0  0  0  0  0  0  0  0  0
   -1.4501   -0.2291   -1.6367 C   0  0  0  0  0  0  0  0  0  0  0  0
   -0.5730   -0.9088    0.6552 C   0  0  0  0  0  0  0  0  0  0  0  0
    0.6994   -0.2640    0.9889 C   0  0  0  0  0  0  0  0  0  0  0  0
    0.6017    1.0472    1.7328 C   0  0  0  0  0  0  0  0  0  0  0  0
    1.8331   -0.3563    0.0324 C   0  0  0  0  0  0  0  0  0  0  0  0
    1.6870    0.2028   -1.3239 C   0  0  0  0  0  0  0  0  0  0  0  0
    2.1281   -1.7383   -0.1268 O   0  0  0  0  0  0  0  0  0  0  0  0
   -3.2188    1.1206    0.0238 H   0  0  0  0  0  0  0  0  0  0  0  0
   -1.6398    1.8805   -0.1203 H   0  0  0  0  0  0  0  0  0  0  0  0
   -2.1663    1.0643    1.4585 H   0  0  0  0  0  0  0  0  0  0  0  0
   -2.5118   -0.9944   -0.0277 H   0  0  0  0  0  0  0  0  0  0  0  0
   -0.9044   -1.1387   -1.9713 H   0  0  0  0  0  0  0  0  0  0  0  0
   -2.4754   -0.3216   -2.1255 H   0  0  0  0  0  0  0  0  0  0  0  0
   -1.0556    0.7010   -2.0633 H   0  0  0  0  0  0  0  0  0  0  0  0
   -0.2905   -1.8725    0.1127 H   0  0  0  0  0  0  0  0  0  0  0  0
   -1.0899   -1.3473    1.5795 H   0  0  0  0  0  0  0  0  0  0  0  0
    1.0918   -0.9299    1.8589 H   0  0  0  0  0  0  0  0  0  0  0  0
    1.6302    1.2223    2.1747 H   0  0  0  0  0  0  0  0  0  0  0  0
   -0.0567    0.9153    2.5923 H   0  0  0  0  0  0  0  0  0  0  0  0
    0.4155    1.9127    1.1018 H   0  0  0  0  0  0  0  0  0  0  0  0
    2.7929    0.0498    0.4869 H   0  0  0  0  0  0  0  0  0  0  0  0
    2.7361    0.4725   -1.6874 H   0  0  0  0  0  0  0  0  0  0  0  0
    1.3785   -0.5343   -2.0955 H   0  0  0  0  0  0  0  0  0  0  0  0
    1.1473    1.1698   -1.3722 H   0  0  0  0  0  0  0  0  0  0  0  0
    3.0575   -1.8581   -0.4417 H   0  0  0  0  0  0  0  0  0  0  0  0
  1  2  1  0
  2  3  1  0
  2  4  1  0
  4  5  1  0
  5  6  1  0
  5  7  1  0
  7  8  1  0
  7  9  1  0
  1 10  1  0
  1 11  1  0
  1 12  1  0
  2 13  1  0
  3 14  1  0
  3 15  1  0
  3 16  1  0
  4 17  1  0
  4 18  1  0
  5 19  1  0
  6 20  1  0
  6 21  1  0
  6 22  1  0
  7 23  1  0
  8 24  1  0
  8 25  1  0
  8 26  1  0
  9 27  1  0
M  END
