
     RDKit          3D

 20 20  0  0  0  0  0  0  0  0999 V2000
   -1.0793   -1.2330   -0.4135 C   0  0  0  0  0  0  0  0  0  0  0  0
   -0.8681   -0.0588    0.4823 C   0  0  0  0  0  0  0  0  0  0  0  0
   -1.8558    1.0668    0.1773 C   0  0  0  0  0  0  0  0  0  0  0  0
    0.5391    0.4336    0.5404 C   0  0  0  0  0  0  0  0  0  0  0  0
    1.1747    0.8956   -0.7101 C   0  0  0  0  0  0  0  0  0  0  0  0
    2.0891   -0.3020   -0.6965 C   0  0  0  0  0  0  0  0  0  0  0  0
    2.9496   -0.7830   -1.4196 O   0  0  0  0  0  0  0  0  0  0  0  0
    1.5086   -0.7154    0.6314 C   0  0  0  0  0  0  0  0  0  0  0  0
   -0.9031   -2.1907    0.1057 H   0  0  0  0  0  0  0  0  0  0  0  0
   -0.4053   -1.1723   -1.2717 H   0  0  0  0  0  0  0  0  0  0  0  0
   -2.1653   -1.2386   -0.7058 H   0  0  0  0  0  0  0  0  0  0  0  0
   -1.1371   -0.3966    1.5262 H   0  0  0  0  0  0  0  0  0  0  0  0
   -1.7541    1.4567   -0.8351 H   0  0  0  0  0  0  0  0  0  0  0  0
   -1.5819    1.8839    0.9048 H   0  0  0  0  0  0  0  0  0  0  0  0
   -2.8617    0.6848    0.4321 H   0  0  0  0  0  0  0  0  0  0  0  0
    0.6482    1.1874    1.3520 H   0  0  0  0  0  0  0  0  0  0  0  0
    1.8339    1.8057   -0.5992 H   0  0  0  0  0  0  0  0  0  0  0  0
    0.5736    1.0009   -1.6108 H   0  0  0  0  0  0  0  0  0  0  0  0
    2.2234   -0.6030    1.4806 H   0  0  0  0  0  0  0  0  0  0  0  0
    1.0715   -1.7217    0.6296 H   0  0  0  0  0  0  0  0  0  0  0  0
  1  2  1  0
  2  3  1  0
  2  4  1  0
  4  5  1  0
  5  6  1  0
  6  7  2  0
  6  8  1  0
  8  4  1  0
  1  9  1  0
  1 10  1  0
  1 11  1  0
  2 12  1  0
  3 13  1  0
  3 14  1  0
  3 15  1  0
  4 16  1  0
  5 17  1  0
  5 18  1  0
  8 19  1  0
  8 20  1  0
M  END
