
     RDKit          3D

 23 22  0  0  0  0  0  0  0  0999 V2000
    0.2857    0.7106    1.8450 C   0  0  0  0  0  0  0  0  0  0  0  0
    0.6053   -0.0365    0.5956 C   0  0  0  0  0  0  0  0  0  0  0  0
    1.5982    0.7895   -0.1973 C   0  0  0  0  0  0  0  0  0  0  0  0
    1.8955    0.0197   -1.4364 C   0  0  0  0  0  0  0  0  0  0  0  0
    2.6399   -0.9354   -1.4013 O   0  0  0  0  0  0  0  0  0  0  0  0
   -0.5595   -0.4454   -0.2364 C   0  0  0  0  0  0  0  0  0  0  0  0
   -1.4050    0.6860   -0.7212 C   0  0  0  0  0  0  0  0  0  0  0  0
   -1.4403   -1.4242    0.5042 C   0  0  0  0  0  0  0  0  0  0  0  0
   -0.0746   -1.1504   -1.3567 O   0  0  0  0  0  0  0  0  0  0  0  0
    1.2475    0.7522    2.4390 H   0  0  0  0  0  0  0  0  0  0  0  0
    0.0408    1.7863    1.6695 H   0  0  0  0  0  0  0  0  0  0  0  0
   -0.4425    0.2184    2.5059 H   0  0  0  0  0  0  0  0  0  0  0  0
    1.1613   -0.9612    0.9101 H   0  0  0  0  0  0  0  0  0  0  0  0
    1.1884    1.7958   -0.4151 H   0  0  0  0  0  0  0  0  0  0  0  0
    2.5174    0.8763    0.4088 H   0  0  0  0  0  0  0  0  0  0  0  0
    1.4438    0.3162   -2.3614 H   0  0  0  0  0  0  0  0  0  0  0  0
   -0.8845    1.6442   -0.8080 H   0  0  0  0  0  0  0  0  0  0  0  0
   -1.8289    0.4041   -1.7190 H   0  0  0  0  0  0  0  0  0  0  0  0
   -2.3186    0.7835   -0.0601 H   0  0  0  0  0  0  0  0  0  0  0  0
   -0.9520   -2.4015    0.6704 H   0  0  0  0  0  0  0  0  0  0  0  0
   -2.3624   -1.5325   -0.1312 H   0  0  0  0  0  0  0  0  0  0  0  0
   -1.7298   -0.9484    1.4638 H   0  0  0  0  0  0  0  0  0  0  0  0
   -0.6259   -0.9474   -2.1682 H   0  0  0  0  0  0  0  0  0  0  0  0
  1  2  1  0
  2  3  1  0
  3  4  1  0
  4  5  2  0
  2  6  1  0
  6  7  1  0
  6  8  1  0
  6  9  1  0
  1 10  1  0
  1 11  1  0
  1 12  1  0
  2 13  1  0
  3 14  1  0
  3 15  1  0
  4 16  1  0
  7 17  1  0
  7 18  1  0
  7 19  1  0
  8 20  1  0
  8 21  1  0
  8 22  1  0
  9 23  1  0
M  END
