
     RDKit          3D

 21 22  0  0  0  0  0  0  0  0999 V2000
   -1.3232    1.5106    0.4838 C   0  0  0  0  0  0  0  0  0  0  0  0
   -0.7440    0.3305   -0.2527 C   0  0  0  0  0  0  0  0  0  0  0  0
   -1.7523   -0.7914   -0.3046 C   0  0  0  0  0  0  0  0  0  0  0  0
   -2.1066   -1.2035    0.9707 O   0  0  0  0  0  0  0  0  0  0  0  0
    0.5489   -0.0387    0.3543 C   0  0  0  0  0  0  0  0  0  0  0  0
    1.3804   -1.1763   -0.1499 C   0  0  0  0  0  0  0  0  0  0  0  0
    2.3441   -0.1265   -0.6981 C   0  0  0  0  0  0  0  0  0  0  0  0
    1.6750    0.9461    0.0938 C   0  0  0  0  0  0  0  0  0  0  0  0
    1.1487    0.7091    1.3479 O   0  0  0  0  0  0  0  0  0  0  0  0
   -1.9663    1.1120    1.2857 H   0  0  0  0  0  0  0  0  0  0  0  0
   -1.9915    2.0448   -0.2247 H   0  0  0  0  0  0  0  0  0  0  0  0
   -0.4953    2.1351    0.8609 H   0  0  0  0  0  0  0  0  0  0  0  0
   -0.5612    0.6561   -1.3062 H   0  0  0  0  0  0  0  0  0  0  0  0
   -2.6748   -0.4092   -0.7880 H   0  0  0  0  0  0  0  0  0  0  0  0
   -1.3829   -1.6202   -0.9424 H   0  0  0  0  0  0  0  0  0  0  0  0
   -1.9102   -2.1588    1.0455 H   0  0  0  0  0  0  0  0  0  0  0  0
    0.9366   -1.8375   -0.8959 H   0  0  0  0  0  0  0  0  0  0  0  0
    1.8888   -1.6838    0.7173 H   0  0  0  0  0  0  0  0  0  0  0  0
    3.4078   -0.3179   -0.4657 H   0  0  0  0  0  0  0  0  0  0  0  0
    2.1244    0.0057   -1.7826 H   0  0  0  0  0  0  0  0  0  0  0  0
    1.4534    1.9138   -0.3600 H   0  0  0  0  0  0  0  0  0  0  0  0
  1  2  1  0
  2  3  1  0
  3  4  1  0
  2  5  1  0
  5  6  1  0
  6  7  1  0
  7  8  1  0
  8  9  1  0
  8  5  1  0
  9  5  1  0
  1 10  1  0
  1 11  1  0
  1 12  1  0
  2 13  1  0
  3 14  1  0
  3 15  1  0
  4 16  1  0
  6 17  1  0
  6 18  1  0
  7 19  1  0
  7 20  1  0
  8 21  1  0
M  END
