
     RDKit          3D

 25 24  0  0  0  0  0  0  0  0999 V2000
   -2.7726   -0.1735   -0.2422 C   0  0  0  0  0  0  0  0  0  0  0  0
   -1.4065    0.3708    0.1584 C   0  0  0  0  0  0  0  0  0  0  0  0
   -1.5056    1.8670    0.3607 C   0  0  0  0  0  0  0  0  0  0  0  0
   -0.4600    0.0369   -0.7767 O   0  0  0  0  0  0  0  0  0  0  0  0
    0.4986   -0.8217   -0.3089 C   0  0  0  0  0  0  0  0  0  0  0  0
    0.5675   -2.1209   -1.0762 C   0  0  0  0  0  0  0  0  0  0  0  0
    1.8700   -0.1766   -0.4103 C   0  0  0  0  0  0  0  0  0  0  0  0
    1.8731    1.1675    0.2663 C   0  0  0  0  0  0  0  0  0  0  0  0
    2.8735   -1.0101    0.0524 O   0  0  0  0  0  0  0  0  0  0  0  0
   -3.2972    0.4973   -0.9490 H   0  0  0  0  0  0  0  0  0  0  0  0
   -2.6414   -1.1931   -0.6122 H   0  0  0  0  0  0  0  0  0  0  0  0
   -3.3830   -0.1973    0.6887 H   0  0  0  0  0  0  0  0  0  0  0  0
   -1.1533   -0.1630    1.1173 H   0  0  0  0  0  0  0  0  0  0  0  0
   -0.8401    2.4142   -0.3273 H   0  0  0  0  0  0  0  0  0  0  0  0
   -1.2958    2.0651    1.4314 H   0  0  0  0  0  0  0  0  0  0  0  0
   -2.5438    2.2301    0.1293 H   0  0  0  0  0  0  0  0  0  0  0  0
    0.3337   -1.0963    0.7592 H   0  0  0  0  0  0  0  0  0  0  0  0
    0.7168   -1.8952   -2.1323 H   0  0  0  0  0  0  0  0  0  0  0  0
   -0.2877   -2.7890   -0.8607 H   0  0  0  0  0  0  0  0  0  0  0  0
    1.4743   -2.6562   -0.7158 H   0  0  0  0  0  0  0  0  0  0  0  0
    2.0689   -0.0276   -1.5074 H   0  0  0  0  0  0  0  0  0  0  0  0
    2.8922    1.4907    0.5581 H   0  0  0  0  0  0  0  0  0  0  0  0
    1.5060    1.9237   -0.4578 H   0  0  0  0  0  0  0  0  0  0  0  0
    1.2048    1.2061    1.1521 H   0  0  0  0  0  0  0  0  0  0  0  0
    3.7076   -0.9486   -0.4814 H   0  0  0  0  0  0  0  0  0  0  0  0
  1  2  1  0
  2  3  1  0
  2  4  1  0
  4  5  1  0
  5  6  1  0
  5  7  1  0
  7  8  1  0
  7  9  1  0
  1 10  1  0
  1 11  1  0
  1 12  1  0
  2 13  1  0
  3 14  1  0
  3 15  1  0
  3 16  1  0
  5 17  1  0
  6 18  1  0
  6 19  1  0
  6 20  1  0
  7 21  1  0
  8 22  1  0
  8 23  1  0
  8 24  1  0
  9 25  1  0
M  END
