
     RDKit          3D

 21 21  0  0  0  0  0  0  0  0999 V2000
   -2.5649   -0.4578   -0.7702 C   0  0  0  0  0  0  0  0  0  0  0  0
   -1.7430    0.4616    0.1151 C   0  0  0  0  0  0  0  0  0  0  0  0
   -0.3560    0.0353    0.0165 C   0  0  0  0  0  0  0  0  0  0  0  0
    0.8363   -0.3144   -0.0823 C   0  0  0  0  0  0  0  0  0  0  0  0
    2.2342   -0.6978   -0.1976 C   0  0  0  0  0  0  0  0  0  0  0  0
    2.6472   -1.9248    0.4909 C   0  0  0  0  0  0  0  0  0  0  0  0
    3.0400   -0.5908    1.0381 C   0  0  0  0  0  0  0  0  0  0  0  0
   -1.9114    1.8902   -0.4327 C   0  0  0  0  0  0  0  0  0  0  0  0
   -1.1962    2.7962    0.3141 O   0  0  0  0  0  0  0  0  0  0  0  0
   -2.1052   -1.4556   -0.8432 H   0  0  0  0  0  0  0  0  0  0  0  0
   -3.6211   -0.5358   -0.4647 H   0  0  0  0  0  0  0  0  0  0  0  0
   -2.5407   -0.0193   -1.7921 H   0  0  0  0  0  0  0  0  0  0  0  0
   -2.0761    0.4191    1.1754 H   0  0  0  0  0  0  0  0  0  0  0  0
    2.7626   -0.4791   -1.1710 H   0  0  0  0  0  0  0  0  0  0  0  0
    3.4533   -2.5350    0.0340 H   0  0  0  0  0  0  0  0  0  0  0  0
    1.9279   -2.5135    1.1330 H   0  0  0  0  0  0  0  0  0  0  0  0
    4.0781   -0.2201    0.9198 H   0  0  0  0  0  0  0  0  0  0  0  0
    2.5774   -0.2758    1.9964 H   0  0  0  0  0  0  0  0  0  0  0  0
   -2.9795    2.1288   -0.5301 H   0  0  0  0  0  0  0  0  0  0  0  0
   -1.4978    1.8767   -1.4598 H   0  0  0  0  0  0  0  0  0  0  0  0
   -0.9650    2.4119    1.2032 H   0  0  0  0  0  0  0  0  0  0  0  0
  1  2  1  0
  2  3  1  0
  3  4  3  0
  4  5  1  0
  5  6  1  0
  6  7  1  0
  2  8  1  0
  8  9  1  0
  7  5  1  0
  1 10  1  0
  1 11  1  0
  1 12  1  0
  2 13  1  0
  5 14  1  0
  6 15  1  0
  6 16  1  0
  7 17  1  0
  7 18  1  0
  8 19  1  0
  8 20  1  0
  9 21  1  0
M  END
