
     RDKit          3D

 23 23  0  0  0  0  0  0  0  0999 V2000
   -1.7133   -1.2210   -0.2541 C   0  0  0  0  0  0  0  0  0  0  0  0
   -0.9709    0.0762   -0.3942 C   0  0  0  0  0  0  0  0  0  0  0  0
   -1.8571    1.2117    0.0860 C   0  0  0  0  0  0  0  0  0  0  0  0
   -0.6536    0.3449   -1.7180 O   0  0  0  0  0  0  0  0  0  0  0  0
    0.2641    0.0976    0.4653 C   0  0  0  0  0  0  0  0  0  0  0  0
    1.2314   -1.0250    0.0887 C   0  0  0  0  0  0  0  0  0  0  0  0
    2.5108   -0.3964    0.6347 C   0  0  0  0  0  0  0  0  0  0  0  0
    2.4171    0.9534    0.4289 O   0  0  0  0  0  0  0  0  0  0  0  0
    1.1330    1.2899    0.1156 C   0  0  0  0  0  0  0  0  0  0  0  0
   -1.3273   -2.0139   -0.9146 H   0  0  0  0  0  0  0  0  0  0  0  0
   -2.7860   -1.0111   -0.5071 H   0  0  0  0  0  0  0  0  0  0  0  0
   -1.6291   -1.5833    0.8088 H   0  0  0  0  0  0  0  0  0  0  0  0
   -2.3220    1.7652   -0.7548 H   0  0  0  0  0  0  0  0  0  0  0  0
   -2.7111    0.7859    0.6713 H   0  0  0  0  0  0  0  0  0  0  0  0
   -1.2972    1.9603    0.6833 H   0  0  0  0  0  0  0  0  0  0  0  0
   -0.2752   -0.4527   -2.1694 H   0  0  0  0  0  0  0  0  0  0  0  0
    0.0436    0.1062    1.5312 H   0  0  0  0  0  0  0  0  0  0  0  0
    1.2880   -1.0783   -1.0172 H   0  0  0  0  0  0  0  0  0  0  0  0
    0.9868   -1.9662    0.5738 H   0  0  0  0  0  0  0  0  0  0  0  0
    3.4089   -0.8748    0.2321 H   0  0  0  0  0  0  0  0  0  0  0  0
    2.4554   -0.5634    1.7507 H   0  0  0  0  0  0  0  0  0  0  0  0
    0.7329    2.1582    0.6619 H   0  0  0  0  0  0  0  0  0  0  0  0
    1.0709    1.4365   -1.0029 H   0  0  0  0  0  0  0  0  0  0  0  0
  1  2  1  0
  2  3  1  0
  2  4  1  0
  2  5  1  0
  5  6  1  0
  6  7  1  0
  7  8  1  0
  8  9  1  0
  9  5  1  0
  1 10  1  0
  1 11  1  0
  1 12  1  0
  3 13  1  0
  3 14  1  0
  3 15  1  0
  4 16  1  0
  5 17  1  0
  6 18  1  0
  6 19  1  0
  7 20  1  0
  7 21  1  0
  9 22  1  0
  9 23  1  0
M  END
