
     RDKit          3D

 17 16  0  0  0  0  0  0  0  0999 V2000
   -1.2718   -0.2673    1.2328 C   0  0  0  0  0  0  0  0  0  0  0  0
   -0.5303   -0.3566   -0.0800 C   0  0  0  0  0  0  0  0  0  0  0  0
   -1.4965    0.0377   -1.1803 C   0  0  0  0  0  0  0  0  0  0  0  0
   -1.8330    1.3918   -1.1085 O   0  0  0  0  0  0  0  0  0  0  0  0
    0.6629    0.3352   -0.1115 O   0  0  0  0  0  0  0  0  0  0  0  0
    1.8705   -0.3076   -0.3156 C   0  0  0  0  0  0  0  0  0  0  0  0
    1.8129   -1.5402   -0.4680 O   0  0  0  0  0  0  0  0  0  0  0  0
    3.1470    0.4036   -0.3530 C   0  0  0  0  0  0  0  0  0  0  0  0
    3.2451    1.6308   -0.2054 O   0  0  0  0  0  0  0  0  0  0  0  0
   -1.9963   -1.1217    1.2968 H   0  0  0  0  0  0  0  0  0  0  0  0
   -1.8866    0.6524    1.2635 H   0  0  0  0  0  0  0  0  0  0  0  0
   -0.6035   -0.3757    2.1018 H   0  0  0  0  0  0  0  0  0  0  0  0
   -0.3164   -1.4343   -0.2399 H   0  0  0  0  0  0  0  0  0  0  0  0
   -2.4448   -0.5225   -1.0453 H   0  0  0  0  0  0  0  0  0  0  0  0
   -1.1153   -0.2479   -2.1867 H   0  0  0  0  0  0  0  0  0  0  0  0
   -1.2898    1.8844   -0.4457 H   0  0  0  0  0  0  0  0  0  0  0  0
    4.0459   -0.1622   -0.5162 H   0  0  0  0  0  0  0  0  0  0  0  0
  1  2  1  0
  2  3  1  0
  3  4  1  0
  2  5  1  0
  5  6  1  0
  6  7  2  0
  6  8  1  0
  8  9  2  0
  1 10  1  0
  1 11  1  0
  1 12  1  0
  2 13  1  0
  3 14  1  0
  3 15  1  0
  4 16  1  0
  8 17  1  0
M  END
