
     RDKit          3D

 17 16  0  0  0  0  0  0  0  0999 V2000
   -0.6041    1.6219    0.3463 C   0  0  0  0  0  0  0  0  0  0  0  0
   -0.6165    0.1906   -0.1587 C   0  0  0  0  0  0  0  0  0  0  0  0
    0.6923   -0.4701    0.2141 C   0  0  0  0  0  0  0  0  0  0  0  0
    1.7774    0.1586   -0.4177 O   0  0  0  0  0  0  0  0  0  0  0  0
    3.0566   -0.3203   -0.1869 C   0  0  0  0  0  0  0  0  0  0  0  0
    3.2044   -1.2933    0.5737 O   0  0  0  0  0  0  0  0  0  0  0  0
   -1.6285   -0.5167    0.5273 O   0  0  0  0  0  0  0  0  0  0  0  0
   -2.6491   -1.0585   -0.2256 C   0  0  0  0  0  0  0  0  0  0  0  0
   -2.6039   -0.8832   -1.4658 O   0  0  0  0  0  0  0  0  0  0  0  0
   -0.9598    1.6232    1.3970 H   0  0  0  0  0  0  0  0  0  0  0  0
    0.4663    1.9623    0.3274 H   0  0  0  0  0  0  0  0  0  0  0  0
   -1.2233    2.2916   -0.3056 H   0  0  0  0  0  0  0  0  0  0  0  0
   -0.7721    0.2241   -1.2505 H   0  0  0  0  0  0  0  0  0  0  0  0
    0.7718   -0.5406    1.2967 H   0  0  0  0  0  0  0  0  0  0  0  0
    0.6411   -1.5214   -0.1835 H   0  0  0  0  0  0  0  0  0  0  0  0
    3.9272    0.1523   -0.6683 H   0  0  0  0  0  0  0  0  0  0  0  0
   -3.4799   -1.6205    0.1798 H   0  0  0  0  0  0  0  0  0  0  0  0
  1  2  1  0
  2  3  1  0
  3  4  1  0
  4  5  1  0
  5  6  2  0
  2  7  1  0
  7  8  1  0
  8  9  2  0
  1 10  1  0
  1 11  1  0
  1 12  1  0
  2 13  1  0
  3 14  1  0
  3 15  1  0
  5 16  1  0
  8 17  1  0
M  END
