
     RDKit          3D

 27 27  0  0  0  0  0  0  0  0999 V2000
   -1.7394    1.3486    0.4531 C   0  0  0  0  0  0  0  0  0  0  0  0
   -1.7490    0.2750   -0.5873 C   0  0  0  0  0  0  0  0  0  0  0  0
   -2.7280   -0.7957   -0.1432 C   0  0  0  0  0  0  0  0  0  0  0  0
   -0.4158   -0.3393   -0.8404 C   0  0  0  0  0  0  0  0  0  0  0  0
    0.2663   -1.0083    0.3012 C   0  0  0  0  0  0  0  0  0  0  0  0
    1.4811   -0.1350    0.1130 C   0  0  0  0  0  0  0  0  0  0  0  0
    2.6419   -0.9811   -0.3835 C   0  0  0  0  0  0  0  0  0  0  0  0
    1.8149    0.7835    1.2478 C   0  0  0  0  0  0  0  0  0  0  0  0
    0.7403    0.6115   -0.9750 C   0  0  0  0  0  0  0  0  0  0  0  0
   -1.4298    0.9835    1.4539 H   0  0  0  0  0  0  0  0  0  0  0  0
   -1.1966    2.2658    0.1396 H   0  0  0  0  0  0  0  0  0  0  0  0
   -2.8127    1.6732    0.5875 H   0  0  0  0  0  0  0  0  0  0  0  0
   -2.1014    0.7311   -1.5369 H   0  0  0  0  0  0  0  0  0  0  0  0
   -3.7033   -0.7177   -0.7000 H   0  0  0  0  0  0  0  0  0  0  0  0
   -2.2632   -1.7784   -0.2283 H   0  0  0  0  0  0  0  0  0  0  0  0
   -3.0022   -0.6591    0.9386 H   0  0  0  0  0  0  0  0  0  0  0  0
   -0.4690   -0.9769   -1.7703 H   0  0  0  0  0  0  0  0  0  0  0  0
   -0.1565   -0.8460    1.3073 H   0  0  0  0  0  0  0  0  0  0  0  0
    0.4198   -2.0870    0.0959 H   0  0  0  0  0  0  0  0  0  0  0  0
    3.5470   -0.3888   -0.5730 H   0  0  0  0  0  0  0  0  0  0  0  0
    2.8449   -1.7200    0.4305 H   0  0  0  0  0  0  0  0  0  0  0  0
    2.3063   -1.5579   -1.2516 H   0  0  0  0  0  0  0  0  0  0  0  0
    1.7423    0.3034    2.2460 H   0  0  0  0  0  0  0  0  0  0  0  0
    2.8943    1.0860    1.1492 H   0  0  0  0  0  0  0  0  0  0  0  0
    1.2117    1.7297    1.2202 H   0  0  0  0  0  0  0  0  0  0  0  0
    0.5319    1.6739   -0.7672 H   0  0  0  0  0  0  0  0  0  0  0  0
    1.3243    0.5260   -1.9271 H   0  0  0  0  0  0  0  0  0  0  0  0
  1  2  1  0
  2  3  1  0
  2  4  1  0
  4  5  1  0
  5  6  1  0
  6  7  1  0
  6  8  1  0
  6  9  1  0
  9  4  1  0
  1 10  1  0
  1 11  1  0
  1 12  1  0
  2 13  1  0
  3 14  1  0
  3 15  1  0
  3 16  1  0
  4 17  1  0
  5 18  1  0
  5 19  1  0
  7 20  1  0
  7 21  1  0
  7 22  1  0
  8 23  1  0
  8 24  1  0
  8 25  1  0
  9 26  1  0
  9 27  1  0
M  END
