
     RDKit          3D

 19 19  0  0  0  0  0  0  0  0999 V2000
    0.6145    1.4390   -0.4200 C   0  0  0  0  0  0  0  0  0  0  0  0
    0.2592   -0.0246   -0.6088 C   0  0  0  0  0  0  0  0  0  0  0  0
   -1.1942   -0.2648   -0.6180 C   0  0  0  0  0  0  0  0  0  0  0  0
   -1.7395   -0.7589   -1.5890 O   0  0  0  0  0  0  0  0  0  0  0  0
   -2.0433    0.0842    0.5487 C   0  0  0  0  0  0  0  0  0  0  0  0
   -3.3812   -0.2298    0.3177 O   0  0  0  0  0  0  0  0  0  0  0  0
    0.9886   -0.8253    0.4322 C   0  0  0  0  0  0  0  0  0  0  0  0
    2.4961   -0.7523    0.4231 C   0  0  0  0  0  0  0  0  0  0  0  0
    1.7645   -1.8980    0.0993 O   0  0  0  0  0  0  0  0  0  0  0  0
   -0.0399    1.9363    0.3152 H   0  0  0  0  0  0  0  0  0  0  0  0
    1.6529    1.4632    0.0024 H   0  0  0  0  0  0  0  0  0  0  0  0
    0.5554    1.9699   -1.3915 H   0  0  0  0  0  0  0  0  0  0  0  0
    0.6860   -0.3087   -1.6073 H   0  0  0  0  0  0  0  0  0  0  0  0
   -1.7028   -0.3917    1.4900 H   0  0  0  0  0  0  0  0  0  0  0  0
   -2.0240    1.1920    0.7592 H   0  0  0  0  0  0  0  0  0  0  0  0
   -3.4473   -0.7723   -0.5172 H   0  0  0  0  0  0  0  0  0  0  0  0
    0.5221   -0.8545    1.4404 H   0  0  0  0  0  0  0  0  0  0  0  0
    3.0088   -0.3092   -0.4579 H   0  0  0  0  0  0  0  0  0  0  0  0
    3.0241   -0.6944    1.3814 H   0  0  0  0  0  0  0  0  0  0  0  0
  1  2  1  0
  2  3  1  0
  3  4  2  0
  3  5  1  0
  5  6  1  0
  2  7  1  0
  7  8  1  0
  8  9  1  0
  9  7  1  0
  1 10  1  0
  1 11  1  0
  1 12  1  0
  2 13  1  0
  5 14  1  0
  5 15  1  0
  6 16  1  0
  7 17  1  0
  8 18  1  0
  8 19  1  0
M  END
