
     RDKit          3D

 20 19  0  0  0  0  0  0  0  0999 V2000
    1.1398    0.7712   -1.0775 C   0  0  0  0  0  0  0  0  0  0  0  0
    0.7279    0.2197    0.2555 C   0  0  0  0  0  0  0  0  0  0  0  0
    1.5756   -0.9672    0.6749 C   0  0  0  0  0  0  0  0  0  0  0  0
   -0.7369   -0.1487    0.2941 C   0  0  0  0  0  0  0  0  0  0  0  0
   -1.5467    1.1017    0.0124 C   0  0  0  0  0  0  0  0  0  0  0  0
   -1.0122   -0.6236    1.5649 O   0  0  0  0  0  0  0  0  0  0  0  0
   -0.9843   -1.2051   -0.6904 C   0  0  0  0  0  0  0  0  0  0  0  0
   -0.8293   -1.0805   -1.8925 O   0  0  0  0  0  0  0  0  0  0  0  0
    2.1281    1.2600   -0.9464 H   0  0  0  0  0  0  0  0  0  0  0  0
    0.3740    1.5195   -1.3747 H   0  0  0  0  0  0  0  0  0  0  0  0
    1.2468   -0.0071   -1.8641 H   0  0  0  0  0  0  0  0  0  0  0  0
    0.8942    1.0134    1.0127 H   0  0  0  0  0  0  0  0  0  0  0  0
    1.1985   -1.9020    0.1840 H   0  0  0  0  0  0  0  0  0  0  0  0
    1.4070   -1.1203    1.7681 H   0  0  0  0  0  0  0  0  0  0  0  0
    2.6285   -0.8447    0.4203 H   0  0  0  0  0  0  0  0  0  0  0  0
   -2.4139    1.0789    0.7110 H   0  0  0  0  0  0  0  0  0  0  0  0
   -0.9432    2.0077    0.2022 H   0  0  0  0  0  0  0  0  0  0  0  0
   -1.9610    1.1252   -1.0054 H   0  0  0  0  0  0  0  0  0  0  0  0
   -1.5638   -0.0236    2.1112 H   0  0  0  0  0  0  0  0  0  0  0  0
   -1.3291   -2.1746   -0.3604 H   0  0  0  0  0  0  0  0  0  0  0  0
  1  2  1  0
  2  3  1  0
  2  4  1  0
  4  5  1  0
  4  6  1  0
  4  7  1  0
  7  8  2  0
  1  9  1  0
  1 10  1  0
  1 11  1  0
  2 12  1  0
  3 13  1  0
  3 14  1  0
  3 15  1  0
  5 16  1  0
  5 17  1  0
  5 18  1  0
  6 19  1  0
  7 20  1  0
M  END
