
     RDKit          3D

 25 25  0  0  0  0  0  0  0  0999 V2000
   -1.3226   -1.0708   -1.1090 C   0  0  0  0  0  0  0  0  0  0  0  0
   -1.1406   -0.6348    0.2852 C   0  0  0  0  0  0  0  0  0  0  0  0
   -2.3691    0.1932    0.6864 C   0  0  0  0  0  0  0  0  0  0  0  0
   -2.5004    1.2976   -0.1324 O   0  0  0  0  0  0  0  0  0  0  0  0
    0.0766    0.1140    0.6414 C   0  0  0  0  0  0  0  0  0  0  0  0
    1.4376   -0.4702    0.4568 C   0  0  0  0  0  0  0  0  0  0  0  0
    2.5240   -0.2911    1.4518 C   0  0  0  0  0  0  0  0  0  0  0  0
    0.9800    0.8218   -0.2412 C   0  0  0  0  0  0  0  0  0  0  0  0
    1.0275    0.7188   -1.7278 C   0  0  0  0  0  0  0  0  0  0  0  0
   -2.3399   -1.5710   -1.1565 H   0  0  0  0  0  0  0  0  0  0  0  0
   -0.6175   -1.8982   -1.3550 H   0  0  0  0  0  0  0  0  0  0  0  0
   -1.3680   -0.2786   -1.8591 H   0  0  0  0  0  0  0  0  0  0  0  0
   -1.1974   -1.5481    0.9428 H   0  0  0  0  0  0  0  0  0  0  0  0
   -2.2515    0.5231    1.7281 H   0  0  0  0  0  0  0  0  0  0  0  0
   -3.2622   -0.4771    0.6444 H   0  0  0  0  0  0  0  0  0  0  0  0
   -2.4768    2.1511    0.3884 H   0  0  0  0  0  0  0  0  0  0  0  0
   -0.0361    0.5732    1.6772 H   0  0  0  0  0  0  0  0  0  0  0  0
    1.4731   -1.3945   -0.1276 H   0  0  0  0  0  0  0  0  0  0  0  0
    2.7758    0.7897    1.6294 H   0  0  0  0  0  0  0  0  0  0  0  0
    2.3229   -0.7681    2.4327 H   0  0  0  0  0  0  0  0  0  0  0  0
    3.4527   -0.7405    1.0385 H   0  0  0  0  0  0  0  0  0  0  0  0
    1.4492    1.7836    0.1290 H   0  0  0  0  0  0  0  0  0  0  0  0
    1.0138   -0.3207   -2.1187 H   0  0  0  0  0  0  0  0  0  0  0  0
    0.3074    1.3893   -2.2532 H   0  0  0  0  0  0  0  0  0  0  0  0
    2.0414    1.1080   -2.0515 H   0  0  0  0  0  0  0  0  0  0  0  0
  1  2  1  0
  2  3  1  0
  3  4  1  0
  2  5  1  0
  5  6  1  0
  6  7  1  0
  6  8  1  0
  8  9  1  0
  8  5  1  0
  1 10  1  0
  1 11  1  0
  1 12  1  0
  2 13  1  0
  3 14  1  0
  3 15  1  0
  4 16  1  0
  5 17  1  0
  6 18  1  0
  7 19  1  0
  7 20  1  0
  7 21  1  0
  8 22  1  0
  9 23  1  0
  9 24  1  0
  9 25  1  0
M  END
