
     RDKit          3D

 27 27  0  0  0  0  0  0  0  0999 V2000
    1.7650   -1.5379    0.4501 C   0  0  0  0  0  0  0  0  0  0  0  0
    1.4492   -0.0445    0.2192 C   0  0  0  0  0  0  0  0  0  0  0  0
    1.9051    0.2707   -1.1405 C   0  0  0  0  0  0  0  0  0  0  0  0
    0.0786    0.1881    0.6327 C   0  0  0  0  0  0  0  0  0  0  0  0
   -1.0601   -0.5241   -0.0075 C   0  0  0  0  0  0  0  0  0  0  0  0
   -1.4768   -1.7755    0.7510 C   0  0  0  0  0  0  0  0  0  0  0  0
   -1.9215    0.6286    0.4769 C   0  0  0  0  0  0  0  0  0  0  0  0
   -0.6379    1.4661    0.3081 C   0  0  0  0  0  0  0  0  0  0  0  0
   -0.6105    1.9776   -1.0904 C   0  0  0  0  0  0  0  0  0  0  0  0
    2.8063   -1.7305    0.1656 H   0  0  0  0  0  0  0  0  0  0  0  0
    1.5143   -1.8360    1.4823 H   0  0  0  0  0  0  0  0  0  0  0  0
    1.0537   -2.0801   -0.2127 H   0  0  0  0  0  0  0  0  0  0  0  0
    2.1412    0.4778    0.9452 H   0  0  0  0  0  0  0  0  0  0  0  0
    2.7357   -0.4356   -1.4668 H   0  0  0  0  0  0  0  0  0  0  0  0
    1.1889    0.2316   -1.9561 H   0  0  0  0  0  0  0  0  0  0  0  0
    2.4232    1.2738   -1.2087 H   0  0  0  0  0  0  0  0  0  0  0  0
   -0.0360    0.0273    1.7629 H   0  0  0  0  0  0  0  0  0  0  0  0
   -1.0975   -0.6032   -1.0903 H   0  0  0  0  0  0  0  0  0  0  0  0
   -0.9363   -1.7897    1.7182 H   0  0  0  0  0  0  0  0  0  0  0  0
   -1.2529   -2.6623    0.1592 H   0  0  0  0  0  0  0  0  0  0  0  0
   -2.5654   -1.7078    1.0268 H   0  0  0  0  0  0  0  0  0  0  0  0
   -2.1742    0.5188    1.5607 H   0  0  0  0  0  0  0  0  0  0  0  0
   -2.7202    0.9553   -0.1743 H   0  0  0  0  0  0  0  0  0  0  0  0
   -0.5879    2.2396    1.1042 H   0  0  0  0  0  0  0  0  0  0  0  0
    0.3454    2.4004   -1.4308 H   0  0  0  0  0  0  0  0  0  0  0  0
   -0.9545    1.2548   -1.8546 H   0  0  0  0  0  0  0  0  0  0  0  0
   -1.3749    2.8166   -1.1304 H   0  0  0  0  0  0  0  0  0  0  0  0
  1  2  1  0
  2  3  1  0
  2  4  1  0
  4  5  1  0
  5  6  1  0
  5  7  1  0
  7  8  1  0
  8  9  1  0
  8  4  1  0
  1 10  1  0
  1 11  1  0
  1 12  1  0
  2 13  1  0
  3 14  1  0
  3 15  1  0
  3 16  1  0
  4 17  1  0
  5 18  1  0
  6 19  1  0
  6 20  1  0
  6 21  1  0
  7 22  1  0
  7 23  1  0
  8 24  1  0
  9 25  1  0
  9 26  1  0
  9 27  1  0
M  END
