
     RDKit          3D

 19 18  0  0  0  0  0  0  0  0999 V2000
   -2.8891   -0.6231   -0.4002 C   0  0  0  0  0  0  0  0  0  0  0  0
   -1.5310   -0.1586    0.0553 C   0  0  0  0  0  0  0  0  0  0  0  0
   -1.3794    1.3054   -0.1943 C   0  0  0  0  0  0  0  0  0  0  0  0
   -2.3653    1.9917   -0.3395 O   0  0  0  0  0  0  0  0  0  0  0  0
   -0.4065   -0.8599   -0.6643 C   0  0  0  0  0  0  0  0  0  0  0  0
    0.8543   -0.3310   -0.1427 C   0  0  0  0  0  0  0  0  0  0  0  0
    1.8991    0.0857    0.2926 C   0  0  0  0  0  0  0  0  0  0  0  0
    3.1573    0.5796    0.8420 C   0  0  0  0  0  0  0  0  0  0  0  0
    4.2469    0.2936    0.0227 O   0  0  0  0  0  0  0  0  0  0  0  0
   -3.2575   -0.0326   -1.2613 H   0  0  0  0  0  0  0  0  0  0  0  0
   -3.5990   -0.4710    0.4385 H   0  0  0  0  0  0  0  0  0  0  0  0
   -2.8867   -1.7026   -0.6252 H   0  0  0  0  0  0  0  0  0  0  0  0
   -1.4153   -0.3041    1.1494 H   0  0  0  0  0  0  0  0  0  0  0  0
   -0.3651    1.6889   -0.2338 H   0  0  0  0  0  0  0  0  0  0  0  0
   -0.4531   -1.9604   -0.5706 H   0  0  0  0  0  0  0  0  0  0  0  0
   -0.4575   -0.5668   -1.7482 H   0  0  0  0  0  0  0  0  0  0  0  0
    3.0879    1.6705    1.0135 H   0  0  0  0  0  0  0  0  0  0  0  0
    3.3624    0.0940    1.8220 H   0  0  0  0  0  0  0  0  0  0  0  0
    4.3976   -0.6993    0.1153 H   0  0  0  0  0  0  0  0  0  0  0  0
  1  2  1  0
  2  3  1  0
  3  4  2  0
  2  5  1  0
  5  6  1  0
  6  7  3  0
  7  8  1  0
  8  9  1  0
  1 10  1  0
  1 11  1  0
  1 12  1  0
  2 13  1  0
  3 14  1  0
  5 15  1  0
  5 16  1  0
  8 17  1  0
  8 18  1  0
  9 19  1  0
M  END
