
     RDKit          3D

 25 25  0  0  0  0  0  0  0  0999 V2000
    0.6075   -1.4518    0.6758 C   0  0  0  0  0  0  0  0  0  0  0  0
    0.2274   -0.2986   -0.2304 C   0  0  0  0  0  0  0  0  0  0  0  0
    1.1316    0.8764   -0.0656 C   0  0  0  0  0  0  0  0  0  0  0  0
    2.5764    0.5217   -0.3843 C   0  0  0  0  0  0  0  0  0  0  0  0
    3.0053   -0.4922    0.4806 O   0  0  0  0  0  0  0  0  0  0  0  0
   -1.2060    0.0704   -0.0981 C   0  0  0  0  0  0  0  0  0  0  0  0
   -2.1706   -1.0714   -0.4476 C   0  0  0  0  0  0  0  0  0  0  0  0
   -1.7005    0.9608    0.9758 C   0  0  0  0  0  0  0  0  0  0  0  0
   -1.6617    1.4063   -0.4911 C   0  0  0  0  0  0  0  0  0  0  0  0
   -0.2937   -2.0684    0.8405 H   0  0  0  0  0  0  0  0  0  0  0  0
    1.3405   -2.0942    0.1474 H   0  0  0  0  0  0  0  0  0  0  0  0
    1.0567   -1.0944    1.6224 H   0  0  0  0  0  0  0  0  0  0  0  0
    0.3696   -0.6716   -1.2855 H   0  0  0  0  0  0  0  0  0  0  0  0
    1.0339    1.2866    0.9431 H   0  0  0  0  0  0  0  0  0  0  0  0
    0.8527    1.6155   -0.8718 H   0  0  0  0  0  0  0  0  0  0  0  0
    2.7109    0.2421   -1.4350 H   0  0  0  0  0  0  0  0  0  0  0  0
    3.2484    1.3837   -0.1935 H   0  0  0  0  0  0  0  0  0  0  0  0
    3.5860   -1.1461    0.0167 H   0  0  0  0  0  0  0  0  0  0  0  0
   -2.7885   -0.7433   -1.3336 H   0  0  0  0  0  0  0  0  0  0  0  0
   -2.8463   -1.2992    0.4043 H   0  0  0  0  0  0  0  0  0  0  0  0
   -1.6346   -1.9978   -0.6950 H   0  0  0  0  0  0  0  0  0  0  0  0
   -2.7224    0.8232    1.3753 H   0  0  0  0  0  0  0  0  0  0  0  0
   -1.0187    1.4406    1.6965 H   0  0  0  0  0  0  0  0  0  0  0  0
   -1.0446    2.2874   -0.6373 H   0  0  0  0  0  0  0  0  0  0  0  0
   -2.6594    1.5142   -1.0097 H   0  0  0  0  0  0  0  0  0  0  0  0
  1  2  1  0
  2  3  1  0
  3  4  1  0
  4  5  1  0
  2  6  1  0
  6  7  1  0
  6  8  1  0
  8  9  1  0
  9  6  1  0
  1 10  1  0
  1 11  1  0
  1 12  1  0
  2 13  1  0
  3 14  1  0
  3 15  1  0
  4 16  1  0
  4 17  1  0
  5 18  1  0
  7 19  1  0
  7 20  1  0
  7 21  1  0
  8 22  1  0
  8 23  1  0
  9 24  1  0
  9 25  1  0
M  END
