
     RDKit          3D

 21 20  0  0  0  0  0  0  0  0999 V2000
   -1.5995   -1.1721   -0.3353 C   0  0  0  0  0  0  0  0  0  0  0  0
   -0.6417    0.0187   -0.3808 C   0  0  0  0  0  0  0  0  0  0  0  0
   -1.1423    1.1556    0.4427 C   0  0  0  0  0  0  0  0  0  0  0  0
   -0.5947    0.4214   -1.7142 O   0  0  0  0  0  0  0  0  0  0  0  0
    0.7031   -0.4997    0.0698 C   0  0  0  0  0  0  0  0  0  0  0  0
    0.6809   -1.0547    1.4316 C   0  0  0  0  0  0  0  0  0  0  0  0
    1.6428   -1.6439    1.8490 O   0  0  0  0  0  0  0  0  0  0  0  0
    1.7477    0.6034    0.0197 C   0  0  0  0  0  0  0  0  0  0  0  0
    1.8488    1.0626   -1.2848 O   0  0  0  0  0  0  0  0  0  0  0  0
   -2.5827   -0.9174   -0.7510 H   0  0  0  0  0  0  0  0  0  0  0  0
   -1.6396   -1.5528    0.7099 H   0  0  0  0  0  0  0  0  0  0  0  0
   -1.1301   -1.9621   -0.9632 H   0  0  0  0  0  0  0  0  0  0  0  0
   -2.2327    1.0600    0.6710 H   0  0  0  0  0  0  0  0  0  0  0  0
   -1.0510    2.1529   -0.0727 H   0  0  0  0  0  0  0  0  0  0  0  0
   -0.6193    1.2757    1.4072 H   0  0  0  0  0  0  0  0  0  0  0  0
   -0.5815    1.4134   -1.7577 H   0  0  0  0  0  0  0  0  0  0  0  0
    1.0667   -1.2955   -0.6111 H   0  0  0  0  0  0  0  0  0  0  0  0
   -0.1800   -0.9390    2.0507 H   0  0  0  0  0  0  0  0  0  0  0  0
    1.5085    1.4387    0.7020 H   0  0  0  0  0  0  0  0  0  0  0  0
    2.6990    0.1541    0.3854 H   0  0  0  0  0  0  0  0  0  0  0  0
    2.0976    0.2808   -1.8683 H   0  0  0  0  0  0  0  0  0  0  0  0
  1  2  1  0
  2  3  1  0
  2  4  1  0
  2  5  1  0
  5  6  1  0
  6  7  2  0
  5  8  1  0
  8  9  1  0
  1 10  1  0
  1 11  1  0
  1 12  1  0
  3 13  1  0
  3 14  1  0
  3 15  1  0
  4 16  1  0
  5 17  1  0
  6 18  1  0
  8 19  1  0
  8 20  1  0
  9 21  1  0
M  END
