
     RDKit          3D

 25 24  0  0  0  0  0  0  0  0999 V2000
   -2.7418   -1.7381   -0.0042 C   0  0  0  0  0  0  0  0  0  0  0  0
   -2.1786   -0.3352    0.1437 C   0  0  0  0  0  0  0  0  0  0  0  0
   -2.6395    0.4533   -1.0579 C   0  0  0  0  0  0  0  0  0  0  0  0
   -0.6674   -0.3823    0.2243 C   0  0  0  0  0  0  0  0  0  0  0  0
   -0.1582    0.8848    0.3580 O   0  0  0  0  0  0  0  0  0  0  0  0
    1.2034    0.9740    0.4460 C   0  0  0  0  0  0  0  0  0  0  0  0
    1.9298    0.4234   -0.7615 C   0  0  0  0  0  0  0  0  0  0  0  0
    3.4408    0.5575   -0.5962 C   0  0  0  0  0  0  0  0  0  0  0  0
    3.8826   -0.1430    0.5308 O   0  0  0  0  0  0  0  0  0  0  0  0
   -3.7915   -1.7856    0.3354 H   0  0  0  0  0  0  0  0  0  0  0  0
   -2.6222   -2.0311   -1.0646 H   0  0  0  0  0  0  0  0  0  0  0  0
   -2.0732   -2.3996    0.5910 H   0  0  0  0  0  0  0  0  0  0  0  0
   -2.5436    0.0949    1.0854 H   0  0  0  0  0  0  0  0  0  0  0  0
   -2.5710   -0.1557   -1.9705 H   0  0  0  0  0  0  0  0  0  0  0  0
   -2.0221    1.3798   -1.1010 H   0  0  0  0  0  0  0  0  0  0  0  0
   -3.6977    0.7644   -0.8424 H   0  0  0  0  0  0  0  0  0  0  0  0
   -0.3448   -0.7935   -0.7776 H   0  0  0  0  0  0  0  0  0  0  0  0
   -0.3335   -1.0473    1.0292 H   0  0  0  0  0  0  0  0  0  0  0  0
    1.6064    0.5434    1.3856 H   0  0  0  0  0  0  0  0  0  0  0  0
    1.4503    2.0719    0.5045 H   0  0  0  0  0  0  0  0  0  0  0  0
    1.6792   -0.6536   -0.8587 H   0  0  0  0  0  0  0  0  0  0  0  0
    1.6631    0.9240   -1.6888 H   0  0  0  0  0  0  0  0  0  0  0  0
    3.9191    0.1838   -1.5087 H   0  0  0  0  0  0  0  0  0  0  0  0
    3.6276    1.6580   -0.4987 H   0  0  0  0  0  0  0  0  0  0  0  0
    3.9828    0.5518    1.2531 H   0  0  0  0  0  0  0  0  0  0  0  0
  1  2  1  0
  2  3  1  0
  2  4  1  0
  4  5  1  0
  5  6  1  0
  6  7  1  0
  7  8  1  0
  8  9  1  0
  1 10  1  0
  1 11  1  0
  1 12  1  0
  2 13  1  0
  3 14  1  0
  3 15  1  0
  3 16  1  0
  4 17  1  0
  4 18  1  0
  6 19  1  0
  6 20  1  0
  7 21  1  0
  7 22  1  0
  8 23  1  0
  8 24  1  0
  9 25  1  0
M  END
