
     RDKit          3D

 19 19  0  0  0  0  0  0  0  0999 V2000
   -0.9278    1.5797   -0.3572 C   0  0  0  0  0  0  0  0  0  0  0  0
   -0.3610    0.2915    0.1791 C   0  0  0  0  0  0  0  0  0  0  0  0
   -1.4716   -0.7519    0.3193 C   0  0  0  0  0  0  0  0  0  0  0  0
   -2.4671   -0.3174    1.1906 O   0  0  0  0  0  0  0  0  0  0  0  0
    0.6606   -0.3061   -0.7721 C   0  0  0  0  0  0  0  0  0  0  0  0
    1.1671   -1.4959   -0.2499 O   0  0  0  0  0  0  0  0  0  0  0  0
    2.2478   -0.7884    0.2821 C   0  0  0  0  0  0  0  0  0  0  0  0
    1.9991    0.2596   -0.7218 C   0  0  0  0  0  0  0  0  0  0  0  0
    2.6039    1.1536   -1.2497 O   0  0  0  0  0  0  0  0  0  0  0  0
   -1.3051    2.2214    0.4733 H   0  0  0  0  0  0  0  0  0  0  0  0
   -0.1599    2.1816   -0.8851 H   0  0  0  0  0  0  0  0  0  0  0  0
   -1.8004    1.3650   -1.0240 H   0  0  0  0  0  0  0  0  0  0  0  0
    0.0673    0.4748    1.1675 H   0  0  0  0  0  0  0  0  0  0  0  0
   -1.8915   -0.9090   -0.7004 H   0  0  0  0  0  0  0  0  0  0  0  0
   -1.0507   -1.6741    0.7568 H   0  0  0  0  0  0  0  0  0  0  0  0
   -2.7552   -1.0492    1.8074 H   0  0  0  0  0  0  0  0  0  0  0  0
    0.1940   -0.4221   -1.7689 H   0  0  0  0  0  0  0  0  0  0  0  0
    3.2252   -1.3120    0.2165 H   0  0  0  0  0  0  0  0  0  0  0  0
    2.0254   -0.5012    1.3367 H   0  0  0  0  0  0  0  0  0  0  0  0
  1  2  1  0
  2  3  1  0
  3  4  1  0
  2  5  1  0
  5  6  1  0
  6  7  1  0
  7  8  1  0
  8  9  2  0
  8  5  1  0
  1 10  1  0
  1 11  1  0
  1 12  1  0
  2 13  1  0
  3 14  1  0
  3 15  1  0
  4 16  1  0
  5 17  1  0
  7 18  1  0
  7 19  1  0
M  END
