
     RDKit          3D

 23 23  0  0  0  0  0  0  0  0999 V2000
   -0.9405   -1.4097   -1.0081 C   0  0  0  0  0  0  0  0  0  0  0  0
   -0.7106   -1.0092    0.4129 C   0  0  0  0  0  0  0  0  0  0  0  0
   -2.0107   -0.4360    0.9468 C   0  0  0  0  0  0  0  0  0  0  0  0
    0.3571    0.0176    0.6009 C   0  0  0  0  0  0  0  0  0  0  0  0
    1.7029   -0.4710    0.0894 C   0  0  0  0  0  0  0  0  0  0  0  0
    1.6947   -0.7782   -1.2472 O   0  0  0  0  0  0  0  0  0  0  0  0
    0.0047    1.3582    0.0061 C   0  0  0  0  0  0  0  0  0  0  0  0
    0.8804    2.5012    0.0650 C   0  0  0  0  0  0  0  0  0  0  0  0
    0.8132    1.6918   -1.1776 O   0  0  0  0  0  0  0  0  0  0  0  0
   -2.0281   -1.6024   -1.2231 H   0  0  0  0  0  0  0  0  0  0  0  0
   -0.4442   -2.4027   -1.1880 H   0  0  0  0  0  0  0  0  0  0  0  0
   -0.6022   -0.6791   -1.7469 H   0  0  0  0  0  0  0  0  0  0  0  0
   -0.4479   -1.8862    1.0482 H   0  0  0  0  0  0  0  0  0  0  0  0
   -2.5180    0.1024    0.1108 H   0  0  0  0  0  0  0  0  0  0  0  0
   -2.6327   -1.3265    1.2388 H   0  0  0  0  0  0  0  0  0  0  0  0
   -1.8565    0.2472    1.8015 H   0  0  0  0  0  0  0  0  0  0  0  0
    0.4813    0.1792    1.6924 H   0  0  0  0  0  0  0  0  0  0  0  0
    1.9332   -1.3894    0.6935 H   0  0  0  0  0  0  0  0  0  0  0  0
    2.5117    0.2427    0.3189 H   0  0  0  0  0  0  0  0  0  0  0  0
    2.5185   -0.4417   -1.6718 H   0  0  0  0  0  0  0  0  0  0  0  0
   -1.0763    1.5247   -0.1343 H   0  0  0  0  0  0  0  0  0  0  0  0
    1.8975    2.4698    0.5052 H   0  0  0  0  0  0  0  0  0  0  0  0
    0.4725    3.4974   -0.1338 H   0  0  0  0  0  0  0  0  0  0  0  0
  1  2  1  0
  2  3  1  0
  2  4  1  0
  4  5  1  0
  5  6  1  0
  4  7  1  0
  7  8  1  0
  8  9  1  0
  9  7  1  0
  1 10  1  0
  1 11  1  0
  1 12  1  0
  2 13  1  0
  3 14  1  0
  3 15  1  0
  3 16  1  0
  4 17  1  0
  5 18  1  0
  5 19  1  0
  6 20  1  0
  7 21  1  0
  8 22  1  0
  8 23  1  0
M  END
