
     RDKit          3D

 20 19  0  0  0  0  0  0  0  0999 V2000
   -1.5716   -0.9610   -0.6034 C   0  0  0  0  0  0  0  0  0  0  0  0
   -0.5252   -0.0256   -0.0580 C   0  0  0  0  0  0  0  0  0  0  0  0
   -0.7575    1.3310   -0.6498 C   0  0  0  0  0  0  0  0  0  0  0  0
   -0.7400    0.0824    1.4511 C   0  0  0  0  0  0  0  0  0  0  0  0
    0.8088   -0.5699   -0.2982 C   0  0  0  0  0  0  0  0  0  0  0  0
    0.9223   -1.6390   -0.8693 O   0  0  0  0  0  0  0  0  0  0  0  0
    1.9998    0.1997    0.1633 C   0  0  0  0  0  0  0  0  0  0  0  0
    3.1851   -0.4624   -0.1465 O   0  0  0  0  0  0  0  0  0  0  0  0
   -2.5916   -0.5869   -0.3685 H   0  0  0  0  0  0  0  0  0  0  0  0
   -1.3848   -1.0602   -1.6910 H   0  0  0  0  0  0  0  0  0  0  0  0
   -1.4066   -1.9548   -0.0970 H   0  0  0  0  0  0  0  0  0  0  0  0
    0.0940    2.0047   -0.6105 H   0  0  0  0  0  0  0  0  0  0  0  0
   -1.5925    1.8328   -0.0945 H   0  0  0  0  0  0  0  0  0  0  0  0
   -1.0559    1.2347   -1.7185 H   0  0  0  0  0  0  0  0  0  0  0  0
   -1.7297    0.5256    1.6765 H   0  0  0  0  0  0  0  0  0  0  0  0
   -0.7126   -0.9607    1.8479 H   0  0  0  0  0  0  0  0  0  0  0  0
    0.0645    0.6835    1.8809 H   0  0  0  0  0  0  0  0  0  0  0  0
    1.9689    0.2733    1.2756 H   0  0  0  0  0  0  0  0  0  0  0  0
    1.9411    1.2021   -0.2623 H   0  0  0  0  0  0  0  0  0  0  0  0
    3.0834   -1.1493   -0.8278 H   0  0  0  0  0  0  0  0  0  0  0  0
  1  2  1  0
  2  3  1  0
  2  4  1  0
  2  5  1  0
  5  6  2  0
  5  7  1  0
  7  8  1  0
  1  9  1  0
  1 10  1  0
  1 11  1  0
  3 12  1  0
  3 13  1  0
  3 14  1  0
  4 15  1  0
  4 16  1  0
  4 17  1  0
  7 18  1  0
  7 19  1  0
  8 20  1  0
M  END
