
     RDKit          3D

 23 23  0  0  0  0  0  0  0  0999 V2000
    0.0103    2.1544   -0.2116 C   0  0  0  0  0  0  0  0  0  0  0  0
   -0.5453    0.7856   -0.5617 C   0  0  0  0  0  0  0  0  0  0  0  0
   -1.5112    0.3459    0.4748 C   0  0  0  0  0  0  0  0  0  0  0  0
   -2.1484   -0.9765    0.2808 C   0  0  0  0  0  0  0  0  0  0  0  0
   -1.1737   -1.9668    0.2549 O   0  0  0  0  0  0  0  0  0  0  0  0
    0.6127   -0.1095   -0.8207 C   0  0  0  0  0  0  0  0  0  0  0  0
    1.5275   -0.2599    0.3538 C   0  0  0  0  0  0  0  0  0  0  0  0
    2.7241   -1.1303    0.2215 C   0  0  0  0  0  0  0  0  0  0  0  0
    2.8918    0.2561    0.1669 O   0  0  0  0  0  0  0  0  0  0  0  0
    1.0384    2.0439    0.2031 H   0  0  0  0  0  0  0  0  0  0  0  0
   -0.5965    2.6395    0.5721 H   0  0  0  0  0  0  0  0  0  0  0  0
    0.1027    2.7821   -1.1204 H   0  0  0  0  0  0  0  0  0  0  0  0
   -1.1000    0.9161   -1.5238 H   0  0  0  0  0  0  0  0  0  0  0  0
   -1.0912    0.3997    1.5070 H   0  0  0  0  0  0  0  0  0  0  0  0
   -2.3419    1.1128    0.4791 H   0  0  0  0  0  0  0  0  0  0  0  0
   -2.7041   -1.0707   -0.6848 H   0  0  0  0  0  0  0  0  0  0  0  0
   -2.8432   -1.1876    1.1415 H   0  0  0  0  0  0  0  0  0  0  0  0
   -1.6244   -2.8309    0.4230 H   0  0  0  0  0  0  0  0  0  0  0  0
    1.2021    0.3913   -1.6536 H   0  0  0  0  0  0  0  0  0  0  0  0
    0.3658   -1.1127   -1.2152 H   0  0  0  0  0  0  0  0  0  0  0  0
    1.1634    0.0544    1.3549 H   0  0  0  0  0  0  0  0  0  0  0  0
    2.8546   -1.6328   -0.7550 H   0  0  0  0  0  0  0  0  0  0  0  0
    3.1866   -1.6040    1.1136 H   0  0  0  0  0  0  0  0  0  0  0  0
  1  2  1  0
  2  3  1  0
  3  4  1  0
  4  5  1  0
  2  6  1  0
  6  7  1  0
  7  8  1  0
  8  9  1  0
  9  7  1  0
  1 10  1  0
  1 11  1  0
  1 12  1  0
  2 13  1  0
  3 14  1  0
  3 15  1  0
  4 16  1  0
  4 17  1  0
  5 18  1  0
  6 19  1  0
  6 20  1  0
  7 21  1  0
  8 22  1  0
  8 23  1  0
M  END
