
     RDKit          3D

 23 24  0  0  0  0  0  0  0  0999 V2000
   -1.9532   -0.2212   -1.1805 C   0  0  0  0  0  0  0  0  0  0  0  0
   -1.2025    0.4084   -0.0015 C   0  0  0  0  0  0  0  0  0  0  0  0
   -1.9874    0.0932    1.2544 C   0  0  0  0  0  0  0  0  0  0  0  0
    0.1128   -0.2988    0.1014 C   0  0  0  0  0  0  0  0  0  0  0  0
    0.9351   -0.1389   -1.1913 C   0  0  0  0  0  0  0  0  0  0  0  0
    2.1502    0.5342   -0.5459 C   0  0  0  0  0  0  0  0  0  0  0  0
    2.3788   -0.3600    0.6620 C   0  0  0  0  0  0  0  0  0  0  0  0
    1.0885    0.3621    1.0322 C   0  0  0  0  0  0  0  0  0  0  0  0
    1.6198    1.4568    0.3223 O   0  0  0  0  0  0  0  0  0  0  0  0
   -1.5003   -1.1938   -1.4671 H   0  0  0  0  0  0  0  0  0  0  0  0
   -1.8412    0.4451   -2.0484 H   0  0  0  0  0  0  0  0  0  0  0  0
   -3.0096   -0.4280   -0.9149 H   0  0  0  0  0  0  0  0  0  0  0  0
   -1.1242    1.4885   -0.1098 H   0  0  0  0  0  0  0  0  0  0  0  0
   -2.8158    0.7973    1.3800 H   0  0  0  0  0  0  0  0  0  0  0  0
   -1.3335    0.1235    2.1491 H   0  0  0  0  0  0  0  0  0  0  0  0
   -2.4086   -0.9316    1.1156 H   0  0  0  0  0  0  0  0  0  0  0  0
   -0.0237   -1.3396    0.3778 H   0  0  0  0  0  0  0  0  0  0  0  0
    0.4330    0.5323   -1.8972 H   0  0  0  0  0  0  0  0  0  0  0  0
    1.1852   -1.1092   -1.6192 H   0  0  0  0  0  0  0  0  0  0  0  0
    2.9762    0.7710   -1.1686 H   0  0  0  0  0  0  0  0  0  0  0  0
    2.2540   -1.4043    0.3858 H   0  0  0  0  0  0  0  0  0  0  0  0
    3.2107   -0.0754    1.3055 H   0  0  0  0  0  0  0  0  0  0  0  0
    0.8559    0.4883    2.0583 H   0  0  0  0  0  0  0  0  0  0  0  0
  1  2  1  0
  2  3  1  0
  2  4  1  0
  4  5  1  0
  5  6  1  0
  6  7  1  0
  7  8  1  0
  8  9  1  0
  8  4  1  0
  9  6  1  0
  1 10  1  0
  1 11  1  0
  1 12  1  0
  2 13  1  0
  3 14  1  0
  3 15  1  0
  3 16  1  0
  4 17  1  0
  5 18  1  0
  5 19  1  0
  6 20  1  0
  7 21  1  0
  7 22  1  0
  8 23  1  0
M  END
