
     RDKit          3D

 25 24  0  0  0  0  0  0  0  0999 V2000
    0.6948    1.5002    0.2529 C   0  0  0  0  0  0  0  0  0  0  0  0
    0.1351    0.2584   -0.3901 C   0  0  0  0  0  0  0  0  0  0  0  0
    1.0085   -0.9032   -0.1028 C   0  0  0  0  0  0  0  0  0  0  0  0
    2.3837   -0.6385   -0.6620 C   0  0  0  0  0  0  0  0  0  0  0  0
    3.0120    0.4675   -0.1377 O   0  0  0  0  0  0  0  0  0  0  0  0
   -1.2889    0.0849    0.0725 C   0  0  0  0  0  0  0  0  0  0  0  0
   -1.4194   -0.0612    1.5517 C   0  0  0  0  0  0  0  0  0  0  0  0
   -1.9935   -1.0302   -0.6737 C   0  0  0  0  0  0  0  0  0  0  0  0
   -1.9579    1.2804   -0.2847 O   0  0  0  0  0  0  0  0  0  0  0  0
    1.2797    1.2604    1.1781 H   0  0  0  0  0  0  0  0  0  0  0  0
   -0.1563    2.1808    0.5326 H   0  0  0  0  0  0  0  0  0  0  0  0
    1.3649    2.0710   -0.4067 H   0  0  0  0  0  0  0  0  0  0  0  0
    0.0967    0.4301   -1.4841 H   0  0  0  0  0  0  0  0  0  0  0  0
    1.1090   -0.9700    1.0171 H   0  0  0  0  0  0  0  0  0  0  0  0
    0.6047   -1.8773   -0.4130 H   0  0  0  0  0  0  0  0  0  0  0  0
    2.3133   -0.4608   -1.7759 H   0  0  0  0  0  0  0  0  0  0  0  0
    3.0657   -1.5014   -0.5324 H   0  0  0  0  0  0  0  0  0  0  0  0
    3.6001    0.9322   -0.7662 H   0  0  0  0  0  0  0  0  0  0  0  0
   -2.1445    0.6447    2.0115 H   0  0  0  0  0  0  0  0  0  0  0  0
   -1.7254   -1.0801    1.8438 H   0  0  0  0  0  0  0  0  0  0  0  0
   -0.4211    0.2126    1.9979 H   0  0  0  0  0  0  0  0  0  0  0  0
   -1.4656   -2.0003   -0.5743 H   0  0  0  0  0  0  0  0  0  0  0  0
   -2.9819   -1.1711   -0.1543 H   0  0  0  0  0  0  0  0  0  0  0  0
   -2.2058   -0.7490   -1.7194 H   0  0  0  0  0  0  0  0  0  0  0  0
   -2.9081    1.1199   -0.4680 H   0  0  0  0  0  0  0  0  0  0  0  0
  1  2  1  0
  2  3  1  0
  3  4  1  0
  4  5  1  0
  2  6  1  0
  6  7  1  0
  6  8  1  0
  6  9  1  0
  1 10  1  0
  1 11  1  0
  1 12  1  0
  2 13  1  0
  3 14  1  0
  3 15  1  0
  4 16  1  0
  4 17  1  0
  5 18  1  0
  7 19  1  0
  7 20  1  0
  7 21  1  0
  8 22  1  0
  8 23  1  0
  8 24  1  0
  9 25  1  0
M  END
