
     RDKit          3D

 21 21  0  0  0  0  0  0  0  0999 V2000
   -1.2912    0.8987   -1.0691 C   0  0  0  0  0  0  0  0  0  0  0  0
   -0.8830   -0.1909   -0.0680 C   0  0  0  0  0  0  0  0  0  0  0  0
   -1.8846   -0.1312    1.0345 C   0  0  0  0  0  0  0  0  0  0  0  0
   -0.8562   -1.3925   -0.7439 O   0  0  0  0  0  0  0  0  0  0  0  0
    0.4714    0.1668    0.4409 C   0  0  0  0  0  0  0  0  0  0  0  0
    1.5318    0.2464   -0.6660 C   0  0  0  0  0  0  0  0  0  0  0  0
    2.4753   -0.2316    0.4398 C   0  0  0  0  0  0  0  0  0  0  0  0
    1.2894   -0.9528    0.9806 C   0  0  0  0  0  0  0  0  0  0  0  0
    1.1744   -2.0005    1.5850 O   0  0  0  0  0  0  0  0  0  0  0  0
   -0.9602    0.5947   -2.0816 H   0  0  0  0  0  0  0  0  0  0  0  0
   -0.8311    1.8500   -0.7598 H   0  0  0  0  0  0  0  0  0  0  0  0
   -2.3932    1.0027   -1.1135 H   0  0  0  0  0  0  0  0  0  0  0  0
   -1.8796   -1.0103    1.7004 H   0  0  0  0  0  0  0  0  0  0  0  0
   -2.9194    0.0066    0.6228 H   0  0  0  0  0  0  0  0  0  0  0  0
   -1.6768    0.7623    1.6574 H   0  0  0  0  0  0  0  0  0  0  0  0
   -0.9496   -1.2635   -1.7225 H   0  0  0  0  0  0  0  0  0  0  0  0
    0.4916    1.0973    1.0300 H   0  0  0  0  0  0  0  0  0  0  0  0
    1.3414   -0.5408   -1.4089 H   0  0  0  0  0  0  0  0  0  0  0  0
    1.6765    1.2631   -1.0036 H   0  0  0  0  0  0  0  0  0  0  0  0
    2.7656    0.6742    1.0421 H   0  0  0  0  0  0  0  0  0  0  0  0
    3.3074   -0.8485    0.1033 H   0  0  0  0  0  0  0  0  0  0  0  0
  1  2  1  0
  2  3  1  0
  2  4  1  0
  2  5  1  0
  5  6  1  0
  6  7  1  0
  7  8  1  0
  8  9  2  0
  8  5  1  0
  1 10  1  0
  1 11  1  0
  1 12  1  0
  3 13  1  0
  3 14  1  0
  3 15  1  0
  4 16  1  0
  5 17  1  0
  6 18  1  0
  6 19  1  0
  7 20  1  0
  7 21  1  0
M  END
