
     RDKit          3D

 21 21  0  0  0  0  0  0  0  0999 V2000
   -1.7399   -0.9405   -0.5762 C   0  0  0  0  0  0  0  0  0  0  0  0
   -1.4293    0.2158    0.3632 C   0  0  0  0  0  0  0  0  0  0  0  0
   -1.6194    1.4866   -0.3881 C   0  0  0  0  0  0  0  0  0  0  0  0
   -0.0417    0.0324    0.9095 C   0  0  0  0  0  0  0  0  0  0  0  0
    1.0235    0.0009   -0.1283 C   0  0  0  0  0  0  0  0  0  0  0  0
    2.3822   -0.1871    0.5181 C   0  0  0  0  0  0  0  0  0  0  0  0
    2.6130   -0.9537   -0.7191 C   0  0  0  0  0  0  0  0  0  0  0  0
    3.6022   -1.2303   -1.4285 O   0  0  0  0  0  0  0  0  0  0  0  0
    1.2606   -1.2366   -0.7587 O   0  0  0  0  0  0  0  0  0  0  0  0
   -0.9757   -0.9624   -1.3809 H   0  0  0  0  0  0  0  0  0  0  0  0
   -2.7537   -0.7359   -0.9908 H   0  0  0  0  0  0  0  0  0  0  0  0
   -1.6912   -1.8595    0.0103 H   0  0  0  0  0  0  0  0  0  0  0  0
   -2.1447    0.1299    1.2068 H   0  0  0  0  0  0  0  0  0  0  0  0
   -2.5634    1.9624   -0.0631 H   0  0  0  0  0  0  0  0  0  0  0  0
   -1.7100    1.3477   -1.4893 H   0  0  0  0  0  0  0  0  0  0  0  0
   -0.8105    2.2296   -0.2334 H   0  0  0  0  0  0  0  0  0  0  0  0
    0.0038   -0.9143    1.4858 H   0  0  0  0  0  0  0  0  0  0  0  0
    0.1913    0.8418    1.6425 H   0  0  0  0  0  0  0  0  0  0  0  0
    1.0734    0.8594   -0.8177 H   0  0  0  0  0  0  0  0  0  0  0  0
    2.9711    0.7408    0.6399 H   0  0  0  0  0  0  0  0  0  0  0  0
    2.3585   -0.8270    1.4476 H   0  0  0  0  0  0  0  0  0  0  0  0
  1  2  1  0
  2  3  1  0
  2  4  1  0
  4  5  1  0
  5  6  1  0
  6  7  1  0
  7  8  2  0
  7  9  1  0
  9  5  1  0
  1 10  1  0
  1 11  1  0
  1 12  1  0
  2 13  1  0
  3 14  1  0
  3 15  1  0
  3 16  1  0
  4 17  1  0
  4 18  1  0
  5 19  1  0
  6 20  1  0
  6 21  1  0
M  END
