
     RDKit          3D

 20 19  0  0  0  0  0  0  0  0999 V2000
   -1.2926   -0.6602   -1.3811 C   0  0  0  0  0  0  0  0  0  0  0  0
   -0.5677   -0.1416   -0.1565 C   0  0  0  0  0  0  0  0  0  0  0  0
   -0.7284   -1.1380    0.9361 C   0  0  0  0  0  0  0  0  0  0  0  0
   -1.2912    1.1077    0.2601 C   0  0  0  0  0  0  0  0  0  0  0  0
   -0.8913    2.1941   -0.1275 O   0  0  0  0  0  0  0  0  0  0  0  0
    0.8526    0.1971   -0.4898 C   0  0  0  0  0  0  0  0  0  0  0  0
    1.6286    0.7197    0.6903 C   0  0  0  0  0  0  0  0  0  0  0  0
    2.9435    1.0239    0.3444 O   0  0  0  0  0  0  0  0  0  0  0  0
   -1.1955    0.1008   -2.1634 H   0  0  0  0  0  0  0  0  0  0  0  0
   -2.3641   -0.7560   -1.0955 H   0  0  0  0  0  0  0  0  0  0  0  0
   -0.8725   -1.6561   -1.6934 H   0  0  0  0  0  0  0  0  0  0  0  0
   -1.7748   -1.5552    0.8377 H   0  0  0  0  0  0  0  0  0  0  0  0
   -0.6944   -0.7042    1.9568 H   0  0  0  0  0  0  0  0  0  0  0  0
   -0.0563   -2.0052    0.8709 H   0  0  0  0  0  0  0  0  0  0  0  0
   -2.1631    1.0142    0.9036 H   0  0  0  0  0  0  0  0  0  0  0  0
    1.3766   -0.6880   -0.8990 H   0  0  0  0  0  0  0  0  0  0  0  0
    0.8655    0.9774   -1.2770 H   0  0  0  0  0  0  0  0  0  0  0  0
    1.1840    1.6631    1.0774 H   0  0  0  0  0  0  0  0  0  0  0  0
    1.6414    0.0125    1.5376 H   0  0  0  0  0  0  0  0  0  0  0  0
    3.3997    0.2940   -0.1318 H   0  0  0  0  0  0  0  0  0  0  0  0
  1  2  1  0
  2  3  1  0
  2  4  1  0
  4  5  2  0
  2  6  1  0
  6  7  1  0
  7  8  1  0
  1  9  1  0
  1 10  1  0
  1 11  1  0
  3 12  1  0
  3 13  1  0
  3 14  1  0
  4 15  1  0
  6 16  1  0
  6 17  1  0
  7 18  1  0
  7 19  1  0
  8 20  1  0
M  END
