
     RDKit          3D

 20 20  0  0  0  0  0  0  0  0999 V2000
    2.1969   -0.3258    0.8140 C   0  0  0  0  0  0  0  0  0  0  0  0
    1.1378   -0.4475   -0.2751 C   0  0  0  0  0  0  0  0  0  0  0  0
    1.7743   -0.0849   -1.5747 C   0  0  0  0  0  0  0  0  0  0  0  0
    0.0746    0.3438    0.0860 O   0  0  0  0  0  0  0  0  0  0  0  0
   -1.0817   -0.3301    0.3812 C   0  0  0  0  0  0  0  0  0  0  0  0
   -2.1383    0.2116    1.2499 C   0  0  0  0  0  0  0  0  0  0  0  0
   -2.3266    0.3363   -0.2397 C   0  0  0  0  0  0  0  0  0  0  0  0
   -2.2067    1.5991   -0.7574 O   0  0  0  0  0  0  0  0  0  0  0  0
    2.6919    0.6673    0.7959 H   0  0  0  0  0  0  0  0  0  0  0  0
    2.9817   -1.0905    0.6835 H   0  0  0  0  0  0  0  0  0  0  0  0
    1.7040   -0.3977    1.8135 H   0  0  0  0  0  0  0  0  0  0  0  0
    0.7910   -1.5064   -0.2410 H   0  0  0  0  0  0  0  0  0  0  0  0
    1.8341    1.0118   -1.6661 H   0  0  0  0  0  0  0  0  0  0  0  0
    2.8209   -0.5051   -1.5510 H   0  0  0  0  0  0  0  0  0  0  0  0
    1.2911   -0.5543   -2.4528 H   0  0  0  0  0  0  0  0  0  0  0  0
   -1.0205   -1.4328    0.2933 H   0  0  0  0  0  0  0  0  0  0  0  0
   -2.8364   -0.4979    1.7240 H   0  0  0  0  0  0  0  0  0  0  0  0
   -1.9410    1.1080    1.8493 H   0  0  0  0  0  0  0  0  0  0  0  0
   -3.0405   -0.3230   -0.7583 H   0  0  0  0  0  0  0  0  0  0  0  0
   -2.7065    2.2180   -0.1745 H   0  0  0  0  0  0  0  0  0  0  0  0
  1  2  1  0
  2  3  1  0
  2  4  1  0
  4  5  1  0
  5  6  1  0
  6  7  1  0
  7  8  1  0
  7  5  1  0
  1  9  1  0
  1 10  1  0
  1 11  1  0
  2 12  1  0
  3 13  1  0
  3 14  1  0
  3 15  1  0
  5 16  1  0
  6 17  1  0
  6 18  1  0
  7 19  1  0
  8 20  1  0
M  END
