
     RDKit          3D

 21 21  0  0  0  0  0  0  0  0999 V2000
   -2.3793   -1.4506   -0.4073 C   0  0  0  0  0  0  0  0  0  0  0  0
   -2.1897   -0.0647    0.1008 C   0  0  0  0  0  0  0  0  0  0  0  0
   -2.6955    0.0355    1.5331 C   0  0  0  0  0  0  0  0  0  0  0  0
   -0.7794    0.3215    0.0116 C   0  0  0  0  0  0  0  0  0  0  0  0
    0.3881    0.6590   -0.0752 C   0  0  0  0  0  0  0  0  0  0  0  0
    1.7767    1.0557   -0.1540 C   0  0  0  0  0  0  0  0  0  0  0  0
    2.6827   -0.0540    0.3289 C   0  0  0  0  0  0  0  0  0  0  0  0
    3.5474    0.5820   -0.7489 C   0  0  0  0  0  0  0  0  0  0  0  0
    2.3625    0.9101   -1.4163 O   0  0  0  0  0  0  0  0  0  0  0  0
   -1.4782   -2.0802   -0.1733 H   0  0  0  0  0  0  0  0  0  0  0  0
   -2.5702   -1.5044   -1.5007 H   0  0  0  0  0  0  0  0  0  0  0  0
   -3.2112   -1.9292    0.1755 H   0  0  0  0  0  0  0  0  0  0  0  0
   -2.7652    0.6880   -0.4984 H   0  0  0  0  0  0  0  0  0  0  0  0
   -2.0258   -0.4223    2.2593 H   0  0  0  0  0  0  0  0  0  0  0  0
   -2.7407    1.1428    1.7473 H   0  0  0  0  0  0  0  0  0  0  0  0
   -3.7261   -0.3204    1.5741 H   0  0  0  0  0  0  0  0  0  0  0  0
    2.0523    2.0162    0.2854 H   0  0  0  0  0  0  0  0  0  0  0  0
    3.1082    0.0696    1.3247 H   0  0  0  0  0  0  0  0  0  0  0  0
    2.4038   -1.0709    0.0084 H   0  0  0  0  0  0  0  0  0  0  0  0
    4.0319    1.5330   -0.4097 H   0  0  0  0  0  0  0  0  0  0  0  0
    4.2078   -0.1167   -1.2859 H   0  0  0  0  0  0  0  0  0  0  0  0
  1  2  1  0
  2  3  1  0
  2  4  1  0
  4  5  3  0
  5  6  1  0
  6  7  1  0
  7  8  1  0
  8  9  1  0
  9  6  1  0
  1 10  1  0
  1 11  1  0
  1 12  1  0
  2 13  1  0
  3 14  1  0
  3 15  1  0
  3 16  1  0
  6 17  1  0
  7 18  1  0
  7 19  1  0
  8 20  1  0
  8 21  1  0
M  END
