
     RDKit          3D

 21 20  0  0  0  0  0  0  0  0999 V2000
   -0.9931   -1.8411   -1.0661 C   0  0  0  0  0  0  0  0  0  0  0  0
   -0.7785   -0.6364   -0.1601 C   0  0  0  0  0  0  0  0  0  0  0  0
   -2.1098    0.0357    0.0518 C   0  0  0  0  0  0  0  0  0  0  0  0
   -1.8687    1.2074    0.9378 C   0  0  0  0  0  0  0  0  0  0  0  0
   -1.4259    2.2598    0.5093 O   0  0  0  0  0  0  0  0  0  0  0  0
    0.1893    0.2134   -0.6572 O   0  0  0  0  0  0  0  0  0  0  0  0
    1.2339    0.2451    0.2317 C   0  0  0  0  0  0  0  0  0  0  0  0
    2.3699    1.1457   -0.1844 C   0  0  0  0  0  0  0  0  0  0  0  0
    3.3340    1.0437    0.8458 O   0  0  0  0  0  0  0  0  0  0  0  0
   -1.0525   -1.5693   -2.1246 H   0  0  0  0  0  0  0  0  0  0  0  0
   -0.2432   -2.6219   -0.9279 H   0  0  0  0  0  0  0  0  0  0  0  0
   -1.9728   -2.2771   -0.7886 H   0  0  0  0  0  0  0  0  0  0  0  0
   -0.4164   -1.0360    0.8049 H   0  0  0  0  0  0  0  0  0  0  0  0
   -2.8251   -0.6674    0.4858 H   0  0  0  0  0  0  0  0  0  0  0  0
   -2.4539    0.4130   -0.9144 H   0  0  0  0  0  0  0  0  0  0  0  0
   -2.0840    1.1487    1.9957 H   0  0  0  0  0  0  0  0  0  0  0  0
    0.8540    0.6118    1.2013 H   0  0  0  0  0  0  0  0  0  0  0  0
    1.6610   -0.7846    0.2964 H   0  0  0  0  0  0  0  0  0  0  0  0
    2.8315    0.7900   -1.1263 H   0  0  0  0  0  0  0  0  0  0  0  0
    2.0827    2.2141   -0.2094 H   0  0  0  0  0  0  0  0  0  0  0  0
    3.6676    0.1054    0.7988 H   0  0  0  0  0  0  0  0  0  0  0  0
  1  2  1  0
  2  3  1  0
  3  4  1  0
  4  5  2  0
  2  6  1  0
  6  7  1  0
  7  8  1  0
  8  9  1  0
  1 10  1  0
  1 11  1  0
  1 12  1  0
  2 13  1  0
  3 14  1  0
  3 15  1  0
  4 16  1  0
  7 17  1  0
  7 18  1  0
  8 19  1  0
  8 20  1  0
  9 21  1  0
M  END
