
     RDKit          3D

 23 23  0  0  0  0  0  0  0  0999 V2000
   -2.0937    1.0225   -0.2456 C   0  0  0  0  0  0  0  0  0  0  0  0
   -1.1734   -0.1332    0.1691 C   0  0  0  0  0  0  0  0  0  0  0  0
   -1.9043   -1.4132   -0.0835 C   0  0  0  0  0  0  0  0  0  0  0  0
   -0.9009    0.0149    1.5067 O   0  0  0  0  0  0  0  0  0  0  0  0
    0.0774    0.0099   -0.6607 C   0  0  0  0  0  0  0  0  0  0  0  0
    0.6105    1.3742   -0.3953 O   0  0  0  0  0  0  0  0  0  0  0  0
    1.3915    0.2201   -0.1272 C   0  0  0  0  0  0  0  0  0  0  0  0
    1.6790   -0.1437    1.2911 C   0  0  0  0  0  0  0  0  0  0  0  0
    2.5617    0.0989   -1.0731 C   0  0  0  0  0  0  0  0  0  0  0  0
   -2.2123    0.9241   -1.3556 H   0  0  0  0  0  0  0  0  0  0  0  0
   -3.0415    0.9209    0.2826 H   0  0  0  0  0  0  0  0  0  0  0  0
   -1.5366    1.9487   -0.0357 H   0  0  0  0  0  0  0  0  0  0  0  0
   -1.6045   -2.2002    0.6590 H   0  0  0  0  0  0  0  0  0  0  0  0
   -2.9867   -1.2193    0.1070 H   0  0  0  0  0  0  0  0  0  0  0  0
   -1.8273   -1.7601   -1.1232 H   0  0  0  0  0  0  0  0  0  0  0  0
   -0.9689    0.9733    1.7389 H   0  0  0  0  0  0  0  0  0  0  0  0
   -0.0655   -0.1351   -1.7634 H   0  0  0  0  0  0  0  0  0  0  0  0
    1.3930    0.6563    2.0174 H   0  0  0  0  0  0  0  0  0  0  0  0
    1.1497   -1.1056    1.5094 H   0  0  0  0  0  0  0  0  0  0  0  0
    2.7701   -0.3948    1.4372 H   0  0  0  0  0  0  0  0  0  0  0  0
    3.4318    0.6024   -0.5609 H   0  0  0  0  0  0  0  0  0  0  0  0
    2.8492   -0.9343   -1.2850 H   0  0  0  0  0  0  0  0  0  0  0  0
    2.4016    0.6733   -2.0094 H   0  0  0  0  0  0  0  0  0  0  0  0
  1  2  1  0
  2  3  1  0
  2  4  1  0
  2  5  1  0
  5  6  1  0
  6  7  1  0
  7  8  1  0
  7  9  1  0
  7  5  1  0
  1 10  1  0
  1 11  1  0
  1 12  1  0
  3 13  1  0
  3 14  1  0
  3 15  1  0
  4 16  1  0
  5 17  1  0
  8 18  1  0
  8 19  1  0
  8 20  1  0
  9 21  1  0
  9 22  1  0
  9 23  1  0
M  END
