
     RDKit          3D

 23 23  0  0  0  0  0  0  0  0999 V2000
   -2.5468   -0.5273   -1.1638 C   0  0  0  0  0  0  0  0  0  0  0  0
   -1.5467   -0.4616   -0.0143 C   0  0  0  0  0  0  0  0  0  0  0  0
   -2.3250   -0.0150    1.2068 C   0  0  0  0  0  0  0  0  0  0  0  0
   -0.6137    0.4998   -0.3385 O   0  0  0  0  0  0  0  0  0  0  0  0
    0.6736    0.0505   -0.4174 C   0  0  0  0  0  0  0  0  0  0  0  0
    1.3304    0.2228   -1.7119 C   0  0  0  0  0  0  0  0  0  0  0  0
    2.6307    0.2954   -1.5144 C   0  0  0  0  0  0  0  0  0  0  0  0
    2.9492    0.1765   -0.0614 C   0  0  0  0  0  0  0  0  0  0  0  0
    1.6287    0.6876    0.5385 C   0  0  0  0  0  0  0  0  0  0  0  0
   -3.0471   -1.5207   -1.1664 H   0  0  0  0  0  0  0  0  0  0  0  0
   -3.2910    0.2716   -0.9956 H   0  0  0  0  0  0  0  0  0  0  0  0
   -2.0432   -0.2937   -2.1232 H   0  0  0  0  0  0  0  0  0  0  0  0
   -1.1060   -1.4656    0.1350 H   0  0  0  0  0  0  0  0  0  0  0  0
   -2.3489    1.1105    1.1814 H   0  0  0  0  0  0  0  0  0  0  0  0
   -3.3832   -0.3341    1.1674 H   0  0  0  0  0  0  0  0  0  0  0  0
   -1.8511   -0.3481    2.1555 H   0  0  0  0  0  0  0  0  0  0  0  0
    0.6726   -1.0518   -0.1886 H   0  0  0  0  0  0  0  0  0  0  0  0
    0.8473    0.2811   -2.6610 H   0  0  0  0  0  0  0  0  0  0  0  0
    3.3825    0.4224   -2.2751 H   0  0  0  0  0  0  0  0  0  0  0  0
    3.7921    0.8133    0.2398 H   0  0  0  0  0  0  0  0  0  0  0  0
    3.0477   -0.8817    0.1914 H   0  0  0  0  0  0  0  0  0  0  0  0
    1.6732    1.7784    0.4827 H   0  0  0  0  0  0  0  0  0  0  0  0
    1.4747    0.2898    1.5548 H   0  0  0  0  0  0  0  0  0  0  0  0
  1  2  1  0
  2  3  1  0
  2  4  1  0
  4  5  1  0
  5  6  1  0
  6  7  2  0
  7  8  1  0
  8  9  1  0
  9  5  1  0
  1 10  1  0
  1 11  1  0
  1 12  1  0
  2 13  1  0
  3 14  1  0
  3 15  1  0
  3 16  1  0
  5 17  1  0
  6 18  1  0
  7 19  1  0
  8 20  1  0
  8 21  1  0
  9 22  1  0
  9 23  1  0
M  END
