
     RDKit          3D

 18 17  0  0  0  0  0  0  0  0999 V2000
   -1.4142   -0.1738    0.9983 C   0  0  0  0  0  0  0  0  0  0  0  0
   -0.3100   -0.5520    0.0156 C   0  0  0  0  0  0  0  0  0  0  0  0
   -0.9406   -0.8575   -1.3039 C   0  0  0  0  0  0  0  0  0  0  0  0
    0.6154    0.6557   -0.0575 C   0  0  0  0  0  0  0  0  0  0  0  0
    1.1245    0.8674    1.3297 C   0  0  0  0  0  0  0  0  0  0  0  0
    2.0866    0.2024    1.6709 O   0  0  0  0  0  0  0  0  0  0  0  0
    1.7803    0.4166   -0.9240 C   0  0  0  0  0  0  0  0  0  0  0  0
    2.2165    1.3081   -1.6221 O   0  0  0  0  0  0  0  0  0  0  0  0
   -1.9011    0.7310    0.5587 H   0  0  0  0  0  0  0  0  0  0  0  0
   -0.9237    0.1565    1.9248 H   0  0  0  0  0  0  0  0  0  0  0  0
   -2.1396   -0.9932    1.1436 H   0  0  0  0  0  0  0  0  0  0  0  0
    0.2034   -1.4364    0.3982 H   0  0  0  0  0  0  0  0  0  0  0  0
   -1.4729   -1.8244   -1.2084 H   0  0  0  0  0  0  0  0  0  0  0  0
   -0.2161   -0.9761   -2.1249 H   0  0  0  0  0  0  0  0  0  0  0  0
   -1.7149   -0.1060   -1.5723 H   0  0  0  0  0  0  0  0  0  0  0  0
    0.0585    1.5747   -0.3221 H   0  0  0  0  0  0  0  0  0  0  0  0
    0.6994    1.5611    2.0346 H   0  0  0  0  0  0  0  0  0  0  0  0
    2.2483   -0.5540   -0.9390 H   0  0  0  0  0  0  0  0  0  0  0  0
  1  2  1  0
  2  3  1  0
  2  4  1  0
  4  5  1  0
  5  6  2  0
  4  7  1  0
  7  8  2  0
  1  9  1  0
  1 10  1  0
  1 11  1  0
  2 12  1  0
  3 13  1  0
  3 14  1  0
  3 15  1  0
  4 16  1  0
  5 17  1  0
  7 18  1  0
M  END
