
     RDKit          3D

 23 23  0  0  0  0  0  0  0  0999 V2000
   -1.4759    1.2150   -0.8245 C   0  0  0  0  0  0  0  0  0  0  0  0
   -1.1515   -0.1271   -0.2118 C   0  0  0  0  0  0  0  0  0  0  0  0
   -1.7870   -0.2154    1.1295 C   0  0  0  0  0  0  0  0  0  0  0  0
    0.3240   -0.4027   -0.2194 C   0  0  0  0  0  0  0  0  0  0  0  0
    0.6141   -1.7689    0.4080 C   0  0  0  0  0  0  0  0  0  0  0  0
    0.7190   -0.5060   -1.5481 O   0  0  0  0  0  0  0  0  0  0  0  0
    1.1564    0.5927    0.4950 C   0  0  0  0  0  0  0  0  0  0  0  0
    2.3097    1.1557   -0.3082 C   0  0  0  0  0  0  0  0  0  0  0  0
    1.2144    1.9163    0.1055 O   0  0  0  0  0  0  0  0  0  0  0  0
   -1.0903    2.0653   -0.2550 H   0  0  0  0  0  0  0  0  0  0  0  0
   -1.1838    1.2179   -1.8975 H   0  0  0  0  0  0  0  0  0  0  0  0
   -2.5944    1.3143   -0.8249 H   0  0  0  0  0  0  0  0  0  0  0  0
   -1.6252   -0.8944   -0.8759 H   0  0  0  0  0  0  0  0  0  0  0  0
   -1.1002   -0.4235    1.9590 H   0  0  0  0  0  0  0  0  0  0  0  0
   -2.5620   -1.0360    1.1704 H   0  0  0  0  0  0  0  0  0  0  0  0
   -2.3530    0.7074    1.4105 H   0  0  0  0  0  0  0  0  0  0  0  0
   -0.0096   -2.5557   -0.0390 H   0  0  0  0  0  0  0  0  0  0  0  0
    0.4742   -1.6544    1.5026 H   0  0  0  0  0  0  0  0  0  0  0  0
    1.7077   -1.9779    0.2394 H   0  0  0  0  0  0  0  0  0  0  0  0
    1.3152   -1.2506   -1.7260 H   0  0  0  0  0  0  0  0  0  0  0  0
    1.4647    0.3382    1.5469 H   0  0  0  0  0  0  0  0  0  0  0  0
    2.3415    0.9900   -1.3974 H   0  0  0  0  0  0  0  0  0  0  0  0
    3.2920    1.2999    0.1611 H   0  0  0  0  0  0  0  0  0  0  0  0
  1  2  1  0
  2  3  1  0
  2  4  1  0
  4  5  1  0
  4  6  1  0
  4  7  1  0
  7  8  1  0
  8  9  1  0
  9  7  1  0
  1 10  1  0
  1 11  1  0
  1 12  1  0
  2 13  1  0
  3 14  1  0
  3 15  1  0
  3 16  1  0
  5 17  1  0
  5 18  1  0
  5 19  1  0
  6 20  1  0
  7 21  1  0
  8 22  1  0
  8 23  1  0
M  END
