
     RDKit          3D

 23 23  0  0  0  0  0  0  0  0999 V2000
   -1.5759    0.7877   -0.8471 C   0  0  0  0  0  0  0  0  0  0  0  0
   -1.1625   -0.5052   -0.1794 C   0  0  0  0  0  0  0  0  0  0  0  0
   -2.4016   -1.0174    0.5724 C   0  0  0  0  0  0  0  0  0  0  0  0
   -0.0215   -0.3531    0.7359 C   0  0  0  0  0  0  0  0  0  0  0  0
    1.2720    0.1208    0.2439 C   0  0  0  0  0  0  0  0  0  0  0  0
    2.2557    0.2095    1.2716 O   0  0  0  0  0  0  0  0  0  0  0  0
    1.7909   -0.6920   -0.9721 C   0  0  0  0  0  0  0  0  0  0  0  0
    1.6025    0.8180   -0.9813 C   0  0  0  0  0  0  0  0  0  0  0  0
    2.8531    1.4828   -1.0407 O   0  0  0  0  0  0  0  0  0  0  0  0
   -2.6826    0.9703   -0.7417 H   0  0  0  0  0  0  0  0  0  0  0  0
   -1.4021    0.7553   -1.9324 H   0  0  0  0  0  0  0  0  0  0  0  0
   -1.0415    1.6628   -0.3734 H   0  0  0  0  0  0  0  0  0  0  0  0
   -1.0248   -1.2464   -0.9914 H   0  0  0  0  0  0  0  0  0  0  0  0
   -2.3930   -0.5461    1.5551 H   0  0  0  0  0  0  0  0  0  0  0  0
   -3.3184   -0.7095    0.0307 H   0  0  0  0  0  0  0  0  0  0  0  0
   -2.4094   -2.1250    0.6010 H   0  0  0  0  0  0  0  0  0  0  0  0
   -0.3594    0.2621    1.6261 H   0  0  0  0  0  0  0  0  0  0  0  0
    0.1533   -1.3672    1.2126 H   0  0  0  0  0  0  0  0  0  0  0  0
    1.9237    0.9474    1.8608 H   0  0  0  0  0  0  0  0  0  0  0  0
    1.0369   -1.2254   -1.5761 H   0  0  0  0  0  0  0  0  0  0  0  0
    2.7891   -1.1316   -0.9041 H   0  0  0  0  0  0  0  0  0  0  0  0
    0.8991    1.2665   -1.6828 H   0  0  0  0  0  0  0  0  0  0  0  0
    3.2163    1.6358   -0.1466 H   0  0  0  0  0  0  0  0  0  0  0  0
  1  2  1  0
  2  3  1  0
  2  4  1  0
  4  5  1  0
  5  6  1  0
  5  7  1  0
  7  8  1  0
  8  9  1  0
  8  5  1  0
  1 10  1  0
  1 11  1  0
  1 12  1  0
  2 13  1  0
  3 14  1  0
  3 15  1  0
  3 16  1  0
  4 17  1  0
  4 18  1  0
  6 19  1  0
  7 20  1  0
  7 21  1  0
  8 22  1  0
  9 23  1  0
M  END
