
     RDKit          3D

 17 17  0  0  0  0  0  0  0  0999 V2000
   -0.6611   -2.0530   -0.1539 C   0  0  0  0  0  0  0  0  0  0  0  0
   -1.2033   -0.7396   -0.5409 C   0  0  0  0  0  0  0  0  0  0  0  0
    0.1836   -0.2699   -0.5061 C   0  0  0  0  0  0  0  0  0  0  0  0
    1.8918    0.3321   -0.4391 C   0  0  0  0  0  0  0  0  0  0  0  0
    3.4033    0.8613   -0.4079 C   0  0  0  0  0  0  0  0  0  0  0  0
    3.6012    0.8379   -1.6684 O   0  0  0  0  0  0  0  0  0  0  0  0
   -1.6944    0.5411   -0.9295 C   0  0  0  0  0  0  0  0  0  0  0  0
   -0.9408    1.7674   -0.2301 C   0  0  0  0  0  0  0  0  0  0  0  0
   -1.3832    1.6385   -1.5735 O   0  0  0  0  0  0  0  0  0  0  0  0
   -0.4598   -2.7328   -0.9501 H   0  0  0  0  0  0  0  0  0  0  0  0
    0.3361   -1.9546    0.4484 H   0  0  0  0  0  0  0  0  0  0  0  0
   -1.3225   -2.5793    0.6520 H   0  0  0  0  0  0  0  0  0  0  0  0
   -1.3895   -0.4269    0.8168 H   0  0  0  0  0  0  0  0  0  0  0  0
    3.4420    0.9373    0.5239 H   0  0  0  0  0  0  0  0  0  0  0  0
   -2.8469    0.6103   -0.5634 H   0  0  0  0  0  0  0  0  0  0  0  0
   -1.2001    1.6408    0.7658 H   0  0  0  0  0  0  0  0  0  0  0  0
    0.2434    1.5894   -0.2888 H   0  0  0  0  0  0  0  0  0  0  0  0
  1  2  1  0
  2  3  1  0
  3  4  3  0
  4  5  1  0
  5  6  2  0
  2  7  1  0
  7  8  1  0
  8  9  1  0
  9  7  1  0
  1 10  1  0
  1 11  1  0
  1 12  1  0
  2 13  1  0
  5 14  1  0
  7 15  1  0
  8 16  1  0
  8 17  1  0
M  END
