
     RDKit          3D

 23 23  0  0  0  0  0  0  0  0999 V2000
   -0.9604    1.6259    0.0562 C   0  0  0  0  0  0  0  0  0  0  0  0
   -1.1473    0.1639    0.3622 C   0  0  0  0  0  0  0  0  0  0  0  0
   -2.2622   -0.3326   -0.5710 C   0  0  0  0  0  0  0  0  0  0  0  0
   -2.5166   -1.6876   -0.3677 O   0  0  0  0  0  0  0  0  0  0  0  0
    0.0577   -0.6692    0.0708 C   0  0  0  0  0  0  0  0  0  0  0  0
    1.2750   -0.2588    0.8543 C   0  0  0  0  0  0  0  0  0  0  0  0
    2.5057   -1.0629    0.5970 C   0  0  0  0  0  0  0  0  0  0  0  0
    3.2678    0.0688    0.3210 O   0  0  0  0  0  0  0  0  0  0  0  0
    2.0936    0.7899    0.0923 C   0  0  0  0  0  0  0  0  0  0  0  0
   -0.6790    1.7027   -1.0187 H   0  0  0  0  0  0  0  0  0  0  0  0
   -0.2774    2.1414    0.7349 H   0  0  0  0  0  0  0  0  0  0  0  0
   -1.9871    2.0910    0.1176 H   0  0  0  0  0  0  0  0  0  0  0  0
   -1.4661    0.0532    1.4148 H   0  0  0  0  0  0  0  0  0  0  0  0
   -3.2214    0.1976   -0.3324 H   0  0  0  0  0  0  0  0  0  0  0  0
   -2.0333   -0.0805   -1.6171 H   0  0  0  0  0  0  0  0  0  0  0  0
   -3.1497   -1.7990    0.3648 H   0  0  0  0  0  0  0  0  0  0  0  0
   -0.1704   -1.7140    0.2711 H   0  0  0  0  0  0  0  0  0  0  0  0
    0.2978   -0.5508   -1.0124 H   0  0  0  0  0  0  0  0  0  0  0  0
    1.1168    0.0170    1.8982 H   0  0  0  0  0  0  0  0  0  0  0  0
    2.4361   -1.7828   -0.2601 H   0  0  0  0  0  0  0  0  0  0  0  0
    2.8989   -1.5518    1.5118 H   0  0  0  0  0  0  0  0  0  0  0  0
    1.8277    0.8496   -0.9886 H   0  0  0  0  0  0  0  0  0  0  0  0
    2.0936    1.7889    0.5752 H   0  0  0  0  0  0  0  0  0  0  0  0
  1  2  1  0
  2  3  1  0
  3  4  1  0
  2  5  1  0
  5  6  1  0
  6  7  1  0
  7  8  1  0
  8  9  1  0
  9  6  1  0
  1 10  1  0
  1 11  1  0
  1 12  1  0
  2 13  1  0
  3 14  1  0
  3 15  1  0
  4 16  1  0
  5 17  1  0
  5 18  1  0
  6 19  1  0
  7 20  1  0
  7 21  1  0
  9 22  1  0
  9 23  1  0
M  END
