
     RDKit          3D

 25 24  0  0  0  0  0  0  0  0999 V2000
   -1.7347   -0.2487   -1.0706 C   0  0  0  0  0  0  0  0  0  0  0  0
   -1.6581    0.4131    0.2834 C   0  0  0  0  0  0  0  0  0  0  0  0
   -3.0872    0.7317    0.6659 C   0  0  0  0  0  0  0  0  0  0  0  0
   -1.0291   -0.4298    1.1470 O   0  0  0  0  0  0  0  0  0  0  0  0
    0.0952    0.0147    1.7601 C   0  0  0  0  0  0  0  0  0  0  0  0
    1.2488    0.3546    0.8536 C   0  0  0  0  0  0  0  0  0  0  0  0
    1.6566   -0.9060    0.1299 C   0  0  0  0  0  0  0  0  0  0  0  0
    2.8147   -0.6595   -0.8158 C   0  0  0  0  0  0  0  0  0  0  0  0
    2.4188    0.2947   -1.7549 O   0  0  0  0  0  0  0  0  0  0  0  0
   -1.8280   -1.3541   -0.8818 H   0  0  0  0  0  0  0  0  0  0  0  0
   -2.5923    0.1183   -1.6726 H   0  0  0  0  0  0  0  0  0  0  0  0
   -0.7910   -0.0114   -1.6205 H   0  0  0  0  0  0  0  0  0  0  0  0
   -1.1433    1.3875    0.1591 H   0  0  0  0  0  0  0  0  0  0  0  0
   -3.1756    1.4821    1.4500 H   0  0  0  0  0  0  0  0  0  0  0  0
   -3.5590    1.1744   -0.2494 H   0  0  0  0  0  0  0  0  0  0  0  0
   -3.6412   -0.2113    0.8632 H   0  0  0  0  0  0  0  0  0  0  0  0
   -0.0786    0.8019    2.5309 H   0  0  0  0  0  0  0  0  0  0  0  0
    0.4729   -0.8571    2.3820 H   0  0  0  0  0  0  0  0  0  0  0  0
    2.0621    0.7464    1.4978 H   0  0  0  0  0  0  0  0  0  0  0  0
    0.9808    1.1098    0.0886 H   0  0  0  0  0  0  0  0  0  0  0  0
    2.0014   -1.6941    0.8402 H   0  0  0  0  0  0  0  0  0  0  0  0
    0.7883   -1.3354   -0.3839 H   0  0  0  0  0  0  0  0  0  0  0  0
    3.7013   -0.3565   -0.2574 H   0  0  0  0  0  0  0  0  0  0  0  0
    3.0234   -1.6139   -1.3402 H   0  0  0  0  0  0  0  0  0  0  0  0
    3.0539    1.0487   -1.7015 H   0  0  0  0  0  0  0  0  0  0  0  0
  1  2  1  0
  2  3  1  0
  2  4  1  0
  4  5  1  0
  5  6  1  0
  6  7  1  0
  7  8  1  0
  8  9  1  0
  1 10  1  0
  1 11  1  0
  1 12  1  0
  2 13  1  0
  3 14  1  0
  3 15  1  0
  3 16  1  0
  5 17  1  0
  5 18  1  0
  6 19  1  0
  6 20  1  0
  7 21  1  0
  7 22  1  0
  8 23  1  0
  8 24  1  0
  9 25  1  0
M  END
