
     RDKit          3D

 19 19  0  0  0  0  0  0  0  0999 V2000
   -1.6850   -1.0817   -0.7919 C   0  0  0  0  0  0  0  0  0  0  0  0
   -1.1186    0.0357    0.0539 C   0  0  0  0  0  0  0  0  0  0  0  0
   -1.8633    1.3038   -0.2355 C   0  0  0  0  0  0  0  0  0  0  0  0
   -2.7917    1.7081    0.4271 O   0  0  0  0  0  0  0  0  0  0  0  0
    0.3260    0.2886   -0.2208 C   0  0  0  0  0  0  0  0  0  0  0  0
    1.3308   -0.7739   -0.0146 C   0  0  0  0  0  0  0  0  0  0  0  0
    2.5240   -0.7246   -0.7379 O   0  0  0  0  0  0  0  0  0  0  0  0
    1.2074    0.3254    1.0183 C   0  0  0  0  0  0  0  0  0  0  0  0
    2.1303    1.3633    1.0191 O   0  0  0  0  0  0  0  0  0  0  0  0
   -2.7383   -1.2174   -0.4766 H   0  0  0  0  0  0  0  0  0  0  0  0
   -1.5926   -0.7530   -1.8529 H   0  0  0  0  0  0  0  0  0  0  0  0
   -1.1109   -1.9898   -0.6023 H   0  0  0  0  0  0  0  0  0  0  0  0
   -1.2618   -0.1581    1.1256 H   0  0  0  0  0  0  0  0  0  0  0  0
   -1.5512    1.8882   -1.0850 H   0  0  0  0  0  0  0  0  0  0  0  0
    0.5055    1.0588   -1.0175 H   0  0  0  0  0  0  0  0  0  0  0  0
    1.0395   -1.7955    0.2696 H   0  0  0  0  0  0  0  0  0  0  0  0
    3.2420   -0.9520   -0.0727 H   0  0  0  0  0  0  0  0  0  0  0  0
    0.8096    0.0022    1.9766 H   0  0  0  0  0  0  0  0  0  0  0  0
    2.5984    1.4718    0.1728 H   0  0  0  0  0  0  0  0  0  0  0  0
  1  2  1  0
  2  3  1  0
  3  4  2  0
  2  5  1  0
  5  6  1  0
  6  7  1  0
  6  8  1  0
  8  9  1  0
  8  5  1  0
  1 10  1  0
  1 11  1  0
  1 12  1  0
  2 13  1  0
  3 14  1  0
  5 15  1  0
  6 16  1  0
  7 17  1  0
  8 18  1  0
  9 19  1  0
M  END
