
     RDKit          3D

 20 20  0  0  0  0  0  0  0  0999 V2000
   -1.7918    1.2261   -0.1749 C   0  0  0  0  0  0  0  0  0  0  0  0
   -1.1233   -0.1503   -0.2966 C   0  0  0  0  0  0  0  0  0  0  0  0
   -1.9174   -1.1879    0.4231 C   0  0  0  0  0  0  0  0  0  0  0  0
    0.2771    0.0228    0.2278 C   0  0  0  0  0  0  0  0  0  0  0  0
    1.0330   -1.1267    0.1944 O   0  0  0  0  0  0  0  0  0  0  0  0
    2.3217   -0.6005    0.3537 C   0  0  0  0  0  0  0  0  0  0  0  0
    2.2642    0.5461   -0.6570 C   0  0  0  0  0  0  0  0  0  0  0  0
    0.9356    0.9030   -0.6274 O   0  0  0  0  0  0  0  0  0  0  0  0
   -1.0062    1.9608   -0.4472 H   0  0  0  0  0  0  0  0  0  0  0  0
   -2.0662    1.3925    0.8838 H   0  0  0  0  0  0  0  0  0  0  0  0
   -2.6497    1.3133   -0.8551 H   0  0  0  0  0  0  0  0  0  0  0  0
   -1.1316   -0.3848   -1.3774 H   0  0  0  0  0  0  0  0  0  0  0  0
   -1.6894   -2.1846   -0.0261 H   0  0  0  0  0  0  0  0  0  0  0  0
   -2.9949   -0.9710    0.2380 H   0  0  0  0  0  0  0  0  0  0  0  0
   -1.7782   -1.1734    1.5231 H   0  0  0  0  0  0  0  0  0  0  0  0
    0.2985    0.4423    1.2529 H   0  0  0  0  0  0  0  0  0  0  0  0
    3.1106   -1.3285    0.0909 H   0  0  0  0  0  0  0  0  0  0  0  0
    2.4674   -0.1731    1.3550 H   0  0  0  0  0  0  0  0  0  0  0  0
    2.4833    0.1144   -1.6780 H   0  0  0  0  0  0  0  0  0  0  0  0
    2.9572    1.3596   -0.4032 H   0  0  0  0  0  0  0  0  0  0  0  0
  1  2  1  0
  2  3  1  0
  2  4  1  0
  4  5  1  0
  5  6  1  0
  6  7  1  0
  7  8  1  0
  8  4  1  0
  1  9  1  0
  1 10  1  0
  1 11  1  0
  2 12  1  0
  3 13  1  0
  3 14  1  0
  3 15  1  0
  4 16  1  0
  6 17  1  0
  6 18  1  0
  7 19  1  0
  7 20  1  0
M  END
