
     RDKit          3D

 22 22  0  0  0  0  0  0  0  0999 V2000
    1.9599   -0.4236    0.9454 C   0  0  0  0  0  0  0  0  0  0  0  0
    1.3241   -0.3089   -0.4153 C   0  0  0  0  0  0  0  0  0  0  0  0
    2.0110    0.6345   -1.3329 C   0  0  0  0  0  0  0  0  0  0  0  0
   -0.1190   -0.0038   -0.2100 C   0  0  0  0  0  0  0  0  0  0  0  0
   -0.8586    0.9747   -0.7241 C   0  0  0  0  0  0  0  0  0  0  0  0
   -2.2688    0.8729   -0.2222 C   0  0  0  0  0  0  0  0  0  0  0  0
   -2.3445   -0.6389    0.0237 C   0  0  0  0  0  0  0  0  0  0  0  0
   -0.9754   -0.8457    0.6823 C   0  0  0  0  0  0  0  0  0  0  0  0
    2.1879    0.5436    1.4099 H   0  0  0  0  0  0  0  0  0  0  0  0
    1.2569   -1.0299    1.5806 H   0  0  0  0  0  0  0  0  0  0  0  0
    2.8815   -1.0659    0.8619 H   0  0  0  0  0  0  0  0  0  0  0  0
    1.3514   -1.3473   -0.8575 H   0  0  0  0  0  0  0  0  0  0  0  0
    2.0905    0.1943   -2.3447 H   0  0  0  0  0  0  0  0  0  0  0  0
    3.0474    0.8689   -0.9502 H   0  0  0  0  0  0  0  0  0  0  0  0
    1.5183    1.6160   -1.4526 H   0  0  0  0  0  0  0  0  0  0  0  0
   -0.5173    1.7337   -1.3986 H   0  0  0  0  0  0  0  0  0  0  0  0
   -2.3145    1.3795    0.7402 H   0  0  0  0  0  0  0  0  0  0  0  0
   -3.0075    1.1935   -0.9647 H   0  0  0  0  0  0  0  0  0  0  0  0
   -2.3926   -1.2019   -0.9270 H   0  0  0  0  0  0  0  0  0  0  0  0
   -3.1253   -0.9108    0.7280 H   0  0  0  0  0  0  0  0  0  0  0  0
   -1.0268   -0.3454    1.6752 H   0  0  0  0  0  0  0  0  0  0  0  0
   -0.6789   -1.8895    0.7140 H   0  0  0  0  0  0  0  0  0  0  0  0
  1  2  1  0
  2  3  1  0
  2  4  1  0
  4  5  2  0
  5  6  1  0
  6  7  1  0
  7  8  1  0
  8  4  1  0
  1  9  1  0
  1 10  1  0
  1 11  1  0
  2 12  1  0
  3 13  1  0
  3 14  1  0
  3 15  1  0
  5 16  1  0
  6 17  1  0
  6 18  1  0
  7 19  1  0
  7 20  1  0
  8 21  1  0
  8 22  1  0
M  END
