
     RDKit          3D

 21 22  0  0  0  0  0  0  0  0999 V2000
   -2.3624   -0.7167   -0.8136 C   0  0  0  0  0  0  0  0  0  0  0  0
   -1.5118   -0.1399    0.3049 C   0  0  0  0  0  0  0  0  0  0  0  0
   -2.1973    1.0085    1.0029 C   0  0  0  0  0  0  0  0  0  0  0  0
   -0.2800    0.3052   -0.1640 O   0  0  0  0  0  0  0  0  0  0  0  0
    0.7886   -0.3928    0.4101 C   0  0  0  0  0  0  0  0  0  0  0  0
    2.1045    0.2356    0.5934 C   0  0  0  0  0  0  0  0  0  0  0  0
    2.9413    0.7663   -0.5150 C   0  0  0  0  0  0  0  0  0  0  0  0
    2.1757    0.1272   -1.5006 O   0  0  0  0  0  0  0  0  0  0  0  0
    1.8560   -0.8109   -0.5144 C   0  0  0  0  0  0  0  0  0  0  0  0
   -1.7138   -0.9518   -1.6998 H   0  0  0  0  0  0  0  0  0  0  0  0
   -3.0919    0.0747   -1.1521 H   0  0  0  0  0  0  0  0  0  0  0  0
   -2.9184   -1.5868   -0.4448 H   0  0  0  0  0  0  0  0  0  0  0  0
   -1.2994   -0.9584    1.0340 H   0  0  0  0  0  0  0  0  0  0  0  0
   -1.8142    1.0680    2.0562 H   0  0  0  0  0  0  0  0  0  0  0  0
   -1.9413    1.9588    0.4773 H   0  0  0  0  0  0  0  0  0  0  0  0
   -3.2935    0.8507    1.0202 H   0  0  0  0  0  0  0  0  0  0  0  0
    0.4528   -1.1708    1.1321 H   0  0  0  0  0  0  0  0  0  0  0  0
    2.6795   -0.1006    1.4847 H   0  0  0  0  0  0  0  0  0  0  0  0
    3.9580    0.2785   -0.5311 H   0  0  0  0  0  0  0  0  0  0  0  0
    3.0098    1.8660   -0.6181 H   0  0  0  0  0  0  0  0  0  0  0  0
    2.4577   -1.7112   -0.3965 H   0  0  0  0  0  0  0  0  0  0  0  0
  1  2  1  0
  2  3  1  0
  2  4  1  0
  4  5  1  0
  5  6  1  0
  6  7  1  0
  7  8  1  0
  8  9  1  0
  9  5  1  0
  9  6  1  0
  1 10  1  0
  1 11  1  0
  1 12  1  0
  2 13  1  0
  3 14  1  0
  3 15  1  0
  3 16  1  0
  5 17  1  0
  6 18  1  0
  7 19  1  0
  7 20  1  0
  9 21  1  0
M  END
