
     RDKit          3D

 17 17  0  0  0  0  0  0  0  0999 V2000
   -1.5521   -0.9036    0.2567 C   0  0  0  0  0  0  0  0  0  0  0  0
   -0.9671    0.4588    0.4826 C   0  0  0  0  0  0  0  0  0  0  0  0
   -1.5837    1.4019   -0.4487 C   0  0  0  0  0  0  0  0  0  0  0  0
   -2.6972    1.1834   -0.8822 O   0  0  0  0  0  0  0  0  0  0  0  0
    0.5295    0.4859    0.4067 C   0  0  0  0  0  0  0  0  0  0  0  0
    1.0603   -0.4276    1.4534 O   0  0  0  0  0  0  0  0  0  0  0  0
    1.3621   -0.5984    0.0176 C   0  0  0  0  0  0  0  0  0  0  0  0
    2.8056   -0.3371   -0.2191 C   0  0  0  0  0  0  0  0  0  0  0  0
    3.4528   -1.1484   -0.8580 O   0  0  0  0  0  0  0  0  0  0  0  0
   -2.6348   -0.8435    0.5403 H   0  0  0  0  0  0  0  0  0  0  0  0
   -1.1158   -1.6879    0.8877 H   0  0  0  0  0  0  0  0  0  0  0  0
   -1.5094   -1.1741   -0.8123 H   0  0  0  0  0  0  0  0  0  0  0  0
   -1.2482    0.7669    1.5170 H   0  0  0  0  0  0  0  0  0  0  0  0
   -1.0910    2.3015   -0.7785 H   0  0  0  0  0  0  0  0  0  0  0  0
    0.9587    1.5078    0.4836 H   0  0  0  0  0  0  0  0  0  0  0  0
    0.9143   -1.5213   -0.3920 H   0  0  0  0  0  0  0  0  0  0  0  0
    3.3159    0.5357    0.1449 H   0  0  0  0  0  0  0  0  0  0  0  0
  1  2  1  0
  2  3  1  0
  3  4  2  0
  2  5  1  0
  5  6  1  0
  6  7  1  0
  7  8  1  0
  8  9  2  0
  7  5  1  0
  1 10  1  0
  1 11  1  0
  1 12  1  0
  2 13  1  0
  3 14  1  0
  5 15  1  0
  7 16  1  0
  8 17  1  0
M  END
