
     RDKit          3D

 27 27  0  0  0  0  0  0  0  0999 V2000
    1.6736    0.5398   -1.3386 C   0  0  0  0  0  0  0  0  0  0  0  0
    1.3554   -0.2219   -0.1107 C   0  0  0  0  0  0  0  0  0  0  0  0
    2.2340    0.2046    1.0766 C   0  0  0  0  0  0  0  0  0  0  0  0
   -0.0821   -0.3231    0.2888 C   0  0  0  0  0  0  0  0  0  0  0  0
   -0.2103   -1.1572    1.5858 C   0  0  0  0  0  0  0  0  0  0  0  0
   -1.0764    0.7351    0.1844 C   0  0  0  0  0  0  0  0  0  0  0  0
   -0.9323    2.0115   -0.5438 C   0  0  0  0  0  0  0  0  0  0  0  0
   -1.1600   -0.5261   -0.6784 C   0  0  0  0  0  0  0  0  0  0  0  0
   -2.2804   -1.5133   -0.4256 C   0  0  0  0  0  0  0  0  0  0  0  0
    2.4513    0.0322   -1.9866 H   0  0  0  0  0  0  0  0  0  0  0  0
    0.8611    0.7822   -2.0044 H   0  0  0  0  0  0  0  0  0  0  0  0
    2.1673    1.5074   -1.0251 H   0  0  0  0  0  0  0  0  0  0  0  0
    1.7153   -1.2754   -0.3174 H   0  0  0  0  0  0  0  0  0  0  0  0
    2.2353   -0.6297    1.7760 H   0  0  0  0  0  0  0  0  0  0  0  0
    3.2639    0.4209    0.7262 H   0  0  0  0  0  0  0  0  0  0  0  0
    1.8516    1.1403    1.5292 H   0  0  0  0  0  0  0  0  0  0  0  0
    0.3784   -2.0669    1.4047 H   0  0  0  0  0  0  0  0  0  0  0  0
    0.2890   -0.5361    2.3860 H   0  0  0  0  0  0  0  0  0  0  0  0
   -1.2483   -1.3609    1.8273 H   0  0  0  0  0  0  0  0  0  0  0  0
   -1.9200    0.7623    0.9393 H   0  0  0  0  0  0  0  0  0  0  0  0
    0.0440    2.4859   -0.5348 H   0  0  0  0  0  0  0  0  0  0  0  0
   -1.6455    2.8010   -0.1747 H   0  0  0  0  0  0  0  0  0  0  0  0
   -1.2376    1.8604   -1.6130 H   0  0  0  0  0  0  0  0  0  0  0  0
   -0.9951   -0.3767   -1.7856 H   0  0  0  0  0  0  0  0  0  0  0  0
   -1.8736   -2.5451   -0.4810 H   0  0  0  0  0  0  0  0  0  0  0  0
   -3.0420   -1.4333   -1.2288 H   0  0  0  0  0  0  0  0  0  0  0  0
   -2.8166   -1.3180    0.5241 H   0  0  0  0  0  0  0  0  0  0  0  0
  1  2  1  0
  2  3  1  0
  2  4  1  0
  4  5  1  0
  4  6  1  0
  6  7  1  0
  6  8  1  0
  8  9  1  0
  8  4  1  0
  1 10  1  0
  1 11  1  0
  1 12  1  0
  2 13  1  0
  3 14  1  0
  3 15  1  0
  3 16  1  0
  5 17  1  0
  5 18  1  0
  5 19  1  0
  6 20  1  0
  7 21  1  0
  7 22  1  0
  7 23  1  0
  8 24  1  0
  9 25  1  0
  9 26  1  0
  9 27  1  0
M  END
