
     RDKit          3D

 23 23  0  0  0  0  0  0  0  0999 V2000
    2.0455   -0.8807    0.7803 C   0  0  0  0  0  0  0  0  0  0  0  0
    1.2254    0.0448   -0.0754 C   0  0  0  0  0  0  0  0  0  0  0  0
    2.0761    1.2112   -0.5725 C   0  0  0  0  0  0  0  0  0  0  0  0
    0.1143    0.5537    0.5585 O   0  0  0  0  0  0  0  0  0  0  0  0
   -1.0679    0.2099   -0.0639 C   0  0  0  0  0  0  0  0  0  0  0  0
   -1.3063    0.6275   -1.4938 C   0  0  0  0  0  0  0  0  0  0  0  0
   -2.3130    0.1946    0.7842 C   0  0  0  0  0  0  0  0  0  0  0  0
   -1.6684   -1.0967    0.4280 C   0  0  0  0  0  0  0  0  0  0  0  0
   -1.0632   -1.7676    1.4750 O   0  0  0  0  0  0  0  0  0  0  0  0
    3.0470   -0.9728    0.2699 H   0  0  0  0  0  0  0  0  0  0  0  0
    1.5914   -1.8864    0.7674 H   0  0  0  0  0  0  0  0  0  0  0  0
    2.2326   -0.5000    1.7909 H   0  0  0  0  0  0  0  0  0  0  0  0
    0.8845   -0.5361   -0.9606 H   0  0  0  0  0  0  0  0  0  0  0  0
    2.1116    2.0178    0.1928 H   0  0  0  0  0  0  0  0  0  0  0  0
    3.1028    0.8956   -0.8034 H   0  0  0  0  0  0  0  0  0  0  0  0
    1.6021    1.6519   -1.4725 H   0  0  0  0  0  0  0  0  0  0  0  0
   -0.9980   -0.1671   -2.2194 H   0  0  0  0  0  0  0  0  0  0  0  0
   -2.3889    0.8058   -1.7094 H   0  0  0  0  0  0  0  0  0  0  0  0
   -0.7894    1.5713   -1.6603 H   0  0  0  0  0  0  0  0  0  0  0  0
   -2.1995    0.5756    1.7973 H   0  0  0  0  0  0  0  0  0  0  0  0
   -3.2981    0.3817    0.3009 H   0  0  0  0  0  0  0  0  0  0  0  0
   -2.0387   -1.7349   -0.3812 H   0  0  0  0  0  0  0  0  0  0  0  0
   -0.9017   -1.1994    2.2671 H   0  0  0  0  0  0  0  0  0  0  0  0
  1  2  1  0
  2  3  1  0
  2  4  1  0
  4  5  1  0
  5  6  1  0
  5  7  1  0
  7  8  1  0
  8  9  1  0
  8  5  1  0
  1 10  1  0
  1 11  1  0
  1 12  1  0
  2 13  1  0
  3 14  1  0
  3 15  1  0
  3 16  1  0
  6 17  1  0
  6 18  1  0
  6 19  1  0
  7 20  1  0
  7 21  1  0
  8 22  1  0
  9 23  1  0
M  END
