
     RDKit          3D

 23 22  0  0  0  0  0  0  0  0999 V2000
   -2.6500    0.8149    1.2233 C   0  0  0  0  0  0  0  0  0  0  0  0
   -1.7497    0.4314    0.0923 C   0  0  0  0  0  0  0  0  0  0  0  0
   -2.4549   -0.6708   -0.6944 C   0  0  0  0  0  0  0  0  0  0  0  0
   -0.4929    0.0420    0.4737 O   0  0  0  0  0  0  0  0  0  0  0  0
    0.4733    0.8110   -0.1408 C   0  0  0  0  0  0  0  0  0  0  0  0
    1.8740    0.4592    0.2213 C   0  0  0  0  0  0  0  0  0  0  0  0
    2.2563   -0.9616   -0.1243 C   0  0  0  0  0  0  0  0  0  0  0  0
    3.6588   -1.1872    0.2804 C   0  0  0  0  0  0  0  0  0  0  0  0
    3.9386   -1.3990    1.4331 O   0  0  0  0  0  0  0  0  0  0  0  0
   -2.1567    0.7868    2.2156 H   0  0  0  0  0  0  0  0  0  0  0  0
   -3.0202    1.8533    1.0892 H   0  0  0  0  0  0  0  0  0  0  0  0
   -3.5502    0.1649    1.3176 H   0  0  0  0  0  0  0  0  0  0  0  0
   -1.6718    1.2926   -0.6336 H   0  0  0  0  0  0  0  0  0  0  0  0
   -3.5055   -0.3834   -0.8992 H   0  0  0  0  0  0  0  0  0  0  0  0
   -1.9713   -0.8269   -1.6794 H   0  0  0  0  0  0  0  0  0  0  0  0
   -2.4184   -1.5870   -0.0796 H   0  0  0  0  0  0  0  0  0  0  0  0
    0.3186    1.8740    0.1399 H   0  0  0  0  0  0  0  0  0  0  0  0
    0.3267    0.6903   -1.2403 H   0  0  0  0  0  0  0  0  0  0  0  0
    2.5416    1.1121   -0.3974 H   0  0  0  0  0  0  0  0  0  0  0  0
    2.0911    0.6726    1.2669 H   0  0  0  0  0  0  0  0  0  0  0  0
    1.6230   -1.6573    0.5029 H   0  0  0  0  0  0  0  0  0  0  0  0
    2.1058   -1.1704   -1.2013 H   0  0  0  0  0  0  0  0  0  0  0  0
    4.4337   -1.1616   -0.4614 H   0  0  0  0  0  0  0  0  0  0  0  0
  1  2  1  0
  2  3  1  0
  2  4  1  0
  4  5  1  0
  5  6  1  0
  6  7  1  0
  7  8  1  0
  8  9  2  0
  1 10  1  0
  1 11  1  0
  1 12  1  0
  2 13  1  0
  3 14  1  0
  3 15  1  0
  3 16  1  0
  5 17  1  0
  5 18  1  0
  6 19  1  0
  6 20  1  0
  7 21  1  0
  7 22  1  0
  8 23  1  0
M  END
