
     RDKit          3D

 17 17  0  0  0  0  0  0  0  0999 V2000
   -0.6136    1.2316   -1.0905 C   0  0  0  0  0  0  0  0  0  0  0  0
    0.0846    0.0121   -0.4908 C   0  0  0  0  0  0  0  0  0  0  0  0
    1.5353    0.2816   -0.3792 C   0  0  0  0  0  0  0  0  0  0  0  0
    2.0029    1.3876   -0.7530 O   0  0  0  0  0  0  0  0  0  0  0  0
    2.4305   -0.7096    0.1551 C   0  0  0  0  0  0  0  0  0  0  0  0
    1.9855   -1.8414    0.5418 O   0  0  0  0  0  0  0  0  0  0  0  0
   -0.5216   -0.3649    0.8367 C   0  0  0  0  0  0  0  0  0  0  0  0
   -1.9480   -0.7202    0.8659 C   0  0  0  0  0  0  0  0  0  0  0  0
   -1.4548    0.4854    1.4202 O   0  0  0  0  0  0  0  0  0  0  0  0
    0.1256    1.6458   -1.8345 H   0  0  0  0  0  0  0  0  0  0  0  0
   -1.5064    0.8754   -1.6182 H   0  0  0  0  0  0  0  0  0  0  0  0
   -0.8257    1.9740   -0.3095 H   0  0  0  0  0  0  0  0  0  0  0  0
   -0.0560   -0.8152   -1.2153 H   0  0  0  0  0  0  0  0  0  0  0  0
    3.4889   -0.5741    0.2619 H   0  0  0  0  0  0  0  0  0  0  0  0
    0.1428   -0.8480    1.5775 H   0  0  0  0  0  0  0  0  0  0  0  0
   -2.5878   -0.5067   -0.0290 H   0  0  0  0  0  0  0  0  0  0  0  0
   -2.2822   -1.5133    1.5682 H   0  0  0  0  0  0  0  0  0  0  0  0
  1  2  1  0
  2  3  1  0
  3  4  2  0
  3  5  1  0
  5  6  2  0
  2  7  1  0
  7  8  1  0
  8  9  1  0
  9  7  1  0
  1 10  1  0
  1 11  1  0
  1 12  1  0
  2 13  1  0
  5 14  1  0
  7 15  1  0
  8 16  1  0
  8 17  1  0
M  END
