
     RDKit          3D

 23 23  0  0  0  0  0  0  0  0999 V2000
   -1.6685   -1.2165    0.5941 C   0  0  0  0  0  0  0  0  0  0  0  0
   -1.2299   -0.3186   -0.5254 C   0  0  0  0  0  0  0  0  0  0  0  0
   -2.0274    0.9631   -0.4266 C   0  0  0  0  0  0  0  0  0  0  0  0
   -1.7552    1.5331    0.8128 O   0  0  0  0  0  0  0  0  0  0  0  0
    0.2214    0.0120   -0.5188 C   0  0  0  0  0  0  0  0  0  0  0  0
    0.7689    0.7023    0.6542 C   0  0  0  0  0  0  0  0  0  0  0  0
    1.2180   -0.7093    0.2891 C   0  0  0  0  0  0  0  0  0  0  0  0
    2.6499   -0.7819   -0.1807 C   0  0  0  0  0  0  0  0  0  0  0  0
    3.2271    0.4873   -0.3105 O   0  0  0  0  0  0  0  0  0  0  0  0
   -2.7573   -1.4005    0.4544 H   0  0  0  0  0  0  0  0  0  0  0  0
   -1.1715   -2.1926    0.5767 H   0  0  0  0  0  0  0  0  0  0  0  0
   -1.5868   -0.7068    1.5906 H   0  0  0  0  0  0  0  0  0  0  0  0
   -1.5602   -0.8213   -1.4768 H   0  0  0  0  0  0  0  0  0  0  0  0
   -3.1200    0.7841   -0.5776 H   0  0  0  0  0  0  0  0  0  0  0  0
   -1.6543    1.6564   -1.2304 H   0  0  0  0  0  0  0  0  0  0  0  0
   -1.6452    2.5169    0.7476 H   0  0  0  0  0  0  0  0  0  0  0  0
    0.5891    0.4033   -1.5126 H   0  0  0  0  0  0  0  0  0  0  0  0
    0.2775    0.7367    1.6409 H   0  0  0  0  0  0  0  0  0  0  0  0
    1.4855    1.5405    0.5083 H   0  0  0  0  0  0  0  0  0  0  0  0
    0.8951   -1.5565    0.8953 H   0  0  0  0  0  0  0  0  0  0  0  0
    3.2716   -1.3602    0.5314 H   0  0  0  0  0  0  0  0  0  0  0  0
    2.7464   -1.2730   -1.1764 H   0  0  0  0  0  0  0  0  0  0  0  0
    2.8259    1.0017   -1.0586 H   0  0  0  0  0  0  0  0  0  0  0  0
  1  2  1  0
  2  3  1  0
  3  4  1  0
  2  5  1  0
  5  6  1  0
  6  7  1  0
  7  8  1  0
  8  9  1  0
  7  5  1  0
  1 10  1  0
  1 11  1  0
  1 12  1  0
  2 13  1  0
  3 14  1  0
  3 15  1  0
  4 16  1  0
  5 17  1  0
  6 18  1  0
  6 19  1  0
  7 20  1  0
  8 21  1  0
  8 22  1  0
  9 23  1  0
M  END
