
     RDKit          3D

 19 18  0  0  0  0  0  0  0  0999 V2000
   -0.4761   -0.2576   -1.5782 C   0  0  0  0  0  0  0  0  0  0  0  0
   -0.3995   -0.7247   -0.1473 C   0  0  0  0  0  0  0  0  0  0  0  0
   -1.1277    0.2301    0.7861 C   0  0  0  0  0  0  0  0  0  0  0  0
   -2.5592    0.3051    0.3821 C   0  0  0  0  0  0  0  0  0  0  0  0
   -3.2965    1.0308    1.0261 O   0  0  0  0  0  0  0  0  0  0  0  0
    1.0656   -0.7167    0.2971 C   0  0  0  0  0  0  0  0  0  0  0  0
    1.5079    0.6269    0.1643 O   0  0  0  0  0  0  0  0  0  0  0  0
    2.7935    1.0278    0.4758 C   0  0  0  0  0  0  0  0  0  0  0  0
    3.5906    0.1532    0.8925 O   0  0  0  0  0  0  0  0  0  0  0  0
   -1.4386    0.2349   -1.7393 H   0  0  0  0  0  0  0  0  0  0  0  0
    0.3124    0.4939   -1.8037 H   0  0  0  0  0  0  0  0  0  0  0  0
   -0.3374   -1.1680   -2.2292 H   0  0  0  0  0  0  0  0  0  0  0  0
   -0.7671   -1.7604   -0.0348 H   0  0  0  0  0  0  0  0  0  0  0  0
   -1.0614   -0.1100    1.8383 H   0  0  0  0  0  0  0  0  0  0  0  0
   -0.7203    1.2374    0.7368 H   0  0  0  0  0  0  0  0  0  0  0  0
   -2.9359   -0.2560   -0.4446 H   0  0  0  0  0  0  0  0  0  0  0  0
    1.1237   -1.0173    1.3669 H   0  0  0  0  0  0  0  0  0  0  0  0
    1.6726   -1.4006   -0.3363 H   0  0  0  0  0  0  0  0  0  0  0  0
    3.0536    2.0715    0.3473 H   0  0  0  0  0  0  0  0  0  0  0  0
  1  2  1  0
  2  3  1  0
  3  4  1  0
  4  5  2  0
  2  6  1  0
  6  7  1  0
  7  8  1  0
  8  9  2  0
  1 10  1  0
  1 11  1  0
  1 12  1  0
  2 13  1  0
  3 14  1  0
  3 15  1  0
  4 16  1  0
  6 17  1  0
  6 18  1  0
  8 19  1  0
M  END
