
     RDKit          3D

 23 24  0  0  0  0  0  0  0  0999 V2000
   -2.0429   -1.1396    0.1615 C   0  0  0  0  0  0  0  0  0  0  0  0
   -1.3591    0.1814    0.3715 C   0  0  0  0  0  0  0  0  0  0  0  0
   -1.8682    1.1719   -0.6402 C   0  0  0  0  0  0  0  0  0  0  0  0
    0.1367    0.0730    0.3984 C   0  0  0  0  0  0  0  0  0  0  0  0
    0.9338    1.3179    0.6007 C   0  0  0  0  0  0  0  0  0  0  0  0
    1.0109    0.5157   -0.6681 C   0  0  0  0  0  0  0  0  0  0  0  0
    2.1892   -0.4540   -0.6991 C   0  0  0  0  0  0  0  0  0  0  0  0
    1.9636   -1.1975    0.6052 C   0  0  0  0  0  0  0  0  0  0  0  0
    0.6168   -1.1418    0.8533 O   0  0  0  0  0  0  0  0  0  0  0  0
   -2.9680   -1.2202    0.7927 H   0  0  0  0  0  0  0  0  0  0  0  0
   -2.3530   -1.3293   -0.8708 H   0  0  0  0  0  0  0  0  0  0  0  0
   -1.3556   -1.9708    0.4778 H   0  0  0  0  0  0  0  0  0  0  0  0
   -1.6864    0.5521    1.3779 H   0  0  0  0  0  0  0  0  0  0  0  0
   -1.6524    0.8261   -1.6727 H   0  0  0  0  0  0  0  0  0  0  0  0
   -2.9777    1.1912   -0.5401 H   0  0  0  0  0  0  0  0  0  0  0  0
   -1.5234    2.2022   -0.4494 H   0  0  0  0  0  0  0  0  0  0  0  0
    1.7420    1.2196    1.3668 H   0  0  0  0  0  0  0  0  0  0  0  0
    0.4054    2.2794    0.4901 H   0  0  0  0  0  0  0  0  0  0  0  0
    0.7169    0.9242   -1.6294 H   0  0  0  0  0  0  0  0  0  0  0  0
    3.1489    0.0863   -0.7020 H   0  0  0  0  0  0  0  0  0  0  0  0
    2.0927   -1.1222   -1.5612 H   0  0  0  0  0  0  0  0  0  0  0  0
    2.5208   -0.7112    1.4298 H   0  0  0  0  0  0  0  0  0  0  0  0
    2.3089   -2.2544    0.5073 H   0  0  0  0  0  0  0  0  0  0  0  0
  1  2  1  0
  2  3  1  0
  2  4  1  0
  4  5  1  0
  5  6  1  0
  6  7  1  0
  7  8  1  0
  8  9  1  0
  6  4  1  0
  9  4  1  0
  1 10  1  0
  1 11  1  0
  1 12  1  0
  2 13  1  0
  3 14  1  0
  3 15  1  0
  3 16  1  0
  5 17  1  0
  5 18  1  0
  6 19  1  0
  7 20  1  0
  7 21  1  0
  8 22  1  0
  8 23  1  0
M  END
