
     RDKit          3D

 21 22  0  0  0  0  0  0  0  0999 V2000
   -1.6906    0.7983   -1.0419 C   0  0  0  0  0  0  0  0  0  0  0  0
   -0.7966    0.1789    0.0210 C   0  0  0  0  0  0  0  0  0  0  0  0
   -1.4869   -1.0633    0.5280 C   0  0  0  0  0  0  0  0  0  0  0  0
   -0.6724    1.1291    1.0317 O   0  0  0  0  0  0  0  0  0  0  0  0
    0.5432   -0.2169   -0.5368 C   0  0  0  0  0  0  0  0  0  0  0  0
    1.3895   -0.8288    0.5709 C   0  0  0  0  0  0  0  0  0  0  0  0
    2.3764    0.3218    0.3131 C   0  0  0  0  0  0  0  0  0  0  0  0
    2.8588    0.2984   -0.9943 O   0  0  0  0  0  0  0  0  0  0  0  0
    1.5622    0.8961   -0.5799 C   0  0  0  0  0  0  0  0  0  0  0  0
   -2.6321    1.0912   -0.5071 H   0  0  0  0  0  0  0  0  0  0  0  0
   -1.9834    0.0667   -1.8092 H   0  0  0  0  0  0  0  0  0  0  0  0
   -1.2705    1.7309   -1.4561 H   0  0  0  0  0  0  0  0  0  0  0  0
   -2.2941   -1.4157   -0.1374 H   0  0  0  0  0  0  0  0  0  0  0  0
   -1.8846   -0.8778    1.5649 H   0  0  0  0  0  0  0  0  0  0  0  0
   -0.7721   -1.9204    0.6210 H   0  0  0  0  0  0  0  0  0  0  0  0
   -0.9390    0.7335    1.9021 H   0  0  0  0  0  0  0  0  0  0  0  0
    0.4848   -0.8213   -1.4606 H   0  0  0  0  0  0  0  0  0  0  0  0
    0.9785   -0.6806    1.5971 H   0  0  0  0  0  0  0  0  0  0  0  0
    1.8021   -1.8222    0.3554 H   0  0  0  0  0  0  0  0  0  0  0  0
    3.0123    0.5976    1.1479 H   0  0  0  0  0  0  0  0  0  0  0  0
    1.4146    1.8046   -1.1296 H   0  0  0  0  0  0  0  0  0  0  0  0
  1  2  1  0
  2  3  1  0
  2  4  1  0
  2  5  1  0
  5  6  1  0
  6  7  1  0
  7  8  1  0
  8  9  1  0
  9  5  1  0
  9  7  1  0
  1 10  1  0
  1 11  1  0
  1 12  1  0
  3 13  1  0
  3 14  1  0
  3 15  1  0
  4 16  1  0
  5 17  1  0
  6 18  1  0
  6 19  1  0
  7 20  1  0
  9 21  1  0
M  END
