
     RDKit          3D

 19 19  0  0  0  0  0  0  0  0999 V2000
   -1.3675    1.1411   -0.2662 C   0  0  0  0  0  0  0  0  0  0  0  0
   -0.9917   -0.2800   -0.6179 C   0  0  0  0  0  0  0  0  0  0  0  0
   -1.9788   -1.2086    0.0081 C   0  0  0  0  0  0  0  0  0  0  0  0
   -3.0676   -1.3666   -0.5180 O   0  0  0  0  0  0  0  0  0  0  0  0
    0.3921   -0.6483   -0.2103 C   0  0  0  0  0  0  0  0  0  0  0  0
    0.8617   -0.6152    1.1810 C   0  0  0  0  0  0  0  0  0  0  0  0
    1.2405    0.5141    0.2732 C   0  0  0  0  0  0  0  0  0  0  0  0
    2.5832    0.5813   -0.3222 C   0  0  0  0  0  0  0  0  0  0  0  0
    3.2068   -0.4105   -0.5923 O   0  0  0  0  0  0  0  0  0  0  0  0
   -0.7586    1.8643   -0.8493 H   0  0  0  0  0  0  0  0  0  0  0  0
   -1.3795    1.3431    0.8070 H   0  0  0  0  0  0  0  0  0  0  0  0
   -2.4200    1.2795   -0.6549 H   0  0  0  0  0  0  0  0  0  0  0  0
   -1.0557   -0.3481   -1.7349 H   0  0  0  0  0  0  0  0  0  0  0  0
   -1.7465   -1.7471    0.9242 H   0  0  0  0  0  0  0  0  0  0  0  0
    0.8836   -1.4072   -0.8771 H   0  0  0  0  0  0  0  0  0  0  0  0
    0.1523   -0.4309    2.0078 H   0  0  0  0  0  0  0  0  0  0  0  0
    1.7042   -1.2691    1.4664 H   0  0  0  0  0  0  0  0  0  0  0  0
    0.7208    1.4653    0.4976 H   0  0  0  0  0  0  0  0  0  0  0  0
    3.0206    1.5429   -0.5221 H   0  0  0  0  0  0  0  0  0  0  0  0
  1  2  1  0
  2  3  1  0
  3  4  2  0
  2  5  1  0
  5  6  1  0
  6  7  1  0
  7  8  1  0
  8  9  2  0
  7  5  1  0
  1 10  1  0
  1 11  1  0
  1 12  1  0
  2 13  1  0
  3 14  1  0
  5 15  1  0
  6 16  1  0
  6 17  1  0
  7 18  1  0
  8 19  1  0
M  END
