
     RDKit          3D

 26 25  0  0  0  0  0  0  0  0999 V2000
    1.9876    0.8856    1.0013 C   0  0  0  0  0  0  0  0  0  0  0  0
    1.8719   -0.3808    0.1834 C   0  0  0  0  0  0  0  0  0  0  0  0
    3.0569   -0.5754   -0.7364 C   0  0  0  0  0  0  0  0  0  0  0  0
    0.5573   -0.3867   -0.6114 C   0  0  0  0  0  0  0  0  0  0  0  0
   -0.5504   -0.3095    0.3959 C   0  0  0  0  0  0  0  0  0  0  0  0
   -1.9199   -0.3043   -0.1982 C   0  0  0  0  0  0  0  0  0  0  0  0
   -2.1871    0.8312   -1.1213 C   0  0  0  0  0  0  0  0  0  0  0  0
   -2.9102   -0.2182    0.9603 C   0  0  0  0  0  0  0  0  0  0  0  0
    1.2929    1.6562    0.6617 H   0  0  0  0  0  0  0  0  0  0  0  0
    3.0364    1.2713    0.8805 H   0  0  0  0  0  0  0  0  0  0  0  0
    1.8589    0.6896    2.0983 H   0  0  0  0  0  0  0  0  0  0  0  0
    1.8886   -1.2259    0.9023 H   0  0  0  0  0  0  0  0  0  0  0  0
    3.7717   -1.3415   -0.3509 H   0  0  0  0  0  0  0  0  0  0  0  0
    2.7717   -0.8857   -1.7531 H   0  0  0  0  0  0  0  0  0  0  0  0
    3.6116    0.3778   -0.7770 H   0  0  0  0  0  0  0  0  0  0  0  0
    0.5407    0.4593   -1.3241 H   0  0  0  0  0  0  0  0  0  0  0  0
    0.5422   -1.3139   -1.2148 H   0  0  0  0  0  0  0  0  0  0  0  0
   -0.3858    0.5605    1.0399 H   0  0  0  0  0  0  0  0  0  0  0  0
   -0.4728   -1.2371    1.0283 H   0  0  0  0  0  0  0  0  0  0  0  0
   -2.1253   -1.2582   -0.7209 H   0  0  0  0  0  0  0  0  0  0  0  0
   -1.8145    1.7993   -0.7850 H   0  0  0  0  0  0  0  0  0  0  0  0
   -3.3068    0.9386   -1.2028 H   0  0  0  0  0  0  0  0  0  0  0  0
   -1.8578    0.6040   -2.1709 H   0  0  0  0  0  0  0  0  0  0  0  0
   -3.9112    0.0731    0.6335 H   0  0  0  0  0  0  0  0  0  0  0  0
   -2.4552    0.5009    1.6928 H   0  0  0  0  0  0  0  0  0  0  0  0
   -2.8915   -1.2101    1.4884 H   0  0  0  0  0  0  0  0  0  0  0  0
  1  2  1  0
  2  3  1  0
  2  4  1  0
  4  5  1  0
  5  6  1  0
  6  7  1  0
  6  8  1  0
  1  9  1  0
  1 10  1  0
  1 11  1  0
  2 12  1  0
  3 13  1  0
  3 14  1  0
  3 15  1  0
  4 16  1  0
  4 17  1  0
  5 18  1  0
  5 19  1  0
  6 20  1  0
  7 21  1  0
  7 22  1  0
  7 23  1  0
  8 24  1  0
  8 25  1  0
  8 26  1  0
M  END
