
     RDKit          3D

 18 18  0  0  0  0  0  0  0  0999 V2000
   -1.9836    0.8733    0.5611 C   0  0  0  0  0  0  0  0  0  0  0  0
   -0.5874    0.2982    0.5299 C   0  0  0  0  0  0  0  0  0  0  0  0
   -0.7467   -1.2179    0.4695 C   0  0  0  0  0  0  0  0  0  0  0  0
    0.1244    0.7537   -0.6931 C   0  0  0  0  0  0  0  0  0  0  0  0
   -0.4910    1.4828   -1.4486 O   0  0  0  0  0  0  0  0  0  0  0  0
    1.5040    0.3713   -1.0209 C   0  0  0  0  0  0  0  0  0  0  0  0
    2.4141   -0.2968   -0.1448 C   0  0  0  0  0  0  0  0  0  0  0  0
    1.5918   -1.1235   -1.0187 O   0  0  0  0  0  0  0  0  0  0  0  0
   -1.8794    1.9646    0.7241 H   0  0  0  0  0  0  0  0  0  0  0  0
   -2.6377    0.3790    1.2819 H   0  0  0  0  0  0  0  0  0  0  0  0
   -2.4610    0.7180   -0.4509 H   0  0  0  0  0  0  0  0  0  0  0  0
   -0.0633    0.6071    1.4533 H   0  0  0  0  0  0  0  0  0  0  0  0
   -0.9385   -1.4781   -0.5917 H   0  0  0  0  0  0  0  0  0  0  0  0
    0.1721   -1.7128    0.7697 H   0  0  0  0  0  0  0  0  0  0  0  0
   -1.6359   -1.5074    1.0635 H   0  0  0  0  0  0  0  0  0  0  0  0
    1.8976    0.7876   -1.9650 H   0  0  0  0  0  0  0  0  0  0  0  0
    3.4734   -0.3811   -0.4424 H   0  0  0  0  0  0  0  0  0  0  0  0
    2.2471   -0.5182    0.9232 H   0  0  0  0  0  0  0  0  0  0  0  0
  1  2  1  0
  2  3  1  0
  2  4  1  0
  4  5  2  0
  4  6  1  0
  6  7  1  0
  7  8  1  0
  8  6  1  0
  1  9  1  0
  1 10  1  0
  1 11  1  0
  2 12  1  0
  3 13  1  0
  3 14  1  0
  3 15  1  0
  6 16  1  0
  7 17  1  0
  7 18  1  0
M  END
