
     RDKit          3D

 19 18  0  0  0  0  0  0  0  0999 V2000
   -1.6050    1.1454   -0.0190 C   0  0  0  0  0  0  0  0  0  0  0  0
   -0.8466   -0.1685   -0.1576 C   0  0  0  0  0  0  0  0  0  0  0  0
   -0.9540   -0.9905    1.1051 C   0  0  0  0  0  0  0  0  0  0  0  0
    0.6244    0.1641   -0.4470 C   0  0  0  0  0  0  0  0  0  0  0  0
    0.6432    0.9305   -1.6931 C   0  0  0  0  0  0  0  0  0  0  0  0
    1.2989    0.6299   -2.6664 O   0  0  0  0  0  0  0  0  0  0  0  0
    1.4145   -0.9641   -0.4156 O   0  0  0  0  0  0  0  0  0  0  0  0
    2.4388   -1.1188    0.5014 C   0  0  0  0  0  0  0  0  0  0  0  0
    2.6051   -0.1668    1.3051 O   0  0  0  0  0  0  0  0  0  0  0  0
   -0.9927    1.8088    0.5970 H   0  0  0  0  0  0  0  0  0  0  0  0
   -2.5263    0.9038    0.5544 H   0  0  0  0  0  0  0  0  0  0  0  0
   -1.8567    1.5647   -1.0120 H   0  0  0  0  0  0  0  0  0  0  0  0
   -1.2881   -0.7040   -1.0228 H   0  0  0  0  0  0  0  0  0  0  0  0
    0.0428   -1.2420    1.5232 H   0  0  0  0  0  0  0  0  0  0  0  0
   -1.6108   -0.4989    1.8483 H   0  0  0  0  0  0  0  0  0  0  0  0
   -1.4431   -1.9692    0.8670 H   0  0  0  0  0  0  0  0  0  0  0  0
    0.9701    0.8631    0.3658 H   0  0  0  0  0  0  0  0  0  0  0  0
    0.0348    1.8198   -1.7495 H   0  0  0  0  0  0  0  0  0  0  0  0
    3.0507   -2.0075    0.5157 H   0  0  0  0  0  0  0  0  0  0  0  0
  1  2  1  0
  2  3  1  0
  2  4  1  0
  4  5  1  0
  5  6  2  0
  4  7  1  0
  7  8  1  0
  8  9  2  0
  1 10  1  0
  1 11  1  0
  1 12  1  0
  2 13  1  0
  3 14  1  0
  3 15  1  0
  3 16  1  0
  4 17  1  0
  5 18  1  0
  8 19  1  0
M  END
