
     RDKit          3D

 22 22  0  0  0  0  0  0  0  0999 V2000
    1.6441    1.2073    0.3417 C   0  0  0  0  0  0  0  0  0  0  0  0
    0.8522    0.2406   -0.5523 C   0  0  0  0  0  0  0  0  0  0  0  0
    1.7621   -0.7790   -1.1247 C   0  0  0  0  0  0  0  0  0  0  0  0
   -0.2469   -0.2921    0.3073 C   0  0  0  0  0  0  0  0  0  0  0  0
    0.2668   -0.9656    1.4317 O   0  0  0  0  0  0  0  0  0  0  0  0
   -1.1341    0.8735    0.7464 C   0  0  0  0  0  0  0  0  0  0  0  0
   -2.3323    0.0777    0.2968 C   0  0  0  0  0  0  0  0  0  0  0  0
   -1.4015   -0.9395   -0.3557 C   0  0  0  0  0  0  0  0  0  0  0  0
    0.8960    1.8812    0.8180 H   0  0  0  0  0  0  0  0  0  0  0  0
    2.1000    0.5444    1.1300 H   0  0  0  0  0  0  0  0  0  0  0  0
    2.3953    1.7646   -0.2139 H   0  0  0  0  0  0  0  0  0  0  0  0
    0.3708    0.8410   -1.3684 H   0  0  0  0  0  0  0  0  0  0  0  0
    2.7929   -0.6626   -0.6788 H   0  0  0  0  0  0  0  0  0  0  0  0
    1.9252   -0.5536   -2.2199 H   0  0  0  0  0  0  0  0  0  0  0  0
    1.4270   -1.8121   -1.0760 H   0  0  0  0  0  0  0  0  0  0  0  0
   -0.2641   -1.7805    1.6256 H   0  0  0  0  0  0  0  0  0  0  0  0
   -1.0385    1.7794    0.1045 H   0  0  0  0  0  0  0  0  0  0  0  0
   -1.0522    1.0826    1.8166 H   0  0  0  0  0  0  0  0  0  0  0  0
   -3.0056    0.6019   -0.4215 H   0  0  0  0  0  0  0  0  0  0  0  0
   -2.8987   -0.2791    1.1544 H   0  0  0  0  0  0  0  0  0  0  0  0
   -1.6554   -1.9470    0.0716 H   0  0  0  0  0  0  0  0  0  0  0  0
   -1.4031   -0.8830   -1.4505 H   0  0  0  0  0  0  0  0  0  0  0  0
  1  2  1  0
  2  3  1  0
  2  4  1  0
  4  5  1  0
  4  6  1  0
  6  7  1  0
  7  8  1  0
  8  4  1  0
  1  9  1  0
  1 10  1  0
  1 11  1  0
  2 12  1  0
  3 13  1  0
  3 14  1  0
  3 15  1  0
  5 16  1  0
  6 17  1  0
  6 18  1  0
  7 19  1  0
  7 20  1  0
  8 21  1  0
  8 22  1  0
M  END
