
     RDKit          3D

 22 21  0  0  0  0  0  0  0  0999 V2000
   -2.6110   -1.2137    0.1235 C   0  0  0  0  0  0  0  0  0  0  0  0
   -2.0839    0.1923   -0.0366 C   0  0  0  0  0  0  0  0  0  0  0  0
   -2.4852    0.7684   -1.3498 C   0  0  0  0  0  0  0  0  0  0  0  0
   -0.6278    0.2039    0.1485 C   0  0  0  0  0  0  0  0  0  0  0  0
    0.5799    0.2232    0.3211 C   0  0  0  0  0  0  0  0  0  0  0  0
    2.0318    0.2595    0.5371 C   0  0  0  0  0  0  0  0  0  0  0  0
    2.6404   -1.1126    0.4253 C   0  0  0  0  0  0  0  0  0  0  0  0
    2.5956    1.1802   -0.5385 C   0  0  0  0  0  0  0  0  0  0  0  0
   -2.8084   -1.4541    1.1993 H   0  0  0  0  0  0  0  0  0  0  0  0
   -3.5598   -1.3735   -0.4170 H   0  0  0  0  0  0  0  0  0  0  0  0
   -1.9013   -1.9848   -0.2354 H   0  0  0  0  0  0  0  0  0  0  0  0
   -2.5895    0.8006    0.7694 H   0  0  0  0  0  0  0  0  0  0  0  0
   -3.4131    0.2647   -1.7506 H   0  0  0  0  0  0  0  0  0  0  0  0
   -2.7978    1.8423   -1.2204 H   0  0  0  0  0  0  0  0  0  0  0  0
   -1.7033    0.7398   -2.1244 H   0  0  0  0  0  0  0  0  0  0  0  0
    2.2830    0.7221    1.5123 H   0  0  0  0  0  0  0  0  0  0  0  0
    2.0159   -1.7921    1.0527 H   0  0  0  0  0  0  0  0  0  0  0  0
    2.5548   -1.4485   -0.6206 H   0  0  0  0  0  0  0  0  0  0  0  0
    3.6816   -1.0828    0.7429 H   0  0  0  0  0  0  0  0  0  0  0  0
    3.6604    1.0123   -0.7269 H   0  0  0  0  0  0  0  0  0  0  0  0
    2.4924    2.2331   -0.1795 H   0  0  0  0  0  0  0  0  0  0  0  0
    2.0451    1.0198   -1.4911 H   0  0  0  0  0  0  0  0  0  0  0  0
  1  2  1  0
  2  3  1  0
  2  4  1  0
  4  5  3  0
  5  6  1  0
  6  7  1  0
  6  8  1  0
  1  9  1  0
  1 10  1  0
  1 11  1  0
  2 12  1  0
  3 13  1  0
  3 14  1  0
  3 15  1  0
  6 16  1  0
  7 17  1  0
  7 18  1  0
  7 19  1  0
  8 20  1  0
  8 21  1  0
  8 22  1  0
M  END
