
     RDKit          3D

 25 24  0  0  0  0  0  0  0  0999 V2000
   -1.1988   -1.2844    0.8485 C   0  0  0  0  0  0  0  0  0  0  0  0
   -0.9172   -0.0326    0.0524 C   0  0  0  0  0  0  0  0  0  0  0  0
   -2.1484    0.1513   -0.8569 C   0  0  0  0  0  0  0  0  0  0  0  0
   -0.8678    1.2105    0.9061 C   0  0  0  0  0  0  0  0  0  0  0  0
    0.2424   -0.1919   -0.8757 C   0  0  0  0  0  0  0  0  0  0  0  0
    0.4672    0.9708   -1.5804 O   0  0  0  0  0  0  0  0  0  0  0  0
    1.4850   -0.7346   -0.2979 C   0  0  0  0  0  0  0  0  0  0  0  0
    2.1146    0.0264    0.8065 C   0  0  0  0  0  0  0  0  0  0  0  0
    2.4775    1.3257    0.4502 O   0  0  0  0  0  0  0  0  0  0  0  0
   -0.6283   -2.1641    0.4882 H   0  0  0  0  0  0  0  0  0  0  0  0
   -0.8906   -1.0543    1.9056 H   0  0  0  0  0  0  0  0  0  0  0  0
   -2.2691   -1.5770    0.8318 H   0  0  0  0  0  0  0  0  0  0  0  0
   -2.3115    1.2161   -1.0946 H   0  0  0  0  0  0  0  0  0  0  0  0
   -3.0597   -0.2198   -0.3308 H   0  0  0  0  0  0  0  0  0  0  0  0
   -1.9911   -0.3836   -1.8081 H   0  0  0  0  0  0  0  0  0  0  0  0
   -0.5969    0.9954    1.9580 H   0  0  0  0  0  0  0  0  0  0  0  0
   -0.1966    1.9574    0.4261 H   0  0  0  0  0  0  0  0  0  0  0  0
   -1.8666    1.6936    0.9596 H   0  0  0  0  0  0  0  0  0  0  0  0
   -0.0971   -0.9440   -1.6541 H   0  0  0  0  0  0  0  0  0  0  0  0
    0.8660    0.7309   -2.4774 H   0  0  0  0  0  0  0  0  0  0  0  0
    1.3949   -1.8010    0.0342 H   0  0  0  0  0  0  0  0  0  0  0  0
    2.2397   -0.7821   -1.1386 H   0  0  0  0  0  0  0  0  0  0  0  0
    3.1002   -0.4886    1.0243 H   0  0  0  0  0  0  0  0  0  0  0  0
    1.5847    0.0353    1.7553 H   0  0  0  0  0  0  0  0  0  0  0  0
    3.0677    1.3446   -0.3324 H   0  0  0  0  0  0  0  0  0  0  0  0
  1  2  1  0
  2  3  1  0
  2  4  1  0
  2  5  1  0
  5  6  1  0
  5  7  1  0
  7  8  1  0
  8  9  1  0
  1 10  1  0
  1 11  1  0
  1 12  1  0
  3 13  1  0
  3 14  1  0
  3 15  1  0
  4 16  1  0
  4 17  1  0
  4 18  1  0
  5 19  1  0
  6 20  1  0
  7 21  1  0
  7 22  1  0
  8 23  1  0
  8 24  1  0
  9 25  1  0
M  END
