
     RDKit          3D

 21 21  0  0  0  0  0  0  0  0999 V2000
    2.3701   -0.6672    1.2853 C   0  0  0  0  0  0  0  0  0  0  0  0
    1.5850   -0.5640   -0.0270 C   0  0  0  0  0  0  0  0  0  0  0  0
    2.5952   -0.3514   -1.0916 C   0  0  0  0  0  0  0  0  0  0  0  0
    2.5895    0.6412   -1.7863 O   0  0  0  0  0  0  0  0  0  0  0  0
    0.7354    0.5073   -0.0135 O   0  0  0  0  0  0  0  0  0  0  0  0
   -0.5827    0.2002   -0.2848 C   0  0  0  0  0  0  0  0  0  0  0  0
   -1.4664    1.0931   -1.0571 C   0  0  0  0  0  0  0  0  0  0  0  0
   -1.7063    0.8547    0.4350 C   0  0  0  0  0  0  0  0  0  0  0  0
   -2.9267   -0.0041    0.7965 C   0  0  0  0  0  0  0  0  0  0  0  0
    2.7753   -1.6859    1.4266 H   0  0  0  0  0  0  0  0  0  0  0  0
    1.6819   -0.4060    2.1137 H   0  0  0  0  0  0  0  0  0  0  0  0
    3.2235    0.0377    1.2006 H   0  0  0  0  0  0  0  0  0  0  0  0
    1.0767   -1.5218   -0.2562 H   0  0  0  0  0  0  0  0  0  0  0  0
    3.3578   -1.0935   -1.2589 H   0  0  0  0  0  0  0  0  0  0  0  0
   -0.7313   -0.8996   -0.4735 H   0  0  0  0  0  0  0  0  0  0  0  0
   -2.2179    0.6491   -1.7613 H   0  0  0  0  0  0  0  0  0  0  0  0
   -1.2352    2.1340   -1.2908 H   0  0  0  0  0  0  0  0  0  0  0  0
   -1.5419    1.6928    1.1368 H   0  0  0  0  0  0  0  0  0  0  0  0
   -2.8539   -0.2604    1.8629 H   0  0  0  0  0  0  0  0  0  0  0  0
   -2.8664   -0.9039    0.1453 H   0  0  0  0  0  0  0  0  0  0  0  0
   -3.8618    0.5477    0.6099 H   0  0  0  0  0  0  0  0  0  0  0  0
  1  2  1  0
  2  3  1  0
  3  4  2  0
  2  5  1  0
  5  6  1  0
  6  7  1  0
  7  8  1  0
  8  9  1  0
  8  6  1  0
  1 10  1  0
  1 11  1  0
  1 12  1  0
  2 13  1  0
  3 14  1  0
  6 15  1  0
  7 16  1  0
  7 17  1  0
  8 18  1  0
  9 19  1  0
  9 20  1  0
  9 21  1  0
M  END
