
     RDKit          3D

 22 22  0  0  0  0  0  0  0  0999 V2000
    1.8644    0.5552   -1.4482 C   0  0  0  0  0  0  0  0  0  0  0  0
    1.1077    0.5020   -0.1542 C   0  0  0  0  0  0  0  0  0  0  0  0
    1.9315   -0.1022    0.9707 C   0  0  0  0  0  0  0  0  0  0  0  0
   -0.1279   -0.3593   -0.3132 C   0  0  0  0  0  0  0  0  0  0  0  0
   -0.8390   -0.3702    1.0175 C   0  0  0  0  0  0  0  0  0  0  0  0
   -2.2051    0.2019    0.6337 C   0  0  0  0  0  0  0  0  0  0  0  0
   -2.2659   -0.3190   -0.8050 C   0  0  0  0  0  0  0  0  0  0  0  0
   -1.0065    0.1321   -1.2542 O   0  0  0  0  0  0  0  0  0  0  0  0
    1.3151    1.2799   -2.1106 H   0  0  0  0  0  0  0  0  0  0  0  0
    2.8865    0.9459   -1.2993 H   0  0  0  0  0  0  0  0  0  0  0  0
    1.8880   -0.4020   -1.9844 H   0  0  0  0  0  0  0  0  0  0  0  0
    0.7742    1.5286    0.1038 H   0  0  0  0  0  0  0  0  0  0  0  0
    2.2020    0.6790    1.6916 H   0  0  0  0  0  0  0  0  0  0  0  0
    1.3625   -0.8878    1.5191 H   0  0  0  0  0  0  0  0  0  0  0  0
    2.7917   -0.6152    0.5055 H   0  0  0  0  0  0  0  0  0  0  0  0
    0.1411   -1.3917   -0.6190 H   0  0  0  0  0  0  0  0  0  0  0  0
   -0.3392    0.2278    1.7835 H   0  0  0  0  0  0  0  0  0  0  0  0
   -1.0165   -1.4224    1.3357 H   0  0  0  0  0  0  0  0  0  0  0  0
   -2.1334    1.3231    0.6196 H   0  0  0  0  0  0  0  0  0  0  0  0
   -3.0126   -0.1777    1.2530 H   0  0  0  0  0  0  0  0  0  0  0  0
   -3.0939    0.0904   -1.3692 H   0  0  0  0  0  0  0  0  0  0  0  0
   -2.2246   -1.4185   -0.7387 H   0  0  0  0  0  0  0  0  0  0  0  0
  1  2  1  0
  2  3  1  0
  2  4  1  0
  4  5  1  0
  5  6  1  0
  6  7  1  0
  7  8  1  0
  8  4  1  0
  1  9  1  0
  1 10  1  0
  1 11  1  0
  2 12  1  0
  3 13  1  0
  3 14  1  0
  3 15  1  0
  4 16  1  0
  5 17  1  0
  5 18  1  0
  6 19  1  0
  6 20  1  0
  7 21  1  0
  7 22  1  0
M  END
