
     RDKit          3D

 21 20  0  0  0  0  0  0  0  0999 V2000
   -1.0507   -1.5390   -0.3053 C   0  0  0  0  0  0  0  0  0  0  0  0
   -1.2123   -0.0619    0.0006 C   0  0  0  0  0  0  0  0  0  0  0  0
   -1.7567    0.6531   -1.2071 C   0  0  0  0  0  0  0  0  0  0  0  0
   -2.1870    0.0494    1.0108 O   0  0  0  0  0  0  0  0  0  0  0  0
    0.0337    0.5481    0.5799 C   0  0  0  0  0  0  0  0  0  0  0  0
    1.2029    0.4661   -0.3001 C   0  0  0  0  0  0  0  0  0  0  0  0
    1.1479    0.8824   -1.4378 O   0  0  0  0  0  0  0  0  0  0  0  0
    2.4586   -0.1406    0.2227 C   0  0  0  0  0  0  0  0  0  0  0  0
    3.4674   -0.1620   -0.7371 O   0  0  0  0  0  0  0  0  0  0  0  0
   -0.0648   -1.9301   -0.0286 H   0  0  0  0  0  0  0  0  0  0  0  0
   -1.2306   -1.7533   -1.3808 H   0  0  0  0  0  0  0  0  0  0  0  0
   -1.7839   -2.1706    0.2660 H   0  0  0  0  0  0  0  0  0  0  0  0
   -1.5619    1.7415   -1.0687 H   0  0  0  0  0  0  0  0  0  0  0  0
   -2.8680    0.5645   -1.1870 H   0  0  0  0  0  0  0  0  0  0  0  0
   -1.3451    0.2280   -2.1297 H   0  0  0  0  0  0  0  0  0  0  0  0
   -2.3124    1.0238    1.1630 H   0  0  0  0  0  0  0  0  0  0  0  0
    0.1575    0.1606    1.5852 H   0  0  0  0  0  0  0  0  0  0  0  0
   -0.2047    1.6461    0.7034 H   0  0  0  0  0  0  0  0  0  0  0  0
    2.8176    0.3835    1.1565 H   0  0  0  0  0  0  0  0  0  0  0  0
    2.1905   -1.1943    0.5413 H   0  0  0  0  0  0  0  0  0  0  0  0
    4.1018    0.6046   -0.6453 H   0  0  0  0  0  0  0  0  0  0  0  0
  1  2  1  0
  2  3  1  0
  2  4  1  0
  2  5  1  0
  5  6  1  0
  6  7  2  0
  6  8  1  0
  8  9  1  0
  1 10  1  0
  1 11  1  0
  1 12  1  0
  3 13  1  0
  3 14  1  0
  3 15  1  0
  4 16  1  0
  5 17  1  0
  5 18  1  0
  8 19  1  0
  8 20  1  0
  9 21  1  0
M  END
