
     RDKit          3D

 25 25  0  0  0  0  0  0  0  0999 V2000
    2.4929    1.1374    0.7210 C   0  0  0  0  0  0  0  0  0  0  0  0
    1.6861    0.3049   -0.2413 C   0  0  0  0  0  0  0  0  0  0  0  0
    2.5641   -0.8556   -0.7168 C   0  0  0  0  0  0  0  0  0  0  0  0
    0.5742   -0.2698    0.3594 O   0  0  0  0  0  0  0  0  0  0  0  0
   -0.5508    0.1567   -0.3294 C   0  0  0  0  0  0  0  0  0  0  0  0
   -1.7773    0.3706    0.5645 C   0  0  0  0  0  0  0  0  0  0  0  0
   -2.5334    1.6199    0.2695 C   0  0  0  0  0  0  0  0  0  0  0  0
   -1.7661   -0.7579   -0.3940 C   0  0  0  0  0  0  0  0  0  0  0  0
   -1.4890   -2.1587    0.0936 C   0  0  0  0  0  0  0  0  0  0  0  0
    3.3361    1.5794    0.1639 H   0  0  0  0  0  0  0  0  0  0  0  0
    2.7952    0.5696    1.6171 H   0  0  0  0  0  0  0  0  0  0  0  0
    1.8422    1.9859    1.0511 H   0  0  0  0  0  0  0  0  0  0  0  0
    1.4123    0.9486   -1.1034 H   0  0  0  0  0  0  0  0  0  0  0  0
    2.0886   -1.2314   -1.6432 H   0  0  0  0  0  0  0  0  0  0  0  0
    3.5674   -0.4443   -0.8741 H   0  0  0  0  0  0  0  0  0  0  0  0
    2.5201   -1.6264    0.0831 H   0  0  0  0  0  0  0  0  0  0  0  0
   -0.4155    0.8405   -1.1922 H   0  0  0  0  0  0  0  0  0  0  0  0
   -1.6713    0.1476    1.6508 H   0  0  0  0  0  0  0  0  0  0  0  0
   -1.7828    2.4349    0.0771 H   0  0  0  0  0  0  0  0  0  0  0  0
   -3.1538    1.5651   -0.6451 H   0  0  0  0  0  0  0  0  0  0  0  0
   -3.1309    1.9469    1.1418 H   0  0  0  0  0  0  0  0  0  0  0  0
   -2.4485   -0.6864   -1.2417 H   0  0  0  0  0  0  0  0  0  0  0  0
   -0.5047   -2.2479    0.6070 H   0  0  0  0  0  0  0  0  0  0  0  0
   -2.2459   -2.5276    0.8008 H   0  0  0  0  0  0  0  0  0  0  0  0
   -1.4090   -2.8019   -0.8196 H   0  0  0  0  0  0  0  0  0  0  0  0
  1  2  1  0
  2  3  1  0
  2  4  1  0
  4  5  1  0
  5  6  1  0
  6  7  1  0
  6  8  1  0
  8  9  1  0
  8  5  1  0
  1 10  1  0
  1 11  1  0
  1 12  1  0
  2 13  1  0
  3 14  1  0
  3 15  1  0
  3 16  1  0
  5 17  1  0
  6 18  1  0
  7 19  1  0
  7 20  1  0
  7 21  1  0
  8 22  1  0
  9 23  1  0
  9 24  1  0
  9 25  1  0
M  END
