
     RDKit          3D

 24 24  0  0  0  0  0  0  0  0999 V2000
   -1.3323   -1.5400   -0.0674 C   0  0  0  0  0  0  0  0  0  0  0  0
   -1.1206   -0.0723   -0.2881 C   0  0  0  0  0  0  0  0  0  0  0  0
   -1.5558    0.7197    0.9361 C   0  0  0  0  0  0  0  0  0  0  0  0
    0.1559    0.3647   -0.8542 C   0  0  0  0  0  0  0  0  0  0  0  0
    0.0508    1.9118   -0.9747 C   0  0  0  0  0  0  0  0  0  0  0  0
    1.4351    0.0851   -0.2136 C   0  0  0  0  0  0  0  0  0  0  0  0
    1.8466   -1.3533    0.0063 C   0  0  0  0  0  0  0  0  0  0  0  0
    1.6521   -0.3869    1.1475 C   0  0  0  0  0  0  0  0  0  0  0  0
   -1.0451   -2.1635   -0.9215 H   0  0  0  0  0  0  0  0  0  0  0  0
   -0.9263   -1.8574    0.9129 H   0  0  0  0  0  0  0  0  0  0  0  0
   -2.4484   -1.7533    0.0426 H   0  0  0  0  0  0  0  0  0  0  0  0
   -1.9059    0.2022   -1.0646 H   0  0  0  0  0  0  0  0  0  0  0  0
   -2.1750    0.1138    1.6098 H   0  0  0  0  0  0  0  0  0  0  0  0
   -0.6372    1.1154    1.4204 H   0  0  0  0  0  0  0  0  0  0  0  0
   -2.1633    1.6110    0.6715 H   0  0  0  0  0  0  0  0  0  0  0  0
    0.2052    0.0255   -1.9287 H   0  0  0  0  0  0  0  0  0  0  0  0
    0.7300    2.2858   -1.7478 H   0  0  0  0  0  0  0  0  0  0  0  0
    0.3358    2.3787   -0.0032 H   0  0  0  0  0  0  0  0  0  0  0  0
   -0.9761    2.2117   -1.2034 H   0  0  0  0  0  0  0  0  0  0  0  0
    2.2885    0.7078   -0.6363 H   0  0  0  0  0  0  0  0  0  0  0  0
    1.1702   -2.1894   -0.1341 H   0  0  0  0  0  0  0  0  0  0  0  0
    2.9039   -1.6462   -0.2427 H   0  0  0  0  0  0  0  0  0  0  0  0
    0.8969   -0.6729    1.8715 H   0  0  0  0  0  0  0  0  0  0  0  0
    2.6150   -0.0982    1.6618 H   0  0  0  0  0  0  0  0  0  0  0  0
  1  2  1  0
  2  3  1  0
  2  4  1  0
  4  5  1  0
  4  6  1  0
  6  7  1  0
  7  8  1  0
  8  6  1  0
  1  9  1  0
  1 10  1  0
  1 11  1  0
  2 12  1  0
  3 13  1  0
  3 14  1  0
  3 15  1  0
  4 16  1  0
  5 17  1  0
  5 18  1  0
  5 19  1  0
  6 20  1  0
  7 21  1  0
  7 22  1  0
  8 23  1  0
  8 24  1  0
M  END
