
     RDKit          3D

 20 19  0  0  0  0  0  0  0  0999 V2000
   -0.3846    0.9717   -1.1825 C   0  0  0  0  0  0  0  0  0  0  0  0
   -0.0783   -0.1055   -0.1639 C   0  0  0  0  0  0  0  0  0  0  0  0
    0.2793    0.5983    1.1282 C   0  0  0  0  0  0  0  0  0  0  0  0
    1.3907    1.4056    0.9029 O   0  0  0  0  0  0  0  0  0  0  0  0
    1.0708   -0.9781   -0.5819 C   0  0  0  0  0  0  0  0  0  0  0  0
    2.2414   -0.2438   -0.7534 O   0  0  0  0  0  0  0  0  0  0  0  0
   -1.3047   -0.9692    0.0126 C   0  0  0  0  0  0  0  0  0  0  0  0
   -2.3335   -0.1161    0.4635 O   0  0  0  0  0  0  0  0  0  0  0  0
   -1.0967    1.6780   -0.6622 H   0  0  0  0  0  0  0  0  0  0  0  0
   -0.9169    0.6001   -2.0659 H   0  0  0  0  0  0  0  0  0  0  0  0
    0.5116    1.5764   -1.4091 H   0  0  0  0  0  0  0  0  0  0  0  0
   -0.5741    1.2418    1.4328 H   0  0  0  0  0  0  0  0  0  0  0  0
    0.4977   -0.1638    1.9042 H   0  0  0  0  0  0  0  0  0  0  0  0
    1.2746    2.2335    1.4323 H   0  0  0  0  0  0  0  0  0  0  0  0
    0.8117   -1.5440   -1.5087 H   0  0  0  0  0  0  0  0  0  0  0  0
    1.2103   -1.7375    0.2151 H   0  0  0  0  0  0  0  0  0  0  0  0
    3.0020   -0.6437   -0.2347 H   0  0  0  0  0  0  0  0  0  0  0  0
   -1.1135   -1.7335    0.8045 H   0  0  0  0  0  0  0  0  0  0  0  0
   -1.6211   -1.4712   -0.8959 H   0  0  0  0  0  0  0  0  0  0  0  0
   -2.8667   -0.5990    1.1625 H   0  0  0  0  0  0  0  0  0  0  0  0
  1  2  1  0
  2  3  1  0
  3  4  1  0
  2  5  1  0
  5  6  1  0
  2  7  1  0
  7  8  1  0
  1  9  1  0
  1 10  1  0
  1 11  1  0
  3 12  1  0
  3 13  1  0
  4 14  1  0
  5 15  1  0
  5 16  1  0
  6 17  1  0
  7 18  1  0
  7 19  1  0
  8 20  1  0
M  END
