
     RDKit          3D

 23 23  0  0  0  0  0  0  0  0999 V2000
   -2.5610   -0.7504    1.0081 C   0  0  0  0  0  0  0  0  0  0  0  0
   -1.2510   -0.0298    0.6657 C   0  0  0  0  0  0  0  0  0  0  0  0
   -1.6111    1.4112    0.3285 C   0  0  0  0  0  0  0  0  0  0  0  0
   -0.6734   -0.7453   -0.5206 C   0  0  0  0  0  0  0  0  0  0  0  0
    0.5251   -0.2201   -0.9687 O   0  0  0  0  0  0  0  0  0  0  0  0
    1.4832   -0.2769    0.0111 C   0  0  0  0  0  0  0  0  0  0  0  0
    2.2994    1.0010    0.1895 C   0  0  0  0  0  0  0  0  0  0  0  0
    3.4100    0.1687    0.3973 O   0  0  0  0  0  0  0  0  0  0  0  0
    2.8416   -0.7055   -0.5296 C   0  0  0  0  0  0  0  0  0  0  0  0
   -2.2762   -1.6886    1.5417 H   0  0  0  0  0  0  0  0  0  0  0  0
   -3.0340   -1.0999    0.0518 H   0  0  0  0  0  0  0  0  0  0  0  0
   -3.2282   -0.1322    1.6115 H   0  0  0  0  0  0  0  0  0  0  0  0
   -0.6179   -0.0446    1.5614 H   0  0  0  0  0  0  0  0  0  0  0  0
   -0.7097    1.9664    0.0147 H   0  0  0  0  0  0  0  0  0  0  0  0
   -2.3359    1.4623   -0.4927 H   0  0  0  0  0  0  0  0  0  0  0  0
   -2.0373    1.8998    1.2276 H   0  0  0  0  0  0  0  0  0  0  0  0
   -0.5278   -1.8192   -0.2044 H   0  0  0  0  0  0  0  0  0  0  0  0
   -1.4574   -0.7279   -1.3176 H   0  0  0  0  0  0  0  0  0  0  0  0
    1.2113   -0.7056    0.9742 H   0  0  0  0  0  0  0  0  0  0  0  0
    2.4394    1.5515   -0.7640 H   0  0  0  0  0  0  0  0  0  0  0  0
    2.0420    1.5990    1.0705 H   0  0  0  0  0  0  0  0  0  0  0  0
    3.1267   -1.7440   -0.3024 H   0  0  0  0  0  0  0  0  0  0  0  0
    2.9422   -0.3699   -1.5626 H   0  0  0  0  0  0  0  0  0  0  0  0
  1  2  1  0
  2  3  1  0
  2  4  1  0
  4  5  1  0
  5  6  1  0
  6  7  1  0
  7  8  1  0
  8  9  1  0
  9  6  1  0
  1 10  1  0
  1 11  1  0
  1 12  1  0
  2 13  1  0
  3 14  1  0
  3 15  1  0
  3 16  1  0
  4 17  1  0
  4 18  1  0
  6 19  1  0
  7 20  1  0
  7 21  1  0
  9 22  1  0
  9 23  1  0
M  END
