
     RDKit          3D

 24 23  0  0  0  0  0  0  0  0999 V2000
   -2.4476   -1.0073   -0.0408 C   0  0  0  0  0  0  0  0  0  0  0  0
   -1.2403   -0.2490    0.4841 C   0  0  0  0  0  0  0  0  0  0  0  0
   -1.6520    1.2050    0.5836 C   0  0  0  0  0  0  0  0  0  0  0  0
   -0.1252   -0.4475   -0.4898 C   0  0  0  0  0  0  0  0  0  0  0  0
    1.1487    0.2585   -0.0889 C   0  0  0  0  0  0  0  0  0  0  0  0
    1.6175   -0.2718    1.2651 C   0  0  0  0  0  0  0  0  0  0  0  0
    2.2433   -0.1098   -1.0690 C   0  0  0  0  0  0  0  0  0  0  0  0
    0.9713    1.6366   -0.0306 O   0  0  0  0  0  0  0  0  0  0  0  0
   -3.2984   -0.9318    0.6519 H   0  0  0  0  0  0  0  0  0  0  0  0
   -2.7792   -0.5632   -1.0104 H   0  0  0  0  0  0  0  0  0  0  0  0
   -2.1430   -2.0628   -0.1346 H   0  0  0  0  0  0  0  0  0  0  0  0
   -1.0158   -0.6300    1.4980 H   0  0  0  0  0  0  0  0  0  0  0  0
   -0.9790    1.7740    1.2535 H   0  0  0  0  0  0  0  0  0  0  0  0
   -2.7118    1.2144    0.9676 H   0  0  0  0  0  0  0  0  0  0  0  0
   -1.7133    1.6452   -0.4420 H   0  0  0  0  0  0  0  0  0  0  0  0
   -0.4503   -0.0321   -1.4657 H   0  0  0  0  0  0  0  0  0  0  0  0
    0.0925   -1.5283   -0.5639 H   0  0  0  0  0  0  0  0  0  0  0  0
    1.8059   -1.3595    1.1120 H   0  0  0  0  0  0  0  0  0  0  0  0
    0.8894   -0.0703    2.0624 H   0  0  0  0  0  0  0  0  0  0  0  0
    2.6072    0.1982    1.4467 H   0  0  0  0  0  0  0  0  0  0  0  0
    2.3626   -1.2287   -0.9925 H   0  0  0  0  0  0  0  0  0  0  0  0
    2.0292    0.2143   -2.0940 H   0  0  0  0  0  0  0  0  0  0  0  0
    3.1992    0.3083   -0.6686 H   0  0  0  0  0  0  0  0  0  0  0  0
    1.5890    2.0376    0.6370 H   0  0  0  0  0  0  0  0  0  0  0  0
  1  2  1  0
  2  3  1  0
  2  4  1  0
  4  5  1  0
  5  6  1  0
  5  7  1  0
  5  8  1  0
  1  9  1  0
  1 10  1  0
  1 11  1  0
  2 12  1  0
  3 13  1  0
  3 14  1  0
  3 15  1  0
  4 16  1  0
  4 17  1  0
  6 18  1  0
  6 19  1  0
  6 20  1  0
  7 21  1  0
  7 22  1  0
  7 23  1  0
  8 24  1  0
M  END
