
     RDKit          3D

 21 21  0  0  0  0  0  0  0  0999 V2000
   -1.7266   -1.1832   -0.2561 C   0  0  0  0  0  0  0  0  0  0  0  0
   -1.4133    0.3122   -0.1815 C   0  0  0  0  0  0  0  0  0  0  0  0
   -2.5275    0.9620    0.5732 C   0  0  0  0  0  0  0  0  0  0  0  0
   -0.0868    0.5261    0.4401 C   0  0  0  0  0  0  0  0  0  0  0  0
    0.0009    1.1753    1.4622 O   0  0  0  0  0  0  0  0  0  0  0  0
    1.1280   -0.0562   -0.1927 C   0  0  0  0  0  0  0  0  0  0  0  0
    2.0850   -0.6636    0.8172 C   0  0  0  0  0  0  0  0  0  0  0  0
    2.4537    0.5752   -0.0040 C   0  0  0  0  0  0  0  0  0  0  0  0
    3.4095    0.3422   -0.9653 O   0  0  0  0  0  0  0  0  0  0  0  0
   -2.8124   -1.3642   -0.2283 H   0  0  0  0  0  0  0  0  0  0  0  0
   -1.2284   -1.6840    0.6024 H   0  0  0  0  0  0  0  0  0  0  0  0
   -1.2889   -1.5477   -1.2009 H   0  0  0  0  0  0  0  0  0  0  0  0
   -1.3740    0.7546   -1.2015 H   0  0  0  0  0  0  0  0  0  0  0  0
   -2.8717    0.3315    1.4302 H   0  0  0  0  0  0  0  0  0  0  0  0
   -2.2810    2.0015    0.9032 H   0  0  0  0  0  0  0  0  0  0  0  0
   -3.4057    1.0591   -0.1065 H   0  0  0  0  0  0  0  0  0  0  0  0
    0.9694   -0.6316   -1.1164 H   0  0  0  0  0  0  0  0  0  0  0  0
    1.9374   -0.4386    1.8990 H   0  0  0  0  0  0  0  0  0  0  0  0
    2.5373   -1.6225    0.5397 H   0  0  0  0  0  0  0  0  0  0  0  0
    2.4986    1.5527    0.5171 H   0  0  0  0  0  0  0  0  0  0  0  0
    3.9966   -0.4008   -0.6767 H   0  0  0  0  0  0  0  0  0  0  0  0
  1  2  1  0
  2  3  1  0
  2  4  1  0
  4  5  2  0
  4  6  1  0
  6  7  1  0
  7  8  1  0
  8  9  1  0
  8  6  1  0
  1 10  1  0
  1 11  1  0
  1 12  1  0
  2 13  1  0
  3 14  1  0
  3 15  1  0
  3 16  1  0
  6 17  1  0
  7 18  1  0
  7 19  1  0
  8 20  1  0
  9 21  1  0
M  END
