
     RDKit          3D

 25 24  0  0  0  0  0  0  0  0999 V2000
   -2.3224    0.9958   -0.8435 C   0  0  0  0  0  0  0  0  0  0  0  0
   -1.7816   -0.3925   -0.5983 C   0  0  0  0  0  0  0  0  0  0  0  0
   -2.1518   -0.8605    0.7755 C   0  0  0  0  0  0  0  0  0  0  0  0
   -0.3270   -0.5229   -0.9166 C   0  0  0  0  0  0  0  0  0  0  0  0
    0.4592    0.4260   -0.0625 C   0  0  0  0  0  0  0  0  0  0  0  0
    1.9415    0.3680   -0.3113 C   0  0  0  0  0  0  0  0  0  0  0  0
    2.4879   -1.0049   -0.0353 C   0  0  0  0  0  0  0  0  0  0  0  0
    2.5583    1.3112    0.6950 C   0  0  0  0  0  0  0  0  0  0  0  0
    3.1770    2.2911    0.3833 O   0  0  0  0  0  0  0  0  0  0  0  0
   -2.2836    1.2240   -1.9240 H   0  0  0  0  0  0  0  0  0  0  0  0
   -1.8940    1.7594   -0.1945 H   0  0  0  0  0  0  0  0  0  0  0  0
   -3.4183    0.9472   -0.5903 H   0  0  0  0  0  0  0  0  0  0  0  0
   -2.3306   -1.0659   -1.3214 H   0  0  0  0  0  0  0  0  0  0  0  0
   -1.5621   -0.4341    1.5851 H   0  0  0  0  0  0  0  0  0  0  0  0
   -3.2148   -0.5185    0.9516 H   0  0  0  0  0  0  0  0  0  0  0  0
   -2.2103   -1.9786    0.8083 H   0  0  0  0  0  0  0  0  0  0  0  0
   -0.0372   -1.5737   -0.7819 H   0  0  0  0  0  0  0  0  0  0  0  0
   -0.2028   -0.2999   -2.0024 H   0  0  0  0  0  0  0  0  0  0  0  0
    0.1204    1.4558   -0.3015 H   0  0  0  0  0  0  0  0  0  0  0  0
    0.2983    0.1556    0.9915 H   0  0  0  0  0  0  0  0  0  0  0  0
    2.2202    0.7484   -1.3128 H   0  0  0  0  0  0  0  0  0  0  0  0
    3.1006   -1.3624   -0.9079 H   0  0  0  0  0  0  0  0  0  0  0  0
    3.2214   -1.0018    0.8230 H   0  0  0  0  0  0  0  0  0  0  0  0
    1.7248   -1.7444    0.2321 H   0  0  0  0  0  0  0  0  0  0  0  0
    2.4270    1.0778    1.7487 H   0  0  0  0  0  0  0  0  0  0  0  0
  1  2  1  0
  2  3  1  0
  2  4  1  0
  4  5  1  0
  5  6  1  0
  6  7  1  0
  6  8  1  0
  8  9  2  0
  1 10  1  0
  1 11  1  0
  1 12  1  0
  2 13  1  0
  3 14  1  0
  3 15  1  0
  3 16  1  0
  4 17  1  0
  4 18  1  0
  5 19  1  0
  5 20  1  0
  6 21  1  0
  7 22  1  0
  7 23  1  0
  7 24  1  0
  8 25  1  0
M  END
