
     RDKit          3D

 21 21  0  0  0  0  0  0  0  0999 V2000
   -0.0760   -0.8332    1.3104 C   0  0  0  0  0  0  0  0  0  0  0  0
    0.0411   -0.1008    0.0043 C   0  0  0  0  0  0  0  0  0  0  0  0
    1.1820    0.8024   -0.0928 C   0  0  0  0  0  0  0  0  0  0  0  0
    0.9449    1.9853   -0.2870 O   0  0  0  0  0  0  0  0  0  0  0  0
    2.6051    0.4203    0.0221 C   0  0  0  0  0  0  0  0  0  0  0  0
    2.8097   -0.9198    0.2395 O   0  0  0  0  0  0  0  0  0  0  0  0
   -1.2556    0.6082   -0.2467 C   0  0  0  0  0  0  0  0  0  0  0  0
   -2.4736   -0.3270   -0.3342 C   0  0  0  0  0  0  0  0  0  0  0  0
   -2.0149    0.4728   -1.4958 C   0  0  0  0  0  0  0  0  0  0  0  0
    0.8461   -1.3469    1.6217 H   0  0  0  0  0  0  0  0  0  0  0  0
   -0.4200   -0.1565    2.1141 H   0  0  0  0  0  0  0  0  0  0  0  0
   -0.8443   -1.6260    1.1835 H   0  0  0  0  0  0  0  0  0  0  0  0
    0.1996   -0.9043   -0.7777 H   0  0  0  0  0  0  0  0  0  0  0  0
    3.0695    1.0784    0.7741 H   0  0  0  0  0  0  0  0  0  0  0  0
    3.1108    0.6608   -0.9478 H   0  0  0  0  0  0  0  0  0  0  0  0
    3.6031   -1.1317    0.7837 H   0  0  0  0  0  0  0  0  0  0  0  0
   -1.3881    1.5521    0.3223 H   0  0  0  0  0  0  0  0  0  0  0  0
   -3.3327   -0.0229    0.2910 H   0  0  0  0  0  0  0  0  0  0  0  0
   -2.2813   -1.4195   -0.3208 H   0  0  0  0  0  0  0  0  0  0  0  0
   -1.6567   -0.1113   -2.3660 H   0  0  0  0  0  0  0  0  0  0  0  0
   -2.6687    1.3195   -1.7980 H   0  0  0  0  0  0  0  0  0  0  0  0
  1  2  1  0
  2  3  1  0
  3  4  2  0
  3  5  1  0
  5  6  1  0
  2  7  1  0
  7  8  1  0
  8  9  1  0
  9  7  1  0
  1 10  1  0
  1 11  1  0
  1 12  1  0
  2 13  1  0
  5 14  1  0
  5 15  1  0
  6 16  1  0
  7 17  1  0
  8 18  1  0
  8 19  1  0
  9 20  1  0
  9 21  1  0
M  END
