
     RDKit          3D

 20 19  0  0  0  0  0  0  0  0999 V2000
    0.6155    1.5249    0.6486 C   0  0  0  0  0  0  0  0  0  0  0  0
    0.2695    0.3677   -0.2195 C   0  0  0  0  0  0  0  0  0  0  0  0
    1.4571   -0.3965   -0.7541 C   0  0  0  0  0  0  0  0  0  0  0  0
    2.2831   -0.9369    0.3262 C   0  0  0  0  0  0  0  0  0  0  0  0
    3.3609   -0.4078    0.5721 O   0  0  0  0  0  0  0  0  0  0  0  0
   -0.7751   -0.5427    0.3292 C   0  0  0  0  0  0  0  0  0  0  0  0
   -2.1017    0.1447    0.5624 C   0  0  0  0  0  0  0  0  0  0  0  0
   -2.9508   -0.8661    1.0762 O   0  0  0  0  0  0  0  0  0  0  0  0
   -0.2299    1.7281    1.3365 H   0  0  0  0  0  0  0  0  0  0  0  0
    0.7535    2.4967    0.0828 H   0  0  0  0  0  0  0  0  0  0  0  0
    1.5718    1.3617    1.2297 H   0  0  0  0  0  0  0  0  0  0  0  0
   -0.2155    0.8388   -1.1469 H   0  0  0  0  0  0  0  0  0  0  0  0
    2.0494    0.2175   -1.4875 H   0  0  0  0  0  0  0  0  0  0  0  0
    1.0141   -1.2365   -1.3667 H   0  0  0  0  0  0  0  0  0  0  0  0
    1.9749   -1.7851    0.9201 H   0  0  0  0  0  0  0  0  0  0  0  0
   -0.5025   -0.9929    1.3255 H   0  0  0  0  0  0  0  0  0  0  0  0
   -0.9567   -1.3719   -0.4039 H   0  0  0  0  0  0  0  0  0  0  0  0
   -2.5718    0.4674   -0.4087 H   0  0  0  0  0  0  0  0  0  0  0  0
   -2.0703    0.9707    1.2745 H   0  0  0  0  0  0  0  0  0  0  0  0
   -2.9756   -1.5818    0.3619 H   0  0  0  0  0  0  0  0  0  0  0  0
  1  2  1  0
  2  3  1  0
  3  4  1  0
  4  5  2  0
  2  6  1  0
  6  7  1  0
  7  8  1  0
  1  9  1  0
  1 10  1  0
  1 11  1  0
  2 12  1  0
  3 13  1  0
  3 14  1  0
  4 15  1  0
  6 16  1  0
  6 17  1  0
  7 18  1  0
  7 19  1  0
  8 20  1  0
M  END
