
     RDKit          3D

 21 21  0  0  0  0  0  0  0  0999 V2000
   -1.9383   -1.1241    0.3272 C   0  0  0  0  0  0  0  0  0  0  0  0
   -1.0247   -0.1549   -0.4070 C   0  0  0  0  0  0  0  0  0  0  0  0
   -1.7439    1.2001   -0.3651 C   0  0  0  0  0  0  0  0  0  0  0  0
   -2.0461    1.5188    0.9562 O   0  0  0  0  0  0  0  0  0  0  0  0
    0.1379   -0.0956    0.3218 O   0  0  0  0  0  0  0  0  0  0  0  0
    1.2771   -0.4205   -0.3329 C   0  0  0  0  0  0  0  0  0  0  0  0
    2.3526   -1.1492    0.3957 C   0  0  0  0  0  0  0  0  0  0  0  0
    3.2831   -0.2875   -0.2223 O   0  0  0  0  0  0  0  0  0  0  0  0
    2.3137    0.6953   -0.1612 C   0  0  0  0  0  0  0  0  0  0  0  0
   -1.3422   -1.8306    0.9470 H   0  0  0  0  0  0  0  0  0  0  0  0
   -2.5937   -0.5748    1.0633 H   0  0  0  0  0  0  0  0  0  0  0  0
   -2.5659   -1.6598   -0.4133 H   0  0  0  0  0  0  0  0  0  0  0  0
   -0.8789   -0.4657   -1.4528 H   0  0  0  0  0  0  0  0  0  0  0  0
   -2.6711    1.1264   -0.9781 H   0  0  0  0  0  0  0  0  0  0  0  0
   -1.0784    2.0144   -0.7405 H   0  0  0  0  0  0  0  0  0  0  0  0
   -2.1966    2.4777    1.0528 H   0  0  0  0  0  0  0  0  0  0  0  0
    1.2310   -0.7084   -1.3820 H   0  0  0  0  0  0  0  0  0  0  0  0
    2.4123   -0.9857    1.4871 H   0  0  0  0  0  0  0  0  0  0  0  0
    2.5570   -2.1858    0.0668 H   0  0  0  0  0  0  0  0  0  0  0  0
    2.2820    1.4141   -0.9799 H   0  0  0  0  0  0  0  0  0  0  0  0
    2.2331    1.1959    0.8173 H   0  0  0  0  0  0  0  0  0  0  0  0
  1  2  1  0
  2  3  1  0
  3  4  1  0
  2  5  1  0
  5  6  1  0
  6  7  1  0
  7  8  1  0
  8  9  1  0
  9  6  1  0
  1 10  1  0
  1 11  1  0
  1 12  1  0
  2 13  1  0
  3 14  1  0
  3 15  1  0
  4 16  1  0
  6 17  1  0
  7 18  1  0
  7 19  1  0
  9 20  1  0
  9 21  1  0
M  END
