
     RDKit          3D

 21 21  0  0  0  0  0  0  0  0999 V2000
   -1.7018   -1.1621    0.1461 C   0  0  0  0  0  0  0  0  0  0  0  0
   -1.2171    0.2367   -0.0731 C   0  0  0  0  0  0  0  0  0  0  0  0
   -2.2225    1.2246    0.4778 C   0  0  0  0  0  0  0  0  0  0  0  0
    0.1110    0.3691    0.5681 C   0  0  0  0  0  0  0  0  0  0  0  0
    0.2514    1.1996    1.4543 O   0  0  0  0  0  0  0  0  0  0  0  0
    1.1878   -0.5156    0.0937 C   0  0  0  0  0  0  0  0  0  0  0  0
    2.5227   -0.3508    0.7701 C   0  0  0  0  0  0  0  0  0  0  0  0
    3.1203   -0.5044   -0.4935 O   0  0  0  0  0  0  0  0  0  0  0  0
    1.9962    0.1793   -1.0108 C   0  0  0  0  0  0  0  0  0  0  0  0
   -2.7262   -1.2306   -0.2797 H   0  0  0  0  0  0  0  0  0  0  0  0
   -1.0642   -1.8983   -0.3644 H   0  0  0  0  0  0  0  0  0  0  0  0
   -1.7891   -1.4101    1.2242 H   0  0  0  0  0  0  0  0  0  0  0  0
   -1.1246    0.4309   -1.1465 H   0  0  0  0  0  0  0  0  0  0  0  0
   -2.1004    2.2013   -0.0219 H   0  0  0  0  0  0  0  0  0  0  0  0
   -2.1383    1.2844    1.5870 H   0  0  0  0  0  0  0  0  0  0  0  0
   -3.2295    0.8332    0.2029 H   0  0  0  0  0  0  0  0  0  0  0  0
    0.9337   -1.5468   -0.1478 H   0  0  0  0  0  0  0  0  0  0  0  0
    2.8049   -1.1614    1.4756 H   0  0  0  0  0  0  0  0  0  0  0  0
    2.6512    0.6840    1.1602 H   0  0  0  0  0  0  0  0  0  0  0  0
    2.0103    1.2707   -0.8343 H   0  0  0  0  0  0  0  0  0  0  0  0
    1.7243   -0.1338   -2.0325 H   0  0  0  0  0  0  0  0  0  0  0  0
  1  2  1  0
  2  3  1  0
  2  4  1  0
  4  5  2  0
  4  6  1  0
  6  7  1  0
  7  8  1  0
  8  9  1  0
  9  6  1  0
  1 10  1  0
  1 11  1  0
  1 12  1  0
  2 13  1  0
  3 14  1  0
  3 15  1  0
  3 16  1  0
  6 17  1  0
  7 18  1  0
  7 19  1  0
  9 20  1  0
  9 21  1  0
M  END
