
     RDKit          3D

 17 16  0  0  0  0  0  0  0  0999 V2000
   -1.0480    0.2137   -0.9408 C   0  0  0  0  0  0  0  0  0  0  0  0
   -0.1393   -0.3291    0.1756 C   0  0  0  0  0  0  0  0  0  0  0  0
   -1.0610   -0.9804    1.1407 C   0  0  0  0  0  0  0  0  0  0  0  0
   -0.9537   -2.1717    1.3393 O   0  0  0  0  0  0  0  0  0  0  0  0
    0.5998    0.8130    0.8395 C   0  0  0  0  0  0  0  0  0  0  0  0
   -0.3672    1.7295    1.2776 O   0  0  0  0  0  0  0  0  0  0  0  0
    0.7065   -1.3385   -0.3157 O   0  0  0  0  0  0  0  0  0  0  0  0
    1.5875   -1.0725   -1.3388 C   0  0  0  0  0  0  0  0  0  0  0  0
    1.5858    0.0949   -1.7935 O   0  0  0  0  0  0  0  0  0  0  0  0
   -1.1246   -0.5641   -1.7316 H   0  0  0  0  0  0  0  0  0  0  0  0
   -2.0803    0.3772   -0.5674 H   0  0  0  0  0  0  0  0  0  0  0  0
   -0.6189    1.1652   -1.3542 H   0  0  0  0  0  0  0  0  0  0  0  0
   -1.8308   -0.4389    1.6804 H   0  0  0  0  0  0  0  0  0  0  0  0
    1.2192    0.4153    1.6386 H   0  0  0  0  0  0  0  0  0  0  0  0
    1.2083    1.3638    0.1022 H   0  0  0  0  0  0  0  0  0  0  0  0
    0.0791    2.5766    1.5596 H   0  0  0  0  0  0  0  0  0  0  0  0
    2.2376   -1.8540   -1.7112 H   0  0  0  0  0  0  0  0  0  0  0  0
  1  2  1  0
  2  3  1  0
  3  4  2  0
  2  5  1  0
  5  6  1  0
  2  7  1  0
  7  8  1  0
  8  9  2  0
  1 10  1  0
  1 11  1  0
  1 12  1  0
  3 13  1  0
  5 14  1  0
  5 15  1  0
  6 16  1  0
  8 17  1  0
M  END
