
     RDKit          3D

 17 16  0  0  0  0  0  0  0  0999 V2000
   -1.0987   -1.0671    0.7676 C   0  0  0  0  0  0  0  0  0  0  0  0
   -0.6279   -0.3833   -0.5153 C   0  0  0  0  0  0  0  0  0  0  0  0
   -1.4050    0.8927   -0.6896 C   0  0  0  0  0  0  0  0  0  0  0  0
    0.8259   -0.2153   -0.5465 C   0  0  0  0  0  0  0  0  0  0  0  0
    1.4795   -0.7310   -1.4382 O   0  0  0  0  0  0  0  0  0  0  0  0
    1.5639    0.5803    0.4922 C   0  0  0  0  0  0  0  0  0  0  0  0
    2.9153    0.5890    0.2444 O   0  0  0  0  0  0  0  0  0  0  0  0
   -2.1382   -0.7481    0.9903 H   0  0  0  0  0  0  0  0  0  0  0  0
   -1.1616   -2.1788    0.6191 H   0  0  0  0  0  0  0  0  0  0  0  0
   -0.3936   -0.8886    1.5955 H   0  0  0  0  0  0  0  0  0  0  0  0
   -0.9298   -1.0620   -1.3369 H   0  0  0  0  0  0  0  0  0  0  0  0
   -2.1751    0.9998    0.1130 H   0  0  0  0  0  0  0  0  0  0  0  0
   -0.7924    1.7989   -0.6568 H   0  0  0  0  0  0  0  0  0  0  0  0
   -1.9669    0.9129   -1.6637 H   0  0  0  0  0  0  0  0  0  0  0  0
    1.2270    1.6573    0.4673 H   0  0  0  0  0  0  0  0  0  0  0  0
    1.3913    0.1592    1.5046 H   0  0  0  0  0  0  0  0  0  0  0  0
    3.2865   -0.3159    0.0528 H   0  0  0  0  0  0  0  0  0  0  0  0
  1  2  1  0
  2  3  1  0
  2  4  1  0
  4  5  2  0
  4  6  1  0
  6  7  1  0
  1  8  1  0
  1  9  1  0
  1 10  1  0
  2 11  1  0
  3 12  1  0
  3 13  1  0
  3 14  1  0
  6 15  1  0
  6 16  1  0
  7 17  1  0
M  END
