
     RDKit          3D

 21 22  0  0  0  0  0  0  0  0999 V2000
   -1.8530   -0.8918   -0.3405 C   0  0  0  0  0  0  0  0  0  0  0  0
   -1.0755    0.1469    0.4399 C   0  0  0  0  0  0  0  0  0  0  0  0
   -1.6418    1.5256    0.2288 C   0  0  0  0  0  0  0  0  0  0  0  0
    0.3803    0.0463    0.2138 C   0  0  0  0  0  0  0  0  0  0  0  0
    1.0045   -1.2905    0.6078 C   0  0  0  0  0  0  0  0  0  0  0  0
    2.3583   -1.1688    0.3215 O   0  0  0  0  0  0  0  0  0  0  0  0
    2.5415   -0.1765   -0.6035 C   0  0  0  0  0  0  0  0  0  0  0  0
    1.2673    0.6796   -0.5936 C   0  0  0  0  0  0  0  0  0  0  0  0
    1.0937    1.1609    0.8029 O   0  0  0  0  0  0  0  0  0  0  0  0
   -1.7567   -0.7161   -1.4452 H   0  0  0  0  0  0  0  0  0  0  0  0
   -2.9222   -0.8148   -0.0342 H   0  0  0  0  0  0  0  0  0  0  0  0
   -1.4240   -1.8731   -0.1008 H   0  0  0  0  0  0  0  0  0  0  0  0
   -1.2675   -0.0980    1.5276 H   0  0  0  0  0  0  0  0  0  0  0  0
   -2.7118    1.4031   -0.0459 H   0  0  0  0  0  0  0  0  0  0  0  0
   -1.5936    2.1324    1.1713 H   0  0  0  0  0  0  0  0  0  0  0  0
   -1.1481    2.0881   -0.5727 H   0  0  0  0  0  0  0  0  0  0  0  0
    0.7874   -1.4854    1.6645 H   0  0  0  0  0  0  0  0  0  0  0  0
    0.6053   -2.0848   -0.0568 H   0  0  0  0  0  0  0  0  0  0  0  0
    2.7095   -0.5549   -1.6229 H   0  0  0  0  0  0  0  0  0  0  0  0
    3.3837    0.4746   -0.2575 H   0  0  0  0  0  0  0  0  0  0  0  0
    1.2627    1.4974   -1.3043 H   0  0  0  0  0  0  0  0  0  0  0  0
  1  2  1  0
  2  3  1  0
  2  4  1  0
  4  5  1  0
  5  6  1  0
  6  7  1  0
  7  8  1  0
  8  9  1  0
  8  4  1  0
  9  4  1  0
  1 10  1  0
  1 11  1  0
  1 12  1  0
  2 13  1  0
  3 14  1  0
  3 15  1  0
  3 16  1  0
  5 17  1  0
  5 18  1  0
  7 19  1  0
  7 20  1  0
  8 21  1  0
M  END
