
     RDKit          3D

 20 20  0  0  0  0  0  0  0  0999 V2000
   -1.1716   -1.3594   -0.7025 C   0  0  0  0  0  0  0  0  0  0  0  0
   -0.8873   -0.1238    0.1244 C   0  0  0  0  0  0  0  0  0  0  0  0
   -1.4073    1.1229   -0.5176 C   0  0  0  0  0  0  0  0  0  0  0  0
    0.5779   -0.0685    0.4665 C   0  0  0  0  0  0  0  0  0  0  0  0
    1.0570   -1.2371    1.2484 C   0  0  0  0  0  0  0  0  0  0  0  0
    2.2290   -1.2588    1.5587 O   0  0  0  0  0  0  0  0  0  0  0  0
    1.4866    0.4509   -0.5704 C   0  0  0  0  0  0  0  0  0  0  0  0
    1.2697    1.2095    0.7245 C   0  0  0  0  0  0  0  0  0  0  0  0
   -1.6974   -1.0436   -1.6445 H   0  0  0  0  0  0  0  0  0  0  0  0
   -1.8019   -2.0979   -0.1793 H   0  0  0  0  0  0  0  0  0  0  0  0
   -0.2378   -1.8908   -0.9909 H   0  0  0  0  0  0  0  0  0  0  0  0
   -1.4920   -0.2501    1.0725 H   0  0  0  0  0  0  0  0  0  0  0  0
   -2.4168    0.8604   -0.9509 H   0  0  0  0  0  0  0  0  0  0  0  0
   -1.6262    1.9147    0.2529 H   0  0  0  0  0  0  0  0  0  0  0  0
   -0.8168    1.5125   -1.3401 H   0  0  0  0  0  0  0  0  0  0  0  0
    0.4169   -2.0472    1.5432 H   0  0  0  0  0  0  0  0  0  0  0  0
    1.1536    1.0042   -1.4572 H   0  0  0  0  0  0  0  0  0  0  0  0
    2.4428   -0.0828   -0.7224 H   0  0  0  0  0  0  0  0  0  0  0  0
    0.7639    2.1859    0.6959 H   0  0  0  0  0  0  0  0  0  0  0  0
    2.1576    1.1990    1.3890 H   0  0  0  0  0  0  0  0  0  0  0  0
  1  2  1  0
  2  3  1  0
  2  4  1  0
  4  5  1  0
  5  6  2  0
  4  7  1  0
  7  8  1  0
  8  4  1  0
  1  9  1  0
  1 10  1  0
  1 11  1  0
  2 12  1  0
  3 13  1  0
  3 14  1  0
  3 15  1  0
  5 16  1  0
  7 17  1  0
  7 18  1  0
  8 19  1  0
  8 20  1  0
M  END
