
     RDKit          3D

 25 25  0  0  0  0  0  0  0  0999 V2000
   -1.6569    0.3542    1.2758 C   0  0  0  0  0  0  0  0  0  0  0  0
   -1.4477   -0.1454   -0.0902 C   0  0  0  0  0  0  0  0  0  0  0  0
   -2.1215    0.7970   -1.0882 C   0  0  0  0  0  0  0  0  0  0  0  0
   -0.0769   -0.4746   -0.5189 C   0  0  0  0  0  0  0  0  0  0  0  0
   -0.0440   -0.9422   -1.8593 O   0  0  0  0  0  0  0  0  0  0  0  0
    0.6766   -1.3951    0.4598 C   0  0  0  0  0  0  0  0  0  0  0  0
    1.1716   -0.0213    0.0267 C   0  0  0  0  0  0  0  0  0  0  0  0
    2.4147   -0.0943   -0.8642 C   0  0  0  0  0  0  0  0  0  0  0  0
    1.3213    0.9447    1.1654 C   0  0  0  0  0  0  0  0  0  0  0  0
   -1.2923    1.3725    1.4867 H   0  0  0  0  0  0  0  0  0  0  0  0
   -2.7764    0.4151    1.4358 H   0  0  0  0  0  0  0  0  0  0  0  0
   -1.3205   -0.4027    2.0175 H   0  0  0  0  0  0  0  0  0  0  0  0
   -2.0481   -1.1032   -0.1760 H   0  0  0  0  0  0  0  0  0  0  0  0
   -3.2051    0.5302   -1.2135 H   0  0  0  0  0  0  0  0  0  0  0  0
   -2.1047    1.8257   -0.7102 H   0  0  0  0  0  0  0  0  0  0  0  0
   -1.6440    0.7074   -2.0780 H   0  0  0  0  0  0  0  0  0  0  0  0
    0.3847   -1.8280   -1.9078 H   0  0  0  0  0  0  0  0  0  0  0  0
    1.1629   -2.2964    0.0355 H   0  0  0  0  0  0  0  0  0  0  0  0
    0.2841   -1.5316    1.4649 H   0  0  0  0  0  0  0  0  0  0  0  0
    2.2972   -0.9106   -1.6179 H   0  0  0  0  0  0  0  0  0  0  0  0
    2.4639    0.8648   -1.4379 H   0  0  0  0  0  0  0  0  0  0  0  0
    3.3175   -0.2423   -0.2337 H   0  0  0  0  0  0  0  0  0  0  0  0
    0.9601    1.9396    0.8879 H   0  0  0  0  0  0  0  0  0  0  0  0
    0.8733    0.5607    2.1232 H   0  0  0  0  0  0  0  0  0  0  0  0
    2.4103    1.0759    1.4166 H   0  0  0  0  0  0  0  0  0  0  0  0
  1  2  1  0
  2  3  1  0
  2  4  1  0
  4  5  1  0
  4  6  1  0
  6  7  1  0
  7  8  1  0
  7  9  1  0
  7  4  1  0
  1 10  1  0
  1 11  1  0
  1 12  1  0
  2 13  1  0
  3 14  1  0
  3 15  1  0
  3 16  1  0
  5 17  1  0
  6 18  1  0
  6 19  1  0
  8 20  1  0
  8 21  1  0
  8 22  1  0
  9 23  1  0
  9 24  1  0
  9 25  1  0
M  END
