
     RDKit          3D

 25 24  0  0  0  0  0  0  0  0999 V2000
    0.2428    1.9728    0.3686 C   0  0  0  0  0  0  0  0  0  0  0  0
    0.4111    0.4716    0.6055 C   0  0  0  0  0  0  0  0  0  0  0  0
    1.8331    0.1783    0.2725 C   0  0  0  0  0  0  0  0  0  0  0  0
    2.2957   -1.1883    0.4112 C   0  0  0  0  0  0  0  0  0  0  0  0
    2.5083   -1.6908    1.5105 O   0  0  0  0  0  0  0  0  0  0  0  0
   -0.6235   -0.2693   -0.1586 C   0  0  0  0  0  0  0  0  0  0  0  0
   -0.5915   -0.0888   -1.6480 C   0  0  0  0  0  0  0  0  0  0  0  0
   -1.9567    0.3942    0.2774 C   0  0  0  0  0  0  0  0  0  0  0  0
   -0.7935   -1.7061    0.1977 C   0  0  0  0  0  0  0  0  0  0  0  0
    0.2441    2.2528   -0.6799 H   0  0  0  0  0  0  0  0  0  0  0  0
    1.1600    2.4395    0.8328 H   0  0  0  0  0  0  0  0  0  0  0  0
   -0.5978    2.3776    0.9690 H   0  0  0  0  0  0  0  0  0  0  0  0
    0.2415    0.2955    1.6810 H   0  0  0  0  0  0  0  0  0  0  0  0
    2.4529    0.8655    0.9196 H   0  0  0  0  0  0  0  0  0  0  0  0
    2.0600    0.5437   -0.7733 H   0  0  0  0  0  0  0  0  0  0  0  0
    2.4830   -1.8473   -0.4370 H   0  0  0  0  0  0  0  0  0  0  0  0
   -0.0844   -0.9469   -2.1523 H   0  0  0  0  0  0  0  0  0  0  0  0
   -1.6401   -0.1165   -2.0565 H   0  0  0  0  0  0  0  0  0  0  0  0
   -0.1491    0.8313   -2.0164 H   0  0  0  0  0  0  0  0  0  0  0  0
   -2.0159    1.4187   -0.1400 H   0  0  0  0  0  0  0  0  0  0  0  0
   -2.7501   -0.1889   -0.2075 H   0  0  0  0  0  0  0  0  0  0  0  0
   -2.0182    0.3262    1.3610 H   0  0  0  0  0  0  0  0  0  0  0  0
    0.0977   -2.2915    0.3674 H   0  0  0  0  0  0  0  0  0  0  0  0
   -1.4356   -1.8234    1.1098 H   0  0  0  0  0  0  0  0  0  0  0  0
   -1.3739   -2.2099   -0.6144 H   0  0  0  0  0  0  0  0  0  0  0  0
  1  2  1  0
  2  3  1  0
  3  4  1  0
  4  5  2  0
  2  6  1  0
  6  7  1  0
  6  8  1  0
  6  9  1  0
  1 10  1  0
  1 11  1  0
  1 12  1  0
  2 13  1  0
  3 14  1  0
  3 15  1  0
  4 16  1  0
  7 17  1  0
  7 18  1  0
  7 19  1  0
  8 20  1  0
  8 21  1  0
  8 22  1  0
  9 23  1  0
  9 24  1  0
  9 25  1  0
M  END
