
     RDKit          3D

 27 27  0  0  0  0  0  0  0  0999 V2000
   -1.8592    0.8858    0.7700 C   0  0  0  0  0  0  0  0  0  0  0  0
   -1.5983   -0.4948    0.1972 C   0  0  0  0  0  0  0  0  0  0  0  0
   -2.7766   -0.8224   -0.6989 C   0  0  0  0  0  0  0  0  0  0  0  0
   -0.3624   -0.5477   -0.6421 C   0  0  0  0  0  0  0  0  0  0  0  0
    0.8987   -0.1811    0.0907 C   0  0  0  0  0  0  0  0  0  0  0  0
    1.2213   -1.0621    1.2711 C   0  0  0  0  0  0  0  0  0  0  0  0
    1.1667    1.2732    0.2834 C   0  0  0  0  0  0  0  0  0  0  0  0
    2.3835    1.2478   -0.6239 C   0  0  0  0  0  0  0  0  0  0  0  0
    2.0698   -0.2131   -0.8939 C   0  0  0  0  0  0  0  0  0  0  0  0
   -1.1028    1.1474    1.5594 H   0  0  0  0  0  0  0  0  0  0  0  0
   -1.9308    1.6511   -0.0187 H   0  0  0  0  0  0  0  0  0  0  0  0
   -2.8379    0.8821    1.2937 H   0  0  0  0  0  0  0  0  0  0  0  0
   -1.4825   -1.2318    1.0152 H   0  0  0  0  0  0  0  0  0  0  0  0
   -2.4902   -0.7404   -1.7854 H   0  0  0  0  0  0  0  0  0  0  0  0
   -3.1912   -1.8200   -0.4679 H   0  0  0  0  0  0  0  0  0  0  0  0
   -3.6149   -0.1019   -0.5737 H   0  0  0  0  0  0  0  0  0  0  0  0
   -0.4583    0.0311   -1.5714 H   0  0  0  0  0  0  0  0  0  0  0  0
   -0.2377   -1.6158   -0.9596 H   0  0  0  0  0  0  0  0  0  0  0  0
    0.4182   -1.1086    2.0070 H   0  0  0  0  0  0  0  0  0  0  0  0
    1.4655   -2.1089    0.9347 H   0  0  0  0  0  0  0  0  0  0  0  0
    2.1255   -0.6397    1.7638 H   0  0  0  0  0  0  0  0  0  0  0  0
    0.4430    1.9917   -0.0885 H   0  0  0  0  0  0  0  0  0  0  0  0
    1.4114    1.5166    1.3530 H   0  0  0  0  0  0  0  0  0  0  0  0
    3.3418    1.4585   -0.1546 H   0  0  0  0  0  0  0  0  0  0  0  0
    2.2702    1.8498   -1.5516 H   0  0  0  0  0  0  0  0  0  0  0  0
    1.8048   -0.4171   -1.9300 H   0  0  0  0  0  0  0  0  0  0  0  0
    2.9222   -0.8296   -0.5791 H   0  0  0  0  0  0  0  0  0  0  0  0
  1  2  1  0
  2  3  1  0
  2  4  1  0
  4  5  1  0
  5  6  1  0
  5  7  1  0
  7  8  1  0
  8  9  1  0
  9  5  1  0
  1 10  1  0
  1 11  1  0
  1 12  1  0
  2 13  1  0
  3 14  1  0
  3 15  1  0
  3 16  1  0
  4 17  1  0
  4 18  1  0
  6 19  1  0
  6 20  1  0
  6 21  1  0
  7 22  1  0
  7 23  1  0
  8 24  1  0
  8 25  1  0
  9 26  1  0
  9 27  1  0
M  END
