
     RDKit          3D

 19 19  0  0  0  0  0  0  0  0999 V2000
    0.0183    1.7560    0.2397 C   0  0  0  0  0  0  0  0  0  0  0  0
    0.4107    0.4863   -0.5066 C   0  0  0  0  0  0  0  0  0  0  0  0
    1.7110   -0.0245    0.1022 C   0  0  0  0  0  0  0  0  0  0  0  0
    2.1432   -1.1785   -0.5158 O   0  0  0  0  0  0  0  0  0  0  0  0
   -0.6575   -0.5385   -0.2089 C   0  0  0  0  0  0  0  0  0  0  0  0
   -0.8158   -0.8691    1.2244 C   0  0  0  0  0  0  0  0  0  0  0  0
   -1.6570   -1.6905    1.5568 O   0  0  0  0  0  0  0  0  0  0  0  0
   -1.8665   -0.5047   -1.0315 C   0  0  0  0  0  0  0  0  0  0  0  0
   -0.8494   -1.5884   -1.1003 O   0  0  0  0  0  0  0  0  0  0  0  0
   -0.7232    1.5280    1.0501 H   0  0  0  0  0  0  0  0  0  0  0  0
   -0.4224    2.4798   -0.4752 H   0  0  0  0  0  0  0  0  0  0  0  0
    0.9252    2.1971    0.6504 H   0  0  0  0  0  0  0  0  0  0  0  0
    0.5198    0.6745   -1.5879 H   0  0  0  0  0  0  0  0  0  0  0  0
    1.6023   -0.2165    1.1854 H   0  0  0  0  0  0  0  0  0  0  0  0
    2.5205    0.7366   -0.0006 H   0  0  0  0  0  0  0  0  0  0  0  0
    2.0479   -1.9688    0.0566 H   0  0  0  0  0  0  0  0  0  0  0  0
   -0.2370   -0.4367    2.0299 H   0  0  0  0  0  0  0  0  0  0  0  0
   -1.8347    0.0225   -2.0139 H   0  0  0  0  0  0  0  0  0  0  0  0
   -2.8351   -0.8648   -0.6549 H   0  0  0  0  0  0  0  0  0  0  0  0
  1  2  1  0
  2  3  1  0
  3  4  1  0
  2  5  1  0
  5  6  1  0
  6  7  2  0
  5  8  1  0
  8  9  1  0
  9  5  1  0
  1 10  1  0
  1 11  1  0
  1 12  1  0
  2 13  1  0
  3 14  1  0
  3 15  1  0
  4 16  1  0
  6 17  1  0
  8 18  1  0
  8 19  1  0
M  END
