
     RDKit          3D

 21 22  0  0  0  0  0  0  0  0999 V2000
   -1.4823    0.5774    1.3247 C   0  0  0  0  0  0  0  0  0  0  0  0
   -0.9145   -0.2957    0.2268 C   0  0  0  0  0  0  0  0  0  0  0  0
   -1.8537   -0.3871   -0.9457 C   0  0  0  0  0  0  0  0  0  0  0  0
    0.4509    0.1978   -0.1320 C   0  0  0  0  0  0  0  0  0  0  0  0
    0.4760    1.5001   -0.5865 O   0  0  0  0  0  0  0  0  0  0  0  0
    1.5178   -0.2148    0.8224 C   0  0  0  0  0  0  0  0  0  0  0  0
    2.5079   -0.0062   -0.2797 C   0  0  0  0  0  0  0  0  0  0  0  0
    1.3512   -0.7630   -0.8416 C   0  0  0  0  0  0  0  0  0  0  0  0
    1.3625   -1.5042    0.3313 O   0  0  0  0  0  0  0  0  0  0  0  0
   -1.9427    1.4968    0.9211 H   0  0  0  0  0  0  0  0  0  0  0  0
   -0.6392    0.8623    1.9932 H   0  0  0  0  0  0  0  0  0  0  0  0
   -2.2290    0.0296    1.9365 H   0  0  0  0  0  0  0  0  0  0  0  0
   -0.8311   -1.3322    0.6474 H   0  0  0  0  0  0  0  0  0  0  0  0
   -1.3220   -0.9189   -1.7676 H   0  0  0  0  0  0  0  0  0  0  0  0
   -2.7360   -0.9858   -0.5996 H   0  0  0  0  0  0  0  0  0  0  0  0
   -2.2119    0.6009   -1.2529 H   0  0  0  0  0  0  0  0  0  0  0  0
   -0.4283    1.7266   -0.9545 H   0  0  0  0  0  0  0  0  0  0  0  0
    1.6189    0.0514    1.7889 H   0  0  0  0  0  0  0  0  0  0  0  0
    2.6086    1.0499   -0.6308 H   0  0  0  0  0  0  0  0  0  0  0  0
    3.4509   -0.5659   -0.2236 H   0  0  0  0  0  0  0  0  0  0  0  0
    1.2458   -1.1189   -1.7778 H   0  0  0  0  0  0  0  0  0  0  0  0
  1  2  1  0
  2  3  1  0
  2  4  1  0
  4  5  1  0
  4  6  1  0
  6  7  1  0
  7  8  1  0
  8  9  1  0
  8  4  1  0
  9  6  1  0
  1 10  1  0
  1 11  1  0
  1 12  1  0
  2 13  1  0
  3 14  1  0
  3 15  1  0
  3 16  1  0
  5 17  1  0
  6 18  1  0
  7 19  1  0
  7 20  1  0
  8 21  1  0
M  END
