
     RDKit          3D

 18 17  0  0  0  0  0  0  0  0999 V2000
    0.2494    1.2644   -0.8983 C   0  0  0  0  0  0  0  0  0  0  0  0
    0.0193    0.1942    0.1425 C   0  0  0  0  0  0  0  0  0  0  0  0
    0.5894    0.6562    1.4290 C   0  0  0  0  0  0  0  0  0  0  0  0
   -0.1192    1.1378    2.2975 O   0  0  0  0  0  0  0  0  0  0  0  0
   -1.4579   -0.0940    0.2395 C   0  0  0  0  0  0  0  0  0  0  0  0
   -1.9227   -0.5308   -0.9849 O   0  0  0  0  0  0  0  0  0  0  0  0
    0.7243   -1.0986   -0.2496 C   0  0  0  0  0  0  0  0  0  0  0  0
    2.0995   -0.9096   -0.3722 O   0  0  0  0  0  0  0  0  0  0  0  0
   -0.7171    1.6553   -1.3039 H   0  0  0  0  0  0  0  0  0  0  0  0
    0.8056    0.8441   -1.7522 H   0  0  0  0  0  0  0  0  0  0  0  0
    0.7982    2.1353   -0.4836 H   0  0  0  0  0  0  0  0  0  0  0  0
    1.6643    0.5430    1.5542 H   0  0  0  0  0  0  0  0  0  0  0  0
   -2.0065    0.8393    0.5059 H   0  0  0  0  0  0  0  0  0  0  0  0
   -1.7048   -0.8387    0.9971 H   0  0  0  0  0  0  0  0  0  0  0  0
   -2.3215   -1.4428   -0.9455 H   0  0  0  0  0  0  0  0  0  0  0  0
    0.2540   -1.4385   -1.1883 H   0  0  0  0  0  0  0  0  0  0  0  0
    0.5677   -1.8906    0.5079 H   0  0  0  0  0  0  0  0  0  0  0  0
    2.4778   -1.0258    0.5361 H   0  0  0  0  0  0  0  0  0  0  0  0
  1  2  1  0
  2  3  1  0
  3  4  2  0
  2  5  1  0
  5  6  1  0
  2  7  1  0
  7  8  1  0
  1  9  1  0
  1 10  1  0
  1 11  1  0
  3 12  1  0
  5 13  1  0
  5 14  1  0
  6 15  1  0
  7 16  1  0
  7 17  1  0
  8 18  1  0
M  END
