
     RDKit          3D

 21 21  0  0  0  0  0  0  0  0999 V2000
   -1.6480   -0.6778    0.5895 C   0  0  0  0  0  0  0  0  0  0  0  0
   -0.9725    0.0594   -0.5485 C   0  0  0  0  0  0  0  0  0  0  0  0
   -1.5099    1.4404   -0.5986 C   0  0  0  0  0  0  0  0  0  0  0  0
    0.5094   -0.0552   -0.4800 C   0  0  0  0  0  0  0  0  0  0  0  0
    1.0366   -1.4602   -0.5472 C   0  0  0  0  0  0  0  0  0  0  0  0
    1.4670   -1.3957    0.7910 O   0  0  0  0  0  0  0  0  0  0  0  0
    1.1688   -0.0364    0.8427 C   0  0  0  0  0  0  0  0  0  0  0  0
    2.4116    0.7719    0.8980 C   0  0  0  0  0  0  0  0  0  0  0  0
    3.5044    0.2355    0.8947 O   0  0  0  0  0  0  0  0  0  0  0  0
   -1.4543   -0.2282    1.5703 H   0  0  0  0  0  0  0  0  0  0  0  0
   -1.4506   -1.7694    0.5436 H   0  0  0  0  0  0  0  0  0  0  0  0
   -2.7572   -0.5609    0.4095 H   0  0  0  0  0  0  0  0  0  0  0  0
   -1.3079   -0.4682   -1.4874 H   0  0  0  0  0  0  0  0  0  0  0  0
   -1.4733    1.9719    0.3747 H   0  0  0  0  0  0  0  0  0  0  0  0
   -2.5997    1.3719   -0.8543 H   0  0  0  0  0  0  0  0  0  0  0  0
   -1.0656    2.0669   -1.4034 H   0  0  0  0  0  0  0  0  0  0  0  0
    1.0257    0.5920   -1.2135 H   0  0  0  0  0  0  0  0  0  0  0  0
    0.2899   -2.2567   -0.6613 H   0  0  0  0  0  0  0  0  0  0  0  0
    1.8643   -1.6237   -1.2781 H   0  0  0  0  0  0  0  0  0  0  0  0
    0.5489    0.1649    1.7323 H   0  0  0  0  0  0  0  0  0  0  0  0
    2.4123    1.8578    0.9433 H   0  0  0  0  0  0  0  0  0  0  0  0
  1  2  1  0
  2  3  1  0
  2  4  1  0
  4  5  1  0
  5  6  1  0
  6  7  1  0
  7  8  1  0
  8  9  2  0
  7  4  1  0
  1 10  1  0
  1 11  1  0
  1 12  1  0
  2 13  1  0
  3 14  1  0
  3 15  1  0
  3 16  1  0
  4 17  1  0
  5 18  1  0
  5 19  1  0
  7 20  1  0
  8 21  1  0
M  END
