
     RDKit          3D

 23 24  0  0  0  0  0  0  0  0999 V2000
   -1.5472   -1.2879   -0.5875 C   0  0  0  0  0  0  0  0  0  0  0  0
   -1.1413    0.1307   -0.5791 C   0  0  0  0  0  0  0  0  0  0  0  0
   -2.2276    0.9461    0.1436 C   0  0  0  0  0  0  0  0  0  0  0  0
    0.1561    0.5267   -0.0536 C   0  0  0  0  0  0  0  0  0  0  0  0
    1.4275    0.0182   -0.6391 C   0  0  0  0  0  0  0  0  0  0  0  0
    2.4165    0.8873    0.1112 C   0  0  0  0  0  0  0  0  0  0  0  0
    1.8406    0.7989    1.4058 O   0  0  0  0  0  0  0  0  0  0  0  0
    0.7141   -0.0370    1.2103 C   0  0  0  0  0  0  0  0  0  0  0  0
    1.3472   -1.1218    0.3869 C   0  0  0  0  0  0  0  0  0  0  0  0
   -1.5695   -1.7839    0.4056 H   0  0  0  0  0  0  0  0  0  0  0  0
   -2.6420   -1.3267   -0.8990 H   0  0  0  0  0  0  0  0  0  0  0  0
   -1.0678   -1.9158   -1.3822 H   0  0  0  0  0  0  0  0  0  0  0  0
   -1.2236    0.4936   -1.6493 H   0  0  0  0  0  0  0  0  0  0  0  0
   -2.2260    1.9822   -0.2457 H   0  0  0  0  0  0  0  0  0  0  0  0
   -1.9291    0.9952    1.2141 H   0  0  0  0  0  0  0  0  0  0  0  0
   -3.2024    0.4497    0.1055 H   0  0  0  0  0  0  0  0  0  0  0  0
    0.2437    1.6620    0.0252 H   0  0  0  0  0  0  0  0  0  0  0  0
    1.5532   -0.2074   -1.6480 H   0  0  0  0  0  0  0  0  0  0  0  0
    3.4277    0.4721    0.0974 H   0  0  0  0  0  0  0  0  0  0  0  0
    2.3547    1.9265   -0.2717 H   0  0  0  0  0  0  0  0  0  0  0  0
    0.1099   -0.2619    2.0391 H   0  0  0  0  0  0  0  0  0  0  0  0
    0.7724   -1.9908    0.1118 H   0  0  0  0  0  0  0  0  0  0  0  0
    2.4126   -1.3561    0.6986 H   0  0  0  0  0  0  0  0  0  0  0  0
  1  2  1  0
  2  3  1  0
  2  4  1  0
  4  5  1  0
  5  6  1  0
  6  7  1  0
  7  8  1  0
  8  9  1  0
  8  4  1  0
  9  5  1  0
  1 10  1  0
  1 11  1  0
  1 12  1  0
  2 13  1  0
  3 14  1  0
  3 15  1  0
  3 16  1  0
  4 17  1  0
  5 18  1  0
  6 19  1  0
  6 20  1  0
  8 21  1  0
  9 22  1  0
  9 23  1  0
M  END
