
     RDKit          3D

 23 23  0  0  0  0  0  0  0  0999 V2000
   -2.4504    0.4965   -0.2643 C   0  0  0  0  0  0  0  0  0  0  0  0
   -1.0225    0.0195    0.2256 C   0  0  0  0  0  0  0  0  0  0  0  0
   -0.6846    1.0953    1.2202 C   0  0  0  0  0  0  0  0  0  0  0  0
   -0.1845   -0.0903   -0.9748 C   0  0  0  0  0  0  0  0  0  0  0  0
   -0.9567   -1.0169   -1.8783 O   0  0  0  0  0  0  0  0  0  0  0  0
    1.1339   -0.7044   -1.0194 C   0  0  0  0  0  0  0  0  0  0  0  0
    2.2706   -0.2486   -0.2022 C   0  0  0  0  0  0  0  0  0  0  0  0
    2.2062   -0.3465    1.2825 C   0  0  0  0  0  0  0  0  0  0  0  0
    2.1083    0.8585    0.6480 O   0  0  0  0  0  0  0  0  0  0  0  0
   -2.3441    1.4327   -0.8166 H   0  0  0  0  0  0  0  0  0  0  0  0
   -3.0862    0.6684    0.6097 H   0  0  0  0  0  0  0  0  0  0  0  0
   -2.9008   -0.2778   -0.8900 H   0  0  0  0  0  0  0  0  0  0  0  0
   -1.1875   -0.9257    0.7236 H   0  0  0  0  0  0  0  0  0  0  0  0
   -0.2878    1.9829    0.7044 H   0  0  0  0  0  0  0  0  0  0  0  0
   -1.6994    1.4807    1.6150 H   0  0  0  0  0  0  0  0  0  0  0  0
   -0.1953    0.7849    2.1383 H   0  0  0  0  0  0  0  0  0  0  0  0
   -0.2321    0.8420   -1.5617 H   0  0  0  0  0  0  0  0  0  0  0  0
   -0.9236   -1.8902   -1.4371 H   0  0  0  0  0  0  0  0  0  0  0  0
    1.5168   -0.6620   -2.1149 H   0  0  0  0  0  0  0  0  0  0  0  0
    1.0900   -1.8426   -0.8955 H   0  0  0  0  0  0  0  0  0  0  0  0
    3.3015   -0.2126   -0.6709 H   0  0  0  0  0  0  0  0  0  0  0  0
    1.3600   -0.8352    1.7456 H   0  0  0  0  0  0  0  0  0  0  0  0
    3.1679   -0.6086    1.8126 H   0  0  0  0  0  0  0  0  0  0  0  0
  1  2  1  0
  2  3  1  0
  2  4  1  0
  4  5  1  0
  4  6  1  0
  6  7  1  0
  7  8  1  0
  8  9  1  0
  9  7  1  0
  1 10  1  0
  1 11  1  0
  1 12  1  0
  2 13  1  0
  3 14  1  0
  3 15  1  0
  3 16  1  0
  4 17  1  0
  5 18  1  0
  6 19  1  0
  6 20  1  0
  7 21  1  0
  8 22  1  0
  8 23  1  0
M  END
