
     RDKit          3D

 18 18  0  0  0  0  0  0  0  0999 V2000
   -1.7598   -0.8916    0.1451 C   0  0  0  0  0  0  0  0  0  0  0  0
   -1.0854    0.4287    0.3229 C   0  0  0  0  0  0  0  0  0  0  0  0
   -1.3108    1.3436   -0.8307 C   0  0  0  0  0  0  0  0  0  0  0  0
   -2.3908    1.8838   -1.0075 O   0  0  0  0  0  0  0  0  0  0  0  0
    0.3660    0.3255    0.7004 C   0  0  0  0  0  0  0  0  0  0  0  0
    1.2049   -0.3912   -0.2965 C   0  0  0  0  0  0  0  0  0  0  0  0
    2.6478   -0.5302    0.0114 C   0  0  0  0  0  0  0  0  0  0  0  0
    2.1565    0.3479   -1.0522 O   0  0  0  0  0  0  0  0  0  0  0  0
   -1.0836   -1.7210   -0.1199 H   0  0  0  0  0  0  0  0  0  0  0  0
   -2.5334   -0.8259   -0.6529 H   0  0  0  0  0  0  0  0  0  0  0  0
   -2.3038   -1.2231    1.0690 H   0  0  0  0  0  0  0  0  0  0  0  0
   -1.6002    0.9204    1.2011 H   0  0  0  0  0  0  0  0  0  0  0  0
   -0.5411    1.5724   -1.5593 H   0  0  0  0  0  0  0  0  0  0  0  0
    0.7513    1.3706    0.7823 H   0  0  0  0  0  0  0  0  0  0  0  0
    0.4101   -0.1607    1.6982 H   0  0  0  0  0  0  0  0  0  0  0  0
    0.7435   -1.2005   -0.8686 H   0  0  0  0  0  0  0  0  0  0  0  0
    3.0642    0.0992    0.8203 H   0  0  0  0  0  0  0  0  0  0  0  0
    3.2645   -1.3477   -0.3630 H   0  0  0  0  0  0  0  0  0  0  0  0
  1  2  1  0
  2  3  1  0
  3  4  2  0
  2  5  1  0
  5  6  1  0
  6  7  1  0
  7  8  1  0
  8  6  1  0
  1  9  1  0
  1 10  1  0
  1 11  1  0
  2 12  1  0
  3 13  1  0
  5 14  1  0
  5 15  1  0
  6 16  1  0
  7 17  1  0
  7 18  1  0
M  END
