
     RDKit          3D

 23 23  0  0  0  0  0  0  0  0999 V2000
   -1.0489   -0.7519   -1.0857 C   0  0  0  0  0  0  0  0  0  0  0  0
   -0.7456    0.0600    0.1282 C   0  0  0  0  0  0  0  0  0  0  0  0
   -1.5121    1.3586    0.1155 C   0  0  0  0  0  0  0  0  0  0  0  0
   -1.1997   -0.7104    1.3731 C   0  0  0  0  0  0  0  0  0  0  0  0
    0.7018    0.3707    0.2930 C   0  0  0  0  0  0  0  0  0  0  0  0
    1.6428   -0.8042    0.4237 C   0  0  0  0  0  0  0  0  0  0  0  0
    2.6070   -0.0117   -0.3669 C   0  0  0  0  0  0  0  0  0  0  0  0
    3.7998    0.0759   -0.4372 O   0  0  0  0  0  0  0  0  0  0  0  0
    1.4477    0.6210   -1.0283 C   0  0  0  0  0  0  0  0  0  0  0  0
   -2.1232   -1.0874   -0.9903 H   0  0  0  0  0  0  0  0  0  0  0  0
   -0.4569   -1.6647   -1.1377 H   0  0  0  0  0  0  0  0  0  0  0  0
   -0.9344   -0.0900   -1.9734 H   0  0  0  0  0  0  0  0  0  0  0  0
   -2.2839    1.4066    0.9282 H   0  0  0  0  0  0  0  0  0  0  0  0
   -0.8523    2.2447    0.3021 H   0  0  0  0  0  0  0  0  0  0  0  0
   -2.0180    1.5362   -0.8708 H   0  0  0  0  0  0  0  0  0  0  0  0
   -2.2518   -0.4487    1.6263 H   0  0  0  0  0  0  0  0  0  0  0  0
   -1.0517   -1.7930    1.2465 H   0  0  0  0  0  0  0  0  0  0  0  0
   -0.5830   -0.3800    2.2507 H   0  0  0  0  0  0  0  0  0  0  0  0
    0.9669    1.1751    0.9847 H   0  0  0  0  0  0  0  0  0  0  0  0
    1.9474   -1.0487    1.4582 H   0  0  0  0  0  0  0  0  0  0  0  0
    1.2980   -1.7257   -0.1069 H   0  0  0  0  0  0  0  0  0  0  0  0
    1.5497    1.6952   -1.2707 H   0  0  0  0  0  0  0  0  0  0  0  0
    1.1002   -0.0275   -1.8623 H   0  0  0  0  0  0  0  0  0  0  0  0
  1  2  1  0
  2  3  1  0
  2  4  1  0
  2  5  1  0
  5  6  1  0
  6  7  1  0
  7  8  2  0
  7  9  1  0
  9  5  1  0
  1 10  1  0
  1 11  1  0
  1 12  1  0
  3 13  1  0
  3 14  1  0
  3 15  1  0
  4 16  1  0
  4 17  1  0
  4 18  1  0
  5 19  1  0
  6 20  1  0
  6 21  1  0
  9 22  1  0
  9 23  1  0
M  END
