
     RDKit          3D

 23 24  0  0  0  0  0  0  0  0999 V2000
   -1.8341    0.8703   -1.0162 C   0  0  0  0  0  0  0  0  0  0  0  0
   -1.2073   -0.2941   -0.3003 C   0  0  0  0  0  0  0  0  0  0  0  0
   -2.1825   -0.7229    0.7891 C   0  0  0  0  0  0  0  0  0  0  0  0
    0.0591    0.1577    0.3526 C   0  0  0  0  0  0  0  0  0  0  0  0
    0.6625   -0.9961    1.0512 C   0  0  0  0  0  0  0  0  0  0  0  0
    1.8825   -1.2346    0.6493 C   0  0  0  0  0  0  0  0  0  0  0  0
    2.3082   -0.2786   -0.3913 C   0  0  0  0  0  0  0  0  0  0  0  0
    2.3723    1.1665   -0.1378 C   0  0  0  0  0  0  0  0  0  0  0  0
    1.1018    0.5405   -0.6448 C   0  0  0  0  0  0  0  0  0  0  0  0
   -2.2865    1.5238   -0.2314 H   0  0  0  0  0  0  0  0  0  0  0  0
   -2.6952    0.4558   -1.6169 H   0  0  0  0  0  0  0  0  0  0  0  0
   -1.1523    1.4145   -1.6775 H   0  0  0  0  0  0  0  0  0  0  0  0
   -1.0776   -1.1695   -0.9592 H   0  0  0  0  0  0  0  0  0  0  0  0
   -2.3334    0.1581    1.4506 H   0  0  0  0  0  0  0  0  0  0  0  0
   -1.8483   -1.5926    1.3484 H   0  0  0  0  0  0  0  0  0  0  0  0
   -3.1597   -0.9037    0.2616 H   0  0  0  0  0  0  0  0  0  0  0  0
   -0.1764    0.9669    1.0610 H   0  0  0  0  0  0  0  0  0  0  0  0
    0.1380   -1.5766    1.8158 H   0  0  0  0  0  0  0  0  0  0  0  0
    2.5135   -2.0405    1.0329 H   0  0  0  0  0  0  0  0  0  0  0  0
    2.8285   -0.6947   -1.2575 H   0  0  0  0  0  0  0  0  0  0  0  0
    2.9758    1.7849   -0.8154 H   0  0  0  0  0  0  0  0  0  0  0  0
    2.2988    1.5991    0.8887 H   0  0  0  0  0  0  0  0  0  0  0  0
    0.8123    0.8661   -1.6529 H   0  0  0  0  0  0  0  0  0  0  0  0
  1  2  1  0
  2  3  1  0
  2  4  1  0
  4  5  1  0
  5  6  2  0
  6  7  1  0
  7  8  1  0
  8  9  1  0
  9  4  1  0
  9  7  1  0
  1 10  1  0
  1 11  1  0
  1 12  1  0
  2 13  1  0
  3 14  1  0
  3 15  1  0
  3 16  1  0
  4 17  1  0
  5 18  1  0
  6 19  1  0
  7 20  1  0
  8 21  1  0
  8 22  1  0
  9 23  1  0
M  END
