
     RDKit          3D

 18 18  0  0  0  0  0  0  0  0999 V2000
   -0.3216   -0.5178   -1.4185 C   0  0  0  0  0  0  0  0  0  0  0  0
    0.0178   -0.6744    0.0460 C   0  0  0  0  0  0  0  0  0  0  0  0
    1.5111   -0.5693    0.2913 C   0  0  0  0  0  0  0  0  0  0  0  0
    2.0421    0.7453   -0.1470 C   0  0  0  0  0  0  0  0  0  0  0  0
    2.5948    0.9650   -1.2045 O   0  0  0  0  0  0  0  0  0  0  0  0
   -0.7098    0.4018    0.7980 C   0  0  0  0  0  0  0  0  0  0  0  0
   -2.1508    0.5226    0.7946 C   0  0  0  0  0  0  0  0  0  0  0  0
   -1.3477    0.1494    1.9973 O   0  0  0  0  0  0  0  0  0  0  0  0
   -0.5758   -1.5129   -1.8900 H   0  0  0  0  0  0  0  0  0  0  0  0
   -1.2144    0.1294   -1.5876 H   0  0  0  0  0  0  0  0  0  0  0  0
    0.4929   -0.0080   -1.9975 H   0  0  0  0  0  0  0  0  0  0  0  0
   -0.3481   -1.6978    0.3378 H   0  0  0  0  0  0  0  0  0  0  0  0
    2.0624   -1.3356   -0.2934 H   0  0  0  0  0  0  0  0  0  0  0  0
    1.6531   -0.7063    1.3865 H   0  0  0  0  0  0  0  0  0  0  0  0
    1.9124    1.5719    0.5590 H   0  0  0  0  0  0  0  0  0  0  0  0
   -0.1456    1.3753    0.8275 H   0  0  0  0  0  0  0  0  0  0  0  0
   -2.6368    1.4976    0.8771 H   0  0  0  0  0  0  0  0  0  0  0  0
   -2.8357   -0.3363    0.6233 H   0  0  0  0  0  0  0  0  0  0  0  0
  1  2  1  0
  2  3  1  0
  3  4  1  0
  4  5  2  0
  2  6  1  0
  6  7  1  0
  7  8  1  0
  8  6  1  0
  1  9  1  0
  1 10  1  0
  1 11  1  0
  2 12  1  0
  3 13  1  0
  3 14  1  0
  4 15  1  0
  6 16  1  0
  7 17  1  0
  7 18  1  0
M  END
