
     RDKit          3D

 25 24  0  0  0  0  0  0  0  0999 V2000
   -0.7087   -1.8154   -0.3346 C   0  0  0  0  0  0  0  0  0  0  0  0
   -0.0492   -0.5509    0.1771 C   0  0  0  0  0  0  0  0  0  0  0  0
    0.4263   -0.8459    1.5860 C   0  0  0  0  0  0  0  0  0  0  0  0
   -1.0735    0.5210    0.2375 C   0  0  0  0  0  0  0  0  0  0  0  0
   -1.7066    0.8377   -1.0974 C   0  0  0  0  0  0  0  0  0  0  0  0
   -2.6453    1.8683   -0.8511 O   0  0  0  0  0  0  0  0  0  0  0  0
    1.1459   -0.2793   -0.6592 C   0  0  0  0  0  0  0  0  0  0  0  0
    1.9192    0.9498   -0.2808 C   0  0  0  0  0  0  0  0  0  0  0  0
    2.3982    0.8871    1.0260 O   0  0  0  0  0  0  0  0  0  0  0  0
   -1.7128   -1.9567    0.0944 H   0  0  0  0  0  0  0  0  0  0  0  0
   -0.0970   -2.6823    0.0097 H   0  0  0  0  0  0  0  0  0  0  0  0
   -0.7144   -1.8589   -1.4524 H   0  0  0  0  0  0  0  0  0  0  0  0
    1.3974   -1.4015    1.4768 H   0  0  0  0  0  0  0  0  0  0  0  0
   -0.3334   -1.5229    2.0381 H   0  0  0  0  0  0  0  0  0  0  0  0
    0.5326    0.0780    2.1786 H   0  0  0  0  0  0  0  0  0  0  0  0
   -0.7235    1.4786    0.6615 H   0  0  0  0  0  0  0  0  0  0  0  0
   -1.8937    0.1720    0.9006 H   0  0  0  0  0  0  0  0  0  0  0  0
   -2.2938    0.0004   -1.5024 H   0  0  0  0  0  0  0  0  0  0  0  0
   -0.9776    1.2586   -1.8167 H   0  0  0  0  0  0  0  0  0  0  0  0
   -2.9328    1.8479    0.1057 H   0  0  0  0  0  0  0  0  0  0  0  0
    0.8694   -0.2904   -1.7322 H   0  0  0  0  0  0  0  0  0  0  0  0
    1.8463   -1.1447   -0.5276 H   0  0  0  0  0  0  0  0  0  0  0  0
    1.3854    1.8864   -0.4008 H   0  0  0  0  0  0  0  0  0  0  0  0
    2.8320    0.9651   -0.9358 H   0  0  0  0  0  0  0  0  0  0  0  0
    3.1095    1.5978    1.0991 H   0  0  0  0  0  0  0  0  0  0  0  0
  1  2  1  0
  2  3  1  0
  2  4  1  0
  4  5  1  0
  5  6  1  0
  2  7  1  0
  7  8  1  0
  8  9  1  0
  1 10  1  0
  1 11  1  0
  1 12  1  0
  3 13  1  0
  3 14  1  0
  3 15  1  0
  4 16  1  0
  4 17  1  0
  5 18  1  0
  5 19  1  0
  6 20  1  0
  7 21  1  0
  7 22  1  0
  8 23  1  0
  8 24  1  0
  9 25  1  0
M  END
