
     RDKit          3D

 25 25  0  0  0  0  0  0  0  0999 V2000
   -2.1214    0.6504    1.2293 C   0  0  0  0  0  0  0  0  0  0  0  0
   -1.4601    0.1943   -0.0635 C   0  0  0  0  0  0  0  0  0  0  0  0
   -2.2988    0.6190   -1.2328 C   0  0  0  0  0  0  0  0  0  0  0  0
   -0.1466    0.6402   -0.1535 O   0  0  0  0  0  0  0  0  0  0  0  0
    0.6860   -0.4573   -0.1624 C   0  0  0  0  0  0  0  0  0  0  0  0
    0.4866   -1.4363   -1.2877 C   0  0  0  0  0  0  0  0  0  0  0  0
    1.1939   -0.8940    1.1585 C   0  0  0  0  0  0  0  0  0  0  0  0
    2.1474   -0.2789    0.2230 C   0  0  0  0  0  0  0  0  0  0  0  0
    2.6665    1.1194    0.4569 C   0  0  0  0  0  0  0  0  0  0  0  0
   -1.9436   -0.0624    2.0600 H   0  0  0  0  0  0  0  0  0  0  0  0
   -1.8688    1.6953    1.4814 H   0  0  0  0  0  0  0  0  0  0  0  0
   -3.2223    0.6112    1.0320 H   0  0  0  0  0  0  0  0  0  0  0  0
   -1.5041   -0.9315   -0.0219 H   0  0  0  0  0  0  0  0  0  0  0  0
   -1.7611    1.4262   -1.7772 H   0  0  0  0  0  0  0  0  0  0  0  0
   -2.5872   -0.2195   -1.8852 H   0  0  0  0  0  0  0  0  0  0  0  0
   -3.2438    1.0801   -0.8709 H   0  0  0  0  0  0  0  0  0  0  0  0
    1.2856   -1.1979   -2.0459 H   0  0  0  0  0  0  0  0  0  0  0  0
    0.7083   -2.4941   -0.9735 H   0  0  0  0  0  0  0  0  0  0  0  0
   -0.4658   -1.3392   -1.8100 H   0  0  0  0  0  0  0  0  0  0  0  0
    1.1855   -1.9825    1.3676 H   0  0  0  0  0  0  0  0  0  0  0  0
    0.9347   -0.2896    2.0492 H   0  0  0  0  0  0  0  0  0  0  0  0
    2.9049   -0.9575   -0.2150 H   0  0  0  0  0  0  0  0  0  0  0  0
    2.5901    1.4525    1.4940 H   0  0  0  0  0  0  0  0  0  0  0  0
    2.0992    1.8161   -0.2068 H   0  0  0  0  0  0  0  0  0  0  0  0
    3.7349    1.2361    0.1544 H   0  0  0  0  0  0  0  0  0  0  0  0
  1  2  1  0
  2  3  1  0
  2  4  1  0
  4  5  1  0
  5  6  1  0
  5  7  1  0
  7  8  1  0
  8  9  1  0
  8  5  1  0
  1 10  1  0
  1 11  1  0
  1 12  1  0
  2 13  1  0
  3 14  1  0
  3 15  1  0
  3 16  1  0
  6 17  1  0
  6 18  1  0
  6 19  1  0
  7 20  1  0
  7 21  1  0
  8 22  1  0
  9 23  1  0
  9 24  1  0
  9 25  1  0
M  END
