
     RDKit          3D

 25 26  0  0  0  0  0  0  0  0999 V2000
    2.1791   -1.1169   -0.3490 C   0  0  0  0  0  0  0  0  0  0  0  0
    1.4385   -0.0057    0.3495 C   0  0  0  0  0  0  0  0  0  0  0  0
    1.8724    1.3177   -0.2089 C   0  0  0  0  0  0  0  0  0  0  0  0
   -0.0412   -0.2046    0.3594 C   0  0  0  0  0  0  0  0  0  0  0  0
   -0.4994   -1.4689    1.0499 C   0  0  0  0  0  0  0  0  0  0  0  0
   -0.8949    0.9934    0.3667 C   0  0  0  0  0  0  0  0  0  0  0  0
   -2.3983    0.8631    0.3613 C   0  0  0  0  0  0  0  0  0  0  0  0
   -2.2900    0.0243   -0.8781 C   0  0  0  0  0  0  0  0  0  0  0  0
   -0.7884    0.1426   -0.8801 C   0  0  0  0  0  0  0  0  0  0  0  0
    2.8713   -0.7015   -1.1161 H   0  0  0  0  0  0  0  0  0  0  0  0
    1.4721   -1.8092   -0.8749 H   0  0  0  0  0  0  0  0  0  0  0  0
    2.7913   -1.7304    0.3420 H   0  0  0  0  0  0  0  0  0  0  0  0
    1.7881   -0.0250    1.4231 H   0  0  0  0  0  0  0  0  0  0  0  0
    2.9745    1.2196   -0.4374 H   0  0  0  0  0  0  0  0  0  0  0  0
    1.3399    1.6126   -1.1282 H   0  0  0  0  0  0  0  0  0  0  0  0
    1.8386    2.1285    0.5755 H   0  0  0  0  0  0  0  0  0  0  0  0
   -0.0580   -1.5823    2.0597 H   0  0  0  0  0  0  0  0  0  0  0  0
   -0.1706   -2.3161    0.3946 H   0  0  0  0  0  0  0  0  0  0  0  0
   -1.6057   -1.5370    1.0818 H   0  0  0  0  0  0  0  0  0  0  0  0
   -0.4856    2.0192    0.3626 H   0  0  0  0  0  0  0  0  0  0  0  0
   -2.8980    1.8347    0.1574 H   0  0  0  0  0  0  0  0  0  0  0  0
   -2.7315    0.3467    1.2787 H   0  0  0  0  0  0  0  0  0  0  0  0
   -2.6793   -1.0067   -0.7303 H   0  0  0  0  0  0  0  0  0  0  0  0
   -2.7315    0.4549   -1.7863 H   0  0  0  0  0  0  0  0  0  0  0  0
   -0.2936    0.5471   -1.7730 H   0  0  0  0  0  0  0  0  0  0  0  0
  1  2  1  0
  2  3  1  0
  2  4  1  0
  4  5  1  0
  4  6  1  0
  6  7  1  0
  7  8  1  0
  8  9  1  0
  9  4  1  0
  9  6  1  0
  1 10  1  0
  1 11  1  0
  1 12  1  0
  2 13  1  0
  3 14  1  0
  3 15  1  0
  3 16  1  0
  5 17  1  0
  5 18  1  0
  5 19  1  0
  6 20  1  0
  7 21  1  0
  7 22  1  0
  8 23  1  0
  8 24  1  0
  9 25  1  0
M  END
