
     RDKit          3D

 17 16  0  0  0  0  0  0  0  0999 V2000
   -1.6704   -0.4098    0.6162 C   0  0  0  0  0  0  0  0  0  0  0  0
   -0.5322    0.5483    0.2812 C   0  0  0  0  0  0  0  0  0  0  0  0
   -0.6585    1.0998   -1.0774 C   0  0  0  0  0  0  0  0  0  0  0  0
   -1.2182    0.5135   -1.9828 O   0  0  0  0  0  0  0  0  0  0  0  0
    0.7643   -0.2383    0.4398 C   0  0  0  0  0  0  0  0  0  0  0  0
    1.9303    0.6548    0.1220 C   0  0  0  0  0  0  0  0  0  0  0  0
    2.2925    1.4051    0.9965 O   0  0  0  0  0  0  0  0  0  0  0  0
    0.8075   -1.4227   -0.4208 C   0  0  0  0  0  0  0  0  0  0  0  0
    0.8682   -1.3465   -1.6348 O   0  0  0  0  0  0  0  0  0  0  0  0
   -1.3913   -1.0572    1.4649 H   0  0  0  0  0  0  0  0  0  0  0  0
   -1.9220   -1.0292   -0.2465 H   0  0  0  0  0  0  0  0  0  0  0  0
   -2.5500    0.1983    0.9800 H   0  0  0  0  0  0  0  0  0  0  0  0
   -0.5287    1.3209    1.0764 H   0  0  0  0  0  0  0  0  0  0  0  0
   -0.2385    2.0719   -1.2954 H   0  0  0  0  0  0  0  0  0  0  0  0
    0.8282   -0.5335    1.5055 H   0  0  0  0  0  0  0  0  0  0  0  0
    2.4325    0.6432   -0.8307 H   0  0  0  0  0  0  0  0  0  0  0  0
    0.7862   -2.4187    0.0060 H   0  0  0  0  0  0  0  0  0  0  0  0
  1  2  1  0
  2  3  1  0
  3  4  2  0
  2  5  1  0
  5  6  1  0
  6  7  2  0
  5  8  1  0
  8  9  2  0
  1 10  1  0
  1 11  1  0
  1 12  1  0
  2 13  1  0
  3 14  1  0
  5 15  1  0
  6 16  1  0
  8 17  1  0
M  END
