
     RDKit          3D

 25 25  0  0  0  0  0  0  0  0999 V2000
    2.4726    0.9154   -0.3875 C   0  0  0  0  0  0  0  0  0  0  0  0
    1.3546   -0.0362    0.0219 C   0  0  0  0  0  0  0  0  0  0  0  0
    1.6999   -0.5443    1.3753 C   0  0  0  0  0  0  0  0  0  0  0  0
    0.0430    0.6136   -0.1403 C   0  0  0  0  0  0  0  0  0  0  0  0
   -0.1524    0.9843   -1.4761 O   0  0  0  0  0  0  0  0  0  0  0  0
   -0.8622   -0.2175   -1.6304 C   0  0  0  0  0  0  0  0  0  0  0  0
   -1.2199   -0.1048   -0.1809 C   0  0  0  0  0  0  0  0  0  0  0  0
   -1.4494   -1.3546    0.5744 C   0  0  0  0  0  0  0  0  0  0  0  0
   -2.4100    0.8233   -0.0146 C   0  0  0  0  0  0  0  0  0  0  0  0
    2.4034    1.7833    0.3056 H   0  0  0  0  0  0  0  0  0  0  0  0
    3.4680    0.4215   -0.1986 H   0  0  0  0  0  0  0  0  0  0  0  0
    2.3800    1.2281   -1.4515 H   0  0  0  0  0  0  0  0  0  0  0  0
    1.4761   -0.9055   -0.6837 H   0  0  0  0  0  0  0  0  0  0  0  0
    2.8175   -0.7276    1.3683 H   0  0  0  0  0  0  0  0  0  0  0  0
    1.2732   -1.5445    1.6150 H   0  0  0  0  0  0  0  0  0  0  0  0
    1.5489    0.1880    2.1896 H   0  0  0  0  0  0  0  0  0  0  0  0
   -0.0200    1.5451    0.4824 H   0  0  0  0  0  0  0  0  0  0  0  0
   -1.7502   -0.1471   -2.2920 H   0  0  0  0  0  0  0  0  0  0  0  0
   -0.2362   -1.0824   -1.9156 H   0  0  0  0  0  0  0  0  0  0  0  0
   -0.9574   -2.2523    0.1770 H   0  0  0  0  0  0  0  0  0  0  0  0
   -1.2067   -1.1713    1.6512 H   0  0  0  0  0  0  0  0  0  0  0  0
   -2.5392   -1.5847    0.5600 H   0  0  0  0  0  0  0  0  0  0  0  0
   -2.2445    1.5287    0.8366 H   0  0  0  0  0  0  0  0  0  0  0  0
   -3.3235    0.2051    0.1335 H   0  0  0  0  0  0  0  0  0  0  0  0
   -2.5656    1.4364   -0.9196 H   0  0  0  0  0  0  0  0  0  0  0  0
  1  2  1  0
  2  3  1  0
  2  4  1  0
  4  5  1  0
  5  6  1  0
  6  7  1  0
  7  8  1  0
  7  9  1  0
  7  4  1  0
  1 10  1  0
  1 11  1  0
  1 12  1  0
  2 13  1  0
  3 14  1  0
  3 15  1  0
  3 16  1  0
  4 17  1  0
  6 18  1  0
  6 19  1  0
  8 20  1  0
  8 21  1  0
  8 22  1  0
  9 23  1  0
  9 24  1  0
  9 25  1  0
M  END
