
     RDKit          3D

 23 22  0  0  0  0  0  0  0  0999 V2000
    2.6253    0.1115    0.2958 C   0  0  0  0  0  0  0  0  0  0  0  0
    1.2208    0.3797   -0.2814 C   0  0  0  0  0  0  0  0  0  0  0  0
    0.9421   -0.7131   -1.2723 C   0  0  0  0  0  0  0  0  0  0  0  0
    0.2391    0.4898    0.8418 C   0  0  0  0  0  0  0  0  0  0  0  0
   -1.1370    0.7720    0.4184 C   0  0  0  0  0  0  0  0  0  0  0  0
   -1.1235    1.9965   -0.2951 O   0  0  0  0  0  0  0  0  0  0  0  0
   -1.9310   -0.2690   -0.2635 C   0  0  0  0  0  0  0  0  0  0  0  0
   -2.1167   -1.5034    0.5313 C   0  0  0  0  0  0  0  0  0  0  0  0
   -1.6563   -1.6494    1.6485 O   0  0  0  0  0  0  0  0  0  0  0  0
    2.8577   -0.9716    0.2505 H   0  0  0  0  0  0  0  0  0  0  0  0
    3.3981    0.6348   -0.3300 H   0  0  0  0  0  0  0  0  0  0  0  0
    2.6079    0.4446    1.3330 H   0  0  0  0  0  0  0  0  0  0  0  0
    1.2095    1.3570   -0.8233 H   0  0  0  0  0  0  0  0  0  0  0  0
    0.5211   -0.3366   -2.2374 H   0  0  0  0  0  0  0  0  0  0  0  0
    1.9502   -1.1344   -1.5890 H   0  0  0  0  0  0  0  0  0  0  0  0
    0.4278   -1.5694   -0.8354 H   0  0  0  0  0  0  0  0  0  0  0  0
    0.5881    1.3953    1.4381 H   0  0  0  0  0  0  0  0  0  0  0  0
    0.3432   -0.3376    1.5828 H   0  0  0  0  0  0  0  0  0  0  0  0
   -1.7375    1.0724    1.3586 H   0  0  0  0  0  0  0  0  0  0  0  0
   -1.9636    2.4898   -0.1820 H   0  0  0  0  0  0  0  0  0  0  0  0
   -2.9922    0.1405   -0.4328 H   0  0  0  0  0  0  0  0  0  0  0  0
   -1.5893   -0.4681   -1.2823 H   0  0  0  0  0  0  0  0  0  0  0  0
   -2.6837   -2.3315    0.1260 H   0  0  0  0  0  0  0  0  0  0  0  0
  1  2  1  0
  2  3  1  0
  2  4  1  0
  4  5  1  0
  5  6  1  0
  5  7  1  0
  7  8  1  0
  8  9  2  0
  1 10  1  0
  1 11  1  0
  1 12  1  0
  2 13  1  0
  3 14  1  0
  3 15  1  0
  3 16  1  0
  4 17  1  0
  4 18  1  0
  5 19  1  0
  6 20  1  0
  7 21  1  0
  7 22  1  0
  8 23  1  0
M  END
