
     RDKit          3D

 23 23  0  0  0  0  0  0  0  0999 V2000
   -1.6961   -1.3258    0.0725 C   0  0  0  0  0  0  0  0  0  0  0  0
   -1.4022    0.1568    0.0608 C   0  0  0  0  0  0  0  0  0  0  0  0
   -2.7121    0.9339   -0.0163 C   0  0  0  0  0  0  0  0  0  0  0  0
   -0.6087    0.4495   -1.0196 O   0  0  0  0  0  0  0  0  0  0  0  0
    0.5896    1.0537   -0.7376 C   0  0  0  0  0  0  0  0  0  0  0  0
    1.4149    0.1615    0.1336 C   0  0  0  0  0  0  0  0  0  0  0  0
    1.7040   -1.1584   -0.5418 C   0  0  0  0  0  0  0  0  0  0  0  0
    2.9891   -1.1077    0.0321 O   0  0  0  0  0  0  0  0  0  0  0  0
    2.9218    0.2770   -0.1024 C   0  0  0  0  0  0  0  0  0  0  0  0
   -1.5802   -1.6984   -0.9657 H   0  0  0  0  0  0  0  0  0  0  0  0
   -2.7688   -1.4581    0.3533 H   0  0  0  0  0  0  0  0  0  0  0  0
   -1.0679   -1.8660    0.8076 H   0  0  0  0  0  0  0  0  0  0  0  0
   -0.9138    0.4642    1.0323 H   0  0  0  0  0  0  0  0  0  0  0  0
   -2.8185    1.6224    0.8259 H   0  0  0  0  0  0  0  0  0  0  0  0
   -3.5301    0.2204   -0.1265 H   0  0  0  0  0  0  0  0  0  0  0  0
   -2.7101    1.5578   -0.9485 H   0  0  0  0  0  0  0  0  0  0  0  0
    0.4841    2.0483   -0.2583 H   0  0  0  0  0  0  0  0  0  0  0  0
    1.1378    1.1407   -1.7189 H   0  0  0  0  0  0  0  0  0  0  0  0
    1.1266    0.0989    1.1931 H   0  0  0  0  0  0  0  0  0  0  0  0
    1.8127   -0.9982   -1.6392 H   0  0  0  0  0  0  0  0  0  0  0  0
    1.0923   -1.9958   -0.2259 H   0  0  0  0  0  0  0  0  0  0  0  0
    3.1215    0.5727   -1.1372 H   0  0  0  0  0  0  0  0  0  0  0  0
    3.4139    0.8509    0.6929 H   0  0  0  0  0  0  0  0  0  0  0  0
  1  2  1  0
  2  3  1  0
  2  4  1  0
  4  5  1  0
  5  6  1  0
  6  7  1  0
  7  8  1  0
  8  9  1  0
  9  6  1  0
  1 10  1  0
  1 11  1  0
  1 12  1  0
  2 13  1  0
  3 14  1  0
  3 15  1  0
  3 16  1  0
  5 17  1  0
  5 18  1  0
  6 19  1  0
  7 20  1  0
  7 21  1  0
  9 22  1  0
  9 23  1  0
M  END
