
     RDKit          3D

 21 21  0  0  0  0  0  0  0  0999 V2000
   -1.4854    0.8802   -1.0467 C   0  0  0  0  0  0  0  0  0  0  0  0
   -0.9124   -0.3492   -0.4147 C   0  0  0  0  0  0  0  0  0  0  0  0
   -1.9188   -1.0395    0.4193 C   0  0  0  0  0  0  0  0  0  0  0  0
   -2.6426   -1.9473   -0.0130 O   0  0  0  0  0  0  0  0  0  0  0  0
    0.3773   -0.0888    0.3269 C   0  0  0  0  0  0  0  0  0  0  0  0
    0.9827   -1.3096    0.9768 C   0  0  0  0  0  0  0  0  0  0  0  0
    0.7283    1.2261    0.8611 C   0  0  0  0  0  0  0  0  0  0  0  0
    1.3287    0.8538   -0.4406 C   0  0  0  0  0  0  0  0  0  0  0  0
    2.6673    0.4652   -0.5201 O   0  0  0  0  0  0  0  0  0  0  0  0
   -0.9600    1.0569   -2.0256 H   0  0  0  0  0  0  0  0  0  0  0  0
   -1.4582    1.7776   -0.4321 H   0  0  0  0  0  0  0  0  0  0  0  0
   -2.5403    0.6167   -1.3544 H   0  0  0  0  0  0  0  0  0  0  0  0
   -0.6497   -1.0535   -1.2529 H   0  0  0  0  0  0  0  0  0  0  0  0
   -2.0953   -0.7989    1.4730 H   0  0  0  0  0  0  0  0  0  0  0  0
    2.0863   -1.2906    0.9174 H   0  0  0  0  0  0  0  0  0  0  0  0
    0.6783   -1.2985    2.0431 H   0  0  0  0  0  0  0  0  0  0  0  0
    0.5843   -2.2418    0.5140 H   0  0  0  0  0  0  0  0  0  0  0  0
    1.4602    1.2295    1.7177 H   0  0  0  0  0  0  0  0  0  0  0  0
    0.0710    2.0975    0.8782 H   0  0  0  0  0  0  0  0  0  0  0  0
    0.9351    1.3678   -1.3366 H   0  0  0  0  0  0  0  0  0  0  0  0
    2.7631   -0.1535   -1.2910 H   0  0  0  0  0  0  0  0  0  0  0  0
  1  2  1  0
  2  3  1  0
  3  4  2  0
  2  5  1  0
  5  6  1  0
  5  7  1  0
  7  8  1  0
  8  9  1  0
  8  5  1  0
  1 10  1  0
  1 11  1  0
  1 12  1  0
  2 13  1  0
  3 14  1  0
  6 15  1  0
  6 16  1  0
  6 17  1  0
  7 18  1  0
  7 19  1  0
  8 20  1  0
  9 21  1  0
M  END
