
     RDKit          3D

 21 20  0  0  0  0  0  0  0  0999 V2000
   -1.0701   -0.8361   -1.0485 C   0  0  0  0  0  0  0  0  0  0  0  0
   -0.9655   -0.0393    0.2405 C   0  0  0  0  0  0  0  0  0  0  0  0
   -1.9475   -0.6790    1.2157 C   0  0  0  0  0  0  0  0  0  0  0  0
   -1.4391    1.3393    0.0283 C   0  0  0  0  0  0  0  0  0  0  0  0
   -2.5825    1.5369   -0.4031 O   0  0  0  0  0  0  0  0  0  0  0  0
    0.3365   -0.1148    0.7165 O   0  0  0  0  0  0  0  0  0  0  0  0
    1.1688    0.4077   -0.2686 C   0  0  0  0  0  0  0  0  0  0  0  0
    2.6222    0.3744    0.1432 C   0  0  0  0  0  0  0  0  0  0  0  0
    3.0757   -0.8947    0.3986 O   0  0  0  0  0  0  0  0  0  0  0  0
   -0.4303   -1.7270   -0.9452 H   0  0  0  0  0  0  0  0  0  0  0  0
   -0.8281   -0.1939   -1.9016 H   0  0  0  0  0  0  0  0  0  0  0  0
   -2.1281   -1.1868   -1.2133 H   0  0  0  0  0  0  0  0  0  0  0  0
   -1.9304   -0.1645    2.1935 H   0  0  0  0  0  0  0  0  0  0  0  0
   -2.9552   -0.5246    0.7744 H   0  0  0  0  0  0  0  0  0  0  0  0
   -1.7640   -1.7505    1.2652 H   0  0  0  0  0  0  0  0  0  0  0  0
   -0.8760    2.2460    0.2151 H   0  0  0  0  0  0  0  0  0  0  0  0
    1.0755   -0.2539   -1.1659 H   0  0  0  0  0  0  0  0  0  0  0  0
    0.8431    1.4419   -0.4825 H   0  0  0  0  0  0  0  0  0  0  0  0
    3.2450    0.8731   -0.6180 H   0  0  0  0  0  0  0  0  0  0  0  0
    2.7046    0.9668    1.0756 H   0  0  0  0  0  0  0  0  0  0  0  0
    3.8453   -0.8210    1.0340 H   0  0  0  0  0  0  0  0  0  0  0  0
  1  2  1  0
  2  3  1  0
  2  4  1  0
  4  5  2  0
  2  6  1  0
  6  7  1  0
  7  8  1  0
  8  9  1  0
  1 10  1  0
  1 11  1  0
  1 12  1  0
  3 13  1  0
  3 14  1  0
  3 15  1  0
  4 16  1  0
  7 17  1  0
  7 18  1  0
  8 19  1  0
  8 20  1  0
  9 21  1  0
M  END
