
     RDKit          3D

 21 22  0  0  0  0  0  0  0  0999 V2000
    1.9310   -1.1272    0.0354 C   0  0  0  0  0  0  0  0  0  0  0  0
    0.9840    0.0080    0.4610 C   0  0  0  0  0  0  0  0  0  0  0  0
    1.4946    1.2813   -0.1302 C   0  0  0  0  0  0  0  0  0  0  0  0
   -0.3689   -0.4027    0.0076 C   0  0  0  0  0  0  0  0  0  0  0  0
   -0.8498   -1.5790    0.5270 O   0  0  0  0  0  0  0  0  0  0  0  0
   -2.0758   -1.0520    0.9416 C   0  0  0  0  0  0  0  0  0  0  0  0
   -1.6082    0.2899    0.4314 C   0  0  0  0  0  0  0  0  0  0  0  0
   -1.1651    0.3001   -0.9905 C   0  0  0  0  0  0  0  0  0  0  0  0
   -0.8139    1.5026   -1.5387 O   0  0  0  0  0  0  0  0  0  0  0  0
    2.0438   -1.0759   -1.0679 H   0  0  0  0  0  0  0  0  0  0  0  0
    2.8825   -1.0110    0.5818 H   0  0  0  0  0  0  0  0  0  0  0  0
    1.4360   -2.0607    0.3667 H   0  0  0  0  0  0  0  0  0  0  0  0
    1.0588    0.0866    1.5618 H   0  0  0  0  0  0  0  0  0  0  0  0
    0.9754    2.1501    0.3248 H   0  0  0  0  0  0  0  0  0  0  0  0
    1.4939    1.2937   -1.2331 H   0  0  0  0  0  0  0  0  0  0  0  0
    2.5773    1.3654    0.1689 H   0  0  0  0  0  0  0  0  0  0  0  0
   -2.3042   -1.1245    2.0033 H   0  0  0  0  0  0  0  0  0  0  0  0
   -2.8675   -1.4470    0.2474 H   0  0  0  0  0  0  0  0  0  0  0  0
   -1.4931    1.1419    1.0974 H   0  0  0  0  0  0  0  0  0  0  0  0
   -1.7941   -0.3619   -1.6569 H   0  0  0  0  0  0  0  0  0  0  0  0
   -1.5365    1.8223   -2.1387 H   0  0  0  0  0  0  0  0  0  0  0  0
  1  2  1  0
  2  3  1  0
  2  4  1  0
  4  5  1  0
  5  6  1  0
  6  7  1  0
  7  8  1  0
  8  9  1  0
  7  4  1  0
  8  4  1  0
  1 10  1  0
  1 11  1  0
  1 12  1  0
  2 13  1  0
  3 14  1  0
  3 15  1  0
  3 16  1  0
  6 17  1  0
  6 18  1  0
  7 19  1  0
  8 20  1  0
  9 21  1  0
M  END
