
     RDKit          3D

 23 24  0  0  0  0  0  0  0  0999 V2000
   -1.3141   -0.8583   -1.2768 C   0  0  0  0  0  0  0  0  0  0  0  0
   -0.8251   -0.0856   -0.0663 C   0  0  0  0  0  0  0  0  0  0  0  0
   -1.6825   -0.4905    1.1004 C   0  0  0  0  0  0  0  0  0  0  0  0
   -1.0517    1.4020   -0.3397 C   0  0  0  0  0  0  0  0  0  0  0  0
    0.6226   -0.3818    0.2289 C   0  0  0  0  0  0  0  0  0  0  0  0
    1.6701   -0.0814   -0.8053 C   0  0  0  0  0  0  0  0  0  0  0  0
    2.6278    0.1779    0.3472 C   0  0  0  0  0  0  0  0  0  0  0  0
    1.4131    0.0194    1.2697 C   0  0  0  0  0  0  0  0  0  0  0  0
    0.8733   -1.2352    1.2700 O   0  0  0  0  0  0  0  0  0  0  0  0
   -0.6925   -1.7677   -1.4093 H   0  0  0  0  0  0  0  0  0  0  0  0
   -1.1930   -0.2667   -2.2149 H   0  0  0  0  0  0  0  0  0  0  0  0
   -2.4044   -1.1173   -1.1749 H   0  0  0  0  0  0  0  0  0  0  0  0
   -1.7983    0.3425    1.8120 H   0  0  0  0  0  0  0  0  0  0  0  0
   -1.2732   -1.3912    1.6284 H   0  0  0  0  0  0  0  0  0  0  0  0
   -2.7073   -0.8026    0.7688 H   0  0  0  0  0  0  0  0  0  0  0  0
   -2.1141    1.6418   -0.0878 H   0  0  0  0  0  0  0  0  0  0  0  0
   -0.3825    2.0197    0.2776 H   0  0  0  0  0  0  0  0  0  0  0  0
   -0.8781    1.6469   -1.4106 H   0  0  0  0  0  0  0  0  0  0  0  0
    1.4288    0.8700   -1.3346 H   0  0  0  0  0  0  0  0  0  0  0  0
    1.9521   -0.9014   -1.4783 H   0  0  0  0  0  0  0  0  0  0  0  0
    3.1003    1.1542    0.3715 H   0  0  0  0  0  0  0  0  0  0  0  0
    3.3735   -0.6373    0.4557 H   0  0  0  0  0  0  0  0  0  0  0  0
    1.2552    0.7425    2.0683 H   0  0  0  0  0  0  0  0  0  0  0  0
  1  2  1  0
  2  3  1  0
  2  4  1  0
  2  5  1  0
  5  6  1  0
  6  7  1  0
  7  8  1  0
  8  9  1  0
  8  5  1  0
  9  5  1  0
  1 10  1  0
  1 11  1  0
  1 12  1  0
  3 13  1  0
  3 14  1  0
  3 15  1  0
  4 16  1  0
  4 17  1  0
  4 18  1  0
  6 19  1  0
  6 20  1  0
  7 21  1  0
  7 22  1  0
  8 23  1  0
M  END
