
     RDKit          3D

 21 22  0  0  0  0  0  0  0  0999 V2000
   -1.4191   -1.3381   -0.0514 C   0  0  0  0  0  0  0  0  0  0  0  0
   -0.8020    0.0119    0.2481 C   0  0  0  0  0  0  0  0  0  0  0  0
   -1.8298    1.1008    0.1495 C   0  0  0  0  0  0  0  0  0  0  0  0
   -2.8385    0.8502    1.0653 O   0  0  0  0  0  0  0  0  0  0  0  0
    0.3263    0.2101   -0.7399 C   0  0  0  0  0  0  0  0  0  0  0  0
    1.0108    1.4139   -0.6063 O   0  0  0  0  0  0  0  0  0  0  0  0
    2.2037    0.6845   -0.6518 C   0  0  0  0  0  0  0  0  0  0  0  0
    2.5500   -0.0309    0.5946 C   0  0  0  0  0  0  0  0  0  0  0  0
    1.5471   -0.5974   -0.3498 C   0  0  0  0  0  0  0  0  0  0  0  0
   -2.1502   -1.6616    0.6869 H   0  0  0  0  0  0  0  0  0  0  0  0
   -0.5654   -2.0744   -0.0104 H   0  0  0  0  0  0  0  0  0  0  0  0
   -1.7979   -1.3403   -1.0954 H   0  0  0  0  0  0  0  0  0  0  0  0
   -0.4417   -0.0197    1.2894 H   0  0  0  0  0  0  0  0  0  0  0  0
   -2.2635    1.0674   -0.8624 H   0  0  0  0  0  0  0  0  0  0  0  0
   -1.3720    2.0699    0.4026 H   0  0  0  0  0  0  0  0  0  0  0  0
   -2.4853    0.4588    1.8987 H   0  0  0  0  0  0  0  0  0  0  0  0
   -0.0064    0.0698   -1.7755 H   0  0  0  0  0  0  0  0  0  0  0  0
    2.8997    0.8144   -1.4839 H   0  0  0  0  0  0  0  0  0  0  0  0
    2.1476    0.3887    1.5443 H   0  0  0  0  0  0  0  0  0  0  0  0
    3.5155   -0.5460    0.6408 H   0  0  0  0  0  0  0  0  0  0  0  0
    1.7709   -1.5320   -0.8934 H   0  0  0  0  0  0  0  0  0  0  0  0
  1  2  1  0
  2  3  1  0
  3  4  1  0
  2  5  1  0
  5  6  1  0
  6  7  1  0
  7  8  1  0
  8  9  1  0
  9  5  1  0
  9  7  1  0
  1 10  1  0
  1 11  1  0
  1 12  1  0
  2 13  1  0
  3 14  1  0
  3 15  1  0
  4 16  1  0
  5 17  1  0
  7 18  1  0
  8 19  1  0
  8 20  1  0
  9 21  1  0
M  END
