
     RDKit          3D

 20 19  0  0  0  0  0  0  0  0999 V2000
   -1.1060    1.1355   -0.7724 C   0  0  0  0  0  0  0  0  0  0  0  0
   -0.1501    0.2306   -0.0149 C   0  0  0  0  0  0  0  0  0  0  0  0
   -0.3343    0.4924    1.4343 C   0  0  0  0  0  0  0  0  0  0  0  0
   -0.5915   -1.1894   -0.3838 C   0  0  0  0  0  0  0  0  0  0  0  0
   -1.8972   -1.3992    0.0003 O   0  0  0  0  0  0  0  0  0  0  0  0
    1.2391    0.4175   -0.5230 C   0  0  0  0  0  0  0  0  0  0  0  0
    2.2626   -0.3969    0.1225 C   0  0  0  0  0  0  0  0  0  0  0  0
    3.4121   -0.2682   -0.2699 O   0  0  0  0  0  0  0  0  0  0  0  0
   -1.1196    2.1562   -0.3403 H   0  0  0  0  0  0  0  0  0  0  0  0
   -2.1236    0.6728   -0.6464 H   0  0  0  0  0  0  0  0  0  0  0  0
   -0.8286    1.2333   -1.8398 H   0  0  0  0  0  0  0  0  0  0  0  0
   -0.2892    1.6010    1.5988 H   0  0  0  0  0  0  0  0  0  0  0  0
   -1.3675    0.1906    1.7095 H   0  0  0  0  0  0  0  0  0  0  0  0
    0.3538   -0.0584    2.0989 H   0  0  0  0  0  0  0  0  0  0  0  0
    0.1380   -1.8668    0.0964 H   0  0  0  0  0  0  0  0  0  0  0  0
   -0.4754   -1.2530   -1.4933 H   0  0  0  0  0  0  0  0  0  0  0  0
   -2.0643   -2.3412    0.2879 H   0  0  0  0  0  0  0  0  0  0  0  0
    1.2942    0.2594   -1.6189 H   0  0  0  0  0  0  0  0  0  0  0  0
    1.5256    1.4961   -0.3655 H   0  0  0  0  0  0  0  0  0  0  0  0
    2.1219   -1.1122    0.9197 H   0  0  0  0  0  0  0  0  0  0  0  0
  1  2  1  0
  2  3  1  0
  2  4  1  0
  4  5  1  0
  2  6  1  0
  6  7  1  0
  7  8  2  0
  1  9  1  0
  1 10  1  0
  1 11  1  0
  3 12  1  0
  3 13  1  0
  3 14  1  0
  4 15  1  0
  4 16  1  0
  5 17  1  0
  6 18  1  0
  6 19  1  0
  7 20  1  0
M  END
