
     RDKit          3D

 19 18  0  0  0  0  0  0  0  0999 V2000
   -0.7901    1.1978   -0.7206 C   0  0  0  0  0  0  0  0  0  0  0  0
    0.0026    0.1263    0.0204 C   0  0  0  0  0  0  0  0  0  0  0  0
    0.4020    0.7295    1.3385 C   0  0  0  0  0  0  0  0  0  0  0  0
    1.1895   -0.2219   -0.8462 C   0  0  0  0  0  0  0  0  0  0  0  0
    1.9986   -1.1909   -0.2867 O   0  0  0  0  0  0  0  0  0  0  0  0
   -0.8667   -1.0755    0.2977 C   0  0  0  0  0  0  0  0  0  0  0  0
   -1.3569   -1.6485   -0.8612 O   0  0  0  0  0  0  0  0  0  0  0  0
   -0.1407    2.1017   -0.7366 H   0  0  0  0  0  0  0  0  0  0  0  0
   -0.9657    0.8726   -1.7702 H   0  0  0  0  0  0  0  0  0  0  0  0
   -1.7364    1.4399   -0.1962 H   0  0  0  0  0  0  0  0  0  0  0  0
    1.1782    1.5166    1.2398 H   0  0  0  0  0  0  0  0  0  0  0  0
   -0.5324    1.2030    1.7495 H   0  0  0  0  0  0  0  0  0  0  0  0
    0.6856   -0.0398    2.0977 H   0  0  0  0  0  0  0  0  0  0  0  0
    1.8192    0.6777   -1.0033 H   0  0  0  0  0  0  0  0  0  0  0  0
    0.8437   -0.5353   -1.8487 H   0  0  0  0  0  0  0  0  0  0  0  0
    2.5510   -0.8748    0.4440 H   0  0  0  0  0  0  0  0  0  0  0  0
   -1.7126   -0.7041    0.9360 H   0  0  0  0  0  0  0  0  0  0  0  0
   -0.2564   -1.7829    0.9002 H   0  0  0  0  0  0  0  0  0  0  0  0
   -2.3125   -1.7913   -0.7542 H   0  0  0  0  0  0  0  0  0  0  0  0
  1  2  1  0
  2  3  1  0
  2  4  1  0
  4  5  1  0
  2  6  1  0
  6  7  1  0
  1  8  1  0
  1  9  1  0
  1 10  1  0
  3 11  1  0
  3 12  1  0
  3 13  1  0
  4 14  1  0
  4 15  1  0
  5 16  1  0
  6 17  1  0
  6 18  1  0
  7 19  1  0
M  END
