
     RDKit          3D

 21 20  0  0  0  0  0  0  0  0999 V2000
   -0.9126    1.4109   -0.7327 C   0  0  0  0  0  0  0  0  0  0  0  0
   -0.9742   -0.0472   -0.4128 C   0  0  0  0  0  0  0  0  0  0  0  0
   -1.5435   -0.1955    0.9844 C   0  0  0  0  0  0  0  0  0  0  0  0
    0.3025   -0.7896   -0.5968 C   0  0  0  0  0  0  0  0  0  0  0  0
    0.0467   -2.1302   -0.2498 O   0  0  0  0  0  0  0  0  0  0  0  0
    1.4370   -0.3362    0.2686 C   0  0  0  0  0  0  0  0  0  0  0  0
    1.1600   -0.4081    1.6180 O   0  0  0  0  0  0  0  0  0  0  0  0
    1.9772    0.9909   -0.1100 C   0  0  0  0  0  0  0  0  0  0  0  0
    2.3042    1.3256   -1.2291 O   0  0  0  0  0  0  0  0  0  0  0  0
   -1.9774    1.7667   -0.8341 H   0  0  0  0  0  0  0  0  0  0  0  0
   -0.4685    2.0334    0.0535 H   0  0  0  0  0  0  0  0  0  0  0  0
   -0.4571    1.5722   -1.7380 H   0  0  0  0  0  0  0  0  0  0  0  0
   -1.7197   -0.5110   -1.0950 H   0  0  0  0  0  0  0  0  0  0  0  0
   -1.4783   -1.2475    1.2915 H   0  0  0  0  0  0  0  0  0  0  0  0
   -2.6228    0.0627    0.9352 H   0  0  0  0  0  0  0  0  0  0  0  0
   -1.0715    0.5149    1.6757 H   0  0  0  0  0  0  0  0  0  0  0  0
    0.5967   -0.7641   -1.6400 H   0  0  0  0  0  0  0  0  0  0  0  0
   -0.3855   -2.6205   -0.9727 H   0  0  0  0  0  0  0  0  0  0  0  0
    2.2772   -1.0702    0.0895 H   0  0  0  0  0  0  0  0  0  0  0  0
    1.4169   -1.2851    2.0254 H   0  0  0  0  0  0  0  0  0  0  0  0
    2.0928    1.7279    0.6692 H   0  0  0  0  0  0  0  0  0  0  0  0
  1  2  1  0
  2  3  1  0
  2  4  1  0
  4  5  1  0
  4  6  1  0
  6  7  1  0
  6  8  1  0
  8  9  2  0
  1 10  1  0
  1 11  1  0
  1 12  1  0
  2 13  1  0
  3 14  1  0
  3 15  1  0
  3 16  1  0
  4 17  1  0
  5 18  1  0
  6 19  1  0
  7 20  1  0
  8 21  1  0
M  END
