
     RDKit          3D

 23 23  0  0  0  0  0  0  0  0999 V2000
   -2.0227   -1.0540   -0.0782 C   0  0  0  0  0  0  0  0  0  0  0  0
   -1.2230    0.1441   -0.4563 C   0  0  0  0  0  0  0  0  0  0  0  0
   -2.1498    1.3571   -0.3943 C   0  0  0  0  0  0  0  0  0  0  0  0
   -0.0557    0.4285    0.4222 C   0  0  0  0  0  0  0  0  0  0  0  0
    0.9693   -0.6433    0.4996 C   0  0  0  0  0  0  0  0  0  0  0  0
    1.5963   -0.9819   -0.8299 C   0  0  0  0  0  0  0  0  0  0  0  0
    2.8017   -0.2858   -0.8632 O   0  0  0  0  0  0  0  0  0  0  0  0
    2.8470    0.5038    0.2689 C   0  0  0  0  0  0  0  0  0  0  0  0
    2.0635   -0.1411    1.2196 O   0  0  0  0  0  0  0  0  0  0  0  0
   -2.8353   -1.1708   -0.8260 H   0  0  0  0  0  0  0  0  0  0  0  0
   -1.4543   -1.9975   -0.0853 H   0  0  0  0  0  0  0  0  0  0  0  0
   -2.5328   -0.9489    0.9064 H   0  0  0  0  0  0  0  0  0  0  0  0
   -0.9120    0.0380   -1.5151 H   0  0  0  0  0  0  0  0  0  0  0  0
   -3.1177    1.1530   -0.8787 H   0  0  0  0  0  0  0  0  0  0  0  0
   -2.3029    1.6457    0.6839 H   0  0  0  0  0  0  0  0  0  0  0  0
   -1.5822    2.1885   -0.8637 H   0  0  0  0  0  0  0  0  0  0  0  0
    0.4393    1.3500    0.0356 H   0  0  0  0  0  0  0  0  0  0  0  0
   -0.3832    0.6720    1.4504 H   0  0  0  0  0  0  0  0  0  0  0  0
    0.6313   -1.5543    1.0314 H   0  0  0  0  0  0  0  0  0  0  0  0
    0.9697   -0.7275   -1.6882 H   0  0  0  0  0  0  0  0  0  0  0  0
    1.8456   -2.0622   -0.8049 H   0  0  0  0  0  0  0  0  0  0  0  0
    3.8844    0.5668    0.6957 H   0  0  0  0  0  0  0  0  0  0  0  0
    2.5235    1.5199    0.0365 H   0  0  0  0  0  0  0  0  0  0  0  0
  1  2  1  0
  2  3  1  0
  2  4  1  0
  4  5  1  0
  5  6  1  0
  6  7  1  0
  7  8  1  0
  8  9  1  0
  9  5  1  0
  1 10  1  0
  1 11  1  0
  1 12  1  0
  2 13  1  0
  3 14  1  0
  3 15  1  0
  3 16  1  0
  4 17  1  0
  4 18  1  0
  5 19  1  0
  6 20  1  0
  6 21  1  0
  8 22  1  0
  8 23  1  0
M  END
