
     RDKit          3D

 23 22  0  0  0  0  0  0  0  0999 V2000
   -0.8529   -1.2465   -0.9995 C   0  0  0  0  0  0  0  0  0  0  0  0
   -0.5715   -0.1032   -0.0386 C   0  0  0  0  0  0  0  0  0  0  0  0
   -1.4083    1.0639   -0.5202 C   0  0  0  0  0  0  0  0  0  0  0  0
   -1.0207   -0.5095    1.3294 C   0  0  0  0  0  0  0  0  0  0  0  0
    0.8977    0.2406   -0.1108 C   0  0  0  0  0  0  0  0  0  0  0  0
    1.7913   -0.8928    0.2545 C   0  0  0  0  0  0  0  0  0  0  0  0
    1.1553    0.5930   -1.4486 O   0  0  0  0  0  0  0  0  0  0  0  0
    1.2228    1.4268    0.7131 C   0  0  0  0  0  0  0  0  0  0  0  0
    1.6336    2.4830    0.2536 O   0  0  0  0  0  0  0  0  0  0  0  0
   -1.9510   -1.2480   -1.1995 H   0  0  0  0  0  0  0  0  0  0  0  0
   -0.6127   -2.2293   -0.5607 H   0  0  0  0  0  0  0  0  0  0  0  0
   -0.3376   -1.0239   -1.9373 H   0  0  0  0  0  0  0  0  0  0  0  0
   -0.9397    2.0318   -0.2918 H   0  0  0  0  0  0  0  0  0  0  0  0
   -1.5338    1.0083   -1.6410 H   0  0  0  0  0  0  0  0  0  0  0  0
   -2.4291    0.9468   -0.1104 H   0  0  0  0  0  0  0  0  0  0  0  0
   -0.2641   -1.1169    1.8478 H   0  0  0  0  0  0  0  0  0  0  0  0
   -1.9565   -1.1241    1.1920 H   0  0  0  0  0  0  0  0  0  0  0  0
   -1.3302    0.3524    1.9644 H   0  0  0  0  0  0  0  0  0  0  0  0
    2.3434   -1.2882   -0.6475 H   0  0  0  0  0  0  0  0  0  0  0  0
    1.2810   -1.7685    0.6868 H   0  0  0  0  0  0  0  0  0  0  0  0
    2.5787   -0.5971    1.0086 H   0  0  0  0  0  0  0  0  0  0  0  0
    1.1970    1.5868   -1.5533 H   0  0  0  0  0  0  0  0  0  0  0  0
    1.1073    1.4145    1.8090 H   0  0  0  0  0  0  0  0  0  0  0  0
  1  2  1  0
  2  3  1  0
  2  4  1  0
  2  5  1  0
  5  6  1  0
  5  7  1  0
  5  8  1  0
  8  9  2  0
  1 10  1  0
  1 11  1  0
  1 12  1  0
  3 13  1  0
  3 14  1  0
  3 15  1  0
  4 16  1  0
  4 17  1  0
  4 18  1  0
  6 19  1  0
  6 20  1  0
  6 21  1  0
  7 22  1  0
  8 23  1  0
M  END
