
     RDKit          3D

 25 25  0  0  0  0  0  0  0  0999 V2000
   -1.6414   -1.5023   -0.3159 C   0  0  0  0  0  0  0  0  0  0  0  0
   -1.0834   -0.1215   -0.4048 C   0  0  0  0  0  0  0  0  0  0  0  0
   -1.8660    0.8225    0.5126 C   0  0  0  0  0  0  0  0  0  0  0  0
   -3.2020    0.8845    0.1743 O   0  0  0  0  0  0  0  0  0  0  0  0
    0.3607   -0.0232    0.0168 C   0  0  0  0  0  0  0  0  0  0  0  0
    0.6215   -0.4501    1.4472 C   0  0  0  0  0  0  0  0  0  0  0  0
    0.9785    1.3164   -0.3702 C   0  0  0  0  0  0  0  0  0  0  0  0
    1.4102   -0.0187   -0.9992 C   0  0  0  0  0  0  0  0  0  0  0  0
    2.8316   -0.3681   -0.7210 C   0  0  0  0  0  0  0  0  0  0  0  0
   -2.1421   -1.7061    0.6457 H   0  0  0  0  0  0  0  0  0  0  0  0
   -0.8822   -2.2750   -0.5223 H   0  0  0  0  0  0  0  0  0  0  0  0
   -2.4212   -1.5975   -1.1199 H   0  0  0  0  0  0  0  0  0  0  0  0
   -1.1669    0.2557   -1.4400 H   0  0  0  0  0  0  0  0  0  0  0  0
   -1.8064    0.4836    1.5674 H   0  0  0  0  0  0  0  0  0  0  0  0
   -1.4152    1.8335    0.4883 H   0  0  0  0  0  0  0  0  0  0  0  0
   -3.5293    1.8158    0.3749 H   0  0  0  0  0  0  0  0  0  0  0  0
    0.3840    0.4133    2.0982 H   0  0  0  0  0  0  0  0  0  0  0  0
    1.6915   -0.7053    1.5402 H   0  0  0  0  0  0  0  0  0  0  0  0
   -0.0461   -1.2965    1.7002 H   0  0  0  0  0  0  0  0  0  0  0  0
    1.6441    1.7881    0.3631 H   0  0  0  0  0  0  0  0  0  0  0  0
    0.4602    1.9815   -1.0550 H   0  0  0  0  0  0  0  0  0  0  0  0
    1.0780   -0.2170   -2.0483 H   0  0  0  0  0  0  0  0  0  0  0  0
    3.3240    0.3413    0.0073 H   0  0  0  0  0  0  0  0  0  0  0  0
    3.4338   -0.2804   -1.6496 H   0  0  0  0  0  0  0  0  0  0  0  0
    2.9841   -1.3746   -0.2901 H   0  0  0  0  0  0  0  0  0  0  0  0
  1  2  1  0
  2  3  1  0
  3  4  1  0
  2  5  1  0
  5  6  1  0
  5  7  1  0
  7  8  1  0
  8  9  1  0
  8  5  1  0
  1 10  1  0
  1 11  1  0
  1 12  1  0
  2 13  1  0
  3 14  1  0
  3 15  1  0
  4 16  1  0
  6 17  1  0
  6 18  1  0
  6 19  1  0
  7 20  1  0
  7 21  1  0
  8 22  1  0
  9 23  1  0
  9 24  1  0
  9 25  1  0
M  END
