
     RDKit          3D

 23 22  0  0  0  0  0  0  0  0999 V2000
   -2.1492    1.5146    0.0716 C   0  0  0  0  0  0  0  0  0  0  0  0
   -1.2433    0.4859   -0.5171 C   0  0  0  0  0  0  0  0  0  0  0  0
   -1.8973   -0.8646   -0.6711 C   0  0  0  0  0  0  0  0  0  0  0  0
   -2.3047   -1.3288    0.5779 O   0  0  0  0  0  0  0  0  0  0  0  0
    0.0096    0.2832    0.3553 C   0  0  0  0  0  0  0  0  0  0  0  0
    0.7698   -0.6670   -0.2590 O   0  0  0  0  0  0  0  0  0  0  0  0
    1.9383   -1.0372    0.3311 C   0  0  0  0  0  0  0  0  0  0  0  0
    2.8719    0.1431    0.4609 C   0  0  0  0  0  0  0  0  0  0  0  0
    3.1082    0.6127   -0.8408 O   0  0  0  0  0  0  0  0  0  0  0  0
   -2.6550    1.1862    0.9966 H   0  0  0  0  0  0  0  0  0  0  0  0
   -2.8630    1.8324   -0.7161 H   0  0  0  0  0  0  0  0  0  0  0  0
   -1.5466    2.4067    0.3241 H   0  0  0  0  0  0  0  0  0  0  0  0
   -0.9398    0.8182   -1.5300 H   0  0  0  0  0  0  0  0  0  0  0  0
   -1.0814   -1.5665   -1.0070 H   0  0  0  0  0  0  0  0  0  0  0  0
   -2.7010   -0.8643   -1.4184 H   0  0  0  0  0  0  0  0  0  0  0  0
   -3.2823   -1.4247    0.5363 H   0  0  0  0  0  0  0  0  0  0  0  0
   -0.2811   -0.0798    1.3605 H   0  0  0  0  0  0  0  0  0  0  0  0
    0.5035    1.2851    0.4753 H   0  0  0  0  0  0  0  0  0  0  0  0
    1.8162   -1.5624    1.3026 H   0  0  0  0  0  0  0  0  0  0  0  0
    2.4146   -1.7943   -0.3605 H   0  0  0  0  0  0  0  0  0  0  0  0
    3.8475   -0.1744    0.9365 H   0  0  0  0  0  0  0  0  0  0  0  0
    2.3828    0.9248    1.0594 H   0  0  0  0  0  0  0  0  0  0  0  0
    3.2823   -0.1288   -1.4682 H   0  0  0  0  0  0  0  0  0  0  0  0
  1  2  1  0
  2  3  1  0
  3  4  1  0
  2  5  1  0
  5  6  1  0
  6  7  1  0
  7  8  1  0
  8  9  1  0
  1 10  1  0
  1 11  1  0
  1 12  1  0
  2 13  1  0
  3 14  1  0
  3 15  1  0
  4 16  1  0
  5 17  1  0
  5 18  1  0
  7 19  1  0
  7 20  1  0
  8 21  1  0
  8 22  1  0
  9 23  1  0
M  END
