
     RDKit          3D

 23 23  0  0  0  0  0  0  0  0999 V2000
   -1.5487    1.4667   -0.0357 C   0  0  0  0  0  0  0  0  0  0  0  0
   -1.0908    0.2014   -0.7412 C   0  0  0  0  0  0  0  0  0  0  0  0
   -2.3291   -0.6321   -1.0523 C   0  0  0  0  0  0  0  0  0  0  0  0
   -0.2126   -0.5926    0.1572 C   0  0  0  0  0  0  0  0  0  0  0  0
    0.2244   -1.7759   -0.4825 O   0  0  0  0  0  0  0  0  0  0  0  0
    1.4743   -1.6144    0.1168 C   0  0  0  0  0  0  0  0  0  0  0  0
    1.1745   -0.1449    0.3928 C   0  0  0  0  0  0  0  0  0  0  0  0
    1.8492    0.7290   -0.5923 C   0  0  0  0  0  0  0  0  0  0  0  0
    3.1433    0.9992   -0.1253 O   0  0  0  0  0  0  0  0  0  0  0  0
   -0.7154    2.0907    0.2902 H   0  0  0  0  0  0  0  0  0  0  0  0
   -2.2153    2.0467   -0.7342 H   0  0  0  0  0  0  0  0  0  0  0  0
   -2.2117    1.1396    0.7881 H   0  0  0  0  0  0  0  0  0  0  0  0
   -0.6381    0.5084   -1.6865 H   0  0  0  0  0  0  0  0  0  0  0  0
   -2.2578   -1.6440   -0.5952 H   0  0  0  0  0  0  0  0  0  0  0  0
   -3.2347   -0.1623   -0.6511 H   0  0  0  0  0  0  0  0  0  0  0  0
   -2.4315   -0.7802   -2.1405 H   0  0  0  0  0  0  0  0  0  0  0  0
   -0.7528   -0.8753    1.0841 H   0  0  0  0  0  0  0  0  0  0  0  0
    1.5516   -2.2500    1.0072 H   0  0  0  0  0  0  0  0  0  0  0  0
    2.3392   -1.7490   -0.5580 H   0  0  0  0  0  0  0  0  0  0  0  0
    1.3969    0.0592    1.4596 H   0  0  0  0  0  0  0  0  0  0  0  0
    2.0054    0.1616   -1.5560 H   0  0  0  0  0  0  0  0  0  0  0  0
    1.3498    1.6552   -0.8517 H   0  0  0  0  0  0  0  0  0  0  0  0
    3.1298    1.1628    0.8673 H   0  0  0  0  0  0  0  0  0  0  0  0
  1  2  1  0
  2  3  1  0
  2  4  1  0
  4  5  1  0
  5  6  1  0
  6  7  1  0
  7  8  1  0
  8  9  1  0
  7  4  1  0
  1 10  1  0
  1 11  1  0
  1 12  1  0
  2 13  1  0
  3 14  1  0
  3 15  1  0
  3 16  1  0
  4 17  1  0
  6 18  1  0
  6 19  1  0
  7 20  1  0
  8 21  1  0
  8 22  1  0
  9 23  1  0
M  END
