
     RDKit          3D

 23 23  0  0  0  0  0  0  0  0999 V2000
   -1.6121   -0.5897    0.8338 C   0  0  0  0  0  0  0  0  0  0  0  0
   -0.9715    0.3949   -0.1363 C   0  0  0  0  0  0  0  0  0  0  0  0
   -1.2466   -0.1244   -1.5262 C   0  0  0  0  0  0  0  0  0  0  0  0
   -1.6475    1.7330    0.1032 C   0  0  0  0  0  0  0  0  0  0  0  0
    0.3581    0.5316    0.1541 O   0  0  0  0  0  0  0  0  0  0  0  0
    1.0996   -0.6195    0.0775 C   0  0  0  0  0  0  0  0  0  0  0  0
    2.1563   -0.8804    1.1174 C   0  0  0  0  0  0  0  0  0  0  0  0
    2.5139   -0.5418   -0.3179 C   0  0  0  0  0  0  0  0  0  0  0  0
    3.1872    0.6459   -0.4553 O   0  0  0  0  0  0  0  0  0  0  0  0
   -2.6730   -0.3513    0.8970 H   0  0  0  0  0  0  0  0  0  0  0  0
   -1.1548   -0.5452    1.8384 H   0  0  0  0  0  0  0  0  0  0  0  0
   -1.4172   -1.6027    0.4167 H   0  0  0  0  0  0  0  0  0  0  0  0
   -1.1896   -1.2262   -1.5882 H   0  0  0  0  0  0  0  0  0  0  0  0
   -0.5762    0.3780   -2.2812 H   0  0  0  0  0  0  0  0  0  0  0  0
   -2.2802    0.1482   -1.8400 H   0  0  0  0  0  0  0  0  0  0  0  0
   -1.1424    2.3039    0.9016 H   0  0  0  0  0  0  0  0  0  0  0  0
   -2.7164    1.6019    0.4198 H   0  0  0  0  0  0  0  0  0  0  0  0
   -1.6988    2.2986   -0.8566 H   0  0  0  0  0  0  0  0  0  0  0  0
    0.5217   -1.5217   -0.2125 H   0  0  0  0  0  0  0  0  0  0  0  0
    2.4244   -1.9086    1.4036 H   0  0  0  0  0  0  0  0  0  0  0  0
    2.3243   -0.1293    1.9066 H   0  0  0  0  0  0  0  0  0  0  0  0
    2.8893   -1.3545   -0.9757 H   0  0  0  0  0  0  0  0  0  0  0  0
    2.8513    1.3592    0.1202 H   0  0  0  0  0  0  0  0  0  0  0  0
  1  2  1  0
  2  3  1  0
  2  4  1  0
  2  5  1  0
  5  6  1  0
  6  7  1  0
  7  8  1  0
  8  9  1  0
  8  6  1  0
  1 10  1  0
  1 11  1  0
  1 12  1  0
  3 13  1  0
  3 14  1  0
  3 15  1  0
  4 16  1  0
  4 17  1  0
  4 18  1  0
  6 19  1  0
  7 20  1  0
  7 21  1  0
  8 22  1  0
  9 23  1  0
M  END
