
     RDKit          3D

 25 24  0  0  0  0  0  0  0  0999 V2000
    1.9727   -0.4298   -0.7940 C   0  0  0  0  0  0  0  0  0  0  0  0
    1.1088   -0.1406    0.4214 C   0  0  0  0  0  0  0  0  0  0  0  0
    1.5569    1.1425    1.0339 C   0  0  0  0  0  0  0  0  0  0  0  0
   -0.3561   -0.1884    0.1102 C   0  0  0  0  0  0  0  0  0  0  0  0
   -1.1023    0.1162    1.3979 C   0  0  0  0  0  0  0  0  0  0  0  0
   -0.7771    0.8793   -0.8744 C   0  0  0  0  0  0  0  0  0  0  0  0
   -2.1650    0.7418   -1.0936 O   0  0  0  0  0  0  0  0  0  0  0  0
   -0.8036   -1.5655   -0.3324 C   0  0  0  0  0  0  0  0  0  0  0  0
   -2.1472   -1.6202   -0.6209 O   0  0  0  0  0  0  0  0  0  0  0  0
    2.9947   -0.0614   -0.5293 H   0  0  0  0  0  0  0  0  0  0  0  0
    2.1086   -1.5396   -0.9422 H   0  0  0  0  0  0  0  0  0  0  0  0
    1.6632    0.0955   -1.6896 H   0  0  0  0  0  0  0  0  0  0  0  0
    1.3528   -0.9552    1.1475 H   0  0  0  0  0  0  0  0  0  0  0  0
    1.6918    1.0635    2.1525 H   0  0  0  0  0  0  0  0  0  0  0  0
    0.9131    2.0023    0.8674 H   0  0  0  0  0  0  0  0  0  0  0  0
    2.5848    1.4331    0.6675 H   0  0  0  0  0  0  0  0  0  0  0  0
   -0.9979   -0.6989    2.1362 H   0  0  0  0  0  0  0  0  0  0  0  0
   -2.1911    0.1936    1.1341 H   0  0  0  0  0  0  0  0  0  0  0  0
   -0.7584    1.0926    1.8213 H   0  0  0  0  0  0  0  0  0  0  0  0
   -0.2598    0.7857   -1.8498 H   0  0  0  0  0  0  0  0  0  0  0  0
   -0.6591    1.8865   -0.4245 H   0  0  0  0  0  0  0  0  0  0  0  0
   -2.5459    1.6193   -1.3323 H   0  0  0  0  0  0  0  0  0  0  0  0
   -0.6008   -2.3268    0.4478 H   0  0  0  0  0  0  0  0  0  0  0  0
   -0.2561   -1.9115   -1.2412 H   0  0  0  0  0  0  0  0  0  0  0  0
   -2.3271   -1.6141   -1.6136 H   0  0  0  0  0  0  0  0  0  0  0  0
  1  2  1  0
  2  3  1  0
  2  4  1  0
  4  5  1  0
  4  6  1  0
  6  7  1  0
  4  8  1  0
  8  9  1  0
  1 10  1  0
  1 11  1  0
  1 12  1  0
  2 13  1  0
  3 14  1  0
  3 15  1  0
  3 16  1  0
  5 17  1  0
  5 18  1  0
  5 19  1  0
  6 20  1  0
  6 21  1  0
  7 22  1  0
  8 23  1  0
  8 24  1  0
  9 25  1  0
M  END
