
     RDKit          3D

 16 15  0  0  0  0  0  0  0  0999 V2000
   -1.8187   -0.8237   -0.1745 C   0  0  0  0  0  0  0  0  0  0  0  0
   -0.7885    0.2663    0.1349 C   0  0  0  0  0  0  0  0  0  0  0  0
   -1.1119    1.4724   -0.6456 C   0  0  0  0  0  0  0  0  0  0  0  0
   -0.8030    2.5914   -0.2806 O   0  0  0  0  0  0  0  0  0  0  0  0
    0.5506   -0.3162   -0.1834 C   0  0  0  0  0  0  0  0  0  0  0  0
    1.6259    0.5418    0.0388 O   0  0  0  0  0  0  0  0  0  0  0  0
    2.9008    0.0784   -0.2315 C   0  0  0  0  0  0  0  0  0  0  0  0
    3.0520   -1.0972   -0.6674 O   0  0  0  0  0  0  0  0  0  0  0  0
   -1.7785   -1.5663    0.6214 H   0  0  0  0  0  0  0  0  0  0  0  0
   -1.4915   -1.3522   -1.1145 H   0  0  0  0  0  0  0  0  0  0  0  0
   -2.8081   -0.4071   -0.3852 H   0  0  0  0  0  0  0  0  0  0  0  0
   -0.8796    0.5004    1.2287 H   0  0  0  0  0  0  0  0  0  0  0  0
   -1.6443    1.3826   -1.5828 H   0  0  0  0  0  0  0  0  0  0  0  0
    0.6894   -1.2064    0.4755 H   0  0  0  0  0  0  0  0  0  0  0  0
    0.5060   -0.7164   -1.2174 H   0  0  0  0  0  0  0  0  0  0  0  0
    3.7994    0.6521   -0.0975 H   0  0  0  0  0  0  0  0  0  0  0  0
  1  2  1  0
  2  3  1  0
  3  4  2  0
  2  5  1  0
  5  6  1  0
  6  7  1  0
  7  8  2  0
  1  9  1  0
  1 10  1  0
  1 11  1  0
  2 12  1  0
  3 13  1  0
  5 14  1  0
  5 15  1  0
  7 16  1  0
M  END
