
     RDKit          3D

 21 22  0  0  0  0  0  0  0  0999 V2000
   -1.6406   -0.8278    0.9324 C   0  0  0  0  0  0  0  0  0  0  0  0
   -0.8863   -0.1850   -0.2139 C   0  0  0  0  0  0  0  0  0  0  0  0
   -1.6505    1.0555   -0.6172 C   0  0  0  0  0  0  0  0  0  0  0  0
   -0.8936   -1.0634   -1.2972 O   0  0  0  0  0  0  0  0  0  0  0  0
    0.5062    0.2038    0.1497 C   0  0  0  0  0  0  0  0  0  0  0  0
    1.6097    0.1678   -0.8830 C   0  0  0  0  0  0  0  0  0  0  0  0
    2.5716   -0.0837    0.2865 C   0  0  0  0  0  0  0  0  0  0  0  0
    1.3214   -0.1363    1.1751 C   0  0  0  0  0  0  0  0  0  0  0  0
    0.6265    1.0773    1.2172 O   0  0  0  0  0  0  0  0  0  0  0  0
   -0.9678   -1.5039    1.5241 H   0  0  0  0  0  0  0  0  0  0  0  0
   -2.0153   -0.0252    1.5674 H   0  0  0  0  0  0  0  0  0  0  0  0
   -2.4800   -1.3998    0.4935 H   0  0  0  0  0  0  0  0  0  0  0  0
   -1.6437    1.1987   -1.7137 H   0  0  0  0  0  0  0  0  0  0  0  0
   -2.7218    0.9759   -0.3096 H   0  0  0  0  0  0  0  0  0  0  0  0
   -1.2441    1.9772   -0.1320 H   0  0  0  0  0  0  0  0  0  0  0  0
   -1.4386   -0.7196   -2.0383 H   0  0  0  0  0  0  0  0  0  0  0  0
    1.5339   -0.7352   -1.5162 H   0  0  0  0  0  0  0  0  0  0  0  0
    1.8111    1.1186   -1.4004 H   0  0  0  0  0  0  0  0  0  0  0  0
    3.0831   -1.0560    0.2353 H   0  0  0  0  0  0  0  0  0  0  0  0
    3.2190    0.7831    0.5241 H   0  0  0  0  0  0  0  0  0  0  0  0
    1.2996   -0.8220    2.0162 H   0  0  0  0  0  0  0  0  0  0  0  0
  1  2  1  0
  2  3  1  0
  2  4  1  0
  2  5  1  0
  5  6  1  0
  6  7  1  0
  7  8  1  0
  8  9  1  0
  8  5  1  0
  9  5  1  0
  1 10  1  0
  1 11  1  0
  1 12  1  0
  3 13  1  0
  3 14  1  0
  3 15  1  0
  4 16  1  0
  6 17  1  0
  6 18  1  0
  7 19  1  0
  7 20  1  0
  8 21  1  0
M  END
