
     RDKit          3D

 17 17  0  0  0  0  0  0  0  0999 V2000
   -1.3523   -0.8659    0.6699 C   0  0  0  0  0  0  0  0  0  0  0  0
   -0.7756   -0.0640   -0.4634 C   0  0  0  0  0  0  0  0  0  0  0  0
   -1.6444    1.1125   -0.7118 C   0  0  0  0  0  0  0  0  0  0  0  0
   -1.2227    2.2311   -0.9409 O   0  0  0  0  0  0  0  0  0  0  0  0
    0.6117    0.4074   -0.2306 C   0  0  0  0  0  0  0  0  0  0  0  0
    1.6592   -0.6520   -0.0021 C   0  0  0  0  0  0  0  0  0  0  0  0
    2.2073    0.4111    0.8567 C   0  0  0  0  0  0  0  0  0  0  0  0
    3.3006    0.8499    1.2487 O   0  0  0  0  0  0  0  0  0  0  0  0
    0.9115    0.8095    1.1136 O   0  0  0  0  0  0  0  0  0  0  0  0
   -1.3644   -1.9551    0.3896 H   0  0  0  0  0  0  0  0  0  0  0  0
   -2.4325   -0.6084    0.8366 H   0  0  0  0  0  0  0  0  0  0  0  0
   -0.8397   -0.6874    1.6253 H   0  0  0  0  0  0  0  0  0  0  0  0
   -0.7936   -0.6796   -1.3799 H   0  0  0  0  0  0  0  0  0  0  0  0
   -2.7190    0.9553   -0.6855 H   0  0  0  0  0  0  0  0  0  0  0  0
    0.9285    1.1632   -0.9548 H   0  0  0  0  0  0  0  0  0  0  0  0
    2.2505   -0.8887   -0.9121 H   0  0  0  0  0  0  0  0  0  0  0  0
    1.2751   -1.5389    0.5569 H   0  0  0  0  0  0  0  0  0  0  0  0
  1  2  1  0
  2  3  1  0
  3  4  2  0
  2  5  1  0
  5  6  1  0
  6  7  1  0
  7  8  2  0
  7  9  1  0
  9  5  1  0
  1 10  1  0
  1 11  1  0
  1 12  1  0
  2 13  1  0
  3 14  1  0
  5 15  1  0
  6 16  1  0
  6 17  1  0
M  END
