
     RDKit          3D

 20 19  0  0  0  0  0  0  0  0999 V2000
    1.3086   -0.9538    0.4636 C   0  0  0  0  0  0  0  0  0  0  0  0
    0.6785    0.0169   -0.4893 C   0  0  0  0  0  0  0  0  0  0  0  0
    1.4284    1.3046   -0.4297 C   0  0  0  0  0  0  0  0  0  0  0  0
   -0.8041    0.1563   -0.3162 C   0  0  0  0  0  0  0  0  0  0  0  0
   -1.4609   -1.1810   -0.5375 C   0  0  0  0  0  0  0  0  0  0  0  0
   -1.2153    0.7171    1.0030 C   0  0  0  0  0  0  0  0  0  0  0  0
    2.4000   -0.9649    0.2362 H   0  0  0  0  0  0  0  0  0  0  0  0
    1.2244   -0.5305    1.4889 H   0  0  0  0  0  0  0  0  0  0  0  0
    0.8689   -1.9572    0.4099 H   0  0  0  0  0  0  0  0  0  0  0  0
    0.8343   -0.4084   -1.5233 H   0  0  0  0  0  0  0  0  0  0  0  0
    0.9498    2.0956    0.1636 H   0  0  0  0  0  0  0  0  0  0  0  0
    2.4694    1.1657   -0.0204 H   0  0  0  0  0  0  0  0  0  0  0  0
    1.6007    1.7107   -1.4675 H   0  0  0  0  0  0  0  0  0  0  0  0
   -1.1681    0.8391   -1.1117 H   0  0  0  0  0  0  0  0  0  0  0  0
   -0.8051   -1.9114   -1.0390 H   0  0  0  0  0  0  0  0  0  0  0  0
   -2.3606   -1.0774   -1.2114 H   0  0  0  0  0  0  0  0  0  0  0  0
   -1.8354   -1.6285    0.3941 H   0  0  0  0  0  0  0  0  0  0  0  0
   -0.9991    0.0338    1.8498 H   0  0  0  0  0  0  0  0  0  0  0  0
   -0.7932    1.7260    1.1557 H   0  0  0  0  0  0  0  0  0  0  0  0
   -2.3211    0.8472    0.9813 H   0  0  0  0  0  0  0  0  0  0  0  0
  1  2  1  0
  2  3  1  0
  2  4  1  0
  4  5  1  0
  4  6  1  0
  1  7  1  0
  1  8  1  0
  1  9  1  0
  2 10  1  0
  3 11  1  0
  3 12  1  0
  3 13  1  0
  4 14  1  0
  5 15  1  0
  5 16  1  0
  5 17  1  0
  6 18  1  0
  6 19  1  0
  6 20  1  0
M  END
