
     RDKit          3D

 25 25  0  0  0  0  0  0  0  0999 V2000
   -1.6202   -1.2308    0.1067 C   0  0  0  0  0  0  0  0  0  0  0  0
   -0.8060    0.0606    0.0247 C   0  0  0  0  0  0  0  0  0  0  0  0
   -1.0767    0.7871    1.3446 C   0  0  0  0  0  0  0  0  0  0  0  0
   -1.4049    0.9084   -1.0627 C   0  0  0  0  0  0  0  0  0  0  0  0
    0.6455   -0.2247   -0.1720 C   0  0  0  0  0  0  0  0  0  0  0  0
    0.9591   -0.9913   -1.4240 C   0  0  0  0  0  0  0  0  0  0  0  0
    1.4263   -0.4750    1.0832 C   0  0  0  0  0  0  0  0  0  0  0  0
    1.6763    0.7474    0.2686 C   0  0  0  0  0  0  0  0  0  0  0  0
    2.9335    0.7509   -0.3665 O   0  0  0  0  0  0  0  0  0  0  0  0
   -1.6235   -1.7908   -0.8210 H   0  0  0  0  0  0  0  0  0  0  0  0
   -1.2130   -1.8058    0.9620 H   0  0  0  0  0  0  0  0  0  0  0  0
   -2.6585   -0.9317    0.3433 H   0  0  0  0  0  0  0  0  0  0  0  0
   -0.4512    1.6736    1.4704 H   0  0  0  0  0  0  0  0  0  0  0  0
   -2.1342    1.1666    1.2441 H   0  0  0  0  0  0  0  0  0  0  0  0
   -1.0895    0.0950    2.1930 H   0  0  0  0  0  0  0  0  0  0  0  0
   -0.9575    1.9241   -1.0894 H   0  0  0  0  0  0  0  0  0  0  0  0
   -2.4809    1.0740   -0.7765 H   0  0  0  0  0  0  0  0  0  0  0  0
   -1.3606    0.3885   -2.0388 H   0  0  0  0  0  0  0  0  0  0  0  0
    2.0479   -0.9883   -1.6718 H   0  0  0  0  0  0  0  0  0  0  0  0
    0.6575   -2.0716   -1.3554 H   0  0  0  0  0  0  0  0  0  0  0  0
    0.4633   -0.4916   -2.2827 H   0  0  0  0  0  0  0  0  0  0  0  0
    2.1509   -1.3098    1.0825 H   0  0  0  0  0  0  0  0  0  0  0  0
    0.9664   -0.2853    2.0627 H   0  0  0  0  0  0  0  0  0  0  0  0
    1.4114    1.7567    0.6428 H   0  0  0  0  0  0  0  0  0  0  0  0
    3.5387    1.2638    0.2324 H   0  0  0  0  0  0  0  0  0  0  0  0
  1  2  1  0
  2  3  1  0
  2  4  1  0
  2  5  1  0
  5  6  1  0
  5  7  1  0
  7  8  1  0
  8  9  1  0
  8  5  1  0
  1 10  1  0
  1 11  1  0
  1 12  1  0
  3 13  1  0
  3 14  1  0
  3 15  1  0
  4 16  1  0
  4 17  1  0
  4 18  1  0
  6 19  1  0
  6 20  1  0
  6 21  1  0
  7 22  1  0
  7 23  1  0
  8 24  1  0
  9 25  1  0
M  END
