
     RDKit          3D

 23 23  0  0  0  0  0  0  0  0999 V2000
   -2.2962   -0.7887   -0.3521 C   0  0  0  0  0  0  0  0  0  0  0  0
   -1.3274    0.0853    0.4162 C   0  0  0  0  0  0  0  0  0  0  0  0
   -1.3866    1.4808   -0.1142 C   0  0  0  0  0  0  0  0  0  0  0  0
    0.0321   -0.5292    0.4450 C   0  0  0  0  0  0  0  0  0  0  0  0
    0.9258    0.3730    1.2084 C   0  0  0  0  0  0  0  0  0  0  0  0
    2.1525    0.6273    0.8104 C   0  0  0  0  0  0  0  0  0  0  0  0
    2.6300   -0.0175   -0.4378 C   0  0  0  0  0  0  0  0  0  0  0  0
    1.5289    0.0112   -1.3274 O   0  0  0  0  0  0  0  0  0  0  0  0
    0.6017   -0.9201   -0.8597 C   0  0  0  0  0  0  0  0  0  0  0  0
   -3.3401   -0.6429   -0.0047 H   0  0  0  0  0  0  0  0  0  0  0  0
   -2.0302   -1.8508   -0.0841 H   0  0  0  0  0  0  0  0  0  0  0  0
   -2.2061   -0.6359   -1.4590 H   0  0  0  0  0  0  0  0  0  0  0  0
   -1.7067    0.1107    1.4625 H   0  0  0  0  0  0  0  0  0  0  0  0
   -2.4589    1.7483   -0.2290 H   0  0  0  0  0  0  0  0  0  0  0  0
   -0.9526    2.2284    0.5832 H   0  0  0  0  0  0  0  0  0  0  0  0
   -0.9254    1.6117   -1.1060 H   0  0  0  0  0  0  0  0  0  0  0  0
   -0.0613   -1.4610    1.0818 H   0  0  0  0  0  0  0  0  0  0  0  0
    0.5575    0.8292    2.1108 H   0  0  0  0  0  0  0  0  0  0  0  0
    2.7647    1.2909    1.4003 H   0  0  0  0  0  0  0  0  0  0  0  0
    2.9535   -1.0605   -0.2490 H   0  0  0  0  0  0  0  0  0  0  0  0
    3.4933    0.5068   -0.8762 H   0  0  0  0  0  0  0  0  0  0  0  0
   -0.1314   -1.1119   -1.6608 H   0  0  0  0  0  0  0  0  0  0  0  0
    1.1830   -1.8850   -0.7587 H   0  0  0  0  0  0  0  0  0  0  0  0
  1  2  1  0
  2  3  1  0
  2  4  1  0
  4  5  1  0
  5  6  2  0
  6  7  1  0
  7  8  1  0
  8  9  1  0
  9  4  1  0
  1 10  1  0
  1 11  1  0
  1 12  1  0
  2 13  1  0
  3 14  1  0
  3 15  1  0
  3 16  1  0
  4 17  1  0
  5 18  1  0
  6 19  1  0
  7 20  1  0
  7 21  1  0
  9 22  1  0
  9 23  1  0
M  END
