
     RDKit          3D

 21 21  0  0  0  0  0  0  0  0999 V2000
   -1.6281   -1.5243   -0.0669 C   0  0  0  0  0  0  0  0  0  0  0  0
   -1.0923   -0.3744    0.7565 C   0  0  0  0  0  0  0  0  0  0  0  0
   -1.7677    0.9116    0.3569 C   0  0  0  0  0  0  0  0  0  0  0  0
   -1.5751    1.2366   -0.9701 O   0  0  0  0  0  0  0  0  0  0  0  0
    0.4006   -0.3325    0.5792 C   0  0  0  0  0  0  0  0  0  0  0  0
    0.7690   -0.1436   -0.7533 O   0  0  0  0  0  0  0  0  0  0  0  0
    2.1740   -0.0909   -0.6032 C   0  0  0  0  0  0  0  0  0  0  0  0
    2.2745    0.7861    0.6279 C   0  0  0  0  0  0  0  0  0  0  0  0
    1.0038    0.7377    1.2037 O   0  0  0  0  0  0  0  0  0  0  0  0
   -1.9057   -2.3976    0.5279 H   0  0  0  0  0  0  0  0  0  0  0  0
   -0.9099   -1.8433   -0.8539 H   0  0  0  0  0  0  0  0  0  0  0  0
   -2.5500   -1.2100   -0.6216 H   0  0  0  0  0  0  0  0  0  0  0  0
   -1.2905   -0.5374    1.8343 H   0  0  0  0  0  0  0  0  0  0  0  0
   -2.8694    0.7377    0.4848 H   0  0  0  0  0  0  0  0  0  0  0  0
   -1.5247    1.7473    1.0432 H   0  0  0  0  0  0  0  0  0  0  0  0
   -1.1499    2.1436   -1.0166 H   0  0  0  0  0  0  0  0  0  0  0  0
    0.8591   -1.2689    0.9231 H   0  0  0  0  0  0  0  0  0  0  0  0
    2.6367    0.3433   -1.4862 H   0  0  0  0  0  0  0  0  0  0  0  0
    2.5569   -1.1082   -0.4252 H   0  0  0  0  0  0  0  0  0  0  0  0
    3.0570    0.3816    1.2724 H   0  0  0  0  0  0  0  0  0  0  0  0
    2.5316    1.8057    0.2799 H   0  0  0  0  0  0  0  0  0  0  0  0
  1  2  1  0
  2  3  1  0
  3  4  1  0
  2  5  1  0
  5  6  1  0
  6  7  1  0
  7  8  1  0
  8  9  1  0
  9  5  1  0
  1 10  1  0
  1 11  1  0
  1 12  1  0
  2 13  1  0
  3 14  1  0
  3 15  1  0
  4 16  1  0
  5 17  1  0
  7 18  1  0
  7 19  1  0
  8 20  1  0
  8 21  1  0
M  END
