
     RDKit          3D

 17 17  0  0  0  0  0  0  0  0999 V2000
   -0.7924   -1.2934    0.4938 C   0  0  0  0  0  0  0  0  0  0  0  0
   -0.3950    0.1265    0.1805 C   0  0  0  0  0  0  0  0  0  0  0  0
   -1.0383    0.5184   -1.0960 C   0  0  0  0  0  0  0  0  0  0  0  0
   -0.7377    1.5794   -1.6042 O   0  0  0  0  0  0  0  0  0  0  0  0
   -0.9527    1.0109    1.2460 C   0  0  0  0  0  0  0  0  0  0  0  0
   -0.9111    2.2085    1.0342 O   0  0  0  0  0  0  0  0  0  0  0  0
    1.0948    0.3335    0.1651 C   0  0  0  0  0  0  0  0  0  0  0  0
    1.9932   -0.3760   -0.7352 C   0  0  0  0  0  0  0  0  0  0  0  0
    1.5607    0.9030   -1.1511 O   0  0  0  0  0  0  0  0  0  0  0  0
   -0.2087   -1.7419    1.3089 H   0  0  0  0  0  0  0  0  0  0  0  0
   -0.8561   -1.9350   -0.4142 H   0  0  0  0  0  0  0  0  0  0  0  0
   -1.8536   -1.2419    0.8772 H   0  0  0  0  0  0  0  0  0  0  0  0
   -1.7623   -0.0971   -1.5944 H   0  0  0  0  0  0  0  0  0  0  0  0
   -1.3782    0.6470    2.1676 H   0  0  0  0  0  0  0  0  0  0  0  0
    1.5592    0.9960    0.9355 H   0  0  0  0  0  0  0  0  0  0  0  0
    3.0611   -0.3976   -0.4809 H   0  0  0  0  0  0  0  0  0  0  0  0
    1.6171   -1.2404   -1.3330 H   0  0  0  0  0  0  0  0  0  0  0  0
  1  2  1  0
  2  3  1  0
  3  4  2  0
  2  5  1  0
  5  6  2  0
  2  7  1  0
  7  8  1  0
  8  9  1  0
  9  7  1  0
  1 10  1  0
  1 11  1  0
  1 12  1  0
  3 13  1  0
  5 14  1  0
  7 15  1  0
  8 16  1  0
  8 17  1  0
M  END
