
     RDKit          3D

 21 21  0  0  0  0  0  0  0  0999 V2000
   -2.7062   -1.2416    1.1646 C   0  0  0  0  0  0  0  0  0  0  0  0
   -1.8911   -0.1355    0.9968 C   0  0  0  0  0  0  0  0  0  0  0  0
   -1.6940    1.2700    1.5585 C   0  0  0  0  0  0  0  0  0  0  0  0
   -0.8488   -0.4287    0.4402 C   0  0  0  0  0  0  0  0  0  0  0  0
    0.5250   -0.8373   -0.3142 C   0  0  0  0  0  0  0  0  0  0  0  0
    2.0711   -1.2975   -1.1893 C   0  0  0  0  0  0  0  0  0  0  0  0
    1.6387   -0.3975   -2.2887 O   0  0  0  0  0  0  0  0  0  0  0  0
    2.7016   -0.1625   -1.3616 C   0  0  0  0  0  0  0  0  0  0  0  0
    2.7376    1.1805   -0.7729 C   0  0  0  0  0  0  0  0  0  0  0  0
   -3.5111   -1.5254    1.8031 H   0  0  0  0  0  0  0  0  0  0  0  0
   -3.2540   -1.3752    0.0279 H   0  0  0  0  0  0  0  0  0  0  0  0
   -1.9979   -2.2819    0.9715 H   0  0  0  0  0  0  0  0  0  0  0  0
   -2.3997    0.3645   -0.2010 H   0  0  0  0  0  0  0  0  0  0  0  0
   -0.6310    1.4762    0.9804 H   0  0  0  0  0  0  0  0  0  0  0  0
   -2.4485    1.9387    1.2752 H   0  0  0  0  0  0  0  0  0  0  0  0
   -1.3904    1.2514    2.5694 H   0  0  0  0  0  0  0  0  0  0  0  0
    1.6801   -2.2635   -1.4039 H   0  0  0  0  0  0  0  0  0  0  0  0
    3.6682   -0.2962   -2.1543 H   0  0  0  0  0  0  0  0  0  0  0  0
    1.5664    1.6148   -0.7718 H   0  0  0  0  0  0  0  0  0  0  0  0
    2.9791    1.2894    0.2432 H   0  0  0  0  0  0  0  0  0  0  0  0
    3.2048    1.8575   -1.5733 H   0  0  0  0  0  0  0  0  0  0  0  0
  1  2  1  0
  2  3  1  0
  2  4  1  0
  4  5  3  0
  5  6  1  0
  6  7  1  0
  7  8  1  0
  8  9  1  0
  8  6  1  0
  1 10  1  0
  1 11  1  0
  1 12  1  0
  2 13  1  0
  3 14  1  0
  3 15  1  0
  3 16  1  0
  6 17  1  0
  8 18  1  0
  9 19  1  0
  9 20  1  0
  9 21  1  0
M  END
