
     RDKit          3D

 21 21  0  0  0  0  0  0  0  0999 V2000
   -1.0007    1.4837   -0.0489 C   0  0  0  0  0  0  0  0  0  0  0  0
   -1.0727    0.0522   -0.4499 C   0  0  0  0  0  0  0  0  0  0  0  0
   -2.0056   -0.6598    0.5081 C   0  0  0  0  0  0  0  0  0  0  0  0
    0.2438   -0.6611   -0.4366 C   0  0  0  0  0  0  0  0  0  0  0  0
    0.9727   -0.7299    0.8575 C   0  0  0  0  0  0  0  0  0  0  0  0
    2.1171    0.0278    0.2555 C   0  0  0  0  0  0  0  0  0  0  0  0
    1.4013    0.0208   -1.0713 C   0  0  0  0  0  0  0  0  0  0  0  0
   -2.0297    1.8417    0.1666 H   0  0  0  0  0  0  0  0  0  0  0  0
   -0.6170    2.1330   -0.8804 H   0  0  0  0  0  0  0  0  0  0  0  0
   -0.4246    1.6349    0.8818 H   0  0  0  0  0  0  0  0  0  0  0  0
   -1.4601   -0.0068   -1.5035 H   0  0  0  0  0  0  0  0  0  0  0  0
   -2.7354    0.0811    0.8893 H   0  0  0  0  0  0  0  0  0  0  0  0
   -2.4806   -1.4862   -0.0583 H   0  0  0  0  0  0  0  0  0  0  0  0
   -1.3738   -1.0435    1.3342 H   0  0  0  0  0  0  0  0  0  0  0  0
    0.1124   -1.6849   -0.8781 H   0  0  0  0  0  0  0  0  0  0  0  0
    1.3284   -1.7630    1.1389 H   0  0  0  0  0  0  0  0  0  0  0  0
    0.4718   -0.2645    1.7194 H   0  0  0  0  0  0  0  0  0  0  0  0
    3.1048   -0.4776    0.2695 H   0  0  0  0  0  0  0  0  0  0  0  0
    2.2533    1.0746    0.6061 H   0  0  0  0  0  0  0  0  0  0  0  0
    1.9738   -0.5951   -1.7985 H   0  0  0  0  0  0  0  0  0  0  0  0
    1.2208    1.0226   -1.5013 H   0  0  0  0  0  0  0  0  0  0  0  0
  1  2  1  0
  2  3  1  0
  2  4  1  0
  4  5  1  0
  5  6  1  0
  6  7  1  0
  7  4  1  0
  1  8  1  0
  1  9  1  0
  1 10  1  0
  2 11  1  0
  3 12  1  0
  3 13  1  0
  3 14  1  0
  4 15  1  0
  5 16  1  0
  5 17  1  0
  6 18  1  0
  6 19  1  0
  7 20  1  0
  7 21  1  0
M  END
