
     RDKit          3D

 19 18  0  0  0  0  0  0  0  0999 V2000
    1.4388   -0.5791   -0.8146 C   0  0  0  0  0  0  0  0  0  0  0  0
    0.7613   -0.0157    0.3889 C   0  0  0  0  0  0  0  0  0  0  0  0
    1.3125    1.3199    0.6448 C   0  0  0  0  0  0  0  0  0  0  0  0
    0.7443    2.3682    0.5595 O   0  0  0  0  0  0  0  0  0  0  0  0
   -0.7342   -0.0665    0.3314 C   0  0  0  0  0  0  0  0  0  0  0  0
   -1.3179    0.6907   -0.8225 C   0  0  0  0  0  0  0  0  0  0  0  0
   -1.2477    0.5089    1.4941 O   0  0  0  0  0  0  0  0  0  0  0  0
   -1.2380   -1.4619    0.2736 C   0  0  0  0  0  0  0  0  0  0  0  0
   -0.9020   -2.1463   -0.6754 O   0  0  0  0  0  0  0  0  0  0  0  0
    1.6372   -1.6571   -0.7638 H   0  0  0  0  0  0  0  0  0  0  0  0
    2.4458   -0.0921   -0.9636 H   0  0  0  0  0  0  0  0  0  0  0  0
    0.8808   -0.3629   -1.7487 H   0  0  0  0  0  0  0  0  0  0  0  0
    1.0639   -0.6604    1.2647 H   0  0  0  0  0  0  0  0  0  0  0  0
    2.3720    1.3556    0.9503 H   0  0  0  0  0  0  0  0  0  0  0  0
   -1.0476    1.7707   -0.8164 H   0  0  0  0  0  0  0  0  0  0  0  0
   -1.0602    0.2638   -1.8130 H   0  0  0  0  0  0  0  0  0  0  0  0
   -2.4243    0.6596   -0.7478 H   0  0  0  0  0  0  0  0  0  0  0  0
   -0.8028    0.0367    2.2558 H   0  0  0  0  0  0  0  0  0  0  0  0
   -1.8819   -1.9323    1.0027 H   0  0  0  0  0  0  0  0  0  0  0  0
  1  2  1  0
  2  3  1  0
  3  4  2  0
  2  5  1  0
  5  6  1  0
  5  7  1  0
  5  8  1  0
  8  9  2  0
  1 10  1  0
  1 11  1  0
  1 12  1  0
  2 13  1  0
  3 14  1  0
  6 15  1  0
  6 16  1  0
  6 17  1  0
  7 18  1  0
  8 19  1  0
M  END
