
     RDKit          3D

 23 23  0  0  0  0  0  0  0  0999 V2000
   -2.5181   -1.2390   -0.0755 C   0  0  0  0  0  0  0  0  0  0  0  0
   -1.4042   -0.2362   -0.3675 C   0  0  0  0  0  0  0  0  0  0  0  0
   -1.9877    1.1143   -0.3456 C   0  0  0  0  0  0  0  0  0  0  0  0
   -0.3119   -0.5059    0.6058 C   0  0  0  0  0  0  0  0  0  0  0  0
    0.8841    0.3890    0.4751 C   0  0  0  0  0  0  0  0  0  0  0  0
    1.5277    0.2893   -0.8580 C   0  0  0  0  0  0  0  0  0  0  0  0
    2.8254    0.1659   -0.6839 C   0  0  0  0  0  0  0  0  0  0  0  0
    3.0774    0.1811    0.7757 C   0  0  0  0  0  0  0  0  0  0  0  0
    1.8657   -0.0680    1.3545 O   0  0  0  0  0  0  0  0  0  0  0  0
   -2.1363   -2.2521    0.0908 H   0  0  0  0  0  0  0  0  0  0  0  0
   -3.2630   -1.1524   -0.8797 H   0  0  0  0  0  0  0  0  0  0  0  0
   -2.9661   -0.9004    0.9017 H   0  0  0  0  0  0  0  0  0  0  0  0
   -1.0353   -0.4923   -1.3873 H   0  0  0  0  0  0  0  0  0  0  0  0
   -1.3114    1.9352   -0.0606 H   0  0  0  0  0  0  0  0  0  0  0  0
   -2.3568    1.3648   -1.3795 H   0  0  0  0  0  0  0  0  0  0  0  0
   -2.8883    1.2123    0.3041 H   0  0  0  0  0  0  0  0  0  0  0  0
    0.0507   -1.5530    0.4139 H   0  0  0  0  0  0  0  0  0  0  0  0
   -0.6883   -0.5195    1.6481 H   0  0  0  0  0  0  0  0  0  0  0  0
    0.7025    1.4391    0.6882 H   0  0  0  0  0  0  0  0  0  0  0  0
    1.0424    0.3110   -1.8265 H   0  0  0  0  0  0  0  0  0  0  0  0
    3.6076    0.0670   -1.4726 H   0  0  0  0  0  0  0  0  0  0  0  0
    3.7436   -0.6896    0.9948 H   0  0  0  0  0  0  0  0  0  0  0  0
    3.5405    1.1393    1.0840 H   0  0  0  0  0  0  0  0  0  0  0  0
  1  2  1  0
  2  3  1  0
  2  4  1  0
  4  5  1  0
  5  6  1  0
  6  7  2  0
  7  8  1  0
  8  9  1  0
  9  5  1  0
  1 10  1  0
  1 11  1  0
  1 12  1  0
  2 13  1  0
  3 14  1  0
  3 15  1  0
  3 16  1  0
  4 17  1  0
  4 18  1  0
  5 19  1  0
  6 20  1  0
  7 21  1  0
  8 22  1  0
  8 23  1  0
M  END
