
     RDKit          3D

 19 20  0  0  0  0  0  0  0  0999 V2000
   -1.0990   -0.1150   -1.2720 C   0  0  0  0  0  0  0  0  0  0  0  0
   -1.0192   -0.2801    0.2038 C   0  0  0  0  0  0  0  0  0  0  0  0
   -2.0222    0.5770    0.8982 C   0  0  0  0  0  0  0  0  0  0  0  0
    0.4015   -0.0684    0.7433 C   0  0  0  0  0  0  0  0  0  0  0  0
    1.4043   -0.9422    0.2435 C   0  0  0  0  0  0  0  0  0  0  0  0
    2.1217   -0.8536   -0.9885 O   0  0  0  0  0  0  0  0  0  0  0  0
    2.8225    0.1335   -0.2521 C   0  0  0  0  0  0  0  0  0  0  0  0
    4.0098    0.3481   -0.0203 O   0  0  0  0  0  0  0  0  0  0  0  0
    1.4313    0.6199   -0.0095 C   0  0  0  0  0  0  0  0  0  0  0  0
   -1.3489    0.9431   -1.5646 H   0  0  0  0  0  0  0  0  0  0  0  0
   -0.2395   -0.5060   -1.8260 H   0  0  0  0  0  0  0  0  0  0  0  0
   -1.9918   -0.7101   -1.6270 H   0  0  0  0  0  0  0  0  0  0  0  0
   -1.2397   -1.3651    0.4285 H   0  0  0  0  0  0  0  0  0  0  0  0
   -1.7139    0.7040    1.9545 H   0  0  0  0  0  0  0  0  0  0  0  0
   -2.0439    1.5907    0.4452 H   0  0  0  0  0  0  0  0  0  0  0  0
   -3.0198    0.0833    0.8108 H   0  0  0  0  0  0  0  0  0  0  0  0
    0.3533    0.1878    1.8377 H   0  0  0  0  0  0  0  0  0  0  0  0
    2.1638   -1.2818    1.0182 H   0  0  0  0  0  0  0  0  0  0  0  0
    1.0295    0.9348   -1.0238 H   0  0  0  0  0  0  0  0  0  0  0  0
  1  2  1  0
  2  3  1  0
  2  4  1  0
  4  5  1  0
  5  6  1  0
  6  7  1  0
  7  8  2  0
  7  9  1  0
  9  4  1  0
  9  5  1  0
  1 10  1  0
  1 11  1  0
  1 12  1  0
  2 13  1  0
  3 14  1  0
  3 15  1  0
  3 16  1  0
  4 17  1  0
  5 18  1  0
  9 19  1  0
M  END
