
     RDKit          3D

 26 25  0  0  0  0  0  0  0  0999 V2000
    1.2891   -1.4074   -0.2411 C   0  0  0  0  0  0  0  0  0  0  0  0
    0.7460   -0.0674    0.1540 C   0  0  0  0  0  0  0  0  0  0  0  0
    1.1180    0.2039    1.5719 C   0  0  0  0  0  0  0  0  0  0  0  0
    1.4316    0.9861   -0.7088 C   0  0  0  0  0  0  0  0  0  0  0  0
   -0.7430    0.0286   -0.0946 C   0  0  0  0  0  0  0  0  0  0  0  0
   -1.0260   -0.1833   -1.5669 C   0  0  0  0  0  0  0  0  0  0  0  0
   -1.5111   -1.0112    0.6679 C   0  0  0  0  0  0  0  0  0  0  0  0
   -1.2846    1.3813    0.2778 C   0  0  0  0  0  0  0  0  0  0  0  0
    2.3539   -1.2896   -0.5818 H   0  0  0  0  0  0  0  0  0  0  0  0
    0.7514   -1.8744   -1.0813 H   0  0  0  0  0  0  0  0  0  0  0  0
    1.3417   -2.0891    0.6505 H   0  0  0  0  0  0  0  0  0  0  0  0
    0.7902    1.1923    1.9471 H   0  0  0  0  0  0  0  0  0  0  0  0
    2.2252    0.1909    1.6406 H   0  0  0  0  0  0  0  0  0  0  0  0
    0.7566   -0.6076    2.2487 H   0  0  0  0  0  0  0  0  0  0  0  0
    1.7668    0.5016   -1.6479 H   0  0  0  0  0  0  0  0  0  0  0  0
    2.3385    1.3805   -0.2184 H   0  0  0  0  0  0  0  0  0  0  0  0
    0.7296    1.8108   -0.9713 H   0  0  0  0  0  0  0  0  0  0  0  0
   -1.9353    0.4254   -1.8473 H   0  0  0  0  0  0  0  0  0  0  0  0
   -0.1843    0.2057   -2.1635 H   0  0  0  0  0  0  0  0  0  0  0  0
   -1.2790   -1.2404   -1.7894 H   0  0  0  0  0  0  0  0  0  0  0  0
   -2.5771   -0.9273    0.3476 H   0  0  0  0  0  0  0  0  0  0  0  0
   -1.1611   -2.0411    0.4698 H   0  0  0  0  0  0  0  0  0  0  0  0
   -1.5012   -0.8234    1.7643 H   0  0  0  0  0  0  0  0  0  0  0  0
   -2.0316    1.3139    1.1223 H   0  0  0  0  0  0  0  0  0  0  0  0
   -0.5251    2.0949    0.6122 H   0  0  0  0  0  0  0  0  0  0  0  0
   -1.8792    1.8460   -0.5623 H   0  0  0  0  0  0  0  0  0  0  0  0
  1  2  1  0
  2  3  1  0
  2  4  1  0
  2  5  1  0
  5  6  1  0
  5  7  1  0
  5  8  1  0
  1  9  1  0
  1 10  1  0
  1 11  1  0
  3 12  1  0
  3 13  1  0
  3 14  1  0
  4 15  1  0
  4 16  1  0
  4 17  1  0
  6 18  1  0
  6 19  1  0
  6 20  1  0
  7 21  1  0
  7 22  1  0
  7 23  1  0
  8 24  1  0
  8 25  1  0
  8 26  1  0
M  END
