
     RDKit          3D

 23 23  0  0  0  0  0  0  0  0999 V2000
   -1.0667   -0.6969    1.0651 C   0  0  0  0  0  0  0  0  0  0  0  0
   -1.1610   -0.0497   -0.2849 C   0  0  0  0  0  0  0  0  0  0  0  0
   -1.5796   -1.0148   -1.3571 C   0  0  0  0  0  0  0  0  0  0  0  0
    0.0179    0.7841   -0.6357 C   0  0  0  0  0  0  0  0  0  0  0  0
    0.1750    1.9048    0.3939 C   0  0  0  0  0  0  0  0  0  0  0  0
    1.4215    1.2929    0.8866 C   0  0  0  0  0  0  0  0  0  0  0  0
    2.1759    1.4306    1.8213 O   0  0  0  0  0  0  0  0  0  0  0  0
    1.3756    0.3766   -0.3078 C   0  0  0  0  0  0  0  0  0  0  0  0
    1.7310   -0.9943    0.0781 C   0  0  0  0  0  0  0  0  0  0  0  0
   -2.0672   -0.7167    1.5925 H   0  0  0  0  0  0  0  0  0  0  0  0
   -0.7768   -1.7627    0.9757 H   0  0  0  0  0  0  0  0  0  0  0  0
   -0.4054   -0.1216    1.7457 H   0  0  0  0  0  0  0  0  0  0  0  0
   -2.0215    0.6841   -0.2135 H   0  0  0  0  0  0  0  0  0  0  0  0
   -2.1368   -0.4749   -2.1492 H   0  0  0  0  0  0  0  0  0  0  0  0
   -2.3144   -1.7197   -0.8831 H   0  0  0  0  0  0  0  0  0  0  0  0
   -0.7799   -1.5972   -1.7924 H   0  0  0  0  0  0  0  0  0  0  0  0
   -0.1179    1.2540   -1.6315 H   0  0  0  0  0  0  0  0  0  0  0  0
    0.3606    2.8956   -0.0251 H   0  0  0  0  0  0  0  0  0  0  0  0
   -0.6018    1.9413    1.1631 H   0  0  0  0  0  0  0  0  0  0  0  0
    2.1149    0.7939   -1.0558 H   0  0  0  0  0  0  0  0  0  0  0  0
    1.6629   -1.2024    1.1853 H   0  0  0  0  0  0  0  0  0  0  0  0
    1.1765   -1.8062   -0.4181 H   0  0  0  0  0  0  0  0  0  0  0  0
    2.8174   -1.2009   -0.1529 H   0  0  0  0  0  0  0  0  0  0  0  0
  1  2  1  0
  2  3  1  0
  2  4  1  0
  4  5  1  0
  5  6  1  0
  6  7  2  0
  6  8  1  0
  8  9  1  0
  8  4  1  0
  1 10  1  0
  1 11  1  0
  1 12  1  0
  2 13  1  0
  3 14  1  0
  3 15  1  0
  3 16  1  0
  4 17  1  0
  5 18  1  0
  5 19  1  0
  8 20  1  0
  9 21  1  0
  9 22  1  0
  9 23  1  0
M  END
