
     RDKit          3D

 21 21  0  0  0  0  0  0  0  0999 V2000
   -1.2287    0.3237   -1.2531 C   0  0  0  0  0  0  0  0  0  0  0  0
   -0.9265   -0.7457   -0.2645 C   0  0  0  0  0  0  0  0  0  0  0  0
   -2.2046   -1.1211    0.4115 C   0  0  0  0  0  0  0  0  0  0  0  0
   -2.3664   -2.1632    1.0042 O   0  0  0  0  0  0  0  0  0  0  0  0
    0.1386   -0.4137    0.7435 C   0  0  0  0  0  0  0  0  0  0  0  0
    1.5114   -0.0806    0.3447 C   0  0  0  0  0  0  0  0  0  0  0  0
    1.9107    0.2417   -1.0516 C   0  0  0  0  0  0  0  0  0  0  0  0
    0.5957    0.9406    1.0290 C   0  0  0  0  0  0  0  0  0  0  0  0
    0.9119    1.2781    2.3676 O   0  0  0  0  0  0  0  0  0  0  0  0
   -0.5205    1.1693   -1.2732 H   0  0  0  0  0  0  0  0  0  0  0  0
   -2.2385    0.7973   -1.0626 H   0  0  0  0  0  0  0  0  0  0  0  0
   -1.3349   -0.0911   -2.2993 H   0  0  0  0  0  0  0  0  0  0  0  0
   -0.5752   -1.6857   -0.7856 H   0  0  0  0  0  0  0  0  0  0  0  0
   -3.0696   -0.4400    0.3921 H   0  0  0  0  0  0  0  0  0  0  0  0
    0.0766   -1.0986    1.6438 H   0  0  0  0  0  0  0  0  0  0  0  0
    2.3720   -0.4092    0.9932 H   0  0  0  0  0  0  0  0  0  0  0  0
    1.8724    1.3300   -1.2635 H   0  0  0  0  0  0  0  0  0  0  0  0
    2.9759   -0.0539   -1.2649 H   0  0  0  0  0  0  0  0  0  0  0  0
    1.3140   -0.2702   -1.8314 H   0  0  0  0  0  0  0  0  0  0  0  0
    0.3454    1.8357    0.4431 H   0  0  0  0  0  0  0  0  0  0  0  0
    0.4404    0.6566    2.9770 H   0  0  0  0  0  0  0  0  0  0  0  0
  1  2  1  0
  2  3  1  0
  3  4  2  0
  2  5  1  0
  5  6  1  0
  6  7  1  0
  6  8  1  0
  8  9  1  0
  8  5  1  0
  1 10  1  0
  1 11  1  0
  1 12  1  0
  2 13  1  0
  3 14  1  0
  5 15  1  0
  6 16  1  0
  7 17  1  0
  7 18  1  0
  7 19  1  0
  8 20  1  0
  9 21  1  0
M  END
