
     RDKit          3D

 23 23  0  0  0  0  0  0  0  0999 V2000
   -2.0701   -0.8396    0.8123 C   0  0  0  0  0  0  0  0  0  0  0  0
   -1.1364    0.3156    0.4508 C   0  0  0  0  0  0  0  0  0  0  0  0
   -1.6370    0.9318   -0.7956 C   0  0  0  0  0  0  0  0  0  0  0  0
    0.2450   -0.2073    0.4201 C   0  0  0  0  0  0  0  0  0  0  0  0
    0.5478   -1.3118   -0.5530 C   0  0  0  0  0  0  0  0  0  0  0  0
    1.9878   -0.7693   -0.5163 C   0  0  0  0  0  0  0  0  0  0  0  0
    1.3147    0.5834   -0.2283 C   0  0  0  0  0  0  0  0  0  0  0  0
    2.1056    1.4762    0.6365 C   0  0  0  0  0  0  0  0  0  0  0  0
    3.0176    2.1060    0.1278 O   0  0  0  0  0  0  0  0  0  0  0  0
   -2.4250   -0.7675    1.8607 H   0  0  0  0  0  0  0  0  0  0  0  0
   -2.9239   -0.9103    0.1016 H   0  0  0  0  0  0  0  0  0  0  0  0
   -1.5377   -1.8120    0.7377 H   0  0  0  0  0  0  0  0  0  0  0  0
   -1.2173    1.0453    1.2811 H   0  0  0  0  0  0  0  0  0  0  0  0
   -0.8933    1.3178   -1.4897 H   0  0  0  0  0  0  0  0  0  0  0  0
   -2.3036    0.2414   -1.3895 H   0  0  0  0  0  0  0  0  0  0  0  0
   -2.3090    1.8035   -0.5417 H   0  0  0  0  0  0  0  0  0  0  0  0
    0.5646   -0.5265    1.4440 H   0  0  0  0  0  0  0  0  0  0  0  0
    0.4479   -2.3361   -0.1837 H   0  0  0  0  0  0  0  0  0  0  0  0
    0.1088   -1.1001   -1.5585 H   0  0  0  0  0  0  0  0  0  0  0  0
    2.5037   -0.8067   -1.4864 H   0  0  0  0  0  0  0  0  0  0  0  0
    2.5565   -1.1209    0.3609 H   0  0  0  0  0  0  0  0  0  0  0  0
    1.1064    1.0619   -1.1899 H   0  0  0  0  0  0  0  0  0  0  0  0
    1.9468    1.6250    1.6991 H   0  0  0  0  0  0  0  0  0  0  0  0
  1  2  1  0
  2  3  1  0
  2  4  1  0
  4  5  1  0
  5  6  1  0
  6  7  1  0
  7  8  1  0
  8  9  2  0
  7  4  1  0
  1 10  1  0
  1 11  1  0
  1 12  1  0
  2 13  1  0
  3 14  1  0
  3 15  1  0
  3 16  1  0
  4 17  1  0
  5 18  1  0
  5 19  1  0
  6 20  1  0
  6 21  1  0
  7 22  1  0
  8 23  1  0
M  END
