
     RDKit          3D

 23 25  0  0  0  0  0  0  0  0999 V2000
   -1.8399    1.4898    0.1855 C   0  0  0  0  0  0  0  0  0  0  0  0
   -1.4625    0.0557    0.5014 C   0  0  0  0  0  0  0  0  0  0  0  0
   -2.6952   -0.7884    0.2354 C   0  0  0  0  0  0  0  0  0  0  0  0
   -0.3476   -0.2962   -0.4976 C   0  0  0  0  0  0  0  0  0  0  0  0
    0.8313    0.5204   -0.4228 C   0  0  0  0  0  0  0  0  0  0  0  0
    1.9968    0.3890    0.5143 C   0  0  0  0  0  0  0  0  0  0  0  0
    3.3023   -0.1473    0.2502 C   0  0  0  0  0  0  0  0  0  0  0  0
    2.2588   -0.7944   -0.5048 C   0  0  0  0  0  0  0  0  0  0  0  0
    0.8319   -1.0303   -0.1057 C   0  0  0  0  0  0  0  0  0  0  0  0
   -2.4913    1.9392    0.9474 H   0  0  0  0  0  0  0  0  0  0  0  0
   -2.3379    1.4632   -0.8261 H   0  0  0  0  0  0  0  0  0  0  0  0
   -0.9076    2.0825    0.0282 H   0  0  0  0  0  0  0  0  0  0  0  0
   -1.1031   -0.0318    1.5437 H   0  0  0  0  0  0  0  0  0  0  0  0
   -2.6093   -1.3435   -0.7234 H   0  0  0  0  0  0  0  0  0  0  0  0
   -3.6293   -0.1891    0.2762 H   0  0  0  0  0  0  0  0  0  0  0  0
   -2.7855   -1.5536    1.0288 H   0  0  0  0  0  0  0  0  0  0  0  0
   -0.8068   -0.6093   -1.4790 H   0  0  0  0  0  0  0  0  0  0  0  0
    1.2305    0.7932   -1.4460 H   0  0  0  0  0  0  0  0  0  0  0  0
    1.5977    0.0634    1.5230 H   0  0  0  0  0  0  0  0  0  0  0  0
    3.8484   -0.8067    0.9881 H   0  0  0  0  0  0  0  0  0  0  0  0
    4.0429    0.5610   -0.2198 H   0  0  0  0  0  0  0  0  0  0  0  0
    2.2715   -0.4809   -1.5931 H   0  0  0  0  0  0  0  0  0  0  0  0
    0.8041   -1.2858    0.9955 H   0  0  0  0  0  0  0  0  0  0  0  0
  1  2  1  0
  2  3  1  0
  2  4  1  0
  4  5  1  0
  5  6  1  0
  6  7  1  0
  7  8  1  0
  8  9  1  0
  9  4  1  0
  9  5  1  0
  8  6  1  0
  1 10  1  0
  1 11  1  0
  1 12  1  0
  2 13  1  0
  3 14  1  0
  3 15  1  0
  3 16  1  0
  4 17  1  0
  5 18  1  0
  6 19  1  0
  7 20  1  0
  7 21  1  0
  8 22  1  0
  9 23  1  0
M  END
