
     RDKit          3D

 21 22  0  0  0  0  0  0  0  0999 V2000
   -2.0101   -0.8703   -0.1651 C   0  0  0  0  0  0  0  0  0  0  0  0
   -1.0666    0.2726   -0.4000 C   0  0  0  0  0  0  0  0  0  0  0  0
   -1.6785    1.5328    0.2028 C   0  0  0  0  0  0  0  0  0  0  0  0
    0.2997    0.0403    0.2141 C   0  0  0  0  0  0  0  0  0  0  0  0
    0.9933   -1.1705   -0.3203 C   0  0  0  0  0  0  0  0  0  0  0  0
    0.9936   -0.5375   -1.5527 O   0  0  0  0  0  0  0  0  0  0  0  0
    1.3797    0.5009   -0.6997 C   0  0  0  0  0  0  0  0  0  0  0  0
    2.2940   -0.4864   -0.0509 C   0  0  0  0  0  0  0  0  0  0  0  0
    2.6360   -0.2608    1.2547 O   0  0  0  0  0  0  0  0  0  0  0  0
   -2.6921   -1.0015   -1.0435 H   0  0  0  0  0  0  0  0  0  0  0  0
   -1.5031   -1.8409   -0.0300 H   0  0  0  0  0  0  0  0  0  0  0  0
   -2.6469   -0.7124    0.7228 H   0  0  0  0  0  0  0  0  0  0  0  0
   -0.9963    0.4575   -1.4905 H   0  0  0  0  0  0  0  0  0  0  0  0
   -2.7721    1.5601    0.0109 H   0  0  0  0  0  0  0  0  0  0  0  0
   -1.1710    2.4505   -0.1754 H   0  0  0  0  0  0  0  0  0  0  0  0
   -1.5434    1.5410    1.3234 H   0  0  0  0  0  0  0  0  0  0  0  0
    0.3834    0.2576    1.2771 H   0  0  0  0  0  0  0  0  0  0  0  0
    0.7624   -2.1357   -0.1384 H   0  0  0  0  0  0  0  0  0  0  0  0
    1.5959    1.4422   -0.9830 H   0  0  0  0  0  0  0  0  0  0  0  0
    3.1014   -0.8261   -0.7316 H   0  0  0  0  0  0  0  0  0  0  0  0
    3.6408   -0.2135    1.2960 H   0  0  0  0  0  0  0  0  0  0  0  0
  1  2  1  0
  2  3  1  0
  2  4  1  0
  4  5  1  0
  5  6  1  0
  6  7  1  0
  7  8  1  0
  8  9  1  0
  7  4  1  0
  8  5  1  0
  1 10  1  0
  1 11  1  0
  1 12  1  0
  2 13  1  0
  3 14  1  0
  3 15  1  0
  3 16  1  0
  4 17  1  0
  5 18  1  0
  7 19  1  0
  8 20  1  0
  9 21  1  0
M  END
