
     RDKit          3D

 25 25  0  0  0  0  0  0  0  0999 V2000
   -1.8638   -0.4364   -1.2572 C   0  0  0  0  0  0  0  0  0  0  0  0
   -1.0789   -0.1405   -0.0208 C   0  0  0  0  0  0  0  0  0  0  0  0
   -1.2490   -1.2281    0.9897 C   0  0  0  0  0  0  0  0  0  0  0  0
   -1.6646    1.1380    0.5864 C   0  0  0  0  0  0  0  0  0  0  0  0
    0.3544    0.1664   -0.3466 C   0  0  0  0  0  0  0  0  0  0  0  0
    1.1891    0.4704    0.8503 C   0  0  0  0  0  0  0  0  0  0  0  0
    2.6062    0.2292    0.3264 C   0  0  0  0  0  0  0  0  0  0  0  0
    2.3247   -0.2961   -1.0709 C   0  0  0  0  0  0  0  0  0  0  0  0
    1.0262   -0.8505   -0.9713 O   0  0  0  0  0  0  0  0  0  0  0  0
   -1.8117   -1.4942   -1.5771 H   0  0  0  0  0  0  0  0  0  0  0  0
   -2.9348   -0.2059   -1.0604 H   0  0  0  0  0  0  0  0  0  0  0  0
   -1.5555    0.2475   -2.0971 H   0  0  0  0  0  0  0  0  0  0  0  0
   -2.2175   -1.7474    0.7567 H   0  0  0  0  0  0  0  0  0  0  0  0
   -0.4648   -2.0135    0.8933 H   0  0  0  0  0  0  0  0  0  0  0  0
   -1.3390   -0.8402    2.0227 H   0  0  0  0  0  0  0  0  0  0  0  0
   -2.6825    0.9795    0.9633 H   0  0  0  0  0  0  0  0  0  0  0  0
   -0.9828    1.5030    1.3826 H   0  0  0  0  0  0  0  0  0  0  0  0
   -1.6192    1.9111   -0.2281 H   0  0  0  0  0  0  0  0  0  0  0  0
    0.3570    1.0467   -1.0216 H   0  0  0  0  0  0  0  0  0  0  0  0
    1.0140   -0.1864    1.7161 H   0  0  0  0  0  0  0  0  0  0  0  0
    1.0401    1.5405    1.1066 H   0  0  0  0  0  0  0  0  0  0  0  0
    3.1657    1.1744    0.3121 H   0  0  0  0  0  0  0  0  0  0  0  0
    3.1245   -0.5544    0.8905 H   0  0  0  0  0  0  0  0  0  0  0  0
    2.2019    0.6004   -1.7202 H   0  0  0  0  0  0  0  0  0  0  0  0
    3.0605   -1.0136   -1.4252 H   0  0  0  0  0  0  0  0  0  0  0  0
  1  2  1  0
  2  3  1  0
  2  4  1  0
  2  5  1  0
  5  6  1  0
  6  7  1  0
  7  8  1  0
  8  9  1  0
  9  5  1  0
  1 10  1  0
  1 11  1  0
  1 12  1  0
  3 13  1  0
  3 14  1  0
  3 15  1  0
  4 16  1  0
  4 17  1  0
  4 18  1  0
  5 19  1  0
  6 20  1  0
  6 21  1  0
  7 22  1  0
  7 23  1  0
  8 24  1  0
  8 25  1  0
M  END
