
     RDKit          3D

 17 16  0  0  0  0  0  0  0  0999 V2000
   -2.0412    0.2640    1.1773 C   0  0  0  0  0  0  0  0  0  0  0  0
   -1.3190   -0.7720    0.3358 C   0  0  0  0  0  0  0  0  0  0  0  0
   -0.0487   -0.1349   -0.0843 C   0  0  0  0  0  0  0  0  0  0  0  0
    0.9834    0.3838   -0.4293 C   0  0  0  0  0  0  0  0  0  0  0  0
    2.2364    1.0192   -0.8372 C   0  0  0  0  0  0  0  0  0  0  0  0
    3.2010    0.0383   -1.3779 C   0  0  0  0  0  0  0  0  0  0  0  0
    4.2903    0.3818   -1.7648 O   0  0  0  0  0  0  0  0  0  0  0  0
   -2.1643   -1.0935   -0.8505 C   0  0  0  0  0  0  0  0  0  0  0  0
   -2.0864   -0.3988   -1.8501 O   0  0  0  0  0  0  0  0  0  0  0  0
   -1.7029    0.1442    2.2109 H   0  0  0  0  0  0  0  0  0  0  0  0
   -3.1257    0.0654    1.0503 H   0  0  0  0  0  0  0  0  0  0  0  0
   -1.8661    1.2976    0.7819 H   0  0  0  0  0  0  0  0  0  0  0  0
   -1.1276   -1.6737    0.9545 H   0  0  0  0  0  0  0  0  0  0  0  0
    2.6530    1.5469    0.0701 H   0  0  0  0  0  0  0  0  0  0  0  0
    2.0480    1.8604   -1.5657 H   0  0  0  0  0  0  0  0  0  0  0  0
    2.9235   -0.9972   -1.4256 H   0  0  0  0  0  0  0  0  0  0  0  0
   -2.8537   -1.9315   -0.8579 H   0  0  0  0  0  0  0  0  0  0  0  0
  1  2  1  0
  2  3  1  0
  3  4  3  0
  4  5  1  0
  5  6  1  0
  6  7  2  0
  2  8  1  0
  8  9  2  0
  1 10  1  0
  1 11  1  0
  1 12  1  0
  2 13  1  0
  5 14  1  0
  5 15  1  0
  6 16  1  0
  8 17  1  0
M  END
