
     RDKit          3D

 24 23  0  0  0  0  0  0  0  0999 V2000
   -0.9048   -0.7197   -1.6791 C   0  0  0  0  0  0  0  0  0  0  0  0
   -0.7391   -0.6962   -0.1993 C   0  0  0  0  0  0  0  0  0  0  0  0
   -2.0314   -0.2864    0.4834 C   0  0  0  0  0  0  0  0  0  0  0  0
    0.3414    0.2421    0.2661 C   0  0  0  0  0  0  0  0  0  0  0  0
    0.0878    1.6728   -0.1354 C   0  0  0  0  0  0  0  0  0  0  0  0
    0.5594    0.1786    1.7588 C   0  0  0  0  0  0  0  0  0  0  0  0
    1.6788   -0.1180   -0.3801 C   0  0  0  0  0  0  0  0  0  0  0  0
    2.0655   -1.4104   -0.0555 O   0  0  0  0  0  0  0  0  0  0  0  0
   -0.7686    0.2372   -2.1867 H   0  0  0  0  0  0  0  0  0  0  0  0
   -1.9204   -1.1631   -1.8971 H   0  0  0  0  0  0  0  0  0  0  0  0
   -0.1844   -1.4370   -2.1693 H   0  0  0  0  0  0  0  0  0  0  0  0
   -0.4908   -1.7255    0.1328 H   0  0  0  0  0  0  0  0  0  0  0  0
   -1.8317   -0.2619    1.5884 H   0  0  0  0  0  0  0  0  0  0  0  0
   -2.3590    0.6900    0.1026 H   0  0  0  0  0  0  0  0  0  0  0  0
   -2.7942   -1.0872    0.2584 H   0  0  0  0  0  0  0  0  0  0  0  0
    0.2127    1.7576   -1.2456 H   0  0  0  0  0  0  0  0  0  0  0  0
   -0.8618    2.0703    0.2217 H   0  0  0  0  0  0  0  0  0  0  0  0
    0.9330    2.2709    0.2894 H   0  0  0  0  0  0  0  0  0  0  0  0
   -0.2120    0.7500    2.3185 H   0  0  0  0  0  0  0  0  0  0  0  0
    0.6451   -0.8509    2.1359 H   0  0  0  0  0  0  0  0  0  0  0  0
    1.5231    0.7367    1.9463 H   0  0  0  0  0  0  0  0  0  0  0  0
    2.4111    0.6018    0.0549 H   0  0  0  0  0  0  0  0  0  0  0  0
    1.5855   -0.0072   -1.4718 H   0  0  0  0  0  0  0  0  0  0  0  0
    3.0548   -1.4444   -0.1373 H   0  0  0  0  0  0  0  0  0  0  0  0
  1  2  1  0
  2  3  1  0
  2  4  1  0
  4  5  1  0
  4  6  1  0
  4  7  1  0
  7  8  1  0
  1  9  1  0
  1 10  1  0
  1 11  1  0
  2 12  1  0
  3 13  1  0
  3 14  1  0
  3 15  1  0
  5 16  1  0
  5 17  1  0
  5 18  1  0
  6 19  1  0
  6 20  1  0
  6 21  1  0
  7 22  1  0
  7 23  1  0
  8 24  1  0
M  END
