
     RDKit          3D

 23 22  0  0  0  0  0  0  0  0999 V2000
   -1.3189    0.6985    1.3283 C   0  0  0  0  0  0  0  0  0  0  0  0
   -1.1480    0.5026   -0.1382 C   0  0  0  0  0  0  0  0  0  0  0  0
   -1.7200   -0.8363   -0.6027 C   0  0  0  0  0  0  0  0  0  0  0  0
    0.1864    0.7842   -0.7036 C   0  0  0  0  0  0  0  0  0  0  0  0
    0.0939    0.5292   -2.0952 O   0  0  0  0  0  0  0  0  0  0  0  0
    1.3382   -0.0021   -0.2177 C   0  0  0  0  0  0  0  0  0  0  0  0
    1.6552    0.0798    1.2356 C   0  0  0  0  0  0  0  0  0  0  0  0
    1.3187   -1.4311   -0.6011 C   0  0  0  0  0  0  0  0  0  0  0  0
    1.8393   -1.9107   -1.5898 O   0  0  0  0  0  0  0  0  0  0  0  0
   -1.3677   -0.3108    1.8246 H   0  0  0  0  0  0  0  0  0  0  0  0
   -2.3062    1.1664    1.5844 H   0  0  0  0  0  0  0  0  0  0  0  0
   -0.5635    1.2892    1.8319 H   0  0  0  0  0  0  0  0  0  0  0  0
   -1.8472    1.2605   -0.6165 H   0  0  0  0  0  0  0  0  0  0  0  0
   -2.8203   -0.7707   -0.7328 H   0  0  0  0  0  0  0  0  0  0  0  0
   -1.5458   -1.6152    0.1659 H   0  0  0  0  0  0  0  0  0  0  0  0
   -1.2640   -1.0690   -1.5683 H   0  0  0  0  0  0  0  0  0  0  0  0
    0.4059    1.8596   -0.6079 H   0  0  0  0  0  0  0  0  0  0  0  0
    0.5024    1.2365   -2.6263 H   0  0  0  0  0  0  0  0  0  0  0  0
    2.2446    0.4303   -0.7462 H   0  0  0  0  0  0  0  0  0  0  0  0
    1.0158   -0.5133    1.8970 H   0  0  0  0  0  0  0  0  0  0  0  0
    2.6864   -0.3778    1.3527 H   0  0  0  0  0  0  0  0  0  0  0  0
    1.8123    1.1347    1.5892 H   0  0  0  0  0  0  0  0  0  0  0  0
    0.8024   -2.1345    0.0367 H   0  0  0  0  0  0  0  0  0  0  0  0
  1  2  1  0
  2  3  1  0
  2  4  1  0
  4  5  1  0
  4  6  1  0
  6  7  1  0
  6  8  1  0
  8  9  2  0
  1 10  1  0
  1 11  1  0
  1 12  1  0
  2 13  1  0
  3 14  1  0
  3 15  1  0
  3 16  1  0
  4 17  1  0
  5 18  1  0
  6 19  1  0
  7 20  1  0
  7 21  1  0
  7 22  1  0
  8 23  1  0
M  END
