
     RDKit          3D

 22 21  0  0  0  0  0  0  0  0999 V2000
   -1.5967    1.2090    0.2028 C   0  0  0  0  0  0  0  0  0  0  0  0
   -0.8756   -0.0081   -0.2786 C   0  0  0  0  0  0  0  0  0  0  0  0
   -1.4654   -0.3557   -1.6546 C   0  0  0  0  0  0  0  0  0  0  0  0
   -1.2262   -1.1518    0.6539 C   0  0  0  0  0  0  0  0  0  0  0  0
    0.4582    0.0822   -0.4192 O   0  0  0  0  0  0  0  0  0  0  0  0
    1.2364    0.3739    0.6331 C   0  0  0  0  0  0  0  0  0  0  0  0
    2.6935    0.4020    0.1449 C   0  0  0  0  0  0  0  0  0  0  0  0
    3.0724   -0.8114   -0.3797 O   0  0  0  0  0  0  0  0  0  0  0  0
   -1.3561    2.1297   -0.3380 H   0  0  0  0  0  0  0  0  0  0  0  0
   -1.4871    1.3234    1.3163 H   0  0  0  0  0  0  0  0  0  0  0  0
   -2.6839    1.0273    0.0431 H   0  0  0  0  0  0  0  0  0  0  0  0
   -1.0797    0.4259   -2.3505 H   0  0  0  0  0  0  0  0  0  0  0  0
   -2.5614   -0.3865   -1.6019 H   0  0  0  0  0  0  0  0  0  0  0  0
   -1.0017   -1.3109   -1.9762 H   0  0  0  0  0  0  0  0  0  0  0  0
   -1.6634   -0.7630    1.6180 H   0  0  0  0  0  0  0  0  0  0  0  0
   -0.3219   -1.7132    0.9342 H   0  0  0  0  0  0  0  0  0  0  0  0
   -2.0084   -1.8035    0.2095 H   0  0  0  0  0  0  0  0  0  0  0  0
    1.0789    1.3536    1.1170 H   0  0  0  0  0  0  0  0  0  0  0  0
    1.2027   -0.4362    1.3886 H   0  0  0  0  0  0  0  0  0  0  0  0
    2.8536    1.2133   -0.5864 H   0  0  0  0  0  0  0  0  0  0  0  0
    3.3699    0.6359    1.0084 H   0  0  0  0  0  0  0  0  0  0  0  0
    3.3620   -1.4360    0.3152 H   0  0  0  0  0  0  0  0  0  0  0  0
  1  2  1  0
  2  3  1  0
  2  4  1  0
  2  5  1  0
  5  6  1  0
  6  7  1  0
  7  8  1  0
  1  9  1  0
  1 10  1  0
  1 11  1  0
  3 12  1  0
  3 13  1  0
  3 14  1  0
  4 15  1  0
  4 16  1  0
  4 17  1  0
  6 18  1  0
  6 19  1  0
  7 20  1  0
  7 21  1  0
  8 22  1  0
M  END
