
     RDKit          3D

 17 16  0  0  0  0  0  0  0  0999 V2000
   -2.0265    1.6669    0.1556 C   0  0  0  0  0  0  0  0  0  0  0  0
   -1.4803    0.4434   -0.6992 C   0  0  0  0  0  0  0  0  0  0  0  0
   -2.5248   -0.6545   -0.5914 C   0  0  0  0  0  0  0  0  0  0  0  0
   -0.2427    0.1304   -0.3854 C   0  0  0  0  0  0  0  0  0  0  0  0
    0.9986   -0.1910   -0.0916 C   0  0  0  0  0  0  0  0  0  0  0  0
    2.3009   -0.5247    0.1922 C   0  0  0  0  0  0  0  0  0  0  0  0
    3.5875   -0.8315    0.4630 C   0  0  0  0  0  0  0  0  0  0  0  0
    4.6765   -1.1012    0.7109 C   0  0  0  0  0  0  0  0  0  0  0  0
    5.0985   -1.7557    1.8642 O   0  0  0  0  0  0  0  0  0  0  0  0
   -2.7366    2.1833   -0.4625 H   0  0  0  0  0  0  0  0  0  0  0  0
   -1.0748    2.2407    0.2825 H   0  0  0  0  0  0  0  0  0  0  0  0
   -2.3825    1.2445    1.0983 H   0  0  0  0  0  0  0  0  0  0  0  0
   -1.5712    0.8600   -1.7802 H   0  0  0  0  0  0  0  0  0  0  0  0
   -3.2173   -0.5305   -1.4423 H   0  0  0  0  0  0  0  0  0  0  0  0
   -3.0833   -0.5427    0.3204 H   0  0  0  0  0  0  0  0  0  0  0  0
   -2.0269   -1.6662   -0.6656 H   0  0  0  0  0  0  0  0  0  0  0  0
    5.7049   -0.9710    0.1788 H   0  0  0  0  0  0  0  0  0  0  0  0
  1  2  1  0
  2  3  1  0
  2  4  1  0
  4  5  3  0
  5  6  1  0
  6  7  3  0
  7  8  1  0
  8  9  2  0
  1 10  1  0
  1 11  1  0
  1 12  1  0
  2 13  1  0
  3 14  1  0
  3 15  1  0
  3 16  1  0
  8 17  1  0
M  END
