
     RDKit          3D

 21 22  0  0  0  0  0  0  0  0999 V2000
    2.0207    1.0302   -1.1560 C   0  0  0  0  0  0  0  0  0  0  0  0
    1.0729    0.4518   -0.1386 C   0  0  0  0  0  0  0  0  0  0  0  0
    1.8730   -0.4300    0.8282 C   0  0  0  0  0  0  0  0  0  0  0  0
    0.0627   -0.2902   -0.6461 O   0  0  0  0  0  0  0  0  0  0  0  0
   -1.2418    0.1284   -0.2690 C   0  0  0  0  0  0  0  0  0  0  0  0
   -2.1886   -0.8439   -0.9986 C   0  0  0  0  0  0  0  0  0  0  0  0
   -1.5533   -1.7619   -0.1178 O   0  0  0  0  0  0  0  0  0  0  0  0
   -1.9347   -0.7946    0.8155 C   0  0  0  0  0  0  0  0  0  0  0  0
   -1.2968    0.4337    1.1318 C   0  0  0  0  0  0  0  0  0  0  0  0
    2.6433    1.8119   -0.6697 H   0  0  0  0  0  0  0  0  0  0  0  0
    2.7402    0.2426   -1.4943 H   0  0  0  0  0  0  0  0  0  0  0  0
    1.5256    1.4599   -2.0242 H   0  0  0  0  0  0  0  0  0  0  0  0
    0.6733    1.2771    0.4819 H   0  0  0  0  0  0  0  0  0  0  0  0
    1.2117   -1.2447    1.1829 H   0  0  0  0  0  0  0  0  0  0  0  0
    2.2948    0.1432    1.6583 H   0  0  0  0  0  0  0  0  0  0  0  0
    2.7058   -0.8968    0.2283 H   0  0  0  0  0  0  0  0  0  0  0  0
   -1.9414   -0.9690   -2.0490 H   0  0  0  0  0  0  0  0  0  0  0  0
   -3.2454   -0.6883   -0.8478 H   0  0  0  0  0  0  0  0  0  0  0  0
   -3.0680   -0.7531    0.8031 H   0  0  0  0  0  0  0  0  0  0  0  0
   -0.4415    0.3528    1.8689 H   0  0  0  0  0  0  0  0  0  0  0  0
   -1.9124    1.3407    1.4121 H   0  0  0  0  0  0  0  0  0  0  0  0
  1  2  1  0
  2  3  1  0
  2  4  1  0
  4  5  1  0
  5  6  1  0
  6  7  1  0
  7  8  1  0
  8  9  1  0
  8  5  1  0
  9  5  1  0
  1 10  1  0
  1 11  1  0
  1 12  1  0
  2 13  1  0
  3 14  1  0
  3 15  1  0
  3 16  1  0
  6 17  1  0
  6 18  1  0
  8 19  1  0
  9 20  1  0
  9 21  1  0
M  END
