
     RDKit          3D

 18 17  0  0  0  0  0  0  0  0999 V2000
   -0.6940   -1.1031    0.9674 C   0  0  0  0  0  0  0  0  0  0  0  0
   -0.6612   -0.2332   -0.2674 C   0  0  0  0  0  0  0  0  0  0  0  0
    0.7123   -0.2816   -0.9039 C   0  0  0  0  0  0  0  0  0  0  0  0
    1.7609    0.2136    0.0535 C   0  0  0  0  0  0  0  0  0  0  0  0
    1.7922   -0.5577    1.1879 O   0  0  0  0  0  0  0  0  0  0  0  0
   -0.9200    1.1154    0.0369 O   0  0  0  0  0  0  0  0  0  0  0  0
   -1.9824    1.7889   -0.5249 C   0  0  0  0  0  0  0  0  0  0  0  0
   -2.7184    1.1680   -1.3190 O   0  0  0  0  0  0  0  0  0  0  0  0
   -0.4337   -0.5369    1.8825 H   0  0  0  0  0  0  0  0  0  0  0  0
   -0.0355   -1.9693    0.8648 H   0  0  0  0  0  0  0  0  0  0  0  0
   -1.7304   -1.5227    1.0937 H   0  0  0  0  0  0  0  0  0  0  0  0
   -1.4340   -0.5729   -0.9848 H   0  0  0  0  0  0  0  0  0  0  0  0
    0.9281   -1.2766   -1.3034 H   0  0  0  0  0  0  0  0  0  0  0  0
    0.6637    0.4285   -1.7775 H   0  0  0  0  0  0  0  0  0  0  0  0
    1.4867    1.2543    0.3457 H   0  0  0  0  0  0  0  0  0  0  0  0
    2.7579    0.2708   -0.3902 H   0  0  0  0  0  0  0  0  0  0  0  0
    2.6492   -1.0004    1.3033 H   0  0  0  0  0  0  0  0  0  0  0  0
   -2.1412    2.8147   -0.2644 H   0  0  0  0  0  0  0  0  0  0  0  0
  1  2  1  0
  2  3  1  0
  3  4  1  0
  4  5  1  0
  2  6  1  0
  6  7  1  0
  7  8  2  0
  1  9  1  0
  1 10  1  0
  1 11  1  0
  2 12  1  0
  3 13  1  0
  3 14  1  0
  4 15  1  0
  4 16  1  0
  5 17  1  0
  7 18  1  0
M  END
