
     RDKit          3D

 25 25  0  0  0  0  0  0  0  0999 V2000
   -2.2113    1.5012   -0.3343 C   0  0  0  0  0  0  0  0  0  0  0  0
   -1.3236    0.2613   -0.3355 C   0  0  0  0  0  0  0  0  0  0  0  0
   -2.2218   -0.9332   -0.1114 C   0  0  0  0  0  0  0  0  0  0  0  0
   -0.3386    0.4484    0.7944 C   0  0  0  0  0  0  0  0  0  0  0  0
    0.6185   -0.7103    0.9220 C   0  0  0  0  0  0  0  0  0  0  0  0
    1.4739   -0.4353    1.9848 O   0  0  0  0  0  0  0  0  0  0  0  0
    1.4434   -0.7353   -0.3685 C   0  0  0  0  0  0  0  0  0  0  0  0
    2.2661    0.5101   -0.6759 C   0  0  0  0  0  0  0  0  0  0  0  0
    2.9385   -0.7963   -0.2628 C   0  0  0  0  0  0  0  0  0  0  0  0
   -1.5529    2.3886   -0.5592 H   0  0  0  0  0  0  0  0  0  0  0  0
   -2.9432    1.4672   -1.1609 H   0  0  0  0  0  0  0  0  0  0  0  0
   -2.6930    1.6630    0.6340 H   0  0  0  0  0  0  0  0  0  0  0  0
   -0.8571    0.2067   -1.3214 H   0  0  0  0  0  0  0  0  0  0  0  0
   -3.3011   -0.6519   -0.1373 H   0  0  0  0  0  0  0  0  0  0  0  0
   -2.0998   -1.7117   -0.8947 H   0  0  0  0  0  0  0  0  0  0  0  0
   -1.9498   -1.3738    0.8655 H   0  0  0  0  0  0  0  0  0  0  0  0
    0.2097    1.3892    0.5857 H   0  0  0  0  0  0  0  0  0  0  0  0
   -0.9345    0.6224    1.7134 H   0  0  0  0  0  0  0  0  0  0  0  0
    0.1226   -1.6685    1.0786 H   0  0  0  0  0  0  0  0  0  0  0  0
    0.9548   -0.1161    2.7816 H   0  0  0  0  0  0  0  0  0  0  0  0
    0.9917   -1.2560   -1.2548 H   0  0  0  0  0  0  0  0  0  0  0  0
    2.2183    1.2983    0.1026 H   0  0  0  0  0  0  0  0  0  0  0  0
    2.3441    0.8282   -1.7360 H   0  0  0  0  0  0  0  0  0  0  0  0
    3.4878   -1.3683   -1.0616 H   0  0  0  0  0  0  0  0  0  0  0  0
    3.3572   -0.8278    0.7571 H   0  0  0  0  0  0  0  0  0  0  0  0
  1  2  1  0
  2  3  1  0
  2  4  1  0
  4  5  1  0
  5  6  1  0
  5  7  1  0
  7  8  1  0
  8  9  1  0
  9  7  1  0
  1 10  1  0
  1 11  1  0
  1 12  1  0
  2 13  1  0
  3 14  1  0
  3 15  1  0
  3 16  1  0
  4 17  1  0
  4 18  1  0
  5 19  1  0
  6 20  1  0
  7 21  1  0
  8 22  1  0
  8 23  1  0
  9 24  1  0
  9 25  1  0
M  END
