
     RDKit          3D

 21 22  0  0  0  0  0  0  0  0999 V2000
   -1.6349    0.3021    0.9102 C   0  0  0  0  0  0  0  0  0  0  0  0
   -0.7594   -0.3863   -0.1329 C   0  0  0  0  0  0  0  0  0  0  0  0
   -1.5271   -0.3537   -1.4270 C   0  0  0  0  0  0  0  0  0  0  0  0
   -0.5168   -1.6969    0.2107 O   0  0  0  0  0  0  0  0  0  0  0  0
    0.5556    0.3484   -0.2582 C   0  0  0  0  0  0  0  0  0  0  0  0
    0.9244    1.3490    0.7463 C   0  0  0  0  0  0  0  0  0  0  0  0
    1.6293    0.0580    0.7935 C   0  0  0  0  0  0  0  0  0  0  0  0
    2.5784   -0.1792   -0.3824 C   0  0  0  0  0  0  0  0  0  0  0  0
    1.4394   -0.1362   -1.2023 O   0  0  0  0  0  0  0  0  0  0  0  0
   -1.6603    1.3930    0.7476 H   0  0  0  0  0  0  0  0  0  0  0  0
   -2.6570   -0.1492    0.8228 H   0  0  0  0  0  0  0  0  0  0  0  0
   -1.2645    0.1110    1.9381 H   0  0  0  0  0  0  0  0  0  0  0  0
   -1.7523    0.7046   -1.7316 H   0  0  0  0  0  0  0  0  0  0  0  0
   -0.9823   -0.8779   -2.2520 H   0  0  0  0  0  0  0  0  0  0  0  0
   -2.5136   -0.8270   -1.2556 H   0  0  0  0  0  0  0  0  0  0  0  0
   -1.2977   -2.2935    0.0182 H   0  0  0  0  0  0  0  0  0  0  0  0
    1.5237    2.2464    0.4219 H   0  0  0  0  0  0  0  0  0  0  0  0
    0.2112    1.5561    1.5411 H   0  0  0  0  0  0  0  0  0  0  0  0
    1.4081   -0.7487    1.4824 H   0  0  0  0  0  0  0  0  0  0  0  0
    3.1976    0.7193   -0.6230 H   0  0  0  0  0  0  0  0  0  0  0  0
    3.0981   -1.1391   -0.3677 H   0  0  0  0  0  0  0  0  0  0  0  0
  1  2  1  0
  2  3  1  0
  2  4  1  0
  2  5  1  0
  5  6  1  0
  6  7  1  0
  7  8  1  0
  8  9  1  0
  7  5  1  0
  9  5  1  0
  1 10  1  0
  1 11  1  0
  1 12  1  0
  3 13  1  0
  3 14  1  0
  3 15  1  0
  4 16  1  0
  6 17  1  0
  6 18  1  0
  7 19  1  0
  8 20  1  0
  8 21  1  0
M  END
