
     RDKit          3D

 21 23  0  0  0  0  0  0  0  0999 V2000
    1.7077   -0.9870    0.8595 C   0  0  0  0  0  0  0  0  0  0  0  0
    1.0219    0.1195    0.1173 C   0  0  0  0  0  0  0  0  0  0  0  0
    1.5829    0.2512   -1.2567 C   0  0  0  0  0  0  0  0  0  0  0  0
   -0.4659   -0.0258    0.1584 C   0  0  0  0  0  0  0  0  0  0  0  0
   -1.1613   -0.0249    1.4920 C   0  0  0  0  0  0  0  0  0  0  0  0
   -1.3901    1.0393    0.4890 C   0  0  0  0  0  0  0  0  0  0  0  0
   -2.1821    0.7619   -0.7630 C   0  0  0  0  0  0  0  0  0  0  0  0
   -1.5095    0.5853   -1.9643 O   0  0  0  0  0  0  0  0  0  0  0  0
   -1.2507   -0.4027   -1.0419 C   0  0  0  0  0  0  0  0  0  0  0  0
    2.6656   -0.6719    1.3194 H   0  0  0  0  0  0  0  0  0  0  0  0
    1.0562   -1.4263    1.6670 H   0  0  0  0  0  0  0  0  0  0  0  0
    1.9485   -1.8316    0.1875 H   0  0  0  0  0  0  0  0  0  0  0  0
    1.2665    1.0768    0.6642 H   0  0  0  0  0  0  0  0  0  0  0  0
    1.0850   -0.3962   -2.0061 H   0  0  0  0  0  0  0  0  0  0  0  0
    2.6507   -0.0702   -1.2208 H   0  0  0  0  0  0  0  0  0  0  0  0
    1.5893    1.3068   -1.5834 H   0  0  0  0  0  0  0  0  0  0  0  0
   -0.5164    0.2354    2.3362 H   0  0  0  0  0  0  0  0  0  0  0  0
   -1.9572   -0.7996    1.6241 H   0  0  0  0  0  0  0  0  0  0  0  0
   -1.1336    2.0631    0.7568 H   0  0  0  0  0  0  0  0  0  0  0  0
   -3.2554    0.5825   -0.7229 H   0  0  0  0  0  0  0  0  0  0  0  0
   -1.7521   -1.3854   -1.1124 H   0  0  0  0  0  0  0  0  0  0  0  0
  1  2  1  0
  2  3  1  0
  2  4  1  0
  4  5  1  0
  5  6  1  0
  6  7  1  0
  7  8  1  0
  8  9  1  0
  6  4  1  0
  9  7  1  0
  9  4  1  0
  1 10  1  0
  1 11  1  0
  1 12  1  0
  2 13  1  0
  3 14  1  0
  3 15  1  0
  3 16  1  0
  5 17  1  0
  5 18  1  0
  6 19  1  0
  7 20  1  0
  9 21  1  0
M  END
