
     RDKit          3D

 25 25  0  0  0  0  0  0  0  0999 V2000
    1.1800   -0.7743   -1.1927 C   0  0  0  0  0  0  0  0  0  0  0  0
    0.5949    0.2071   -0.2317 C   0  0  0  0  0  0  0  0  0  0  0  0
    1.2704    0.0387    1.0964 C   0  0  0  0  0  0  0  0  0  0  0  0
    2.7282    0.2462    1.1473 C   0  0  0  0  0  0  0  0  0  0  0  0
    1.7262    1.2187    1.7035 O   0  0  0  0  0  0  0  0  0  0  0  0
   -0.9098    0.1200   -0.1304 C   0  0  0  0  0  0  0  0  0  0  0  0
   -1.4924    1.0992    0.8284 C   0  0  0  0  0  0  0  0  0  0  0  0
   -1.5287    0.3735   -1.4917 C   0  0  0  0  0  0  0  0  0  0  0  0
   -1.3671   -1.2694    0.2742 C   0  0  0  0  0  0  0  0  0  0  0  0
    2.2303   -1.0468   -0.8999 H   0  0  0  0  0  0  0  0  0  0  0  0
    0.6347   -1.7098   -1.3004 H   0  0  0  0  0  0  0  0  0  0  0  0
    1.2778   -0.3407   -2.2230 H   0  0  0  0  0  0  0  0  0  0  0  0
    0.8342    1.2218   -0.6116 H   0  0  0  0  0  0  0  0  0  0  0  0
    0.8771   -0.7678    1.7454 H   0  0  0  0  0  0  0  0  0  0  0  0
    3.3586   -0.0545    1.9904 H   0  0  0  0  0  0  0  0  0  0  0  0
    3.2420    0.7894    0.3115 H   0  0  0  0  0  0  0  0  0  0  0  0
   -0.9646    2.0688    0.8667 H   0  0  0  0  0  0  0  0  0  0  0  0
   -1.5201    0.7216    1.8782 H   0  0  0  0  0  0  0  0  0  0  0  0
   -2.5497    1.3294    0.5302 H   0  0  0  0  0  0  0  0  0  0  0  0
   -1.1531   -0.4268   -2.1655 H   0  0  0  0  0  0  0  0  0  0  0  0
   -1.2174    1.3875   -1.8129 H   0  0  0  0  0  0  0  0  0  0  0  0
   -2.6332    0.2827   -1.4099 H   0  0  0  0  0  0  0  0  0  0  0  0
   -2.4666   -1.1617    0.5113 H   0  0  0  0  0  0  0  0  0  0  0  0
   -0.8816   -1.6365    1.1853 H   0  0  0  0  0  0  0  0  0  0  0  0
   -1.2702   -1.9163   -0.5989 H   0  0  0  0  0  0  0  0  0  0  0  0
  1  2  1  0
  2  3  1  0
  3  4  1  0
  4  5  1  0
  2  6  1  0
  6  7  1  0
  6  8  1  0
  6  9  1  0
  5  3  1  0
  1 10  1  0
  1 11  1  0
  1 12  1  0
  2 13  1  0
  3 14  1  0
  4 15  1  0
  4 16  1  0
  7 17  1  0
  7 18  1  0
  7 19  1  0
  8 20  1  0
  8 21  1  0
  8 22  1  0
  9 23  1  0
  9 24  1  0
  9 25  1  0
M  END
