
     RDKit          3D

 23 23  0  0  0  0  0  0  0  0999 V2000
   -1.3744   -0.5942    1.1774 C   0  0  0  0  0  0  0  0  0  0  0  0
   -0.2912    0.0836    0.3134 C   0  0  0  0  0  0  0  0  0  0  0  0
   -0.1616    1.5086    0.7640 C   0  0  0  0  0  0  0  0  0  0  0  0
    0.9949   -0.6818    0.4680 C   0  0  0  0  0  0  0  0  0  0  0  0
    2.1055   -0.0867   -0.3138 C   0  0  0  0  0  0  0  0  0  0  0  0
    3.2747   -0.8391   -0.1125 O   0  0  0  0  0  0  0  0  0  0  0  0
   -0.7313   -0.0420   -1.1216 C   0  0  0  0  0  0  0  0  0  0  0  0
   -1.9939    0.5593   -1.4796 C   0  0  0  0  0  0  0  0  0  0  0  0
   -1.8965   -0.8670   -1.3529 O   0  0  0  0  0  0  0  0  0  0  0  0
   -2.2398    0.0723    1.1404 H   0  0  0  0  0  0  0  0  0  0  0  0
   -1.0214   -0.7126    2.2007 H   0  0  0  0  0  0  0  0  0  0  0  0
   -1.6226   -1.5837    0.7721 H   0  0  0  0  0  0  0  0  0  0  0  0
   -0.8403    1.7218    1.6299 H   0  0  0  0  0  0  0  0  0  0  0  0
   -0.4651    2.1577   -0.1089 H   0  0  0  0  0  0  0  0  0  0  0  0
    0.8561    1.7718    1.1217 H   0  0  0  0  0  0  0  0  0  0  0  0
    0.7699   -1.7311    0.1170 H   0  0  0  0  0  0  0  0  0  0  0  0
    1.2070   -0.8000    1.5492 H   0  0  0  0  0  0  0  0  0  0  0  0
    2.3050    0.9749   -0.0725 H   0  0  0  0  0  0  0  0  0  0  0  0
    1.9012   -0.1356   -1.3947 H   0  0  0  0  0  0  0  0  0  0  0  0
    4.0337   -0.2106   -0.1465 H   0  0  0  0  0  0  0  0  0  0  0  0
    0.0261   -0.1478   -1.9200 H   0  0  0  0  0  0  0  0  0  0  0  0
   -2.2672    0.8307   -2.5237 H   0  0  0  0  0  0  0  0  0  0  0  0
   -2.5688    1.0838   -0.7070 H   0  0  0  0  0  0  0  0  0  0  0  0
  1  2  1  0
  2  3  1  0
  2  4  1  0
  4  5  1  0
  5  6  1  0
  2  7  1  0
  7  8  1  0
  8  9  1  0
  9  7  1  0
  1 10  1  0
  1 11  1  0
  1 12  1  0
  3 13  1  0
  3 14  1  0
  3 15  1  0
  4 16  1  0
  4 17  1  0
  5 18  1  0
  5 19  1  0
  6 20  1  0
  7 21  1  0
  8 22  1  0
  8 23  1  0
M  END
