
     RDKit          3D

 21 21  0  0  0  0  0  0  0  0999 V2000
   -1.1450   -1.3865    0.1296 C   0  0  0  0  0  0  0  0  0  0  0  0
   -0.9011    0.0257    0.4983 C   0  0  0  0  0  0  0  0  0  0  0  0
   -1.9006    0.9075   -0.2426 C   0  0  0  0  0  0  0  0  0  0  0  0
    0.4431    0.5866    0.2225 C   0  0  0  0  0  0  0  0  0  0  0  0
    0.4518    2.0367    0.6419 C   0  0  0  0  0  0  0  0  0  0  0  0
    0.4573    2.9384   -0.1746 O   0  0  0  0  0  0  0  0  0  0  0  0
    0.6716    0.4643   -1.2564 O   0  0  0  0  0  0  0  0  0  0  0  0
    1.6304    0.0352   -0.2128 C   0  0  0  0  0  0  0  0  0  0  0  0
    2.0605   -1.4014   -0.3110 C   0  0  0  0  0  0  0  0  0  0  0  0
   -1.4558   -1.4781   -0.9415 H   0  0  0  0  0  0  0  0  0  0  0  0
   -0.3518   -2.0992    0.3901 H   0  0  0  0  0  0  0  0  0  0  0  0
   -2.0438   -1.7318    0.7037 H   0  0  0  0  0  0  0  0  0  0  0  0
   -1.1075    0.1619    1.5905 H   0  0  0  0  0  0  0  0  0  0  0  0
   -1.3867    1.6210   -0.9340 H   0  0  0  0  0  0  0  0  0  0  0  0
   -2.5068    1.5183    0.4544 H   0  0  0  0  0  0  0  0  0  0  0  0
   -2.5656    0.3012   -0.9051 H   0  0  0  0  0  0  0  0  0  0  0  0
    0.4812    2.1991    1.7059 H   0  0  0  0  0  0  0  0  0  0  0  0
    2.5120    0.7225   -0.3261 H   0  0  0  0  0  0  0  0  0  0  0  0
    2.0016   -1.9398    0.6700 H   0  0  0  0  0  0  0  0  0  0  0  0
    3.1390   -1.5135   -0.5955 H   0  0  0  0  0  0  0  0  0  0  0  0
    1.5160   -1.9680   -1.1076 H   0  0  0  0  0  0  0  0  0  0  0  0
  1  2  1  0
  2  3  1  0
  2  4  1  0
  4  5  1  0
  5  6  2  0
  4  7  1  0
  7  8  1  0
  8  9  1  0
  8  4  1  0
  1 10  1  0
  1 11  1  0
  1 12  1  0
  2 13  1  0
  3 14  1  0
  3 15  1  0
  3 16  1  0
  5 17  1  0
  8 18  1  0
  9 19  1  0
  9 20  1  0
  9 21  1  0
M  END
