
     RDKit          3D

 21 21  0  0  0  0  0  0  0  0999 V2000
   -2.3125   -0.5439    0.8541 C   0  0  0  0  0  0  0  0  0  0  0  0
   -1.4145    0.0899   -0.2016 C   0  0  0  0  0  0  0  0  0  0  0  0
   -1.5890    1.5891   -0.2348 C   0  0  0  0  0  0  0  0  0  0  0  0
    0.0318   -0.1880    0.2235 C   0  0  0  0  0  0  0  0  0  0  0  0
    0.1966   -1.6607    0.2767 O   0  0  0  0  0  0  0  0  0  0  0  0
    0.9174   -0.7682   -0.6650 C   0  0  0  0  0  0  0  0  0  0  0  0
    2.3904   -0.8597   -0.3681 C   0  0  0  0  0  0  0  0  0  0  0  0
    3.0207    0.4457   -0.1758 C   0  0  0  0  0  0  0  0  0  0  0  0
    2.3776    1.4693   -0.2576 O   0  0  0  0  0  0  0  0  0  0  0  0
   -1.7290   -1.1554    1.5783 H   0  0  0  0  0  0  0  0  0  0  0  0
   -2.9745   -1.2710    0.3067 H   0  0  0  0  0  0  0  0  0  0  0  0
   -2.8798    0.2004    1.4273 H   0  0  0  0  0  0  0  0  0  0  0  0
   -1.6084   -0.3015   -1.2107 H   0  0  0  0  0  0  0  0  0  0  0  0
   -0.5986    2.0879   -0.3074 H   0  0  0  0  0  0  0  0  0  0  0  0
   -2.1806    1.9231   -1.1273 H   0  0  0  0  0  0  0  0  0  0  0  0
   -2.1278    1.9063    0.6847 H   0  0  0  0  0  0  0  0  0  0  0  0
    0.2895    0.3100    1.1740 H   0  0  0  0  0  0  0  0  0  0  0  0
    0.6388   -0.9498   -1.7243 H   0  0  0  0  0  0  0  0  0  0  0  0
    2.8720   -1.3633   -1.2491 H   0  0  0  0  0  0  0  0  0  0  0  0
    2.6089   -1.4800    0.5411 H   0  0  0  0  0  0  0  0  0  0  0  0
    4.0711    0.5197    0.0426 H   0  0  0  0  0  0  0  0  0  0  0  0
  1  2  1  0
  2  3  1  0
  2  4  1  0
  4  5  1  0
  5  6  1  0
  6  7  1  0
  7  8  1  0
  8  9  2  0
  6  4  1  0
  1 10  1  0
  1 11  1  0
  1 12  1  0
  2 13  1  0
  3 14  1  0
  3 15  1  0
  3 16  1  0
  4 17  1  0
  6 18  1  0
  7 19  1  0
  7 20  1  0
  8 21  1  0
M  END
