
     RDKit          3D

 23 24  0  0  0  0  0  0  0  0999 V2000
   -1.6403   -0.8001   -1.2078 C   0  0  0  0  0  0  0  0  0  0  0  0
   -0.8962   -0.1026   -0.0681 C   0  0  0  0  0  0  0  0  0  0  0  0
   -0.7494   -1.0960    1.0364 C   0  0  0  0  0  0  0  0  0  0  0  0
   -1.7609    1.0449    0.3776 C   0  0  0  0  0  0  0  0  0  0  0  0
    0.4164    0.3730   -0.6193 C   0  0  0  0  0  0  0  0  0  0  0  0
    1.2051   -0.6432   -1.1039 O   0  0  0  0  0  0  0  0  0  0  0  0
    2.3176    0.0666   -0.6601 C   0  0  0  0  0  0  0  0  0  0  0  0
    2.6017    0.0652    0.7803 C   0  0  0  0  0  0  0  0  0  0  0  0
    1.4357    0.8413    0.3552 C   0  0  0  0  0  0  0  0  0  0  0  0
   -0.8940   -1.3253   -1.8358 H   0  0  0  0  0  0  0  0  0  0  0  0
   -2.3568   -1.5624   -0.7977 H   0  0  0  0  0  0  0  0  0  0  0  0
   -2.1962   -0.0768   -1.8299 H   0  0  0  0  0  0  0  0  0  0  0  0
    0.2423   -1.5858    1.0266 H   0  0  0  0  0  0  0  0  0  0  0  0
   -1.4936   -1.9351    0.9623 H   0  0  0  0  0  0  0  0  0  0  0  0
   -0.9363   -0.6065    2.0164 H   0  0  0  0  0  0  0  0  0  0  0  0
   -2.5789    0.5970    1.0116 H   0  0  0  0  0  0  0  0  0  0  0  0
   -2.2322    1.5367   -0.4783 H   0  0  0  0  0  0  0  0  0  0  0  0
   -1.2100    1.7440    1.0408 H   0  0  0  0  0  0  0  0  0  0  0  0
    0.2123    1.1069   -1.4512 H   0  0  0  0  0  0  0  0  0  0  0  0
    2.9022    0.6402   -1.3727 H   0  0  0  0  0  0  0  0  0  0  0  0
    3.5401    0.6191    1.0638 H   0  0  0  0  0  0  0  0  0  0  0  0
    2.5000   -0.8629    1.3998 H   0  0  0  0  0  0  0  0  0  0  0  0
    1.5714    1.9617    0.3542 H   0  0  0  0  0  0  0  0  0  0  0  0
  1  2  1  0
  2  3  1  0
  2  4  1  0
  2  5  1  0
  5  6  1  0
  6  7  1  0
  7  8  1  0
  8  9  1  0
  9  5  1  0
  9  7  1  0
  1 10  1  0
  1 11  1  0
  1 12  1  0
  3 13  1  0
  3 14  1  0
  3 15  1  0
  4 16  1  0
  4 17  1  0
  4 18  1  0
  5 19  1  0
  7 20  1  0
  8 21  1  0
  8 22  1  0
  9 23  1  0
M  END
