
     RDKit          3D

 21 22  0  0  0  0  0  0  0  0999 V2000
   -1.8805   -1.0830    0.3521 C   0  0  0  0  0  0  0  0  0  0  0  0
   -1.0379    0.1786    0.4410 C   0  0  0  0  0  0  0  0  0  0  0  0
   -1.3827    1.0655   -0.7104 C   0  0  0  0  0  0  0  0  0  0  0  0
    0.3887   -0.0791    0.6843 C   0  0  0  0  0  0  0  0  0  0  0  0
    1.1893   -0.8844   -0.2746 C   0  0  0  0  0  0  0  0  0  0  0  0
    2.3848   -0.2569    0.4169 C   0  0  0  0  0  0  0  0  0  0  0  0
    1.4125    0.8831    0.1656 C   0  0  0  0  0  0  0  0  0  0  0  0
    1.2256    0.2877   -1.1318 C   0  0  0  0  0  0  0  0  0  0  0  0
    1.1382    0.5333   -2.2912 O   0  0  0  0  0  0  0  0  0  0  0  0
   -1.3359   -1.9309   -0.0885 H   0  0  0  0  0  0  0  0  0  0  0  0
   -2.7744   -0.8756   -0.2890 H   0  0  0  0  0  0  0  0  0  0  0  0
   -2.2779   -1.3846    1.3437 H   0  0  0  0  0  0  0  0  0  0  0  0
   -1.4301    0.7060    1.3646 H   0  0  0  0  0  0  0  0  0  0  0  0
   -1.5302    0.5024   -1.6513 H   0  0  0  0  0  0  0  0  0  0  0  0
   -2.3959    1.5221   -0.4993 H   0  0  0  0  0  0  0  0  0  0  0  0
   -0.6989    1.9326   -0.8076 H   0  0  0  0  0  0  0  0  0  0  0  0
    0.6198   -0.3510    1.7318 H   0  0  0  0  0  0  0  0  0  0  0  0
    1.1041   -1.8527   -0.5160 H   0  0  0  0  0  0  0  0  0  0  0  0
    3.3091   -0.2211   -0.1534 H   0  0  0  0  0  0  0  0  0  0  0  0
    2.4149   -0.5266    1.4711 H   0  0  0  0  0  0  0  0  0  0  0  0
    1.5574    1.8344    0.4422 H   0  0  0  0  0  0  0  0  0  0  0  0
  1  2  1  0
  2  3  1  0
  2  4  1  0
  4  5  1  0
  5  6  1  0
  6  7  1  0
  7  8  1  0
  8  9  2  0
  7  4  1  0
  8  5  1  0
  1 10  1  0
  1 11  1  0
  1 12  1  0
  2 13  1  0
  3 14  1  0
  3 15  1  0
  3 16  1  0
  4 17  1  0
  5 18  1  0
  6 19  1  0
  6 20  1  0
  7 21  1  0
M  END
