
     RDKit          3D

 19 18  0  0  0  0  0  0  0  0999 V2000
   -1.4677    0.9414    0.2818 C   0  0  0  0  0  0  0  0  0  0  0  0
   -0.6371   -0.3094    0.4929 C   0  0  0  0  0  0  0  0  0  0  0  0
   -1.5576   -1.4776    0.6484 C   0  0  0  0  0  0  0  0  0  0  0  0
    0.3294   -0.4859   -0.6406 C   0  0  0  0  0  0  0  0  0  0  0  0
    0.3371   -1.4560   -1.3642 O   0  0  0  0  0  0  0  0  0  0  0  0
    1.3098    0.6491   -0.8210 C   0  0  0  0  0  0  0  0  0  0  0  0
    2.1424    0.3582   -1.9000 O   0  0  0  0  0  0  0  0  0  0  0  0
    2.1414    0.8414    0.3757 C   0  0  0  0  0  0  0  0  0  0  0  0
    3.3375    0.7359    0.2981 O   0  0  0  0  0  0  0  0  0  0  0  0
   -0.8719    1.8625    0.3999 H   0  0  0  0  0  0  0  0  0  0  0  0
   -1.9403    0.8558   -0.7267 H   0  0  0  0  0  0  0  0  0  0  0  0
   -2.2378    0.9483    1.0922 H   0  0  0  0  0  0  0  0  0  0  0  0
   -0.0305   -0.1694    1.4046 H   0  0  0  0  0  0  0  0  0  0  0  0
   -2.4098   -1.4536   -0.0629 H   0  0  0  0  0  0  0  0  0  0  0  0
   -1.0465   -2.4624    0.5129 H   0  0  0  0  0  0  0  0  0  0  0  0
   -2.0203   -1.3977    1.6657 H   0  0  0  0  0  0  0  0  0  0  0  0
    0.7424    1.5869   -1.0334 H   0  0  0  0  0  0  0  0  0  0  0  0
    2.1890   -0.6431   -1.9441 H   0  0  0  0  0  0  0  0  0  0  0  0
    1.6906    1.0756    1.3207 H   0  0  0  0  0  0  0  0  0  0  0  0
  1  2  1  0
  2  3  1  0
  2  4  1  0
  4  5  2  0
  4  6  1  0
  6  7  1  0
  6  8  1  0
  8  9  2  0
  1 10  1  0
  1 11  1  0
  1 12  1  0
  2 13  1  0
  3 14  1  0
  3 15  1  0
  3 16  1  0
  6 17  1  0
  7 18  1  0
  8 19  1  0
M  END
