
     RDKit          3D

 23 22  0  0  0  0  0  0  0  0999 V2000
   -0.9462   -2.2210   -0.5606 C   0  0  0  0  0  0  0  0  0  0  0  0
   -0.4418   -0.8175   -0.0806 C   0  0  0  0  0  0  0  0  0  0  0  0
   -1.6701   -0.0801    0.2590 C   0  0  0  0  0  0  0  0  0  0  0  0
   -1.5155    1.3358    0.7265 C   0  0  0  0  0  0  0  0  0  0  0  0
   -0.9509    2.0782   -0.2990 O   0  0  0  0  0  0  0  0  0  0  0  0
    0.3677   -0.2643   -1.0062 O   0  0  0  0  0  0  0  0  0  0  0  0
    1.6956   -0.2373   -0.7257 C   0  0  0  0  0  0  0  0  0  0  0  0
    2.1809    0.4606    0.4787 C   0  0  0  0  0  0  0  0  0  0  0  0
    1.8979    1.7966    0.5128 O   0  0  0  0  0  0  0  0  0  0  0  0
   -1.6584   -2.0065   -1.3772 H   0  0  0  0  0  0  0  0  0  0  0  0
   -1.5009   -2.6307    0.3045 H   0  0  0  0  0  0  0  0  0  0  0  0
   -0.1039   -2.8520   -0.8280 H   0  0  0  0  0  0  0  0  0  0  0  0
    0.1545   -1.0288    0.8505 H   0  0  0  0  0  0  0  0  0  0  0  0
   -2.4372   -0.0998   -0.5809 H   0  0  0  0  0  0  0  0  0  0  0  0
   -2.2529   -0.5952    1.0946 H   0  0  0  0  0  0  0  0  0  0  0  0
   -0.8065    1.4020    1.5930 H   0  0  0  0  0  0  0  0  0  0  0  0
   -2.4681    1.7944    1.0432 H   0  0  0  0  0  0  0  0  0  0  0  0
   -1.6854    2.3583   -0.8939 H   0  0  0  0  0  0  0  0  0  0  0  0
    2.1805   -1.2458   -0.7427 H   0  0  0  0  0  0  0  0  0  0  0  0
    2.1844    0.2706   -1.6200 H   0  0  0  0  0  0  0  0  0  0  0  0
    1.9017   -0.0652    1.4266 H   0  0  0  0  0  0  0  0  0  0  0  0
    3.3125    0.3718    0.4629 H   0  0  0  0  0  0  0  0  0  0  0  0
    2.5621    2.2759   -0.0373 H   0  0  0  0  0  0  0  0  0  0  0  0
  1  2  1  0
  2  3  1  0
  3  4  1  0
  4  5  1  0
  2  6  1  0
  6  7  1  0
  7  8  1  0
  8  9  1  0
  1 10  1  0
  1 11  1  0
  1 12  1  0
  2 13  1  0
  3 14  1  0
  3 15  1  0
  4 16  1  0
  4 17  1  0
  5 18  1  0
  7 19  1  0
  7 20  1  0
  8 21  1  0
  8 22  1  0
  9 23  1  0
M  END
