
     RDKit          3D

 21 22  0  0  0  0  0  0  0  0999 V2000
    1.3371    1.6032    0.8566 C   0  0  0  0  0  0  0  0  0  0  0  0
    0.6611    0.9045   -0.2745 C   0  0  0  0  0  0  0  0  0  0  0  0
    1.4815   -0.2977   -0.6793 C   0  0  0  0  0  0  0  0  0  0  0  0
    1.6258   -1.1981    0.3750 O   0  0  0  0  0  0  0  0  0  0  0  0
   -0.7516    0.5890    0.0312 C   0  0  0  0  0  0  0  0  0  0  0  0
   -1.0948   -0.2887    1.1934 C   0  0  0  0  0  0  0  0  0  0  0  0
   -1.3467   -0.7528   -0.1818 C   0  0  0  0  0  0  0  0  0  0  0  0
   -2.4648   -0.0652   -0.9214 C   0  0  0  0  0  0  0  0  0  0  0  0
   -1.7674    1.1146   -0.7628 O   0  0  0  0  0  0  0  0  0  0  0  0
    1.5989    0.8712    1.6329 H   0  0  0  0  0  0  0  0  0  0  0  0
    2.3137    2.0026    0.4575 H   0  0  0  0  0  0  0  0  0  0  0  0
    0.7831    2.4781    1.2287 H   0  0  0  0  0  0  0  0  0  0  0  0
    0.6752    1.5977   -1.1620 H   0  0  0  0  0  0  0  0  0  0  0  0
    0.9886   -0.8578   -1.5207 H   0  0  0  0  0  0  0  0  0  0  0  0
    2.4786    0.0091   -1.0571 H   0  0  0  0  0  0  0  0  0  0  0  0
    2.5099   -1.6546    0.2688 H   0  0  0  0  0  0  0  0  0  0  0  0
   -0.2393   -0.7412    1.7079 H   0  0  0  0  0  0  0  0  0  0  0  0
   -1.9418    0.0554    1.8341 H   0  0  0  0  0  0  0  0  0  0  0  0
   -0.7864   -1.5756   -0.6470 H   0  0  0  0  0  0  0  0  0  0  0  0
   -2.6153   -0.3967   -1.9758 H   0  0  0  0  0  0  0  0  0  0  0  0
   -3.4456   -0.1122   -0.4034 H   0  0  0  0  0  0  0  0  0  0  0  0
  1  2  1  0
  2  3  1  0
  3  4  1  0
  2  5  1  0
  5  6  1  0
  6  7  1  0
  7  8  1  0
  8  9  1  0
  7  5  1  0
  9  5  1  0
  1 10  1  0
  1 11  1  0
  1 12  1  0
  2 13  1  0
  3 14  1  0
  3 15  1  0
  4 16  1  0
  6 17  1  0
  6 18  1  0
  7 19  1  0
  8 20  1  0
  8 21  1  0
M  END
