
     RDKit          3D

 25 25  0  0  0  0  0  0  0  0999 V2000
   -2.6023   -0.2789    0.3814 C   0  0  0  0  0  0  0  0  0  0  0  0
   -1.4169    0.1197   -0.4163 C   0  0  0  0  0  0  0  0  0  0  0  0
   -1.4958    1.6145   -0.6523 C   0  0  0  0  0  0  0  0  0  0  0  0
   -0.0952   -0.2577    0.1880 C   0  0  0  0  0  0  0  0  0  0  0  0
    0.1533   -1.6997    0.4235 C   0  0  0  0  0  0  0  0  0  0  0  0
    1.6044   -1.4763   -0.0089 C   0  0  0  0  0  0  0  0  0  0  0  0
    1.0983   -0.1967   -0.6944 C   0  0  0  0  0  0  0  0  0  0  0  0
    2.1039    0.8812   -0.4198 C   0  0  0  0  0  0  0  0  0  0  0  0
    2.6002    0.7184    0.8798 O   0  0  0  0  0  0  0  0  0  0  0  0
   -3.4106   -0.6650   -0.2771 H   0  0  0  0  0  0  0  0  0  0  0  0
   -2.4124   -1.0469    1.1490 H   0  0  0  0  0  0  0  0  0  0  0  0
   -3.0743    0.5838    0.9355 H   0  0  0  0  0  0  0  0  0  0  0  0
   -1.4484   -0.3624   -1.4344 H   0  0  0  0  0  0  0  0  0  0  0  0
   -1.0123    2.1656    0.1974 H   0  0  0  0  0  0  0  0  0  0  0  0
   -2.5597    1.9762   -0.6443 H   0  0  0  0  0  0  0  0  0  0  0  0
   -1.0415    1.9230   -1.6032 H   0  0  0  0  0  0  0  0  0  0  0  0
    0.0730    0.3383    1.1158 H   0  0  0  0  0  0  0  0  0  0  0  0
   -0.2932   -2.4220   -0.2699 H   0  0  0  0  0  0  0  0  0  0  0  0
    0.0338   -2.0032    1.4787 H   0  0  0  0  0  0  0  0  0  0  0  0
    1.9970   -2.1988   -0.7218 H   0  0  0  0  0  0  0  0  0  0  0  0
    2.2303   -1.2711    0.8937 H   0  0  0  0  0  0  0  0  0  0  0  0
    0.9187   -0.3910   -1.7818 H   0  0  0  0  0  0  0  0  0  0  0  0
    1.7256    1.8994   -0.6063 H   0  0  0  0  0  0  0  0  0  0  0  0
    2.9794    0.6873   -1.0969 H   0  0  0  0  0  0  0  0  0  0  0  0
    3.3445    1.3622    1.0559 H   0  0  0  0  0  0  0  0  0  0  0  0
  1  2  1  0
  2  3  1  0
  2  4  1  0
  4  5  1  0
  5  6  1  0
  6  7  1  0
  7  8  1  0
  8  9  1  0
  7  4  1  0
  1 10  1  0
  1 11  1  0
  1 12  1  0
  2 13  1  0
  3 14  1  0
  3 15  1  0
  3 16  1  0
  4 17  1  0
  5 18  1  0
  5 19  1  0
  6 20  1  0
  6 21  1  0
  7 22  1  0
  8 23  1  0
  8 24  1  0
  9 25  1  0
M  END
