
     RDKit          3D

 27 26  0  0  0  0  0  0  0  0999 V2000
    2.5766    0.8610   -0.8214 C   0  0  0  0  0  0  0  0  0  0  0  0
    1.9284   -0.4482   -0.5044 C   0  0  0  0  0  0  0  0  0  0  0  0
    2.3789   -1.0577    0.7906 C   0  0  0  0  0  0  0  0  0  0  0  0
    0.4071   -0.3877   -0.5923 C   0  0  0  0  0  0  0  0  0  0  0  0
   -0.1814    0.5967    0.3421 C   0  0  0  0  0  0  0  0  0  0  0  0
   -1.6548    0.6726    0.2352 C   0  0  0  0  0  0  0  0  0  0  0  0
   -2.1299    1.0689   -1.1555 C   0  0  0  0  0  0  0  0  0  0  0  0
   -2.4342   -0.4984    0.7002 C   0  0  0  0  0  0  0  0  0  0  0  0
   -2.1217   -1.6270   -0.0028 O   0  0  0  0  0  0  0  0  0  0  0  0
    1.8451    1.6371   -1.1325 H   0  0  0  0  0  0  0  0  0  0  0  0
    3.3245    0.7925   -1.6531 H   0  0  0  0  0  0  0  0  0  0  0  0
    3.1331    1.2885    0.0409 H   0  0  0  0  0  0  0  0  0  0  0  0
    2.2332   -1.1692   -1.3170 H   0  0  0  0  0  0  0  0  0  0  0  0
    1.7984   -0.7132    1.6712 H   0  0  0  0  0  0  0  0  0  0  0  0
    3.4537   -0.9212    0.9166 H   0  0  0  0  0  0  0  0  0  0  0  0
    2.1714   -2.1631    0.7236 H   0  0  0  0  0  0  0  0  0  0  0  0
    0.1016   -1.4245   -0.2616 H   0  0  0  0  0  0  0  0  0  0  0  0
    0.1429   -0.1626   -1.6229 H   0  0  0  0  0  0  0  0  0  0  0  0
    0.0507    0.3051    1.4117 H   0  0  0  0  0  0  0  0  0  0  0  0
    0.2491    1.6198    0.2556 H   0  0  0  0  0  0  0  0  0  0  0  0
   -1.9932    1.5489    0.8836 H   0  0  0  0  0  0  0  0  0  0  0  0
   -1.4610    1.8562   -1.5228 H   0  0  0  0  0  0  0  0  0  0  0  0
   -3.1606    1.4653   -1.0492 H   0  0  0  0  0  0  0  0  0  0  0  0
   -2.2017    0.1866   -1.8224 H   0  0  0  0  0  0  0  0  0  0  0  0
   -3.5136   -0.2726    0.5019 H   0  0  0  0  0  0  0  0  0  0  0  0
   -2.3722   -0.6555    1.8048 H   0  0  0  0  0  0  0  0  0  0  0  0
   -2.5703   -2.3983    0.4081 H   0  0  0  0  0  0  0  0  0  0  0  0
  1  2  1  0
  2  3  1  0
  2  4  1  0
  4  5  1  0
  5  6  1  0
  6  7  1  0
  6  8  1  0
  8  9  1  0
  1 10  1  0
  1 11  1  0
  1 12  1  0
  2 13  1  0
  3 14  1  0
  3 15  1  0
  3 16  1  0
  4 17  1  0
  4 18  1  0
  5 19  1  0
  5 20  1  0
  6 21  1  0
  7 22  1  0
  7 23  1  0
  7 24  1  0
  8 25  1  0
  8 26  1  0
  9 27  1  0
M  END
