
     RDKit          3D

 23 22  0  0  0  0  0  0  0  0999 V2000
    1.6248    1.0680   -0.1295 C   0  0  0  0  0  0  0  0  0  0  0  0
    0.8199   -0.0324    0.4770 C   0  0  0  0  0  0  0  0  0  0  0  0
    1.4892   -1.3361    0.2193 C   0  0  0  0  0  0  0  0  0  0  0  0
   -0.6100    0.0288    0.0146 C   0  0  0  0  0  0  0  0  0  0  0  0
   -1.1542    1.3893    0.4587 C   0  0  0  0  0  0  0  0  0  0  0  0
   -0.7463   -0.0532   -1.4786 C   0  0  0  0  0  0  0  0  0  0  0  0
   -1.4664   -1.0257    0.6391 C   0  0  0  0  0  0  0  0  0  0  0  0
    2.4118    1.3633    0.5998 H   0  0  0  0  0  0  0  0  0  0  0  0
    1.0133    1.9243   -0.4713 H   0  0  0  0  0  0  0  0  0  0  0  0
    2.1288    0.6480   -1.0443 H   0  0  0  0  0  0  0  0  0  0  0  0
    0.7949    0.1389    1.5897 H   0  0  0  0  0  0  0  0  0  0  0  0
    2.2267   -1.3031   -0.6302 H   0  0  0  0  0  0  0  0  0  0  0  0
    0.8179   -2.1768    0.0131 H   0  0  0  0  0  0  0  0  0  0  0  0
    2.1230   -1.6245    1.1090 H   0  0  0  0  0  0  0  0  0  0  0  0
   -0.5086    1.8375    1.2501 H   0  0  0  0  0  0  0  0  0  0  0  0
   -2.1575    1.2781    0.9210 H   0  0  0  0  0  0  0  0  0  0  0  0
   -1.2427    2.0887   -0.3958 H   0  0  0  0  0  0  0  0  0  0  0  0
   -0.6119   -1.1174   -1.7664 H   0  0  0  0  0  0  0  0  0  0  0  0
   -1.7529    0.3153   -1.7776 H   0  0  0  0  0  0  0  0  0  0  0  0
   -0.0164    0.5647   -2.0279 H   0  0  0  0  0  0  0  0  0  0  0  0
   -1.8528   -1.7538   -0.1318 H   0  0  0  0  0  0  0  0  0  0  0  0
   -0.9428   -1.6002    1.4396 H   0  0  0  0  0  0  0  0  0  0  0  0
   -2.3877   -0.6219    1.1223 H   0  0  0  0  0  0  0  0  0  0  0  0
  1  2  1  0
  2  3  1  0
  2  4  1  0
  4  5  1  0
  4  6  1  0
  4  7  1  0
  1  8  1  0
  1  9  1  0
  1 10  1  0
  2 11  1  0
  3 12  1  0
  3 13  1  0
  3 14  1  0
  5 15  1  0
  5 16  1  0
  5 17  1  0
  6 18  1  0
  6 19  1  0
  6 20  1  0
  7 21  1  0
  7 22  1  0
  7 23  1  0
M  END
