
     RDKit          3D

 25 24  0  0  0  0  0  0  0  0999 V2000
   -2.6735    0.7931   -0.1434 C   0  0  0  0  0  0  0  0  0  0  0  0
   -1.4845    0.0708    0.4902 C   0  0  0  0  0  0  0  0  0  0  0  0
   -1.8841   -1.3891    0.5864 C   0  0  0  0  0  0  0  0  0  0  0  0
   -0.3142    0.2619   -0.4441 C   0  0  0  0  0  0  0  0  0  0  0  0
    0.9368   -0.3999    0.0531 C   0  0  0  0  0  0  0  0  0  0  0  0
    2.0229   -0.1181   -0.9945 C   0  0  0  0  0  0  0  0  0  0  0  0
    3.2112   -0.7102   -0.5854 O   0  0  0  0  0  0  0  0  0  0  0  0
    1.3819    0.2786    1.3212 C   0  0  0  0  0  0  0  0  0  0  0  0
    1.6194    1.6260    0.9987 O   0  0  0  0  0  0  0  0  0  0  0  0
   -2.7537    1.8111    0.2908 H   0  0  0  0  0  0  0  0  0  0  0  0
   -3.6080    0.2169   -0.0329 H   0  0  0  0  0  0  0  0  0  0  0  0
   -2.5039    0.9226   -1.2334 H   0  0  0  0  0  0  0  0  0  0  0  0
   -1.2986    0.4905    1.4960 H   0  0  0  0  0  0  0  0  0  0  0  0
   -2.1544   -1.7203   -0.4561 H   0  0  0  0  0  0  0  0  0  0  0  0
   -2.8112   -1.4394    1.1990 H   0  0  0  0  0  0  0  0  0  0  0  0
   -1.0993   -2.0218    1.0242 H   0  0  0  0  0  0  0  0  0  0  0  0
   -0.5922   -0.1658   -1.4242 H   0  0  0  0  0  0  0  0  0  0  0  0
   -0.1253    1.3443   -0.5443 H   0  0  0  0  0  0  0  0  0  0  0  0
    0.8336   -1.4812    0.2038 H   0  0  0  0  0  0  0  0  0  0  0  0
    2.1161    0.9647   -1.1742 H   0  0  0  0  0  0  0  0  0  0  0  0
    1.7451   -0.6032   -1.9648 H   0  0  0  0  0  0  0  0  0  0  0  0
    3.8491   -0.6352   -1.3388 H   0  0  0  0  0  0  0  0  0  0  0  0
    2.3684   -0.1190    1.6738 H   0  0  0  0  0  0  0  0  0  0  0  0
    0.6286    0.2243    2.1307 H   0  0  0  0  0  0  0  0  0  0  0  0
    2.5896    1.7983    0.8489 H   0  0  0  0  0  0  0  0  0  0  0  0
  1  2  1  0
  2  3  1  0
  2  4  1  0
  4  5  1  0
  5  6  1  0
  6  7  1  0
  5  8  1  0
  8  9  1  0
  1 10  1  0
  1 11  1  0
  1 12  1  0
  2 13  1  0
  3 14  1  0
  3 15  1  0
  3 16  1  0
  4 17  1  0
  4 18  1  0
  5 19  1  0
  6 20  1  0
  6 21  1  0
  7 22  1  0
  8 23  1  0
  8 24  1  0
  9 25  1  0
M  END
