
     RDKit          3D

 23 24  0  0  0  0  0  0  0  0999 V2000
    0.7485    1.6960    0.0579 C   0  0  0  0  0  0  0  0  0  0  0  0
    0.9439    0.3865   -0.6291 C   0  0  0  0  0  0  0  0  0  0  0  0
    2.2065   -0.2507   -0.0935 C   0  0  0  0  0  0  0  0  0  0  0  0
    2.4134   -1.4868   -0.7251 O   0  0  0  0  0  0  0  0  0  0  0  0
   -0.2202   -0.5549   -0.4839 C   0  0  0  0  0  0  0  0  0  0  0  0
   -0.5804   -0.9452    0.9170 C   0  0  0  0  0  0  0  0  0  0  0  0
   -2.0322   -0.7119    0.5628 C   0  0  0  0  0  0  0  0  0  0  0  0
   -2.3856    0.6880    0.2520 C   0  0  0  0  0  0  0  0  0  0  0  0
   -1.5720   -0.0119   -0.7540 C   0  0  0  0  0  0  0  0  0  0  0  0
    1.6865    2.2722   -0.0286 H   0  0  0  0  0  0  0  0  0  0  0  0
   -0.0243    2.2867   -0.4889 H   0  0  0  0  0  0  0  0  0  0  0  0
    0.5008    1.6200    1.1151 H   0  0  0  0  0  0  0  0  0  0  0  0
    1.0988    0.5657   -1.7120 H   0  0  0  0  0  0  0  0  0  0  0  0
    3.0934    0.3689   -0.2853 H   0  0  0  0  0  0  0  0  0  0  0  0
    2.1427   -0.4584    0.9944 H   0  0  0  0  0  0  0  0  0  0  0  0
    2.7659   -2.1385   -0.0959 H   0  0  0  0  0  0  0  0  0  0  0  0
   -0.0205   -1.4760   -1.0864 H   0  0  0  0  0  0  0  0  0  0  0  0
   -0.4224   -2.0135    1.1746 H   0  0  0  0  0  0  0  0  0  0  0  0
   -0.1405   -0.2436    1.6400 H   0  0  0  0  0  0  0  0  0  0  0  0
   -2.7102   -1.5550    0.4157 H   0  0  0  0  0  0  0  0  0  0  0  0
   -1.9613    1.4503    0.9358 H   0  0  0  0  0  0  0  0  0  0  0  0
   -3.4414    0.8755   -0.0008 H   0  0  0  0  0  0  0  0  0  0  0  0
   -2.0894   -0.3634   -1.6816 H   0  0  0  0  0  0  0  0  0  0  0  0
  1  2  1  0
  2  3  1  0
  3  4  1  0
  2  5  1  0
  5  6  1  0
  6  7  1  0
  7  8  1  0
  8  9  1  0
  9  5  1  0
  9  7  1  0
  1 10  1  0
  1 11  1  0
  1 12  1  0
  2 13  1  0
  3 14  1  0
  3 15  1  0
  4 16  1  0
  5 17  1  0
  6 18  1  0
  6 19  1  0
  7 20  1  0
  8 21  1  0
  8 22  1  0
  9 23  1  0
M  END
