
     RDKit          3D

 21 21  0  0  0  0  0  0  0  0999 V2000
   -1.1180    1.3312    0.1666 C   0  0  0  0  0  0  0  0  0  0  0  0
   -0.3971    0.1993   -0.5834 C   0  0  0  0  0  0  0  0  0  0  0  0
   -0.8380   -1.0773    0.0283 C   0  0  0  0  0  0  0  0  0  0  0  0
   -2.3145   -1.1744   -0.1270 C   0  0  0  0  0  0  0  0  0  0  0  0
   -3.0756   -0.6164    0.6198 O   0  0  0  0  0  0  0  0  0  0  0  0
    1.0669    0.5071   -0.4375 C   0  0  0  0  0  0  0  0  0  0  0  0
    1.6076    0.5690    0.9380 C   0  0  0  0  0  0  0  0  0  0  0  0
    2.7720   -0.0758    0.5082 O   0  0  0  0  0  0  0  0  0  0  0  0
    2.0202   -0.6351   -0.5377 C   0  0  0  0  0  0  0  0  0  0  0  0
   -2.1684    1.4098   -0.1090 H   0  0  0  0  0  0  0  0  0  0  0  0
   -0.5748    2.2621   -0.1732 H   0  0  0  0  0  0  0  0  0  0  0  0
   -0.9309    1.1296    1.2421 H   0  0  0  0  0  0  0  0  0  0  0  0
   -0.7316    0.2398   -1.6353 H   0  0  0  0  0  0  0  0  0  0  0  0
   -0.4040   -1.9875   -0.4200 H   0  0  0  0  0  0  0  0  0  0  0  0
   -0.6269   -1.0651    1.1282 H   0  0  0  0  0  0  0  0  0  0  0  0
   -2.7194   -1.7646   -0.9360 H   0  0  0  0  0  0  0  0  0  0  0  0
    1.3714    1.4082   -1.0220 H   0  0  0  0  0  0  0  0  0  0  0  0
    1.8183    1.5967    1.3175 H   0  0  0  0  0  0  0  0  0  0  0  0
    1.1117   -0.0128    1.7257 H   0  0  0  0  0  0  0  0  0  0  0  0
    2.5643   -0.6692   -1.5063 H   0  0  0  0  0  0  0  0  0  0  0  0
    1.5665   -1.5747   -0.1869 H   0  0  0  0  0  0  0  0  0  0  0  0
  1  2  1  0
  2  3  1  0
  3  4  1  0
  4  5  2  0
  2  6  1  0
  6  7  1  0
  7  8  1  0
  8  9  1  0
  9  6  1  0
  1 10  1  0
  1 11  1  0
  1 12  1  0
  2 13  1  0
  3 14  1  0
  3 15  1  0
  4 16  1  0
  6 17  1  0
  7 18  1  0
  7 19  1  0
  9 20  1  0
  9 21  1  0
M  END
