
     RDKit          3D

 23 22  0  0  0  0  0  0  0  0999 V2000
   -2.0594    1.1912   -0.9123 C   0  0  0  0  0  0  0  0  0  0  0  0
   -1.9309    0.1597    0.1574 C   0  0  0  0  0  0  0  0  0  0  0  0
   -3.0944   -0.7441    0.0855 C   0  0  0  0  0  0  0  0  0  0  0  0
   -3.0813   -1.9220    0.3820 O   0  0  0  0  0  0  0  0  0  0  0  0
   -0.6450   -0.6302    0.0748 C   0  0  0  0  0  0  0  0  0  0  0  0
    0.5547    0.2636    0.1990 C   0  0  0  0  0  0  0  0  0  0  0  0
    1.8023   -0.5966    0.1072 C   0  0  0  0  0  0  0  0  0  0  0  0
    3.0055    0.3122    0.2334 C   0  0  0  0  0  0  0  0  0  0  0  0
    4.1866   -0.4248    0.1560 O   0  0  0  0  0  0  0  0  0  0  0  0
   -2.2274    0.6554   -1.8875 H   0  0  0  0  0  0  0  0  0  0  0  0
   -2.9296    1.8323   -0.6659 H   0  0  0  0  0  0  0  0  0  0  0  0
   -1.1906    1.8594   -1.0098 H   0  0  0  0  0  0  0  0  0  0  0  0
   -1.9524    0.6631    1.1407 H   0  0  0  0  0  0  0  0  0  0  0  0
   -4.0385   -0.3339   -0.2576 H   0  0  0  0  0  0  0  0  0  0  0  0
   -0.5763   -1.2732   -0.8040 H   0  0  0  0  0  0  0  0  0  0  0  0
   -0.6381   -1.3023    0.9724 H   0  0  0  0  0  0  0  0  0  0  0  0
    0.5318    0.8280    1.1487 H   0  0  0  0  0  0  0  0  0  0  0  0
    0.6269    1.0082   -0.6142 H   0  0  0  0  0  0  0  0  0  0  0  0
    1.8000   -1.0657   -0.9146 H   0  0  0  0  0  0  0  0  0  0  0  0
    1.8109   -1.3818    0.8626 H   0  0  0  0  0  0  0  0  0  0  0  0
    2.9442    0.7985    1.2277 H   0  0  0  0  0  0  0  0  0  0  0  0
    2.9970    1.1167   -0.5293 H   0  0  0  0  0  0  0  0  0  0  0  0
    4.1036   -1.0137   -0.6554 H   0  0  0  0  0  0  0  0  0  0  0  0
  1  2  1  0
  2  3  1  0
  3  4  2  0
  2  5  1  0
  5  6  1  0
  6  7  1  0
  7  8  1  0
  8  9  1  0
  1 10  1  0
  1 11  1  0
  1 12  1  0
  2 13  1  0
  3 14  1  0
  5 15  1  0
  5 16  1  0
  6 17  1  0
  6 18  1  0
  7 19  1  0
  7 20  1  0
  8 21  1  0
  8 22  1  0
  9 23  1  0
M  END
