
     RDKit          3D

 23 23  0  0  0  0  0  0  0  0999 V2000
   -1.4007    1.5011   -0.6320 C   0  0  0  0  0  0  0  0  0  0  0  0
   -1.0469    0.3066    0.2409 C   0  0  0  0  0  0  0  0  0  0  0  0
   -1.6125   -0.9142   -0.4339 C   0  0  0  0  0  0  0  0  0  0  0  0
   -1.6516    0.4972    1.4613 O   0  0  0  0  0  0  0  0  0  0  0  0
    0.4346    0.2818    0.3937 C   0  0  0  0  0  0  0  0  0  0  0  0
    1.1682    0.1508   -0.9147 C   0  0  0  0  0  0  0  0  0  0  0  0
    2.5153   -0.3403   -0.4403 C   0  0  0  0  0  0  0  0  0  0  0  0
    2.3671   -0.9452    0.7311 C   0  0  0  0  0  0  0  0  0  0  0  0
    0.9409   -0.9228    1.1528 C   0  0  0  0  0  0  0  0  0  0  0  0
   -1.3516    1.2420   -1.7085 H   0  0  0  0  0  0  0  0  0  0  0  0
   -0.6914    2.3434   -0.4193 H   0  0  0  0  0  0  0  0  0  0  0  0
   -2.4051    1.8548   -0.3243 H   0  0  0  0  0  0  0  0  0  0  0  0
   -1.5310   -1.8281    0.2030 H   0  0  0  0  0  0  0  0  0  0  0  0
   -1.2186   -1.0803   -1.4343 H   0  0  0  0  0  0  0  0  0  0  0  0
   -2.7183   -0.7386   -0.5327 H   0  0  0  0  0  0  0  0  0  0  0  0
   -2.4310    1.1076    1.4072 H   0  0  0  0  0  0  0  0  0  0  0  0
    0.7539    1.1826    0.9203 H   0  0  0  0  0  0  0  0  0  0  0  0
    0.7691   -0.6396   -1.5544 H   0  0  0  0  0  0  0  0  0  0  0  0
    1.2711    1.1263   -1.4336 H   0  0  0  0  0  0  0  0  0  0  0  0
    3.4125   -0.1822   -1.0252 H   0  0  0  0  0  0  0  0  0  0  0  0
    3.2011   -1.3782    1.2640 H   0  0  0  0  0  0  0  0  0  0  0  0
    0.8196   -0.7762    2.2352 H   0  0  0  0  0  0  0  0  0  0  0  0
    0.4053   -1.8487    0.8436 H   0  0  0  0  0  0  0  0  0  0  0  0
  1  2  1  0
  2  3  1  0
  2  4  1  0
  2  5  1  0
  5  6  1  0
  6  7  1  0
  7  8  2  0
  8  9  1  0
  9  5  1  0
  1 10  1  0
  1 11  1  0
  1 12  1  0
  3 13  1  0
  3 14  1  0
  3 15  1  0
  4 16  1  0
  5 17  1  0
  6 18  1  0
  6 19  1  0
  7 20  1  0
  8 21  1  0
  9 22  1  0
  9 23  1  0
M  END
