
     RDKit          3D

 23 24  0  0  0  0  0  0  0  0999 V2000
    2.0224   -1.1440   -0.0479 C   0  0  0  0  0  0  0  0  0  0  0  0
    1.3238    0.0904   -0.5608 C   0  0  0  0  0  0  0  0  0  0  0  0
    1.8820    1.3139    0.1148 C   0  0  0  0  0  0  0  0  0  0  0  0
   -0.1687   -0.0325   -0.3999 C   0  0  0  0  0  0  0  0  0  0  0  0
   -0.8628    1.0609   -0.8489 O   0  0  0  0  0  0  0  0  0  0  0  0
   -2.1684    0.7652   -0.4557 C   0  0  0  0  0  0  0  0  0  0  0  0
   -2.0752    0.2333    0.9417 C   0  0  0  0  0  0  0  0  0  0  0  0
   -1.7397   -1.1763    1.2300 C   0  0  0  0  0  0  0  0  0  0  0  0
   -0.6039   -0.2098    1.0098 C   0  0  0  0  0  0  0  0  0  0  0  0
    2.0348   -1.1970    1.0395 H   0  0  0  0  0  0  0  0  0  0  0  0
    3.1002   -1.0479   -0.3694 H   0  0  0  0  0  0  0  0  0  0  0  0
    1.5680   -2.0513   -0.5164 H   0  0  0  0  0  0  0  0  0  0  0  0
    1.5724    0.1737   -1.6391 H   0  0  0  0  0  0  0  0  0  0  0  0
    1.6941    2.2204   -0.5176 H   0  0  0  0  0  0  0  0  0  0  0  0
    1.5405    1.4420    1.1560 H   0  0  0  0  0  0  0  0  0  0  0  0
    2.9903    1.1951    0.1435 H   0  0  0  0  0  0  0  0  0  0  0  0
   -0.4843   -0.9059   -1.0268 H   0  0  0  0  0  0  0  0  0  0  0  0
   -2.5416   -0.0143   -1.1479 H   0  0  0  0  0  0  0  0  0  0  0  0
   -2.8018    1.6867   -0.4800 H   0  0  0  0  0  0  0  0  0  0  0  0
   -2.4622    0.8806    1.7249 H   0  0  0  0  0  0  0  0  0  0  0  0
   -1.9654   -1.5091    2.2719 H   0  0  0  0  0  0  0  0  0  0  0  0
   -1.8039   -1.9809    0.4981 H   0  0  0  0  0  0  0  0  0  0  0  0
   -0.0506    0.2065    1.8565 H   0  0  0  0  0  0  0  0  0  0  0  0
  1  2  1  0
  2  3  1  0
  2  4  1  0
  4  5  1  0
  5  6  1  0
  6  7  1  0
  7  8  1  0
  8  9  1  0
  9  4  1  0
  9  7  1  0
  1 10  1  0
  1 11  1  0
  1 12  1  0
  2 13  1  0
  3 14  1  0
  3 15  1  0
  3 16  1  0
  4 17  1  0
  6 18  1  0
  6 19  1  0
  7 20  1  0
  8 21  1  0
  8 22  1  0
  9 23  1  0
M  END
