
     RDKit          3D

 25 25  0  0  0  0  0  0  0  0999 V2000
   -2.6806   -0.7327   -0.4227 C   0  0  0  0  0  0  0  0  0  0  0  0
   -1.7412    0.4482   -0.2794 C   0  0  0  0  0  0  0  0  0  0  0  0
   -2.3491    1.5439    0.5292 C   0  0  0  0  0  0  0  0  0  0  0  0
   -0.4510   -0.0872    0.3059 C   0  0  0  0  0  0  0  0  0  0  0  0
    0.1906   -1.1469   -0.5919 C   0  0  0  0  0  0  0  0  0  0  0  0
    0.8527    0.1759   -0.2941 C   0  0  0  0  0  0  0  0  0  0  0  0
    2.0683    0.0482    0.5980 C   0  0  0  0  0  0  0  0  0  0  0  0
    3.3465    0.3483   -0.1539 C   0  0  0  0  0  0  0  0  0  0  0  0
    2.1957   -1.2323    1.1282 O   0  0  0  0  0  0  0  0  0  0  0  0
   -3.7335   -0.4432   -0.2169 H   0  0  0  0  0  0  0  0  0  0  0  0
   -2.4430   -1.5219    0.3498 H   0  0  0  0  0  0  0  0  0  0  0  0
   -2.5343   -1.2038   -1.3959 H   0  0  0  0  0  0  0  0  0  0  0  0
   -1.5276    0.8568   -1.3020 H   0  0  0  0  0  0  0  0  0  0  0  0
   -3.1904    1.1266    1.1260 H   0  0  0  0  0  0  0  0  0  0  0  0
   -2.8345    2.3147   -0.1396 H   0  0  0  0  0  0  0  0  0  0  0  0
   -1.5825    2.0322    1.1497 H   0  0  0  0  0  0  0  0  0  0  0  0
   -0.5280   -0.3087    1.3875 H   0  0  0  0  0  0  0  0  0  0  0  0
   -0.1524   -1.2563   -1.6210 H   0  0  0  0  0  0  0  0  0  0  0  0
    0.4944   -2.0522   -0.0656 H   0  0  0  0  0  0  0  0  0  0  0  0
    0.9984    0.8971   -1.1319 H   0  0  0  0  0  0  0  0  0  0  0  0
    2.0243    0.7518    1.4509 H   0  0  0  0  0  0  0  0  0  0  0  0
    4.1841    0.0476    0.5090 H   0  0  0  0  0  0  0  0  0  0  0  0
    3.4528    1.4631   -0.2788 H   0  0  0  0  0  0  0  0  0  0  0  0
    3.4164   -0.1737   -1.1124 H   0  0  0  0  0  0  0  0  0  0  0  0
    2.5239   -1.8958    0.4720 H   0  0  0  0  0  0  0  0  0  0  0  0
  1  2  1  0
  2  3  1  0
  2  4  1  0
  4  5  1  0
  5  6  1  0
  6  7  1  0
  7  8  1  0
  7  9  1  0
  6  4  1  0
  1 10  1  0
  1 11  1  0
  1 12  1  0
  2 13  1  0
  3 14  1  0
  3 15  1  0
  3 16  1  0
  4 17  1  0
  5 18  1  0
  5 19  1  0
  6 20  1  0
  7 21  1  0
  8 22  1  0
  8 23  1  0
  8 24  1  0
  9 25  1  0
M  END
