
     RDKit          3D

 19 19  0  0  0  0  0  0  0  0999 V2000
   -1.2499   -0.1246    1.3783 C   0  0  0  0  0  0  0  0  0  0  0  0
   -0.9954    0.3823   -0.0007 C   0  0  0  0  0  0  0  0  0  0  0  0
   -1.8571   -0.3477   -0.9679 C   0  0  0  0  0  0  0  0  0  0  0  0
   -1.7130   -1.5539   -1.1768 O   0  0  0  0  0  0  0  0  0  0  0  0
    0.4407    0.3329   -0.4128 C   0  0  0  0  0  0  0  0  0  0  0  0
    0.6711    0.8116   -1.7111 O   0  0  0  0  0  0  0  0  0  0  0  0
    1.4252    0.8159    0.6659 C   0  0  0  0  0  0  0  0  0  0  0  0
    1.4200   -0.5910    0.1444 C   0  0  0  0  0  0  0  0  0  0  0  0
    2.5446   -0.8833   -0.6615 O   0  0  0  0  0  0  0  0  0  0  0  0
   -1.2614    0.7044    2.1391 H   0  0  0  0  0  0  0  0  0  0  0  0
   -2.2838   -0.5725    1.4581 H   0  0  0  0  0  0  0  0  0  0  0  0
   -0.5630   -0.8913    1.7344 H   0  0  0  0  0  0  0  0  0  0  0  0
   -1.3234    1.4544   -0.0325 H   0  0  0  0  0  0  0  0  0  0  0  0
   -2.6532    0.1311   -1.5396 H   0  0  0  0  0  0  0  0  0  0  0  0
   -0.1314    0.8164   -2.2572 H   0  0  0  0  0  0  0  0  0  0  0  0
    1.0186    0.9083    1.7017 H   0  0  0  0  0  0  0  0  0  0  0  0
    2.1718    1.5421    0.3284 H   0  0  0  0  0  0  0  0  0  0  0  0
    1.1829   -1.4258    0.8255 H   0  0  0  0  0  0  0  0  0  0  0  0
    3.1569   -1.5093   -0.2045 H   0  0  0  0  0  0  0  0  0  0  0  0
  1  2  1  0
  2  3  1  0
  3  4  2  0
  2  5  1  0
  5  6  1  0
  5  7  1  0
  7  8  1  0
  8  9  1  0
  8  5  1  0
  1 10  1  0
  1 11  1  0
  1 12  1  0
  2 13  1  0
  3 14  1  0
  6 15  1  0
  7 16  1  0
  7 17  1  0
  8 18  1  0
  9 19  1  0
M  END
