
     RDKit          3D

 22 23  0  0  0  0  0  0  0  0999 V2000
   -1.9533    1.2202   -0.1131 C   0  0  0  0  0  0  0  0  0  0  0  0
   -1.1908   -0.0139   -0.6058 C   0  0  0  0  0  0  0  0  0  0  0  0
   -1.6103   -1.1704    0.2349 C   0  0  0  0  0  0  0  0  0  0  0  0
    0.2652    0.3071   -0.5442 C   0  0  0  0  0  0  0  0  0  0  0  0
    1.2213   -0.7494   -0.9782 C   0  0  0  0  0  0  0  0  0  0  0  0
    2.1052   -0.4942    0.1848 C   0  0  0  0  0  0  0  0  0  0  0  0
    2.3230    0.8141    0.8021 C   0  0  0  0  0  0  0  0  0  0  0  0
    0.9123    0.3081    0.8068 C   0  0  0  0  0  0  0  0  0  0  0  0
   -2.9499    0.9027    0.2499 H   0  0  0  0  0  0  0  0  0  0  0  0
   -2.0049    1.9925   -0.9117 H   0  0  0  0  0  0  0  0  0  0  0  0
   -1.3819    1.6297    0.7526 H   0  0  0  0  0  0  0  0  0  0  0  0
   -1.4666   -0.1351   -1.6743 H   0  0  0  0  0  0  0  0  0  0  0  0
   -2.3367   -0.8785    1.0422 H   0  0  0  0  0  0  0  0  0  0  0  0
   -2.1671   -1.9073   -0.3911 H   0  0  0  0  0  0  0  0  0  0  0  0
   -0.7629   -1.7108    0.7054 H   0  0  0  0  0  0  0  0  0  0  0  0
    0.4708    1.2654   -1.0674 H   0  0  0  0  0  0  0  0  0  0  0  0
    1.6489   -0.6424   -1.9873 H   0  0  0  0  0  0  0  0  0  0  0  0
    0.7167   -1.7583   -0.9275 H   0  0  0  0  0  0  0  0  0  0  0  0
    2.4244   -1.3902    0.7415 H   0  0  0  0  0  0  0  0  0  0  0  0
    2.4646    1.7480    0.2236 H   0  0  0  0  0  0  0  0  0  0  0  0
    2.8064    0.8341    1.7856 H   0  0  0  0  0  0  0  0  0  0  0  0
    0.4656   -0.1716    1.6711 H   0  0  0  0  0  0  0  0  0  0  0  0
  1  2  1  0
  2  3  1  0
  2  4  1  0
  4  5  1  0
  5  6  1  0
  6  7  1  0
  7  8  1  0
  8  4  1  0
  8  6  1  0
  1  9  1  0
  1 10  1  0
  1 11  1  0
  2 12  1  0
  3 13  1  0
  3 14  1  0
  3 15  1  0
  4 16  1  0
  5 17  1  0
  5 18  1  0
  6 19  1  0
  7 20  1  0
  7 21  1  0
  8 22  1  0
M  END
