
     RDKit          3D

 23 22  0  0  0  0  0  0  0  0999 V2000
    1.8221    1.5943   -1.1401 C   0  0  0  0  0  0  0  0  0  0  0  0
    1.3303    0.4929   -0.2422 C   0  0  0  0  0  0  0  0  0  0  0  0
    2.4499   -0.5269   -0.0427 C   0  0  0  0  0  0  0  0  0  0  0  0
    3.6110    0.1246    0.4124 O   0  0  0  0  0  0  0  0  0  0  0  0
    0.2156   -0.1487   -0.6815 O   0  0  0  0  0  0  0  0  0  0  0  0
   -0.8683   -0.1069    0.1774 C   0  0  0  0  0  0  0  0  0  0  0  0
   -1.9975   -0.8791   -0.5037 C   0  0  0  0  0  0  0  0  0  0  0  0
   -3.2369   -0.8985    0.3488 C   0  0  0  0  0  0  0  0  0  0  0  0
   -3.6456    0.4332    0.5591 O   0  0  0  0  0  0  0  0  0  0  0  0
    2.9028    1.7487   -0.8820 H   0  0  0  0  0  0  0  0  0  0  0  0
    1.2648    2.5169   -0.9594 H   0  0  0  0  0  0  0  0  0  0  0  0
    1.8240    1.2995   -2.2139 H   0  0  0  0  0  0  0  0  0  0  0  0
    1.1304    0.9341    0.7537 H   0  0  0  0  0  0  0  0  0  0  0  0
    2.1738   -1.2547    0.7480 H   0  0  0  0  0  0  0  0  0  0  0  0
    2.6612   -1.0731   -0.9888 H   0  0  0  0  0  0  0  0  0  0  0  0
    4.3526   -0.0612   -0.2284 H   0  0  0  0  0  0  0  0  0  0  0  0
   -1.2199    0.9225    0.3710 H   0  0  0  0  0  0  0  0  0  0  0  0
   -0.6475   -0.5593    1.1635 H   0  0  0  0  0  0  0  0  0  0  0  0
   -2.1678   -0.4878   -1.5098 H   0  0  0  0  0  0  0  0  0  0  0  0
   -1.6674   -1.9425   -0.6128 H   0  0  0  0  0  0  0  0  0  0  0  0
   -2.9869   -1.3918    1.3134 H   0  0  0  0  0  0  0  0  0  0  0  0
   -4.0207   -1.4236   -0.2129 H   0  0  0  0  0  0  0  0  0  0  0  0
   -3.2799    0.6874    1.4462 H   0  0  0  0  0  0  0  0  0  0  0  0
  1  2  1  0
  2  3  1  0
  3  4  1  0
  2  5  1  0
  5  6  1  0
  6  7  1  0
  7  8  1  0
  8  9  1  0
  1 10  1  0
  1 11  1  0
  1 12  1  0
  2 13  1  0
  3 14  1  0
  3 15  1  0
  4 16  1  0
  6 17  1  0
  6 18  1  0
  7 19  1  0
  7 20  1  0
  8 21  1  0
  8 22  1  0
  9 23  1  0
M  END
