
     RDKit          3D

 21 22  0  0  0  0  0  0  0  0999 V2000
   -1.3222   -0.9936    1.1353 C   0  0  0  0  0  0  0  0  0  0  0  0
   -0.9956   -0.2210   -0.0769 C   0  0  0  0  0  0  0  0  0  0  0  0
   -2.0137    0.9111   -0.2793 C   0  0  0  0  0  0  0  0  0  0  0  0
    0.3271    0.3499   -0.2254 C   0  0  0  0  0  0  0  0  0  0  0  0
    1.5328   -0.5922   -0.2270 C   0  0  0  0  0  0  0  0  0  0  0  0
    1.7922   -1.1676   -1.4376 O   0  0  0  0  0  0  0  0  0  0  0  0
    2.2327    0.7637   -0.0715 C   0  0  0  0  0  0  0  0  0  0  0  0
    2.1914    1.5771    0.9683 O   0  0  0  0  0  0  0  0  0  0  0  0
    1.0724    0.8800    0.9723 C   0  0  0  0  0  0  0  0  0  0  0  0
   -1.5778   -2.0742    0.9181 H   0  0  0  0  0  0  0  0  0  0  0  0
   -2.2749   -0.5953    1.5823 H   0  0  0  0  0  0  0  0  0  0  0  0
   -0.6004   -1.0213    1.9390 H   0  0  0  0  0  0  0  0  0  0  0  0
   -1.1788   -0.9071   -0.9618 H   0  0  0  0  0  0  0  0  0  0  0  0
   -2.7063    0.9562    0.6078 H   0  0  0  0  0  0  0  0  0  0  0  0
   -1.5223    1.9008   -0.3342 H   0  0  0  0  0  0  0  0  0  0  0  0
   -2.6351    0.7876   -1.1621 H   0  0  0  0  0  0  0  0  0  0  0  0
    0.3857    1.0779   -1.0563 H   0  0  0  0  0  0  0  0  0  0  0  0
    1.6563   -1.1862    0.6733 H   0  0  0  0  0  0  0  0  0  0  0  0
    2.4970   -1.8437   -1.3191 H   0  0  0  0  0  0  0  0  0  0  0  0
    2.0408    1.3277   -1.0401 H   0  0  0  0  0  0  0  0  0  0  0  0
    1.0986    0.0702    1.7696 H   0  0  0  0  0  0  0  0  0  0  0  0
  1  2  1  0
  2  3  1  0
  2  4  1  0
  4  5  1  0
  5  6  1  0
  5  7  1  0
  7  8  1  0
  8  9  1  0
  9  4  1  0
  9  7  1  0
  1 10  1  0
  1 11  1  0
  1 12  1  0
  2 13  1  0
  3 14  1  0
  3 15  1  0
  3 16  1  0
  4 17  1  0
  5 18  1  0
  6 19  1  0
  7 20  1  0
  9 21  1  0
M  END
