
     RDKit          3D

 21 20  0  0  0  0  0  0  0  0999 V2000
   -1.2242   -0.7375    1.2772 C   0  0  0  0  0  0  0  0  0  0  0  0
   -0.8031   -0.3440   -0.1154 C   0  0  0  0  0  0  0  0  0  0  0  0
   -0.8493   -1.5160   -1.0736 C   0  0  0  0  0  0  0  0  0  0  0  0
    0.5713    0.1599   -0.0458 C   0  0  0  0  0  0  0  0  0  0  0  0
    1.7032    0.5892   -0.0045 C   0  0  0  0  0  0  0  0  0  0  0  0
    3.0803    1.0958    0.0665 C   0  0  0  0  0  0  0  0  0  0  0  0
    3.9552    0.1486    0.5906 O   0  0  0  0  0  0  0  0  0  0  0  0
   -1.7276    0.7300   -0.6518 C   0  0  0  0  0  0  0  0  0  0  0  0
   -1.6971    1.8716    0.1578 O   0  0  0  0  0  0  0  0  0  0  0  0
   -1.4103    0.1866    1.8630 H   0  0  0  0  0  0  0  0  0  0  0  0
   -2.0758   -1.4370    1.2898 H   0  0  0  0  0  0  0  0  0  0  0  0
   -0.3550   -1.3144    1.7096 H   0  0  0  0  0  0  0  0  0  0  0  0
   -1.8624   -1.8900   -1.2258 H   0  0  0  0  0  0  0  0  0  0  0  0
   -0.1468   -2.3142   -0.7154 H   0  0  0  0  0  0  0  0  0  0  0  0
   -0.5077   -1.1063   -2.0660 H   0  0  0  0  0  0  0  0  0  0  0  0
    3.0879    1.9699    0.7264 H   0  0  0  0  0  0  0  0  0  0  0  0
    3.4281    1.4356   -0.9334 H   0  0  0  0  0  0  0  0  0  0  0  0
    3.5184   -0.7576    0.6148 H   0  0  0  0  0  0  0  0  0  0  0  0
   -1.5080    0.9911   -1.6874 H   0  0  0  0  0  0  0  0  0  0  0  0
   -2.7748    0.3639   -0.6203 H   0  0  0  0  0  0  0  0  0  0  0  0
   -2.4025    1.8746    0.8437 H   0  0  0  0  0  0  0  0  0  0  0  0
  1  2  1  0
  2  3  1  0
  2  4  1  0
  4  5  3  0
  5  6  1  0
  6  7  1  0
  2  8  1  0
  8  9  1  0
  1 10  1  0
  1 11  1  0
  1 12  1  0
  3 13  1  0
  3 14  1  0
  3 15  1  0
  6 16  1  0
  6 17  1  0
  7 18  1  0
  8 19  1  0
  8 20  1  0
  9 21  1  0
M  END
