
     RDKit          3D

 22 22  0  0  0  0  0  0  0  0999 V2000
   -1.5435    0.8379    1.2766 C   0  0  0  0  0  0  0  0  0  0  0  0
   -1.0983    0.5820   -0.1705 C   0  0  0  0  0  0  0  0  0  0  0  0
   -1.6654   -0.7208   -0.5875 C   0  0  0  0  0  0  0  0  0  0  0  0
    0.3854    0.6728   -0.1754 C   0  0  0  0  0  0  0  0  0  0  0  0
    1.1512   -0.2707    0.6835 C   0  0  0  0  0  0  0  0  0  0  0  0
    2.2485   -0.1987   -0.3892 C   0  0  0  0  0  0  0  0  0  0  0  0
    1.1095    0.1181   -1.3637 C   0  0  0  0  0  0  0  0  0  0  0  0
    0.5726   -1.0071   -1.9450 O   0  0  0  0  0  0  0  0  0  0  0  0
   -1.0399    1.7513    1.6070 H   0  0  0  0  0  0  0  0  0  0  0  0
   -1.1095   -0.0018    1.8641 H   0  0  0  0  0  0  0  0  0  0  0  0
   -2.6383    0.8816    1.3211 H   0  0  0  0  0  0  0  0  0  0  0  0
   -1.4941    1.3734   -0.8412 H   0  0  0  0  0  0  0  0  0  0  0  0
   -2.7433   -0.7403   -0.2479 H   0  0  0  0  0  0  0  0  0  0  0  0
   -1.2008   -1.6053   -0.1409 H   0  0  0  0  0  0  0  0  0  0  0  0
   -1.7433   -0.7948   -1.7106 H   0  0  0  0  0  0  0  0  0  0  0  0
    0.7114    1.7211    0.0093 H   0  0  0  0  0  0  0  0  0  0  0  0
    0.8027   -1.3072    0.7360 H   0  0  0  0  0  0  0  0  0  0  0  0
    1.4610    0.1464    1.6617 H   0  0  0  0  0  0  0  0  0  0  0  0
    2.8425    0.7003   -0.2283 H   0  0  0  0  0  0  0  0  0  0  0  0
    2.7662   -1.1383   -0.5726 H   0  0  0  0  0  0  0  0  0  0  0  0
    1.4372    0.8498   -2.1288 H   0  0  0  0  0  0  0  0  0  0  0  0
    0.7880   -1.8497   -1.4619 H   0  0  0  0  0  0  0  0  0  0  0  0
  1  2  1  0
  2  3  1  0
  2  4  1  0
  4  5  1  0
  5  6  1  0
  6  7  1  0
  7  8  1  0
  7  4  1  0
  1  9  1  0
  1 10  1  0
  1 11  1  0
  2 12  1  0
  3 13  1  0
  3 14  1  0
  3 15  1  0
  4 16  1  0
  5 17  1  0
  5 18  1  0
  6 19  1  0
  6 20  1  0
  7 21  1  0
  8 22  1  0
M  END
