
     RDKit          3D

 17 16  0  0  0  0  0  0  0  0999 V2000
   -1.5598   -1.0466    1.0200 C   0  0  0  0  0  0  0  0  0  0  0  0
   -1.0445   -0.0139    0.0253 C   0  0  0  0  0  0  0  0  0  0  0  0
    0.4255   -0.0337    0.0348 C   0  0  0  0  0  0  0  0  0  0  0  0
    1.6272   -0.0311    0.0494 C   0  0  0  0  0  0  0  0  0  0  0  0
    3.1041   -0.0354    0.0864 C   0  0  0  0  0  0  0  0  0  0  0  0
    3.6070   -1.2895    0.3467 O   0  0  0  0  0  0  0  0  0  0  0  0
   -1.5217    1.2820    0.3783 O   0  0  0  0  0  0  0  0  0  0  0  0
   -2.3770    1.9799   -0.4629 C   0  0  0  0  0  0  0  0  0  0  0  0
   -2.7014    1.4013   -1.5469 O   0  0  0  0  0  0  0  0  0  0  0  0
   -1.2413   -0.8470    2.0445 H   0  0  0  0  0  0  0  0  0  0  0  0
   -1.2209   -2.0302    0.6477 H   0  0  0  0  0  0  0  0  0  0  0  0
   -2.6828   -1.0244    0.9519 H   0  0  0  0  0  0  0  0  0  0  0  0
   -1.4582   -0.3175   -0.9631 H   0  0  0  0  0  0  0  0  0  0  0  0
    3.3824    0.6890    0.8789 H   0  0  0  0  0  0  0  0  0  0  0  0
    3.5378    0.3208   -0.8713 H   0  0  0  0  0  0  0  0  0  0  0  0
    2.8799   -1.9685    0.4054 H   0  0  0  0  0  0  0  0  0  0  0  0
   -2.7564    2.9650   -0.2233 H   0  0  0  0  0  0  0  0  0  0  0  0
  1  2  1  0
  2  3  1  0
  3  4  3  0
  4  5  1  0
  5  6  1  0
  2  7  1  0
  7  8  1  0
  8  9  2  0
  1 10  1  0
  1 11  1  0
  1 12  1  0
  2 13  1  0
  5 14  1  0
  5 15  1  0
  6 16  1  0
  8 17  1  0
M  END
