
     RDKit          3D

 23 23  0  0  0  0  0  0  0  0999 V2000
   -1.7856   -0.0621    0.7800 C   0  0  0  0  0  0  0  0  0  0  0  0
   -0.5934   -0.0649   -0.1628 C   0  0  0  0  0  0  0  0  0  0  0  0
   -0.7662   -1.3126   -1.0365 C   0  0  0  0  0  0  0  0  0  0  0  0
   -0.7321    1.1533   -1.0496 C   0  0  0  0  0  0  0  0  0  0  0  0
    0.6912   -0.0850    0.5915 C   0  0  0  0  0  0  0  0  0  0  0  0
    1.9962   -0.0914   -0.1268 C   0  0  0  0  0  0  0  0  0  0  0  0
    1.9493    0.8774   -1.1149 O   0  0  0  0  0  0  0  0  0  0  0  0
    0.7318    0.3425    2.0183 C   0  0  0  0  0  0  0  0  0  0  0  0
    0.6159   -1.0807    1.6740 O   0  0  0  0  0  0  0  0  0  0  0  0
   -1.5733   -0.7807    1.5895 H   0  0  0  0  0  0  0  0  0  0  0  0
   -2.6775   -0.3995    0.1754 H   0  0  0  0  0  0  0  0  0  0  0  0
   -1.9953    0.9489    1.1432 H   0  0  0  0  0  0  0  0  0  0  0  0
    0.0075   -1.4037   -1.7928 H   0  0  0  0  0  0  0  0  0  0  0  0
   -0.7756   -2.2044   -0.3567 H   0  0  0  0  0  0  0  0  0  0  0  0
   -1.7527   -1.2091   -1.5350 H   0  0  0  0  0  0  0  0  0  0  0  0
   -1.7742    1.5701   -1.0116 H   0  0  0  0  0  0  0  0  0  0  0  0
   -0.5544    0.9026   -2.1328 H   0  0  0  0  0  0  0  0  0  0  0  0
   -0.0744    1.9743   -0.7079 H   0  0  0  0  0  0  0  0  0  0  0  0
    2.1463   -1.1153   -0.5791 H   0  0  0  0  0  0  0  0  0  0  0  0
    2.8598    0.1570    0.5223 H   0  0  0  0  0  0  0  0  0  0  0  0
    2.5613    0.5991   -1.8296 H   0  0  0  0  0  0  0  0  0  0  0  0
   -0.1996    0.7669    2.4533 H   0  0  0  0  0  0  0  0  0  0  0  0
    1.6952    0.5172    2.4886 H   0  0  0  0  0  0  0  0  0  0  0  0
  1  2  1  0
  2  3  1  0
  2  4  1  0
  2  5  1  0
  5  6  1  0
  6  7  1  0
  5  8  1  0
  8  9  1  0
  9  5  1  0
  1 10  1  0
  1 11  1  0
  1 12  1  0
  3 13  1  0
  3 14  1  0
  3 15  1  0
  4 16  1  0
  4 17  1  0
  4 18  1  0
  6 19  1  0
  6 20  1  0
  7 21  1  0
  8 22  1  0
  8 23  1  0
M  END
