
     RDKit          3D

 23 22  0  0  0  0  0  0  0  0999 V2000
   -1.9542   -1.4614   -0.0587 C   0  0  0  0  0  0  0  0  0  0  0  0
   -1.8322    0.0023   -0.2909 C   0  0  0  0  0  0  0  0  0  0  0  0
   -2.4235    0.7598    0.8755 C   0  0  0  0  0  0  0  0  0  0  0  0
   -0.4614    0.4727   -0.6434 C   0  0  0  0  0  0  0  0  0  0  0  0
    0.5676    0.2022    0.3637 C   0  0  0  0  0  0  0  0  0  0  0  0
    0.2534   -0.3699    1.3840 O   0  0  0  0  0  0  0  0  0  0  0  0
    1.9621    0.6108    0.1548 C   0  0  0  0  0  0  0  0  0  0  0  0
    2.8529   -0.5252   -0.2929 C   0  0  0  0  0  0  0  0  0  0  0  0
    4.1640   -0.0688   -0.4720 O   0  0  0  0  0  0  0  0  0  0  0  0
   -1.5909   -1.7486    0.9610 H   0  0  0  0  0  0  0  0  0  0  0  0
   -3.0565   -1.7079   -0.0498 H   0  0  0  0  0  0  0  0  0  0  0  0
   -1.5239   -2.0698   -0.8571 H   0  0  0  0  0  0  0  0  0  0  0  0
   -2.4826    0.2407   -1.1862 H   0  0  0  0  0  0  0  0  0  0  0  0
   -3.3930    0.2742    1.1261 H   0  0  0  0  0  0  0  0  0  0  0  0
   -1.7319    0.8033    1.7348 H   0  0  0  0  0  0  0  0  0  0  0  0
   -2.6789    1.7954    0.5158 H   0  0  0  0  0  0  0  0  0  0  0  0
   -0.1108    0.0556   -1.6118 H   0  0  0  0  0  0  0  0  0  0  0  0
   -0.5418    1.5857   -0.8328 H   0  0  0  0  0  0  0  0  0  0  0  0
    2.3312    1.0627    1.0888 H   0  0  0  0  0  0  0  0  0  0  0  0
    2.0600    1.4201   -0.6266 H   0  0  0  0  0  0  0  0  0  0  0  0
    2.5005   -0.9994   -1.2165 H   0  0  0  0  0  0  0  0  0  0  0  0
    2.8883   -1.2669    0.5337 H   0  0  0  0  0  0  0  0  0  0  0  0
    4.2016    0.9323   -0.5440 H   0  0  0  0  0  0  0  0  0  0  0  0
  1  2  1  0
  2  3  1  0
  2  4  1  0
  4  5  1  0
  5  6  2  0
  5  7  1  0
  7  8  1  0
  8  9  1  0
  1 10  1  0
  1 11  1  0
  1 12  1  0
  2 13  1  0
  3 14  1  0
  3 15  1  0
  3 16  1  0
  4 17  1  0
  4 18  1  0
  7 19  1  0
  7 20  1  0
  8 21  1  0
  8 22  1  0
  9 23  1  0
M  END
