
     RDKit          3D

 23 24  0  0  0  0  0  0  0  0999 V2000
    1.8396   -0.5309    1.2327 C   0  0  0  0  0  0  0  0  0  0  0  0
    1.2747   -0.1984   -0.1254 C   0  0  0  0  0  0  0  0  0  0  0  0
    1.9267    1.0919   -0.5759 C   0  0  0  0  0  0  0  0  0  0  0  0
   -0.1590   -0.0101   -0.0519 C   0  0  0  0  0  0  0  0  0  0  0  0
   -1.0112   -1.1899    0.4384 C   0  0  0  0  0  0  0  0  0  0  0  0
   -2.0875   -0.4395   -0.3316 C   0  0  0  0  0  0  0  0  0  0  0  0
   -2.1032    0.8753    0.3783 C   0  0  0  0  0  0  0  0  0  0  0  0
   -0.7085    1.0860    0.5455 O   0  0  0  0  0  0  0  0  0  0  0  0
   -0.9677   -0.1748   -1.3496 C   0  0  0  0  0  0  0  0  0  0  0  0
    2.0326    0.4231    1.7889 H   0  0  0  0  0  0  0  0  0  0  0  0
    2.7682   -1.0998    1.1338 H   0  0  0  0  0  0  0  0  0  0  0  0
    1.0443   -1.0631    1.7977 H   0  0  0  0  0  0  0  0  0  0  0  0
    1.5286   -1.0034   -0.8403 H   0  0  0  0  0  0  0  0  0  0  0  0
    1.6401    1.9222    0.1006 H   0  0  0  0  0  0  0  0  0  0  0  0
    3.0211    1.0104   -0.5474 H   0  0  0  0  0  0  0  0  0  0  0  0
    1.6274    1.3775   -1.6031 H   0  0  0  0  0  0  0  0  0  0  0  0
   -0.6617   -2.1266   -0.0507 H   0  0  0  0  0  0  0  0  0  0  0  0
   -1.1586   -1.2241    1.5146 H   0  0  0  0  0  0  0  0  0  0  0  0
   -2.9546   -0.9313   -0.6463 H   0  0  0  0  0  0  0  0  0  0  0  0
   -2.6327    0.8660    1.3332 H   0  0  0  0  0  0  0  0  0  0  0  0
   -2.4340    1.6543   -0.3280 H   0  0  0  0  0  0  0  0  0  0  0  0
   -0.7444   -1.0819   -1.9102 H   0  0  0  0  0  0  0  0  0  0  0  0
   -1.0804    0.7671   -1.9033 H   0  0  0  0  0  0  0  0  0  0  0  0
  1  2  1  0
  2  3  1  0
  2  4  1  0
  4  5  1  0
  5  6  1  0
  6  7  1  0
  7  8  1  0
  6  9  1  0
  8  4  1  0
  9  4  1  0
  1 10  1  0
  1 11  1  0
  1 12  1  0
  2 13  1  0
  3 14  1  0
  3 15  1  0
  3 16  1  0
  5 17  1  0
  5 18  1  0
  6 19  1  0
  7 20  1  0
  7 21  1  0
  9 22  1  0
  9 23  1  0
M  END
