
     RDKit          3D

 18 18  0  0  0  0  0  0  0  0999 V2000
   -1.6597    0.6224   -0.6467 C   0  0  0  0  0  0  0  0  0  0  0  0
   -0.5686    0.4609    0.3921 C   0  0  0  0  0  0  0  0  0  0  0  0
   -1.1185    0.0109    1.6721 C   0  0  0  0  0  0  0  0  0  0  0  0
   -1.1881   -1.1288    2.0646 O   0  0  0  0  0  0  0  0  0  0  0  0
    0.4830   -0.4448   -0.1826 C   0  0  0  0  0  0  0  0  0  0  0  0
    0.0532   -1.7203   -0.5311 O   0  0  0  0  0  0  0  0  0  0  0  0
    1.9222   -0.2617    0.1442 C   0  0  0  0  0  0  0  0  0  0  0  0
    1.4530    0.2473   -1.1587 C   0  0  0  0  0  0  0  0  0  0  0  0
   -2.4008   -0.2052   -0.5449 H   0  0  0  0  0  0  0  0  0  0  0  0
   -1.1872    0.5261   -1.6397 H   0  0  0  0  0  0  0  0  0  0  0  0
   -2.0886    1.6182   -0.5410 H   0  0  0  0  0  0  0  0  0  0  0  0
   -0.0659    1.4573    0.5619 H   0  0  0  0  0  0  0  0  0  0  0  0
   -1.5127    0.7785    2.3579 H   0  0  0  0  0  0  0  0  0  0  0  0
    0.1704   -2.3531    0.2215 H   0  0  0  0  0  0  0  0  0  0  0  0
    2.1206    0.4598    0.9645 H   0  0  0  0  0  0  0  0  0  0  0  0
    2.5398   -1.1807    0.2205 H   0  0  0  0  0  0  0  0  0  0  0  0
    1.6924   -0.2486   -2.0991 H   0  0  0  0  0  0  0  0  0  0  0  0
    1.3555    1.3620   -1.2554 H   0  0  0  0  0  0  0  0  0  0  0  0
  1  2  1  0
  2  3  1  0
  3  4  2  0
  2  5  1  0
  5  6  1  0
  5  7  1  0
  7  8  1  0
  8  5  1  0
  1  9  1  0
  1 10  1  0
  1 11  1  0
  2 12  1  0
  3 13  1  0
  6 14  1  0
  7 15  1  0
  7 16  1  0
  8 17  1  0
  8 18  1  0
M  END
