
     RDKit          3D

 23 23  0  0  0  0  0  0  0  0999 V2000
   -2.4755   -0.1966    0.8601 C   0  0  0  0  0  0  0  0  0  0  0  0
   -1.2910    0.2369    0.0609 C   0  0  0  0  0  0  0  0  0  0  0  0
   -1.5766   -0.0575   -1.3998 C   0  0  0  0  0  0  0  0  0  0  0  0
   -1.0496    1.6077    0.1596 O   0  0  0  0  0  0  0  0  0  0  0  0
   -0.0332   -0.4719    0.5265 C   0  0  0  0  0  0  0  0  0  0  0  0
    1.1651   -0.0532   -0.2596 C   0  0  0  0  0  0  0  0  0  0  0  0
    2.4088   -0.7632    0.2109 C   0  0  0  0  0  0  0  0  0  0  0  0
    2.9689    0.6238    0.4970 C   0  0  0  0  0  0  0  0  0  0  0  0
    1.7539    1.1517    0.1113 O   0  0  0  0  0  0  0  0  0  0  0  0
   -3.0743   -1.0022    0.3671 H   0  0  0  0  0  0  0  0  0  0  0  0
   -2.2238   -0.5757    1.8671 H   0  0  0  0  0  0  0  0  0  0  0  0
   -3.1771    0.6794    0.9199 H   0  0  0  0  0  0  0  0  0  0  0  0
   -2.5055    0.5052   -1.6532 H   0  0  0  0  0  0  0  0  0  0  0  0
   -0.7858    0.3337   -2.0605 H   0  0  0  0  0  0  0  0  0  0  0  0
   -1.8045   -1.1204   -1.5794 H   0  0  0  0  0  0  0  0  0  0  0  0
   -1.6349    2.0431    0.8248 H   0  0  0  0  0  0  0  0  0  0  0  0
    0.1307   -0.1286    1.5843 H   0  0  0  0  0  0  0  0  0  0  0  0
   -0.1295   -1.5679    0.4644 H   0  0  0  0  0  0  0  0  0  0  0  0
    1.0505   -0.2081   -1.3561 H   0  0  0  0  0  0  0  0  0  0  0  0
    2.2958   -1.4097    1.0821 H   0  0  0  0  0  0  0  0  0  0  0  0
    2.9795   -1.2973   -0.5832 H   0  0  0  0  0  0  0  0  0  0  0  0
    3.8350    0.8420   -0.1276 H   0  0  0  0  0  0  0  0  0  0  0  0
    3.1731    0.8287    1.5673 H   0  0  0  0  0  0  0  0  0  0  0  0
  1  2  1  0
  2  3  1  0
  2  4  1  0
  2  5  1  0
  5  6  1  0
  6  7  1  0
  7  8  1  0
  8  9  1  0
  9  6  1  0
  1 10  1  0
  1 11  1  0
  1 12  1  0
  3 13  1  0
  3 14  1  0
  3 15  1  0
  4 16  1  0
  5 17  1  0
  5 18  1  0
  6 19  1  0
  7 20  1  0
  7 21  1  0
  8 22  1  0
  8 23  1  0
M  END
