
     RDKit          3D

 22 22  0  0  0  0  0  0  0  0999 V2000
   -1.6831    1.4091    0.1648 C   0  0  0  0  0  0  0  0  0  0  0  0
   -1.3612    0.1377   -0.5313 C   0  0  0  0  0  0  0  0  0  0  0  0
   -2.5363   -0.8152   -0.3339 C   0  0  0  0  0  0  0  0  0  0  0  0
   -0.1326   -0.5628   -0.0661 C   0  0  0  0  0  0  0  0  0  0  0  0
    1.1346    0.2023   -0.1930 C   0  0  0  0  0  0  0  0  0  0  0  0
    2.3051   -0.6167    0.3119 C   0  0  0  0  0  0  0  0  0  0  0  0
    2.9727    0.1337   -0.8236 C   0  0  0  0  0  0  0  0  0  0  0  0
    1.7390    0.1668   -1.4640 O   0  0  0  0  0  0  0  0  0  0  0  0
   -1.1796    1.5567    1.1279 H   0  0  0  0  0  0  0  0  0  0  0  0
   -1.4992    2.2935   -0.5147 H   0  0  0  0  0  0  0  0  0  0  0  0
   -2.7893    1.4802    0.3898 H   0  0  0  0  0  0  0  0  0  0  0  0
   -1.2973    0.3266   -1.6320 H   0  0  0  0  0  0  0  0  0  0  0  0
   -3.0121   -0.5739    0.6341 H   0  0  0  0  0  0  0  0  0  0  0  0
   -3.2715   -0.6827   -1.1514 H   0  0  0  0  0  0  0  0  0  0  0  0
   -2.1803   -1.8664   -0.2478 H   0  0  0  0  0  0  0  0  0  0  0  0
   -0.0353   -1.5028   -0.6472 H   0  0  0  0  0  0  0  0  0  0  0  0
   -0.2531   -0.8676    0.9983 H   0  0  0  0  0  0  0  0  0  0  0  0
    1.1666    1.2023    0.2631 H   0  0  0  0  0  0  0  0  0  0  0  0
    2.2293   -1.7077    0.1177 H   0  0  0  0  0  0  0  0  0  0  0  0
    2.6592   -0.3949    1.3156 H   0  0  0  0  0  0  0  0  0  0  0  0
    3.2730    1.1584   -0.5351 H   0  0  0  0  0  0  0  0  0  0  0  0
    3.7517   -0.4764   -1.2826 H   0  0  0  0  0  0  0  0  0  0  0  0
  1  2  1  0
  2  3  1  0
  2  4  1  0
  4  5  1  0
  5  6  1  0
  6  7  1  0
  7  8  1  0
  8  5  1  0
  1  9  1  0
  1 10  1  0
  1 11  1  0
  2 12  1  0
  3 13  1  0
  3 14  1  0
  3 15  1  0
  4 16  1  0
  4 17  1  0
  5 18  1  0
  6 19  1  0
  6 20  1  0
  7 21  1  0
  7 22  1  0
M  END
