
     RDKit          3D

 19 18  0  0  0  0  0  0  0  0999 V2000
   -0.3918    0.9284    1.1692 C   0  0  0  0  0  0  0  0  0  0  0  0
   -0.2748    0.0644   -0.0425 C   0  0  0  0  0  0  0  0  0  0  0  0
   -0.6446   -1.3420    0.3124 C   0  0  0  0  0  0  0  0  0  0  0  0
   -1.2772    0.5965   -1.0699 C   0  0  0  0  0  0  0  0  0  0  0  0
    1.0805    0.1095   -0.6905 C   0  0  0  0  0  0  0  0  0  0  0  0
    2.1799   -0.3231    0.1812 C   0  0  0  0  0  0  0  0  0  0  0  0
    2.4527   -1.4885    0.3771 O   0  0  0  0  0  0  0  0  0  0  0  0
   -1.4928    1.0878    1.3522 H   0  0  0  0  0  0  0  0  0  0  0  0
    0.0171    1.9561    1.0215 H   0  0  0  0  0  0  0  0  0  0  0  0
   -0.0101    0.4465    2.0940 H   0  0  0  0  0  0  0  0  0  0  0  0
   -0.9597   -1.4453    1.3842 H   0  0  0  0  0  0  0  0  0  0  0  0
    0.1966   -2.0510    0.1872 H   0  0  0  0  0  0  0  0  0  0  0  0
   -1.5077   -1.7118   -0.2781 H   0  0  0  0  0  0  0  0  0  0  0  0
   -1.1477    1.6828   -1.2044 H   0  0  0  0  0  0  0  0  0  0  0  0
   -1.0369    0.1243   -2.0371 H   0  0  0  0  0  0  0  0  0  0  0  0
   -2.2951    0.3725   -0.7364 H   0  0  0  0  0  0  0  0  0  0  0  0
    1.0309   -0.5540   -1.5981 H   0  0  0  0  0  0  0  0  0  0  0  0
    1.2999    1.1230   -1.0997 H   0  0  0  0  0  0  0  0  0  0  0  0
    2.7808    0.4240    0.6775 H   0  0  0  0  0  0  0  0  0  0  0  0
  1  2  1  0
  2  3  1  0
  2  4  1  0
  2  5  1  0
  5  6  1  0
  6  7  2  0
  1  8  1  0
  1  9  1  0
  1 10  1  0
  3 11  1  0
  3 12  1  0
  3 13  1  0
  4 14  1  0
  4 15  1  0
  4 16  1  0
  5 17  1  0
  5 18  1  0
  6 19  1  0
M  END
