
     RDKit          3D

 27 26  0  0  0  0  0  0  0  0999 V2000
    2.6613    0.7536   -0.6879 C   0  0  0  0  0  0  0  0  0  0  0  0
    2.0727    0.0326    0.5120 C   0  0  0  0  0  0  0  0  0  0  0  0
    2.5167   -1.3941    0.5285 C   0  0  0  0  0  0  0  0  0  0  0  0
    0.6010    0.2289    0.6207 C   0  0  0  0  0  0  0  0  0  0  0  0
   -0.1129   -0.2227   -0.4618 O   0  0  0  0  0  0  0  0  0  0  0  0
   -1.4694   -0.0017   -0.2784 C   0  0  0  0  0  0  0  0  0  0  0  0
   -2.0173   -0.7061    0.9443 C   0  0  0  0  0  0  0  0  0  0  0  0
   -2.2874   -0.4717   -1.4632 C   0  0  0  0  0  0  0  0  0  0  0  0
   -1.7839    1.4773   -0.0934 C   0  0  0  0  0  0  0  0  0  0  0  0
    2.9583    0.0344   -1.4768 H   0  0  0  0  0  0  0  0  0  0  0  0
    3.5634    1.3440   -0.4239 H   0  0  0  0  0  0  0  0  0  0  0  0
    1.9211    1.5037   -1.0926 H   0  0  0  0  0  0  0  0  0  0  0  0
    2.5379    0.5285    1.4116 H   0  0  0  0  0  0  0  0  0  0  0  0
    3.5158   -1.4315    0.0101 H   0  0  0  0  0  0  0  0  0  0  0  0
    1.8637   -2.0857   -0.0216 H   0  0  0  0  0  0  0  0  0  0  0  0
    2.7374   -1.7737    1.5675 H   0  0  0  0  0  0  0  0  0  0  0  0
    0.2570   -0.2291    1.5685 H   0  0  0  0  0  0  0  0  0  0  0  0
    0.4386    1.3425    0.7052 H   0  0  0  0  0  0  0  0  0  0  0  0
   -1.7639   -0.1133    1.8198 H   0  0  0  0  0  0  0  0  0  0  0  0
   -1.7206   -1.7715    0.9957 H   0  0  0  0  0  0  0  0  0  0  0  0
   -3.1399   -0.6622    0.8381 H   0  0  0  0  0  0  0  0  0  0  0  0
   -1.6432   -0.6534   -2.3449 H   0  0  0  0  0  0  0  0  0  0  0  0
   -2.8094   -1.4404   -1.2425 H   0  0  0  0  0  0  0  0  0  0  0  0
   -3.0647    0.2470   -1.7652 H   0  0  0  0  0  0  0  0  0  0  0  0
   -2.9078    1.5458   -0.1869 H   0  0  0  0  0  0  0  0  0  0  0  0
   -1.5474    1.8297    0.9179 H   0  0  0  0  0  0  0  0  0  0  0  0
   -1.3774    2.0893   -0.9005 H   0  0  0  0  0  0  0  0  0  0  0  0
  1  2  1  0
  2  3  1  0
  2  4  1  0
  4  5  1  0
  5  6  1  0
  6  7  1  0
  6  8  1  0
  6  9  1  0
  1 10  1  0
  1 11  1  0
  1 12  1  0
  2 13  1  0
  3 14  1  0
  3 15  1  0
  3 16  1  0
  4 17  1  0
  4 18  1  0
  7 19  1  0
  7 20  1  0
  7 21  1  0
  8 22  1  0
  8 23  1  0
  8 24  1  0
  9 25  1  0
  9 26  1  0
  9 27  1  0
M  END
