
     RDKit          3D

 25 24  0  0  0  0  0  0  0  0999 V2000
   -2.1236    0.4377   -1.0714 C   0  0  0  0  0  0  0  0  0  0  0  0
   -0.9937   -0.0084   -0.0985 C   0  0  0  0  0  0  0  0  0  0  0  0
   -1.0665    0.9293    1.0534 C   0  0  0  0  0  0  0  0  0  0  0  0
   -1.4057   -1.3864    0.3613 C   0  0  0  0  0  0  0  0  0  0  0  0
    0.2308    0.0101   -0.9215 C   0  0  0  0  0  0  0  0  0  0  0  0
    1.5232   -0.3884   -0.3188 C   0  0  0  0  0  0  0  0  0  0  0  0
    2.5134   -0.2831   -1.3542 O   0  0  0  0  0  0  0  0  0  0  0  0
    1.9775    0.6514    0.6845 C   0  0  0  0  0  0  0  0  0  0  0  0
    3.2966    0.3728    1.1122 O   0  0  0  0  0  0  0  0  0  0  0  0
   -1.9032    1.4983   -1.2727 H   0  0  0  0  0  0  0  0  0  0  0  0
   -3.0647    0.2444   -0.5604 H   0  0  0  0  0  0  0  0  0  0  0  0
   -1.9483   -0.1682   -1.9793 H   0  0  0  0  0  0  0  0  0  0  0  0
   -2.1439    1.3031    1.1166 H   0  0  0  0  0  0  0  0  0  0  0  0
   -0.4529    1.8365    0.9282 H   0  0  0  0  0  0  0  0  0  0  0  0
   -0.8998    0.4564    2.0513 H   0  0  0  0  0  0  0  0  0  0  0  0
   -2.4831   -1.3253    0.6282 H   0  0  0  0  0  0  0  0  0  0  0  0
   -0.8743   -1.6734    1.2905 H   0  0  0  0  0  0  0  0  0  0  0  0
   -1.2632   -2.1431   -0.4307 H   0  0  0  0  0  0  0  0  0  0  0  0
    0.2827    1.0479   -1.3843 H   0  0  0  0  0  0  0  0  0  0  0  0
    0.0270   -0.6408   -1.8287 H   0  0  0  0  0  0  0  0  0  0  0  0
    1.5640   -1.3955    0.0816 H   0  0  0  0  0  0  0  0  0  0  0  0
    2.7329   -1.1730   -1.6984 H   0  0  0  0  0  0  0  0  0  0  0  0
    1.8549    1.6619    0.3061 H   0  0  0  0  0  0  0  0  0  0  0  0
    1.3855    0.5650    1.6429 H   0  0  0  0  0  0  0  0  0  0  0  0
    3.2344   -0.4293    1.6620 H   0  0  0  0  0  0  0  0  0  0  0  0
  1  2  1  0
  2  3  1  0
  2  4  1  0
  2  5  1  0
  5  6  1  0
  6  7  1  0
  6  8  1  0
  8  9  1  0
  1 10  1  0
  1 11  1  0
  1 12  1  0
  3 13  1  0
  3 14  1  0
  3 15  1  0
  4 16  1  0
  4 17  1  0
  4 18  1  0
  5 19  1  0
  5 20  1  0
  6 21  1  0
  7 22  1  0
  8 23  1  0
  8 24  1  0
  9 25  1  0
M  END
