
     RDKit          3D

 21 21  0  0  0  0  0  0  0  0999 V2000
   -0.8690    0.0759    1.7063 C   0  0  0  0  0  0  0  0  0  0  0  0
   -0.2225    0.0874    0.3233 C   0  0  0  0  0  0  0  0  0  0  0  0
   -1.0432   -0.7981   -0.5587 C   0  0  0  0  0  0  0  0  0  0  0  0
   -1.0807   -2.0839   -0.0747 O   0  0  0  0  0  0  0  0  0  0  0  0
   -0.2243    1.5169   -0.2200 C   0  0  0  0  0  0  0  0  0  0  0  0
    0.3727    1.4706   -1.4753 O   0  0  0  0  0  0  0  0  0  0  0  0
    1.1990   -0.3269    0.4688 C   0  0  0  0  0  0  0  0  0  0  0  0
    2.1323   -0.4294   -0.6643 C   0  0  0  0  0  0  0  0  0  0  0  0
    1.6518   -1.5460    0.0204 O   0  0  0  0  0  0  0  0  0  0  0  0
   -1.3395   -0.9059    1.9232 H   0  0  0  0  0  0  0  0  0  0  0  0
   -0.0889    0.3332    2.4230 H   0  0  0  0  0  0  0  0  0  0  0  0
   -1.6694    0.8669    1.7497 H   0  0  0  0  0  0  0  0  0  0  0  0
   -0.7239   -0.7927   -1.6174 H   0  0  0  0  0  0  0  0  0  0  0  0
   -2.0908   -0.4069   -0.5337 H   0  0  0  0  0  0  0  0  0  0  0  0
   -1.5702   -2.6445   -0.7152 H   0  0  0  0  0  0  0  0  0  0  0  0
    0.3085    2.2030    0.4562 H   0  0  0  0  0  0  0  0  0  0  0  0
   -1.2849    1.8727   -0.2729 H   0  0  0  0  0  0  0  0  0  0  0  0
   -0.1204    2.0132   -2.1246 H   0  0  0  0  0  0  0  0  0  0  0  0
    1.6684    0.0192    1.4360 H   0  0  0  0  0  0  0  0  0  0  0  0
    1.7871   -0.3740   -1.7213 H   0  0  0  0  0  0  0  0  0  0  0  0
    3.2078   -0.1506   -0.5289 H   0  0  0  0  0  0  0  0  0  0  0  0
  1  2  1  0
  2  3  1  0
  3  4  1  0
  2  5  1  0
  5  6  1  0
  2  7  1  0
  7  8  1  0
  8  9  1  0
  9  7  1  0
  1 10  1  0
  1 11  1  0
  1 12  1  0
  3 13  1  0
  3 14  1  0
  4 15  1  0
  5 16  1  0
  5 17  1  0
  6 18  1  0
  7 19  1  0
  8 20  1  0
  8 21  1  0
M  END
