
     RDKit          3D

 21 21  0  0  0  0  0  0  0  0999 V2000
   -1.5851    1.0964    0.6338 C   0  0  0  0  0  0  0  0  0  0  0  0
   -0.7418   -0.0655    0.2125 C   0  0  0  0  0  0  0  0  0  0  0  0
   -1.3192   -0.5760   -1.1157 C   0  0  0  0  0  0  0  0  0  0  0  0
   -0.8627   -1.0592    1.1860 O   0  0  0  0  0  0  0  0  0  0  0  0
    0.6835    0.2863   -0.0685 C   0  0  0  0  0  0  0  0  0  0  0  0
    0.7796    1.2692   -1.0324 O   0  0  0  0  0  0  0  0  0  0  0  0
    1.6174    0.3579    1.0821 C   0  0  0  0  0  0  0  0  0  0  0  0
    2.2883   -0.8236    0.6875 O   0  0  0  0  0  0  0  0  0  0  0  0
    1.4678   -0.9774   -0.4091 C   0  0  0  0  0  0  0  0  0  0  0  0
   -1.7479    1.1422    1.7226 H   0  0  0  0  0  0  0  0  0  0  0  0
   -1.0971    2.0345    0.2842 H   0  0  0  0  0  0  0  0  0  0  0  0
   -2.5842    1.0874    0.1063 H   0  0  0  0  0  0  0  0  0  0  0  0
   -1.6524    0.3293   -1.6617 H   0  0  0  0  0  0  0  0  0  0  0  0
   -0.4864   -1.0280   -1.7304 H   0  0  0  0  0  0  0  0  0  0  0  0
   -2.0989   -1.3197   -0.9469 H   0  0  0  0  0  0  0  0  0  0  0  0
   -0.7648   -1.9626    0.8356 H   0  0  0  0  0  0  0  0  0  0  0  0
    1.7232    1.5401   -1.0954 H   0  0  0  0  0  0  0  0  0  0  0  0
    1.1929    0.2453    2.0984 H   0  0  0  0  0  0  0  0  0  0  0  0
    2.3433    1.1955    0.9850 H   0  0  0  0  0  0  0  0  0  0  0  0
    0.8778   -1.9104   -0.3766 H   0  0  0  0  0  0  0  0  0  0  0  0
    1.9666   -0.8615   -1.3972 H   0  0  0  0  0  0  0  0  0  0  0  0
  1  2  1  0
  2  3  1  0
  2  4  1  0
  2  5  1  0
  5  6  1  0
  5  7  1  0
  7  8  1  0
  8  9  1  0
  9  5  1  0
  1 10  1  0
  1 11  1  0
  1 12  1  0
  3 13  1  0
  3 14  1  0
  3 15  1  0
  4 16  1  0
  6 17  1  0
  7 18  1  0
  7 19  1  0
  9 20  1  0
  9 21  1  0
M  END
