
     RDKit          3D

 23 23  0  0  0  0  0  0  0  0999 V2000
   -2.5354   -0.3621    1.2014 C   0  0  0  0  0  0  0  0  0  0  0  0
   -1.3035    0.2767    0.5937 C   0  0  0  0  0  0  0  0  0  0  0  0
   -1.6622    1.0849   -0.6310 C   0  0  0  0  0  0  0  0  0  0  0  0
   -0.3498   -0.8227    0.1192 C   0  0  0  0  0  0  0  0  0  0  0  0
   -1.0527   -1.5614   -0.8252 O   0  0  0  0  0  0  0  0  0  0  0  0
    0.8651   -0.1378   -0.4647 C   0  0  0  0  0  0  0  0  0  0  0  0
    1.7890   -1.1187   -1.0218 O   0  0  0  0  0  0  0  0  0  0  0  0
    2.1438   -0.2913    0.1630 C   0  0  0  0  0  0  0  0  0  0  0  0
    3.3149    0.5734   -0.1966 C   0  0  0  0  0  0  0  0  0  0  0  0
   -2.3242   -1.4178    1.4570 H   0  0  0  0  0  0  0  0  0  0  0  0
   -3.3509   -0.3796    0.4518 H   0  0  0  0  0  0  0  0  0  0  0  0
   -2.8502    0.2580    2.0447 H   0  0  0  0  0  0  0  0  0  0  0  0
   -0.7611    0.9240    1.2823 H   0  0  0  0  0  0  0  0  0  0  0  0
   -0.9389    1.9188   -0.7332 H   0  0  0  0  0  0  0  0  0  0  0  0
   -2.6553    1.5697   -0.4513 H   0  0  0  0  0  0  0  0  0  0  0  0
   -1.7242    0.4559   -1.5365 H   0  0  0  0  0  0  0  0  0  0  0  0
   -0.0793   -1.4998    0.9497 H   0  0  0  0  0  0  0  0  0  0  0  0
   -0.3675   -1.9538   -1.4358 H   0  0  0  0  0  0  0  0  0  0  0  0
    0.6697    0.7276   -1.1253 H   0  0  0  0  0  0  0  0  0  0  0  0
    2.2451   -0.9177    1.0767 H   0  0  0  0  0  0  0  0  0  0  0  0
    2.9745    1.5443   -0.6570 H   0  0  0  0  0  0  0  0  0  0  0  0
    3.9786    0.7739    0.6920 H   0  0  0  0  0  0  0  0  0  0  0  0
    3.9747    0.1007   -0.9531 H   0  0  0  0  0  0  0  0  0  0  0  0
  1  2  1  0
  2  3  1  0
  2  4  1  0
  4  5  1  0
  4  6  1  0
  6  7  1  0
  7  8  1  0
  8  9  1  0
  8  6  1  0
  1 10  1  0
  1 11  1  0
  1 12  1  0
  2 13  1  0
  3 14  1  0
  3 15  1  0
  3 16  1  0
  4 17  1  0
  5 18  1  0
  6 19  1  0
  8 20  1  0
  9 21  1  0
  9 22  1  0
  9 23  1  0
M  END
