
     RDKit          3D

 25 25  0  0  0  0  0  0  0  0999 V2000
   -2.3920    0.6710   -0.8809 C   0  0  0  0  0  0  0  0  0  0  0  0
   -1.4640    0.3674    0.3052 C   0  0  0  0  0  0  0  0  0  0  0  0
   -2.2482   -0.3443    1.3602 C   0  0  0  0  0  0  0  0  0  0  0  0
   -0.3242   -0.4212   -0.2491 C   0  0  0  0  0  0  0  0  0  0  0  0
    0.3464    0.3208   -1.2252 O   0  0  0  0  0  0  0  0  0  0  0  0
    1.1689    0.8144   -0.2253 C   0  0  0  0  0  0  0  0  0  0  0  0
    2.5930    1.0370   -0.6793 C   0  0  0  0  0  0  0  0  0  0  0  0
    0.9352   -0.4649    0.5418 C   0  0  0  0  0  0  0  0  0  0  0  0
    1.7988   -1.6266    0.1003 C   0  0  0  0  0  0  0  0  0  0  0  0
   -2.8550   -0.2411   -1.2770 H   0  0  0  0  0  0  0  0  0  0  0  0
   -1.6941    1.0359   -1.6825 H   0  0  0  0  0  0  0  0  0  0  0  0
   -3.0766    1.4917   -0.6619 H   0  0  0  0  0  0  0  0  0  0  0  0
   -1.1638    1.3494    0.7055 H   0  0  0  0  0  0  0  0  0  0  0  0
   -3.1132   -0.9249    0.9275 H   0  0  0  0  0  0  0  0  0  0  0  0
   -1.6734   -1.0000    2.0096 H   0  0  0  0  0  0  0  0  0  0  0  0
   -2.7515    0.4167    2.0271 H   0  0  0  0  0  0  0  0  0  0  0  0
   -0.6345   -1.4179   -0.5811 H   0  0  0  0  0  0  0  0  0  0  0  0
    0.8126    1.6867    0.3296 H   0  0  0  0  0  0  0  0  0  0  0  0
    3.2746    1.0733    0.1923 H   0  0  0  0  0  0  0  0  0  0  0  0
    2.6209    2.0640   -1.1234 H   0  0  0  0  0  0  0  0  0  0  0  0
    2.9059    0.3444   -1.4698 H   0  0  0  0  0  0  0  0  0  0  0  0
    0.8670   -0.3740    1.6309 H   0  0  0  0  0  0  0  0  0  0  0  0
    1.3703   -2.1468   -0.7998 H   0  0  0  0  0  0  0  0  0  0  0  0
    2.8167   -1.3249   -0.1731 H   0  0  0  0  0  0  0  0  0  0  0  0
    1.8801   -2.3858    0.8985 H   0  0  0  0  0  0  0  0  0  0  0  0
  1  2  1  0
  2  3  1  0
  2  4  1  0
  4  5  1  0
  5  6  1  0
  6  7  1  0
  6  8  1  0
  8  9  1  0
  8  4  1  0
  1 10  1  0
  1 11  1  0
  1 12  1  0
  2 13  1  0
  3 14  1  0
  3 15  1  0
  3 16  1  0
  4 17  1  0
  6 18  1  0
  7 19  1  0
  7 20  1  0
  7 21  1  0
  8 22  1  0
  9 23  1  0
  9 24  1  0
  9 25  1  0
M  END
