
     RDKit          3D

 21 21  0  0  0  0  0  0  0  0999 V2000
   -1.4963    1.1535   -0.4731 C   0  0  0  0  0  0  0  0  0  0  0  0
   -0.6418   -0.0881   -0.5420 C   0  0  0  0  0  0  0  0  0  0  0  0
   -1.4064   -1.1973    0.1024 C   0  0  0  0  0  0  0  0  0  0  0  0
    0.7275    0.0934    0.0329 C   0  0  0  0  0  0  0  0  0  0  0  0
    0.6854    0.4824    1.4820 C   0  0  0  0  0  0  0  0  0  0  0  0
    1.6352   -1.0599   -0.3049 C   0  0  0  0  0  0  0  0  0  0  0  0
    2.5193   -0.1589   -0.9479 O   0  0  0  0  0  0  0  0  0  0  0  0
    1.6493    0.9014   -0.7746 C   0  0  0  0  0  0  0  0  0  0  0  0
    1.7025    2.0896   -1.1898 O   0  0  0  0  0  0  0  0  0  0  0  0
   -2.4217    0.9079   -1.0750 H   0  0  0  0  0  0  0  0  0  0  0  0
   -1.0338    2.0068   -1.0019 H   0  0  0  0  0  0  0  0  0  0  0  0
   -1.8592    1.3871    0.5354 H   0  0  0  0  0  0  0  0  0  0  0  0
   -0.5205   -0.3370   -1.6243 H   0  0  0  0  0  0  0  0  0  0  0  0
   -2.4881   -1.1204   -0.1319 H   0  0  0  0  0  0  0  0  0  0  0  0
   -1.0597   -2.1835   -0.2798 H   0  0  0  0  0  0  0  0  0  0  0  0
   -1.3279   -1.2228    1.2052 H   0  0  0  0  0  0  0  0  0  0  0  0
    1.6698    0.8849    1.7983 H   0  0  0  0  0  0  0  0  0  0  0  0
    0.4986   -0.4314    2.0960 H   0  0  0  0  0  0  0  0  0  0  0  0
   -0.1256    1.2307    1.5990 H   0  0  0  0  0  0  0  0  0  0  0  0
    2.0800   -1.5858    0.5586 H   0  0  0  0  0  0  0  0  0  0  0  0
    1.2136   -1.7525   -1.0647 H   0  0  0  0  0  0  0  0  0  0  0  0
  1  2  1  0
  2  3  1  0
  2  4  1  0
  4  5  1  0
  4  6  1  0
  6  7  1  0
  7  8  1  0
  8  9  2  0
  8  4  1  0
  1 10  1  0
  1 11  1  0
  1 12  1  0
  2 13  1  0
  3 14  1  0
  3 15  1  0
  3 16  1  0
  5 17  1  0
  5 18  1  0
  5 19  1  0
  6 20  1  0
  6 21  1  0
M  END
