
     RDKit          3D

 23 23  0  0  0  0  0  0  0  0999 V2000
   -2.1417    0.7216   -0.6537 C   0  0  0  0  0  0  0  0  0  0  0  0
   -1.1022   -0.2503   -0.2201 C   0  0  0  0  0  0  0  0  0  0  0  0
   -1.6078   -1.0135    0.9857 C   0  0  0  0  0  0  0  0  0  0  0  0
   -0.8985   -1.2073   -1.2269 O   0  0  0  0  0  0  0  0  0  0  0  0
    0.2218    0.3713    0.0958 C   0  0  0  0  0  0  0  0  0  0  0  0
    0.8371    1.0850   -1.0296 C   0  0  0  0  0  0  0  0  0  0  0  0
    2.1475    1.0359   -0.8888 C   0  0  0  0  0  0  0  0  0  0  0  0
    2.5154    0.2706    0.3627 C   0  0  0  0  0  0  0  0  0  0  0  0
    1.2775   -0.6433    0.4552 C   0  0  0  0  0  0  0  0  0  0  0  0
   -2.5846    0.4300   -1.6423 H   0  0  0  0  0  0  0  0  0  0  0  0
   -1.7482    1.7671   -0.6722 H   0  0  0  0  0  0  0  0  0  0  0  0
   -3.0044    0.7555    0.0617 H   0  0  0  0  0  0  0  0  0  0  0  0
   -2.5250   -1.5668    0.6826 H   0  0  0  0  0  0  0  0  0  0  0  0
   -1.9413   -0.3159    1.8001 H   0  0  0  0  0  0  0  0  0  0  0  0
   -0.8459   -1.7144    1.3951 H   0  0  0  0  0  0  0  0  0  0  0  0
   -0.6062   -2.0456   -0.7883 H   0  0  0  0  0  0  0  0  0  0  0  0
    0.1614    1.0749    0.9539 H   0  0  0  0  0  0  0  0  0  0  0  0
    0.3610    1.6003   -1.8851 H   0  0  0  0  0  0  0  0  0  0  0  0
    2.8975    1.4793   -1.5685 H   0  0  0  0  0  0  0  0  0  0  0  0
    2.6169    0.9177    1.2335 H   0  0  0  0  0  0  0  0  0  0  0  0
    3.4226   -0.2930    0.1223 H   0  0  0  0  0  0  0  0  0  0  0  0
    1.3874   -1.3822   -0.3701 H   0  0  0  0  0  0  0  0  0  0  0  0
    1.1598   -1.0769    1.4420 H   0  0  0  0  0  0  0  0  0  0  0  0
  1  2  1  0
  2  3  1  0
  2  4  1  0
  2  5  1  0
  5  6  1  0
  6  7  2  0
  7  8  1  0
  8  9  1  0
  9  5  1  0
  1 10  1  0
  1 11  1  0
  1 12  1  0
  3 13  1  0
  3 14  1  0
  3 15  1  0
  4 16  1  0
  5 17  1  0
  6 18  1  0
  7 19  1  0
  8 20  1  0
  8 21  1  0
  9 22  1  0
  9 23  1  0
M  END
