
     RDKit          3D

 25 24  0  0  0  0  0  0  0  0999 V2000
    1.7627   -1.3810    0.5839 C   0  0  0  0  0  0  0  0  0  0  0  0
    1.6178    0.0839    0.4163 C   0  0  0  0  0  0  0  0  0  0  0  0
    2.0787    0.4507   -0.9520 C   0  0  0  0  0  0  0  0  0  0  0  0
    2.6402    1.5102   -1.1903 O   0  0  0  0  0  0  0  0  0  0  0  0
    0.3042    0.6752    0.7695 C   0  0  0  0  0  0  0  0  0  0  0  0
   -0.8856    0.2024    0.0324 C   0  0  0  0  0  0  0  0  0  0  0  0
   -2.0756    0.9939    0.6172 C   0  0  0  0  0  0  0  0  0  0  0  0
   -0.8602    0.5864   -1.4460 C   0  0  0  0  0  0  0  0  0  0  0  0
   -1.2353   -1.2386    0.2037 C   0  0  0  0  0  0  0  0  0  0  0  0
    1.5578   -1.7368    1.6148 H   0  0  0  0  0  0  0  0  0  0  0  0
    2.8644   -1.6075    0.4397 H   0  0  0  0  0  0  0  0  0  0  0  0
    1.2656   -1.9942   -0.1947 H   0  0  0  0  0  0  0  0  0  0  0  0
    2.3726    0.5644    1.1113 H   0  0  0  0  0  0  0  0  0  0  0  0
    1.9382   -0.2087   -1.8119 H   0  0  0  0  0  0  0  0  0  0  0  0
    0.0913    0.6269    1.8574 H   0  0  0  0  0  0  0  0  0  0  0  0
    0.3917    1.7844    0.5581 H   0  0  0  0  0  0  0  0  0  0  0  0
   -2.9691    0.6082    0.0986 H   0  0  0  0  0  0  0  0  0  0  0  0
   -1.9355    2.0665    0.3278 H   0  0  0  0  0  0  0  0  0  0  0  0
   -2.1103    0.8690    1.7171 H   0  0  0  0  0  0  0  0  0  0  0  0
   -1.8689    0.8984   -1.7993 H   0  0  0  0  0  0  0  0  0  0  0  0
   -0.5983   -0.3052   -2.0824 H   0  0  0  0  0  0  0  0  0  0  0  0
   -0.1873    1.4378   -1.6133 H   0  0  0  0  0  0  0  0  0  0  0  0
   -0.7687   -1.7432    1.0508 H   0  0  0  0  0  0  0  0  0  0  0  0
   -2.3483   -1.3907    0.3455 H   0  0  0  0  0  0  0  0  0  0  0  0
   -1.0422   -1.7523   -0.7850 H   0  0  0  0  0  0  0  0  0  0  0  0
  1  2  1  0
  2  3  1  0
  3  4  2  0
  2  5  1  0
  5  6  1  0
  6  7  1  0
  6  8  1  0
  6  9  1  0
  1 10  1  0
  1 11  1  0
  1 12  1  0
  2 13  1  0
  3 14  1  0
  5 15  1  0
  5 16  1  0
  7 17  1  0
  7 18  1  0
  7 19  1  0
  8 20  1  0
  8 21  1  0
  8 22  1  0
  9 23  1  0
  9 24  1  0
  9 25  1  0
M  END
