
     RDKit          3D

 19 19  0  0  0  0  0  0  0  0999 V2000
   -1.5732    0.0763    1.1270 C   0  0  0  0  0  0  0  0  0  0  0  0
   -0.6423   -0.3406    0.0245 C   0  0  0  0  0  0  0  0  0  0  0  0
   -1.3377   -0.0522   -1.3047 C   0  0  0  0  0  0  0  0  0  0  0  0
   -0.3835   -1.7072    0.1001 O   0  0  0  0  0  0  0  0  0  0  0  0
    0.6384    0.4626    0.0175 C   0  0  0  0  0  0  0  0  0  0  0  0
    1.4867    0.1707   -1.0521 O   0  0  0  0  0  0  0  0  0  0  0  0
    2.5487    0.4701   -0.1830 C   0  0  0  0  0  0  0  0  0  0  0  0
    1.7002   -0.0507    0.9128 C   0  0  0  0  0  0  0  0  0  0  0  0
    1.8855   -0.5980    1.9595 O   0  0  0  0  0  0  0  0  0  0  0  0
   -1.8660   -0.7664    1.7871 H   0  0  0  0  0  0  0  0  0  0  0  0
   -2.4949    0.5803    0.7585 H   0  0  0  0  0  0  0  0  0  0  0  0
   -1.0996    0.8307    1.8203 H   0  0  0  0  0  0  0  0  0  0  0  0
   -2.4401    0.0704   -1.1654 H   0  0  0  0  0  0  0  0  0  0  0  0
   -1.1438   -0.8968   -2.0260 H   0  0  0  0  0  0  0  0  0  0  0  0
   -0.9731    0.8766   -1.7657 H   0  0  0  0  0  0  0  0  0  0  0  0
   -0.8971   -2.1797   -0.6023 H   0  0  0  0  0  0  0  0  0  0  0  0
    0.4794    1.5531    0.0582 H   0  0  0  0  0  0  0  0  0  0  0  0
    3.4794   -0.0741   -0.3786 H   0  0  0  0  0  0  0  0  0  0  0  0
    2.6330    1.5748   -0.0877 H   0  0  0  0  0  0  0  0  0  0  0  0
  1  2  1  0
  2  3  1  0
  2  4  1  0
  2  5  1  0
  5  6  1  0
  6  7  1  0
  7  8  1  0
  8  9  2  0
  8  5  1  0
  1 10  1  0
  1 11  1  0
  1 12  1  0
  3 13  1  0
  3 14  1  0
  3 15  1  0
  4 16  1  0
  5 17  1  0
  7 18  1  0
  7 19  1  0
M  END
