
     RDKit          3D

 21 22  0  0  0  0  0  0  0  0999 V2000
   -1.3245   -1.6371   -0.0341 C   0  0  0  0  0  0  0  0  0  0  0  0
   -0.8525   -0.2859    0.5330 C   0  0  0  0  0  0  0  0  0  0  0  0
   -1.4456    0.7814   -0.3112 C   0  0  0  0  0  0  0  0  0  0  0  0
   -1.1125    2.0714    0.0796 O   0  0  0  0  0  0  0  0  0  0  0  0
    0.6166   -0.3517    0.6128 C   0  0  0  0  0  0  0  0  0  0  0  0
    1.3809   -0.5744   -0.6528 C   0  0  0  0  0  0  0  0  0  0  0  0
    2.3723    0.4729   -0.2455 C   0  0  0  0  0  0  0  0  0  0  0  0
    2.7777    0.5907    1.0705 O   0  0  0  0  0  0  0  0  0  0  0  0
    1.4269    0.8620    0.8748 C   0  0  0  0  0  0  0  0  0  0  0  0
   -2.2516   -1.9660    0.4679 H   0  0  0  0  0  0  0  0  0  0  0  0
   -1.4294   -1.5059   -1.1172 H   0  0  0  0  0  0  0  0  0  0  0  0
   -0.5509   -2.4160    0.1299 H   0  0  0  0  0  0  0  0  0  0  0  0
   -1.2609   -0.1805    1.5626 H   0  0  0  0  0  0  0  0  0  0  0  0
   -1.2749    0.6323   -1.4024 H   0  0  0  0  0  0  0  0  0  0  0  0
   -2.5652    0.7086   -0.1866 H   0  0  0  0  0  0  0  0  0  0  0  0
   -1.8171    2.6699   -0.2824 H   0  0  0  0  0  0  0  0  0  0  0  0
    0.9065   -1.1452    1.3609 H   0  0  0  0  0  0  0  0  0  0  0  0
    1.7396   -1.6009   -0.7694 H   0  0  0  0  0  0  0  0  0  0  0  0
    0.8407   -0.2275   -1.5773 H   0  0  0  0  0  0  0  0  0  0  0  0
    2.7570    1.2184   -0.9332 H   0  0  0  0  0  0  0  0  0  0  0  0
    1.0669    1.8836    0.8200 H   0  0  0  0  0  0  0  0  0  0  0  0
  1  2  1  0
  2  3  1  0
  3  4  1  0
  2  5  1  0
  5  6  1  0
  6  7  1  0
  7  8  1  0
  8  9  1  0
  9  5  1  0
  9  7  1  0
  1 10  1  0
  1 11  1  0
  1 12  1  0
  2 13  1  0
  3 14  1  0
  3 15  1  0
  4 16  1  0
  5 17  1  0
  6 18  1  0
  6 19  1  0
  7 20  1  0
  9 21  1  0
M  END
