
     RDKit          3D

 21 21  0  0  0  0  0  0  0  0999 V2000
   -1.9699    1.1032   -0.7893 C   0  0  0  0  0  0  0  0  0  0  0  0
   -1.1125    0.0583   -0.1459 C   0  0  0  0  0  0  0  0  0  0  0  0
   -1.7874   -1.2943   -0.0954 C   0  0  0  0  0  0  0  0  0  0  0  0
   -3.0435   -1.0985    0.4796 O   0  0  0  0  0  0  0  0  0  0  0  0
    0.1504   -0.0524   -0.7090 O   0  0  0  0  0  0  0  0  0  0  0  0
    1.1701    0.2485    0.1774 C   0  0  0  0  0  0  0  0  0  0  0  0
    2.3915    0.9507   -0.3399 C   0  0  0  0  0  0  0  0  0  0  0  0
    2.4776   -0.4521    0.1321 C   0  0  0  0  0  0  0  0  0  0  0  0
    3.1641   -0.6415    1.3544 O   0  0  0  0  0  0  0  0  0  0  0  0
   -2.5911    1.6746   -0.0596 H   0  0  0  0  0  0  0  0  0  0  0  0
   -1.2995    1.8502   -1.2804 H   0  0  0  0  0  0  0  0  0  0  0  0
   -2.6165    0.6977   -1.5771 H   0  0  0  0  0  0  0  0  0  0  0  0
   -0.9741    0.3769    0.9290 H   0  0  0  0  0  0  0  0  0  0  0  0
   -1.2341   -2.0000    0.5195 H   0  0  0  0  0  0  0  0  0  0  0  0
   -1.9347   -1.6602   -1.1142 H   0  0  0  0  0  0  0  0  0  0  0  0
   -3.4198   -1.9316    0.8566 H   0  0  0  0  0  0  0  0  0  0  0  0
    0.8055    0.5281    1.1911 H   0  0  0  0  0  0  0  0  0  0  0  0
    2.4665    1.1063   -1.4451 H   0  0  0  0  0  0  0  0  0  0  0  0
    2.7306    1.8042    0.2467 H   0  0  0  0  0  0  0  0  0  0  0  0
    2.6630   -1.2387   -0.6235 H   0  0  0  0  0  0  0  0  0  0  0  0
    3.9638   -0.0293    1.3333 H   0  0  0  0  0  0  0  0  0  0  0  0
  1  2  1  0
  2  3  1  0
  3  4  1  0
  2  5  1  0
  5  6  1  0
  6  7  1  0
  7  8  1  0
  8  9  1  0
  8  6  1  0
  1 10  1  0
  1 11  1  0
  1 12  1  0
  2 13  1  0
  3 14  1  0
  3 15  1  0
  4 16  1  0
  6 17  1  0
  7 18  1  0
  7 19  1  0
  8 20  1  0
  9 21  1  0
M  END
