
     RDKit          3D

 25 24  0  0  0  0  0  0  0  0999 V2000
   -2.1283    0.8107   -0.6776 C   0  0  0  0  0  0  0  0  0  0  0  0
   -0.9667   -0.0926   -0.2627 C   0  0  0  0  0  0  0  0  0  0  0  0
   -0.8747   -1.1603   -1.3320 C   0  0  0  0  0  0  0  0  0  0  0  0
   -1.2599   -0.7772    1.0487 C   0  0  0  0  0  0  0  0  0  0  0  0
   -1.4681    0.1137    2.0928 O   0  0  0  0  0  0  0  0  0  0  0  0
    0.2980    0.7049   -0.1619 C   0  0  0  0  0  0  0  0  0  0  0  0
    1.4880   -0.1202    0.2424 C   0  0  0  0  0  0  0  0  0  0  0  0
    2.7106    0.7873    0.3085 C   0  0  0  0  0  0  0  0  0  0  0  0
    3.8043   -0.0087    0.6875 O   0  0  0  0  0  0  0  0  0  0  0  0
   -3.0588    0.5462   -0.1548 H   0  0  0  0  0  0  0  0  0  0  0  0
   -1.8982    1.8764   -0.4987 H   0  0  0  0  0  0  0  0  0  0  0  0
   -2.3438    0.7121   -1.7691 H   0  0  0  0  0  0  0  0  0  0  0  0
   -1.9160   -1.4008   -1.6399 H   0  0  0  0  0  0  0  0  0  0  0  0
   -0.3571   -2.0340   -0.8922 H   0  0  0  0  0  0  0  0  0  0  0  0
   -0.3521   -0.7329   -2.2028 H   0  0  0  0  0  0  0  0  0  0  0  0
   -0.4142   -1.4349    1.3253 H   0  0  0  0  0  0  0  0  0  0  0  0
   -2.1389   -1.4782    0.9516 H   0  0  0  0  0  0  0  0  0  0  0  0
   -2.4480    0.3005    2.1085 H   0  0  0  0  0  0  0  0  0  0  0  0
    0.5603    1.2394   -1.0820 H   0  0  0  0  0  0  0  0  0  0  0  0
    0.1564    1.4690    0.6542 H   0  0  0  0  0  0  0  0  0  0  0  0
    1.3978   -0.5293    1.2891 H   0  0  0  0  0  0  0  0  0  0  0  0
    1.7184   -0.9199   -0.4911 H   0  0  0  0  0  0  0  0  0  0  0  0
    2.5970    1.5366    1.1371 H   0  0  0  0  0  0  0  0  0  0  0  0
    2.8762    1.2814   -0.6711 H   0  0  0  0  0  0  0  0  0  0  0  0
    4.0178   -0.6891   -0.0098 H   0  0  0  0  0  0  0  0  0  0  0  0
  1  2  1  0
  2  3  1  0
  2  4  1  0
  4  5  1  0
  2  6  1  0
  6  7  1  0
  7  8  1  0
  8  9  1  0
  1 10  1  0
  1 11  1  0
  1 12  1  0
  3 13  1  0
  3 14  1  0
  3 15  1  0
  4 16  1  0
  4 17  1  0
  5 18  1  0
  6 19  1  0
  6 20  1  0
  7 21  1  0
  7 22  1  0
  8 23  1  0
  8 24  1  0
  9 25  1  0
M  END
