
     RDKit          3D

 20 20  0  0  0  0  0  0  0  0999 V2000
   -1.4515    1.1883    0.8346 C   0  0  0  0  0  0  0  0  0  0  0  0
   -1.4018   -0.2159    0.3676 C   0  0  0  0  0  0  0  0  0  0  0  0
   -2.0800   -0.3258   -0.9541 C   0  0  0  0  0  0  0  0  0  0  0  0
   -1.7768   -1.1321   -1.8051 O   0  0  0  0  0  0  0  0  0  0  0  0
   -0.0502   -0.8395    0.3432 C   0  0  0  0  0  0  0  0  0  0  0  0
    0.9414   -0.1529   -0.5385 C   0  0  0  0  0  0  0  0  0  0  0  0
    2.3329   -0.6664   -0.6604 C   0  0  0  0  0  0  0  0  0  0  0  0
    2.1163    0.4977    0.2216 C   0  0  0  0  0  0  0  0  0  0  0  0
   -1.3135    1.9125   -0.0213 H   0  0  0  0  0  0  0  0  0  0  0  0
   -2.5079    1.3937    1.1810 H   0  0  0  0  0  0  0  0  0  0  0  0
   -0.8088    1.4354    1.6831 H   0  0  0  0  0  0  0  0  0  0  0  0
   -2.0273   -0.8311    1.0755 H   0  0  0  0  0  0  0  0  0  0  0  0
   -2.8957    0.3599   -1.1648 H   0  0  0  0  0  0  0  0  0  0  0  0
   -0.1749   -1.8823   -0.0554 H   0  0  0  0  0  0  0  0  0  0  0  0
    0.3547   -0.9703    1.3678 H   0  0  0  0  0  0  0  0  0  0  0  0
    0.5963    0.4469   -1.4120 H   0  0  0  0  0  0  0  0  0  0  0  0
    2.6469   -1.6019   -0.1527 H   0  0  0  0  0  0  0  0  0  0  0  0
    2.9198   -0.4721   -1.5813 H   0  0  0  0  0  0  0  0  0  0  0  0
    2.4214    1.5138   -0.0821 H   0  0  0  0  0  0  0  0  0  0  0  0
    2.1587    0.3421    1.3190 H   0  0  0  0  0  0  0  0  0  0  0  0
  1  2  1  0
  2  3  1  0
  3  4  2  0
  2  5  1  0
  5  6  1  0
  6  7  1  0
  7  8  1  0
  8  6  1  0
  1  9  1  0
  1 10  1  0
  1 11  1  0
  2 12  1  0
  3 13  1  0
  5 14  1  0
  5 15  1  0
  6 16  1  0
  7 17  1  0
  7 18  1  0
  8 19  1  0
  8 20  1  0
M  END
