
     RDKit          3D

 21 21  0  0  0  0  0  0  0  0999 V2000
   -1.3696    0.6086    1.4334 C   0  0  0  0  0  0  0  0  0  0  0  0
   -0.9341    0.3078    0.0187 C   0  0  0  0  0  0  0  0  0  0  0  0
   -2.0942    0.0358   -0.8866 C   0  0  0  0  0  0  0  0  0  0  0  0
    0.0815   -0.8517   -0.0063 C   0  0  0  0  0  0  0  0  0  0  0  0
    0.5504   -1.2179   -1.2277 C   0  0  0  0  0  0  0  0  0  0  0  0
    1.4777   -0.7121   -0.2308 C   0  0  0  0  0  0  0  0  0  0  0  0
    1.7241    0.3120    0.6293 O   0  0  0  0  0  0  0  0  0  0  0  0
    2.8658    1.0746    0.7972 C   0  0  0  0  0  0  0  0  0  0  0  0
    3.8205    0.7697    0.0349 O   0  0  0  0  0  0  0  0  0  0  0  0
   -1.8662    1.5933    1.4172 H   0  0  0  0  0  0  0  0  0  0  0  0
   -0.4788    0.5974    2.0710 H   0  0  0  0  0  0  0  0  0  0  0  0
   -2.0377   -0.2171    1.7485 H   0  0  0  0  0  0  0  0  0  0  0  0
   -0.4387    1.2436   -0.3619 H   0  0  0  0  0  0  0  0  0  0  0  0
   -2.4965   -0.9852   -0.8141 H   0  0  0  0  0  0  0  0  0  0  0  0
   -1.8341    0.3366   -1.9267 H   0  0  0  0  0  0  0  0  0  0  0  0
   -2.9234    0.7187   -0.5716 H   0  0  0  0  0  0  0  0  0  0  0  0
   -0.2421   -1.6235    0.7608 H   0  0  0  0  0  0  0  0  0  0  0  0
    0.6262   -2.3277   -1.4519 H   0  0  0  0  0  0  0  0  0  0  0  0
    0.2815   -0.6751   -2.1687 H   0  0  0  0  0  0  0  0  0  0  0  0
    2.3831   -0.8434   -0.7906 H   0  0  0  0  0  0  0  0  0  0  0  0
    2.9045    1.8557    1.5259 H   0  0  0  0  0  0  0  0  0  0  0  0
  1  2  1  0
  2  3  1  0
  2  4  1  0
  4  5  1  0
  5  6  1  0
  6  7  1  0
  7  8  1  0
  8  9  2  0
  6  4  1  0
  1 10  1  0
  1 11  1  0
  1 12  1  0
  2 13  1  0
  3 14  1  0
  3 15  1  0
  3 16  1  0
  4 17  1  0
  5 18  1  0
  5 19  1  0
  6 20  1  0
  8 21  1  0
M  END
