
     RDKit          3D

 20 20  0  0  0  0  0  0  0  0999 V2000
   -1.9658    0.0303    1.2835 C   0  0  0  0  0  0  0  0  0  0  0  0
   -1.2489   -0.5889    0.0771 C   0  0  0  0  0  0  0  0  0  0  0  0
   -1.6723    0.1830   -1.1223 C   0  0  0  0  0  0  0  0  0  0  0  0
    0.2250   -0.5066    0.3684 C   0  0  0  0  0  0  0  0  0  0  0  0
    0.6521    0.8388    0.5478 O   0  0  0  0  0  0  0  0  0  0  0  0
    1.1935    0.0127   -0.5699 C   0  0  0  0  0  0  0  0  0  0  0  0
    2.6565   -0.2357   -0.2622 C   0  0  0  0  0  0  0  0  0  0  0  0
    3.3469    0.9857   -0.1741 O   0  0  0  0  0  0  0  0  0  0  0  0
   -1.6649    1.1119    1.2526 H   0  0  0  0  0  0  0  0  0  0  0  0
   -1.5051   -0.4703    2.1805 H   0  0  0  0  0  0  0  0  0  0  0  0
   -3.0448   -0.1209    1.2288 H   0  0  0  0  0  0  0  0  0  0  0  0
   -1.6159   -1.6282   -0.0121 H   0  0  0  0  0  0  0  0  0  0  0  0
   -1.6833    1.2744   -0.8549 H   0  0  0  0  0  0  0  0  0  0  0  0
   -1.0751   -0.0107   -2.0268 H   0  0  0  0  0  0  0  0  0  0  0  0
   -2.7184   -0.0990   -1.3632 H   0  0  0  0  0  0  0  0  0  0  0  0
    0.5830   -1.2244    1.1352 H   0  0  0  0  0  0  0  0  0  0  0  0
    0.9824    0.4372   -1.5517 H   0  0  0  0  0  0  0  0  0  0  0  0
    3.1219   -0.9057   -0.9924 H   0  0  0  0  0  0  0  0  0  0  0  0
    2.7558   -0.7413    0.7379 H   0  0  0  0  0  0  0  0  0  0  0  0
    2.6773    1.6576    0.1179 H   0  0  0  0  0  0  0  0  0  0  0  0
  1  2  1  0
  2  3  1  0
  2  4  1  0
  4  5  1  0
  5  6  1  0
  6  7  1  0
  7  8  1  0
  6  4  1  0
  1  9  1  0
  1 10  1  0
  1 11  1  0
  2 12  1  0
  3 13  1  0
  3 14  1  0
  3 15  1  0
  4 16  1  0
  6 17  1  0
  7 18  1  0
  7 19  1  0
  8 20  1  0
M  END
