
     RDKit          3D

 20 20  0  0  0  0  0  0  0  0999 V2000
    1.0796    1.3915    0.6417 C   0  0  0  0  0  0  0  0  0  0  0  0
    0.5181    0.0703    0.1545 C   0  0  0  0  0  0  0  0  0  0  0  0
    1.3414   -0.4243   -1.0274 C   0  0  0  0  0  0  0  0  0  0  0  0
    2.6706   -0.6083   -0.6582 O   0  0  0  0  0  0  0  0  0  0  0  0
   -0.9123    0.2506   -0.1556 C   0  0  0  0  0  0  0  0  0  0  0  0
   -1.6948   -0.9175   -0.6578 C   0  0  0  0  0  0  0  0  0  0  0  0
   -2.7624   -0.4820    0.1630 O   0  0  0  0  0  0  0  0  0  0  0  0
   -1.7766   -0.0613    1.0710 C   0  0  0  0  0  0  0  0  0  0  0  0
    1.5558    1.2929    1.6405 H   0  0  0  0  0  0  0  0  0  0  0  0
    1.8725    1.7360   -0.0716 H   0  0  0  0  0  0  0  0  0  0  0  0
    0.3114    2.2000    0.6280 H   0  0  0  0  0  0  0  0  0  0  0  0
    0.6652   -0.6953    0.9649 H   0  0  0  0  0  0  0  0  0  0  0  0
    0.9038   -1.3137   -1.4749 H   0  0  0  0  0  0  0  0  0  0  0  0
    1.3426    0.3660   -1.8292 H   0  0  0  0  0  0  0  0  0  0  0  0
    2.7199   -1.1745    0.1456 H   0  0  0  0  0  0  0  0  0  0  0  0
   -1.1890    1.1721   -0.6684 H   0  0  0  0  0  0  0  0  0  0  0  0
   -2.0214   -0.8376   -1.7178 H   0  0  0  0  0  0  0  0  0  0  0  0
   -1.3171   -1.9065   -0.3909 H   0  0  0  0  0  0  0  0  0  0  0  0
   -1.9909    0.8479    1.6246 H   0  0  0  0  0  0  0  0  0  0  0  0
   -1.3160   -0.9061    1.6179 H   0  0  0  0  0  0  0  0  0  0  0  0
  1  2  1  0
  2  3  1  0
  3  4  1  0
  2  5  1  0
  5  6  1  0
  6  7  1  0
  7  8  1  0
  8  5  1  0
  1  9  1  0
  1 10  1  0
  1 11  1  0
  2 12  1  0
  3 13  1  0
  3 14  1  0
  4 15  1  0
  5 16  1  0
  6 17  1  0
  6 18  1  0
  8 19  1  0
  8 20  1  0
M  END
