
     RDKit          3D

 23 23  0  0  0  0  0  0  0  0999 V2000
   -0.6656   -0.4864    1.4691 C   0  0  0  0  0  0  0  0  0  0  0  0
   -0.4944   -0.1990    0.0258 C   0  0  0  0  0  0  0  0  0  0  0  0
   -1.4463    0.8395   -0.5201 C   0  0  0  0  0  0  0  0  0  0  0  0
   -1.3536    2.0715    0.0736 O   0  0  0  0  0  0  0  0  0  0  0  0
   -0.8361   -1.4930   -0.7305 C   0  0  0  0  0  0  0  0  0  0  0  0
   -0.6965   -1.2961   -2.0944 O   0  0  0  0  0  0  0  0  0  0  0  0
    0.9002    0.1666   -0.3961 C   0  0  0  0  0  0  0  0  0  0  0  0
    1.6204    1.3341    0.1457 C   0  0  0  0  0  0  0  0  0  0  0  0
    2.0966   -0.1135    0.3973 C   0  0  0  0  0  0  0  0  0  0  0  0
    0.2161   -0.8557    1.9880 H   0  0  0  0  0  0  0  0  0  0  0  0
   -1.4489   -1.2919    1.5957 H   0  0  0  0  0  0  0  0  0  0  0  0
   -1.0614    0.3591    2.0753 H   0  0  0  0  0  0  0  0  0  0  0  0
   -1.2342    0.9041   -1.6251 H   0  0  0  0  0  0  0  0  0  0  0  0
   -2.5081    0.5037   -0.4537 H   0  0  0  0  0  0  0  0  0  0  0  0
   -1.1004    2.0856    1.0143 H   0  0  0  0  0  0  0  0  0  0  0  0
   -1.8841   -1.7691   -0.4888 H   0  0  0  0  0  0  0  0  0  0  0  0
   -0.1018   -2.2398   -0.3968 H   0  0  0  0  0  0  0  0  0  0  0  0
    0.2046   -1.6352   -2.3912 H   0  0  0  0  0  0  0  0  0  0  0  0
    1.0366    0.0258   -1.5126 H   0  0  0  0  0  0  0  0  0  0  0  0
    2.2808    1.9416   -0.5303 H   0  0  0  0  0  0  0  0  0  0  0  0
    1.2889    1.9142    1.0206 H   0  0  0  0  0  0  0  0  0  0  0  0
    3.0674   -0.3803   -0.1176 H   0  0  0  0  0  0  0  0  0  0  0  0
    2.1198   -0.3860    1.4522 H   0  0  0  0  0  0  0  0  0  0  0  0
  1  2  1  0
  2  3  1  0
  3  4  1  0
  2  5  1  0
  5  6  1  0
  2  7  1  0
  7  8  1  0
  8  9  1  0
  9  7  1  0
  1 10  1  0
  1 11  1  0
  1 12  1  0
  3 13  1  0
  3 14  1  0
  4 15  1  0
  5 16  1  0
  5 17  1  0
  6 18  1  0
  7 19  1  0
  8 20  1  0
  8 21  1  0
  9 22  1  0
  9 23  1  0
M  END
