
     RDKit          3D

 25 25  0  0  0  0  0  0  0  0999 V2000
   -2.1474   -0.6608   -1.0807 C   0  0  0  0  0  0  0  0  0  0  0  0
   -1.5806   -0.2029    0.2157 C   0  0  0  0  0  0  0  0  0  0  0  0
   -2.6110    0.5395    1.0414 C   0  0  0  0  0  0  0  0  0  0  0  0
   -0.3279    0.6019    0.1122 C   0  0  0  0  0  0  0  0  0  0  0  0
    0.8180   -0.0797   -0.5287 C   0  0  0  0  0  0  0  0  0  0  0  0
    1.9957    0.8746   -0.5500 C   0  0  0  0  0  0  0  0  0  0  0  0
    3.1165    0.1835    0.1772 C   0  0  0  0  0  0  0  0  0  0  0  0
    2.7567   -1.1619    0.1638 O   0  0  0  0  0  0  0  0  0  0  0  0
    1.3793   -1.2025    0.3465 C   0  0  0  0  0  0  0  0  0  0  0  0
   -3.2523   -0.8348   -0.9168 H   0  0  0  0  0  0  0  0  0  0  0  0
   -1.7354   -1.6429   -1.3528 H   0  0  0  0  0  0  0  0  0  0  0  0
   -2.0828    0.0849   -1.8938 H   0  0  0  0  0  0  0  0  0  0  0  0
   -1.3313   -1.1299    0.8102 H   0  0  0  0  0  0  0  0  0  0  0  0
   -3.0459    1.3905    0.4815 H   0  0  0  0  0  0  0  0  0  0  0  0
   -3.4334   -0.1897    1.2713 H   0  0  0  0  0  0  0  0  0  0  0  0
   -2.1694    0.8408    2.0133 H   0  0  0  0  0  0  0  0  0  0  0  0
   -0.5611    1.5208   -0.4645 H   0  0  0  0  0  0  0  0  0  0  0  0
   -0.0220    0.9425    1.1211 H   0  0  0  0  0  0  0  0  0  0  0  0
    0.6411   -0.4395   -1.5457 H   0  0  0  0  0  0  0  0  0  0  0  0
    1.7757    1.8273   -0.0246 H   0  0  0  0  0  0  0  0  0  0  0  0
    2.3427    1.0585   -1.5999 H   0  0  0  0  0  0  0  0  0  0  0  0
    3.2489    0.5648    1.2093 H   0  0  0  0  0  0  0  0  0  0  0  0
    4.0754    0.2546   -0.4014 H   0  0  0  0  0  0  0  0  0  0  0  0
    1.1260   -0.9566    1.3824 H   0  0  0  0  0  0  0  0  0  0  0  0
    1.0244   -2.1830    0.0130 H   0  0  0  0  0  0  0  0  0  0  0  0
  1  2  1  0
  2  3  1  0
  2  4  1  0
  4  5  1  0
  5  6  1  0
  6  7  1  0
  7  8  1  0
  8  9  1  0
  9  5  1  0
  1 10  1  0
  1 11  1  0
  1 12  1  0
  2 13  1  0
  3 14  1  0
  3 15  1  0
  3 16  1  0
  4 17  1  0
  4 18  1  0
  5 19  1  0
  6 20  1  0
  6 21  1  0
  7 22  1  0
  7 23  1  0
  9 24  1  0
  9 25  1  0
M  END
