
     RDKit          3D

 24 24  0  0  0  0  0  0  0  0999 V2000
    1.9746   -0.9458    0.2189 C   0  0  0  0  0  0  0  0  0  0  0  0
    1.1344    0.0243   -0.5860 C   0  0  0  0  0  0  0  0  0  0  0  0
    2.0350    1.1846   -0.9855 C   0  0  0  0  0  0  0  0  0  0  0  0
   -0.0067    0.4575    0.2707 C   0  0  0  0  0  0  0  0  0  0  0  0
   -0.9362   -0.5661    0.7641 C   0  0  0  0  0  0  0  0  0  0  0  0
   -1.0043   -1.9509    0.1829 C   0  0  0  0  0  0  0  0  0  0  0  0
   -1.3945    0.5162   -0.2057 C   0  0  0  0  0  0  0  0  0  0  0  0
   -2.3413    1.5291    0.4123 C   0  0  0  0  0  0  0  0  0  0  0  0
    1.3267   -1.4379    0.9722 H   0  0  0  0  0  0  0  0  0  0  0  0
    2.4127   -1.7351   -0.4168 H   0  0  0  0  0  0  0  0  0  0  0  0
    2.7210   -0.3564    0.7730 H   0  0  0  0  0  0  0  0  0  0  0  0
    0.8422   -0.4809   -1.5235 H   0  0  0  0  0  0  0  0  0  0  0  0
    2.8372    1.3256   -0.2129 H   0  0  0  0  0  0  0  0  0  0  0  0
    2.5555    0.9833   -1.9411 H   0  0  0  0  0  0  0  0  0  0  0  0
    1.4831    2.1304   -1.0975 H   0  0  0  0  0  0  0  0  0  0  0  0
    0.2740    1.2605    1.0108 H   0  0  0  0  0  0  0  0  0  0  0  0
   -1.2813   -0.5042    1.8242 H   0  0  0  0  0  0  0  0  0  0  0  0
   -2.0548   -2.1828   -0.1027 H   0  0  0  0  0  0  0  0  0  0  0  0
   -0.6853   -2.7423    0.8719 H   0  0  0  0  0  0  0  0  0  0  0  0
   -0.3930   -2.0510   -0.7459 H   0  0  0  0  0  0  0  0  0  0  0  0
   -1.6662    0.2392   -1.2348 H   0  0  0  0  0  0  0  0  0  0  0  0
   -3.3888    1.2806    0.0738 H   0  0  0  0  0  0  0  0  0  0  0  0
   -2.3715    1.4543    1.5178 H   0  0  0  0  0  0  0  0  0  0  0  0
   -2.0727    2.5679    0.1596 H   0  0  0  0  0  0  0  0  0  0  0  0
  1  2  1  0
  2  3  1  0
  2  4  1  0
  4  5  1  0
  5  6  1  0
  5  7  1  0
  7  8  1  0
  7  4  1  0
  1  9  1  0
  1 10  1  0
  1 11  1  0
  2 12  1  0
  3 13  1  0
  3 14  1  0
  3 15  1  0
  4 16  1  0
  5 17  1  0
  6 18  1  0
  6 19  1  0
  6 20  1  0
  7 21  1  0
  8 22  1  0
  8 23  1  0
  8 24  1  0
M  END
