
     RDKit          3D

 23 23  0  0  0  0  0  0  0  0999 V2000
   -1.4418    0.7739    1.3127 C   0  0  0  0  0  0  0  0  0  0  0  0
   -1.1854    0.4008   -0.1113 C   0  0  0  0  0  0  0  0  0  0  0  0
   -2.2927   -0.4610   -0.6378 C   0  0  0  0  0  0  0  0  0  0  0  0
    0.1676   -0.2459   -0.3060 C   0  0  0  0  0  0  0  0  0  0  0  0
    1.3570    0.6048    0.0867 C   0  0  0  0  0  0  0  0  0  0  0  0
    2.6493   -0.1384   -0.1257 C   0  0  0  0  0  0  0  0  0  0  0  0
    1.2349    1.0101    1.3942 O   0  0  0  0  0  0  0  0  0  0  0  0
    0.3047   -1.5952   -0.5926 C   0  0  0  0  0  0  0  0  0  0  0  0
    0.3389   -0.6619   -1.7233 O   0  0  0  0  0  0  0  0  0  0  0  0
   -1.2388    1.8678    1.5039 H   0  0  0  0  0  0  0  0  0  0  0  0
   -0.8832    0.1749    2.0420 H   0  0  0  0  0  0  0  0  0  0  0  0
   -2.5310    0.6528    1.5653 H   0  0  0  0  0  0  0  0  0  0  0  0
   -1.1875    1.3430   -0.7100 H   0  0  0  0  0  0  0  0  0  0  0  0
   -2.3212   -1.4514   -0.1273 H   0  0  0  0  0  0  0  0  0  0  0  0
   -2.1705   -0.5663   -1.7426 H   0  0  0  0  0  0  0  0  0  0  0  0
   -3.2544    0.0586   -0.4548 H   0  0  0  0  0  0  0  0  0  0  0  0
    1.3838    1.4785   -0.6285 H   0  0  0  0  0  0  0  0  0  0  0  0
    2.8550   -0.8941    0.6554 H   0  0  0  0  0  0  0  0  0  0  0  0
    2.7150   -0.5451   -1.1473 H   0  0  0  0  0  0  0  0  0  0  0  0
    3.4674    0.6180   -0.0366 H   0  0  0  0  0  0  0  0  0  0  0  0
    1.2883    1.9989    1.4110 H   0  0  0  0  0  0  0  0  0  0  0  0
    1.2876   -2.1176   -0.5513 H   0  0  0  0  0  0  0  0  0  0  0  0
   -0.5431   -2.3051   -0.6543 H   0  0  0  0  0  0  0  0  0  0  0  0
  1  2  1  0
  2  3  1  0
  2  4  1  0
  4  5  1  0
  5  6  1  0
  5  7  1  0
  4  8  1  0
  8  9  1  0
  9  4  1  0
  1 10  1  0
  1 11  1  0
  1 12  1  0
  2 13  1  0
  3 14  1  0
  3 15  1  0
  3 16  1  0
  5 17  1  0
  6 18  1  0
  6 19  1  0
  6 20  1  0
  7 21  1  0
  8 22  1  0
  8 23  1  0
M  END
