
     RDKit          3D

 23 24  0  0  0  0  0  0  0  0999 V2000
    2.3349    0.7606   -0.0631 C   0  0  0  0  0  0  0  0  0  0  0  0
    1.2098   -0.0678    0.5287 C   0  0  0  0  0  0  0  0  0  0  0  0
    1.2274   -1.4000   -0.1752 C   0  0  0  0  0  0  0  0  0  0  0  0
   -0.0961    0.6603    0.3729 C   0  0  0  0  0  0  0  0  0  0  0  0
   -0.5098    0.9707   -1.0291 C   0  0  0  0  0  0  0  0  0  0  0  0
   -1.9266    0.5662   -0.6106 C   0  0  0  0  0  0  0  0  0  0  0  0
   -2.0916   -0.8683   -0.3193 C   0  0  0  0  0  0  0  0  0  0  0  0
   -1.3324   -0.1015    0.6733 C   0  0  0  0  0  0  0  0  0  0  0  0
   -1.9992    0.2055    1.8683 O   0  0  0  0  0  0  0  0  0  0  0  0
    3.2876    0.6058    0.4857 H   0  0  0  0  0  0  0  0  0  0  0  0
    2.4414    0.5225   -1.1439 H   0  0  0  0  0  0  0  0  0  0  0  0
    2.0122    1.8388   -0.0302 H   0  0  0  0  0  0  0  0  0  0  0  0
    1.4520   -0.2638    1.5933 H   0  0  0  0  0  0  0  0  0  0  0  0
    1.2384   -1.3139   -1.2772 H   0  0  0  0  0  0  0  0  0  0  0  0
    2.2002   -1.8865    0.1022 H   0  0  0  0  0  0  0  0  0  0  0  0
    0.4393   -2.0808    0.1965 H   0  0  0  0  0  0  0  0  0  0  0  0
   -0.0609    1.6012    0.9729 H   0  0  0  0  0  0  0  0  0  0  0  0
   -0.4168    2.0290   -1.3360 H   0  0  0  0  0  0  0  0  0  0  0  0
   -0.1693    0.2283   -1.8085 H   0  0  0  0  0  0  0  0  0  0  0  0
   -2.6709    1.3299   -0.4145 H   0  0  0  0  0  0  0  0  0  0  0  0
   -3.0962   -1.2038   -0.0535 H   0  0  0  0  0  0  0  0  0  0  0  0
   -1.5778   -1.5759   -1.0315 H   0  0  0  0  0  0  0  0  0  0  0  0
   -1.8959   -0.5563    2.4989 H   0  0  0  0  0  0  0  0  0  0  0  0
  1  2  1  0
  2  3  1  0
  2  4  1  0
  4  5  1  0
  5  6  1  0
  6  7  1  0
  7  8  1  0
  8  9  1  0
  8  4  1  0
  8  6  1  0
  1 10  1  0
  1 11  1  0
  1 12  1  0
  2 13  1  0
  3 14  1  0
  3 15  1  0
  3 16  1  0
  4 17  1  0
  5 18  1  0
  5 19  1  0
  6 20  1  0
  7 21  1  0
  7 22  1  0
  9 23  1  0
M  END
