
     RDKit          3D

 23 24  0  0  0  0  0  0  0  0999 V2000
   -1.5560   -0.9565    1.0792 C   0  0  0  0  0  0  0  0  0  0  0  0
   -1.2026   -0.5382   -0.3135 C   0  0  0  0  0  0  0  0  0  0  0  0
   -2.2842    0.3303   -0.9420 C   0  0  0  0  0  0  0  0  0  0  0  0
    0.1505    0.0601   -0.4464 C   0  0  0  0  0  0  0  0  0  0  0  0
    0.6657    0.5043   -1.6184 O   0  0  0  0  0  0  0  0  0  0  0  0
    1.3549    1.5798   -1.0113 C   0  0  0  0  0  0  0  0  0  0  0  0
    0.7176    1.1355    0.3047 C   0  0  0  0  0  0  0  0  0  0  0  0
    1.0966   -0.2148    0.7338 C   0  0  0  0  0  0  0  0  0  0  0  0
    2.3937   -0.8583    0.2702 C   0  0  0  0  0  0  0  0  0  0  0  0
   -2.6299   -1.2522    1.0936 H   0  0  0  0  0  0  0  0  0  0  0  0
   -1.3361   -0.1662    1.8302 H   0  0  0  0  0  0  0  0  0  0  0  0
   -0.9825   -1.8742    1.3539 H   0  0  0  0  0  0  0  0  0  0  0  0
   -1.1880   -1.4812   -0.9296 H   0  0  0  0  0  0  0  0  0  0  0  0
   -1.8632    0.9369   -1.7692 H   0  0  0  0  0  0  0  0  0  0  0  0
   -3.0728   -0.3123   -1.4236 H   0  0  0  0  0  0  0  0  0  0  0  0
   -2.8086    0.9499   -0.1986 H   0  0  0  0  0  0  0  0  0  0  0  0
    1.0477    2.5721   -1.3642 H   0  0  0  0  0  0  0  0  0  0  0  0
    2.4548    1.4450   -0.9915 H   0  0  0  0  0  0  0  0  0  0  0  0
    0.2168    1.8704    0.9277 H   0  0  0  0  0  0  0  0  0  0  0  0
    0.6554   -0.6168    1.6416 H   0  0  0  0  0  0  0  0  0  0  0  0
    2.2664   -1.9771    0.2434 H   0  0  0  0  0  0  0  0  0  0  0  0
    3.2574   -0.5627    0.8950 H   0  0  0  0  0  0  0  0  0  0  0  0
    2.6464   -0.5739   -0.7707 H   0  0  0  0  0  0  0  0  0  0  0  0
  1  2  1  0
  2  3  1  0
  2  4  1  0
  4  5  1  0
  5  6  1  0
  6  7  1  0
  7  8  1  0
  8  9  1  0
  7  4  1  0
  8  4  1  0
  1 10  1  0
  1 11  1  0
  1 12  1  0
  2 13  1  0
  3 14  1  0
  3 15  1  0
  3 16  1  0
  6 17  1  0
  6 18  1  0
  7 19  1  0
  8 20  1  0
  9 21  1  0
  9 22  1  0
  9 23  1  0
M  END
