
     RDKit          3D

 21 21  0  0  0  0  0  0  0  0999 V2000
   -1.3216   -1.6119   -0.2443 C   0  0  0  0  0  0  0  0  0  0  0  0
   -0.5047   -0.4584    0.2967 C   0  0  0  0  0  0  0  0  0  0  0  0
   -1.2558    0.8295    0.0105 C   0  0  0  0  0  0  0  0  0  0  0  0
   -2.5899    0.8068    0.6696 C   0  0  0  0  0  0  0  0  0  0  0  0
   -3.2887    1.8114    0.5010 O   0  0  0  0  0  0  0  0  0  0  0  0
    0.8115   -0.4554   -0.4151 C   0  0  0  0  0  0  0  0  0  0  0  0
    1.7409    0.6336    0.0101 C   0  0  0  0  0  0  0  0  0  0  0  0
    3.0450    0.7538   -0.5952 C   0  0  0  0  0  0  0  0  0  0  0  0
    2.9695    0.1217    0.7177 O   0  0  0  0  0  0  0  0  0  0  0  0
   -2.4138   -1.4460   -0.1447 H   0  0  0  0  0  0  0  0  0  0  0  0
   -1.1004   -1.7252   -1.3263 H   0  0  0  0  0  0  0  0  0  0  0  0
   -1.0455   -2.5790    0.2285 H   0  0  0  0  0  0  0  0  0  0  0  0
   -0.3138   -0.5390    1.3796 H   0  0  0  0  0  0  0  0  0  0  0  0
   -1.3160    0.9641   -1.0830 H   0  0  0  0  0  0  0  0  0  0  0  0
   -0.6986    1.6768    0.4515 H   0  0  0  0  0  0  0  0  0  0  0  0
   -2.9742    0.0088    1.2594 H   0  0  0  0  0  0  0  0  0  0  0  0
    0.6779   -0.4004   -1.5282 H   0  0  0  0  0  0  0  0  0  0  0  0
    1.2798   -1.4626   -0.2329 H   0  0  0  0  0  0  0  0  0  0  0  0
    1.3097    1.3959    0.6708 H   0  0  0  0  0  0  0  0  0  0  0  0
    3.6493    1.6771   -0.5447 H   0  0  0  0  0  0  0  0  0  0  0  0
    3.3396   -0.0019   -1.3467 H   0  0  0  0  0  0  0  0  0  0  0  0
  1  2  1  0
  2  3  1  0
  3  4  1  0
  4  5  2  0
  2  6  1  0
  6  7  1  0
  7  8  1  0
  8  9  1  0
  9  7  1  0
  1 10  1  0
  1 11  1  0
  1 12  1  0
  2 13  1  0
  3 14  1  0
  3 15  1  0
  4 16  1  0
  6 17  1  0
  6 18  1  0
  7 19  1  0
  8 20  1  0
  8 21  1  0
M  END
