
     RDKit          3D

 20 19  0  0  0  0  0  0  0  0999 V2000
   -1.8697   -0.7801   -0.7955 C   0  0  0  0  0  0  0  0  0  0  0  0
   -0.7962   -0.2696    0.1292 C   0  0  0  0  0  0  0  0  0  0  0  0
   -1.1765    1.1368    0.5258 C   0  0  0  0  0  0  0  0  0  0  0  0
   -0.7400   -1.0195    1.3175 O   0  0  0  0  0  0  0  0  0  0  0  0
    0.5684   -0.2763   -0.5314 C   0  0  0  0  0  0  0  0  0  0  0  0
    1.5898    0.2446    0.4468 C   0  0  0  0  0  0  0  0  0  0  0  0
    2.9520    0.2766   -0.1043 C   0  0  0  0  0  0  0  0  0  0  0  0
    3.2365   -0.0809   -1.2386 O   0  0  0  0  0  0  0  0  0  0  0  0
   -2.4704   -1.5758   -0.2932 H   0  0  0  0  0  0  0  0  0  0  0  0
   -2.5159    0.0407   -1.1893 H   0  0  0  0  0  0  0  0  0  0  0  0
   -1.3464   -1.3021   -1.6356 H   0  0  0  0  0  0  0  0  0  0  0  0
   -2.2594    1.1575    0.7889 H   0  0  0  0  0  0  0  0  0  0  0  0
   -0.9762    1.7788   -0.3765 H   0  0  0  0  0  0  0  0  0  0  0  0
   -0.6174    1.5258    1.3732 H   0  0  0  0  0  0  0  0  0  0  0  0
   -1.5416   -1.5812    1.3209 H   0  0  0  0  0  0  0  0  0  0  0  0
    0.5027    0.4490   -1.3782 H   0  0  0  0  0  0  0  0  0  0  0  0
    0.8170   -1.2489   -0.9475 H   0  0  0  0  0  0  0  0  0  0  0  0
    1.5789   -0.3734    1.3817 H   0  0  0  0  0  0  0  0  0  0  0  0
    1.3133    1.2667    0.7621 H   0  0  0  0  0  0  0  0  0  0  0  0
    3.7511    0.6314    0.5132 H   0  0  0  0  0  0  0  0  0  0  0  0
  1  2  1  0
  2  3  1  0
  2  4  1  0
  2  5  1  0
  5  6  1  0
  6  7  1  0
  7  8  2  0
  1  9  1  0
  1 10  1  0
  1 11  1  0
  3 12  1  0
  3 13  1  0
  3 14  1  0
  4 15  1  0
  5 16  1  0
  5 17  1  0
  6 18  1  0
  6 19  1  0
  7 20  1  0
M  END
