
     RDKit          3D

 21 21  0  0  0  0  0  0  0  0999 V2000
   -1.5462   -1.2558    0.2150 C   0  0  0  0  0  0  0  0  0  0  0  0
   -0.5773   -0.0840    0.4260 C   0  0  0  0  0  0  0  0  0  0  0  0
   -1.2297    1.1306   -0.1344 C   0  0  0  0  0  0  0  0  0  0  0  0
   -0.3458    0.0052    1.7917 O   0  0  0  0  0  0  0  0  0  0  0  0
    0.7128   -0.4595   -0.2422 C   0  0  0  0  0  0  0  0  0  0  0  0
    1.2173   -1.6997    0.2131 O   0  0  0  0  0  0  0  0  0  0  0  0
    1.0911   -0.0053   -1.5755 C   0  0  0  0  0  0  0  0  0  0  0  0
    1.7910    0.5760   -0.4284 C   0  0  0  0  0  0  0  0  0  0  0  0
    1.5604    1.8729    0.0178 O   0  0  0  0  0  0  0  0  0  0  0  0
   -2.5411   -0.8678    0.5105 H   0  0  0  0  0  0  0  0  0  0  0  0
   -1.1853   -2.0685    0.8727 H   0  0  0  0  0  0  0  0  0  0  0  0
   -1.4916   -1.5611   -0.8312 H   0  0  0  0  0  0  0  0  0  0  0  0
   -0.6159    1.7230   -0.8205 H   0  0  0  0  0  0  0  0  0  0  0  0
   -2.2537    0.9232   -0.5632 H   0  0  0  0  0  0  0  0  0  0  0  0
   -1.4494    1.8123    0.7403 H   0  0  0  0  0  0  0  0  0  0  0  0
   -1.0198   -0.4784    2.3322 H   0  0  0  0  0  0  0  0  0  0  0  0
    1.2235   -1.6126    1.2151 H   0  0  0  0  0  0  0  0  0  0  0  0
    1.6642   -0.7234   -2.2323 H   0  0  0  0  0  0  0  0  0  0  0  0
    0.4042    0.6187   -2.1988 H   0  0  0  0  0  0  0  0  0  0  0  0
    2.8663    0.2751   -0.2984 H   0  0  0  0  0  0  0  0  0  0  0  0
    1.7251    1.8790    0.9904 H   0  0  0  0  0  0  0  0  0  0  0  0
  1  2  1  0
  2  3  1  0
  2  4  1  0
  2  5  1  0
  5  6  1  0
  5  7  1  0
  7  8  1  0
  8  9  1  0
  8  5  1  0
  1 10  1  0
  1 11  1  0
  1 12  1  0
  3 13  1  0
  3 14  1  0
  3 15  1  0
  4 16  1  0
  6 17  1  0
  7 18  1  0
  7 19  1  0
  8 20  1  0
  9 21  1  0
M  END
