
     RDKit          3D

 19 19  0  0  0  0  0  0  0  0999 V2000
   -1.0780   -1.4296   -0.0066 C   0  0  0  0  0  0  0  0  0  0  0  0
   -0.8672   -0.0358   -0.5103 C   0  0  0  0  0  0  0  0  0  0  0  0
   -1.9183    0.8864    0.0616 C   0  0  0  0  0  0  0  0  0  0  0  0
    0.4737    0.5281   -0.1976 C   0  0  0  0  0  0  0  0  0  0  0  0
    1.6591   -0.2267   -0.7567 C   0  0  0  0  0  0  0  0  0  0  0  0
    2.2643    0.3988    0.5080 C   0  0  0  0  0  0  0  0  0  0  0  0
    0.9757    0.2688    1.0759 O   0  0  0  0  0  0  0  0  0  0  0  0
   -0.9361   -2.1800   -0.8326 H   0  0  0  0  0  0  0  0  0  0  0  0
   -2.1653   -1.5151    0.2651 H   0  0  0  0  0  0  0  0  0  0  0  0
   -0.4148   -1.7171    0.8186 H   0  0  0  0  0  0  0  0  0  0  0  0
   -0.9930   -0.0190   -1.6190 H   0  0  0  0  0  0  0  0  0  0  0  0
   -2.2111    0.5855    1.0988 H   0  0  0  0  0  0  0  0  0  0  0  0
   -1.6141    1.9453    0.0077 H   0  0  0  0  0  0  0  0  0  0  0  0
   -2.8388    0.7832   -0.5570 H   0  0  0  0  0  0  0  0  0  0  0  0
    0.5128    1.6081   -0.4553 H   0  0  0  0  0  0  0  0  0  0  0  0
    2.0863    0.1621   -1.6840 H   0  0  0  0  0  0  0  0  0  0  0  0
    1.5010   -1.3070   -0.6805 H   0  0  0  0  0  0  0  0  0  0  0  0
    3.0442   -0.1926    0.9863 H   0  0  0  0  0  0  0  0  0  0  0  0
    2.5197    1.4567    0.2622 H   0  0  0  0  0  0  0  0  0  0  0  0
  1  2  1  0
  2  3  1  0
  2  4  1  0
  4  5  1  0
  5  6  1  0
  6  7  1  0
  7  4  1  0
  1  8  1  0
  1  9  1  0
  1 10  1  0
  2 11  1  0
  3 12  1  0
  3 13  1  0
  3 14  1  0
  4 15  1  0
  5 16  1  0
  5 17  1  0
  6 18  1  0
  6 19  1  0
M  END
