
     RDKit          3D

 23 23  0  0  0  0  0  0  0  0999 V2000
   -2.0068   -0.5103    0.3627 C   0  0  0  0  0  0  0  0  0  0  0  0
   -0.6628    0.2745    0.3991 C   0  0  0  0  0  0  0  0  0  0  0  0
   -0.8908    1.3831   -0.5970 C   0  0  0  0  0  0  0  0  0  0  0  0
   -2.0103    2.1504   -0.1646 O   0  0  0  0  0  0  0  0  0  0  0  0
    0.3677   -0.7264    0.0447 C   0  0  0  0  0  0  0  0  0  0  0  0
    0.4231   -1.9300    0.9974 C   0  0  0  0  0  0  0  0  0  0  0  0
    0.5670   -0.9135   -1.3074 O   0  0  0  0  0  0  0  0  0  0  0  0
    1.6622   -0.4473   -0.6009 C   0  0  0  0  0  0  0  0  0  0  0  0
    2.2138    0.9208   -0.7842 C   0  0  0  0  0  0  0  0  0  0  0  0
   -2.0991   -1.0578    1.3080 H   0  0  0  0  0  0  0  0  0  0  0  0
   -1.9586   -1.2052   -0.4990 H   0  0  0  0  0  0  0  0  0  0  0  0
   -2.8421    0.1833    0.1849 H   0  0  0  0  0  0  0  0  0  0  0  0
   -0.5520    0.7067    1.4084 H   0  0  0  0  0  0  0  0  0  0  0  0
   -0.0892    2.1057   -0.6970 H   0  0  0  0  0  0  0  0  0  0  0  0
   -1.1627    1.0014   -1.5984 H   0  0  0  0  0  0  0  0  0  0  0  0
   -2.0382    2.1150    0.8313 H   0  0  0  0  0  0  0  0  0  0  0  0
   -0.2435   -2.7404    0.6185 H   0  0  0  0  0  0  0  0  0  0  0  0
    1.4444   -2.3364    1.1063 H   0  0  0  0  0  0  0  0  0  0  0  0
    0.1224   -1.5679    1.9986 H   0  0  0  0  0  0  0  0  0  0  0  0
    2.4529   -1.2580   -0.5292 H   0  0  0  0  0  0  0  0  0  0  0  0
    3.3511    0.8639   -0.8566 H   0  0  0  0  0  0  0  0  0  0  0  0
    2.0478    1.5628    0.0970 H   0  0  0  0  0  0  0  0  0  0  0  0
    1.9037    1.4258   -1.7225 H   0  0  0  0  0  0  0  0  0  0  0  0
  1  2  1  0
  2  3  1  0
  3  4  1  0
  2  5  1  0
  5  6  1  0
  5  7  1  0
  7  8  1  0
  8  9  1  0
  8  5  1  0
  1 10  1  0
  1 11  1  0
  1 12  1  0
  2 13  1  0
  3 14  1  0
  3 15  1  0
  4 16  1  0
  6 17  1  0
  6 18  1  0
  6 19  1  0
  8 20  1  0
  9 21  1  0
  9 22  1  0
  9 23  1  0
M  END
