
     RDKit          3D

 22 22  0  0  0  0  0  0  0  0999 V2000
   -1.6239    0.8278    1.0609 C   0  0  0  0  0  0  0  0  0  0  0  0
   -1.2023   -0.3897    0.2593 C   0  0  0  0  0  0  0  0  0  0  0  0
   -2.2779   -0.6367   -0.7682 C   0  0  0  0  0  0  0  0  0  0  0  0
    0.1313   -0.0927   -0.4333 C   0  0  0  0  0  0  0  0  0  0  0  0
    1.2444    0.2326    0.5284 C   0  0  0  0  0  0  0  0  0  0  0  0
    2.3001    1.2420    0.1006 C   0  0  0  0  0  0  0  0  0  0  0  0
    1.2405   -1.0590   -0.1951 C   0  0  0  0  0  0  0  0  0  0  0  0
    2.2318   -1.2537   -1.1490 O   0  0  0  0  0  0  0  0  0  0  0  0
   -1.9112    0.5477    2.1116 H   0  0  0  0  0  0  0  0  0  0  0  0
   -2.5239    1.3207    0.6370 H   0  0  0  0  0  0  0  0  0  0  0  0
   -0.8147    1.6073    1.0820 H   0  0  0  0  0  0  0  0  0  0  0  0
   -1.0813   -1.2316    0.9398 H   0  0  0  0  0  0  0  0  0  0  0  0
   -2.7654    0.3444   -1.0327 H   0  0  0  0  0  0  0  0  0  0  0  0
   -3.0483   -1.3144   -0.3486 H   0  0  0  0  0  0  0  0  0  0  0  0
   -1.8534   -1.0697   -1.6876 H   0  0  0  0  0  0  0  0  0  0  0  0
    0.0308    0.4494   -1.3756 H   0  0  0  0  0  0  0  0  0  0  0  0
    1.0514    0.2150    1.6095 H   0  0  0  0  0  0  0  0  0  0  0  0
    2.1613    2.2196    0.5697 H   0  0  0  0  0  0  0  0  0  0  0  0
    3.3021    0.7949    0.2718 H   0  0  0  0  0  0  0  0  0  0  0  0
    2.2360    1.3752   -1.0192 H   0  0  0  0  0  0  0  0  0  0  0  0
    0.9697   -1.9736    0.3875 H   0  0  0  0  0  0  0  0  0  0  0  0
    2.2029   -2.1556   -1.5488 H   0  0  0  0  0  0  0  0  0  0  0  0
  1  2  1  0
  2  3  1  0
  2  4  1  0
  4  5  1  0
  5  6  1  0
  5  7  1  0
  7  8  1  0
  7  4  1  0
  1  9  1  0
  1 10  1  0
  1 11  1  0
  2 12  1  0
  3 13  1  0
  3 14  1  0
  3 15  1  0
  4 16  1  0
  5 17  1  0
  6 18  1  0
  6 19  1  0
  6 20  1  0
  7 21  1  0
  8 22  1  0
M  END
