
     RDKit          3D

 21 21  0  0  0  0  0  0  0  0999 V2000
   -1.4918   -1.4611    0.5095 C   0  0  0  0  0  0  0  0  0  0  0  0
   -0.8036   -0.1180    0.3794 C   0  0  0  0  0  0  0  0  0  0  0  0
   -1.7347    0.8027   -0.3519 C   0  0  0  0  0  0  0  0  0  0  0  0
   -1.2556    2.0654   -0.5514 O   0  0  0  0  0  0  0  0  0  0  0  0
    0.5064   -0.3363   -0.3032 C   0  0  0  0  0  0  0  0  0  0  0  0
    1.3517    0.8975   -0.5285 C   0  0  0  0  0  0  0  0  0  0  0  0
    2.5361   -0.0155   -0.2042 C   0  0  0  0  0  0  0  0  0  0  0  0
    1.5840   -0.8336    0.5951 C   0  0  0  0  0  0  0  0  0  0  0  0
    1.6560   -1.5772    1.5551 O   0  0  0  0  0  0  0  0  0  0  0  0
   -1.5857   -1.9633   -0.4844 H   0  0  0  0  0  0  0  0  0  0  0  0
   -0.8158   -2.1176    1.1050 H   0  0  0  0  0  0  0  0  0  0  0  0
   -2.4868   -1.3633    0.9535 H   0  0  0  0  0  0  0  0  0  0  0  0
   -0.6231    0.2420    1.4127 H   0  0  0  0  0  0  0  0  0  0  0  0
   -2.6576    0.8880    0.2833 H   0  0  0  0  0  0  0  0  0  0  0  0
   -2.0830    0.3882   -1.3158 H   0  0  0  0  0  0  0  0  0  0  0  0
   -1.4963    2.6815    0.2106 H   0  0  0  0  0  0  0  0  0  0  0  0
    0.4859   -0.9542   -1.2204 H   0  0  0  0  0  0  0  0  0  0  0  0
    1.4239    1.2459   -1.5703 H   0  0  0  0  0  0  0  0  0  0  0  0
    1.2870    1.6662    0.2483 H   0  0  0  0  0  0  0  0  0  0  0  0
    2.8685   -0.6135   -1.0900 H   0  0  0  0  0  0  0  0  0  0  0  0
    3.3345    0.4765    0.3675 H   0  0  0  0  0  0  0  0  0  0  0  0
  1  2  1  0
  2  3  1  0
  3  4  1  0
  2  5  1  0
  5  6  1  0
  6  7  1  0
  7  8  1  0
  8  9  2  0
  8  5  1  0
  1 10  1  0
  1 11  1  0
  1 12  1  0
  2 13  1  0
  3 14  1  0
  3 15  1  0
  4 16  1  0
  5 17  1  0
  6 18  1  0
  6 19  1  0
  7 20  1  0
  7 21  1  0
M  END
