
     RDKit          3D

 25 25  0  0  0  0  0  0  0  0999 V2000
   -2.6398   -1.2687    0.1402 C   0  0  0  0  0  0  0  0  0  0  0  0
   -1.7072   -0.2134   -0.4671 C   0  0  0  0  0  0  0  0  0  0  0  0
   -2.2426    1.1368   -0.0640 C   0  0  0  0  0  0  0  0  0  0  0  0
   -0.2985   -0.4389    0.0433 C   0  0  0  0  0  0  0  0  0  0  0  0
    0.5865    0.6051   -0.5663 C   0  0  0  0  0  0  0  0  0  0  0  0
    2.0234    0.4936   -0.1387 C   0  0  0  0  0  0  0  0  0  0  0  0
    2.8602    1.4549   -0.6949 O   0  0  0  0  0  0  0  0  0  0  0  0
    2.6310   -0.9088   -0.1597 C   0  0  0  0  0  0  0  0  0  0  0  0
    2.4285   -0.1407    1.1175 C   0  0  0  0  0  0  0  0  0  0  0  0
   -2.8172   -0.9419    1.1922 H   0  0  0  0  0  0  0  0  0  0  0  0
   -3.5845   -1.2233   -0.4321 H   0  0  0  0  0  0  0  0  0  0  0  0
   -2.1958   -2.2715    0.0856 H   0  0  0  0  0  0  0  0  0  0  0  0
   -1.7255   -0.2568   -1.5710 H   0  0  0  0  0  0  0  0  0  0  0  0
   -3.3275    1.1410   -0.3518 H   0  0  0  0  0  0  0  0  0  0  0  0
   -1.7823    1.9746   -0.5934 H   0  0  0  0  0  0  0  0  0  0  0  0
   -2.2336    1.2971    1.0338 H   0  0  0  0  0  0  0  0  0  0  0  0
   -0.3313   -0.3276    1.1413 H   0  0  0  0  0  0  0  0  0  0  0  0
   -0.0189   -1.4704   -0.2452 H   0  0  0  0  0  0  0  0  0  0  0  0
    0.1921    1.5979   -0.2441 H   0  0  0  0  0  0  0  0  0  0  0  0
    0.5222    0.5818   -1.6669 H   0  0  0  0  0  0  0  0  0  0  0  0
    2.9283    2.2682   -0.1526 H   0  0  0  0  0  0  0  0  0  0  0  0
    3.6864   -1.0264   -0.4529 H   0  0  0  0  0  0  0  0  0  0  0  0
    1.9940   -1.7615   -0.4078 H   0  0  0  0  0  0  0  0  0  0  0  0
    1.7205   -0.5866    1.8247 H   0  0  0  0  0  0  0  0  0  0  0  0
    3.3315    0.2852    1.6298 H   0  0  0  0  0  0  0  0  0  0  0  0
  1  2  1  0
  2  3  1  0
  2  4  1  0
  4  5  1  0
  5  6  1  0
  6  7  1  0
  6  8  1  0
  8  9  1  0
  9  6  1  0
  1 10  1  0
  1 11  1  0
  1 12  1  0
  2 13  1  0
  3 14  1  0
  3 15  1  0
  3 16  1  0
  4 17  1  0
  4 18  1  0
  5 19  1  0
  5 20  1  0
  7 21  1  0
  8 22  1  0
  8 23  1  0
  9 24  1  0
  9 25  1  0
M  END
