
     RDKit          3D

 19 18  0  0  0  0  0  0  0  0999 V2000
    1.3093    0.9910    0.7225 C   0  0  0  0  0  0  0  0  0  0  0  0
    0.5766    0.2314   -0.3722 C   0  0  0  0  0  0  0  0  0  0  0  0
    1.4171   -0.8797   -0.9307 C   0  0  0  0  0  0  0  0  0  0  0  0
   -0.7298   -0.2288    0.2006 C   0  0  0  0  0  0  0  0  0  0  0  0
   -0.5684   -1.0644    1.3008 O   0  0  0  0  0  0  0  0  0  0  0  0
   -1.4549    1.0134    0.6524 C   0  0  0  0  0  0  0  0  0  0  0  0
   -1.8025    1.1682    1.8154 O   0  0  0  0  0  0  0  0  0  0  0  0
   -1.5787   -0.8648   -0.8341 C   0  0  0  0  0  0  0  0  0  0  0  0
   -1.7914   -0.2153   -1.8573 O   0  0  0  0  0  0  0  0  0  0  0  0
    2.3415    1.1506    0.3612 H   0  0  0  0  0  0  0  0  0  0  0  0
    0.7838    1.9700    0.8683 H   0  0  0  0  0  0  0  0  0  0  0  0
    1.2845    0.4479    1.6720 H   0  0  0  0  0  0  0  0  0  0  0  0
    0.3462    0.9697   -1.1714 H   0  0  0  0  0  0  0  0  0  0  0  0
    1.9323   -0.5335   -1.8561 H   0  0  0  0  0  0  0  0  0  0  0  0
    2.2482   -1.1127   -0.2113 H   0  0  0  0  0  0  0  0  0  0  0  0
    0.8077   -1.7471   -1.1864 H   0  0  0  0  0  0  0  0  0  0  0  0
   -1.4703   -1.1901    1.7046 H   0  0  0  0  0  0  0  0  0  0  0  0
   -1.6361    1.7416   -0.1317 H   0  0  0  0  0  0  0  0  0  0  0  0
   -2.0151   -1.8474   -0.7465 H   0  0  0  0  0  0  0  0  0  0  0  0
  1  2  1  0
  2  3  1  0
  2  4  1  0
  4  5  1  0
  4  6  1  0
  6  7  2  0
  4  8  1  0
  8  9  2  0
  1 10  1  0
  1 11  1  0
  1 12  1  0
  2 13  1  0
  3 14  1  0
  3 15  1  0
  3 16  1  0
  5 17  1  0
  6 18  1  0
  8 19  1  0
M  END
