
     RDKit          3D

 21 22  0  0  0  0  0  0  0  0999 V2000
   -1.7083   -0.9277   -0.6444 C   0  0  0  0  0  0  0  0  0  0  0  0
   -1.2172    0.0137    0.4140 C   0  0  0  0  0  0  0  0  0  0  0  0
   -1.8348    1.3793    0.1723 C   0  0  0  0  0  0  0  0  0  0  0  0
    0.2663    0.1684    0.4312 C   0  0  0  0  0  0  0  0  0  0  0  0
    0.7779    0.6596   -0.7651 O   0  0  0  0  0  0  0  0  0  0  0  0
    2.1474    0.6479   -0.5065 C   0  0  0  0  0  0  0  0  0  0  0  0
    2.3718   -0.7661   -0.0105 C   0  0  0  0  0  0  0  0  0  0  0  0
    2.1962   -1.0211    1.3527 O   0  0  0  0  0  0  0  0  0  0  0  0
    1.0211   -1.1048    0.6130 C   0  0  0  0  0  0  0  0  0  0  0  0
   -1.5625   -0.5183   -1.6553 H   0  0  0  0  0  0  0  0  0  0  0  0
   -1.3095   -1.9451   -0.5167 H   0  0  0  0  0  0  0  0  0  0  0  0
   -2.8261   -1.0051   -0.5082 H   0  0  0  0  0  0  0  0  0  0  0  0
   -1.5314   -0.3876    1.3944 H   0  0  0  0  0  0  0  0  0  0  0  0
   -2.3781    1.7217    1.0908 H   0  0  0  0  0  0  0  0  0  0  0  0
   -2.4697    1.4079   -0.7248 H   0  0  0  0  0  0  0  0  0  0  0  0
   -1.0439    2.1646    0.0109 H   0  0  0  0  0  0  0  0  0  0  0  0
    0.5242    0.8489    1.2754 H   0  0  0  0  0  0  0  0  0  0  0  0
    2.7518    0.8359   -1.4105 H   0  0  0  0  0  0  0  0  0  0  0  0
    2.3310    1.4052    0.2854 H   0  0  0  0  0  0  0  0  0  0  0  0
    2.8737   -1.5033   -0.6430 H   0  0  0  0  0  0  0  0  0  0  0  0
    0.6202   -2.0740    0.3135 H   0  0  0  0  0  0  0  0  0  0  0  0
  1  2  1  0
  2  3  1  0
  2  4  1  0
  4  5  1  0
  5  6  1  0
  6  7  1  0
  7  8  1  0
  8  9  1  0
  9  4  1  0
  9  7  1  0
  1 10  1  0
  1 11  1  0
  1 12  1  0
  2 13  1  0
  3 14  1  0
  3 15  1  0
  3 16  1  0
  4 17  1  0
  6 18  1  0
  6 19  1  0
  7 20  1  0
  9 21  1  0
M  END
