
     RDKit          3D

 19 20  0  0  0  0  0  0  0  0999 V2000
    1.7656   -1.2411   -0.0651 C   0  0  0  0  0  0  0  0  0  0  0  0
    0.9697   -0.0592    0.4308 C   0  0  0  0  0  0  0  0  0  0  0  0
    1.3812    1.2101   -0.1950 C   0  0  0  0  0  0  0  0  0  0  0  0
    1.9075    1.1755   -1.2874 O   0  0  0  0  0  0  0  0  0  0  0  0
   -0.4726   -0.3671    0.2609 C   0  0  0  0  0  0  0  0  0  0  0  0
   -1.4204    0.7584    0.7285 C   0  0  0  0  0  0  0  0  0  0  0  0
   -2.3308   -0.0229   -0.2147 C   0  0  0  0  0  0  0  0  0  0  0  0
   -2.2702   -0.0759   -1.5255 O   0  0  0  0  0  0  0  0  0  0  0  0
   -1.0328    0.0570   -1.0803 C   0  0  0  0  0  0  0  0  0  0  0  0
    2.7629   -1.3060    0.4262 H   0  0  0  0  0  0  0  0  0  0  0  0
    1.8589   -1.2457   -1.1783 H   0  0  0  0  0  0  0  0  0  0  0  0
    1.2170   -2.1558    0.2420 H   0  0  0  0  0  0  0  0  0  0  0  0
    1.1691   -0.0044    1.5419 H   0  0  0  0  0  0  0  0  0  0  0  0
    1.2375    2.1710    0.2709 H   0  0  0  0  0  0  0  0  0  0  0  0
   -0.7459   -1.3545    0.6209 H   0  0  0  0  0  0  0  0  0  0  0  0
   -1.1432    1.7162    0.3001 H   0  0  0  0  0  0  0  0  0  0  0  0
   -1.7365    0.6904    1.7583 H   0  0  0  0  0  0  0  0  0  0  0  0
   -2.4667   -1.0550    0.2485 H   0  0  0  0  0  0  0  0  0  0  0  0
   -0.6501    1.1090   -1.2828 H   0  0  0  0  0  0  0  0  0  0  0  0
  1  2  1  0
  2  3  1  0
  3  4  2  0
  2  5  1  0
  5  6  1  0
  6  7  1  0
  7  8  1  0
  8  9  1  0
  9  5  1  0
  9  7  1  0
  1 10  1  0
  1 11  1  0
  1 12  1  0
  2 13  1  0
  3 14  1  0
  5 15  1  0
  6 16  1  0
  6 17  1  0
  7 18  1  0
  9 19  1  0
M  END
