
     RDKit          3D

 19 21  0  0  0  0  0  0  0  0999 V2000
   -1.5738   -1.0704    1.1393 C   0  0  0  0  0  0  0  0  0  0  0  0
   -0.6382   -0.5903    0.0600 C   0  0  0  0  0  0  0  0  0  0  0  0
   -1.3564    0.3648   -0.8841 C   0  0  0  0  0  0  0  0  0  0  0  0
    0.6018    0.0364    0.5764 C   0  0  0  0  0  0  0  0  0  0  0  0
    1.5021   -0.6089    1.3649 O   0  0  0  0  0  0  0  0  0  0  0  0
    1.9227   -0.5054    0.0666 C   0  0  0  0  0  0  0  0  0  0  0  0
    2.1484    0.8504   -0.5594 C   0  0  0  0  0  0  0  0  0  0  0  0
    2.2586    1.8841    0.3468 O   0  0  0  0  0  0  0  0  0  0  0  0
    1.0026    1.3750   -0.0226 C   0  0  0  0  0  0  0  0  0  0  0  0
   -1.5840   -2.1762    1.2084 H   0  0  0  0  0  0  0  0  0  0  0  0
   -2.5966   -0.7204    0.8868 H   0  0  0  0  0  0  0  0  0  0  0  0
   -1.3402   -0.5941    2.1341 H   0  0  0  0  0  0  0  0  0  0  0  0
   -0.3660   -1.4727   -0.5552 H   0  0  0  0  0  0  0  0  0  0  0  0
   -2.3360   -0.1336   -1.1405 H   0  0  0  0  0  0  0  0  0  0  0  0
   -0.8067    0.5093   -1.8175 H   0  0  0  0  0  0  0  0  0  0  0  0
   -1.6477    1.3091   -0.3747 H   0  0  0  0  0  0  0  0  0  0  0  0
    1.9474   -1.4157   -0.5344 H   0  0  0  0  0  0  0  0  0  0  0  0
    2.6183    0.8804   -1.5358 H   0  0  0  0  0  0  0  0  0  0  0  0
    0.2436    2.0783   -0.3593 H   0  0  0  0  0  0  0  0  0  0  0  0
  1  2  1  0
  2  3  1  0
  2  4  1  0
  4  5  1  0
  5  6  1  0
  6  7  1  0
  7  8  1  0
  8  9  1  0
  6  4  1  0
  9  7  1  0
  9  4  1  0
  1 10  1  0
  1 11  1  0
  1 12  1  0
  2 13  1  0
  3 14  1  0
  3 15  1  0
  3 16  1  0
  6 17  1  0
  7 18  1  0
  9 19  1  0
M  END
