
     RDKit          3D

 23 23  0  0  0  0  0  0  0  0999 V2000
   -1.7188   -1.1697   -0.7886 C   0  0  0  0  0  0  0  0  0  0  0  0
   -1.1165   -0.4000    0.3801 C   0  0  0  0  0  0  0  0  0  0  0  0
   -2.0770    0.6106    0.9202 C   0  0  0  0  0  0  0  0  0  0  0  0
    0.2179    0.1377   -0.0054 C   0  0  0  0  0  0  0  0  0  0  0  0
    0.2220    1.0747   -1.1681 C   0  0  0  0  0  0  0  0  0  0  0  0
    0.8480    0.7454    1.0543 O   0  0  0  0  0  0  0  0  0  0  0  0
    2.1410    0.2741    1.1264 C   0  0  0  0  0  0  0  0  0  0  0  0
    2.3171   -0.6222   -0.0801 C   0  0  0  0  0  0  0  0  0  0  0  0
    1.0072   -0.9744   -0.3668 O   0  0  0  0  0  0  0  0  0  0  0  0
   -0.8910   -1.5022   -1.4762 H   0  0  0  0  0  0  0  0  0  0  0  0
   -2.2113   -2.1125   -0.4459 H   0  0  0  0  0  0  0  0  0  0  0  0
   -2.4026   -0.5471   -1.3891 H   0  0  0  0  0  0  0  0  0  0  0  0
   -0.9422   -1.1485    1.1845 H   0  0  0  0  0  0  0  0  0  0  0  0
   -2.1322    1.5444    0.3421 H   0  0  0  0  0  0  0  0  0  0  0  0
   -1.8328    0.8449    1.9791 H   0  0  0  0  0  0  0  0  0  0  0  0
   -3.1002    0.1522    0.8660 H   0  0  0  0  0  0  0  0  0  0  0  0
   -0.0103    0.5723   -2.1371 H   0  0  0  0  0  0  0  0  0  0  0  0
    1.2599    1.5044   -1.2196 H   0  0  0  0  0  0  0  0  0  0  0  0
   -0.4474    1.9369   -1.0696 H   0  0  0  0  0  0  0  0  0  0  0  0
    2.2892   -0.3960    2.0231 H   0  0  0  0  0  0  0  0  0  0  0  0
    2.9136    1.0481    1.0722 H   0  0  0  0  0  0  0  0  0  0  0  0
    2.9537   -1.4885    0.1547 H   0  0  0  0  0  0  0  0  0  0  0  0
    2.7126   -0.0845   -0.9563 H   0  0  0  0  0  0  0  0  0  0  0  0
  1  2  1  0
  2  3  1  0
  2  4  1  0
  4  5  1  0
  4  6  1  0
  6  7  1  0
  7  8  1  0
  8  9  1  0
  9  4  1  0
  1 10  1  0
  1 11  1  0
  1 12  1  0
  2 13  1  0
  3 14  1  0
  3 15  1  0
  3 16  1  0
  5 17  1  0
  5 18  1  0
  5 19  1  0
  7 20  1  0
  7 21  1  0
  8 22  1  0
  8 23  1  0
M  END
