
     RDKit          3D

 23 23  0  0  0  0  0  0  0  0999 V2000
   -2.9824   -0.0963   -0.8240 C   0  0  0  0  0  0  0  0  0  0  0  0
   -1.8153   -0.6925   -0.0188 C   0  0  0  0  0  0  0  0  0  0  0  0
   -2.0237   -0.2798    1.3802 C   0  0  0  0  0  0  0  0  0  0  0  0
   -2.0799    0.8923    1.6465 O   0  0  0  0  0  0  0  0  0  0  0  0
   -0.5774   -0.0739   -0.5948 C   0  0  0  0  0  0  0  0  0  0  0  0
    0.6974   -0.5322    0.0643 C   0  0  0  0  0  0  0  0  0  0  0  0
    1.8346    0.2037   -0.6564 C   0  0  0  0  0  0  0  0  0  0  0  0
    3.2428   -0.0441   -0.2241 C   0  0  0  0  0  0  0  0  0  0  0  0
    2.5695    1.2680    0.1173 C   0  0  0  0  0  0  0  0  0  0  0  0
   -3.2162    0.8944   -0.3827 H   0  0  0  0  0  0  0  0  0  0  0  0
   -2.6298    0.1225   -1.8706 H   0  0  0  0  0  0  0  0  0  0  0  0
   -3.8308   -0.7751   -0.8810 H   0  0  0  0  0  0  0  0  0  0  0  0
   -1.7994   -1.7963   -0.1404 H   0  0  0  0  0  0  0  0  0  0  0  0
   -2.1251   -1.0030    2.1581 H   0  0  0  0  0  0  0  0  0  0  0  0
   -0.5174   -0.3385   -1.6582 H   0  0  0  0  0  0  0  0  0  0  0  0
   -0.6268    1.0245   -0.4959 H   0  0  0  0  0  0  0  0  0  0  0  0
    0.7005   -0.3257    1.1365 H   0  0  0  0  0  0  0  0  0  0  0  0
    0.8551   -1.6329   -0.0534 H   0  0  0  0  0  0  0  0  0  0  0  0
    1.6948    0.4182   -1.7368 H   0  0  0  0  0  0  0  0  0  0  0  0
    3.4055   -0.7934    0.5697 H   0  0  0  0  0  0  0  0  0  0  0  0
    4.0569   -0.0242   -0.9871 H   0  0  0  0  0  0  0  0  0  0  0  0
    2.8581    2.1890   -0.4129 H   0  0  0  0  0  0  0  0  0  0  0  0
    2.3089    1.3953    1.1937 H   0  0  0  0  0  0  0  0  0  0  0  0
  1  2  1  0
  2  3  1  0
  3  4  2  0
  2  5  1  0
  5  6  1  0
  6  7  1  0
  7  8  1  0
  8  9  1  0
  9  7  1  0
  1 10  1  0
  1 11  1  0
  1 12  1  0
  2 13  1  0
  3 14  1  0
  5 15  1  0
  5 16  1  0
  6 17  1  0
  6 18  1  0
  7 19  1  0
  8 20  1  0
  8 21  1  0
  9 22  1  0
  9 23  1  0
M  END
