
     RDKit          3D

 23 22  0  0  0  0  0  0  0  0999 V2000
   -2.4709   -0.5262    1.5196 C   0  0  0  0  0  0  0  0  0  0  0  0
   -1.4072    0.1604    0.6847 C   0  0  0  0  0  0  0  0  0  0  0  0
   -2.1259    0.7312   -0.5184 C   0  0  0  0  0  0  0  0  0  0  0  0
   -0.3266   -0.7986    0.2497 C   0  0  0  0  0  0  0  0  0  0  0  0
    0.6656   -0.0431   -0.5576 C   0  0  0  0  0  0  0  0  0  0  0  0
    0.4149    0.1405   -1.7372 O   0  0  0  0  0  0  0  0  0  0  0  0
    1.9301    0.4900    0.0017 C   0  0  0  0  0  0  0  0  0  0  0  0
    3.0841   -0.1893   -0.7153 C   0  0  0  0  0  0  0  0  0  0  0  0
    2.0816    0.2172    1.3476 O   0  0  0  0  0  0  0  0  0  0  0  0
   -2.0376   -1.1174    2.3443 H   0  0  0  0  0  0  0  0  0  0  0  0
   -3.1015   -1.1172    0.8369 H   0  0  0  0  0  0  0  0  0  0  0  0
   -3.1338    0.3074    1.8953 H   0  0  0  0  0  0  0  0  0  0  0  0
   -0.9931    0.9926    1.2910 H   0  0  0  0  0  0  0  0  0  0  0  0
   -2.4921   -0.1346   -1.1101 H   0  0  0  0  0  0  0  0  0  0  0  0
   -1.4808    1.3667   -1.1488 H   0  0  0  0  0  0  0  0  0  0  0  0
   -2.9846    1.3246   -0.1027 H   0  0  0  0  0  0  0  0  0  0  0  0
    0.1719   -1.2799    1.0895 H   0  0  0  0  0  0  0  0  0  0  0  0
   -0.8129   -1.6080   -0.3472 H   0  0  0  0  0  0  0  0  0  0  0  0
    2.0417    1.5853   -0.1277 H   0  0  0  0  0  0  0  0  0  0  0  0
    4.0105   -0.1489   -0.1134 H   0  0  0  0  0  0  0  0  0  0  0  0
    2.8093   -1.2542   -0.8744 H   0  0  0  0  0  0  0  0  0  0  0  0
    3.1864    0.3339   -1.6951 H   0  0  0  0  0  0  0  0  0  0  0  0
    2.9709    0.5675    1.6142 H   0  0  0  0  0  0  0  0  0  0  0  0
  1  2  1  0
  2  3  1  0
  2  4  1  0
  4  5  1  0
  5  6  2  0
  5  7  1  0
  7  8  1  0
  7  9  1  0
  1 10  1  0
  1 11  1  0
  1 12  1  0
  2 13  1  0
  3 14  1  0
  3 15  1  0
  3 16  1  0
  4 17  1  0
  4 18  1  0
  7 19  1  0
  8 20  1  0
  8 21  1  0
  8 22  1  0
  9 23  1  0
M  END
