
     RDKit          3D

 21 21  0  0  0  0  0  0  0  0999 V2000
   -1.6736    1.0532    0.4384 C   0  0  0  0  0  0  0  0  0  0  0  0
   -1.3623   -0.3873    0.5602 C   0  0  0  0  0  0  0  0  0  0  0  0
   -2.3505   -1.1577   -0.2800 C   0  0  0  0  0  0  0  0  0  0  0  0
   -3.0326   -2.0415    0.1604 O   0  0  0  0  0  0  0  0  0  0  0  0
   -0.0007   -0.8188    0.1900 C   0  0  0  0  0  0  0  0  0  0  0  0
    0.2537   -0.4726   -1.2417 O   0  0  0  0  0  0  0  0  0  0  0  0
    1.1392   -0.0691   -0.1217 C   0  0  0  0  0  0  0  0  0  0  0  0
    1.3232    1.4055   -0.0492 C   0  0  0  0  0  0  0  0  0  0  0  0
    2.4656   -0.8240   -0.3114 C   0  0  0  0  0  0  0  0  0  0  0  0
   -1.2348    1.5663   -0.4321 H   0  0  0  0  0  0  0  0  0  0  0  0
   -1.5134    1.6257    1.3991 H   0  0  0  0  0  0  0  0  0  0  0  0
   -2.7916    1.1389    0.2809 H   0  0  0  0  0  0  0  0  0  0  0  0
   -1.5647   -0.6965    1.6195 H   0  0  0  0  0  0  0  0  0  0  0  0
   -2.4070   -0.8587   -1.3218 H   0  0  0  0  0  0  0  0  0  0  0  0
    0.1040   -1.9464    0.2292 H   0  0  0  0  0  0  0  0  0  0  0  0
    0.7939    1.8885    0.8076 H   0  0  0  0  0  0  0  0  0  0  0  0
    2.4037    1.7054    0.1062 H   0  0  0  0  0  0  0  0  0  0  0  0
    1.0620    1.9127   -1.0257 H   0  0  0  0  0  0  0  0  0  0  0  0
    3.1107   -0.2617   -1.0289 H   0  0  0  0  0  0  0  0  0  0  0  0
    3.0014   -0.8964    0.6643 H   0  0  0  0  0  0  0  0  0  0  0  0
    2.2741   -1.8655   -0.6432 H   0  0  0  0  0  0  0  0  0  0  0  0
  1  2  1  0
  2  3  1  0
  3  4  2  0
  2  5  1  0
  5  6  1  0
  6  7  1  0
  7  8  1  0
  7  9  1  0
  7  5  1  0
  1 10  1  0
  1 11  1  0
  1 12  1  0
  2 13  1  0
  3 14  1  0
  5 15  1  0
  8 16  1  0
  8 17  1  0
  8 18  1  0
  9 19  1  0
  9 20  1  0
  9 21  1  0
M  END
