
     RDKit          3D

 23 23  0  0  0  0  0  0  0  0999 V2000
   -0.9521   -0.5548    1.4426 C   0  0  0  0  0  0  0  0  0  0  0  0
   -1.0602   -0.3429   -0.0154 C   0  0  0  0  0  0  0  0  0  0  0  0
   -1.8708    0.9278   -0.3167 C   0  0  0  0  0  0  0  0  0  0  0  0
   -1.9683    1.1207   -1.6921 O   0  0  0  0  0  0  0  0  0  0  0  0
    0.1570   -0.3001   -0.8153 C   0  0  0  0  0  0  0  0  0  0  0  0
    1.0703   -1.4856   -0.8441 C   0  0  0  0  0  0  0  0  0  0  0  0
    2.1124   -0.5774   -1.1513 O   0  0  0  0  0  0  0  0  0  0  0  0
    1.3757    0.4052   -0.4406 C   0  0  0  0  0  0  0  0  0  0  0  0
    1.8599    0.4582    0.9551 C   0  0  0  0  0  0  0  0  0  0  0  0
   -0.0591   -1.0621    1.8026 H   0  0  0  0  0  0  0  0  0  0  0  0
   -1.1156    0.4446    1.9455 H   0  0  0  0  0  0  0  0  0  0  0  0
   -1.8186   -1.1701    1.8343 H   0  0  0  0  0  0  0  0  0  0  0  0
   -1.7157   -1.1728   -0.4212 H   0  0  0  0  0  0  0  0  0  0  0  0
   -2.8821    0.8753    0.0892 H   0  0  0  0  0  0  0  0  0  0  0  0
   -1.3450    1.8011    0.1082 H   0  0  0  0  0  0  0  0  0  0  0  0
   -1.5151    1.9201   -2.0099 H   0  0  0  0  0  0  0  0  0  0  0  0
   -0.1148   -0.0445   -1.8866 H   0  0  0  0  0  0  0  0  0  0  0  0
    0.9188   -2.1415   -1.7255 H   0  0  0  0  0  0  0  0  0  0  0  0
    1.2309   -2.0247    0.0937 H   0  0  0  0  0  0  0  0  0  0  0  0
    1.4498    1.4073   -0.9196 H   0  0  0  0  0  0  0  0  0  0  0  0
    1.2049    0.9712    1.6761 H   0  0  0  0  0  0  0  0  0  0  0  0
    2.2315   -0.5371    1.3443 H   0  0  0  0  0  0  0  0  0  0  0  0
    2.8061    1.0822    0.9468 H   0  0  0  0  0  0  0  0  0  0  0  0
  1  2  1  0
  2  3  1  0
  3  4  1  0
  2  5  1  0
  5  6  1  0
  6  7  1  0
  7  8  1  0
  8  9  1  0
  8  5  1  0
  1 10  1  0
  1 11  1  0
  1 12  1  0
  2 13  1  0
  3 14  1  0
  3 15  1  0
  4 16  1  0
  5 17  1  0
  6 18  1  0
  6 19  1  0
  8 20  1  0
  9 21  1  0
  9 22  1  0
  9 23  1  0
M  END
