
     RDKit          2D

 23 25  0  0  0  0  0  0  0  0999 V2000
    1.3776   -3.8862    0.0000 C   0  0  0  0  0  0  0  0  0  0  0  0
   -0.0712   -3.4979    0.0000 C   0  0  0  0  0  0  0  0  0  0  0  0
   -1.5201   -3.1097    0.0000 C   0  0  0  0  0  0  0  0  0  0  0  0
    0.3170   -2.0490    0.0000 C   0  0  0  0  0  0  0  0  0  0  0  0
    1.6160   -1.2990    0.0000 C   0  0  0  0  0  0  0  0  0  0  0  0
    0.8660    0.0000    0.0000 C   0  0  0  0  0  0  0  0  0  0  0  0
   -0.4330    0.7500    0.0000 C   0  0  0  0  0  0  0  0  0  0  0  0
   -0.9821   -1.2990    0.0000 C   0  0  0  0  0  0  0  0  0  0  0  0
   -0.4330   -0.7500    0.0000 C   0  0  0  0  0  0  0  0  0  0  0  0
    2.8265   -4.2744    0.0000 H   0  0  0  0  0  0  0  0  0  0  0  0
    0.9894   -5.3350    0.0000 H   0  0  0  0  0  0  0  0  0  0  0  0
    1.7463   -2.9737    0.0000 H   0  0  0  0  0  0  0  0  0  0  0  0
   -0.4595   -4.9468    0.0000 H   0  0  0  0  0  0  0  0  0  0  0  0
   -2.9690   -2.7215    0.0000 H   0  0  0  0  0  0  0  0  0  0  0  0
   -1.5063   -2.3127    0.0000 H   0  0  0  0  0  0  0  0  0  0  0  0
   -1.9084   -4.5586    0.0000 H   0  0  0  0  0  0  0  0  0  0  0  0
    2.9151   -0.5490    0.0000 H   0  0  0  0  0  0  0  0  0  0  0  0
    2.2083   -2.0850    0.0000 H   0  0  0  0  0  0  0  0  0  0  0  0
    1.9267    1.0607    0.0000 H   0  0  0  0  0  0  0  0  0  0  0  0
   -1.1830    2.0490    0.0000 H   0  0  0  0  0  0  0  0  0  0  0  0
   -1.7417   -2.0856    0.0000 H   0  0  0  0  0  0  0  0  0  0  0  0
   -2.3628   -0.7130    0.0000 H   0  0  0  0  0  0  0  0  0  0  0  0
   -1.9184   -0.9587    0.0000 H   0  0  0  0  0  0  0  0  0  0  0  0
  1  2  1  0
  2  3  1  0
  2  4  1  0
  4  5  1  0
  5  6  1  0
  6  7  1  0
  7  8  1  0
  7  9  1  0
  8  4  1  0
  9  4  1  0
  9  6  1  0
  1 10  1  0
  1 11  1  0
  1 12  1  0
  2 13  1  0
  3 14  1  0
  3 15  1  0
  3 16  1  0
  5 17  1  0
  5 18  1  0
  6 19  1  0
  7 20  1  0
  8 21  1  0
  8 22  1  0
  9 23  1  0
M  END
