
     RDKit          3D

 25 25  0  0  0  0  0  0  0  0999 V2000
   -2.0829   -1.1778    0.4731 C   0  0  0  0  0  0  0  0  0  0  0  0
   -1.5146    0.2048    0.3107 C   0  0  0  0  0  0  0  0  0  0  0  0
   -2.5418    1.0835   -0.3543 C   0  0  0  0  0  0  0  0  0  0  0  0
   -0.2561    0.2185   -0.5205 C   0  0  0  0  0  0  0  0  0  0  0  0
    0.1772    1.5468   -0.6020 O   0  0  0  0  0  0  0  0  0  0  0  0
    0.8572   -0.5692    0.1245 C   0  0  0  0  0  0  0  0  0  0  0  0
    2.0942   -0.5099   -0.7717 C   0  0  0  0  0  0  0  0  0  0  0  0
    2.9168   -0.4093    0.4993 C   0  0  0  0  0  0  0  0  0  0  0  0
    1.6795    0.2405    1.1355 C   0  0  0  0  0  0  0  0  0  0  0  0
   -3.1051   -1.0594    0.9113 H   0  0  0  0  0  0  0  0  0  0  0  0
   -2.2156   -1.6979   -0.5086 H   0  0  0  0  0  0  0  0  0  0  0  0
   -1.5000   -1.8053    1.1907 H   0  0  0  0  0  0  0  0  0  0  0  0
   -1.3322    0.6054    1.3278 H   0  0  0  0  0  0  0  0  0  0  0  0
   -3.2716    1.4670    0.4053 H   0  0  0  0  0  0  0  0  0  0  0  0
   -3.0815    0.5123   -1.1422 H   0  0  0  0  0  0  0  0  0  0  0  0
   -2.0652    2.0095   -0.7811 H   0  0  0  0  0  0  0  0  0  0  0  0
   -0.4852   -0.1441   -1.5322 H   0  0  0  0  0  0  0  0  0  0  0  0
    0.5553    1.7611   -1.4898 H   0  0  0  0  0  0  0  0  0  0  0  0
    0.6090   -1.5614    0.4980 H   0  0  0  0  0  0  0  0  0  0  0  0
    2.2682   -1.3886   -1.3893 H   0  0  0  0  0  0  0  0  0  0  0  0
    2.1339    0.4796   -1.2906 H   0  0  0  0  0  0  0  0  0  0  0  0
    3.1935   -1.3757    0.9589 H   0  0  0  0  0  0  0  0  0  0  0  0
    3.7660    0.2790    0.3813 H   0  0  0  0  0  0  0  0  0  0  0  0
    1.6944    1.3163    0.8808 H   0  0  0  0  0  0  0  0  0  0  0  0
    1.5067   -0.0257    2.1790 H   0  0  0  0  0  0  0  0  0  0  0  0
  1  2  1  0
  2  3  1  0
  2  4  1  0
  4  5  1  0
  4  6  1  0
  6  7  1  0
  7  8  1  0
  8  9  1  0
  9  6  1  0
  1 10  1  0
  1 11  1  0
  1 12  1  0
  2 13  1  0
  3 14  1  0
  3 15  1  0
  3 16  1  0
  4 17  1  0
  5 18  1  0
  6 19  1  0
  7 20  1  0
  7 21  1  0
  8 22  1  0
  8 23  1  0
  9 24  1  0
  9 25  1  0
M  END
