
     RDKit          3D

 21 20  0  0  0  0  0  0  0  0999 V2000
   -0.7851    0.9630    1.4525 C   0  0  0  0  0  0  0  0  0  0  0  0
   -0.5455    0.7409   -0.0103 C   0  0  0  0  0  0  0  0  0  0  0  0
    0.9165    0.5804   -0.1933 C   0  0  0  0  0  0  0  0  0  0  0  0
    2.1079    0.4425   -0.3225 C   0  0  0  0  0  0  0  0  0  0  0  0
    3.5617    0.2864   -0.4580 C   0  0  0  0  0  0  0  0  0  0  0  0
    4.1042   -0.3860    0.6413 O   0  0  0  0  0  0  0  0  0  0  0  0
   -1.1737   -0.5223   -0.5290 C   0  0  0  0  0  0  0  0  0  0  0  0
   -2.6668   -0.5586   -0.3594 C   0  0  0  0  0  0  0  0  0  0  0  0
   -3.0983   -1.7894   -0.8874 O   0  0  0  0  0  0  0  0  0  0  0  0
   -1.6132    1.6923    1.6318 H   0  0  0  0  0  0  0  0  0  0  0  0
    0.1184    1.4287    1.9017 H   0  0  0  0  0  0  0  0  0  0  0  0
   -0.9468    0.0171    2.0176 H   0  0  0  0  0  0  0  0  0  0  0  0
   -0.9047    1.6081   -0.5687 H   0  0  0  0  0  0  0  0  0  0  0  0
    4.0222    1.2931   -0.5112 H   0  0  0  0  0  0  0  0  0  0  0  0
    3.7768   -0.3256   -1.3724 H   0  0  0  0  0  0  0  0  0  0  0  0
    3.4516   -1.0050    1.0607 H   0  0  0  0  0  0  0  0  0  0  0  0
   -0.9755   -0.5516   -1.6286 H   0  0  0  0  0  0  0  0  0  0  0  0
   -0.7433   -1.4246   -0.1037 H   0  0  0  0  0  0  0  0  0  0  0  0
   -2.9777   -0.5597    0.7052 H   0  0  0  0  0  0  0  0  0  0  0  0
   -3.1823    0.2246   -0.9574 H   0  0  0  0  0  0  0  0  0  0  0  0
   -2.4466   -2.1544   -1.5090 H   0  0  0  0  0  0  0  0  0  0  0  0
  1  2  1  0
  2  3  1  0
  3  4  3  0
  4  5  1  0
  5  6  1  0
  2  7  1  0
  7  8  1  0
  8  9  1  0
  1 10  1  0
  1 11  1  0
  1 12  1  0
  2 13  1  0
  5 14  1  0
  5 15  1  0
  6 16  1  0
  7 17  1  0
  7 18  1  0
  8 19  1  0
  8 20  1  0
  9 21  1  0
M  END
