
     RDKit          3D

 23 24  0  0  0  0  0  0  0  0999 V2000
    1.5583   -1.2010   -0.8072 C   0  0  0  0  0  0  0  0  0  0  0  0
    1.2644   -0.2380    0.2695 C   0  0  0  0  0  0  0  0  0  0  0  0
    2.1763    0.9825    0.0541 C   0  0  0  0  0  0  0  0  0  0  0  0
   -0.0774    0.2441    0.4888 C   0  0  0  0  0  0  0  0  0  0  0  0
   -1.2127   -0.6845    0.8236 C   0  0  0  0  0  0  0  0  0  0  0  0
   -2.2687    0.3333    1.1532 C   0  0  0  0  0  0  0  0  0  0  0  0
   -2.1201    1.2323    0.1742 C   0  0  0  0  0  0  0  0  0  0  0  0
   -0.9809    0.6301   -0.6302 C   0  0  0  0  0  0  0  0  0  0  0  0
   -1.4657   -0.7955   -0.6632 C   0  0  0  0  0  0  0  0  0  0  0  0
    2.6858   -1.3103   -0.8530 H   0  0  0  0  0  0  0  0  0  0  0  0
    1.2732   -0.8942   -1.8163 H   0  0  0  0  0  0  0  0  0  0  0  0
    1.2185   -2.2242   -0.5163 H   0  0  0  0  0  0  0  0  0  0  0  0
    1.6534   -0.6874    1.2320 H   0  0  0  0  0  0  0  0  0  0  0  0
    1.7586    1.8680    0.5654 H   0  0  0  0  0  0  0  0  0  0  0  0
    2.2852    1.1903   -1.0378 H   0  0  0  0  0  0  0  0  0  0  0  0
    3.1832    0.8019    0.4968 H   0  0  0  0  0  0  0  0  0  0  0  0
   -0.0702    1.0750    1.2577 H   0  0  0  0  0  0  0  0  0  0  0  0
   -1.0853   -1.5298    1.4215 H   0  0  0  0  0  0  0  0  0  0  0  0
   -2.9436    0.2839    1.9902 H   0  0  0  0  0  0  0  0  0  0  0  0
   -2.6447    2.1446   -0.0231 H   0  0  0  0  0  0  0  0  0  0  0  0
   -0.6556    1.1231   -1.4912 H   0  0  0  0  0  0  0  0  0  0  0  0
   -2.5779   -0.8084   -0.8522 H   0  0  0  0  0  0  0  0  0  0  0  0
   -0.9543   -1.5356   -1.2365 H   0  0  0  0  0  0  0  0  0  0  0  0
  1  2  1  0
  2  3  1  0
  2  4  1  0
  4  5  1  0
  5  6  1  0
  6  7  2  0
  7  8  1  0
  8  9  1  0
  8  4  1  0
  9  5  1  0
  1 10  1  0
  1 11  1  0
  1 12  1  0
  2 13  1  0
  3 14  1  0
  3 15  1  0
  3 16  1  0
  4 17  1  0
  5 18  1  0
  6 19  1  0
  7 20  1  0
  8 21  1  0
  9 22  1  0
  9 23  1  0
M  END
