
     RDKit          3D

 21 21  0  0  0  0  0  0  0  0999 V2000
   -0.1185    1.1481    1.2074 C   0  0  0  0  0  0  0  0  0  0  0  0
   -0.5867    0.3933    0.0184 C   0  0  0  0  0  0  0  0  0  0  0  0
   -2.0691    0.0894    0.1708 C   0  0  0  0  0  0  0  0  0  0  0  0
   -2.4979   -0.6186   -0.9496 O   0  0  0  0  0  0  0  0  0  0  0  0
    0.1345   -0.8868   -0.2545 C   0  0  0  0  0  0  0  0  0  0  0  0
    0.0392   -1.7972    0.7974 O   0  0  0  0  0  0  0  0  0  0  0  0
    1.5635   -0.7265   -0.6503 C   0  0  0  0  0  0  0  0  0  0  0  0
    2.3896    0.4188   -0.4554 C   0  0  0  0  0  0  0  0  0  0  0  0
    1.7379    0.1924   -1.7291 O   0  0  0  0  0  0  0  0  0  0  0  0
    0.7263    0.6723    1.7479 H   0  0  0  0  0  0  0  0  0  0  0  0
    0.0872    2.2116    0.9315 H   0  0  0  0  0  0  0  0  0  0  0  0
   -0.9378    1.2201    1.9752 H   0  0  0  0  0  0  0  0  0  0  0  0
   -0.4753    1.0210   -0.9106 H   0  0  0  0  0  0  0  0  0  0  0  0
   -2.6524    1.0432    0.2820 H   0  0  0  0  0  0  0  0  0  0  0  0
   -2.2632   -0.4991    1.0735 H   0  0  0  0  0  0  0  0  0  0  0  0
   -3.1471   -0.0435   -1.4461 H   0  0  0  0  0  0  0  0  0  0  0  0
   -0.4298   -1.3807   -1.1037 H   0  0  0  0  0  0  0  0  0  0  0  0
    0.8176   -2.4236    0.6838 H   0  0  0  0  0  0  0  0  0  0  0  0
    2.0759   -1.7104   -0.8468 H   0  0  0  0  0  0  0  0  0  0  0  0
    2.1040    1.3964   -0.0721 H   0  0  0  0  0  0  0  0  0  0  0  0
    3.5019    0.2799   -0.4695 H   0  0  0  0  0  0  0  0  0  0  0  0
  1  2  1  0
  2  3  1  0
  3  4  1  0
  2  5  1  0
  5  6  1  0
  5  7  1  0
  7  8  1  0
  8  9  1  0
  9  7  1  0
  1 10  1  0
  1 11  1  0
  1 12  1  0
  2 13  1  0
  3 14  1  0
  3 15  1  0
  4 16  1  0
  5 17  1  0
  6 18  1  0
  7 19  1  0
  8 20  1  0
  8 21  1  0
M  END
