
     RDKit          3D

 24 24  0  0  0  0  0  0  0  0999 V2000
   -1.9285   -0.9633   -0.4636 C   0  0  0  0  0  0  0  0  0  0  0  0
   -1.0000   -0.2613    0.4548 C   0  0  0  0  0  0  0  0  0  0  0  0
   -1.6806    0.9589    1.0196 C   0  0  0  0  0  0  0  0  0  0  0  0
    0.3509    0.0371   -0.1207 C   0  0  0  0  0  0  0  0  0  0  0  0
    0.2571    0.9174   -1.3453 C   0  0  0  0  0  0  0  0  0  0  0  0
    1.2507   -1.1332   -0.3705 C   0  0  0  0  0  0  0  0  0  0  0  0
    2.4056   -0.2691    0.1635 C   0  0  0  0  0  0  0  0  0  0  0  0
    1.3560    0.5235    0.8998 C   0  0  0  0  0  0  0  0  0  0  0  0
   -1.4714   -1.9090   -0.8389 H   0  0  0  0  0  0  0  0  0  0  0  0
   -2.3244   -0.3658   -1.2859 H   0  0  0  0  0  0  0  0  0  0  0  0
   -2.8112   -1.2936    0.1435 H   0  0  0  0  0  0  0  0  0  0  0  0
   -0.8228   -0.9468    1.3362 H   0  0  0  0  0  0  0  0  0  0  0  0
   -2.5338    0.6014    1.6371 H   0  0  0  0  0  0  0  0  0  0  0  0
   -0.9543    1.5186    1.6501 H   0  0  0  0  0  0  0  0  0  0  0  0
   -2.0797    1.6365    0.2469 H   0  0  0  0  0  0  0  0  0  0  0  0
   -0.1354    1.9286   -1.1191 H   0  0  0  0  0  0  0  0  0  0  0  0
   -0.3818    0.3719   -2.0767 H   0  0  0  0  0  0  0  0  0  0  0  0
    1.2617    0.9950   -1.8421 H   0  0  0  0  0  0  0  0  0  0  0  0
    1.4048   -1.4010   -1.4368 H   0  0  0  0  0  0  0  0  0  0  0  0
    1.1322   -1.9901    0.3211 H   0  0  0  0  0  0  0  0  0  0  0  0
    2.9439    0.2614   -0.6315 H   0  0  0  0  0  0  0  0  0  0  0  0
    3.1115   -0.8226    0.8115 H   0  0  0  0  0  0  0  0  0  0  0  0
    1.1430    0.0093    1.8776 H   0  0  0  0  0  0  0  0  0  0  0  0
    1.5066    1.5962    0.9693 H   0  0  0  0  0  0  0  0  0  0  0  0
  1  2  1  0
  2  3  1  0
  2  4  1  0
  4  5  1  0
  4  6  1  0
  6  7  1  0
  7  8  1  0
  8  4  1  0
  1  9  1  0
  1 10  1  0
  1 11  1  0
  2 12  1  0
  3 13  1  0
  3 14  1  0
  3 15  1  0
  5 16  1  0
  5 17  1  0
  5 18  1  0
  6 19  1  0
  6 20  1  0
  7 21  1  0
  7 22  1  0
  8 23  1  0
  8 24  1  0
M  END
