
     RDKit          3D

 22 21  0  0  0  0  0  0  0  0999 V2000
   -2.1781   -0.8699    0.2442 C   0  0  0  0  0  0  0  0  0  0  0  0
   -1.3290    0.1410   -0.4874 C   0  0  0  0  0  0  0  0  0  0  0  0
   -1.6039    1.5113    0.0142 C   0  0  0  0  0  0  0  0  0  0  0  0
    0.1247   -0.2305   -0.5544 C   0  0  0  0  0  0  0  0  0  0  0  0
    0.7881   -0.3815    0.7873 C   0  0  0  0  0  0  0  0  0  0  0  0
    2.2374   -0.7618    0.4970 C   0  0  0  0  0  0  0  0  0  0  0  0
    2.8343    0.3584   -0.2661 C   0  0  0  0  0  0  0  0  0  0  0  0
    3.5669    1.1638    0.3331 O   0  0  0  0  0  0  0  0  0  0  0  0
   -2.2604   -0.6575    1.3457 H   0  0  0  0  0  0  0  0  0  0  0  0
   -1.9174   -1.9067    0.0453 H   0  0  0  0  0  0  0  0  0  0  0  0
   -3.2192   -0.7343   -0.1342 H   0  0  0  0  0  0  0  0  0  0  0  0
   -1.6786    0.1125   -1.5655 H   0  0  0  0  0  0  0  0  0  0  0  0
   -1.2624    1.6256    1.0433 H   0  0  0  0  0  0  0  0  0  0  0  0
   -1.1261    2.2665   -0.6585 H   0  0  0  0  0  0  0  0  0  0  0  0
   -2.7247    1.6562   -0.0542 H   0  0  0  0  0  0  0  0  0  0  0  0
    0.2863   -1.1948   -1.0829 H   0  0  0  0  0  0  0  0  0  0  0  0
    0.6698    0.5626   -1.0995 H   0  0  0  0  0  0  0  0  0  0  0  0
    0.7961    0.5765    1.3596 H   0  0  0  0  0  0  0  0  0  0  0  0
    0.2996   -1.1380    1.4290 H   0  0  0  0  0  0  0  0  0  0  0  0
    2.2042   -1.6311   -0.2267 H   0  0  0  0  0  0  0  0  0  0  0  0
    2.8031   -1.0203    1.3909 H   0  0  0  0  0  0  0  0  0  0  0  0
    2.6892    0.5520   -1.3242 H   0  0  0  0  0  0  0  0  0  0  0  0
  1  2  1  0
  2  3  1  0
  2  4  1  0
  4  5  1  0
  5  6  1  0
  6  7  1  0
  7  8  2  0
  1  9  1  0
  1 10  1  0
  1 11  1  0
  2 12  1  0
  3 13  1  0
  3 14  1  0
  3 15  1  0
  4 16  1  0
  4 17  1  0
  5 18  1  0
  5 19  1  0
  6 20  1  0
  6 21  1  0
  7 22  1  0
M  END
