
     RDKit          3D

 23 23  0  0  0  0  0  0  0  0999 V2000
   -2.4065   -0.3130    1.2946 C   0  0  0  0  0  0  0  0  0  0  0  0
   -1.7868   -0.1550   -0.0573 C   0  0  0  0  0  0  0  0  0  0  0  0
   -2.7126    0.6395   -0.9634 C   0  0  0  0  0  0  0  0  0  0  0  0
   -0.4747    0.5579    0.0648 C   0  0  0  0  0  0  0  0  0  0  0  0
    0.1417    0.7198   -1.2432 O   0  0  0  0  0  0  0  0  0  0  0  0
    0.7545   -0.1594   -0.2419 C   0  0  0  0  0  0  0  0  0  0  0  0
    2.1133    0.3281    0.1476 C   0  0  0  0  0  0  0  0  0  0  0  0
    3.1196   -0.7132   -0.3618 C   0  0  0  0  0  0  0  0  0  0  0  0
    4.4236   -0.3505   -0.0478 O   0  0  0  0  0  0  0  0  0  0  0  0
   -3.2263   -1.0645    1.1974 H   0  0  0  0  0  0  0  0  0  0  0  0
   -1.6724   -0.6311    2.0563 H   0  0  0  0  0  0  0  0  0  0  0  0
   -2.8949    0.6284    1.6029 H   0  0  0  0  0  0  0  0  0  0  0  0
   -1.6021   -1.1427   -0.5449 H   0  0  0  0  0  0  0  0  0  0  0  0
   -2.1382    1.2546   -1.6870 H   0  0  0  0  0  0  0  0  0  0  0  0
   -3.3694    1.2482   -0.3132 H   0  0  0  0  0  0  0  0  0  0  0  0
   -3.3135   -0.0742   -1.5683 H   0  0  0  0  0  0  0  0  0  0  0  0
   -0.4891    1.4557    0.6960 H   0  0  0  0  0  0  0  0  0  0  0  0
    0.6300   -1.2428   -0.5302 H   0  0  0  0  0  0  0  0  0  0  0  0
    2.4071    1.2823   -0.3371 H   0  0  0  0  0  0  0  0  0  0  0  0
    2.2695    0.4325    1.2323 H   0  0  0  0  0  0  0  0  0  0  0  0
    2.8242   -1.6700    0.1190 H   0  0  0  0  0  0  0  0  0  0  0  0
    2.9389   -0.7947   -1.4476 H   0  0  0  0  0  0  0  0  0  0  0  0
    4.4639   -0.2360    0.9325 H   0  0  0  0  0  0  0  0  0  0  0  0
  1  2  1  0
  2  3  1  0
  2  4  1  0
  4  5  1  0
  5  6  1  0
  6  7  1  0
  7  8  1  0
  8  9  1  0
  6  4  1  0
  1 10  1  0
  1 11  1  0
  1 12  1  0
  2 13  1  0
  3 14  1  0
  3 15  1  0
  3 16  1  0
  4 17  1  0
  6 18  1  0
  7 19  1  0
  7 20  1  0
  8 21  1  0
  8 22  1  0
  9 23  1  0
M  END
