
     RDKit          3D

 20 20  0  0  0  0  0  0  0  0999 V2000
   -1.9588   -0.8512    0.1184 C   0  0  0  0  0  0  0  0  0  0  0  0
   -1.0495    0.1987   -0.4816 C   0  0  0  0  0  0  0  0  0  0  0  0
   -1.3980    1.5155    0.1732 C   0  0  0  0  0  0  0  0  0  0  0  0
    0.3880   -0.1176   -0.2709 C   0  0  0  0  0  0  0  0  0  0  0  0
    1.2237    0.6584    0.3981 C   0  0  0  0  0  0  0  0  0  0  0  0
    2.5844    0.0271    0.4082 C   0  0  0  0  0  0  0  0  0  0  0  0
    2.5212   -0.9320   -0.6059 O   0  0  0  0  0  0  0  0  0  0  0  0
    1.1790   -1.2823   -0.7162 C   0  0  0  0  0  0  0  0  0  0  0  0
   -1.5978   -1.2125    1.0981 H   0  0  0  0  0  0  0  0  0  0  0  0
   -2.9428   -0.3569    0.3240 H   0  0  0  0  0  0  0  0  0  0  0  0
   -2.1823   -1.6779   -0.5883 H   0  0  0  0  0  0  0  0  0  0  0  0
   -1.3209    0.2673   -1.5557 H   0  0  0  0  0  0  0  0  0  0  0  0
   -0.6448    2.3027   -0.0056 H   0  0  0  0  0  0  0  0  0  0  0  0
   -1.5210    1.3856    1.2868 H   0  0  0  0  0  0  0  0  0  0  0  0
   -2.4201    1.8150   -0.1950 H   0  0  0  0  0  0  0  0  0  0  0  0
    1.0510    1.6162    0.8967 H   0  0  0  0  0  0  0  0  0  0  0  0
    3.3155    0.8161    0.0827 H   0  0  0  0  0  0  0  0  0  0  0  0
    2.8292   -0.3930    1.3833 H   0  0  0  0  0  0  0  0  0  0  0  0
    0.9064   -1.6262   -1.7389 H   0  0  0  0  0  0  0  0  0  0  0  0
    1.0376   -2.1531   -0.0113 H   0  0  0  0  0  0  0  0  0  0  0  0
  1  2  1  0
  2  3  1  0
  2  4  1  0
  4  5  2  0
  5  6  1  0
  6  7  1  0
  7  8  1  0
  8  4  1  0
  1  9  1  0
  1 10  1  0
  1 11  1  0
  2 12  1  0
  3 13  1  0
  3 14  1  0
  3 15  1  0
  5 16  1  0
  6 17  1  0
  6 18  1  0
  8 19  1  0
  8 20  1  0
M  END
