
     RDKit          3D

 21 21  0  0  0  0  0  0  0  0999 V2000
   -2.1720   -1.1981   -0.6102 C   0  0  0  0  0  0  0  0  0  0  0  0
   -1.8484    0.2796   -0.6349 C   0  0  0  0  0  0  0  0  0  0  0  0
   -2.2358    0.9455    0.6469 C   0  0  0  0  0  0  0  0  0  0  0  0
   -0.3771    0.4417   -0.8628 C   0  0  0  0  0  0  0  0  0  0  0  0
    0.0795    1.0658   -1.8681 O   0  0  0  0  0  0  0  0  0  0  0  0
    0.5586   -0.0800    0.0097 O   0  0  0  0  0  0  0  0  0  0  0  0
    1.9437    0.0484   -0.1654 C   0  0  0  0  0  0  0  0  0  0  0  0
    2.9179   -0.9095    0.3435 C   0  0  0  0  0  0  0  0  0  0  0  0
    2.8109    0.4260    1.0318 C   0  0  0  0  0  0  0  0  0  0  0  0
   -3.2905   -1.2700   -0.5520 H   0  0  0  0  0  0  0  0  0  0  0  0
   -1.8212   -1.6492   -1.5610 H   0  0  0  0  0  0  0  0  0  0  0  0
   -1.6752   -1.6815    0.2521 H   0  0  0  0  0  0  0  0  0  0  0  0
   -2.3932    0.7736   -1.4572 H   0  0  0  0  0  0  0  0  0  0  0  0
   -3.1103    1.6319    0.5009 H   0  0  0  0  0  0  0  0  0  0  0  0
   -2.5324    0.1825    1.3924 H   0  0  0  0  0  0  0  0  0  0  0  0
   -1.4088    1.5731    0.9924 H   0  0  0  0  0  0  0  0  0  0  0  0
    2.2202    0.6168   -1.0843 H   0  0  0  0  0  0  0  0  0  0  0  0
    2.6614   -1.7754    0.9736 H   0  0  0  0  0  0  0  0  0  0  0  0
    3.8551   -1.0683   -0.2447 H   0  0  0  0  0  0  0  0  0  0  0  0
    2.2253    0.4714    1.9763 H   0  0  0  0  0  0  0  0  0  0  0  0
    3.5924    1.1757    0.9127 H   0  0  0  0  0  0  0  0  0  0  0  0
  1  2  1  0
  2  3  1  0
  2  4  1  0
  4  5  2  0
  4  6  1  0
  6  7  1  0
  7  8  1  0
  8  9  1  0
  9  7  1  0
  1 10  1  0
  1 11  1  0
  1 12  1  0
  2 13  1  0
  3 14  1  0
  3 15  1  0
  3 16  1  0
  7 17  1  0
  8 18  1  0
  8 19  1  0
  9 20  1  0
  9 21  1  0
M  END
