
     RDKit          3D

 25 25  0  0  0  0  0  0  0  0999 V2000
   -1.7032    1.4490    0.2250 C   0  0  0  0  0  0  0  0  0  0  0  0
   -1.1954    0.1906   -0.4122 C   0  0  0  0  0  0  0  0  0  0  0  0
   -2.3833   -0.7544   -0.5458 C   0  0  0  0  0  0  0  0  0  0  0  0
   -0.0697   -0.4446    0.3628 C   0  0  0  0  0  0  0  0  0  0  0  0
    0.4780   -1.7068   -0.2274 C   0  0  0  0  0  0  0  0  0  0  0  0
    1.8592   -1.1171   -0.3805 C   0  0  0  0  0  0  0  0  0  0  0  0
    1.2466    0.2409   -0.0186 C   0  0  0  0  0  0  0  0  0  0  0  0
    1.8926    0.9171    1.1568 C   0  0  0  0  0  0  0  0  0  0  0  0
    1.1545    1.0343   -1.1573 O   0  0  0  0  0  0  0  0  0  0  0  0
   -0.8972    2.2114    0.3659 H   0  0  0  0  0  0  0  0  0  0  0  0
   -2.2033    1.2653    1.1968 H   0  0  0  0  0  0  0  0  0  0  0  0
   -2.4725    1.8759   -0.4543 H   0  0  0  0  0  0  0  0  0  0  0  0
   -0.8733    0.4514   -1.4418 H   0  0  0  0  0  0  0  0  0  0  0  0
   -2.2468   -1.3362   -1.4748 H   0  0  0  0  0  0  0  0  0  0  0  0
   -3.3263   -0.1786   -0.5937 H   0  0  0  0  0  0  0  0  0  0  0  0
   -2.3620   -1.4023    0.3649 H   0  0  0  0  0  0  0  0  0  0  0  0
   -0.2005   -0.5236    1.4393 H   0  0  0  0  0  0  0  0  0  0  0  0
    0.5344   -2.5789    0.4870 H   0  0  0  0  0  0  0  0  0  0  0  0
    0.0283   -2.0521   -1.1715 H   0  0  0  0  0  0  0  0  0  0  0  0
    2.2879   -1.1630   -1.3853 H   0  0  0  0  0  0  0  0  0  0  0  0
    2.6089   -1.4730    0.3663 H   0  0  0  0  0  0  0  0  0  0  0  0
    1.1401    1.4668    1.7626 H   0  0  0  0  0  0  0  0  0  0  0  0
    2.3526    0.1464    1.8196 H   0  0  0  0  0  0  0  0  0  0  0  0
    2.6952    1.5959    0.7925 H   0  0  0  0  0  0  0  0  0  0  0  0
    1.6552    1.8856   -1.0764 H   0  0  0  0  0  0  0  0  0  0  0  0
  1  2  1  0
  2  3  1  0
  2  4  1  0
  4  5  1  0
  5  6  1  0
  6  7  1  0
  7  8  1  0
  7  9  1  0
  7  4  1  0
  1 10  1  0
  1 11  1  0
  1 12  1  0
  2 13  1  0
  3 14  1  0
  3 15  1  0
  3 16  1  0
  4 17  1  0
  5 18  1  0
  5 19  1  0
  6 20  1  0
  6 21  1  0
  8 22  1  0
  8 23  1  0
  8 24  1  0
  9 25  1  0
M  END
