
     RDKit          3D

 21 20  0  0  0  0  0  0  0  0999 V2000
   -2.3555    0.5224    1.1158 C   0  0  0  0  0  0  0  0  0  0  0  0
   -1.1211   -0.0853    0.5063 C   0  0  0  0  0  0  0  0  0  0  0  0
   -1.6086   -1.0668   -0.5277 C   0  0  0  0  0  0  0  0  0  0  0  0
   -2.5719   -0.8256   -1.2346 O   0  0  0  0  0  0  0  0  0  0  0  0
   -0.2835    0.9903   -0.1419 C   0  0  0  0  0  0  0  0  0  0  0  0
    0.9735    0.4246   -0.7687 C   0  0  0  0  0  0  0  0  0  0  0  0
    1.8584   -0.2592    0.2181 C   0  0  0  0  0  0  0  0  0  0  0  0
    3.0391   -0.7624   -0.5206 C   0  0  0  0  0  0  0  0  0  0  0  0
    3.2202   -1.9698   -0.6763 O   0  0  0  0  0  0  0  0  0  0  0  0
   -3.3103    0.1620    0.6460 H   0  0  0  0  0  0  0  0  0  0  0  0
   -2.3590    1.6233    0.9097 H   0  0  0  0  0  0  0  0  0  0  0  0
   -2.3822    0.4105    2.2212 H   0  0  0  0  0  0  0  0  0  0  0  0
   -0.5805   -0.5970    1.3323 H   0  0  0  0  0  0  0  0  0  0  0  0
   -1.1063   -1.9919   -0.6481 H   0  0  0  0  0  0  0  0  0  0  0  0
   -0.8907    1.4203   -0.9648 H   0  0  0  0  0  0  0  0  0  0  0  0
   -0.0948    1.7860    0.5901 H   0  0  0  0  0  0  0  0  0  0  0  0
    1.5702    1.2273   -1.2644 H   0  0  0  0  0  0  0  0  0  0  0  0
    0.6712   -0.2494   -1.5933 H   0  0  0  0  0  0  0  0  0  0  0  0
    1.3467   -1.1200    0.7239 H   0  0  0  0  0  0  0  0  0  0  0  0
    2.2451    0.4133    1.0006 H   0  0  0  0  0  0  0  0  0  0  0  0
    3.7400   -0.0527   -0.9238 H   0  0  0  0  0  0  0  0  0  0  0  0
  1  2  1  0
  2  3  1  0
  3  4  2  0
  2  5  1  0
  5  6  1  0
  6  7  1  0
  7  8  1  0
  8  9  2  0
  1 10  1  0
  1 11  1  0
  1 12  1  0
  2 13  1  0
  3 14  1  0
  5 15  1  0
  5 16  1  0
  6 17  1  0
  6 18  1  0
  7 19  1  0
  7 20  1  0
  8 21  1  0
M  END
