
     RDKit          3D

 23 23  0  0  0  0  0  0  0  0999 V2000
   -2.5159    0.4373    0.8002 C   0  0  0  0  0  0  0  0  0  0  0  0
   -1.2684   -0.4357    0.5906 C   0  0  0  0  0  0  0  0  0  0  0  0
   -1.4598   -1.0580   -0.8000 C   0  0  0  0  0  0  0  0  0  0  0  0
   -0.0925    0.5054    0.6017 C   0  0  0  0  0  0  0  0  0  0  0  0
   -0.2189    1.4418   -0.4214 O   0  0  0  0  0  0  0  0  0  0  0  0
    1.2305   -0.1629    0.5168 C   0  0  0  0  0  0  0  0  0  0  0  0
    1.6637   -1.0109   -0.5835 C   0  0  0  0  0  0  0  0  0  0  0  0
    2.2623    0.3768   -0.4448 C   0  0  0  0  0  0  0  0  0  0  0  0
    3.5943    0.4269   -0.0668 O   0  0  0  0  0  0  0  0  0  0  0  0
   -2.5117    1.1440   -0.0654 H   0  0  0  0  0  0  0  0  0  0  0  0
   -3.4259   -0.1819    0.6890 H   0  0  0  0  0  0  0  0  0  0  0  0
   -2.4506    0.9495    1.7752 H   0  0  0  0  0  0  0  0  0  0  0  0
   -1.1736   -1.2033    1.3626 H   0  0  0  0  0  0  0  0  0  0  0  0
   -1.1255   -0.3247   -1.5552 H   0  0  0  0  0  0  0  0  0  0  0  0
   -1.0111   -2.0444   -0.8817 H   0  0  0  0  0  0  0  0  0  0  0  0
   -2.5630   -1.1976   -0.9994 H   0  0  0  0  0  0  0  0  0  0  0  0
   -0.1633    1.0868    1.5568 H   0  0  0  0  0  0  0  0  0  0  0  0
    0.0664    2.3404   -0.1130 H   0  0  0  0  0  0  0  0  0  0  0  0
    1.6789   -0.4052    1.5250 H   0  0  0  0  0  0  0  0  0  0  0  0
    2.3629   -1.8707   -0.3631 H   0  0  0  0  0  0  0  0  0  0  0  0
    1.1244   -1.1582   -1.5233 H   0  0  0  0  0  0  0  0  0  0  0  0
    1.9125    1.1911   -1.0821 H   0  0  0  0  0  0  0  0  0  0  0  0
    4.0843    1.1535   -0.5181 H   0  0  0  0  0  0  0  0  0  0  0  0
  1  2  1  0
  2  3  1  0
  2  4  1  0
  4  5  1  0
  4  6  1  0
  6  7  1  0
  7  8  1  0
  8  9  1  0
  8  6  1  0
  1 10  1  0
  1 11  1  0
  1 12  1  0
  2 13  1  0
  3 14  1  0
  3 15  1  0
  3 16  1  0
  4 17  1  0
  5 18  1  0
  6 19  1  0
  7 20  1  0
  7 21  1  0
  8 22  1  0
  9 23  1  0
M  END
