
     RDKit          3D

 21 21  0  0  0  0  0  0  0  0999 V2000
   -2.2198    1.0298    0.3233 C   0  0  0  0  0  0  0  0  0  0  0  0
   -1.1504   -0.0362    0.4373 C   0  0  0  0  0  0  0  0  0  0  0  0
   -1.4792   -1.1359   -0.5337 C   0  0  0  0  0  0  0  0  0  0  0  0
    0.1701    0.6192    0.1701 C   0  0  0  0  0  0  0  0  0  0  0  0
    1.3366   -0.3237    0.2489 C   0  0  0  0  0  0  0  0  0  0  0  0
    2.6819    0.2639   -0.0068 C   0  0  0  0  0  0  0  0  0  0  0  0
    2.0729   -0.5876   -1.0360 C   0  0  0  0  0  0  0  0  0  0  0  0
   -1.8308    1.9183   -0.2412 H   0  0  0  0  0  0  0  0  0  0  0  0
   -2.5903    1.3537    1.3146 H   0  0  0  0  0  0  0  0  0  0  0  0
   -3.0878    0.6658   -0.2944 H   0  0  0  0  0  0  0  0  0  0  0  0
   -1.1061   -0.4581    1.4756 H   0  0  0  0  0  0  0  0  0  0  0  0
   -2.5835   -1.1030   -0.7611 H   0  0  0  0  0  0  0  0  0  0  0  0
   -1.3059   -2.1420   -0.1017 H   0  0  0  0  0  0  0  0  0  0  0  0
   -0.9468   -0.9538   -1.4650 H   0  0  0  0  0  0  0  0  0  0  0  0
    0.2729    1.4628    0.8833 H   0  0  0  0  0  0  0  0  0  0  0  0
    0.1238    1.0726   -0.8431 H   0  0  0  0  0  0  0  0  0  0  0  0
    1.2121   -1.1374    0.9797 H   0  0  0  0  0  0  0  0  0  0  0  0
    2.7883    1.3538   -0.1033 H   0  0  0  0  0  0  0  0  0  0  0  0
    3.5121   -0.1870    0.6119 H   0  0  0  0  0  0  0  0  0  0  0  0
    1.7283   -0.0625   -1.9686 H   0  0  0  0  0  0  0  0  0  0  0  0
    2.4014   -1.6128   -1.1990 H   0  0  0  0  0  0  0  0  0  0  0  0
  1  2  1  0
  2  3  1  0
  2  4  1  0
  4  5  1  0
  5  6  1  0
  6  7  1  0
  7  5  1  0
  1  8  1  0
  1  9  1  0
  1 10  1  0
  2 11  1  0
  3 12  1  0
  3 13  1  0
  3 14  1  0
  4 15  1  0
  4 16  1  0
  5 17  1  0
  6 18  1  0
  6 19  1  0
  7 20  1  0
  7 21  1  0
M  END
