
     RDKit          3D

 19 19  0  0  0  0  0  0  0  0999 V2000
   -1.7934   -0.7077   -0.9350 C   0  0  0  0  0  0  0  0  0  0  0  0
   -1.2124    0.4309   -0.1041 C   0  0  0  0  0  0  0  0  0  0  0  0
   -1.8082    0.3620    1.2540 C   0  0  0  0  0  0  0  0  0  0  0  0
   -2.0653   -0.7045    1.7880 O   0  0  0  0  0  0  0  0  0  0  0  0
    0.2809    0.2499   -0.0513 C   0  0  0  0  0  0  0  0  0  0  0  0
    0.9906   -0.6953   -0.6383 C   0  0  0  0  0  0  0  0  0  0  0  0
    2.4344   -0.4614   -0.2977 C   0  0  0  0  0  0  0  0  0  0  0  0
    2.4384    0.9205    0.0391 O   0  0  0  0  0  0  0  0  0  0  0  0
    1.2279    1.1102    0.6902 C   0  0  0  0  0  0  0  0  0  0  0  0
   -1.3846   -1.6900   -0.6167 H   0  0  0  0  0  0  0  0  0  0  0  0
   -1.4641   -0.5595   -1.9834 H   0  0  0  0  0  0  0  0  0  0  0  0
   -2.8858   -0.6512   -0.8682 H   0  0  0  0  0  0  0  0  0  0  0  0
   -1.4877    1.3781   -0.6136 H   0  0  0  0  0  0  0  0  0  0  0  0
   -2.0387    1.2599    1.8258 H   0  0  0  0  0  0  0  0  0  0  0  0
    0.6049   -1.4947   -1.2536 H   0  0  0  0  0  0  0  0  0  0  0  0
    2.7677   -1.0797    0.5519 H   0  0  0  0  0  0  0  0  0  0  0  0
    3.0753   -0.5794   -1.2038 H   0  0  0  0  0  0  0  0  0  0  0  0
    0.9422    2.1791    0.6804 H   0  0  0  0  0  0  0  0  0  0  0  0
    1.3778    0.7329    1.7362 H   0  0  0  0  0  0  0  0  0  0  0  0
  1  2  1  0
  2  3  1  0
  3  4  2  0
  2  5  1  0
  5  6  2  0
  6  7  1  0
  7  8  1  0
  8  9  1  0
  9  5  1  0
  1 10  1  0
  1 11  1  0
  1 12  1  0
  2 13  1  0
  3 14  1  0
  6 15  1  0
  7 16  1  0
  7 17  1  0
  9 18  1  0
  9 19  1  0
M  END
