
     RDKit          3D

 23 24  0  0  0  0  0  0  0  0999 V2000
   -1.4810   -0.1735    1.1271 C   0  0  0  0  0  0  0  0  0  0  0  0
   -1.4593   -0.4028   -0.3453 C   0  0  0  0  0  0  0  0  0  0  0  0
   -2.1772    0.7772   -1.0087 C   0  0  0  0  0  0  0  0  0  0  0  0
   -0.0963   -0.4813   -0.9399 C   0  0  0  0  0  0  0  0  0  0  0  0
    0.7088    0.8022   -0.7205 C   0  0  0  0  0  0  0  0  0  0  0  0
    1.6486    0.0022    0.1189 C   0  0  0  0  0  0  0  0  0  0  0  0
    2.9892    0.2099    0.3885 C   0  0  0  0  0  0  0  0  0  0  0  0
    1.9708    0.3601    1.4018 O   0  0  0  0  0  0  0  0  0  0  0  0
    0.9357   -1.2821   -0.1861 C   0  0  0  0  0  0  0  0  0  0  0  0
   -2.3678   -0.7186    1.5571 H   0  0  0  0  0  0  0  0  0  0  0  0
   -0.6081   -0.5542    1.6741 H   0  0  0  0  0  0  0  0  0  0  0  0
   -1.6689    0.9170    1.3518 H   0  0  0  0  0  0  0  0  0  0  0  0
   -1.9954   -1.3455   -0.5728 H   0  0  0  0  0  0  0  0  0  0  0  0
   -1.8747    1.6881   -0.4486 H   0  0  0  0  0  0  0  0  0  0  0  0
   -1.8219    0.8528   -2.0538 H   0  0  0  0  0  0  0  0  0  0  0  0
   -3.2637    0.6448   -0.9199 H   0  0  0  0  0  0  0  0  0  0  0  0
   -0.1345   -0.7759   -2.0083 H   0  0  0  0  0  0  0  0  0  0  0  0
    0.1479    1.6040   -0.1997 H   0  0  0  0  0  0  0  0  0  0  0  0
    1.2009    1.1486   -1.6479 H   0  0  0  0  0  0  0  0  0  0  0  0
    3.5214    1.1451    0.1074 H   0  0  0  0  0  0  0  0  0  0  0  0
    3.6998   -0.6396    0.5593 H   0  0  0  0  0  0  0  0  0  0  0  0
    0.5647   -1.8698    0.6515 H   0  0  0  0  0  0  0  0  0  0  0  0
    1.5611   -1.9087   -0.8521 H   0  0  0  0  0  0  0  0  0  0  0  0
  1  2  1  0
  2  3  1  0
  2  4  1  0
  4  5  1  0
  5  6  1  0
  6  7  1  0
  7  8  1  0
  6  9  1  0
  9  4  1  0
  8  6  1  0
  1 10  1  0
  1 11  1  0
  1 12  1  0
  2 13  1  0
  3 14  1  0
  3 15  1  0
  3 16  1  0
  4 17  1  0
  5 18  1  0
  5 19  1  0
  7 20  1  0
  7 21  1  0
  9 22  1  0
  9 23  1  0
M  END
