
     RDKit          3D

 21 22  0  0  0  0  0  0  0  0999 V2000
   -1.3000    1.2804    0.5140 C   0  0  0  0  0  0  0  0  0  0  0  0
   -1.1961   -0.1973    0.4139 C   0  0  0  0  0  0  0  0  0  0  0  0
   -2.0803   -0.6821   -0.6978 C   0  0  0  0  0  0  0  0  0  0  0  0
    0.2436   -0.6814    0.2393 C   0  0  0  0  0  0  0  0  0  0  0  0
    0.3950   -2.0435    0.1413 O   0  0  0  0  0  0  0  0  0  0  0  0
    1.1655    0.1630   -0.5147 C   0  0  0  0  0  0  0  0  0  0  0  0
    2.6460    0.1030   -0.3802 C   0  0  0  0  0  0  0  0  0  0  0  0
    2.5706   -0.1649    0.9972 O   0  0  0  0  0  0  0  0  0  0  0  0
    1.2369    0.1791    0.9377 C   0  0  0  0  0  0  0  0  0  0  0  0
   -1.6190    1.5799    1.5394 H   0  0  0  0  0  0  0  0  0  0  0  0
   -0.3895    1.8403    0.2902 H   0  0  0  0  0  0  0  0  0  0  0  0
   -2.0996    1.7047   -0.1623 H   0  0  0  0  0  0  0  0  0  0  0  0
   -1.5329   -0.6676    1.3841 H   0  0  0  0  0  0  0  0  0  0  0  0
   -2.6884    0.1395   -1.1463 H   0  0  0  0  0  0  0  0  0  0  0  0
   -2.8081   -1.4435   -0.3477 H   0  0  0  0  0  0  0  0  0  0  0  0
   -1.4514   -1.1604   -1.4808 H   0  0  0  0  0  0  0  0  0  0  0  0
    0.9861   -2.2740   -0.6461 H   0  0  0  0  0  0  0  0  0  0  0  0
    0.7456    0.9436   -1.1482 H   0  0  0  0  0  0  0  0  0  0  0  0
    3.1416   -0.7064   -0.9122 H   0  0  0  0  0  0  0  0  0  0  0  0
    3.0989    1.0929   -0.6113 H   0  0  0  0  0  0  0  0  0  0  0  0
    0.9355    0.9948    1.5905 H   0  0  0  0  0  0  0  0  0  0  0  0
  1  2  1  0
  2  3  1  0
  2  4  1  0
  4  5  1  0
  4  6  1  0
  6  7  1  0
  7  8  1  0
  8  9  1  0
  9  4  1  0
  9  6  1  0
  1 10  1  0
  1 11  1  0
  1 12  1  0
  2 13  1  0
  3 14  1  0
  3 15  1  0
  3 16  1  0
  5 17  1  0
  6 18  1  0
  7 19  1  0
  7 20  1  0
  9 21  1  0
M  END
