
     RDKit          3D

 23 23  0  0  0  0  0  0  0  0999 V2000
   -1.6740    1.1067   -0.6135 C   0  0  0  0  0  0  0  0  0  0  0  0
   -1.5289   -0.3251   -0.2793 C   0  0  0  0  0  0  0  0  0  0  0  0
   -2.4177   -0.5868    0.9477 C   0  0  0  0  0  0  0  0  0  0  0  0
   -0.1847   -0.8739   -0.0354 C   0  0  0  0  0  0  0  0  0  0  0  0
    0.6383   -0.6710   -1.2787 O   0  0  0  0  0  0  0  0  0  0  0  0
    1.0893   -0.3218    0.0575 C   0  0  0  0  0  0  0  0  0  0  0  0
    2.2620   -1.2721    0.3951 C   0  0  0  0  0  0  0  0  0  0  0  0
    1.5241    1.1053    0.2234 C   0  0  0  0  0  0  0  0  0  0  0  0
    2.6072    1.4105   -0.6426 O   0  0  0  0  0  0  0  0  0  0  0  0
   -2.7573    1.2342   -0.9374 H   0  0  0  0  0  0  0  0  0  0  0  0
   -1.6031    1.7495    0.2782 H   0  0  0  0  0  0  0  0  0  0  0  0
   -1.1078    1.4537   -1.4963 H   0  0  0  0  0  0  0  0  0  0  0  0
   -2.0493   -0.9066   -1.0997 H   0  0  0  0  0  0  0  0  0  0  0  0
   -3.4405   -0.1966    0.7893 H   0  0  0  0  0  0  0  0  0  0  0  0
   -2.4933   -1.6943    1.0506 H   0  0  0  0  0  0  0  0  0  0  0  0
   -1.8965   -0.1762    1.8106 H   0  0  0  0  0  0  0  0  0  0  0  0
   -0.2546   -2.0031    0.1378 H   0  0  0  0  0  0  0  0  0  0  0  0
    3.0147   -1.1298   -0.3822 H   0  0  0  0  0  0  0  0  0  0  0  0
    1.9300   -2.3166    0.4212 H   0  0  0  0  0  0  0  0  0  0  0  0
    2.6095   -0.9286    1.4034 H   0  0  0  0  0  0  0  0  0  0  0  0
    1.9332    1.3004    1.2387 H   0  0  0  0  0  0  0  0  0  0  0  0
    0.7440    1.8332   -0.0634 H   0  0  0  0  0  0  0  0  0  0  0  0
    3.0554    2.2090   -0.2993 H   0  0  0  0  0  0  0  0  0  0  0  0
  1  2  1  0
  2  3  1  0
  2  4  1  0
  4  5  1  0
  5  6  1  0
  6  7  1  0
  6  8  1  0
  8  9  1  0
  6  4  1  0
  1 10  1  0
  1 11  1  0
  1 12  1  0
  2 13  1  0
  3 14  1  0
  3 15  1  0
  3 16  1  0
  4 17  1  0
  7 18  1  0
  7 19  1  0
  7 20  1  0
  8 21  1  0
  8 22  1  0
  9 23  1  0
M  END
