
     RDKit          3D

 21 21  0  0  0  0  0  0  0  0999 V2000
   -0.6477    0.1999   -1.3484 C   0  0  0  0  0  0  0  0  0  0  0  0
   -0.6963   -0.1280    0.1126 C   0  0  0  0  0  0  0  0  0  0  0  0
   -2.0030    0.4349    0.6551 C   0  0  0  0  0  0  0  0  0  0  0  0
   -0.7890   -1.5951    0.2949 C   0  0  0  0  0  0  0  0  0  0  0  0
   -0.0094   -2.2730    0.9020 O   0  0  0  0  0  0  0  0  0  0  0  0
    0.3834    0.5076    0.9234 C   0  0  0  0  0  0  0  0  0  0  0  0
    1.7703    0.1780    0.5717 C   0  0  0  0  0  0  0  0  0  0  0  0
    2.4360    0.3977   -0.6664 C   0  0  0  0  0  0  0  0  0  0  0  0
    1.8875   -0.9547   -0.3661 O   0  0  0  0  0  0  0  0  0  0  0  0
   -0.3527    1.2474   -1.5536 H   0  0  0  0  0  0  0  0  0  0  0  0
   -1.6704    0.1001   -1.8201 H   0  0  0  0  0  0  0  0  0  0  0  0
   -0.0244   -0.5483   -1.8812 H   0  0  0  0  0  0  0  0  0  0  0  0
   -2.2982   -0.1511    1.5706 H   0  0  0  0  0  0  0  0  0  0  0  0
   -1.8801    1.5039    0.9440 H   0  0  0  0  0  0  0  0  0  0  0  0
   -2.8287    0.3276   -0.0894 H   0  0  0  0  0  0  0  0  0  0  0  0
   -1.6396   -2.0932   -0.1640 H   0  0  0  0  0  0  0  0  0  0  0  0
    0.2517    1.6220    0.8022 H   0  0  0  0  0  0  0  0  0  0  0  0
    0.1745    0.3069    1.9767 H   0  0  0  0  0  0  0  0  0  0  0  0
    2.4132   -0.0865    1.4578 H   0  0  0  0  0  0  0  0  0  0  0  0
    3.5366    0.2752   -0.7238 H   0  0  0  0  0  0  0  0  0  0  0  0
    1.9864    0.7288   -1.5981 H   0  0  0  0  0  0  0  0  0  0  0  0
  1  2  1  0
  2  3  1  0
  2  4  1  0
  4  5  2  0
  2  6  1  0
  6  7  1  0
  7  8  1  0
  8  9  1  0
  9  7  1  0
  1 10  1  0
  1 11  1  0
  1 12  1  0
  3 13  1  0
  3 14  1  0
  3 15  1  0
  4 16  1  0
  6 17  1  0
  6 18  1  0
  7 19  1  0
  8 20  1  0
  8 21  1  0
M  END
