
     RDKit          3D

 27 27  0  0  0  0  0  0  0  0999 V2000
    0.4635    1.0838    1.4415 C   0  0  0  0  0  0  0  0  0  0  0  0
    0.3523    0.4560    0.0702 C   0  0  0  0  0  0  0  0  0  0  0  0
    1.2552   -0.7548    0.0806 C   0  0  0  0  0  0  0  0  0  0  0  0
    2.7145   -0.3967    0.3617 C   0  0  0  0  0  0  0  0  0  0  0  0
    2.2353   -1.0169   -0.9635 C   0  0  0  0  0  0  0  0  0  0  0  0
   -1.0705    0.1179   -0.2299 C   0  0  0  0  0  0  0  0  0  0  0  0
   -1.8710    1.4092   -0.1831 C   0  0  0  0  0  0  0  0  0  0  0  0
   -1.2252   -0.4620   -1.6053 C   0  0  0  0  0  0  0  0  0  0  0  0
   -1.6901   -0.8281    0.7551 C   0  0  0  0  0  0  0  0  0  0  0  0
    0.0378    2.0860    1.4999 H   0  0  0  0  0  0  0  0  0  0  0  0
    0.0267    0.3703    2.1780 H   0  0  0  0  0  0  0  0  0  0  0  0
    1.5649    1.1116    1.6909 H   0  0  0  0  0  0  0  0  0  0  0  0
    0.6822    1.2171   -0.6649 H   0  0  0  0  0  0  0  0  0  0  0  0
    0.8947   -1.5894    0.7040 H   0  0  0  0  0  0  0  0  0  0  0  0
    3.0207    0.6566    0.3359 H   0  0  0  0  0  0  0  0  0  0  0  0
    3.3081   -1.0742    1.0082 H   0  0  0  0  0  0  0  0  0  0  0  0
    2.5242   -2.0850   -1.1244 H   0  0  0  0  0  0  0  0  0  0  0  0
    2.3763   -0.3796   -1.8431 H   0  0  0  0  0  0  0  0  0  0  0  0
   -1.3291    2.1264   -0.8505 H   0  0  0  0  0  0  0  0  0  0  0  0
   -2.9116    1.2439   -0.5348 H   0  0  0  0  0  0  0  0  0  0  0  0
   -1.8718    1.7493    0.8659 H   0  0  0  0  0  0  0  0  0  0  0  0
   -2.1080   -1.1150   -1.6737 H   0  0  0  0  0  0  0  0  0  0  0  0
   -0.3485   -1.1028   -1.8934 H   0  0  0  0  0  0  0  0  0  0  0  0
   -1.2997    0.3412   -2.3531 H   0  0  0  0  0  0  0  0  0  0  0  0
   -1.8847   -0.3202    1.7229 H   0  0  0  0  0  0  0  0  0  0  0  0
   -2.7141   -1.0786    0.3492 H   0  0  0  0  0  0  0  0  0  0  0  0
   -1.1317   -1.7657    0.8557 H   0  0  0  0  0  0  0  0  0  0  0  0
  1  2  1  0
  2  3  1  0
  3  4  1  0
  4  5  1  0
  2  6  1  0
  6  7  1  0
  6  8  1  0
  6  9  1  0
  5  3  1  0
  1 10  1  0
  1 11  1  0
  1 12  1  0
  2 13  1  0
  3 14  1  0
  4 15  1  0
  4 16  1  0
  5 17  1  0
  5 18  1  0
  7 19  1  0
  7 20  1  0
  7 21  1  0
  8 22  1  0
  8 23  1  0
  8 24  1  0
  9 25  1  0
  9 26  1  0
  9 27  1  0
M  END
