
     RDKit          3D

 23 24  0  0  0  0  0  0  0  0999 V2000
   -1.6493    0.4225   -1.1398 C   0  0  0  0  0  0  0  0  0  0  0  0
   -1.1138    0.3549    0.2604 C   0  0  0  0  0  0  0  0  0  0  0  0
   -1.8913   -0.7263    1.0043 C   0  0  0  0  0  0  0  0  0  0  0  0
    0.3116    0.0030    0.3713 C   0  0  0  0  0  0  0  0  0  0  0  0
    0.8785   -1.2746   -0.1370 C   0  0  0  0  0  0  0  0  0  0  0  0
    2.0870   -0.4770   -0.6443 C   0  0  0  0  0  0  0  0  0  0  0  0
    1.4466    0.7703   -0.0730 C   0  0  0  0  0  0  0  0  0  0  0  0
    1.4041    1.9256   -0.8055 O   0  0  0  0  0  0  0  0  0  0  0  0
    1.1345    0.7457    1.3636 C   0  0  0  0  0  0  0  0  0  0  0  0
   -1.7450   -0.5704   -1.6160 H   0  0  0  0  0  0  0  0  0  0  0  0
   -1.1133    1.1314   -1.7743 H   0  0  0  0  0  0  0  0  0  0  0  0
   -2.7035    0.8154   -1.0554 H   0  0  0  0  0  0  0  0  0  0  0  0
   -1.2813    1.3453    0.7344 H   0  0  0  0  0  0  0  0  0  0  0  0
   -2.9617   -0.4978    1.0724 H   0  0  0  0  0  0  0  0  0  0  0  0
   -1.6710   -1.6911    0.4893 H   0  0  0  0  0  0  0  0  0  0  0  0
   -1.3994   -0.8019    2.0068 H   0  0  0  0  0  0  0  0  0  0  0  0
    1.1161   -1.9498    0.7136 H   0  0  0  0  0  0  0  0  0  0  0  0
    0.3203   -1.7794   -0.9478 H   0  0  0  0  0  0  0  0  0  0  0  0
    2.1102   -0.4756   -1.7585 H   0  0  0  0  0  0  0  0  0  0  0  0
    2.9902   -0.8252   -0.1372 H   0  0  0  0  0  0  0  0  0  0  0  0
    1.2721    1.7857   -1.7730 H   0  0  0  0  0  0  0  0  0  0  0  0
    0.7095    1.6582    1.8230 H   0  0  0  0  0  0  0  0  0  0  0  0
    1.7490    0.1110    2.0226 H   0  0  0  0  0  0  0  0  0  0  0  0
  1  2  1  0
  2  3  1  0
  2  4  1  0
  4  5  1  0
  5  6  1  0
  6  7  1  0
  7  8  1  0
  7  9  1  0
  7  4  1  0
  9  4  1  0
  1 10  1  0
  1 11  1  0
  1 12  1  0
  2 13  1  0
  3 14  1  0
  3 15  1  0
  3 16  1  0
  5 17  1  0
  5 18  1  0
  6 19  1  0
  6 20  1  0
  8 21  1  0
  9 22  1  0
  9 23  1  0
M  END
