
     RDKit          3D

 23 23  0  0  0  0  0  0  0  0999 V2000
   -2.0536   -1.1562    0.0654 C   0  0  0  0  0  0  0  0  0  0  0  0
   -1.6315    0.1988    0.6486 C   0  0  0  0  0  0  0  0  0  0  0  0
   -2.2503    1.2458   -0.2833 C   0  0  0  0  0  0  0  0  0  0  0  0
   -0.1461    0.2244    0.5767 C   0  0  0  0  0  0  0  0  0  0  0  0
    0.4464    0.3462    1.6397 O   0  0  0  0  0  0  0  0  0  0  0  0
    0.5379    0.1072   -0.7196 C   0  0  0  0  0  0  0  0  0  0  0  0
    1.7344    1.0008   -1.0021 C   0  0  0  0  0  0  0  0  0  0  0  0
    1.8777   -0.5005   -0.8559 C   0  0  0  0  0  0  0  0  0  0  0  0
    2.6816   -0.9110    0.3546 C   0  0  0  0  0  0  0  0  0  0  0  0
   -3.1339   -1.2522    0.2726 H   0  0  0  0  0  0  0  0  0  0  0  0
   -1.8737   -1.0907   -1.0113 H   0  0  0  0  0  0  0  0  0  0  0  0
   -1.5174   -1.9907    0.5542 H   0  0  0  0  0  0  0  0  0  0  0  0
   -2.0241    0.3647    1.6476 H   0  0  0  0  0  0  0  0  0  0  0  0
   -1.9007    1.1122   -1.3243 H   0  0  0  0  0  0  0  0  0  0  0  0
   -2.0244    2.2340    0.1124 H   0  0  0  0  0  0  0  0  0  0  0  0
   -3.3465    1.0167   -0.3013 H   0  0  0  0  0  0  0  0  0  0  0  0
   -0.1203    0.0022   -1.6060 H   0  0  0  0  0  0  0  0  0  0  0  0
    2.0475    1.6525   -0.1502 H   0  0  0  0  0  0  0  0  0  0  0  0
    1.8549    1.4688   -1.9770 H   0  0  0  0  0  0  0  0  0  0  0  0
    2.1249   -1.0450   -1.7879 H   0  0  0  0  0  0  0  0  0  0  0  0
    3.2472   -0.0537    0.7974 H   0  0  0  0  0  0  0  0  0  0  0  0
    3.4495   -1.6634    0.0787 H   0  0  0  0  0  0  0  0  0  0  0  0
    2.0207   -1.3109    1.1474 H   0  0  0  0  0  0  0  0  0  0  0  0
  1  2  1  0
  2  3  1  0
  2  4  1  0
  4  5  2  0
  4  6  1  0
  6  7  1  0
  7  8  1  0
  8  9  1  0
  8  6  1  0
  1 10  1  0
  1 11  1  0
  1 12  1  0
  2 13  1  0
  3 14  1  0
  3 15  1  0
  3 16  1  0
  6 17  1  0
  7 18  1  0
  7 19  1  0
  8 20  1  0
  9 21  1  0
  9 22  1  0
  9 23  1  0
M  END
