
     RDKit          3D

 23 24  0  0  0  0  0  0  0  0999 V2000
   -1.1365   -1.0697    1.1591 C   0  0  0  0  0  0  0  0  0  0  0  0
   -0.7549   -0.0732    0.0617 C   0  0  0  0  0  0  0  0  0  0  0  0
   -1.0519   -0.7498   -1.2508 C   0  0  0  0  0  0  0  0  0  0  0  0
   -1.7077    1.0973    0.2008 C   0  0  0  0  0  0  0  0  0  0  0  0
    0.6426    0.3274    0.2632 C   0  0  0  0  0  0  0  0  0  0  0  0
    1.2235    1.3291   -0.7378 C   0  0  0  0  0  0  0  0  0  0  0  0
    1.7804   -0.0110   -0.5836 C   0  0  0  0  0  0  0  0  0  0  0  0
    2.5372   -0.2869    0.6988 C   0  0  0  0  0  0  0  0  0  0  0  0
    1.3615    0.0459    1.3941 O   0  0  0  0  0  0  0  0  0  0  0  0
   -0.9944   -0.5443    2.1265 H   0  0  0  0  0  0  0  0  0  0  0  0
   -0.4368   -1.9519    1.0809 H   0  0  0  0  0  0  0  0  0  0  0  0
   -2.1627   -1.4321    1.0032 H   0  0  0  0  0  0  0  0  0  0  0  0
   -0.5503   -1.7597   -1.3174 H   0  0  0  0  0  0  0  0  0  0  0  0
   -0.8259   -0.1526   -2.1312 H   0  0  0  0  0  0  0  0  0  0  0  0
   -2.1400   -0.9798   -1.2627 H   0  0  0  0  0  0  0  0  0  0  0  0
   -1.3941    1.7900    1.0059 H   0  0  0  0  0  0  0  0  0  0  0  0
   -1.8821    1.6206   -0.7602 H   0  0  0  0  0  0  0  0  0  0  0  0
   -2.7027    0.6734    0.4934 H   0  0  0  0  0  0  0  0  0  0  0  0
    1.6732    2.2021   -0.2412 H   0  0  0  0  0  0  0  0  0  0  0  0
    0.5925    1.5666   -1.6021 H   0  0  0  0  0  0  0  0  0  0  0  0
    1.7603   -0.7728   -1.3829 H   0  0  0  0  0  0  0  0  0  0  0  0
    3.3114    0.4720    0.9426 H   0  0  0  0  0  0  0  0  0  0  0  0
    2.8573   -1.3406    0.8397 H   0  0  0  0  0  0  0  0  0  0  0  0
  1  2  1  0
  2  3  1  0
  2  4  1  0
  2  5  1  0
  5  6  1  0
  6  7  1  0
  7  8  1  0
  8  9  1  0
  7  5  1  0
  9  5  1  0
  1 10  1  0
  1 11  1  0
  1 12  1  0
  3 13  1  0
  3 14  1  0
  3 15  1  0
  4 16  1  0
  4 17  1  0
  4 18  1  0
  6 19  1  0
  6 20  1  0
  7 21  1  0
  8 22  1  0
  8 23  1  0
M  END
