
     RDKit          3D

 21 22  0  0  0  0  0  0  0  0999 V2000
   -2.1504    0.7083    0.8872 C   0  0  0  0  0  0  0  0  0  0  0  0
   -1.1744   -0.1607    0.0812 C   0  0  0  0  0  0  0  0  0  0  0  0
   -1.9742   -0.8197   -1.0013 C   0  0  0  0  0  0  0  0  0  0  0  0
   -0.1661    0.7811   -0.5174 C   0  0  0  0  0  0  0  0  0  0  0  0
    0.5244    1.4939    0.5886 O   0  0  0  0  0  0  0  0  0  0  0  0
    1.2421    0.6395   -0.3958 C   0  0  0  0  0  0  0  0  0  0  0  0
    1.8680   -0.4952    0.3858 C   0  0  0  0  0  0  0  0  0  0  0  0
    3.3703   -0.5470    0.3822 C   0  0  0  0  0  0  0  0  0  0  0  0
    2.6156   -1.4302   -0.4509 O   0  0  0  0  0  0  0  0  0  0  0  0
   -2.7581    0.0888    1.5476 H   0  0  0  0  0  0  0  0  0  0  0  0
   -1.6236    1.5426    1.3733 H   0  0  0  0  0  0  0  0  0  0  0  0
   -2.8412    1.1450    0.1157 H   0  0  0  0  0  0  0  0  0  0  0  0
   -0.7208   -0.9388    0.7154 H   0  0  0  0  0  0  0  0  0  0  0  0
   -2.2929   -0.0837   -1.7682 H   0  0  0  0  0  0  0  0  0  0  0  0
   -2.9000   -1.2376   -0.5193 H   0  0  0  0  0  0  0  0  0  0  0  0
   -1.4152   -1.6703   -1.4430 H   0  0  0  0  0  0  0  0  0  0  0  0
   -0.5960    1.5415   -1.1816 H   0  0  0  0  0  0  0  0  0  0  0  0
    1.9062    1.2327   -1.0415 H   0  0  0  0  0  0  0  0  0  0  0  0
    1.2880   -0.9619    1.1867 H   0  0  0  0  0  0  0  0  0  0  0  0
    3.8929    0.2841   -0.1185 H   0  0  0  0  0  0  0  0  0  0  0  0
    3.9053   -1.1123    1.1739 H   0  0  0  0  0  0  0  0  0  0  0  0
  1  2  1  0
  2  3  1  0
  2  4  1  0
  4  5  1  0
  5  6  1  0
  6  7  1  0
  7  8  1  0
  8  9  1  0
  6  4  1  0
  9  7  1  0
  1 10  1  0
  1 11  1  0
  1 12  1  0
  2 13  1  0
  3 14  1  0
  3 15  1  0
  3 16  1  0
  4 17  1  0
  6 18  1  0
  7 19  1  0
  8 20  1  0
  8 21  1  0
M  END
