
     RDKit          3D

 21 20  0  0  0  0  0  0  0  0999 V2000
   -2.0232   -1.2768   -0.4316 C   0  0  0  0  0  0  0  0  0  0  0  0
   -0.9896   -0.3651    0.2688 C   0  0  0  0  0  0  0  0  0  0  0  0
    0.3234   -1.0624    0.1163 C   0  0  0  0  0  0  0  0  0  0  0  0
    1.5155   -0.4058    0.7054 C   0  0  0  0  0  0  0  0  0  0  0  0
    1.8742    0.9406    0.1736 C   0  0  0  0  0  0  0  0  0  0  0  0
    2.1255    0.8577   -1.2152 O   0  0  0  0  0  0  0  0  0  0  0  0
   -1.1069    0.8815   -0.3610 O   0  0  0  0  0  0  0  0  0  0  0  0
   -1.6266    1.9251    0.3968 C   0  0  0  0  0  0  0  0  0  0  0  0
   -1.9898    1.8331    1.5771 O   0  0  0  0  0  0  0  0  0  0  0  0
   -3.0389   -1.0577   -0.0541 H   0  0  0  0  0  0  0  0  0  0  0  0
   -1.7786   -2.3071   -0.0954 H   0  0  0  0  0  0  0  0  0  0  0  0
   -1.9566   -1.1320   -1.5157 H   0  0  0  0  0  0  0  0  0  0  0  0
   -1.2955   -0.3480    1.3396 H   0  0  0  0  0  0  0  0  0  0  0  0
    0.4855   -1.3578   -0.9518 H   0  0  0  0  0  0  0  0  0  0  0  0
    0.2023   -2.0567    0.6537 H   0  0  0  0  0  0  0  0  0  0  0  0
    2.4267   -1.0552    0.5331 H   0  0  0  0  0  0  0  0  0  0  0  0
    1.4337   -0.3304    1.8255 H   0  0  0  0  0  0  0  0  0  0  0  0
    1.1876    1.7521    0.3662 H   0  0  0  0  0  0  0  0  0  0  0  0
    2.9100    1.1645    0.5932 H   0  0  0  0  0  0  0  0  0  0  0  0
    3.0352    0.5151   -1.3981 H   0  0  0  0  0  0  0  0  0  0  0  0
   -1.7140    2.8854   -0.0972 H   0  0  0  0  0  0  0  0  0  0  0  0
  1  2  1  0
  2  3  1  0
  3  4  1  0
  4  5  1  0
  5  6  1  0
  2  7  1  0
  7  8  1  0
  8  9  2  0
  1 10  1  0
  1 11  1  0
  1 12  1  0
  2 13  1  0
  3 14  1  0
  3 15  1  0
  4 16  1  0
  4 17  1  0
  5 18  1  0
  5 19  1  0
  6 20  1  0
  8 21  1  0
M  END
