
     RDKit          3D

 19 18  0  0  0  0  0  0  0  0999 V2000
    0.2901   -0.5861    1.4252 C   0  0  0  0  0  0  0  0  0  0  0  0
    0.0364    0.1470    0.1186 C   0  0  0  0  0  0  0  0  0  0  0  0
   -1.1290   -0.4903   -0.5434 C   0  0  0  0  0  0  0  0  0  0  0  0
   -0.8722   -1.7525   -1.0549 O   0  0  0  0  0  0  0  0  0  0  0  0
   -0.4210    1.5614    0.5691 C   0  0  0  0  0  0  0  0  0  0  0  0
   -0.6685    2.2584   -0.6080 O   0  0  0  0  0  0  0  0  0  0  0  0
    1.1646    0.3688   -0.6367 O   0  0  0  0  0  0  0  0  0  0  0  0
    2.0038   -0.6055   -1.1146 C   0  0  0  0  0  0  0  0  0  0  0  0
    1.7004   -1.7849   -0.8227 O   0  0  0  0  0  0  0  0  0  0  0  0
   -0.6801   -0.5677    1.9806 H   0  0  0  0  0  0  0  0  0  0  0  0
    0.5909   -1.6364    1.2292 H   0  0  0  0  0  0  0  0  0  0  0  0
    1.0841   -0.0274    1.9537 H   0  0  0  0  0  0  0  0  0  0  0  0
   -1.9050   -0.6497    0.2634 H   0  0  0  0  0  0  0  0  0  0  0  0
   -1.5860    0.1372   -1.3453 H   0  0  0  0  0  0  0  0  0  0  0  0
   -1.7578   -2.2169   -1.1232 H   0  0  0  0  0  0  0  0  0  0  0  0
   -1.3020    1.4493    1.2128 H   0  0  0  0  0  0  0  0  0  0  0  0
    0.4260    2.0472    1.1048 H   0  0  0  0  0  0  0  0  0  0  0  0
    0.1315    2.7349   -0.8900 H   0  0  0  0  0  0  0  0  0  0  0  0
    2.8939   -0.3867   -1.7187 H   0  0  0  0  0  0  0  0  0  0  0  0
  1  2  1  0
  2  3  1  0
  3  4  1  0
  2  5  1  0
  5  6  1  0
  2  7  1  0
  7  8  1  0
  8  9  2  0
  1 10  1  0
  1 11  1  0
  1 12  1  0
  3 13  1  0
  3 14  1  0
  4 15  1  0
  5 16  1  0
  5 17  1  0
  6 18  1  0
  8 19  1  0
M  END
