
     RDKit          3D

 15 14  0  0  0  0  0  0  0  0999 V2000
   -0.8983   -0.3246    1.6056 C   0  0  0  0  0  0  0  0  0  0  0  0
   -0.4381   -0.5026    0.2010 C   0  0  0  0  0  0  0  0  0  0  0  0
    0.6803    0.4611   -0.0187 C   0  0  0  0  0  0  0  0  0  0  0  0
    1.5880    1.2305   -0.1769 C   0  0  0  0  0  0  0  0  0  0  0  0
    2.6724    2.1441   -0.3575 C   0  0  0  0  0  0  0  0  0  0  0  0
    2.7972    2.7011   -1.4902 O   0  0  0  0  0  0  0  0  0  0  0  0
   -1.4211   -0.3850   -0.7684 O   0  0  0  0  0  0  0  0  0  0  0  0
   -1.7678   -1.4093   -1.6378 C   0  0  0  0  0  0  0  0  0  0  0  0
   -1.1065   -2.4849   -1.4787 O   0  0  0  0  0  0  0  0  0  0  0  0
   -1.8086   -0.9421    1.8295 H   0  0  0  0  0  0  0  0  0  0  0  0
   -1.0773    0.7239    1.8996 H   0  0  0  0  0  0  0  0  0  0  0  0
   -0.0849   -0.7153    2.2725 H   0  0  0  0  0  0  0  0  0  0  0  0
   -0.0183   -1.5497    0.1202 H   0  0  0  0  0  0  0  0  0  0  0  0
    3.3992    2.4033    0.3908 H   0  0  0  0  0  0  0  0  0  0  0  0
   -2.5161   -1.3504   -2.3910 H   0  0  0  0  0  0  0  0  0  0  0  0
  1  2  1  0
  2  3  1  0
  3  4  3  0
  4  5  1  0
  5  6  2  0
  2  7  1  0
  7  8  1  0
  8  9  2  0
  1 10  1  0
  1 11  1  0
  1 12  1  0
  2 13  1  0
  5 14  1  0
  8 15  1  0
M  END
