
     RDKit          3D

 27 26  0  0  0  0  0  0  0  0999 V2000
    1.3958    1.2220    0.8409 C   0  0  0  0  0  0  0  0  0  0  0  0
    1.1888   -0.0650    0.0676 C   0  0  0  0  0  0  0  0  0  0  0  0
    1.3506   -1.1893    1.0698 C   0  0  0  0  0  0  0  0  0  0  0  0
    2.4556   -0.1725   -0.8128 C   0  0  0  0  0  0  0  0  0  0  0  0
    0.1500   -0.1255   -0.7423 O   0  0  0  0  0  0  0  0  0  0  0  0
   -1.1241    0.0017   -0.4003 C   0  0  0  0  0  0  0  0  0  0  0  0
   -1.5478    1.2958    0.2415 C   0  0  0  0  0  0  0  0  0  0  0  0
   -1.7230   -1.1121    0.4285 C   0  0  0  0  0  0  0  0  0  0  0  0
   -1.9096   -0.0314   -1.7337 C   0  0  0  0  0  0  0  0  0  0  0  0
    2.4823    1.2052    1.1576 H   0  0  0  0  0  0  0  0  0  0  0  0
    1.2752    2.1218    0.2437 H   0  0  0  0  0  0  0  0  0  0  0  0
    0.8483    1.2211    1.8057 H   0  0  0  0  0  0  0  0  0  0  0  0
    0.7409   -1.0513    1.9731 H   0  0  0  0  0  0  0  0  0  0  0  0
    2.4174   -1.1310    1.4166 H   0  0  0  0  0  0  0  0  0  0  0  0
    1.2468   -2.1918    0.6063 H   0  0  0  0  0  0  0  0  0  0  0  0
    2.3512    0.6526   -1.5492 H   0  0  0  0  0  0  0  0  0  0  0  0
    3.3637   -0.1196   -0.2128 H   0  0  0  0  0  0  0  0  0  0  0  0
    2.3315   -1.1183   -1.3677 H   0  0  0  0  0  0  0  0  0  0  0  0
   -2.6553    1.4101    0.0374 H   0  0  0  0  0  0  0  0  0  0  0  0
   -1.0809    2.1832   -0.1999 H   0  0  0  0  0  0  0  0  0  0  0  0
   -1.4981    1.2589    1.3507 H   0  0  0  0  0  0  0  0  0  0  0  0
   -1.3325   -2.1014    0.1915 H   0  0  0  0  0  0  0  0  0  0  0  0
   -2.8153   -1.1336    0.2212 H   0  0  0  0  0  0  0  0  0  0  0  0
   -1.6567   -0.8806    1.5321 H   0  0  0  0  0  0  0  0  0  0  0  0
   -1.6252   -0.9465   -2.3061 H   0  0  0  0  0  0  0  0  0  0  0  0
   -2.9931   -0.0515   -1.5127 H   0  0  0  0  0  0  0  0  0  0  0  0
   -1.6363    0.8489   -2.3468 H   0  0  0  0  0  0  0  0  0  0  0  0
  1  2  1  0
  2  3  1  0
  2  4  1  0
  2  5  1  0
  5  6  1  0
  6  7  1  0
  6  8  1  0
  6  9  1  0
  1 10  1  0
  1 11  1  0
  1 12  1  0
  3 13  1  0
  3 14  1  0
  3 15  1  0
  4 16  1  0
  4 17  1  0
  4 18  1  0
  7 19  1  0
  7 20  1  0
  7 21  1  0
  8 22  1  0
  8 23  1  0
  8 24  1  0
  9 25  1  0
  9 26  1  0
  9 27  1  0
M  END
