
     RDKit          3D

 20 19  0  0  0  0  0  0  0  0999 V2000
   -2.3457   -0.9652    0.2729 C   0  0  0  0  0  0  0  0  0  0  0  0
   -1.2306   -0.2324   -0.4489 C   0  0  0  0  0  0  0  0  0  0  0  0
   -1.4717    1.2670   -0.4403 C   0  0  0  0  0  0  0  0  0  0  0  0
    0.0923   -0.5372    0.1204 C   0  0  0  0  0  0  0  0  0  0  0  0
    0.1889   -1.2926    1.0519 O   0  0  0  0  0  0  0  0  0  0  0  0
    1.3005    0.0820   -0.4490 C   0  0  0  0  0  0  0  0  0  0  0  0
    2.5706   -0.3291    0.2415 C   0  0  0  0  0  0  0  0  0  0  0  0
    3.6294    0.3223   -0.3892 O   0  0  0  0  0  0  0  0  0  0  0  0
   -2.8392   -1.7247   -0.3667 H   0  0  0  0  0  0  0  0  0  0  0  0
   -3.1259   -0.2143    0.5220 H   0  0  0  0  0  0  0  0  0  0  0  0
   -1.9439   -1.4663    1.1851 H   0  0  0  0  0  0  0  0  0  0  0  0
   -1.3126   -0.5423   -1.5295 H   0  0  0  0  0  0  0  0  0  0  0  0
   -2.5079    1.4589   -0.0395 H   0  0  0  0  0  0  0  0  0  0  0  0
   -1.4745    1.7044   -1.4560 H   0  0  0  0  0  0  0  0  0  0  0  0
   -0.7142    1.7594    0.2316 H   0  0  0  0  0  0  0  0  0  0  0  0
    1.3280   -0.1553   -1.5238 H   0  0  0  0  0  0  0  0  0  0  0  0
    1.1603    1.1991   -0.3543 H   0  0  0  0  0  0  0  0  0  0  0  0
    2.7135   -1.4233    0.0145 H   0  0  0  0  0  0  0  0  0  0  0  0
    2.5499   -0.2163    1.3204 H   0  0  0  0  0  0  0  0  0  0  0  0
    3.4329    1.3059   -0.2904 H   0  0  0  0  0  0  0  0  0  0  0  0
  1  2  1  0
  2  3  1  0
  2  4  1  0
  4  5  2  0
  4  6  1  0
  6  7  1  0
  7  8  1  0
  1  9  1  0
  1 10  1  0
  1 11  1  0
  2 12  1  0
  3 13  1  0
  3 14  1  0
  3 15  1  0
  6 16  1  0
  6 17  1  0
  7 18  1  0
  7 19  1  0
  8 20  1  0
M  END
