
     RDKit          3D

 21 21  0  0  0  0  0  0  0  0999 V2000
   -1.3717    0.2585    0.8180 C   0  0  0  0  0  0  0  0  0  0  0  0
   -0.8128    0.4109   -0.5590 C   0  0  0  0  0  0  0  0  0  0  0  0
   -1.5254   -0.5711   -1.4638 C   0  0  0  0  0  0  0  0  0  0  0  0
    0.6795    0.2727   -0.6261 C   0  0  0  0  0  0  0  0  0  0  0  0
    1.3329    1.3351    0.2412 C   0  0  0  0  0  0  0  0  0  0  0  0
    1.3483    0.3153    1.3295 C   0  0  0  0  0  0  0  0  0  0  0  0
    1.3706    0.4179    2.5436 O   0  0  0  0  0  0  0  0  0  0  0  0
    1.3251   -0.7062    0.2734 C   0  0  0  0  0  0  0  0  0  0  0  0
    0.7013   -1.8903    0.5370 O   0  0  0  0  0  0  0  0  0  0  0  0
   -2.4927    0.3616    0.7158 H   0  0  0  0  0  0  0  0  0  0  0  0
   -1.0800    1.0919    1.4950 H   0  0  0  0  0  0  0  0  0  0  0  0
   -1.2058   -0.7367    1.2368 H   0  0  0  0  0  0  0  0  0  0  0  0
   -1.1103    1.4322   -0.9206 H   0  0  0  0  0  0  0  0  0  0  0  0
   -0.7396   -1.0194   -2.1165 H   0  0  0  0  0  0  0  0  0  0  0  0
   -1.9380   -1.4305   -0.8779 H   0  0  0  0  0  0  0  0  0  0  0  0
   -2.3158   -0.1123   -2.0697 H   0  0  0  0  0  0  0  0  0  0  0  0
    1.0726    0.2144   -1.6535 H   0  0  0  0  0  0  0  0  0  0  0  0
    2.3528    1.6161   -0.1073 H   0  0  0  0  0  0  0  0  0  0  0  0
    0.6610    2.2069    0.4302 H   0  0  0  0  0  0  0  0  0  0  0  0
    2.3830   -0.9049   -0.0667 H   0  0  0  0  0  0  0  0  0  0  0  0
    1.3649   -2.5621    0.8407 H   0  0  0  0  0  0  0  0  0  0  0  0
  1  2  1  0
  2  3  1  0
  2  4  1  0
  4  5  1  0
  5  6  1  0
  6  7  2  0
  6  8  1  0
  8  9  1  0
  8  4  1  0
  1 10  1  0
  1 11  1  0
  1 12  1  0
  2 13  1  0
  3 14  1  0
  3 15  1  0
  3 16  1  0
  4 17  1  0
  5 18  1  0
  5 19  1  0
  8 20  1  0
  9 21  1  0
M  END
