
     RDKit          3D

 21 20  0  0  0  0  0  0  0  0999 V2000
   -0.9169   -1.2230    1.2805 C   0  0  0  0  0  0  0  0  0  0  0  0
   -1.4163    0.0842    0.7219 C   0  0  0  0  0  0  0  0  0  0  0  0
   -2.9145    0.0775    0.4949 C   0  0  0  0  0  0  0  0  0  0  0  0
   -0.7671    0.2728   -0.6363 C   0  0  0  0  0  0  0  0  0  0  0  0
   -1.2055    1.4723   -1.1839 O   0  0  0  0  0  0  0  0  0  0  0  0
    0.6860    0.2997   -0.3966 C   0  0  0  0  0  0  0  0  0  0  0  0
    1.8849    0.3313   -0.2168 C   0  0  0  0  0  0  0  0  0  0  0  0
    3.3338    0.3512   -0.0059 C   0  0  0  0  0  0  0  0  0  0  0  0
    3.9287   -0.3087   -1.0963 O   0  0  0  0  0  0  0  0  0  0  0  0
   -0.8159   -1.1304    2.3828 H   0  0  0  0  0  0  0  0  0  0  0  0
    0.0951   -1.4267    0.8745 H   0  0  0  0  0  0  0  0  0  0  0  0
   -1.6211   -2.0595    1.1025 H   0  0  0  0  0  0  0  0  0  0  0  0
   -1.1341    0.8902    1.4334 H   0  0  0  0  0  0  0  0  0  0  0  0
   -3.4039    0.5714    1.3830 H   0  0  0  0  0  0  0  0  0  0  0  0
   -3.3178   -0.9340    0.3468 H   0  0  0  0  0  0  0  0  0  0  0  0
   -3.1323    0.7115   -0.3748 H   0  0  0  0  0  0  0  0  0  0  0  0
   -1.0682   -0.5768   -1.2650 H   0  0  0  0  0  0  0  0  0  0  0  0
   -0.4462    1.8074   -1.7491 H   0  0  0  0  0  0  0  0  0  0  0  0
    3.5915   -0.1266    0.9561 H   0  0  0  0  0  0  0  0  0  0  0  0
    3.7368    1.3909   -0.0166 H   0  0  0  0  0  0  0  0  0  0  0  0
    4.9029   -0.4745   -0.9085 H   0  0  0  0  0  0  0  0  0  0  0  0
  1  2  1  0
  2  3  1  0
  2  4  1  0
  4  5  1  0
  4  6  1  0
  6  7  3  0
  7  8  1  0
  8  9  1  0
  1 10  1  0
  1 11  1  0
  1 12  1  0
  2 13  1  0
  3 14  1  0
  3 15  1  0
  3 16  1  0
  4 17  1  0
  5 18  1  0
  8 19  1  0
  8 20  1  0
  9 21  1  0
M  END
