
     RDKit          3D

 22 22  0  0  0  0  0  0  0  0999 V2000
    1.0764    1.5291    0.0847 C   0  0  0  0  0  0  0  0  0  0  0  0
    1.1365    0.0452   -0.1578 C   0  0  0  0  0  0  0  0  0  0  0  0
    2.5102   -0.3992    0.3679 C   0  0  0  0  0  0  0  0  0  0  0  0
    0.1142   -0.7618    0.5350 C   0  0  0  0  0  0  0  0  0  0  0  0
   -1.3185   -0.4825    0.2218 C   0  0  0  0  0  0  0  0  0  0  0  0
   -1.8765    0.8894    0.4984 C   0  0  0  0  0  0  0  0  0  0  0  0
   -2.1092   -1.3828   -0.6032 C   0  0  0  0  0  0  0  0  0  0  0  0
   -2.2512   -1.4955    0.7835 O   0  0  0  0  0  0  0  0  0  0  0  0
    0.2710    2.0536   -0.4412 H   0  0  0  0  0  0  0  0  0  0  0  0
    1.0265    1.7848    1.1674 H   0  0  0  0  0  0  0  0  0  0  0  0
    2.0588    1.9591   -0.2427 H   0  0  0  0  0  0  0  0  0  0  0  0
    1.1522   -0.1033   -1.2653 H   0  0  0  0  0  0  0  0  0  0  0  0
    2.6806   -1.4099   -0.0837 H   0  0  0  0  0  0  0  0  0  0  0  0
    2.4388   -0.4595    1.4759 H   0  0  0  0  0  0  0  0  0  0  0  0
    3.3151    0.2438    0.0035 H   0  0  0  0  0  0  0  0  0  0  0  0
    0.2510   -0.6478    1.6514 H   0  0  0  0  0  0  0  0  0  0  0  0
    0.3148   -1.8582    0.3733 H   0  0  0  0  0  0  0  0  0  0  0  0
   -2.0241    1.4782   -0.4333 H   0  0  0  0  0  0  0  0  0  0  0  0
   -1.3235    1.4715    1.2449 H   0  0  0  0  0  0  0  0  0  0  0  0
   -2.9235    0.8059    0.9184 H   0  0  0  0  0  0  0  0  0  0  0  0
   -1.5786   -2.2612   -1.0392 H   0  0  0  0  0  0  0  0  0  0  0  0
   -2.9412   -0.9991   -1.2115 H   0  0  0  0  0  0  0  0  0  0  0  0
  1  2  1  0
  2  3  1  0
  2  4  1  0
  4  5  1  0
  5  6  1  0
  5  7  1  0
  7  8  1  0
  8  5  1  0
  1  9  1  0
  1 10  1  0
  1 11  1  0
  2 12  1  0
  3 13  1  0
  3 14  1  0
  3 15  1  0
  4 16  1  0
  4 17  1  0
  6 18  1  0
  6 19  1  0
  6 20  1  0
  7 21  1  0
  7 22  1  0
M  END
