
     RDKit          3D

 23 23  0  0  0  0  0  0  0  0999 V2000
    1.6034   -0.7511    0.9446 C   0  0  0  0  0  0  0  0  0  0  0  0
    0.9184    0.3942    0.2492 C   0  0  0  0  0  0  0  0  0  0  0  0
    1.9447    1.0426   -0.6850 C   0  0  0  0  0  0  0  0  0  0  0  0
    3.0411    1.5185   -0.0066 O   0  0  0  0  0  0  0  0  0  0  0  0
   -0.1906   -0.1219   -0.6355 C   0  0  0  0  0  0  0  0  0  0  0  0
   -1.2458   -0.8721    0.0847 C   0  0  0  0  0  0  0  0  0  0  0  0
   -2.0644   -0.2795    1.1603 C   0  0  0  0  0  0  0  0  0  0  0  0
   -2.6800   -0.4203   -0.2227 C   0  0  0  0  0  0  0  0  0  0  0  0
   -2.8442    0.7997   -0.8753 O   0  0  0  0  0  0  0  0  0  0  0  0
    2.6993   -0.6513    0.9730 H   0  0  0  0  0  0  0  0  0  0  0  0
    1.2883   -1.7309    0.4847 H   0  0  0  0  0  0  0  0  0  0  0  0
    1.2794   -0.8418    2.0195 H   0  0  0  0  0  0  0  0  0  0  0  0
    0.5941    1.1346    0.9831 H   0  0  0  0  0  0  0  0  0  0  0  0
    2.3016    0.3104   -1.4373 H   0  0  0  0  0  0  0  0  0  0  0  0
    1.4537    1.8683   -1.2286 H   0  0  0  0  0  0  0  0  0  0  0  0
    3.8923    1.3606   -0.5161 H   0  0  0  0  0  0  0  0  0  0  0  0
    0.2718   -0.7867   -1.3927 H   0  0  0  0  0  0  0  0  0  0  0  0
   -0.6187    0.7391   -1.2164 H   0  0  0  0  0  0  0  0  0  0  0  0
   -1.1279   -1.9824    0.0879 H   0  0  0  0  0  0  0  0  0  0  0  0
   -1.8871    0.7271    1.5689 H   0  0  0  0  0  0  0  0  0  0  0  0
   -2.4956   -0.9796    1.8994 H   0  0  0  0  0  0  0  0  0  0  0  0
   -3.4402   -1.2046   -0.3945 H   0  0  0  0  0  0  0  0  0  0  0  0
   -2.6936    0.7269   -1.8444 H   0  0  0  0  0  0  0  0  0  0  0  0
  1  2  1  0
  2  3  1  0
  3  4  1  0
  2  5  1  0
  5  6  1  0
  6  7  1  0
  7  8  1  0
  8  9  1  0
  8  6  1  0
  1 10  1  0
  1 11  1  0
  1 12  1  0
  2 13  1  0
  3 14  1  0
  3 15  1  0
  4 16  1  0
  5 17  1  0
  5 18  1  0
  6 19  1  0
  7 20  1  0
  7 21  1  0
  8 22  1  0
  9 23  1  0
M  END
