
     RDKit          3D

 15 14  0  0  0  0  0  0  0  0999 V2000
   -0.2768    1.3471   -0.2791 C   0  0  0  0  0  0  0  0  0  0  0  0
   -0.3020   -0.1513   -0.3515 C   0  0  0  0  0  0  0  0  0  0  0  0
   -1.6213   -0.7006    0.0849 C   0  0  0  0  0  0  0  0  0  0  0  0
    0.8282   -0.6666    0.4767 C   0  0  0  0  0  0  0  0  0  0  0  0
    0.5756   -1.4233    1.4558 O   0  0  0  0  0  0  0  0  0  0  0  0
    2.1950   -0.3082    0.1678 C   0  0  0  0  0  0  0  0  0  0  0  0
    2.5024    0.4353   -0.7868 O   0  0  0  0  0  0  0  0  0  0  0  0
   -0.2144    1.8087   -1.2868 H   0  0  0  0  0  0  0  0  0  0  0  0
    0.6088    1.7303    0.2946 H   0  0  0  0  0  0  0  0  0  0  0  0
   -1.1726    1.6900    0.2923 H   0  0  0  0  0  0  0  0  0  0  0  0
   -0.1142   -0.5138   -1.3960 H   0  0  0  0  0  0  0  0  0  0  0  0
   -2.1869   -1.1596   -0.7690 H   0  0  0  0  0  0  0  0  0  0  0  0
   -1.5212   -1.5136    0.8494 H   0  0  0  0  0  0  0  0  0  0  0  0
   -2.2812    0.1214    0.4651 H   0  0  0  0  0  0  0  0  0  0  0  0
    2.9805   -0.6957    0.7826 H   0  0  0  0  0  0  0  0  0  0  0  0
  1  2  1  0
  2  3  1  0
  2  4  1  0
  4  5  2  0
  4  6  1  0
  6  7  2  0
  1  8  1  0
  1  9  1  0
  1 10  1  0
  2 11  1  0
  3 12  1  0
  3 13  1  0
  3 14  1  0
  6 15  1  0
M  END
