
     RDKit          3D

 21 21  0  0  0  0  0  0  0  0999 V2000
   -1.9818    0.6443   -0.5065 C   0  0  0  0  0  0  0  0  0  0  0  0
   -0.9926   -0.0750    0.3919 C   0  0  0  0  0  0  0  0  0  0  0  0
   -1.4006   -1.5206    0.4470 C   0  0  0  0  0  0  0  0  0  0  0  0
   -1.1899    0.4692    1.6837 O   0  0  0  0  0  0  0  0  0  0  0  0
    0.4050    0.1194   -0.0156 C   0  0  0  0  0  0  0  0  0  0  0  0
    1.3044   -0.7868   -0.3789 C   0  0  0  0  0  0  0  0  0  0  0  0
    2.5853   -0.1042   -0.7026 C   0  0  0  0  0  0  0  0  0  0  0  0
    2.1688    1.1759   -1.0087 O   0  0  0  0  0  0  0  0  0  0  0  0
    1.1204    1.4313   -0.1081 C   0  0  0  0  0  0  0  0  0  0  0  0
   -2.9872    0.2424   -0.2421 H   0  0  0  0  0  0  0  0  0  0  0  0
   -1.9426    1.7189   -0.2457 H   0  0  0  0  0  0  0  0  0  0  0  0
   -1.7843    0.4475   -1.5714 H   0  0  0  0  0  0  0  0  0  0  0  0
   -1.6968   -1.8992   -0.5584 H   0  0  0  0  0  0  0  0  0  0  0  0
   -2.2137   -1.6987    1.2030 H   0  0  0  0  0  0  0  0  0  0  0  0
   -0.5307   -2.1047    0.8250 H   0  0  0  0  0  0  0  0  0  0  0  0
   -0.3383    0.5106    2.1849 H   0  0  0  0  0  0  0  0  0  0  0  0
    1.0729   -1.8551   -0.4131 H   0  0  0  0  0  0  0  0  0  0  0  0
    3.1646   -0.0475    0.2386 H   0  0  0  0  0  0  0  0  0  0  0  0
    3.1346   -0.5986   -1.5191 H   0  0  0  0  0  0  0  0  0  0  0  0
    0.5096    2.2186   -0.5463 H   0  0  0  0  0  0  0  0  0  0  0  0
    1.5928    1.7122    0.8425 H   0  0  0  0  0  0  0  0  0  0  0  0
  1  2  1  0
  2  3  1  0
  2  4  1  0
  2  5  1  0
  5  6  2  0
  6  7  1  0
  7  8  1  0
  8  9  1  0
  9  5  1  0
  1 10  1  0
  1 11  1  0
  1 12  1  0
  3 13  1  0
  3 14  1  0
  3 15  1  0
  4 16  1  0
  6 17  1  0
  7 18  1  0
  7 19  1  0
  9 20  1  0
  9 21  1  0
M  END
