
     RDKit          3D

 20 20  0  0  0  0  0  0  0  0999 V2000
   -2.2976   -0.9648    0.6190 C   0  0  0  0  0  0  0  0  0  0  0  0
   -1.2022   -0.3343   -0.2214 C   0  0  0  0  0  0  0  0  0  0  0  0
   -1.5520    1.1565   -0.3297 C   0  0  0  0  0  0  0  0  0  0  0  0
    0.1311   -0.4765    0.4093 C   0  0  0  0  0  0  0  0  0  0  0  0
    0.1884   -1.0528    1.4725 O   0  0  0  0  0  0  0  0  0  0  0  0
    1.3249    0.0585   -0.2298 C   0  0  0  0  0  0  0  0  0  0  0  0
    2.6747   -0.5096   -0.0191 C   0  0  0  0  0  0  0  0  0  0  0  0
    2.3465    0.7453    0.7164 C   0  0  0  0  0  0  0  0  0  0  0  0
   -2.9841   -1.5530   -0.0129 H   0  0  0  0  0  0  0  0  0  0  0  0
   -1.8827   -1.6339    1.3998 H   0  0  0  0  0  0  0  0  0  0  0  0
   -2.8959   -0.1985    1.1627 H   0  0  0  0  0  0  0  0  0  0  0  0
   -1.2190   -0.8057   -1.2473 H   0  0  0  0  0  0  0  0  0  0  0  0
   -0.6654    1.7940   -0.2077 H   0  0  0  0  0  0  0  0  0  0  0  0
   -2.0045    1.3063   -1.3251 H   0  0  0  0  0  0  0  0  0  0  0  0
   -2.2601    1.4516    0.4931 H   0  0  0  0  0  0  0  0  0  0  0  0
    1.1781    0.5811   -1.2204 H   0  0  0  0  0  0  0  0  0  0  0  0
    3.4297   -0.4028   -0.8143 H   0  0  0  0  0  0  0  0  0  0  0  0
    2.8090   -1.4624    0.5597 H   0  0  0  0  0  0  0  0  0  0  0  0
    2.7334    1.7195    0.3850 H   0  0  0  0  0  0  0  0  0  0  0  0
    2.1478    0.5815    1.8138 H   0  0  0  0  0  0  0  0  0  0  0  0
  1  2  1  0
  2  3  1  0
  2  4  1  0
  4  5  2  0
  4  6  1  0
  6  7  1  0
  7  8  1  0
  8  6  1  0
  1  9  1  0
  1 10  1  0
  1 11  1  0
  2 12  1  0
  3 13  1  0
  3 14  1  0
  3 15  1  0
  6 16  1  0
  7 17  1  0
  7 18  1  0
  8 19  1  0
  8 20  1  0
M  END
