
     RDKit          3D

 16 15  0  0  0  0  0  0  0  0999 V2000
   -1.1267   -0.8419    0.2819 C   0  0  0  0  0  0  0  0  0  0  0  0
   -0.0646    0.2190    0.1659 C   0  0  0  0  0  0  0  0  0  0  0  0
   -0.6491    1.3400   -0.6664 C   0  0  0  0  0  0  0  0  0  0  0  0
    0.3093    0.7507    1.3811 O   0  0  0  0  0  0  0  0  0  0  0  0
    1.1556   -0.3868   -0.4959 C   0  0  0  0  0  0  0  0  0  0  0  0
    1.7166   -1.3840    0.2594 O   0  0  0  0  0  0  0  0  0  0  0  0
   -2.1487   -0.3755    0.2566 H   0  0  0  0  0  0  0  0  0  0  0  0
   -1.0760   -1.4579   -0.6590 H   0  0  0  0  0  0  0  0  0  0  0  0
   -1.0615   -1.4437    1.1852 H   0  0  0  0  0  0  0  0  0  0  0  0
   -1.4331    1.8155   -0.0290 H   0  0  0  0  0  0  0  0  0  0  0  0
    0.1548    2.0794   -0.8290 H   0  0  0  0  0  0  0  0  0  0  0  0
   -1.0618    0.9399   -1.6155 H   0  0  0  0  0  0  0  0  0  0  0  0
   -0.0163    0.2772    2.1648 H   0  0  0  0  0  0  0  0  0  0  0  0
    0.8563   -0.8369   -1.4790 H   0  0  0  0  0  0  0  0  0  0  0  0
    1.9054    0.4020   -0.6447 H   0  0  0  0  0  0  0  0  0  0  0  0
    2.5399   -1.0970    0.7236 H   0  0  0  0  0  0  0  0  0  0  0  0
  1  2  1  0
  2  3  1  0
  2  4  1  0
  2  5  1  0
  5  6  1  0
  1  7  1  0
  1  8  1  0
  1  9  1  0
  3 10  1  0
  3 11  1  0
  3 12  1  0
  4 13  1  0
  5 14  1  0
  5 15  1  0
  6 16  1  0
M  END
