
     RDKit          3D

 25 25  0  0  0  0  0  0  0  0999 V2000
   -0.7631    1.5458    0.2469 C   0  0  0  0  0  0  0  0  0  0  0  0
   -0.8168    0.0726    0.0459 C   0  0  0  0  0  0  0  0  0  0  0  0
   -1.6806   -0.2447   -1.1555 C   0  0  0  0  0  0  0  0  0  0  0  0
   -1.5327   -0.5228    1.2544 C   0  0  0  0  0  0  0  0  0  0  0  0
    0.4990   -0.6023   -0.1411 C   0  0  0  0  0  0  0  0  0  0  0  0
    0.2959   -1.9857   -0.3193 O   0  0  0  0  0  0  0  0  0  0  0  0
    1.4756   -0.0000   -1.0746 C   0  0  0  0  0  0  0  0  0  0  0  0
    2.1771    0.6262    0.0814 C   0  0  0  0  0  0  0  0  0  0  0  0
    1.5119   -0.4107    0.9677 C   0  0  0  0  0  0  0  0  0  0  0  0
   -1.8227    1.9142    0.2534 H   0  0  0  0  0  0  0  0  0  0  0  0
   -0.2681    2.1009   -0.5730 H   0  0  0  0  0  0  0  0  0  0  0  0
   -0.3577    1.8327    1.2454 H   0  0  0  0  0  0  0  0  0  0  0  0
   -2.4708    0.5255   -1.2080 H   0  0  0  0  0  0  0  0  0  0  0  0
   -0.9909   -0.2120   -2.0419 H   0  0  0  0  0  0  0  0  0  0  0  0
   -2.1091   -1.2612   -1.0691 H   0  0  0  0  0  0  0  0  0  0  0  0
   -1.2719    0.1028    2.1577 H   0  0  0  0  0  0  0  0  0  0  0  0
   -2.6365   -0.4430    1.1381 H   0  0  0  0  0  0  0  0  0  0  0  0
   -1.2680   -1.5734    1.4259 H   0  0  0  0  0  0  0  0  0  0  0  0
    0.3181   -2.2100   -1.2929 H   0  0  0  0  0  0  0  0  0  0  0  0
    1.1133    0.6511   -1.8726 H   0  0  0  0  0  0  0  0  0  0  0  0
    2.1328   -0.7931   -1.5284 H   0  0  0  0  0  0  0  0  0  0  0  0
    3.2850    0.5604    0.0612 H   0  0  0  0  0  0  0  0  0  0  0  0
    1.8759    1.6266    0.3933 H   0  0  0  0  0  0  0  0  0  0  0  0
    2.2064   -1.2841    1.0921 H   0  0  0  0  0  0  0  0  0  0  0  0
    1.0979   -0.0157    1.9128 H   0  0  0  0  0  0  0  0  0  0  0  0
  1  2  1  0
  2  3  1  0
  2  4  1  0
  2  5  1  0
  5  6  1  0
  5  7  1  0
  7  8  1  0
  8  9  1  0
  9  5  1  0
  1 10  1  0
  1 11  1  0
  1 12  1  0
  3 13  1  0
  3 14  1  0
  3 15  1  0
  4 16  1  0
  4 17  1  0
  4 18  1  0
  6 19  1  0
  7 20  1  0
  7 21  1  0
  8 22  1  0
  8 23  1  0
  9 24  1  0
  9 25  1  0
M  END
