
     RDKit          3D

 19 18  0  0  0  0  0  0  0  0999 V2000
   -1.8029    0.0967   -0.5353 C   0  0  0  0  0  0  0  0  0  0  0  0
   -0.5696   -0.7171   -0.1121 C   0  0  0  0  0  0  0  0  0  0  0  0
   -1.1400   -1.3771    1.2446 C   0  0  0  0  0  0  0  0  0  0  0  0
   -2.3195   -1.9835    0.8942 O   0  0  0  0  0  0  0  0  0  0  0  0
    0.5441   -0.0417    0.3325 C   0  0  0  0  0  0  0  0  0  0  0  0
    1.4485    0.8356   -0.1169 C   0  0  0  0  0  0  0  0  0  0  0  0
    2.2743    1.6500   -0.5115 C   0  0  0  0  0  0  0  0  0  0  0  0
    3.3486    2.6767   -1.0324 C   0  0  0  0  0  0  0  0  0  0  0  0
    4.3407    1.9785   -1.4318 O   0  0  0  0  0  0  0  0  0  0  0  0
   -1.4947    1.1180   -0.8749 H   0  0  0  0  0  0  0  0  0  0  0  0
   -2.5007    0.1589    0.2891 H   0  0  0  0  0  0  0  0  0  0  0  0
   -2.1959   -0.3679   -1.4938 H   0  0  0  0  0  0  0  0  0  0  0  0
   -0.5273   -1.6612   -0.7420 H   0  0  0  0  0  0  0  0  0  0  0  0
   -0.3619   -2.1691    1.5421 H   0  0  0  0  0  0  0  0  0  0  0  0
   -1.1232   -0.6155    1.9783 H   0  0  0  0  0  0  0  0  0  0  0  0
   -2.5472   -2.6257    1.6421 H   0  0  0  0  0  0  0  0  0  0  0  0
    0.2144    0.3750    1.4689 H   0  0  0  0  0  0  0  0  0  0  0  0
    1.2414   -0.9824    0.8127 H   0  0  0  0  0  0  0  0  0  0  0  0
    3.1709    3.6517   -1.0130 H   0  0  0  0  0  0  0  0  0  0  0  0
  1  2  1  0
  2  3  1  0
  3  4  1  0
  2  5  1  0
  5  6  1  0
  6  7  3  0
  7  8  1  0
  8  9  2  0
  1 10  1  0
  1 11  1  0
  1 12  1  0
  2 13  1  0
  3 14  1  0
  3 15  1  0
  4 16  1  0
  5 17  1  0
  5 18  1  0
  8 19  1  0
M  END
