
     RDKit          3D

 21 20  0  0  0  0  0  0  0  0999 V2000
    1.5115   -1.4472    0.1042 C   0  0  0  0  0  0  0  0  0  0  0  0
    1.2034   -0.0993   -0.5069 C   0  0  0  0  0  0  0  0  0  0  0  0
    1.7174    0.9579    0.4173 C   0  0  0  0  0  0  0  0  0  0  0  0
    3.1050    0.7594    0.5431 O   0  0  0  0  0  0  0  0  0  0  0  0
   -0.2466    0.0555   -0.8548 C   0  0  0  0  0  0  0  0  0  0  0  0
   -1.0888   -0.0628    0.2267 O   0  0  0  0  0  0  0  0  0  0  0  0
   -2.3917    0.1017   -0.2423 C   0  0  0  0  0  0  0  0  0  0  0  0
   -3.3999   -0.0001    0.8065 C   0  0  0  0  0  0  0  0  0  0  0  0
   -4.5740    0.1233    0.5365 O   0  0  0  0  0  0  0  0  0  0  0  0
    2.5319   -1.3673    0.5436 H   0  0  0  0  0  0  0  0  0  0  0  0
    0.8354   -1.6965    0.9406 H   0  0  0  0  0  0  0  0  0  0  0  0
    1.5637   -2.2105   -0.6802 H   0  0  0  0  0  0  0  0  0  0  0  0
    1.7826   -0.0369   -1.4504 H   0  0  0  0  0  0  0  0  0  0  0  0
    1.3102    0.7903    1.4501 H   0  0  0  0  0  0  0  0  0  0  0  0
    1.5313    1.9913    0.0679 H   0  0  0  0  0  0  0  0  0  0  0  0
    3.5536    1.5182    0.9751 H   0  0  0  0  0  0  0  0  0  0  0  0
   -0.5075   -0.7352   -1.5839 H   0  0  0  0  0  0  0  0  0  0  0  0
   -0.3886    1.0418   -1.3058 H   0  0  0  0  0  0  0  0  0  0  0  0
   -2.4025    1.1193   -0.7326 H   0  0  0  0  0  0  0  0  0  0  0  0
   -2.5289   -0.6178   -1.0832 H   0  0  0  0  0  0  0  0  0  0  0  0
   -3.1175   -0.1850    1.8287 H   0  0  0  0  0  0  0  0  0  0  0  0
  1  2  1  0
  2  3  1  0
  3  4  1  0
  2  5  1  0
  5  6  1  0
  6  7  1  0
  7  8  1  0
  8  9  2  0
  1 10  1  0
  1 11  1  0
  1 12  1  0
  2 13  1  0
  3 14  1  0
  3 15  1  0
  4 16  1  0
  5 17  1  0
  5 18  1  0
  7 19  1  0
  7 20  1  0
  8 21  1  0
M  END
