
     RDKit          3D

 23 24  0  0  0  0  0  0  0  0999 V2000
   -0.9186   -0.3361    1.3931 C   0  0  0  0  0  0  0  0  0  0  0  0
   -0.7796   -0.0345   -0.0635 C   0  0  0  0  0  0  0  0  0  0  0  0
   -1.6701    1.1711   -0.3625 C   0  0  0  0  0  0  0  0  0  0  0  0
   -1.3891   -1.1988   -0.8376 C   0  0  0  0  0  0  0  0  0  0  0  0
    0.6125    0.2827   -0.5023 C   0  0  0  0  0  0  0  0  0  0  0  0
    1.6502   -0.7522   -0.3004 C   0  0  0  0  0  0  0  0  0  0  0  0
    2.6719    0.3347   -0.2216 C   0  0  0  0  0  0  0  0  0  0  0  0
    1.5035    0.7447    0.6140 C   0  0  0  0  0  0  0  0  0  0  0  0
    1.4671   -0.5610    1.0754 O   0  0  0  0  0  0  0  0  0  0  0  0
   -0.4287    0.3925    2.0547 H   0  0  0  0  0  0  0  0  0  0  0  0
   -0.6485   -1.3939    1.6164 H   0  0  0  0  0  0  0  0  0  0  0  0
   -2.0184   -0.2710    1.6405 H   0  0  0  0  0  0  0  0  0  0  0  0
   -2.7274    0.8618   -0.4421 H   0  0  0  0  0  0  0  0  0  0  0  0
   -1.4983    1.9437    0.4162 H   0  0  0  0  0  0  0  0  0  0  0  0
   -1.3731    1.6104   -1.3375 H   0  0  0  0  0  0  0  0  0  0  0  0
   -1.1666   -2.1352   -0.2872 H   0  0  0  0  0  0  0  0  0  0  0  0
   -2.5088   -1.0913   -0.7928 H   0  0  0  0  0  0  0  0  0  0  0  0
   -1.0121   -1.2602   -1.8677 H   0  0  0  0  0  0  0  0  0  0  0  0
    0.6721    0.8389   -1.4423 H   0  0  0  0  0  0  0  0  0  0  0  0
    1.7464   -1.6481   -0.7517 H   0  0  0  0  0  0  0  0  0  0  0  0
    2.8674    0.9126   -1.1259 H   0  0  0  0  0  0  0  0  0  0  0  0
    3.5462    0.0038    0.3664 H   0  0  0  0  0  0  0  0  0  0  0  0
    1.4020    1.5853    1.1585 H   0  0  0  0  0  0  0  0  0  0  0  0
  1  2  1  0
  2  3  1  0
  2  4  1  0
  2  5  1  0
  5  6  1  0
  6  7  1  0
  7  8  1  0
  8  9  1  0
  8  5  1  0
  9  6  1  0
  1 10  1  0
  1 11  1  0
  1 12  1  0
  3 13  1  0
  3 14  1  0
  3 15  1  0
  4 16  1  0
  4 17  1  0
  4 18  1  0
  5 19  1  0
  6 20  1  0
  7 21  1  0
  7 22  1  0
  8 23  1  0
M  END
