
     RDKit          3D

 27 26  0  0  0  0  0  0  0  0999 V2000
   -1.3611    0.0098    1.5119 C   0  0  0  0  0  0  0  0  0  0  0  0
   -1.0229    0.5900    0.1902 C   0  0  0  0  0  0  0  0  0  0  0  0
   -2.3126    0.6391   -0.6387 C   0  0  0  0  0  0  0  0  0  0  0  0
   -0.0019   -0.1195   -0.6161 C   0  0  0  0  0  0  0  0  0  0  0  0
   -0.3470   -1.5303   -0.9675 C   0  0  0  0  0  0  0  0  0  0  0  0
    0.0304    0.5724   -1.8582 O   0  0  0  0  0  0  0  0  0  0  0  0
    1.3954   -0.0613   -0.1023 C   0  0  0  0  0  0  0  0  0  0  0  0
    1.9180    1.3747   -0.0037 C   0  0  0  0  0  0  0  0  0  0  0  0
    1.6582   -0.8550    1.1240 C   0  0  0  0  0  0  0  0  0  0  0  0
   -1.5677   -1.0664    1.5165 H   0  0  0  0  0  0  0  0  0  0  0  0
   -0.6366    0.3181    2.3207 H   0  0  0  0  0  0  0  0  0  0  0  0
   -2.3286    0.4949    1.8412 H   0  0  0  0  0  0  0  0  0  0  0  0
   -0.7155    1.6361    0.3230 H   0  0  0  0  0  0  0  0  0  0  0  0
   -2.3335    1.5584   -1.2615 H   0  0  0  0  0  0  0  0  0  0  0  0
   -3.1998    0.5992    0.0225 H   0  0  0  0  0  0  0  0  0  0  0  0
   -2.3847   -0.2246   -1.3261 H   0  0  0  0  0  0  0  0  0  0  0  0
    0.6166   -2.0278   -1.2866 H   0  0  0  0  0  0  0  0  0  0  0  0
   -0.9907   -1.6033   -1.8901 H   0  0  0  0  0  0  0  0  0  0  0  0
   -0.7680   -2.1226   -0.1488 H   0  0  0  0  0  0  0  0  0  0  0  0
    0.8678    0.3631   -2.3499 H   0  0  0  0  0  0  0  0  0  0  0  0
    2.0421   -0.5126   -0.9150 H   0  0  0  0  0  0  0  0  0  0  0  0
    2.0085    1.8093   -1.0149 H   0  0  0  0  0  0  0  0  0  0  0  0
    2.9180    1.3292    0.4350 H   0  0  0  0  0  0  0  0  0  0  0  0
    1.2721    1.9958    0.6358 H   0  0  0  0  0  0  0  0  0  0  0  0
    2.4937   -1.6062    1.0047 H   0  0  0  0  0  0  0  0  0  0  0  0
    0.8050   -1.4278    1.5109 H   0  0  0  0  0  0  0  0  0  0  0  0
    1.9448   -0.1326    1.9431 H   0  0  0  0  0  0  0  0  0  0  0  0
  1  2  1  0
  2  3  1  0
  2  4  1  0
  4  5  1  0
  4  6  1  0
  4  7  1  0
  7  8  1  0
  7  9  1  0
  1 10  1  0
  1 11  1  0
  1 12  1  0
  2 13  1  0
  3 14  1  0
  3 15  1  0
  3 16  1  0
  5 17  1  0
  5 18  1  0
  5 19  1  0
  6 20  1  0
  7 21  1  0
  8 22  1  0
  8 23  1  0
  8 24  1  0
  9 25  1  0
  9 26  1  0
  9 27  1  0
M  END
