
     RDKit          3D

 23 24  0  0  0  0  0  0  0  0999 V2000
   -2.0550   -0.6653   -0.6427 C   0  0  0  0  0  0  0  0  0  0  0  0
   -1.5621   -0.1200    0.6959 C   0  0  0  0  0  0  0  0  0  0  0  0
   -1.6941    1.3735    0.6336 C   0  0  0  0  0  0  0  0  0  0  0  0
   -0.1751   -0.5945    0.9731 C   0  0  0  0  0  0  0  0  0  0  0  0
    0.8591   -0.2349    0.0294 C   0  0  0  0  0  0  0  0  0  0  0  0
    2.2805   -0.6974    0.2753 C   0  0  0  0  0  0  0  0  0  0  0  0
    2.6815    0.2583   -0.8568 C   0  0  0  0  0  0  0  0  0  0  0  0
    1.1815    0.5837   -0.9528 C   0  0  0  0  0  0  0  0  0  0  0  0
    0.4357   -0.5046   -1.3718 O   0  0  0  0  0  0  0  0  0  0  0  0
   -3.1516   -0.8327   -0.5882 H   0  0  0  0  0  0  0  0  0  0  0  0
   -1.8310    0.0557   -1.4721 H   0  0  0  0  0  0  0  0  0  0  0  0
   -1.5578   -1.6341   -0.8379 H   0  0  0  0  0  0  0  0  0  0  0  0
   -2.2809   -0.4824    1.4598 H   0  0  0  0  0  0  0  0  0  0  0  0
   -1.3855    1.7384   -0.3502 H   0  0  0  0  0  0  0  0  0  0  0  0
   -1.1851    1.8641    1.4846 H   0  0  0  0  0  0  0  0  0  0  0  0
   -2.7833    1.6282    0.7426 H   0  0  0  0  0  0  0  0  0  0  0  0
    0.1008   -0.2117    1.9977 H   0  0  0  0  0  0  0  0  0  0  0  0
   -0.2225   -1.7036    1.0991 H   0  0  0  0  0  0  0  0  0  0  0  0
    2.4172   -1.7602    0.0427 H   0  0  0  0  0  0  0  0  0  0  0  0
    2.6189   -0.3534    1.2516 H   0  0  0  0  0  0  0  0  0  0  0  0
    3.2975    1.0881   -0.5068 H   0  0  0  0  0  0  0  0  0  0  0  0
    3.0665   -0.3238   -1.6953 H   0  0  0  0  0  0  0  0  0  0  0  0
    0.9448    1.5286   -1.4107 H   0  0  0  0  0  0  0  0  0  0  0  0
  1  2  1  0
  2  3  1  0
  2  4  1  0
  4  5  1  0
  5  6  1  0
  6  7  1  0
  7  8  1  0
  8  9  1  0
  8  5  1  0
  9  5  1  0
  1 10  1  0
  1 11  1  0
  1 12  1  0
  2 13  1  0
  3 14  1  0
  3 15  1  0
  3 16  1  0
  4 17  1  0
  4 18  1  0
  6 19  1  0
  6 20  1  0
  7 21  1  0
  7 22  1  0
  8 23  1  0
M  END
