
     RDKit          3D

 21 21  0  0  0  0  0  0  0  0999 V2000
   -1.3530    0.7111   -1.2024 C   0  0  0  0  0  0  0  0  0  0  0  0
   -1.0746   -0.2691   -0.0793 C   0  0  0  0  0  0  0  0  0  0  0  0
   -1.5168   -1.6599   -0.4587 C   0  0  0  0  0  0  0  0  0  0  0  0
   -1.8635    0.1306    0.9986 O   0  0  0  0  0  0  0  0  0  0  0  0
    0.3868   -0.2461    0.3181 C   0  0  0  0  0  0  0  0  0  0  0  0
    0.8442    1.1389    0.5780 C   0  0  0  0  0  0  0  0  0  0  0  0
    2.0825    1.2078    0.1155 C   0  0  0  0  0  0  0  0  0  0  0  0
    2.4120   -0.1251   -0.4344 C   0  0  0  0  0  0  0  0  0  0  0  0
    1.1849   -0.6469   -0.7593 O   0  0  0  0  0  0  0  0  0  0  0  0
   -0.8946    0.4305   -2.1522 H   0  0  0  0  0  0  0  0  0  0  0  0
   -2.4621    0.7697   -1.2938 H   0  0  0  0  0  0  0  0  0  0  0  0
   -1.0193    1.7108   -0.8422 H   0  0  0  0  0  0  0  0  0  0  0  0
   -2.5693   -1.5622   -0.8459 H   0  0  0  0  0  0  0  0  0  0  0  0
   -0.8542   -2.1288   -1.2070 H   0  0  0  0  0  0  0  0  0  0  0  0
   -1.5319   -2.2659    0.4737 H   0  0  0  0  0  0  0  0  0  0  0  0
   -1.3272    0.4641    1.7554 H   0  0  0  0  0  0  0  0  0  0  0  0
    0.5603   -0.9226    1.1713 H   0  0  0  0  0  0  0  0  0  0  0  0
    0.2841    1.9323    1.0484 H   0  0  0  0  0  0  0  0  0  0  0  0
    2.7025    2.1085    0.1575 H   0  0  0  0  0  0  0  0  0  0  0  0
    3.1182   -0.0815   -1.2836 H   0  0  0  0  0  0  0  0  0  0  0  0
    2.8908   -0.6963    0.4161 H   0  0  0  0  0  0  0  0  0  0  0  0
  1  2  1  0
  2  3  1  0
  2  4  1  0
  2  5  1  0
  5  6  1  0
  6  7  2  0
  7  8  1  0
  8  9  1  0
  9  5  1  0
  1 10  1  0
  1 11  1  0
  1 12  1  0
  3 13  1  0
  3 14  1  0
  3 15  1  0
  4 16  1  0
  5 17  1  0
  6 18  1  0
  7 19  1  0
  8 20  1  0
  8 21  1  0
M  END
