
     RDKit          3D

 25 25  0  0  0  0  0  0  0  0999 V2000
   -1.2577   -0.7483    1.3895 C   0  0  0  0  0  0  0  0  0  0  0  0
   -1.5108   -0.3547   -0.0506 C   0  0  0  0  0  0  0  0  0  0  0  0
   -2.7580    0.4791   -0.1652 C   0  0  0  0  0  0  0  0  0  0  0  0
   -0.2953    0.3712   -0.6148 C   0  0  0  0  0  0  0  0  0  0  0  0
   -0.5009    0.7759   -2.0276 C   0  0  0  0  0  0  0  0  0  0  0  0
    0.7935   -0.4381   -0.3891 O   0  0  0  0  0  0  0  0  0  0  0  0
    1.7197    0.0792    0.4908 C   0  0  0  0  0  0  0  0  0  0  0  0
    3.1629   -0.0928    0.0228 C   0  0  0  0  0  0  0  0  0  0  0  0
    2.6469   -0.8745    1.1757 C   0  0  0  0  0  0  0  0  0  0  0  0
   -0.2264   -1.1448    1.4568 H   0  0  0  0  0  0  0  0  0  0  0  0
   -2.0033   -1.5013    1.7113 H   0  0  0  0  0  0  0  0  0  0  0  0
   -1.2886    0.1815    1.9980 H   0  0  0  0  0  0  0  0  0  0  0  0
   -1.6939   -1.2986   -0.6055 H   0  0  0  0  0  0  0  0  0  0  0  0
   -2.8033    1.3032    0.5494 H   0  0  0  0  0  0  0  0  0  0  0  0
   -2.8572    0.8082   -1.2230 H   0  0  0  0  0  0  0  0  0  0  0  0
   -3.6190   -0.1934    0.0323 H   0  0  0  0  0  0  0  0  0  0  0  0
   -0.1644    1.2945   -0.0051 H   0  0  0  0  0  0  0  0  0  0  0  0
   -0.9003   -0.0671   -2.6625 H   0  0  0  0  0  0  0  0  0  0  0  0
   -1.1729    1.6594   -2.0524 H   0  0  0  0  0  0  0  0  0  0  0  0
    0.4774    1.1319   -2.4305 H   0  0  0  0  0  0  0  0  0  0  0  0
    1.5418    1.0804    0.9499 H   0  0  0  0  0  0  0  0  0  0  0  0
    3.8981    0.6956    0.2568 H   0  0  0  0  0  0  0  0  0  0  0  0
    3.3519   -0.5829   -0.9504 H   0  0  0  0  0  0  0  0  0  0  0  0
    2.9913   -0.6146    2.1772 H   0  0  0  0  0  0  0  0  0  0  0  0
    2.4686   -1.9489    0.9661 H   0  0  0  0  0  0  0  0  0  0  0  0
  1  2  1  0
  2  3  1  0
  2  4  1  0
  4  5  1  0
  4  6  1  0
  6  7  1  0
  7  8  1  0
  8  9  1  0
  9  7  1  0
  1 10  1  0
  1 11  1  0
  1 12  1  0
  2 13  1  0
  3 14  1  0
  3 15  1  0
  3 16  1  0
  4 17  1  0
  5 18  1  0
  5 19  1  0
  5 20  1  0
  7 21  1  0
  8 22  1  0
  8 23  1  0
  9 24  1  0
  9 25  1  0
M  END
