
     RDKit          3D

 21 20  0  0  0  0  0  0  0  0999 V2000
   -1.6345   -1.3877   -0.0478 C   0  0  0  0  0  0  0  0  0  0  0  0
   -1.4351    0.0806   -0.4497 C   0  0  0  0  0  0  0  0  0  0  0  0
   -2.7582    0.7377   -0.5399 C   0  0  0  0  0  0  0  0  0  0  0  0
   -3.3297    0.9061   -1.5898 O   0  0  0  0  0  0  0  0  0  0  0  0
   -0.6539    0.8065    0.6308 C   0  0  0  0  0  0  0  0  0  0  0  0
    0.5888    0.2834    0.8666 O   0  0  0  0  0  0  0  0  0  0  0  0
    1.4339    0.2872   -0.2102 C   0  0  0  0  0  0  0  0  0  0  0  0
    2.7529   -0.3233    0.2374 C   0  0  0  0  0  0  0  0  0  0  0  0
    3.6773   -0.3528   -0.8240 O   0  0  0  0  0  0  0  0  0  0  0  0
   -0.7313   -1.9517   -0.2888 H   0  0  0  0  0  0  0  0  0  0  0  0
   -2.5058   -1.7518   -0.6088 H   0  0  0  0  0  0  0  0  0  0  0  0
   -1.9045   -1.4483    1.0407 H   0  0  0  0  0  0  0  0  0  0  0  0
   -0.9014    0.0651   -1.4226 H   0  0  0  0  0  0  0  0  0  0  0  0
   -3.2194    1.0742    0.3700 H   0  0  0  0  0  0  0  0  0  0  0  0
   -0.6369    1.8737    0.3347 H   0  0  0  0  0  0  0  0  0  0  0  0
   -1.2707    0.7496    1.5490 H   0  0  0  0  0  0  0  0  0  0  0  0
    1.6070    1.2641   -0.6737 H   0  0  0  0  0  0  0  0  0  0  0  0
    1.0212   -0.4332   -0.9730 H   0  0  0  0  0  0  0  0  0  0  0  0
    3.1878    0.3322    1.0144 H   0  0  0  0  0  0  0  0  0  0  0  0
    2.6253   -1.3712    0.5538 H   0  0  0  0  0  0  0  0  0  0  0  0
    4.0874    0.5597   -0.8915 H   0  0  0  0  0  0  0  0  0  0  0  0
  1  2  1  0
  2  3  1  0
  3  4  2  0
  2  5  1  0
  5  6  1  0
  6  7  1  0
  7  8  1  0
  8  9  1  0
  1 10  1  0
  1 11  1  0
  1 12  1  0
  2 13  1  0
  3 14  1  0
  5 15  1  0
  5 16  1  0
  7 17  1  0
  7 18  1  0
  8 19  1  0
  8 20  1  0
  9 21  1  0
M  END
