
     RDKit          3D

 22 22  0  0  0  0  0  0  0  0999 V2000
   -1.2108    1.2366    0.8257 C   0  0  0  0  0  0  0  0  0  0  0  0
   -1.2340    0.3687   -0.4109 C   0  0  0  0  0  0  0  0  0  0  0  0
   -2.4359   -0.5463   -0.3195 C   0  0  0  0  0  0  0  0  0  0  0  0
    0.0130   -0.4751   -0.4553 C   0  0  0  0  0  0  0  0  0  0  0  0
    0.0504   -1.2749    0.6839 O   0  0  0  0  0  0  0  0  0  0  0  0
    1.2693    0.3291   -0.4948 C   0  0  0  0  0  0  0  0  0  0  0  0
    2.5489   -0.4181   -0.5399 C   0  0  0  0  0  0  0  0  0  0  0  0
    2.1258    0.3539    0.6952 C   0  0  0  0  0  0  0  0  0  0  0  0
   -2.0976    1.9156    0.8309 H   0  0  0  0  0  0  0  0  0  0  0  0
   -0.2828    1.8704    0.7355 H   0  0  0  0  0  0  0  0  0  0  0  0
   -1.1833    0.6080    1.7287 H   0  0  0  0  0  0  0  0  0  0  0  0
   -1.3532    1.0173   -1.2833 H   0  0  0  0  0  0  0  0  0  0  0  0
   -2.4603   -1.0711    0.6492 H   0  0  0  0  0  0  0  0  0  0  0  0
   -3.3736    0.0251   -0.5059 H   0  0  0  0  0  0  0  0  0  0  0  0
   -2.3493   -1.2568   -1.1850 H   0  0  0  0  0  0  0  0  0  0  0  0
    0.0042   -1.1256   -1.3629 H   0  0  0  0  0  0  0  0  0  0  0  0
    0.2023   -2.2208    0.4797 H   0  0  0  0  0  0  0  0  0  0  0  0
    1.1859    1.2634   -1.1024 H   0  0  0  0  0  0  0  0  0  0  0  0
    2.5073   -1.5281   -0.5102 H   0  0  0  0  0  0  0  0  0  0  0  0
    3.4397   -0.0145   -1.0279 H   0  0  0  0  0  0  0  0  0  0  0  0
    1.9118   -0.3029    1.5774 H   0  0  0  0  0  0  0  0  0  0  0  0
    2.7221    1.2461    0.9919 H   0  0  0  0  0  0  0  0  0  0  0  0
  1  2  1  0
  2  3  1  0
  2  4  1  0
  4  5  1  0
  4  6  1  0
  6  7  1  0
  7  8  1  0
  8  6  1  0
  1  9  1  0
  1 10  1  0
  1 11  1  0
  2 12  1  0
  3 13  1  0
  3 14  1  0
  3 15  1  0
  4 16  1  0
  5 17  1  0
  6 18  1  0
  7 19  1  0
  7 20  1  0
  8 21  1  0
  8 22  1  0
M  END
