
     RDKit          3D

 21 21  0  0  0  0  0  0  0  0999 V2000
   -2.2437    0.5414   -0.6487 C   0  0  0  0  0  0  0  0  0  0  0  0
   -1.4771   -0.6677   -0.0929 C   0  0  0  0  0  0  0  0  0  0  0  0
   -1.6715   -0.7238    1.3790 C   0  0  0  0  0  0  0  0  0  0  0  0
   -2.0646    0.2672    1.9668 O   0  0  0  0  0  0  0  0  0  0  0  0
   -0.0041   -0.5382   -0.4579 C   0  0  0  0  0  0  0  0  0  0  0  0
    0.6125    0.6961    0.0989 C   0  0  0  0  0  0  0  0  0  0  0  0
    2.0528    0.7522   -0.3004 C   0  0  0  0  0  0  0  0  0  0  0  0
    2.9072   -0.3657    0.1490 C   0  0  0  0  0  0  0  0  0  0  0  0
    3.0423    0.9465    0.6471 O   0  0  0  0  0  0  0  0  0  0  0  0
   -3.3253    0.3138   -0.4199 H   0  0  0  0  0  0  0  0  0  0  0  0
   -1.9335    1.4524   -0.1402 H   0  0  0  0  0  0  0  0  0  0  0  0
   -2.0966    0.6337   -1.7328 H   0  0  0  0  0  0  0  0  0  0  0  0
   -1.9001   -1.5580   -0.5759 H   0  0  0  0  0  0  0  0  0  0  0  0
   -1.4771   -1.6164    1.9596 H   0  0  0  0  0  0  0  0  0  0  0  0
    0.5190   -1.4624   -0.2202 H   0  0  0  0  0  0  0  0  0  0  0  0
    0.0133   -0.4439   -1.5791 H   0  0  0  0  0  0  0  0  0  0  0  0
    0.5310    0.6856    1.2063 H   0  0  0  0  0  0  0  0  0  0  0  0
    0.0966    1.5815   -0.3102 H   0  0  0  0  0  0  0  0  0  0  0  0
    2.2486    1.2851   -1.2568 H   0  0  0  0  0  0  0  0  0  0  0  0
    2.4980   -1.0553    0.8878 H   0  0  0  0  0  0  0  0  0  0  0  0
    3.6724   -0.7243   -0.5597 H   0  0  0  0  0  0  0  0  0  0  0  0
  1  2  1  0
  2  3  1  0
  3  4  2  0
  2  5  1  0
  5  6  1  0
  6  7  1  0
  7  8  1  0
  8  9  1  0
  9  7  1  0
  1 10  1  0
  1 11  1  0
  1 12  1  0
  2 13  1  0
  3 14  1  0
  5 15  1  0
  5 16  1  0
  6 17  1  0
  6 18  1  0
  7 19  1  0
  8 20  1  0
  8 21  1  0
M  END
