
     RDKit          3D

 19 19  0  0  0  0  0  0  0  0999 V2000
   -1.1285   -1.2212    0.8424 C   0  0  0  0  0  0  0  0  0  0  0  0
   -0.9255   -0.1800   -0.2637 C   0  0  0  0  0  0  0  0  0  0  0  0
    0.5351   -0.2175   -0.6291 C   0  0  0  0  0  0  0  0  0  0  0  0
    1.4400    0.1044    0.5160 C   0  0  0  0  0  0  0  0  0  0  0  0
    2.9109    0.0750    0.1808 C   0  0  0  0  0  0  0  0  0  0  0  0
    2.3063   -0.8459    1.0192 O   0  0  0  0  0  0  0  0  0  0  0  0
   -1.3712    1.0838    0.1186 O   0  0  0  0  0  0  0  0  0  0  0  0
   -2.4061    1.6650   -0.6023 C   0  0  0  0  0  0  0  0  0  0  0  0
   -2.9210    1.0364   -1.5883 O   0  0  0  0  0  0  0  0  0  0  0  0
   -0.9380   -0.6967    1.7985 H   0  0  0  0  0  0  0  0  0  0  0  0
   -2.1673   -1.5854    0.8215 H   0  0  0  0  0  0  0  0  0  0  0  0
   -0.4379   -2.0699    0.6775 H   0  0  0  0  0  0  0  0  0  0  0  0
   -1.4864   -0.5708   -1.1368 H   0  0  0  0  0  0  0  0  0  0  0  0
    0.7479    0.5305   -1.4441 H   0  0  0  0  0  0  0  0  0  0  0  0
    0.8165   -1.2090   -1.0292 H   0  0  0  0  0  0  0  0  0  0  0  0
    1.1049    0.8683    1.2625 H   0  0  0  0  0  0  0  0  0  0  0  0
    3.5153    0.8941    0.5804 H   0  0  0  0  0  0  0  0  0  0  0  0
    3.2194   -0.3044   -0.8131 H   0  0  0  0  0  0  0  0  0  0  0  0
   -2.8143    2.6434   -0.3745 H   0  0  0  0  0  0  0  0  0  0  0  0
  1  2  1  0
  2  3  1  0
  3  4  1  0
  4  5  1  0
  5  6  1  0
  2  7  1  0
  7  8  1  0
  8  9  2  0
  6  4  1  0
  1 10  1  0
  1 11  1  0
  1 12  1  0
  2 13  1  0
  3 14  1  0
  3 15  1  0
  4 16  1  0
  5 17  1  0
  5 18  1  0
  8 19  1  0
M  END
