
     RDKit          3D

 23 24  0  0  0  0  0  0  0  0999 V2000
   -1.6831    0.1673   -1.3868 C   0  0  0  0  0  0  0  0  0  0  0  0
   -1.0175   -0.0148   -0.0459 C   0  0  0  0  0  0  0  0  0  0  0  0
   -1.0529    1.2302    0.7803 C   0  0  0  0  0  0  0  0  0  0  0  0
    0.2138   -0.8243   -0.0499 C   0  0  0  0  0  0  0  0  0  0  0  0
    0.8391   -0.9701    1.3089 C   0  0  0  0  0  0  0  0  0  0  0  0
    1.2671    0.4947    1.4047 C   0  0  0  0  0  0  0  0  0  0  0  0
    1.6726    0.7808    0.1827 C   0  0  0  0  0  0  0  0  0  0  0  0
    1.5545   -0.3485   -0.6666 C   0  0  0  0  0  0  0  0  0  0  0  0
    0.6503   -1.1780   -1.3459 C   0  0  0  0  0  0  0  0  0  0  0  0
   -2.6991    0.6081   -1.1680 H   0  0  0  0  0  0  0  0  0  0  0  0
   -1.8958   -0.7999   -1.8879 H   0  0  0  0  0  0  0  0  0  0  0  0
   -1.1360    0.7826   -2.0911 H   0  0  0  0  0  0  0  0  0  0  0  0
   -1.7600   -0.6922    0.5045 H   0  0  0  0  0  0  0  0  0  0  0  0
   -0.3920    2.0376    0.5081 H   0  0  0  0  0  0  0  0  0  0  0  0
   -1.0975    0.9829    1.8747 H   0  0  0  0  0  0  0  0  0  0  0  0
   -2.0994    1.6530    0.6049 H   0  0  0  0  0  0  0  0  0  0  0  0
    0.1430   -1.1912    2.1092 H   0  0  0  0  0  0  0  0  0  0  0  0
    1.7458   -1.5650    1.3533 H   0  0  0  0  0  0  0  0  0  0  0  0
    1.2246    1.0921    2.3014 H   0  0  0  0  0  0  0  0  0  0  0  0
    2.0439    1.7802   -0.0867 H   0  0  0  0  0  0  0  0  0  0  0  0
    2.4931   -0.9865   -0.4159 H   0  0  0  0  0  0  0  0  0  0  0  0
    0.8032   -2.2774   -1.5182 H   0  0  0  0  0  0  0  0  0  0  0  0
    0.1822   -0.7614   -2.2699 H   0  0  0  0  0  0  0  0  0  0  0  0
  1  2  1  0
  2  3  1  0
  2  4  1  0
  4  5  1  0
  5  6  1  0
  6  7  2  0
  7  8  1  0
  8  9  1  0
  8  4  1  0
  9  4  1  0
  1 10  1  0
  1 11  1  0
  1 12  1  0
  2 13  1  0
  3 14  1  0
  3 15  1  0
  3 16  1  0
  5 17  1  0
  5 18  1  0
  6 19  1  0
  7 20  1  0
  8 21  1  0
  9 22  1  0
  9 23  1  0
M  END
