
     RDKit          3D

 25 26  0  0  0  0  0  0  0  0999 V2000
   -1.3304   -0.9174   -1.1474 C   0  0  0  0  0  0  0  0  0  0  0  0
   -0.8564    0.0548   -0.0535 C   0  0  0  0  0  0  0  0  0  0  0  0
   -1.5491   -0.4321    1.2198 C   0  0  0  0  0  0  0  0  0  0  0  0
   -1.4113    1.4265   -0.3385 C   0  0  0  0  0  0  0  0  0  0  0  0
    0.5013    0.0311    0.0626 C   0  0  0  0  0  0  0  0  0  0  0  0
    1.3570   -1.1703    0.4134 C   0  0  0  0  0  0  0  0  0  0  0  0
    2.3503   -0.0825    0.1338 C   0  0  0  0  0  0  0  0  0  0  0  0
    1.4995    0.2508   -1.0667 C   0  0  0  0  0  0  0  0  0  0  0  0
    1.4275    0.8324    0.8964 C   0  0  0  0  0  0  0  0  0  0  0  0
   -0.6982   -0.6835   -2.0320 H   0  0  0  0  0  0  0  0  0  0  0  0
   -1.0042   -1.9230   -0.7884 H   0  0  0  0  0  0  0  0  0  0  0  0
   -2.4013   -0.8382   -1.3323 H   0  0  0  0  0  0  0  0  0  0  0  0
   -0.8704   -0.3374    2.0977 H   0  0  0  0  0  0  0  0  0  0  0  0
   -2.4469    0.1736    1.4543 H   0  0  0  0  0  0  0  0  0  0  0  0
   -1.8675   -1.4831    1.1432 H   0  0  0  0  0  0  0  0  0  0  0  0
   -1.4899    1.9575    0.6303 H   0  0  0  0  0  0  0  0  0  0  0  0
   -0.7278    1.9870   -1.0338 H   0  0  0  0  0  0  0  0  0  0  0  0
   -2.4162    1.3690   -0.7849 H   0  0  0  0  0  0  0  0  0  0  0  0
    1.2678   -1.5236    1.4373 H   0  0  0  0  0  0  0  0  0  0  0  0
    1.3381   -1.9375   -0.3920 H   0  0  0  0  0  0  0  0  0  0  0  0
    3.3470   -0.1217    0.1798 H   0  0  0  0  0  0  0  0  0  0  0  0
    1.6144    1.2919   -1.3833 H   0  0  0  0  0  0  0  0  0  0  0  0
    1.4048   -0.5162   -1.8305 H   0  0  0  0  0  0  0  0  0  0  0  0
    1.5608    1.8853    0.5348 H   0  0  0  0  0  0  0  0  0  0  0  0
    1.4011    0.7065    1.9800 H   0  0  0  0  0  0  0  0  0  0  0  0
  1  2  1  0
  2  3  1  0
  2  4  1  0
  2  5  1  0
  5  6  1  0
  6  7  1  0
  7  8  1  0
  7  9  1  0
  8  5  1  0
  9  5  1  0
  1 10  1  0
  1 11  1  0
  1 12  1  0
  3 13  1  0
  3 14  1  0
  3 15  1  0
  4 16  1  0
  4 17  1  0
  4 18  1  0
  6 19  1  0
  6 20  1  0
  7 21  1  0
  8 22  1  0
  8 23  1  0
  9 24  1  0
  9 25  1  0
M  END
