
     RDKit          3D

 23 22  0  0  0  0  0  0  0  0999 V2000
    1.9170   -0.7678    0.4429 C   0  0  0  0  0  0  0  0  0  0  0  0
    0.8387    0.2945    0.4276 C   0  0  0  0  0  0  0  0  0  0  0  0
    1.1488    1.2405   -0.6922 C   0  0  0  0  0  0  0  0  0  0  0  0
   -0.5359   -0.3047    0.2332 C   0  0  0  0  0  0  0  0  0  0  0  0
   -0.5687   -1.0324   -1.0706 C   0  0  0  0  0  0  0  0  0  0  0  0
   -0.8767   -1.2708    1.3006 C   0  0  0  0  0  0  0  0  0  0  0  0
   -1.8527   -1.9684    1.1524 O   0  0  0  0  0  0  0  0  0  0  0  0
   -1.5478    0.8132    0.3099 C   0  0  0  0  0  0  0  0  0  0  0  0
   -1.3617    1.7972   -0.6569 O   0  0  0  0  0  0  0  0  0  0  0  0
    2.8175   -0.3629    0.9815 H   0  0  0  0  0  0  0  0  0  0  0  0
    1.5928   -1.7029    0.9296 H   0  0  0  0  0  0  0  0  0  0  0  0
    2.2702   -0.9733   -0.5888 H   0  0  0  0  0  0  0  0  0  0  0  0
    0.8585    0.8057    1.4111 H   0  0  0  0  0  0  0  0  0  0  0  0
    0.9065    2.2756   -0.3910 H   0  0  0  0  0  0  0  0  0  0  0  0
    2.2360    1.1918   -0.9485 H   0  0  0  0  0  0  0  0  0  0  0  0
    0.6141    1.0286   -1.6312 H   0  0  0  0  0  0  0  0  0  0  0  0
   -1.3826   -1.8106   -1.0422 H   0  0  0  0  0  0  0  0  0  0  0  0
    0.4123   -1.5221   -1.2273 H   0  0  0  0  0  0  0  0  0  0  0  0
   -0.8245   -0.3855   -1.9345 H   0  0  0  0  0  0  0  0  0  0  0  0
   -0.2968   -1.3770    2.1950 H   0  0  0  0  0  0  0  0  0  0  0  0
   -2.5923    0.4279    0.1489 H   0  0  0  0  0  0  0  0  0  0  0  0
   -1.5604    1.2760    1.3111 H   0  0  0  0  0  0  0  0  0  0  0  0
   -2.2122    2.3273   -0.6606 H   0  0  0  0  0  0  0  0  0  0  0  0
  1  2  1  0
  2  3  1  0
  2  4  1  0
  4  5  1  0
  4  6  1  0
  6  7  2  0
  4  8  1  0
  8  9  1  0
  1 10  1  0
  1 11  1  0
  1 12  1  0
  2 13  1  0
  3 14  1  0
  3 15  1  0
  3 16  1  0
  5 17  1  0
  5 18  1  0
  5 19  1  0
  6 20  1  0
  8 21  1  0
  8 22  1  0
  9 23  1  0
M  END
