
     RDKit          3D

 24 23  0  0  0  0  0  0  0  0999 V2000
   -0.6785   -1.5920   -1.0086 C   0  0  0  0  0  0  0  0  0  0  0  0
   -0.8860   -0.2197   -0.4968 C   0  0  0  0  0  0  0  0  0  0  0  0
   -2.2798   -0.1582    0.1447 C   0  0  0  0  0  0  0  0  0  0  0  0
    0.0628    0.3456    0.4648 C   0  0  0  0  0  0  0  0  0  0  0  0
   -0.4391    1.7674    0.7976 C   0  0  0  0  0  0  0  0  0  0  0  0
    1.4754    0.5703    0.0028 C   0  0  0  0  0  0  0  0  0  0  0  0
    2.1535   -0.6909   -0.4376 C   0  0  0  0  0  0  0  0  0  0  0  0
    2.2146    1.0954    1.0690 O   0  0  0  0  0  0  0  0  0  0  0  0
   -0.5754   -2.3168   -0.1459 H   0  0  0  0  0  0  0  0  0  0  0  0
    0.0624   -1.7351   -1.7916 H   0  0  0  0  0  0  0  0  0  0  0  0
   -1.6524   -1.9388   -1.4778 H   0  0  0  0  0  0  0  0  0  0  0  0
   -0.9760    0.4604   -1.3956 H   0  0  0  0  0  0  0  0  0  0  0  0
   -2.1555   -0.2497    1.2424 H   0  0  0  0  0  0  0  0  0  0  0  0
   -2.7716    0.8129   -0.0698 H   0  0  0  0  0  0  0  0  0  0  0  0
   -2.9136   -0.9928   -0.2318 H   0  0  0  0  0  0  0  0  0  0  0  0
    0.0547   -0.1929    1.4231 H   0  0  0  0  0  0  0  0  0  0  0  0
   -1.4402    1.6609    1.2222 H   0  0  0  0  0  0  0  0  0  0  0  0
    0.2911    2.2431    1.4846 H   0  0  0  0  0  0  0  0  0  0  0  0
   -0.4497    2.2904   -0.1847 H   0  0  0  0  0  0  0  0  0  0  0  0
    1.5149    1.3697   -0.7855 H   0  0  0  0  0  0  0  0  0  0  0  0
    1.7032   -1.6130   -0.0467 H   0  0  0  0  0  0  0  0  0  0  0  0
    2.1953   -0.6980   -1.5621 H   0  0  0  0  0  0  0  0  0  0  0  0
    3.1996   -0.6852   -0.0389 H   0  0  0  0  0  0  0  0  0  0  0  0
    2.2902    0.4669    1.8221 H   0  0  0  0  0  0  0  0  0  0  0  0
  1  2  1  0
  2  3  1  0
  2  4  1  0
  4  5  1  0
  4  6  1  0
  6  7  1  0
  6  8  1  0
  1  9  1  0
  1 10  1  0
  1 11  1  0
  2 12  1  0
  3 13  1  0
  3 14  1  0
  3 15  1  0
  4 16  1  0
  5 17  1  0
  5 18  1  0
  5 19  1  0
  6 20  1  0
  7 21  1  0
  7 22  1  0
  7 23  1  0
  8 24  1  0
M  END
