
     RDKit          3D

 25 25  0  0  0  0  0  0  0  0999 V2000
   -2.8564   -1.3329    0.6701 C   0  0  0  0  0  0  0  0  0  0  0  0
   -1.6574   -0.6022    0.1469 C   0  0  0  0  0  0  0  0  0  0  0  0
   -1.9393    0.1735   -1.1108 C   0  0  0  0  0  0  0  0  0  0  0  0
   -1.0558    0.3048    1.1951 C   0  0  0  0  0  0  0  0  0  0  0  0
    0.1366    1.0170    0.6395 C   0  0  0  0  0  0  0  0  0  0  0  0
    1.0733    0.0674    0.2506 O   0  0  0  0  0  0  0  0  0  0  0  0
    2.2203    0.6635   -0.2810 C   0  0  0  0  0  0  0  0  0  0  0  0
    3.4945   -0.0640    0.1058 C   0  0  0  0  0  0  0  0  0  0  0  0
    2.9792   -0.0634   -1.3094 C   0  0  0  0  0  0  0  0  0  0  0  0
   -3.5073   -1.5943   -0.1799 H   0  0  0  0  0  0  0  0  0  0  0  0
   -3.4600   -0.7393    1.3875 H   0  0  0  0  0  0  0  0  0  0  0  0
   -2.5149   -2.2574    1.1649 H   0  0  0  0  0  0  0  0  0  0  0  0
   -0.8802   -1.3593   -0.1022 H   0  0  0  0  0  0  0  0  0  0  0  0
   -2.6594   -0.4238   -1.7407 H   0  0  0  0  0  0  0  0  0  0  0  0
   -2.3634    1.1695   -0.8774 H   0  0  0  0  0  0  0  0  0  0  0  0
   -0.9720    0.2610   -1.6672 H   0  0  0  0  0  0  0  0  0  0  0  0
   -0.7276   -0.3705    2.0359 H   0  0  0  0  0  0  0  0  0  0  0  0
   -1.8073    1.0199    1.5489 H   0  0  0  0  0  0  0  0  0  0  0  0
    0.5398    1.7421    1.3725 H   0  0  0  0  0  0  0  0  0  0  0  0
   -0.1788    1.5557   -0.2867 H   0  0  0  0  0  0  0  0  0  0  0  0
    2.2479    1.7713   -0.3283 H   0  0  0  0  0  0  0  0  0  0  0  0
    4.3240    0.5952    0.3719 H   0  0  0  0  0  0  0  0  0  0  0  0
    3.4332   -0.9788    0.7219 H   0  0  0  0  0  0  0  0  0  0  0  0
    3.6199    0.4373   -2.0435 H   0  0  0  0  0  0  0  0  0  0  0  0
    2.5112   -0.9923   -1.7008 H   0  0  0  0  0  0  0  0  0  0  0  0
  1  2  1  0
  2  3  1  0
  2  4  1  0
  4  5  1  0
  5  6  1  0
  6  7  1  0
  7  8  1  0
  8  9  1  0
  9  7  1  0
  1 10  1  0
  1 11  1  0
  1 12  1  0
  2 13  1  0
  3 14  1  0
  3 15  1  0
  3 16  1  0
  4 17  1  0
  4 18  1  0
  5 19  1  0
  5 20  1  0
  7 21  1  0
  8 22  1  0
  8 23  1  0
  9 24  1  0
  9 25  1  0
M  END
