
     RDKit          3D

 23 24  0  0  0  0  0  0  0  0999 V2000
    1.8689   -0.9483    0.0440 C   0  0  0  0  0  0  0  0  0  0  0  0
    1.4268    0.4151   -0.4091 C   0  0  0  0  0  0  0  0  0  0  0  0
    1.6885    1.4790    0.6047 C   0  0  0  0  0  0  0  0  0  0  0  0
   -0.0199    0.3455   -0.8297 C   0  0  0  0  0  0  0  0  0  0  0  0
   -0.2952   -0.5275   -1.8669 O   0  0  0  0  0  0  0  0  0  0  0  0
   -1.5382   -0.7277   -1.2675 C   0  0  0  0  0  0  0  0  0  0  0  0
   -1.5515   -1.6518   -0.1260 C   0  0  0  0  0  0  0  0  0  0  0  0
   -0.9613   -0.3160    0.1073 C   0  0  0  0  0  0  0  0  0  0  0  0
   -1.7941    0.6093    0.9590 C   0  0  0  0  0  0  0  0  0  0  0  0
    2.0567   -1.6328   -0.8131 H   0  0  0  0  0  0  0  0  0  0  0  0
    1.0894   -1.4104    0.6841 H   0  0  0  0  0  0  0  0  0  0  0  0
    2.7718   -0.8528    0.6874 H   0  0  0  0  0  0  0  0  0  0  0  0
    2.0317    0.6557   -1.3255 H   0  0  0  0  0  0  0  0  0  0  0  0
    0.9195    1.5345    1.3970 H   0  0  0  0  0  0  0  0  0  0  0  0
    2.6828    1.2521    1.0786 H   0  0  0  0  0  0  0  0  0  0  0  0
    1.7963    2.4894    0.1598 H   0  0  0  0  0  0  0  0  0  0  0  0
   -0.3973    1.3699   -1.1217 H   0  0  0  0  0  0  0  0  0  0  0  0
   -2.3727   -0.1095   -1.5806 H   0  0  0  0  0  0  0  0  0  0  0  0
   -2.5534   -1.8838    0.2978 H   0  0  0  0  0  0  0  0  0  0  0  0
   -0.8754   -2.5093   -0.1519 H   0  0  0  0  0  0  0  0  0  0  0  0
   -1.4222    1.6409    0.8838 H   0  0  0  0  0  0  0  0  0  0  0  0
   -1.7162    0.2319    2.0114 H   0  0  0  0  0  0  0  0  0  0  0  0
   -2.8348    0.5466    0.5772 H   0  0  0  0  0  0  0  0  0  0  0  0
  1  2  1  0
  2  3  1  0
  2  4  1  0
  4  5  1  0
  5  6  1  0
  6  7  1  0
  7  8  1  0
  8  9  1  0
  8  4  1  0
  8  6  1  0
  1 10  1  0
  1 11  1  0
  1 12  1  0
  2 13  1  0
  3 14  1  0
  3 15  1  0
  3 16  1  0
  4 17  1  0
  6 18  1  0
  7 19  1  0
  7 20  1  0
  9 21  1  0
  9 22  1  0
  9 23  1  0
M  END
