
     RDKit          3D

 25 25  0  0  0  0  0  0  0  0999 V2000
   -0.8961    0.0544    1.2908 C   0  0  0  0  0  0  0  0  0  0  0  0
   -0.7743    0.3854   -0.1807 C   0  0  0  0  0  0  0  0  0  0  0  0
   -1.7951   -0.4515   -0.9182 C   0  0  0  0  0  0  0  0  0  0  0  0
   -1.1354    1.8204   -0.3594 C   0  0  0  0  0  0  0  0  0  0  0  0
    0.5792    0.0348   -0.7324 C   0  0  0  0  0  0  0  0  0  0  0  0
    0.8567   -1.4665   -0.5738 C   0  0  0  0  0  0  0  0  0  0  0  0
    1.5666   -1.5154    0.7313 C   0  0  0  0  0  0  0  0  0  0  0  0
    2.0475   -0.3292    1.0517 C   0  0  0  0  0  0  0  0  0  0  0  0
    1.7151    0.6286    0.0072 C   0  0  0  0  0  0  0  0  0  0  0  0
   -0.1067    0.5100    1.9062 H   0  0  0  0  0  0  0  0  0  0  0  0
   -1.8717    0.4760    1.6400 H   0  0  0  0  0  0  0  0  0  0  0  0
   -0.8688   -1.0385    1.4805 H   0  0  0  0  0  0  0  0  0  0  0  0
   -1.3808   -0.6873   -1.9124 H   0  0  0  0  0  0  0  0  0  0  0  0
   -1.9370   -1.3982   -0.3594 H   0  0  0  0  0  0  0  0  0  0  0  0
   -2.7335    0.1307   -1.0070 H   0  0  0  0  0  0  0  0  0  0  0  0
   -0.5982    2.5081    0.3239 H   0  0  0  0  0  0  0  0  0  0  0  0
   -1.0402    2.1265   -1.4241 H   0  0  0  0  0  0  0  0  0  0  0  0
   -2.2193    1.9276   -0.0979 H   0  0  0  0  0  0  0  0  0  0  0  0
    0.6177    0.3104   -1.8040 H   0  0  0  0  0  0  0  0  0  0  0  0
    1.5878   -1.7654   -1.3777 H   0  0  0  0  0  0  0  0  0  0  0  0
   -0.0410   -2.0799   -0.6237 H   0  0  0  0  0  0  0  0  0  0  0  0
    1.6715   -2.4025    1.3309 H   0  0  0  0  0  0  0  0  0  0  0  0
    2.6009   -0.1220    1.9562 H   0  0  0  0  0  0  0  0  0  0  0  0
    1.5617    1.6648    0.3506 H   0  0  0  0  0  0  0  0  0  0  0  0
    2.5932    0.6787   -0.6986 H   0  0  0  0  0  0  0  0  0  0  0  0
  1  2  1  0
  2  3  1  0
  2  4  1  0
  2  5  1  0
  5  6  1  0
  6  7  1  0
  7  8  2  0
  8  9  1  0
  9  5  1  0
  1 10  1  0
  1 11  1  0
  1 12  1  0
  3 13  1  0
  3 14  1  0
  3 15  1  0
  4 16  1  0
  4 17  1  0
  4 18  1  0
  5 19  1  0
  6 20  1  0
  6 21  1  0
  7 22  1  0
  8 23  1  0
  9 24  1  0
  9 25  1  0
M  END
