
     RDKit          3D

 23 23  0  0  0  0  0  0  0  0999 V2000
   -1.8074   -0.8151   -0.6730 C   0  0  0  0  0  0  0  0  0  0  0  0
   -0.9114    0.1206    0.1217 C   0  0  0  0  0  0  0  0  0  0  0  0
   -0.9599    1.4600   -0.5034 C   0  0  0  0  0  0  0  0  0  0  0  0
   -1.4812    0.1447    1.5177 C   0  0  0  0  0  0  0  0  0  0  0  0
   -2.0125    1.1487    1.9336 O   0  0  0  0  0  0  0  0  0  0  0  0
    0.4289   -0.5110    0.2021 C   0  0  0  0  0  0  0  0  0  0  0  0
    1.5166    0.2006    0.9354 C   0  0  0  0  0  0  0  0  0  0  0  0
    2.4587   -0.5436   -0.0307 C   0  0  0  0  0  0  0  0  0  0  0  0
    1.3023   -0.3758   -1.0276 C   0  0  0  0  0  0  0  0  0  0  0  0
   -2.7881   -0.9482   -0.2050 H   0  0  0  0  0  0  0  0  0  0  0  0
   -1.9803   -0.4129   -1.6967 H   0  0  0  0  0  0  0  0  0  0  0  0
   -1.3536   -1.8278   -0.7715 H   0  0  0  0  0  0  0  0  0  0  0  0
   -1.6208    2.1128    0.1371 H   0  0  0  0  0  0  0  0  0  0  0  0
   -1.4855    1.4450   -1.4993 H   0  0  0  0  0  0  0  0  0  0  0  0
   -0.0108    1.9658   -0.6551 H   0  0  0  0  0  0  0  0  0  0  0  0
   -1.4324   -0.7095    2.1670 H   0  0  0  0  0  0  0  0  0  0  0  0
    0.3640   -1.5617    0.5214 H   0  0  0  0  0  0  0  0  0  0  0  0
    1.6731   -0.0484    1.9857 H   0  0  0  0  0  0  0  0  0  0  0  0
    1.6278    1.2835    0.7113 H   0  0  0  0  0  0  0  0  0  0  0  0
    3.3658   -0.0076   -0.2829 H   0  0  0  0  0  0  0  0  0  0  0  0
    2.5354   -1.5884    0.3046 H   0  0  0  0  0  0  0  0  0  0  0  0
    1.3506    0.6537   -1.4286 H   0  0  0  0  0  0  0  0  0  0  0  0
    1.2207   -1.1853   -1.7639 H   0  0  0  0  0  0  0  0  0  0  0  0
  1  2  1  0
  2  3  1  0
  2  4  1  0
  4  5  2  0
  2  6  1  0
  6  7  1  0
  7  8  1  0
  8  9  1  0
  9  6  1  0
  1 10  1  0
  1 11  1  0
  1 12  1  0
  3 13  1  0
  3 14  1  0
  3 15  1  0
  4 16  1  0
  6 17  1  0
  7 18  1  0
  7 19  1  0
  8 20  1  0
  8 21  1  0
  9 22  1  0
  9 23  1  0
M  END
