
     RDKit          3D

 23 23  0  0  0  0  0  0  0  0999 V2000
   -1.3480   -0.7825    1.0466 C   0  0  0  0  0  0  0  0  0  0  0  0
   -1.4725   -0.0254   -0.2287 C   0  0  0  0  0  0  0  0  0  0  0  0
   -2.8967    0.4840   -0.3161 C   0  0  0  0  0  0  0  0  0  0  0  0
   -0.5632    1.1661   -0.3227 C   0  0  0  0  0  0  0  0  0  0  0  0
    0.8639    0.8682   -0.2354 C   0  0  0  0  0  0  0  0  0  0  0  0
    1.6276    1.8432   -0.2435 O   0  0  0  0  0  0  0  0  0  0  0  0
    1.5069   -0.4514   -0.1392 C   0  0  0  0  0  0  0  0  0  0  0  0
    2.7972   -0.4782    0.7316 C   0  0  0  0  0  0  0  0  0  0  0  0
    2.9040   -0.6251   -0.7293 C   0  0  0  0  0  0  0  0  0  0  0  0
   -2.2537   -0.6299    1.6582 H   0  0  0  0  0  0  0  0  0  0  0  0
   -1.2335   -1.8730    0.7669 H   0  0  0  0  0  0  0  0  0  0  0  0
   -0.4402   -0.5447    1.6326 H   0  0  0  0  0  0  0  0  0  0  0  0
   -1.3411   -0.6668   -1.1350 H   0  0  0  0  0  0  0  0  0  0  0  0
   -2.9894    1.3626   -0.9995 H   0  0  0  0  0  0  0  0  0  0  0  0
   -3.1998    0.8470    0.6889 H   0  0  0  0  0  0  0  0  0  0  0  0
   -3.6159   -0.3191   -0.5820 H   0  0  0  0  0  0  0  0  0  0  0  0
   -0.7573    1.6386   -1.3204 H   0  0  0  0  0  0  0  0  0  0  0  0
   -0.9164    1.9110    0.4239 H   0  0  0  0  0  0  0  0  0  0  0  0
    0.9335   -1.3839   -0.1319 H   0  0  0  0  0  0  0  0  0  0  0  0
    2.9361   -1.3974    1.3467 H   0  0  0  0  0  0  0  0  0  0  0  0
    3.0926    0.4465    1.2175 H   0  0  0  0  0  0  0  0  0  0  0  0
    3.1909    0.2189   -1.3768 H   0  0  0  0  0  0  0  0  0  0  0  0
    3.1751   -1.6087   -1.1762 H   0  0  0  0  0  0  0  0  0  0  0  0
  1  2  1  0
  2  3  1  0
  2  4  1  0
  4  5  1  0
  5  6  2  0
  5  7  1  0
  7  8  1  0
  8  9  1  0
  9  7  1  0
  1 10  1  0
  1 11  1  0
  1 12  1  0
  2 13  1  0
  3 14  1  0
  3 15  1  0
  3 16  1  0
  4 17  1  0
  4 18  1  0
  7 19  1  0
  8 20  1  0
  8 21  1  0
  9 22  1  0
  9 23  1  0
M  END
