
     RDKit          3D

 21 22  0  0  0  0  0  0  0  0999 V2000
   -1.2277    0.3485   -1.2901 C   0  0  0  0  0  0  0  0  0  0  0  0
   -1.1566    0.3187    0.2185 C   0  0  0  0  0  0  0  0  0  0  0  0
   -1.8019   -1.0073    0.6453 C   0  0  0  0  0  0  0  0  0  0  0  0
   -1.9250    1.3229    0.7336 O   0  0  0  0  0  0  0  0  0  0  0  0
    0.2484    0.2831    0.7337 C   0  0  0  0  0  0  0  0  0  0  0  0
    1.0268    1.3946    0.5126 O   0  0  0  0  0  0  0  0  0  0  0  0
    2.1202    0.7667   -0.0199 C   0  0  0  0  0  0  0  0  0  0  0  0
    2.6042   -0.5492    0.4495 C   0  0  0  0  0  0  0  0  0  0  0  0
    1.2252   -0.5147   -0.0917 C   0  0  0  0  0  0  0  0  0  0  0  0
   -2.3027    0.5797   -1.5465 H   0  0  0  0  0  0  0  0  0  0  0  0
   -0.5425    1.0886   -1.7398 H   0  0  0  0  0  0  0  0  0  0  0  0
   -1.0636   -0.6824   -1.6733 H   0  0  0  0  0  0  0  0  0  0  0  0
   -1.0020   -1.7775    0.4876 H   0  0  0  0  0  0  0  0  0  0  0  0
   -2.6571   -1.2475    0.0143 H   0  0  0  0  0  0  0  0  0  0  0  0
   -2.0029   -0.9839    1.7268 H   0  0  0  0  0  0  0  0  0  0  0  0
   -1.4369    2.1148    1.0517 H   0  0  0  0  0  0  0  0  0  0  0  0
    0.3103   -0.0349    1.7937 H   0  0  0  0  0  0  0  0  0  0  0  0
    2.4897    1.1555   -0.9778 H   0  0  0  0  0  0  0  0  0  0  0  0
    3.4453   -0.9792   -0.1220 H   0  0  0  0  0  0  0  0  0  0  0  0
    2.6700   -0.7803    1.5432 H   0  0  0  0  0  0  0  0  0  0  0  0
    0.9788   -0.8161   -1.1088 H   0  0  0  0  0  0  0  0  0  0  0  0
  1  2  1  0
  2  3  1  0
  2  4  1  0
  2  5  1  0
  5  6  1  0
  6  7  1  0
  7  8  1  0
  8  9  1  0
  9  5  1  0
  9  7  1  0
  1 10  1  0
  1 11  1  0
  1 12  1  0
  3 13  1  0
  3 14  1  0
  3 15  1  0
  4 16  1  0
  5 17  1  0
  7 18  1  0
  8 19  1  0
  8 20  1  0
  9 21  1  0
M  END
