
     RDKit          3D

 24 24  0  0  0  0  0  0  0  0999 V2000
    2.1686    1.1376    0.0792 C   0  0  0  0  0  0  0  0  0  0  0  0
    1.2930    0.1544   -0.6227 C   0  0  0  0  0  0  0  0  0  0  0  0
    1.5295   -1.2372   -0.0837 C   0  0  0  0  0  0  0  0  0  0  0  0
   -0.1476    0.5506   -0.5350 C   0  0  0  0  0  0  0  0  0  0  0  0
   -1.0221   -0.4628   -1.2555 C   0  0  0  0  0  0  0  0  0  0  0  0
   -2.3233   -0.3207   -0.4601 C   0  0  0  0  0  0  0  0  0  0  0  0
   -1.7817   -0.3591    0.9545 C   0  0  0  0  0  0  0  0  0  0  0  0
   -0.6737    0.6678    0.8536 C   0  0  0  0  0  0  0  0  0  0  0  0
    2.5071    1.8972   -0.6651 H   0  0  0  0  0  0  0  0  0  0  0  0
    3.0781    0.6229    0.4548 H   0  0  0  0  0  0  0  0  0  0  0  0
    1.6356    1.6344    0.8975 H   0  0  0  0  0  0  0  0  0  0  0  0
    1.5643    0.1318   -1.7026 H   0  0  0  0  0  0  0  0  0  0  0  0
    2.6371   -1.3145    0.0931 H   0  0  0  0  0  0  0  0  0  0  0  0
    1.2674   -2.0150   -0.8013 H   0  0  0  0  0  0  0  0  0  0  0  0
    1.0673   -1.3487    0.9137 H   0  0  0  0  0  0  0  0  0  0  0  0
   -0.2737    1.5229   -1.0393 H   0  0  0  0  0  0  0  0  0  0  0  0
   -1.1657   -0.1954   -2.3211 H   0  0  0  0  0  0  0  0  0  0  0  0
   -0.6808   -1.4966   -1.1152 H   0  0  0  0  0  0  0  0  0  0  0  0
   -3.0378   -1.1055   -0.6830 H   0  0  0  0  0  0  0  0  0  0  0  0
   -2.6881    0.7111   -0.6473 H   0  0  0  0  0  0  0  0  0  0  0  0
   -2.5551   -0.0465    1.6814 H   0  0  0  0  0  0  0  0  0  0  0  0
   -1.3317   -1.3343    1.1853 H   0  0  0  0  0  0  0  0  0  0  0  0
    0.0855    0.5417    1.6482 H   0  0  0  0  0  0  0  0  0  0  0  0
   -1.1521    1.6639    1.0417 H   0  0  0  0  0  0  0  0  0  0  0  0
  1  2  1  0
  2  3  1  0
  2  4  1  0
  4  5  1  0
  5  6  1  0
  6  7  1  0
  7  8  1  0
  8  4  1  0
  1  9  1  0
  1 10  1  0
  1 11  1  0
  2 12  1  0
  3 13  1  0
  3 14  1  0
  3 15  1  0
  4 16  1  0
  5 17  1  0
  5 18  1  0
  6 19  1  0
  6 20  1  0
  7 21  1  0
  7 22  1  0
  8 23  1  0
  8 24  1  0
M  END
