
     RDKit          3D

 18 17  0  0  0  0  0  0  0  0999 V2000
   -1.4529    1.2696   -0.2290 C   0  0  0  0  0  0  0  0  0  0  0  0
   -0.3920    0.2195    0.1412 C   0  0  0  0  0  0  0  0  0  0  0  0
   -1.0712   -1.0040    0.7357 C   0  0  0  0  0  0  0  0  0  0  0  0
    0.3947    0.8306    1.0904 O   0  0  0  0  0  0  0  0  0  0  0  0
    0.3969   -0.1932   -1.0644 C   0  0  0  0  0  0  0  0  0  0  0  0
    1.3766   -1.1089   -0.7352 O   0  0  0  0  0  0  0  0  0  0  0  0
    2.4666   -0.9226    0.0384 C   0  0  0  0  0  0  0  0  0  0  0  0
    2.7113    0.1785    0.5561 O   0  0  0  0  0  0  0  0  0  0  0  0
   -0.8913    2.1575   -0.5905 H   0  0  0  0  0  0  0  0  0  0  0  0
   -2.1452    0.8597   -0.9785 H   0  0  0  0  0  0  0  0  0  0  0  0
   -1.9594    1.5753    0.7095 H   0  0  0  0  0  0  0  0  0  0  0  0
   -2.0864   -0.7277    1.0510 H   0  0  0  0  0  0  0  0  0  0  0  0
   -1.1264   -1.8255   -0.0155 H   0  0  0  0  0  0  0  0  0  0  0  0
   -0.4357   -1.3719    1.5686 H   0  0  0  0  0  0  0  0  0  0  0  0
    0.4812    1.7968    0.8697 H   0  0  0  0  0  0  0  0  0  0  0  0
    0.8400    0.7193   -1.5580 H   0  0  0  0  0  0  0  0  0  0  0  0
   -0.2770   -0.7121   -1.8227 H   0  0  0  0  0  0  0  0  0  0  0  0
    3.1702   -1.7408    0.2333 H   0  0  0  0  0  0  0  0  0  0  0  0
  1  2  1  0
  2  3  1  0
  2  4  1  0
  2  5  1  0
  5  6  1  0
  6  7  1  0
  7  8  2  0
  1  9  1  0
  1 10  1  0
  1 11  1  0
  3 12  1  0
  3 13  1  0
  3 14  1  0
  4 15  1  0
  5 16  1  0
  5 17  1  0
  7 18  1  0
M  END
