
     RDKit          3D

 18 18  0  0  0  0  0  0  0  0999 V2000
   -1.3667   -1.1598    0.0278 C   0  0  0  0  0  0  0  0  0  0  0  0
   -0.8092    0.0244   -0.7023 C   0  0  0  0  0  0  0  0  0  0  0  0
   -1.6519    1.2282   -0.3400 C   0  0  0  0  0  0  0  0  0  0  0  0
    0.6442    0.2768   -0.3938 C   0  0  0  0  0  0  0  0  0  0  0  0
    1.4518   -0.9106   -0.7820 O   0  0  0  0  0  0  0  0  0  0  0  0
    1.4078   -0.3848    0.6092 C   0  0  0  0  0  0  0  0  0  0  0  0
    2.7485    0.1627    0.9353 C   0  0  0  0  0  0  0  0  0  0  0  0
    3.3519   -0.2849    1.8892 O   0  0  0  0  0  0  0  0  0  0  0  0
   -1.8943   -0.8248    0.9681 H   0  0  0  0  0  0  0  0  0  0  0  0
   -0.6187   -1.9130    0.3076 H   0  0  0  0  0  0  0  0  0  0  0  0
   -2.1697   -1.6826   -0.5693 H   0  0  0  0  0  0  0  0  0  0  0  0
   -0.9757   -0.1577   -1.7934 H   0  0  0  0  0  0  0  0  0  0  0  0
   -1.6103    1.4673    0.7367 H   0  0  0  0  0  0  0  0  0  0  0  0
   -2.6619    1.1316   -0.7464 H   0  0  0  0  0  0  0  0  0  0  0  0
   -1.1863    2.1081   -0.8659 H   0  0  0  0  0  0  0  0  0  0  0  0
    1.0774    1.1521   -0.9143 H   0  0  0  0  0  0  0  0  0  0  0  0
    1.0315   -1.1794    1.2630 H   0  0  0  0  0  0  0  0  0  0  0  0
    3.2313    0.9465    0.3703 H   0  0  0  0  0  0  0  0  0  0  0  0
  1  2  1  0
  2  3  1  0
  2  4  1  0
  4  5  1  0
  5  6  1  0
  6  7  1  0
  7  8  2  0
  6  4  1  0
  1  9  1  0
  1 10  1  0
  1 11  1  0
  2 12  1  0
  3 13  1  0
  3 14  1  0
  3 15  1  0
  4 16  1  0
  6 17  1  0
  7 18  1  0
M  END
