
     RDKit          3D

 23 23  0  0  0  0  0  0  0  0999 V2000
   -2.4586   -0.4912    0.8632 C   0  0  0  0  0  0  0  0  0  0  0  0
   -1.0696   -0.5378    0.1713 C   0  0  0  0  0  0  0  0  0  0  0  0
   -1.3887   -0.2312   -1.2810 C   0  0  0  0  0  0  0  0  0  0  0  0
   -0.2945    0.5500    0.8436 C   0  0  0  0  0  0  0  0  0  0  0  0
    1.1098    0.7535    0.4350 C   0  0  0  0  0  0  0  0  0  0  0  0
    2.0980   -0.3490    0.6151 C   0  0  0  0  0  0  0  0  0  0  0  0
    1.6674   -1.6478    0.8903 O   0  0  0  0  0  0  0  0  0  0  0  0
    1.6866    0.1586   -0.7606 C   0  0  0  0  0  0  0  0  0  0  0  0
    2.7042    0.8516   -1.4568 O   0  0  0  0  0  0  0  0  0  0  0  0
   -2.7157    0.5867    0.8862 H   0  0  0  0  0  0  0  0  0  0  0  0
   -2.3872   -0.9215    1.8764 H   0  0  0  0  0  0  0  0  0  0  0  0
   -3.1381   -1.0215    0.1924 H   0  0  0  0  0  0  0  0  0  0  0  0
   -0.6356   -1.5456    0.3091 H   0  0  0  0  0  0  0  0  0  0  0  0
   -0.9110    0.6715   -1.6632 H   0  0  0  0  0  0  0  0  0  0  0  0
   -1.0977   -1.1172   -1.8811 H   0  0  0  0  0  0  0  0  0  0  0  0
   -2.5050   -0.1603   -1.4295 H   0  0  0  0  0  0  0  0  0  0  0  0
   -0.2894    0.3242    1.9499 H   0  0  0  0  0  0  0  0  0  0  0  0
   -0.8908    1.4972    0.7618 H   0  0  0  0  0  0  0  0  0  0  0  0
    1.5449    1.7591    0.7426 H   0  0  0  0  0  0  0  0  0  0  0  0
    3.1269   -0.1487    0.9454 H   0  0  0  0  0  0  0  0  0  0  0  0
    2.4425   -2.2372    0.6905 H   0  0  0  0  0  0  0  0  0  0  0  0
    1.1069   -0.4902   -1.4042 H   0  0  0  0  0  0  0  0  0  0  0  0
    2.2948    1.1484   -2.2964 H   0  0  0  0  0  0  0  0  0  0  0  0
  1  2  1  0
  2  3  1  0
  2  4  1  0
  4  5  1  0
  5  6  1  0
  6  7  1  0
  6  8  1  0
  8  9  1  0
  8  5  1  0
  1 10  1  0
  1 11  1  0
  1 12  1  0
  2 13  1  0
  3 14  1  0
  3 15  1  0
  3 16  1  0
  4 17  1  0
  4 18  1  0
  5 19  1  0
  6 20  1  0
  7 21  1  0
  8 22  1  0
  9 23  1  0
M  END
