
     RDKit          3D

 23 24  0  0  0  0  0  0  0  0999 V2000
   -2.3947    0.4796   -0.9084 C   0  0  0  0  0  0  0  0  0  0  0  0
   -1.2349    0.3551    0.0542 C   0  0  0  0  0  0  0  0  0  0  0  0
   -1.6631   -0.4635    1.2448 C   0  0  0  0  0  0  0  0  0  0  0  0
   -0.0183   -0.2775   -0.6445 C   0  0  0  0  0  0  0  0  0  0  0  0
    1.0495   -0.3378    0.4266 C   0  0  0  0  0  0  0  0  0  0  0  0
    1.3837    0.9462    0.9286 C   0  0  0  0  0  0  0  0  0  0  0  0
    2.4310    0.3168    0.1470 C   0  0  0  0  0  0  0  0  0  0  0  0
    2.3341   -0.8617   -0.7891 C   0  0  0  0  0  0  0  0  0  0  0  0
    1.7833   -1.4884    0.3591 O   0  0  0  0  0  0  0  0  0  0  0  0
   -3.1710    1.0915   -0.4536 H   0  0  0  0  0  0  0  0  0  0  0  0
   -1.9922    1.0540   -1.7936 H   0  0  0  0  0  0  0  0  0  0  0  0
   -2.7343   -0.4992   -1.2932 H   0  0  0  0  0  0  0  0  0  0  0  0
   -1.0041    1.3735    0.4173 H   0  0  0  0  0  0  0  0  0  0  0  0
   -1.9172   -1.5015    0.9935 H   0  0  0  0  0  0  0  0  0  0  0  0
   -0.8402   -0.3798    1.9986 H   0  0  0  0  0  0  0  0  0  0  0  0
   -2.5329    0.0628    1.6894 H   0  0  0  0  0  0  0  0  0  0  0  0
   -0.3446   -1.2340   -1.0266 H   0  0  0  0  0  0  0  0  0  0  0  0
    0.2143    0.4932   -1.4392 H   0  0  0  0  0  0  0  0  0  0  0  0
    1.0006    1.9118    0.4823 H   0  0  0  0  0  0  0  0  0  0  0  0
    1.3814    1.0623    2.0531 H   0  0  0  0  0  0  0  0  0  0  0  0
    3.2734    0.0540    0.8681 H   0  0  0  0  0  0  0  0  0  0  0  0
    1.7091   -0.8150   -1.6586 H   0  0  0  0  0  0  0  0  0  0  0  0
    3.2871   -1.3423   -1.0379 H   0  0  0  0  0  0  0  0  0  0  0  0
  1  2  1  0
  2  3  1  0
  2  4  1  0
  4  5  1  0
  5  6  1  0
  6  7  1  0
  7  8  1  0
  8  9  1  0
  7  5  1  0
  9  5  1  0
  1 10  1  0
  1 11  1  0
  1 12  1  0
  2 13  1  0
  3 14  1  0
  3 15  1  0
  3 16  1  0
  4 17  1  0
  4 18  1  0
  6 19  1  0
  6 20  1  0
  7 21  1  0
  8 22  1  0
  8 23  1  0
M  END
