
     RDKit          3D

 19 18  0  0  0  0  0  0  0  0999 V2000
   -0.2551   -1.5483    0.4170 C   0  0  0  0  0  0  0  0  0  0  0  0
   -0.1872   -0.0698    0.1242 C   0  0  0  0  0  0  0  0  0  0  0  0
   -0.0554    0.6788    1.3850 C   0  0  0  0  0  0  0  0  0  0  0  0
    0.1071    1.8935    1.3816 O   0  0  0  0  0  0  0  0  0  0  0  0
   -1.5201    0.3046   -0.5362 C   0  0  0  0  0  0  0  0  0  0  0  0
   -1.5059    1.6849   -0.8309 O   0  0  0  0  0  0  0  0  0  0  0  0
    0.8971    0.2701   -0.8642 C   0  0  0  0  0  0  0  0  0  0  0  0
    2.2406   -0.1142   -0.4026 C   0  0  0  0  0  0  0  0  0  0  0  0
    2.4924   -0.6525    0.6602 O   0  0  0  0  0  0  0  0  0  0  0  0
   -1.2357   -1.7127    0.9481 H   0  0  0  0  0  0  0  0  0  0  0  0
   -0.1940   -2.1568   -0.5049 H   0  0  0  0  0  0  0  0  0  0  0  0
    0.5190   -1.8571    1.1478 H   0  0  0  0  0  0  0  0  0  0  0  0
   -0.0996    0.1668    2.3592 H   0  0  0  0  0  0  0  0  0  0  0  0
   -1.5653   -0.2936   -1.4721 H   0  0  0  0  0  0  0  0  0  0  0  0
   -2.3669    0.0255    0.1056 H   0  0  0  0  0  0  0  0  0  0  0  0
   -1.9309    2.1187   -0.0505 H   0  0  0  0  0  0  0  0  0  0  0  0
    0.7078   -0.2172   -1.8243 H   0  0  0  0  0  0  0  0  0  0  0  0
    0.8746    1.3828   -0.9858 H   0  0  0  0  0  0  0  0  0  0  0  0
    3.0777    0.0964   -1.0572 H   0  0  0  0  0  0  0  0  0  0  0  0
  1  2  1  0
  2  3  1  0
  3  4  2  0
  2  5  1  0
  5  6  1  0
  2  7  1  0
  7  8  1  0
  8  9  2  0
  1 10  1  0
  1 11  1  0
  1 12  1  0
  3 13  1  0
  5 14  1  0
  5 15  1  0
  6 16  1  0
  7 17  1  0
  7 18  1  0
  8 19  1  0
M  END
