
     RDKit          3D

 21 22  0  0  0  0  0  0  0  0999 V2000
   -2.1849   -0.9431   -0.2605 C   0  0  0  0  0  0  0  0  0  0  0  0
   -1.0613    0.0754   -0.5184 C   0  0  0  0  0  0  0  0  0  0  0  0
   -1.2823    1.2165    0.4067 C   0  0  0  0  0  0  0  0  0  0  0  0
    0.2156   -0.6693   -0.3180 C   0  0  0  0  0  0  0  0  0  0  0  0
    0.3954   -1.2195    0.9623 O   0  0  0  0  0  0  0  0  0  0  0  0
    1.7679   -1.0889    0.7490 C   0  0  0  0  0  0  0  0  0  0  0  0
    1.4712    0.0456   -0.1722 C   0  0  0  0  0  0  0  0  0  0  0  0
    1.8985    1.3216   -0.0984 C   0  0  0  0  0  0  0  0  0  0  0  0
    2.3126    0.3800   -1.1998 O   0  0  0  0  0  0  0  0  0  0  0  0
   -3.1685   -0.5261   -0.5187 H   0  0  0  0  0  0  0  0  0  0  0  0
   -2.1250   -1.3413    0.7732 H   0  0  0  0  0  0  0  0  0  0  0  0
   -1.9215   -1.8122   -0.9281 H   0  0  0  0  0  0  0  0  0  0  0  0
   -1.1391    0.3578   -1.5735 H   0  0  0  0  0  0  0  0  0  0  0  0
   -0.3856    1.5533    0.9487 H   0  0  0  0  0  0  0  0  0  0  0  0
   -1.6591    2.0957   -0.1723 H   0  0  0  0  0  0  0  0  0  0  0  0
   -2.0911    1.0118    1.1626 H   0  0  0  0  0  0  0  0  0  0  0  0
    0.2807   -1.5072   -1.0530 H   0  0  0  0  0  0  0  0  0  0  0  0
    2.1402   -1.9656    0.1897 H   0  0  0  0  0  0  0  0  0  0  0  0
    2.3515   -0.8296    1.6544 H   0  0  0  0  0  0  0  0  0  0  0  0
    2.7995    1.6363    0.4986 H   0  0  0  0  0  0  0  0  0  0  0  0
    1.3853    2.2087   -0.5324 H   0  0  0  0  0  0  0  0  0  0  0  0
  1  2  1  0
  2  3  1  0
  2  4  1  0
  4  5  1  0
  5  6  1  0
  6  7  1  0
  7  8  1  0
  8  9  1  0
  7  4  1  0
  9  7  1  0
  1 10  1  0
  1 11  1  0
  1 12  1  0
  2 13  1  0
  3 14  1  0
  3 15  1  0
  3 16  1  0
  4 17  1  0
  6 18  1  0
  6 19  1  0
  8 20  1  0
  8 21  1  0
M  END
