
     RDKit          3D

 23 22  0  0  0  0  0  0  0  0999 V2000
   -2.3835    0.8841   -0.7077 C   0  0  0  0  0  0  0  0  0  0  0  0
   -1.1883    0.4292    0.1591 C   0  0  0  0  0  0  0  0  0  0  0  0
   -1.6852   -0.8039    0.8573 C   0  0  0  0  0  0  0  0  0  0  0  0
   -0.0721    0.2159   -0.7948 C   0  0  0  0  0  0  0  0  0  0  0  0
    1.2343   -0.2228   -0.2259 C   0  0  0  0  0  0  0  0  0  0  0  0
    1.2247   -1.5184    0.5072 C   0  0  0  0  0  0  0  0  0  0  0  0
    1.8213    0.7641    0.6150 O   0  0  0  0  0  0  0  0  0  0  0  0
    3.0095    1.3920    0.2773 C   0  0  0  0  0  0  0  0  0  0  0  0
    3.6131    1.1084   -0.7919 O   0  0  0  0  0  0  0  0  0  0  0  0
   -3.0143    1.5505   -0.0789 H   0  0  0  0  0  0  0  0  0  0  0  0
   -3.0052    0.0134   -1.0004 H   0  0  0  0  0  0  0  0  0  0  0  0
   -2.0148    1.4064   -1.6219 H   0  0  0  0  0  0  0  0  0  0  0  0
   -0.9160    1.2441    0.8533 H   0  0  0  0  0  0  0  0  0  0  0  0
   -2.6837   -0.5055    1.3070 H   0  0  0  0  0  0  0  0  0  0  0  0
   -1.8583   -1.5793    0.0605 H   0  0  0  0  0  0  0  0  0  0  0  0
   -1.0802   -1.1589    1.6849 H   0  0  0  0  0  0  0  0  0  0  0  0
    0.0867    1.1701   -1.3655 H   0  0  0  0  0  0  0  0  0  0  0  0
   -0.3918   -0.5423   -1.5407 H   0  0  0  0  0  0  0  0  0  0  0  0
    1.9282   -0.3219   -1.1172 H   0  0  0  0  0  0  0  0  0  0  0  0
    0.4324   -2.2104    0.1580 H   0  0  0  0  0  0  0  0  0  0  0  0
    2.1867   -2.0607    0.2488 H   0  0  0  0  0  0  0  0  0  0  0  0
    1.2776   -1.4062    1.6103 H   0  0  0  0  0  0  0  0  0  0  0  0
    3.4790    2.1522    0.9065 H   0  0  0  0  0  0  0  0  0  0  0  0
  1  2  1  0
  2  3  1  0
  2  4  1  0
  4  5  1  0
  5  6  1  0
  5  7  1  0
  7  8  1  0
  8  9  2  0
  1 10  1  0
  1 11  1  0
  1 12  1  0
  2 13  1  0
  3 14  1  0
  3 15  1  0
  3 16  1  0
  4 17  1  0
  4 18  1  0
  5 19  1  0
  6 20  1  0
  6 21  1  0
  6 22  1  0
  8 23  1  0
M  END
