
     RDKit          3D

 25 25  0  0  0  0  0  0  0  0999 V2000
   -2.3364   -1.1537   -1.0989 C   0  0  0  0  0  0  0  0  0  0  0  0
   -1.8710   -0.3965    0.1050 C   0  0  0  0  0  0  0  0  0  0  0  0
   -2.6936    0.8828    0.1849 C   0  0  0  0  0  0  0  0  0  0  0  0
   -0.4204   -0.0067    0.0352 C   0  0  0  0  0  0  0  0  0  0  0  0
   -0.0951    0.7328    1.2845 O   0  0  0  0  0  0  0  0  0  0  0  0
    0.6107   -0.5077    0.8695 C   0  0  0  0  0  0  0  0  0  0  0  0
    2.0348   -0.1479    0.5527 C   0  0  0  0  0  0  0  0  0  0  0  0
    2.3136    1.3338    0.5721 C   0  0  0  0  0  0  0  0  0  0  0  0
    2.4952   -0.7167   -0.7663 C   0  0  0  0  0  0  0  0  0  0  0  0
   -1.9376   -2.1808   -1.0949 H   0  0  0  0  0  0  0  0  0  0  0  0
   -3.4493   -1.2603   -1.0062 H   0  0  0  0  0  0  0  0  0  0  0  0
   -2.0718   -0.6603   -2.0545 H   0  0  0  0  0  0  0  0  0  0  0  0
   -2.0708   -1.0415    0.9965 H   0  0  0  0  0  0  0  0  0  0  0  0
   -3.6461    0.7284    0.7038 H   0  0  0  0  0  0  0  0  0  0  0  0
   -2.1208    1.6533    0.7629 H   0  0  0  0  0  0  0  0  0  0  0  0
   -2.8029    1.2982   -0.8401 H   0  0  0  0  0  0  0  0  0  0  0  0
   -0.1633    0.6365   -0.8302 H   0  0  0  0  0  0  0  0  0  0  0  0
    0.4458   -1.2467    1.6701 H   0  0  0  0  0  0  0  0  0  0  0  0
    2.6744   -0.5753    1.3822 H   0  0  0  0  0  0  0  0  0  0  0  0
    3.3859    1.4860    0.8075 H   0  0  0  0  0  0  0  0  0  0  0  0
    2.1220    1.8120   -0.4229 H   0  0  0  0  0  0  0  0  0  0  0  0
    1.6427    1.8192    1.3226 H   0  0  0  0  0  0  0  0  0  0  0  0
    2.4482    0.0600   -1.5570 H   0  0  0  0  0  0  0  0  0  0  0  0
    3.5881   -0.9565   -0.6459 H   0  0  0  0  0  0  0  0  0  0  0  0
    1.9177   -1.5924   -1.0957 H   0  0  0  0  0  0  0  0  0  0  0  0
  1  2  1  0
  2  3  1  0
  2  4  1  0
  4  5  1  0
  5  6  1  0
  6  7  1  0
  7  8  1  0
  7  9  1  0
  6  4  1  0
  1 10  1  0
  1 11  1  0
  1 12  1  0
  2 13  1  0
  3 14  1  0
  3 15  1  0
  3 16  1  0
  4 17  1  0
  6 18  1  0
  7 19  1  0
  8 20  1  0
  8 21  1  0
  8 22  1  0
  9 23  1  0
  9 24  1  0
  9 25  1  0
M  END
