
     RDKit          3D

 25 25  0  0  0  0  0  0  0  0999 V2000
   -2.0599    1.6239   -0.5858 C   0  0  0  0  0  0  0  0  0  0  0  0
   -1.8677    0.1278   -0.4638 C   0  0  0  0  0  0  0  0  0  0  0  0
   -3.0897   -0.4219    0.2788 C   0  0  0  0  0  0  0  0  0  0  0  0
   -0.7567   -0.1818    0.2893 O   0  0  0  0  0  0  0  0  0  0  0  0
    0.0908   -1.0359   -0.3807 C   0  0  0  0  0  0  0  0  0  0  0  0
    1.2972   -1.3382    0.5048 C   0  0  0  0  0  0  0  0  0  0  0  0
    1.9666   -0.0124    0.7822 C   0  0  0  0  0  0  0  0  0  0  0  0
    2.4375    0.6989   -0.4897 C   0  0  0  0  0  0  0  0  0  0  0  0
    3.3845    0.2243    0.5312 C   0  0  0  0  0  0  0  0  0  0  0  0
   -2.7071    1.9962    0.2561 H   0  0  0  0  0  0  0  0  0  0  0  0
   -1.1026    2.1748   -0.5554 H   0  0  0  0  0  0  0  0  0  0  0  0
   -2.6441    1.8032   -1.5093 H   0  0  0  0  0  0  0  0  0  0  0  0
   -1.8792   -0.3584   -1.4571 H   0  0  0  0  0  0  0  0  0  0  0  0
   -4.0272   -0.1839   -0.2498 H   0  0  0  0  0  0  0  0  0  0  0  0
   -2.9738   -1.5252    0.2545 H   0  0  0  0  0  0  0  0  0  0  0  0
   -3.0349   -0.0081    1.3036 H   0  0  0  0  0  0  0  0  0  0  0  0
    0.4059   -0.5615   -1.3285 H   0  0  0  0  0  0  0  0  0  0  0  0
   -0.3925   -2.0026   -0.6544 H   0  0  0  0  0  0  0  0  0  0  0  0
    2.0387   -1.9511   -0.0627 H   0  0  0  0  0  0  0  0  0  0  0  0
    1.0209   -1.8835    1.4043 H   0  0  0  0  0  0  0  0  0  0  0  0
    1.4274    0.6020    1.5442 H   0  0  0  0  0  0  0  0  0  0  0  0
    2.1104    1.7546   -0.5518 H   0  0  0  0  0  0  0  0  0  0  0  0
    2.4111    0.1425   -1.4438 H   0  0  0  0  0  0  0  0  0  0  0  0
    4.0539   -0.6272    0.2614 H   0  0  0  0  0  0  0  0  0  0  0  0
    3.8906    0.9439    1.2385 H   0  0  0  0  0  0  0  0  0  0  0  0
  1  2  1  0
  2  3  1  0
  2  4  1  0
  4  5  1  0
  5  6  1  0
  6  7  1  0
  7  8  1  0
  8  9  1  0
  9  7  1  0
  1 10  1  0
  1 11  1  0
  1 12  1  0
  2 13  1  0
  3 14  1  0
  3 15  1  0
  3 16  1  0
  5 17  1  0
  5 18  1  0
  6 19  1  0
  6 20  1  0
  7 21  1  0
  8 22  1  0
  8 23  1  0
  9 24  1  0
  9 25  1  0
M  END
