
     RDKit          3D

 22 21  0  0  0  0  0  0  0  0999 V2000
   -2.0760   -1.0933   -0.7923 C   0  0  0  0  0  0  0  0  0  0  0  0
   -1.5804    0.1715   -0.1581 C   0  0  0  0  0  0  0  0  0  0  0  0
   -2.5174    0.6091    0.9429 C   0  0  0  0  0  0  0  0  0  0  0  0
   -0.1526    0.0432    0.3362 C   0  0  0  0  0  0  0  0  0  0  0  0
    0.6380   -0.2535   -0.7362 O   0  0  0  0  0  0  0  0  0  0  0  0
    1.9691   -0.4080   -0.4809 C   0  0  0  0  0  0  0  0  0  0  0  0
    2.6560    0.7788    0.0999 C   0  0  0  0  0  0  0  0  0  0  0  0
    4.0116    0.4212    0.2889 O   0  0  0  0  0  0  0  0  0  0  0  0
   -1.3836   -1.4313   -1.5813 H   0  0  0  0  0  0  0  0  0  0  0  0
   -2.3346   -1.8748   -0.0618 H   0  0  0  0  0  0  0  0  0  0  0  0
   -3.0310   -0.8310   -1.3260 H   0  0  0  0  0  0  0  0  0  0  0  0
   -1.6487    0.9737   -0.9509 H   0  0  0  0  0  0  0  0  0  0  0  0
   -2.4594   -0.0098    1.8445 H   0  0  0  0  0  0  0  0  0  0  0  0
   -3.5390    0.6254    0.4828 H   0  0  0  0  0  0  0  0  0  0  0  0
   -2.2535    1.6840    1.1596 H   0  0  0  0  0  0  0  0  0  0  0  0
    0.0931    1.0304    0.8088 H   0  0  0  0  0  0  0  0  0  0  0  0
   -0.1720   -0.7657    1.1115 H   0  0  0  0  0  0  0  0  0  0  0  0
    2.1006   -1.2949    0.1851 H   0  0  0  0  0  0  0  0  0  0  0  0
    2.4798   -0.6721   -1.4297 H   0  0  0  0  0  0  0  0  0  0  0  0
    2.6723    1.6143   -0.6311 H   0  0  0  0  0  0  0  0  0  0  0  0
    2.2900    1.0787    1.0925 H   0  0  0  0  0  0  0  0  0  0  0  0
    4.2377   -0.3959   -0.2043 H   0  0  0  0  0  0  0  0  0  0  0  0
  1  2  1  0
  2  3  1  0
  2  4  1  0
  4  5  1  0
  5  6  1  0
  6  7  1  0
  7  8  1  0
  1  9  1  0
  1 10  1  0
  1 11  1  0
  2 12  1  0
  3 13  1  0
  3 14  1  0
  3 15  1  0
  4 16  1  0
  4 17  1  0
  6 18  1  0
  6 19  1  0
  7 20  1  0
  7 21  1  0
  8 22  1  0
M  END
