
     RDKit          3D

 24 24  0  0  0  0  0  0  0  0999 V2000
   -1.4455    1.1692   -0.5029 C   0  0  0  0  0  0  0  0  0  0  0  0
   -1.5612   -0.1846    0.1270 C   0  0  0  0  0  0  0  0  0  0  0  0
   -2.5785   -1.0246   -0.5971 C   0  0  0  0  0  0  0  0  0  0  0  0
   -0.2347   -0.8791    0.2767 C   0  0  0  0  0  0  0  0  0  0  0  0
    0.6509   -0.0216    1.1504 C   0  0  0  0  0  0  0  0  0  0  0  0
    2.0352   -0.6170    1.3823 C   0  0  0  0  0  0  0  0  0  0  0  0
    1.8436    0.6542    0.6451 C   0  0  0  0  0  0  0  0  0  0  0  0
    2.2272    0.6969   -0.7993 C   0  0  0  0  0  0  0  0  0  0  0  0
   -2.3426    1.7677   -0.1704 H   0  0  0  0  0  0  0  0  0  0  0  0
   -0.5308    1.7062   -0.2091 H   0  0  0  0  0  0  0  0  0  0  0  0
   -1.5199    1.1177   -1.6050 H   0  0  0  0  0  0  0  0  0  0  0  0
   -1.9583   -0.0288    1.1656 H   0  0  0  0  0  0  0  0  0  0  0  0
   -2.7531   -1.9538    0.0168 H   0  0  0  0  0  0  0  0  0  0  0  0
   -2.3305   -1.2377   -1.6361 H   0  0  0  0  0  0  0  0  0  0  0  0
   -3.5322   -0.4513   -0.5959 H   0  0  0  0  0  0  0  0  0  0  0  0
    0.2482   -1.1050   -0.6829 H   0  0  0  0  0  0  0  0  0  0  0  0
   -0.4300   -1.8175    0.8600 H   0  0  0  0  0  0  0  0  0  0  0  0
    0.1748    0.3655    2.0799 H   0  0  0  0  0  0  0  0  0  0  0  0
    2.3525   -1.4844    0.7988 H   0  0  0  0  0  0  0  0  0  0  0  0
    2.4548   -0.5848    2.4061 H   0  0  0  0  0  0  0  0  0  0  0  0
    2.1634    1.5774    1.2096 H   0  0  0  0  0  0  0  0  0  0  0  0
    1.9379   -0.1883   -1.3650 H   0  0  0  0  0  0  0  0  0  0  0  0
    3.3402    0.8818   -0.8333 H   0  0  0  0  0  0  0  0  0  0  0  0
    1.7887    1.6419   -1.2331 H   0  0  0  0  0  0  0  0  0  0  0  0
  1  2  1  0
  2  3  1  0
  2  4  1  0
  4  5  1  0
  5  6  1  0
  6  7  1  0
  7  8  1  0
  7  5  1  0
  1  9  1  0
  1 10  1  0
  1 11  1  0
  2 12  1  0
  3 13  1  0
  3 14  1  0
  3 15  1  0
  4 16  1  0
  4 17  1  0
  5 18  1  0
  6 19  1  0
  6 20  1  0
  7 21  1  0
  8 22  1  0
  8 23  1  0
  8 24  1  0
M  END
