
     RDKit          3D

 19 18  0  0  0  0  0  0  0  0999 V2000
   -1.3251   -0.8261   -1.2500 C   0  0  0  0  0  0  0  0  0  0  0  0
   -0.5928   -0.0705   -0.1748 C   0  0  0  0  0  0  0  0  0  0  0  0
   -1.1528   -0.5034    1.1525 C   0  0  0  0  0  0  0  0  0  0  0  0
   -0.8512    1.4003   -0.3547 C   0  0  0  0  0  0  0  0  0  0  0  0
   -1.7867    1.8944    0.2502 O   0  0  0  0  0  0  0  0  0  0  0  0
    0.8498   -0.2774   -0.3065 C   0  0  0  0  0  0  0  0  0  0  0  0
    1.2398   -0.9898   -1.2130 O   0  0  0  0  0  0  0  0  0  0  0  0
    1.8714    0.3201    0.5875 C   0  0  0  0  0  0  0  0  0  0  0  0
    3.1416   -0.0764    0.1871 O   0  0  0  0  0  0  0  0  0  0  0  0
   -0.7101   -0.8310   -2.1894 H   0  0  0  0  0  0  0  0  0  0  0  0
   -1.4022   -1.8973   -0.9364 H   0  0  0  0  0  0  0  0  0  0  0  0
   -2.3479   -0.4346   -1.4418 H   0  0  0  0  0  0  0  0  0  0  0  0
   -0.4313   -0.4917    1.9729 H   0  0  0  0  0  0  0  0  0  0  0  0
   -1.9943    0.2007    1.4039 H   0  0  0  0  0  0  0  0  0  0  0  0
   -1.5901   -1.5194    1.0751 H   0  0  0  0  0  0  0  0  0  0  0  0
   -0.2167    1.9640   -0.9987 H   0  0  0  0  0  0  0  0  0  0  0  0
    1.7218   -0.0016    1.6504 H   0  0  0  0  0  0  0  0  0  0  0  0
    1.8408    1.4358    0.5902 H   0  0  0  0  0  0  0  0  0  0  0  0
    3.7360    0.7038   -0.0045 H   0  0  0  0  0  0  0  0  0  0  0  0
  1  2  1  0
  2  3  1  0
  2  4  1  0
  4  5  2  0
  2  6  1  0
  6  7  2  0
  6  8  1  0
  8  9  1  0
  1 10  1  0
  1 11  1  0
  1 12  1  0
  3 13  1  0
  3 14  1  0
  3 15  1  0
  4 16  1  0
  8 17  1  0
  8 18  1  0
  9 19  1  0
M  END
