
     RDKit          3D

 19 20  0  0  0  0  0  0  0  0999 V2000
   -1.8080    0.9603    0.2749 C   0  0  0  0  0  0  0  0  0  0  0  0
   -1.0691   -0.3728    0.2605 C   0  0  0  0  0  0  0  0  0  0  0  0
   -1.7514   -1.3085   -0.6349 C   0  0  0  0  0  0  0  0  0  0  0  0
   -1.2452   -2.1877   -1.2723 O   0  0  0  0  0  0  0  0  0  0  0  0
    0.3377   -0.0926   -0.0834 C   0  0  0  0  0  0  0  0  0  0  0  0
    1.2086    0.7874    0.7386 C   0  0  0  0  0  0  0  0  0  0  0  0
    2.4025    0.1264    0.0535 C   0  0  0  0  0  0  0  0  0  0  0  0
    1.3584   -0.7618   -0.6482 C   0  0  0  0  0  0  0  0  0  0  0  0
    0.5542   -0.0237   -1.5133 O   0  0  0  0  0  0  0  0  0  0  0  0
   -1.4770    1.4825   -0.6704 H   0  0  0  0  0  0  0  0  0  0  0  0
   -2.8932    0.7701    0.2758 H   0  0  0  0  0  0  0  0  0  0  0  0
   -1.4680    1.6086    1.0989 H   0  0  0  0  0  0  0  0  0  0  0  0
   -1.0889   -0.8311    1.2921 H   0  0  0  0  0  0  0  0  0  0  0  0
   -2.8454   -1.1974   -0.7375 H   0  0  0  0  0  0  0  0  0  0  0  0
    1.1031    1.8660    0.5172 H   0  0  0  0  0  0  0  0  0  0  0  0
    1.1066    0.5851    1.8019 H   0  0  0  0  0  0  0  0  0  0  0  0
    3.0506   -0.4524    0.7163 H   0  0  0  0  0  0  0  0  0  0  0  0
    2.9036    0.8404   -0.5995 H   0  0  0  0  0  0  0  0  0  0  0  0
    1.6208   -1.7987   -0.8703 H   0  0  0  0  0  0  0  0  0  0  0  0
  1  2  1  0
  2  3  1  0
  3  4  2  0
  2  5  1  0
  5  6  1  0
  6  7  1  0
  7  8  1  0
  8  9  1  0
  8  5  1  0
  9  5  1  0
  1 10  1  0
  1 11  1  0
  1 12  1  0
  2 13  1  0
  3 14  1  0
  6 15  1  0
  6 16  1  0
  7 17  1  0
  7 18  1  0
  8 19  1  0
M  END
