
     RDKit          3D

 21 21  0  0  0  0  0  0  0  0999 V2000
   -1.9378    1.1962    0.1829 C   0  0  0  0  0  0  0  0  0  0  0  0
   -1.0238    0.1056   -0.2937 C   0  0  0  0  0  0  0  0  0  0  0  0
   -1.3105   -1.1877    0.4304 C   0  0  0  0  0  0  0  0  0  0  0  0
   -1.2875   -0.0883   -1.6584 O   0  0  0  0  0  0  0  0  0  0  0  0
    0.4243    0.5127   -0.1777 C   0  0  0  0  0  0  0  0  0  0  0  0
    0.8509    0.7465    1.1310 O   0  0  0  0  0  0  0  0  0  0  0  0
    2.1408    0.4143    0.6536 C   0  0  0  0  0  0  0  0  0  0  0  0
    1.4161   -0.6189   -0.2206 C   0  0  0  0  0  0  0  0  0  0  0  0
    2.0984   -0.7890   -1.3971 O   0  0  0  0  0  0  0  0  0  0  0  0
   -2.8238    0.8049    0.7206 H   0  0  0  0  0  0  0  0  0  0  0  0
   -1.3540    1.8961    0.8425 H   0  0  0  0  0  0  0  0  0  0  0  0
   -2.3349    1.8309   -0.6403 H   0  0  0  0  0  0  0  0  0  0  0  0
   -0.9512   -1.1660    1.4722 H   0  0  0  0  0  0  0  0  0  0  0  0
   -2.4248   -1.2889    0.4601 H   0  0  0  0  0  0  0  0  0  0  0  0
   -0.8854   -2.0615   -0.1238 H   0  0  0  0  0  0  0  0  0  0  0  0
   -0.8175   -0.8984   -1.9422 H   0  0  0  0  0  0  0  0  0  0  0  0
    0.7045    1.2856   -0.9167 H   0  0  0  0  0  0  0  0  0  0  0  0
    2.5147    1.2686    0.0676 H   0  0  0  0  0  0  0  0  0  0  0  0
    2.8133   -0.0119    1.3918 H   0  0  0  0  0  0  0  0  0  0  0  0
    1.1511   -1.5213    0.3476 H   0  0  0  0  0  0  0  0  0  0  0  0
    3.0370   -0.4296   -1.3506 H   0  0  0  0  0  0  0  0  0  0  0  0
  1  2  1  0
  2  3  1  0
  2  4  1  0
  2  5  1  0
  5  6  1  0
  6  7  1  0
  7  8  1  0
  8  9  1  0
  8  5  1  0
  1 10  1  0
  1 11  1  0
  1 12  1  0
  3 13  1  0
  3 14  1  0
  3 15  1  0
  4 16  1  0
  5 17  1  0
  7 18  1  0
  7 19  1  0
  8 20  1  0
  9 21  1  0
M  END
