
     RDKit          3D

 17 16  0  0  0  0  0  0  0  0999 V2000
   -1.6409   -0.6960    0.0046 C   0  0  0  0  0  0  0  0  0  0  0  0
   -0.3941    0.1640   -0.1173 C   0  0  0  0  0  0  0  0  0  0  0  0
   -0.5156    1.4280    0.6598 C   0  0  0  0  0  0  0  0  0  0  0  0
    0.8017   -0.6755    0.2757 C   0  0  0  0  0  0  0  0  0  0  0  0
    0.8109   -1.7425   -0.6227 O   0  0  0  0  0  0  0  0  0  0  0  0
    2.0092    0.1539    0.0864 C   0  0  0  0  0  0  0  0  0  0  0  0
    2.8064   -0.1708   -0.7674 O   0  0  0  0  0  0  0  0  0  0  0  0
   -2.4495   -0.3397   -0.6687 H   0  0  0  0  0  0  0  0  0  0  0  0
   -1.3445   -1.7085   -0.3848 H   0  0  0  0  0  0  0  0  0  0  0  0
   -1.9720   -0.7749    1.0632 H   0  0  0  0  0  0  0  0  0  0  0  0
   -0.2682    0.3869   -1.2133 H   0  0  0  0  0  0  0  0  0  0  0  0
   -1.6106    1.6930    0.6979 H   0  0  0  0  0  0  0  0  0  0  0  0
    0.0070    2.2321    0.0769 H   0  0  0  0  0  0  0  0  0  0  0  0
   -0.1443    1.3862    1.6872 H   0  0  0  0  0  0  0  0  0  0  0  0
    0.7363   -1.0266    1.3224 H   0  0  0  0  0  0  0  0  0  0  0  0
    1.0350   -1.3355   -1.5021 H   0  0  0  0  0  0  0  0  0  0  0  0
    2.1332    1.0260    0.7246 H   0  0  0  0  0  0  0  0  0  0  0  0
  1  2  1  0
  2  3  1  0
  2  4  1  0
  4  5  1  0
  4  6  1  0
  6  7  2  0
  1  8  1  0
  1  9  1  0
  1 10  1  0
  2 11  1  0
  3 12  1  0
  3 13  1  0
  3 14  1  0
  4 15  1  0
  5 16  1  0
  6 17  1  0
M  END
