
     RDKit          3D

 23 22  0  0  0  0  0  0  0  0999 V2000
    2.3544   -0.8994   -0.5961 C   0  0  0  0  0  0  0  0  0  0  0  0
    1.0072   -0.6384    0.1094 C   0  0  0  0  0  0  0  0  0  0  0  0
    1.2714    0.5421    1.0157 C   0  0  0  0  0  0  0  0  0  0  0  0
    0.0085   -0.3860   -0.9643 C   0  0  0  0  0  0  0  0  0  0  0  0
   -1.3876   -0.1165   -0.5533 C   0  0  0  0  0  0  0  0  0  0  0  0
   -1.9619   -1.2515    0.2185 C   0  0  0  0  0  0  0  0  0  0  0  0
   -1.5201   -2.3730    0.0870 O   0  0  0  0  0  0  0  0  0  0  0  0
   -1.6573    1.1728    0.1361 C   0  0  0  0  0  0  0  0  0  0  0  0
   -1.3191    2.2766   -0.6467 O   0  0  0  0  0  0  0  0  0  0  0  0
    2.4740   -0.0366   -1.2970 H   0  0  0  0  0  0  0  0  0  0  0  0
    2.3538   -1.8589   -1.1126 H   0  0  0  0  0  0  0  0  0  0  0  0
    3.1675   -0.8076    0.1508 H   0  0  0  0  0  0  0  0  0  0  0  0
    0.6876   -1.5313    0.6801 H   0  0  0  0  0  0  0  0  0  0  0  0
    1.0341    1.4863    0.5281 H   0  0  0  0  0  0  0  0  0  0  0  0
    2.3811    0.5943    1.2422 H   0  0  0  0  0  0  0  0  0  0  0  0
    0.8078    0.3833    2.0141 H   0  0  0  0  0  0  0  0  0  0  0  0
    0.3447    0.4068   -1.6786 H   0  0  0  0  0  0  0  0  0  0  0  0
   -0.0228   -1.3256   -1.5948 H   0  0  0  0  0  0  0  0  0  0  0  0
   -1.9835   -0.0593   -1.5240 H   0  0  0  0  0  0  0  0  0  0  0  0
   -2.7790   -1.0702    0.9004 H   0  0  0  0  0  0  0  0  0  0  0  0
   -2.7785    1.2694    0.3042 H   0  0  0  0  0  0  0  0  0  0  0  0
   -1.2384    1.1760    1.1446 H   0  0  0  0  0  0  0  0  0  0  0  0
   -1.2439    3.0468   -0.0152 H   0  0  0  0  0  0  0  0  0  0  0  0
  1  2  1  0
  2  3  1  0
  2  4  1  0
  4  5  1  0
  5  6  1  0
  6  7  2  0
  5  8  1  0
  8  9  1  0
  1 10  1  0
  1 11  1  0
  1 12  1  0
  2 13  1  0
  3 14  1  0
  3 15  1  0
  3 16  1  0
  4 17  1  0
  4 18  1  0
  5 19  1  0
  6 20  1  0
  8 21  1  0
  8 22  1  0
  9 23  1  0
M  END
