
     RDKit          3D

 20 21  0  0  0  0  0  0  0  0999 V2000
   -1.8473   -0.9371    0.1052 C   0  0  0  0  0  0  0  0  0  0  0  0
   -0.9853    0.1375   -0.5256 C   0  0  0  0  0  0  0  0  0  0  0  0
   -1.2136    1.4120    0.2215 C   0  0  0  0  0  0  0  0  0  0  0  0
    0.4194   -0.3382   -0.5430 C   0  0  0  0  0  0  0  0  0  0  0  0
    1.0864   -0.6642    0.7331 C   0  0  0  0  0  0  0  0  0  0  0  0
    2.3969   -0.4682    0.0060 C   0  0  0  0  0  0  0  0  0  0  0  0
    1.5013    0.6724   -0.3374 C   0  0  0  0  0  0  0  0  0  0  0  0
    1.1328    0.6922    1.0007 O   0  0  0  0  0  0  0  0  0  0  0  0
   -1.5492   -1.9371   -0.3090 H   0  0  0  0  0  0  0  0  0  0  0  0
   -1.6893   -0.9881    1.1962 H   0  0  0  0  0  0  0  0  0  0  0  0
   -2.9178   -0.7193   -0.0807 H   0  0  0  0  0  0  0  0  0  0  0  0
   -1.3451    0.2615   -1.5637 H   0  0  0  0  0  0  0  0  0  0  0  0
   -1.1024    1.2990    1.3167 H   0  0  0  0  0  0  0  0  0  0  0  0
   -0.6405    2.2708   -0.1842 H   0  0  0  0  0  0  0  0  0  0  0  0
   -2.2949    1.6873    0.0653 H   0  0  0  0  0  0  0  0  0  0  0  0
    0.6521   -1.0414   -1.3516 H   0  0  0  0  0  0  0  0  0  0  0  0
    0.8874   -1.4042    1.3857 H   0  0  0  0  0  0  0  0  0  0  0  0
    2.5308   -1.1503   -0.8432 H   0  0  0  0  0  0  0  0  0  0  0  0
    3.2675   -0.2553    0.6249 H   0  0  0  0  0  0  0  0  0  0  0  0
    1.7108    1.4705   -0.9166 H   0  0  0  0  0  0  0  0  0  0  0  0
  1  2  1  0
  2  3  1  0
  2  4  1  0
  4  5  1  0
  5  6  1  0
  6  7  1  0
  7  8  1  0
  7  4  1  0
  8  5  1  0
  1  9  1  0
  1 10  1  0
  1 11  1  0
  2 12  1  0
  3 13  1  0
  3 14  1  0
  3 15  1  0
  4 16  1  0
  5 17  1  0
  6 18  1  0
  6 19  1  0
  7 20  1  0
M  END
