
     RDKit          3D

 25 25  0  0  0  0  0  0  0  0999 V2000
   -1.9786    1.3622   -0.0579 C   0  0  0  0  0  0  0  0  0  0  0  0
   -1.3498    0.0616   -0.3580 C   0  0  0  0  0  0  0  0  0  0  0  0
   -1.8183   -0.9842    0.6353 C   0  0  0  0  0  0  0  0  0  0  0  0
    0.1312    0.0627   -0.5356 C   0  0  0  0  0  0  0  0  0  0  0  0
    0.5054    0.8968   -1.5913 O   0  0  0  0  0  0  0  0  0  0  0  0
    0.7444   -1.3108   -0.7287 C   0  0  0  0  0  0  0  0  0  0  0  0
    1.3999   -1.2149    0.6299 C   0  0  0  0  0  0  0  0  0  0  0  0
    1.0121    0.2606    0.6298 C   0  0  0  0  0  0  0  0  0  0  0  0
    2.2149    1.1760    0.3552 C   0  0  0  0  0  0  0  0  0  0  0  0
   -2.8906    1.2091    0.5910 H   0  0  0  0  0  0  0  0  0  0  0  0
   -2.3931    1.8726   -0.9756 H   0  0  0  0  0  0  0  0  0  0  0  0
   -1.3633    2.1028    0.4480 H   0  0  0  0  0  0  0  0  0  0  0  0
   -1.7904   -0.2961   -1.3366 H   0  0  0  0  0  0  0  0  0  0  0  0
   -1.8001   -1.9938    0.1655 H   0  0  0  0  0  0  0  0  0  0  0  0
   -2.9114   -0.7644    0.8116 H   0  0  0  0  0  0  0  0  0  0  0  0
   -1.3181   -0.9285    1.5997 H   0  0  0  0  0  0  0  0  0  0  0  0
    0.5435    0.3527   -2.4122 H   0  0  0  0  0  0  0  0  0  0  0  0
    0.0359   -2.1312   -0.8658 H   0  0  0  0  0  0  0  0  0  0  0  0
    1.5361   -1.3613   -1.5079 H   0  0  0  0  0  0  0  0  0  0  0  0
    2.4920   -1.3420    0.6463 H   0  0  0  0  0  0  0  0  0  0  0  0
    0.9017   -1.8345    1.3745 H   0  0  0  0  0  0  0  0  0  0  0  0
    0.6048    0.5099    1.6014 H   0  0  0  0  0  0  0  0  0  0  0  0
    2.3732    1.2955   -0.7470 H   0  0  0  0  0  0  0  0  0  0  0  0
    2.0151    2.1954    0.7457 H   0  0  0  0  0  0  0  0  0  0  0  0
    3.1034    0.8038    0.8826 H   0  0  0  0  0  0  0  0  0  0  0  0
  1  2  1  0
  2  3  1  0
  2  4  1  0
  4  5  1  0
  4  6  1  0
  6  7  1  0
  7  8  1  0
  8  9  1  0
  8  4  1  0
  1 10  1  0
  1 11  1  0
  1 12  1  0
  2 13  1  0
  3 14  1  0
  3 15  1  0
  3 16  1  0
  5 17  1  0
  6 18  1  0
  6 19  1  0
  7 20  1  0
  7 21  1  0
  8 22  1  0
  9 23  1  0
  9 24  1  0
  9 25  1  0
M  END
