
     RDKit          3D

 23 22  0  0  0  0  0  0  0  0999 V2000
    1.8285   -0.6014    1.1434 C   0  0  0  0  0  0  0  0  0  0  0  0
    1.4411    0.1264   -0.1032 C   0  0  0  0  0  0  0  0  0  0  0  0
    2.3446   -0.3320   -1.2222 C   0  0  0  0  0  0  0  0  0  0  0  0
    0.0531   -0.0049   -0.5107 C   0  0  0  0  0  0  0  0  0  0  0  0
   -0.1831   -0.4941   -1.6031 O   0  0  0  0  0  0  0  0  0  0  0  0
   -1.1434    0.3970    0.2667 C   0  0  0  0  0  0  0  0  0  0  0  0
   -2.0270    1.3544   -0.5117 C   0  0  0  0  0  0  0  0  0  0  0  0
   -1.9675   -0.8619    0.4909 C   0  0  0  0  0  0  0  0  0  0  0  0
   -0.8665    0.9431    1.4876 O   0  0  0  0  0  0  0  0  0  0  0  0
    2.8745   -0.9655    1.0540 H   0  0  0  0  0  0  0  0  0  0  0  0
    1.8367    0.1214    1.9927 H   0  0  0  0  0  0  0  0  0  0  0  0
    1.2012   -1.4863    1.3575 H   0  0  0  0  0  0  0  0  0  0  0  0
    1.6589    1.2270    0.0361 H   0  0  0  0  0  0  0  0  0  0  0  0
    1.9371   -1.2311   -1.7448 H   0  0  0  0  0  0  0  0  0  0  0  0
    2.5501    0.4592   -1.9632 H   0  0  0  0  0  0  0  0  0  0  0  0
    3.3452   -0.6626   -0.8186 H   0  0  0  0  0  0  0  0  0  0  0  0
   -1.7720    1.2973   -1.5844 H   0  0  0  0  0  0  0  0  0  0  0  0
   -3.1018    1.1156   -0.3667 H   0  0  0  0  0  0  0  0  0  0  0  0
   -1.8588    2.3797   -0.1143 H   0  0  0  0  0  0  0  0  0  0  0  0
   -1.3052   -1.7190    0.6877 H   0  0  0  0  0  0  0  0  0  0  0  0
   -2.6522   -1.0636   -0.3624 H   0  0  0  0  0  0  0  0  0  0  0  0
   -2.6057   -0.7017    1.4008 H   0  0  0  0  0  0  0  0  0  0  0  0
   -1.5876    0.7027    2.1116 H   0  0  0  0  0  0  0  0  0  0  0  0
  1  2  1  0
  2  3  1  0
  2  4  1  0
  4  5  2  0
  4  6  1  0
  6  7  1  0
  6  8  1  0
  6  9  1  0
  1 10  1  0
  1 11  1  0
  1 12  1  0
  2 13  1  0
  3 14  1  0
  3 15  1  0
  3 16  1  0
  7 17  1  0
  7 18  1  0
  7 19  1  0
  8 20  1  0
  8 21  1  0
  8 22  1  0
  9 23  1  0
M  END
