
     RDKit          3D

 21 20  0  0  0  0  0  0  0  0999 V2000
   -0.1689    1.2226   -1.2189 C   0  0  0  0  0  0  0  0  0  0  0  0
   -0.0492   -0.1345   -0.6261 C   0  0  0  0  0  0  0  0  0  0  0  0
    1.3090   -0.5679   -0.2515 C   0  0  0  0  0  0  0  0  0  0  0  0
    2.0532    0.2402    0.7410 C   0  0  0  0  0  0  0  0  0  0  0  0
    3.3134   -0.3884    0.9123 O   0  0  0  0  0  0  0  0  0  0  0  0
   -1.0096   -0.2895    0.4949 C   0  0  0  0  0  0  0  0  0  0  0  0
   -0.5686   -0.5475    1.5867 O   0  0  0  0  0  0  0  0  0  0  0  0
   -2.4819   -0.1359    0.3003 C   0  0  0  0  0  0  0  0  0  0  0  0
   -3.1136   -0.3367    1.5139 O   0  0  0  0  0  0  0  0  0  0  0  0
   -1.2462    1.4381   -1.3790 H   0  0  0  0  0  0  0  0  0  0  0  0
    0.2866    1.1898   -2.2514 H   0  0  0  0  0  0  0  0  0  0  0  0
    0.2487    2.0347   -0.6308 H   0  0  0  0  0  0  0  0  0  0  0  0
   -0.4144   -0.8649   -1.4165 H   0  0  0  0  0  0  0  0  0  0  0  0
    1.9690   -0.6564   -1.1660 H   0  0  0  0  0  0  0  0  0  0  0  0
    1.2901   -1.6285    0.1404 H   0  0  0  0  0  0  0  0  0  0  0  0
    2.3105    1.2640    0.4005 H   0  0  0  0  0  0  0  0  0  0  0  0
    1.5881    0.2217    1.7394 H   0  0  0  0  0  0  0  0  0  0  0  0
    3.6192   -0.7570    0.0541 H   0  0  0  0  0  0  0  0  0  0  0  0
   -2.7238    0.8709   -0.0923 H   0  0  0  0  0  0  0  0  0  0  0  0
   -2.7921   -0.8985   -0.4584 H   0  0  0  0  0  0  0  0  0  0  0  0
   -3.4195   -1.2761    1.6075 H   0  0  0  0  0  0  0  0  0  0  0  0
  1  2  1  0
  2  3  1  0
  3  4  1  0
  4  5  1  0
  2  6  1  0
  6  7  2  0
  6  8  1  0
  8  9  1  0
  1 10  1  0
  1 11  1  0
  1 12  1  0
  2 13  1  0
  3 14  1  0
  3 15  1  0
  4 16  1  0
  4 17  1  0
  5 18  1  0
  8 19  1  0
  8 20  1  0
  9 21  1  0
M  END
