
     RDKit          3D

 21 21  0  0  0  0  0  0  0  0999 V2000
   -2.1849   -0.8041    0.4657 C   0  0  0  0  0  0  0  0  0  0  0  0
   -1.3200    0.1417   -0.3443 C   0  0  0  0  0  0  0  0  0  0  0  0
   -1.3658    1.4959    0.1937 C   0  0  0  0  0  0  0  0  0  0  0  0
   -1.6814    1.6880    1.3482 O   0  0  0  0  0  0  0  0  0  0  0  0
    0.0710   -0.4370   -0.3636 C   0  0  0  0  0  0  0  0  0  0  0  0
    0.6393   -0.5773    0.9943 C   0  0  0  0  0  0  0  0  0  0  0  0
    1.9287   -0.2950    0.9279 C   0  0  0  0  0  0  0  0  0  0  0  0
    2.3734    0.0606   -0.4460 C   0  0  0  0  0  0  0  0  0  0  0  0
    1.0443    0.3647   -1.1482 C   0  0  0  0  0  0  0  0  0  0  0  0
   -2.0433   -1.8203    0.0518 H   0  0  0  0  0  0  0  0  0  0  0  0
   -3.2497   -0.4581    0.3742 H   0  0  0  0  0  0  0  0  0  0  0  0
   -1.8944   -0.8247    1.5345 H   0  0  0  0  0  0  0  0  0  0  0  0
   -1.7008    0.0797   -1.3961 H   0  0  0  0  0  0  0  0  0  0  0  0
   -1.1222    2.3481   -0.4183 H   0  0  0  0  0  0  0  0  0  0  0  0
   -0.0262   -1.4688   -0.8045 H   0  0  0  0  0  0  0  0  0  0  0  0
    0.1073   -0.8657    1.9242 H   0  0  0  0  0  0  0  0  0  0  0  0
    2.5897   -0.3269    1.8171 H   0  0  0  0  0  0  0  0  0  0  0  0
    2.9097   -0.7427   -0.9540 H   0  0  0  0  0  0  0  0  0  0  0  0
    2.9371    1.0200   -0.4019 H   0  0  0  0  0  0  0  0  0  0  0  0
    0.8439    1.4553   -1.1652 H   0  0  0  0  0  0  0  0  0  0  0  0
    1.1443   -0.0335   -2.1898 H   0  0  0  0  0  0  0  0  0  0  0  0
  1  2  1  0
  2  3  1  0
  3  4  2  0
  2  5  1  0
  5  6  1  0
  6  7  2  0
  7  8  1  0
  8  9  1  0
  9  5  1  0
  1 10  1  0
  1 11  1  0
  1 12  1  0
  2 13  1  0
  3 14  1  0
  5 15  1  0
  6 16  1  0
  7 17  1  0
  8 18  1  0
  8 19  1  0
  9 20  1  0
  9 21  1  0
M  END
