
     RDKit          3D

 21 21  0  0  0  0  0  0  0  0999 V2000
    1.5994    0.6653    1.3637 C   0  0  0  0  0  0  0  0  0  0  0  0
    1.1526   -0.4152    0.4615 C   0  0  0  0  0  0  0  0  0  0  0  0
    2.0501   -0.3947   -0.7761 C   0  0  0  0  0  0  0  0  0  0  0  0
   -0.2402   -0.4019    0.0057 C   0  0  0  0  0  0  0  0  0  0  0  0
   -1.1896   -0.4740    1.0394 O   0  0  0  0  0  0  0  0  0  0  0  0
   -2.3861   -0.4925    0.3008 C   0  0  0  0  0  0  0  0  0  0  0  0
   -2.1754    0.5031   -0.8350 C   0  0  0  0  0  0  0  0  0  0  0  0
   -0.7128    0.7652   -0.7333 C   0  0  0  0  0  0  0  0  0  0  0  0
   -0.1795    1.7508   -1.1982 O   0  0  0  0  0  0  0  0  0  0  0  0
    1.1822    0.4799    2.3964 H   0  0  0  0  0  0  0  0  0  0  0  0
    1.3992    1.6867    1.0196 H   0  0  0  0  0  0  0  0  0  0  0  0
    2.7012    0.5890    1.4910 H   0  0  0  0  0  0  0  0  0  0  0  0
    1.3553   -1.3906    0.9529 H   0  0  0  0  0  0  0  0  0  0  0  0
    2.0525    0.6055   -1.2544 H   0  0  0  0  0  0  0  0  0  0  0  0
    3.0941   -0.7053   -0.5085 H   0  0  0  0  0  0  0  0  0  0  0  0
    1.6919   -1.1756   -1.5032 H   0  0  0  0  0  0  0  0  0  0  0  0
   -0.4392   -1.3001   -0.6248 H   0  0  0  0  0  0  0  0  0  0  0  0
   -3.1955   -0.1483    0.9656 H   0  0  0  0  0  0  0  0  0  0  0  0
   -2.5291   -1.5137   -0.0630 H   0  0  0  0  0  0  0  0  0  0  0  0
   -2.4417   -0.0361   -1.7715 H   0  0  0  0  0  0  0  0  0  0  0  0
   -2.7892    1.4024   -0.7286 H   0  0  0  0  0  0  0  0  0  0  0  0
  1  2  1  0
  2  3  1  0
  2  4  1  0
  4  5  1  0
  5  6  1  0
  6  7  1  0
  7  8  1  0
  8  9  2  0
  8  4  1  0
  1 10  1  0
  1 11  1  0
  1 12  1  0
  2 13  1  0
  3 14  1  0
  3 15  1  0
  3 16  1  0
  4 17  1  0
  6 18  1  0
  6 19  1  0
  7 20  1  0
  7 21  1  0
M  END
