
     RDKit          3D

 21 20  0  0  0  0  0  0  0  0999 V2000
   -1.6622   -1.2204    0.3873 C   0  0  0  0  0  0  0  0  0  0  0  0
   -1.2354    0.2593    0.3020 C   0  0  0  0  0  0  0  0  0  0  0  0
   -2.4813    1.0178    0.6724 C   0  0  0  0  0  0  0  0  0  0  0  0
   -2.9889    1.7261   -0.1512 O   0  0  0  0  0  0  0  0  0  0  0  0
   -0.8273    0.4750   -0.9523 O   0  0  0  0  0  0  0  0  0  0  0  0
    0.4305    0.8242   -1.2782 C   0  0  0  0  0  0  0  0  0  0  0  0
    1.5554   -0.0993   -1.0141 C   0  0  0  0  0  0  0  0  0  0  0  0
    1.8630   -0.4918    0.3762 C   0  0  0  0  0  0  0  0  0  0  0  0
    2.1901    0.5805    1.2031 O   0  0  0  0  0  0  0  0  0  0  0  0
   -0.9428   -1.8795   -0.0967 H   0  0  0  0  0  0  0  0  0  0  0  0
   -2.6684   -1.3243   -0.0957 H   0  0  0  0  0  0  0  0  0  0  0  0
   -1.8284   -1.4193    1.4633 H   0  0  0  0  0  0  0  0  0  0  0  0
   -0.4636    0.4096    1.0443 H   0  0  0  0  0  0  0  0  0  0  0  0
   -2.8961    0.9147    1.6638 H   0  0  0  0  0  0  0  0  0  0  0  0
    0.4173    0.9814   -2.4150 H   0  0  0  0  0  0  0  0  0  0  0  0
    0.6703    1.8842   -0.9220 H   0  0  0  0  0  0  0  0  0  0  0  0
    1.3617   -1.0320   -1.6391 H   0  0  0  0  0  0  0  0  0  0  0  0
    2.5215    0.2781   -1.4661 H   0  0  0  0  0  0  0  0  0  0  0  0
    1.1778   -1.2261    0.8179 H   0  0  0  0  0  0  0  0  0  0  0  0
    2.8492   -1.0795    0.3192 H   0  0  0  0  0  0  0  0  0  0  0  0
    2.9576    0.4211    1.7808 H   0  0  0  0  0  0  0  0  0  0  0  0
  1  2  1  0
  2  3  1  0
  3  4  2  0
  2  5  1  0
  5  6  1  0
  6  7  1  0
  7  8  1  0
  8  9  1  0
  1 10  1  0
  1 11  1  0
  1 12  1  0
  2 13  1  0
  3 14  1  0
  6 15  1  0
  6 16  1  0
  7 17  1  0
  7 18  1  0
  8 19  1  0
  8 20  1  0
  9 21  1  0
M  END
