
     RDKit          3D

 25 25  0  0  0  0  0  0  0  0999 V2000
   -1.1214    0.2633    1.4603 C   0  0  0  0  0  0  0  0  0  0  0  0
   -1.1242    0.2825   -0.0508 C   0  0  0  0  0  0  0  0  0  0  0  0
   -1.4974    1.6874   -0.4904 C   0  0  0  0  0  0  0  0  0  0  0  0
   -2.2127   -0.6428   -0.5268 C   0  0  0  0  0  0  0  0  0  0  0  0
    0.2224   -0.1355   -0.6096 C   0  0  0  0  0  0  0  0  0  0  0  0
    0.6485   -1.5084   -0.2172 C   0  0  0  0  0  0  0  0  0  0  0  0
    1.3504   -0.2538    0.3027 C   0  0  0  0  0  0  0  0  0  0  0  0
    2.7819   -0.1225   -0.1193 C   0  0  0  0  0  0  0  0  0  0  0  0
    3.6580   -0.2795    0.9542 O   0  0  0  0  0  0  0  0  0  0  0  0
   -0.7728   -0.7172    1.8541 H   0  0  0  0  0  0  0  0  0  0  0  0
   -0.4985    1.0481    1.9004 H   0  0  0  0  0  0  0  0  0  0  0  0
   -2.1714    0.4590    1.7862 H   0  0  0  0  0  0  0  0  0  0  0  0
   -2.5734    1.8586   -0.5335 H   0  0  0  0  0  0  0  0  0  0  0  0
   -1.0071    1.8515   -1.4778 H   0  0  0  0  0  0  0  0  0  0  0  0
   -1.0551    2.4056    0.2165 H   0  0  0  0  0  0  0  0  0  0  0  0
   -2.4425   -0.5387   -1.5965 H   0  0  0  0  0  0  0  0  0  0  0  0
   -3.1450   -0.3462    0.0183 H   0  0  0  0  0  0  0  0  0  0  0  0
   -2.0218   -1.7045   -0.2791 H   0  0  0  0  0  0  0  0  0  0  0  0
    0.3326    0.1340   -1.6858 H   0  0  0  0  0  0  0  0  0  0  0  0
    1.1366   -2.1110   -0.9820 H   0  0  0  0  0  0  0  0  0  0  0  0
    0.0675   -2.1045    0.5199 H   0  0  0  0  0  0  0  0  0  0  0  0
    1.1794    0.0141    1.3743 H   0  0  0  0  0  0  0  0  0  0  0  0
    2.9969    0.8544   -0.6131 H   0  0  0  0  0  0  0  0  0  0  0  0
    3.0512   -0.8979   -0.8655 H   0  0  0  0  0  0  0  0  0  0  0  0
    4.2178    0.5041    1.1081 H   0  0  0  0  0  0  0  0  0  0  0  0
  1  2  1  0
  2  3  1  0
  2  4  1  0
  2  5  1  0
  5  6  1  0
  6  7  1  0
  7  8  1  0
  8  9  1  0
  7  5  1  0
  1 10  1  0
  1 11  1  0
  1 12  1  0
  3 13  1  0
  3 14  1  0
  3 15  1  0
  4 16  1  0
  4 17  1  0
  4 18  1  0
  5 19  1  0
  6 20  1  0
  6 21  1  0
  7 22  1  0
  8 23  1  0
  8 24  1  0
  9 25  1  0
M  END
