
     RDKit          3D

 19 19  0  0  0  0  0  0  0  0999 V2000
   -1.0778    0.5443    1.2214 C   0  0  0  0  0  0  0  0  0  0  0  0
   -0.9388   -0.5387    0.1907 C   0  0  0  0  0  0  0  0  0  0  0  0
   -1.8273   -0.3320   -1.0053 C   0  0  0  0  0  0  0  0  0  0  0  0
    0.4734   -0.7038   -0.3012 C   0  0  0  0  0  0  0  0  0  0  0  0
    1.0429    0.4722   -0.9260 C   0  0  0  0  0  0  0  0  0  0  0  0
    2.1370    0.7967   -0.2689 C   0  0  0  0  0  0  0  0  0  0  0  0
    2.3380   -0.1493    0.8173 C   0  0  0  0  0  0  0  0  0  0  0  0
    3.2611   -0.1795    1.6637 O   0  0  0  0  0  0  0  0  0  0  0  0
    1.2962   -1.0616    0.7708 O   0  0  0  0  0  0  0  0  0  0  0  0
   -0.3990    1.3975    0.9868 H   0  0  0  0  0  0  0  0  0  0  0  0
   -2.1213    0.8593    1.3266 H   0  0  0  0  0  0  0  0  0  0  0  0
   -0.7351    0.1354    2.2066 H   0  0  0  0  0  0  0  0  0  0  0  0
   -1.2450   -1.4933    0.6726 H   0  0  0  0  0  0  0  0  0  0  0  0
   -1.2618   -0.4511   -1.9756 H   0  0  0  0  0  0  0  0  0  0  0  0
   -2.2572    0.6942   -1.0551 H   0  0  0  0  0  0  0  0  0  0  0  0
   -2.6547   -1.0860   -1.0629 H   0  0  0  0  0  0  0  0  0  0  0  0
    0.4789   -1.5385   -1.0304 H   0  0  0  0  0  0  0  0  0  0  0  0
    0.6806    1.0187   -1.7717 H   0  0  0  0  0  0  0  0  0  0  0  0
    2.8099    1.6158   -0.4596 H   0  0  0  0  0  0  0  0  0  0  0  0
  1  2  1  0
  2  3  1  0
  2  4  1  0
  4  5  1  0
  5  6  2  0
  6  7  1  0
  7  8  2  0
  7  9  1  0
  9  4  1  0
  1 10  1  0
  1 11  1  0
  1 12  1  0
  2 13  1  0
  3 14  1  0
  3 15  1  0
  3 16  1  0
  4 17  1  0
  5 18  1  0
  6 19  1  0
M  END
