
     RDKit          3D

 25 25  0  0  0  0  0  0  0  0999 V2000
    2.9433   -0.6963    1.1847 C   0  0  0  0  0  0  0  0  0  0  0  0
    2.2421   -0.2509   -0.0815 C   0  0  0  0  0  0  0  0  0  0  0  0
    2.5085    1.1996   -0.2967 C   0  0  0  0  0  0  0  0  0  0  0  0
    0.7754   -0.5881    0.0287 C   0  0  0  0  0  0  0  0  0  0  0  0
    0.0484   -0.2244   -1.0709 O   0  0  0  0  0  0  0  0  0  0  0  0
   -1.2864   -0.5111   -1.0286 C   0  0  0  0  0  0  0  0  0  0  0  0
   -2.0710    0.1169    0.0664 C   0  0  0  0  0  0  0  0  0  0  0  0
   -3.5680   -0.2728    0.0194 C   0  0  0  0  0  0  0  0  0  0  0  0
   -3.1130    1.1394   -0.1916 C   0  0  0  0  0  0  0  0  0  0  0  0
    3.8863   -1.2365    0.9594 H   0  0  0  0  0  0  0  0  0  0  0  0
    2.2759   -1.3847    1.7521 H   0  0  0  0  0  0  0  0  0  0  0  0
    3.0872    0.1901    1.8252 H   0  0  0  0  0  0  0  0  0  0  0  0
    2.6989   -0.8397   -0.9160 H   0  0  0  0  0  0  0  0  0  0  0  0
    2.8653    1.7057    0.6477 H   0  0  0  0  0  0  0  0  0  0  0  0
    1.6383    1.7737   -0.6653 H   0  0  0  0  0  0  0  0  0  0  0  0
    3.3344    1.3571   -1.0292 H   0  0  0  0  0  0  0  0  0  0  0  0
    0.6988   -1.6876    0.1664 H   0  0  0  0  0  0  0  0  0  0  0  0
    0.3572   -0.1264    0.9457 H   0  0  0  0  0  0  0  0  0  0  0  0
   -1.3945   -1.6271   -0.9168 H   0  0  0  0  0  0  0  0  0  0  0  0
   -1.7501   -0.2359   -1.9959 H   0  0  0  0  0  0  0  0  0  0  0  0
   -1.6407    0.1265    1.0922 H   0  0  0  0  0  0  0  0  0  0  0  0
   -3.9532   -0.7694   -0.8736 H   0  0  0  0  0  0  0  0  0  0  0  0
   -4.0370   -0.5715    0.9751 H   0  0  0  0  0  0  0  0  0  0  0  0
   -3.1735    1.5740   -1.2053 H   0  0  0  0  0  0  0  0  0  0  0  0
   -3.3723    1.8394    0.6085 H   0  0  0  0  0  0  0  0  0  0  0  0
  1  2  1  0
  2  3  1  0
  2  4  1  0
  4  5  1  0
  5  6  1  0
  6  7  1  0
  7  8  1  0
  8  9  1  0
  9  7  1  0
  1 10  1  0
  1 11  1  0
  1 12  1  0
  2 13  1  0
  3 14  1  0
  3 15  1  0
  3 16  1  0
  4 17  1  0
  4 18  1  0
  6 19  1  0
  6 20  1  0
  7 21  1  0
  8 22  1  0
  8 23  1  0
  9 24  1  0
  9 25  1  0
M  END
