
     RDKit          3D

 23 22  0  0  0  0  0  0  0  0999 V2000
   -1.9149   -1.0067    0.9168 C   0  0  0  0  0  0  0  0  0  0  0  0
   -1.4402    0.1912    0.1541 C   0  0  0  0  0  0  0  0  0  0  0  0
   -2.3629    0.3910   -1.0269 C   0  0  0  0  0  0  0  0  0  0  0  0
   -1.4616    1.4503    0.9945 C   0  0  0  0  0  0  0  0  0  0  0  0
   -0.0811    0.0308   -0.3667 C   0  0  0  0  0  0  0  0  0  0  0  0
    1.0391   -0.1177   -0.7830 C   0  0  0  0  0  0  0  0  0  0  0  0
    2.3781   -0.3189   -1.2780 C   0  0  0  0  0  0  0  0  0  0  0  0
    3.3186   -0.8314   -0.2192 C   0  0  0  0  0  0  0  0  0  0  0  0
    3.4340    0.0342    0.8585 O   0  0  0  0  0  0  0  0  0  0  0  0
   -1.0780   -1.7414    1.0204 H   0  0  0  0  0  0  0  0  0  0  0  0
   -2.7372   -1.5549    0.4059 H   0  0  0  0  0  0  0  0  0  0  0  0
   -2.2262   -0.7617    1.9624 H   0  0  0  0  0  0  0  0  0  0  0  0
   -1.9278   -0.1671   -1.8797 H   0  0  0  0  0  0  0  0  0  0  0  0
   -2.4491    1.4776   -1.2980 H   0  0  0  0  0  0  0  0  0  0  0  0
   -3.3683   -0.0172   -0.7458 H   0  0  0  0  0  0  0  0  0  0  0  0
   -0.4987    1.5524    1.5451 H   0  0  0  0  0  0  0  0  0  0  0  0
   -1.4900    2.3094    0.2753 H   0  0  0  0  0  0  0  0  0  0  0  0
   -2.3270    1.5119    1.6528 H   0  0  0  0  0  0  0  0  0  0  0  0
    2.3662   -1.0704   -2.0938 H   0  0  0  0  0  0  0  0  0  0  0  0
    2.7692    0.6337   -1.6764 H   0  0  0  0  0  0  0  0  0  0  0  0
    4.3165   -0.9648   -0.6635 H   0  0  0  0  0  0  0  0  0  0  0  0
    2.9650   -1.8217    0.1175 H   0  0  0  0  0  0  0  0  0  0  0  0
    2.7763    0.7916    0.8048 H   0  0  0  0  0  0  0  0  0  0  0  0
  1  2  1  0
  2  3  1  0
  2  4  1  0
  2  5  1  0
  5  6  3  0
  6  7  1  0
  7  8  1  0
  8  9  1  0
  1 10  1  0
  1 11  1  0
  1 12  1  0
  3 13  1  0
  3 14  1  0
  3 15  1  0
  4 16  1  0
  4 17  1  0
  4 18  1  0
  7 19  1  0
  7 20  1  0
  8 21  1  0
  8 22  1  0
  9 23  1  0
M  END
