
     RDKit          3D

 23 23  0  0  0  0  0  0  0  0999 V2000
    1.9230    0.2119   -0.8132 C   0  0  0  0  0  0  0  0  0  0  0  0
    1.3648   -0.3556    0.4333 C   0  0  0  0  0  0  0  0  0  0  0  0
    2.1156    0.1829    1.5899 C   0  0  0  0  0  0  0  0  0  0  0  0
    2.1292   -0.4222    2.6434 O   0  0  0  0  0  0  0  0  0  0  0  0
   -0.0809   -0.2054    0.6788 C   0  0  0  0  0  0  0  0  0  0  0  0
   -1.0672   -0.7989   -0.3111 C   0  0  0  0  0  0  0  0  0  0  0  0
   -2.2677   -1.5500    0.1847 C   0  0  0  0  0  0  0  0  0  0  0  0
   -1.0196    0.7061    0.0852 C   0  0  0  0  0  0  0  0  0  0  0  0
   -0.8342    1.5957   -1.0774 C   0  0  0  0  0  0  0  0  0  0  0  0
    3.0404    0.0257   -0.7765 H   0  0  0  0  0  0  0  0  0  0  0  0
    1.8396    1.3162   -0.8397 H   0  0  0  0  0  0  0  0  0  0  0  0
    1.5965   -0.2840   -1.7476 H   0  0  0  0  0  0  0  0  0  0  0  0
    1.5869   -1.4659    0.4185 H   0  0  0  0  0  0  0  0  0  0  0  0
    2.6550    1.1068    1.5189 H   0  0  0  0  0  0  0  0  0  0  0  0
   -0.3229   -0.5409    1.7361 H   0  0  0  0  0  0  0  0  0  0  0  0
   -0.5960   -1.0733   -1.2693 H   0  0  0  0  0  0  0  0  0  0  0  0
   -2.4233   -2.4673   -0.3814 H   0  0  0  0  0  0  0  0  0  0  0  0
   -2.1142   -1.7611    1.2746 H   0  0  0  0  0  0  0  0  0  0  0  0
   -3.1424   -0.8674    0.1356 H   0  0  0  0  0  0  0  0  0  0  0  0
   -1.8915    1.0571    0.7202 H   0  0  0  0  0  0  0  0  0  0  0  0
   -1.8533    1.8588   -1.4908 H   0  0  0  0  0  0  0  0  0  0  0  0
   -0.2886    1.1830   -1.9321 H   0  0  0  0  0  0  0  0  0  0  0  0
   -0.3492    2.5478   -0.7802 H   0  0  0  0  0  0  0  0  0  0  0  0
  1  2  1  0
  2  3  1  0
  3  4  2  0
  2  5  1  0
  5  6  1  0
  6  7  1  0
  6  8  1  0
  8  9  1  0
  8  5  1  0
  1 10  1  0
  1 11  1  0
  1 12  1  0
  2 13  1  0
  3 14  1  0
  5 15  1  0
  6 16  1  0
  7 17  1  0
  7 18  1  0
  7 19  1  0
  8 20  1  0
  9 21  1  0
  9 22  1  0
  9 23  1  0
M  END
