
     RDKit          3D

 18 17  0  0  0  0  0  0  0  0999 V2000
   -1.4445   -1.0014   -0.5597 C   0  0  0  0  0  0  0  0  0  0  0  0
   -0.8542   -0.0656    0.4731 C   0  0  0  0  0  0  0  0  0  0  0  0
   -1.7752    1.1198    0.6059 C   0  0  0  0  0  0  0  0  0  0  0  0
    0.4973    0.3963    0.1288 C   0  0  0  0  0  0  0  0  0  0  0  0
    0.7252    1.5865   -0.0149 O   0  0  0  0  0  0  0  0  0  0  0  0
    1.6311   -0.5715   -0.0556 C   0  0  0  0  0  0  0  0  0  0  0  0
    2.8755    0.1535   -0.3956 C   0  0  0  0  0  0  0  0  0  0  0  0
    3.9365   -0.3608   -0.5983 O   0  0  0  0  0  0  0  0  0  0  0  0
   -1.6998   -1.9813   -0.0876 H   0  0  0  0  0  0  0  0  0  0  0  0
   -2.3972   -0.5989   -0.9876 H   0  0  0  0  0  0  0  0  0  0  0  0
   -0.7550   -1.1631   -1.4167 H   0  0  0  0  0  0  0  0  0  0  0  0
   -0.7924   -0.5981    1.4601 H   0  0  0  0  0  0  0  0  0  0  0  0
   -2.3665    1.2261   -0.3179 H   0  0  0  0  0  0  0  0  0  0  0  0
   -2.4080    1.0415    1.5044 H   0  0  0  0  0  0  0  0  0  0  0  0
   -1.1616    2.0525    0.7512 H   0  0  0  0  0  0  0  0  0  0  0  0
    1.3672   -1.3109   -0.8676 H   0  0  0  0  0  0  0  0  0  0  0  0
    1.7801   -1.1762    0.8503 H   0  0  0  0  0  0  0  0  0  0  0  0
    2.8414    1.2516   -0.4724 H   0  0  0  0  0  0  0  0  0  0  0  0
  1  2  1  0
  2  3  1  0
  2  4  1  0
  4  5  2  0
  4  6  1  0
  6  7  1  0
  7  8  2  0
  1  9  1  0
  1 10  1  0
  1 11  1  0
  2 12  1  0
  3 13  1  0
  3 14  1  0
  3 15  1  0
  6 16  1  0
  6 17  1  0
  7 18  1  0
M  END
