
     RDKit          3D

 23 22  0  0  0  0  0  0  0  0999 V2000
    0.4122    0.7431    1.3353 C   0  0  0  0  0  0  0  0  0  0  0  0
   -0.1669   -0.0669    0.2290 C   0  0  0  0  0  0  0  0  0  0  0  0
   -1.1972   -1.0170    0.8582 C   0  0  0  0  0  0  0  0  0  0  0  0
   -2.1678   -0.2653    1.4806 O   0  0  0  0  0  0  0  0  0  0  0  0
   -0.9550    0.8621   -0.6679 C   0  0  0  0  0  0  0  0  0  0  0  0
   -1.9477    1.4256    0.1385 O   0  0  0  0  0  0  0  0  0  0  0  0
    0.8011   -0.9201   -0.5181 C   0  0  0  0  0  0  0  0  0  0  0  0
    1.9067   -0.1604   -1.1825 C   0  0  0  0  0  0  0  0  0  0  0  0
    2.6474    0.5417   -0.2443 O   0  0  0  0  0  0  0  0  0  0  0  0
    1.0012    1.6148    1.0209 H   0  0  0  0  0  0  0  0  0  0  0  0
   -0.4605    1.1697    1.9080 H   0  0  0  0  0  0  0  0  0  0  0  0
    0.9350    0.0906    2.0710 H   0  0  0  0  0  0  0  0  0  0  0  0
   -0.6452   -1.5769    1.6337 H   0  0  0  0  0  0  0  0  0  0  0  0
   -1.5627   -1.6626    0.0490 H   0  0  0  0  0  0  0  0  0  0  0  0
   -2.9240   -0.8141    1.7646 H   0  0  0  0  0  0  0  0  0  0  0  0
   -0.3317    1.6780   -1.0832 H   0  0  0  0  0  0  0  0  0  0  0  0
   -1.3743    0.2699   -1.4973 H   0  0  0  0  0  0  0  0  0  0  0  0
   -2.7288    1.7341   -0.3624 H   0  0  0  0  0  0  0  0  0  0  0  0
    1.2363   -1.6466    0.1986 H   0  0  0  0  0  0  0  0  0  0  0  0
    0.2357   -1.4976   -1.2723 H   0  0  0  0  0  0  0  0  0  0  0  0
    2.6055   -0.9213   -1.6199 H   0  0  0  0  0  0  0  0  0  0  0  0
    1.5470    0.4914   -1.9851 H   0  0  0  0  0  0  0  0  0  0  0  0
    3.1337   -0.0720    0.3527 H   0  0  0  0  0  0  0  0  0  0  0  0
  1  2  1  0
  2  3  1  0
  3  4  1  0
  2  5  1  0
  5  6  1  0
  2  7  1  0
  7  8  1  0
  8  9  1  0
  1 10  1  0
  1 11  1  0
  1 12  1  0
  3 13  1  0
  3 14  1  0
  4 15  1  0
  5 16  1  0
  5 17  1  0
  6 18  1  0
  7 19  1  0
  7 20  1  0
  8 21  1  0
  8 22  1  0
  9 23  1  0
M  END
