
     RDKit          3D

 25 26  0  0  0  0  0  0  0  0999 V2000
    2.1741   -1.4583   -0.0130 C   0  0  0  0  0  0  0  0  0  0  0  0
    1.2952   -0.3266   -0.4767 C   0  0  0  0  0  0  0  0  0  0  0  0
    2.2347    0.8784   -0.6637 C   0  0  0  0  0  0  0  0  0  0  0  0
    0.3141    0.1139    0.6069 C   0  0  0  0  0  0  0  0  0  0  0  0
   -0.5551    1.1823    0.2426 C   0  0  0  0  0  0  0  0  0  0  0  0
   -1.9571    1.1879   -0.2979 C   0  0  0  0  0  0  0  0  0  0  0  0
   -2.2298    0.6112    1.1105 C   0  0  0  0  0  0  0  0  0  0  0  0
   -1.0552   -0.2586    0.6684 C   0  0  0  0  0  0  0  0  0  0  0  0
   -1.4851   -1.2176   -0.3875 C   0  0  0  0  0  0  0  0  0  0  0  0
    1.7611   -2.4556   -0.2534 H   0  0  0  0  0  0  0  0  0  0  0  0
    2.4190   -1.4002    1.0560 H   0  0  0  0  0  0  0  0  0  0  0  0
    3.1304   -1.3754   -0.5754 H   0  0  0  0  0  0  0  0  0  0  0  0
    0.8616   -0.5163   -1.4445 H   0  0  0  0  0  0  0  0  0  0  0  0
    2.2911    1.4729    0.2908 H   0  0  0  0  0  0  0  0  0  0  0  0
    3.2485    0.5455   -0.9229 H   0  0  0  0  0  0  0  0  0  0  0  0
    1.8112    1.5753   -1.4190 H   0  0  0  0  0  0  0  0  0  0  0  0
    0.8603    0.0236    1.6025 H   0  0  0  0  0  0  0  0  0  0  0  0
   -0.5722    1.9470    1.0928 H   0  0  0  0  0  0  0  0  0  0  0  0
   -2.3655    2.1877   -0.4621 H   0  0  0  0  0  0  0  0  0  0  0  0
   -2.2135    0.5405   -1.1199 H   0  0  0  0  0  0  0  0  0  0  0  0
   -1.9928    1.3756    1.8468 H   0  0  0  0  0  0  0  0  0  0  0  0
   -3.1644    0.0661    1.1820 H   0  0  0  0  0  0  0  0  0  0  0  0
   -1.1420   -2.2390   -0.0350 H   0  0  0  0  0  0  0  0  0  0  0  0
   -1.0712   -1.1071   -1.3801 H   0  0  0  0  0  0  0  0  0  0  0  0
   -2.5971   -1.3532   -0.4806 H   0  0  0  0  0  0  0  0  0  0  0  0
  1  2  1  0
  2  3  1  0
  2  4  1  0
  4  5  1  0
  5  6  1  0
  6  7  1  0
  7  8  1  0
  8  9  1  0
  8  4  1  0
  8  5  1  0
  1 10  1  0
  1 11  1  0
  1 12  1  0
  2 13  1  0
  3 14  1  0
  3 15  1  0
  3 16  1  0
  4 17  1  0
  5 18  1  0
  6 19  1  0
  6 20  1  0
  7 21  1  0
  7 22  1  0
  9 23  1  0
  9 24  1  0
  9 25  1  0
M  END
