
     RDKit          3D

 19 19  0  0  0  0  0  0  0  0999 V2000
   -0.8037    0.7564   -1.4154 C   0  0  0  0  0  0  0  0  0  0  0  0
   -0.2879    0.1099   -0.1507 C   0  0  0  0  0  0  0  0  0  0  0  0
   -0.5537    1.0645    0.9855 C   0  0  0  0  0  0  0  0  0  0  0  0
   -1.1030   -1.1605    0.0943 C   0  0  0  0  0  0  0  0  0  0  0  0
    1.1472   -0.2187   -0.3352 C   0  0  0  0  0  0  0  0  0  0  0  0
    1.9963   -0.8417    0.6389 C   0  0  0  0  0  0  0  0  0  0  0  0
    2.0364    0.6496    0.4249 O   0  0  0  0  0  0  0  0  0  0  0  0
   -0.1449    1.6275   -1.6197 H   0  0  0  0  0  0  0  0  0  0  0  0
   -0.7273    0.0503   -2.2881 H   0  0  0  0  0  0  0  0  0  0  0  0
   -1.8533    1.0984   -1.2636 H   0  0  0  0  0  0  0  0  0  0  0  0
    0.3350    1.6047    1.3266 H   0  0  0  0  0  0  0  0  0  0  0  0
   -1.0468    0.5250    1.8298 H   0  0  0  0  0  0  0  0  0  0  0  0
   -1.2976    1.8543    0.6839 H   0  0  0  0  0  0  0  0  0  0  0  0
   -1.8329   -1.3204   -0.7184 H   0  0  0  0  0  0  0  0  0  0  0  0
   -1.5898   -1.1283    1.0947 H   0  0  0  0  0  0  0  0  0  0  0  0
   -0.4096   -2.0421    0.1169 H   0  0  0  0  0  0  0  0  0  0  0  0
    1.4575   -0.3386   -1.4149 H   0  0  0  0  0  0  0  0  0  0  0  0
    2.9781   -1.2109    0.3370 H   0  0  0  0  0  0  0  0  0  0  0  0
    1.6998   -1.0794    1.6734 H   0  0  0  0  0  0  0  0  0  0  0  0
  1  2  1  0
  2  3  1  0
  2  4  1  0
  2  5  1  0
  5  6  1  0
  6  7  1  0
  7  5  1  0
  1  8  1  0
  1  9  1  0
  1 10  1  0
  3 11  1  0
  3 12  1  0
  3 13  1  0
  4 14  1  0
  4 15  1  0
  4 16  1  0
  5 17  1  0
  6 18  1  0
  6 19  1  0
M  END
