
     RDKit          3D

 23 23  0  0  0  0  0  0  0  0999 V2000
   -2.1095   -0.6803    1.4990 C   0  0  0  0  0  0  0  0  0  0  0  0
   -1.5796   -0.2234    0.1582 C   0  0  0  0  0  0  0  0  0  0  0  0
   -2.6578    0.5719   -0.5381 C   0  0  0  0  0  0  0  0  0  0  0  0
   -0.3883    0.4516    0.2565 O   0  0  0  0  0  0  0  0  0  0  0  0
    0.5919   -0.2388   -0.4276 C   0  0  0  0  0  0  0  0  0  0  0  0
    1.5844    0.5463   -1.2341 C   0  0  0  0  0  0  0  0  0  0  0  0
    2.0065   -0.2216    0.0132 C   0  0  0  0  0  0  0  0  0  0  0  0
    2.4787    0.6589    1.1325 C   0  0  0  0  0  0  0  0  0  0  0  0
    2.8105   -1.3196   -0.2469 O   0  0  0  0  0  0  0  0  0  0  0  0
   -1.9868    0.0579    2.2895 H   0  0  0  0  0  0  0  0  0  0  0  0
   -1.6549   -1.6628    1.7369 H   0  0  0  0  0  0  0  0  0  0  0  0
   -3.2157   -0.8538    1.3881 H   0  0  0  0  0  0  0  0  0  0  0  0
   -1.4224   -1.1382   -0.4451 H   0  0  0  0  0  0  0  0  0  0  0  0
   -3.6510    0.3828   -0.0692 H   0  0  0  0  0  0  0  0  0  0  0  0
   -2.7655    0.2825   -1.6038 H   0  0  0  0  0  0  0  0  0  0  0  0
   -2.4289    1.6701   -0.5540 H   0  0  0  0  0  0  0  0  0  0  0  0
    0.2783   -1.1878   -0.9272 H   0  0  0  0  0  0  0  0  0  0  0  0
    1.9281    0.1724   -2.2169 H   0  0  0  0  0  0  0  0  0  0  0  0
    1.5234    1.6469   -1.1885 H   0  0  0  0  0  0  0  0  0  0  0  0
    3.3530    1.2732    0.7694 H   0  0  0  0  0  0  0  0  0  0  0  0
    1.6586    1.3422    1.4641 H   0  0  0  0  0  0  0  0  0  0  0  0
    2.8920    0.0613    1.9802 H   0  0  0  0  0  0  0  0  0  0  0  0
    2.7550   -1.5919   -1.1813 H   0  0  0  0  0  0  0  0  0  0  0  0
  1  2  1  0
  2  3  1  0
  2  4  1  0
  4  5  1  0
  5  6  1  0
  6  7  1  0
  7  8  1  0
  7  9  1  0
  7  5  1  0
  1 10  1  0
  1 11  1  0
  1 12  1  0
  2 13  1  0
  3 14  1  0
  3 15  1  0
  3 16  1  0
  5 17  1  0
  6 18  1  0
  6 19  1  0
  8 20  1  0
  8 21  1  0
  8 22  1  0
  9 23  1  0
M  END
