
     RDKit          3D

 23 23  0  0  0  0  0  0  0  0999 V2000
   -0.8443    1.2201    0.9173 C   0  0  0  0  0  0  0  0  0  0  0  0
   -1.0063   -0.2338    0.6079 C   0  0  0  0  0  0  0  0  0  0  0  0
   -2.2810   -0.4323   -0.1709 C   0  0  0  0  0  0  0  0  0  0  0  0
   -2.1968    0.3030   -1.3508 O   0  0  0  0  0  0  0  0  0  0  0  0
    0.1983   -0.7983   -0.0876 C   0  0  0  0  0  0  0  0  0  0  0  0
    1.4296   -0.6541    0.7708 C   0  0  0  0  0  0  0  0  0  0  0  0
    2.0970    0.2054   -0.2726 C   0  0  0  0  0  0  0  0  0  0  0  0
    3.1604   -0.4371   -0.9130 O   0  0  0  0  0  0  0  0  0  0  0  0
    0.8524    0.1265   -1.0906 C   0  0  0  0  0  0  0  0  0  0  0  0
   -1.2834    1.8026    0.0745 H   0  0  0  0  0  0  0  0  0  0  0  0
    0.2111    1.4521    1.0908 H   0  0  0  0  0  0  0  0  0  0  0  0
   -1.4408    1.4488    1.8250 H   0  0  0  0  0  0  0  0  0  0  0  0
   -1.1535   -0.7705    1.5865 H   0  0  0  0  0  0  0  0  0  0  0  0
   -3.1138   -0.0715    0.4702 H   0  0  0  0  0  0  0  0  0  0  0  0
   -2.4744   -1.5172   -0.3673 H   0  0  0  0  0  0  0  0  0  0  0  0
   -3.1210    0.3624   -1.7076 H   0  0  0  0  0  0  0  0  0  0  0  0
    0.0587   -1.7956   -0.5406 H   0  0  0  0  0  0  0  0  0  0  0  0
    1.9444   -1.6284    0.9562 H   0  0  0  0  0  0  0  0  0  0  0  0
    1.2891   -0.1463    1.7444 H   0  0  0  0  0  0  0  0  0  0  0  0
    2.3874    1.2026    0.1134 H   0  0  0  0  0  0  0  0  0  0  0  0
    3.9506   -0.4818   -0.3003 H   0  0  0  0  0  0  0  0  0  0  0  0
    0.9555   -0.2918   -2.1141 H   0  0  0  0  0  0  0  0  0  0  0  0
    0.3808    1.1352   -1.1724 H   0  0  0  0  0  0  0  0  0  0  0  0
  1  2  1  0
  2  3  1  0
  3  4  1  0
  2  5  1  0
  5  6  1  0
  6  7  1  0
  7  8  1  0
  7  9  1  0
  9  5  1  0
  1 10  1  0
  1 11  1  0
  1 12  1  0
  2 13  1  0
  3 14  1  0
  3 15  1  0
  4 16  1  0
  5 17  1  0
  6 18  1  0
  6 19  1  0
  7 20  1  0
  8 21  1  0
  9 22  1  0
  9 23  1  0
M  END
