
     RDKit          3D

 23 23  0  0  0  0  0  0  0  0999 V2000
   -2.2027   -0.8576    0.9191 C   0  0  0  0  0  0  0  0  0  0  0  0
   -1.5735   -0.0420   -0.2162 C   0  0  0  0  0  0  0  0  0  0  0  0
   -2.2773   -0.3585   -1.5034 C   0  0  0  0  0  0  0  0  0  0  0  0
   -0.2345   -0.2048   -0.2131 O   0  0  0  0  0  0  0  0  0  0  0  0
    0.5399    0.8840    0.0707 C   0  0  0  0  0  0  0  0  0  0  0  0
    1.5200    0.4902    1.1550 C   0  0  0  0  0  0  0  0  0  0  0  0
    2.8002    0.2019    0.3692 C   0  0  0  0  0  0  0  0  0  0  0  0
    2.1954    0.0127   -1.0269 C   0  0  0  0  0  0  0  0  0  0  0  0
    1.3385    1.1335   -1.0714 O   0  0  0  0  0  0  0  0  0  0  0  0
   -2.3443   -1.9054    0.6157 H   0  0  0  0  0  0  0  0  0  0  0  0
   -1.4973   -0.8647    1.7755 H   0  0  0  0  0  0  0  0  0  0  0  0
   -3.1418   -0.3767    1.2458 H   0  0  0  0  0  0  0  0  0  0  0  0
   -1.8050    1.0174    0.0290 H   0  0  0  0  0  0  0  0  0  0  0  0
   -1.9864   -1.3297   -1.9380 H   0  0  0  0  0  0  0  0  0  0  0  0
   -3.3645   -0.4631   -1.2422 H   0  0  0  0  0  0  0  0  0  0  0  0
   -2.2047    0.4922   -2.1853 H   0  0  0  0  0  0  0  0  0  0  0  0
    0.0038    1.8082    0.2742 H   0  0  0  0  0  0  0  0  0  0  0  0
    1.6632    1.2702    1.9135 H   0  0  0  0  0  0  0  0  0  0  0  0
    1.2501   -0.4792    1.6290 H   0  0  0  0  0  0  0  0  0  0  0  0
    3.3142   -0.6899    0.7247 H   0  0  0  0  0  0  0  0  0  0  0  0
    3.4419    1.0880    0.3028 H   0  0  0  0  0  0  0  0  0  0  0  0
    2.9480    0.0856   -1.8045 H   0  0  0  0  0  0  0  0  0  0  0  0
    1.6169   -0.9126   -1.0033 H   0  0  0  0  0  0  0  0  0  0  0  0
  1  2  1  0
  2  3  1  0
  2  4  1  0
  4  5  1  0
  5  6  1  0
  6  7  1  0
  7  8  1  0
  8  9  1  0
  9  5  1  0
  1 10  1  0
  1 11  1  0
  1 12  1  0
  2 13  1  0
  3 14  1  0
  3 15  1  0
  3 16  1  0
  5 17  1  0
  6 18  1  0
  6 19  1  0
  7 20  1  0
  7 21  1  0
  8 22  1  0
  8 23  1  0
M  END
