
     RDKit          3D

 21 20  0  0  0  0  0  0  0  0999 V2000
   -2.7083   -0.4765    0.3070 C   0  0  0  0  0  0  0  0  0  0  0  0
   -1.4861    0.3481    0.6937 C   0  0  0  0  0  0  0  0  0  0  0  0
   -1.7009    1.7524    0.1673 C   0  0  0  0  0  0  0  0  0  0  0  0
   -1.4631    0.5089    2.1146 O   0  0  0  0  0  0  0  0  0  0  0  0
   -0.3393   -0.2416    0.1955 C   0  0  0  0  0  0  0  0  0  0  0  0
    0.7410   -0.8089   -0.2976 C   0  0  0  0  0  0  0  0  0  0  0  0
    1.9435   -1.4184   -0.8252 C   0  0  0  0  0  0  0  0  0  0  0  0
    3.1469   -0.5266   -0.4758 C   0  0  0  0  0  0  0  0  0  0  0  0
    2.9421    0.7494   -1.0494 O   0  0  0  0  0  0  0  0  0  0  0  0
   -3.5975    0.0799    0.5780 H   0  0  0  0  0  0  0  0  0  0  0  0
   -2.6036   -0.6677   -0.7993 H   0  0  0  0  0  0  0  0  0  0  0  0
   -2.6943   -1.4750    0.7896 H   0  0  0  0  0  0  0  0  0  0  0  0
   -2.4270    2.2454    0.8608 H   0  0  0  0  0  0  0  0  0  0  0  0
   -0.7762    2.3603    0.1885 H   0  0  0  0  0  0  0  0  0  0  0  0
   -2.1781    1.7762   -0.8334 H   0  0  0  0  0  0  0  0  0  0  0  0
   -0.4827    0.4608    2.3588 H   0  0  0  0  0  0  0  0  0  0  0  0
    2.1297   -2.4329   -0.4174 H   0  0  0  0  0  0  0  0  0  0  0  0
    1.8314   -1.5141   -1.9122 H   0  0  0  0  0  0  0  0  0  0  0  0
    3.2305   -0.3840    0.6062 H   0  0  0  0  0  0  0  0  0  0  0  0
    4.0677   -0.9627   -0.8974 H   0  0  0  0  0  0  0  0  0  0  0  0
    2.4243    0.6271   -1.9054 H   0  0  0  0  0  0  0  0  0  0  0  0
  1  2  1  0
  2  3  1  0
  2  4  1  0
  2  5  1  0
  5  6  3  0
  6  7  1  0
  7  8  1  0
  8  9  1  0
  1 10  1  0
  1 11  1  0
  1 12  1  0
  3 13  1  0
  3 14  1  0
  3 15  1  0
  4 16  1  0
  7 17  1  0
  7 18  1  0
  8 19  1  0
  8 20  1  0
  9 21  1  0
M  END
