
     RDKit          3D

 22 22  0  0  0  0  0  0  0  0999 V2000
    1.8882    1.3670    0.0178 C   0  0  0  0  0  0  0  0  0  0  0  0
    1.4245   -0.0577   -0.2716 C   0  0  0  0  0  0  0  0  0  0  0  0
    2.6979   -0.9071   -0.3767 C   0  0  0  0  0  0  0  0  0  0  0  0
    0.6462   -0.4676    0.7760 O   0  0  0  0  0  0  0  0  0  0  0  0
   -0.6150   -0.8779    0.4485 C   0  0  0  0  0  0  0  0  0  0  0  0
   -1.4676    0.1485   -0.2170 C   0  0  0  0  0  0  0  0  0  0  0  0
   -2.8585   -0.3146   -0.5746 C   0  0  0  0  0  0  0  0  0  0  0  0
   -2.6174    0.7870    0.4339 C   0  0  0  0  0  0  0  0  0  0  0  0
    2.7406    1.6540   -0.6235 H   0  0  0  0  0  0  0  0  0  0  0  0
    2.2322    1.3580    1.0852 H   0  0  0  0  0  0  0  0  0  0  0  0
    1.0511    2.0741   -0.1015 H   0  0  0  0  0  0  0  0  0  0  0  0
    0.9439   -0.1056   -1.2602 H   0  0  0  0  0  0  0  0  0  0  0  0
    2.3766   -1.9246   -0.6913 H   0  0  0  0  0  0  0  0  0  0  0  0
    3.2801   -0.4791   -1.2182 H   0  0  0  0  0  0  0  0  0  0  0  0
    3.2421   -0.9193    0.5705 H   0  0  0  0  0  0  0  0  0  0  0  0
   -0.5451   -1.7610   -0.2464 H   0  0  0  0  0  0  0  0  0  0  0  0
   -1.0938   -1.2752    1.3774 H   0  0  0  0  0  0  0  0  0  0  0  0
   -0.9743    0.7317   -1.0203 H   0  0  0  0  0  0  0  0  0  0  0  0
   -3.1971   -1.3125   -0.1889 H   0  0  0  0  0  0  0  0  0  0  0  0
   -3.3044   -0.0656   -1.5421 H   0  0  0  0  0  0  0  0  0  0  0  0
   -2.9167    1.8073    0.1213 H   0  0  0  0  0  0  0  0  0  0  0  0
   -2.9336    0.5402    1.4673 H   0  0  0  0  0  0  0  0  0  0  0  0
  1  2  1  0
  2  3  1  0
  2  4  1  0
  4  5  1  0
  5  6  1  0
  6  7  1  0
  7  8  1  0
  8  6  1  0
  1  9  1  0
  1 10  1  0
  1 11  1  0
  2 12  1  0
  3 13  1  0
  3 14  1  0
  3 15  1  0
  5 16  1  0
  5 17  1  0
  6 18  1  0
  7 19  1  0
  7 20  1  0
  8 21  1  0
  8 22  1  0
M  END
