
     RDKit          3D

 23 23  0  0  0  0  0  0  0  0999 V2000
   -1.2903    1.4419   -0.3786 C   0  0  0  0  0  0  0  0  0  0  0  0
   -0.9610    0.0102   -0.2660 C   0  0  0  0  0  0  0  0  0  0  0  0
   -1.3436   -0.4589    1.1423 C   0  0  0  0  0  0  0  0  0  0  0  0
   -1.8599   -0.7860   -1.2138 C   0  0  0  0  0  0  0  0  0  0  0  0
    0.3210   -0.3616   -0.4942 O   0  0  0  0  0  0  0  0  0  0  0  0
    1.2911    0.1608    0.2974 C   0  0  0  0  0  0  0  0  0  0  0  0
    2.5251    0.5286   -0.5128 C   0  0  0  0  0  0  0  0  0  0  0  0
    3.3393   -0.0700    0.4468 O   0  0  0  0  0  0  0  0  0  0  0  0
    2.2933   -0.8623    0.8437 C   0  0  0  0  0  0  0  0  0  0  0  0
   -0.7388    2.0156   -1.1281 H   0  0  0  0  0  0  0  0  0  0  0  0
   -1.2519    1.9296    0.6341 H   0  0  0  0  0  0  0  0  0  0  0  0
   -2.3785    1.5238   -0.6724 H   0  0  0  0  0  0  0  0  0  0  0  0
   -0.8405   -1.4558    1.2680 H   0  0  0  0  0  0  0  0  0  0  0  0
   -2.4238   -0.6476    1.2282 H   0  0  0  0  0  0  0  0  0  0  0  0
   -0.9952    0.2517    1.9099 H   0  0  0  0  0  0  0  0  0  0  0  0
   -1.3628   -1.7055   -1.5676 H   0  0  0  0  0  0  0  0  0  0  0  0
   -2.1069   -0.1743   -2.1194 H   0  0  0  0  0  0  0  0  0  0  0  0
   -2.8344   -1.0233   -0.7390 H   0  0  0  0  0  0  0  0  0  0  0  0
    1.0289    0.8568    1.0878 H   0  0  0  0  0  0  0  0  0  0  0  0
    2.6027    1.6311   -0.5611 H   0  0  0  0  0  0  0  0  0  0  0  0
    2.5379    0.0103   -1.5083 H   0  0  0  0  0  0  0  0  0  0  0  0
    2.2557   -0.9639    1.9473 H   0  0  0  0  0  0  0  0  0  0  0  0
    2.1925   -1.8514    0.3559 H   0  0  0  0  0  0  0  0  0  0  0  0
  1  2  1  0
  2  3  1  0
  2  4  1  0
  2  5  1  0
  5  6  1  0
  6  7  1  0
  7  8  1  0
  8  9  1  0
  9  6  1  0
  1 10  1  0
  1 11  1  0
  1 12  1  0
  3 13  1  0
  3 14  1  0
  3 15  1  0
  4 16  1  0
  4 17  1  0
  4 18  1  0
  6 19  1  0
  7 20  1  0
  7 21  1  0
  9 22  1  0
  9 23  1  0
M  END
