
     RDKit          3D

 14 13  0  0  0  0  0  0  0  0999 V2000
    0.1059   -0.6625    1.1744 C   0  0  0  0  0  0  0  0  0  0  0  0
   -0.2755    0.2090   -0.0298 C   0  0  0  0  0  0  0  0  0  0  0  0
    1.0265    0.6087   -0.6781 C   0  0  0  0  0  0  0  0  0  0  0  0
   -1.0606    1.2766    0.3384 O   0  0  0  0  0  0  0  0  0  0  0  0
   -1.0791   -0.6716   -0.9272 C   0  0  0  0  0  0  0  0  0  0  0  0
   -2.2337   -0.4027   -1.2260 O   0  0  0  0  0  0  0  0  0  0  0  0
    0.9189   -0.1768    1.7430 H   0  0  0  0  0  0  0  0  0  0  0  0
   -0.7877   -0.8938    1.7842 H   0  0  0  0  0  0  0  0  0  0  0  0
    0.5552   -1.5802    0.7213 H   0  0  0  0  0  0  0  0  0  0  0  0
    1.3601   -0.2861   -1.2755 H   0  0  0  0  0  0  0  0  0  0  0  0
    0.9465    1.4796   -1.3349 H   0  0  0  0  0  0  0  0  0  0  0  0
    1.8050    0.7444    0.0955 H   0  0  0  0  0  0  0  0  0  0  0  0
   -0.6448    1.9208    0.9384 H   0  0  0  0  0  0  0  0  0  0  0  0
   -0.6369   -1.5654   -1.3236 H   0  0  0  0  0  0  0  0  0  0  0  0
  1  2  1  0
  2  3  1  0
  2  4  1  0
  2  5  1  0
  5  6  2  0
  1  7  1  0
  1  8  1  0
  1  9  1  0
  3 10  1  0
  3 11  1  0
  3 12  1  0
  4 13  1  0
  5 14  1  0
M  END
