
     RDKit          3D

 25 24  0  0  0  0  0  0  0  0999 V2000
   -1.6495   -0.1177   -1.3980 C   0  0  0  0  0  0  0  0  0  0  0  0
   -1.6059   -0.5218    0.0300 C   0  0  0  0  0  0  0  0  0  0  0  0
   -2.8670    0.0639    0.6880 C   0  0  0  0  0  0  0  0  0  0  0  0
   -0.3881   -0.1193    0.7695 C   0  0  0  0  0  0  0  0  0  0  0  0
    0.9416   -0.6252    0.3653 C   0  0  0  0  0  0  0  0  0  0  0  0
    1.9439   -0.0075    1.3957 C   0  0  0  0  0  0  0  0  0  0  0  0
    1.4743   -0.1119   -0.9451 C   0  0  0  0  0  0  0  0  0  0  0  0
    2.8361   -0.7539   -1.1179 C   0  0  0  0  0  0  0  0  0  0  0  0
    2.8753   -1.9666   -1.0459 O   0  0  0  0  0  0  0  0  0  0  0  0
   -1.3060   -0.9440   -2.0286 H   0  0  0  0  0  0  0  0  0  0  0  0
   -2.6991    0.1974   -1.7067 H   0  0  0  0  0  0  0  0  0  0  0  0
   -1.0537    0.7935   -1.5642 H   0  0  0  0  0  0  0  0  0  0  0  0
   -1.7771   -1.6383    0.0645 H   0  0  0  0  0  0  0  0  0  0  0  0
   -3.2120    0.9520    0.1173 H   0  0  0  0  0  0  0  0  0  0  0  0
   -2.5685    0.4242    1.7082 H   0  0  0  0  0  0  0  0  0  0  0  0
   -3.6577   -0.7044    0.7734 H   0  0  0  0  0  0  0  0  0  0  0  0
   -0.3299    1.0330    0.7998 H   0  0  0  0  0  0  0  0  0  0  0  0
   -0.5915   -0.3324    1.8800 H   0  0  0  0  0  0  0  0  0  0  0  0
    1.0183   -1.7349    0.4319 H   0  0  0  0  0  0  0  0  0  0  0  0
    2.9683   -0.1933    1.0432 H   0  0  0  0  0  0  0  0  0  0  0  0
    1.7504    1.0887    1.3111 H   0  0  0  0  0  0  0  0  0  0  0  0
    1.7119   -0.3455    2.3996 H   0  0  0  0  0  0  0  0  0  0  0  0
    1.6104    0.9824   -0.8487 H   0  0  0  0  0  0  0  0  0  0  0  0
    0.8738   -0.3593   -1.8304 H   0  0  0  0  0  0  0  0  0  0  0  0
    3.7019   -0.1404   -1.2921 H   0  0  0  0  0  0  0  0  0  0  0  0
  1  2  1  0
  2  3  1  0
  2  4  1  0
  4  5  1  0
  5  6  1  0
  5  7  1  0
  7  8  1  0
  8  9  2  0
  1 10  1  0
  1 11  1  0
  1 12  1  0
  2 13  1  0
  3 14  1  0
  3 15  1  0
  3 16  1  0
  4 17  1  0
  4 18  1  0
  5 19  1  0
  6 20  1  0
  6 21  1  0
  6 22  1  0
  7 23  1  0
  7 24  1  0
  8 25  1  0
M  END
