
     RDKit          3D

 18 18  0  0  0  0  0  0  0  0999 V2000
   -2.1615    0.7351    0.5290 C   0  0  0  0  0  0  0  0  0  0  0  0
   -0.9960    0.1743   -0.2803 C   0  0  0  0  0  0  0  0  0  0  0  0
   -1.5724   -0.7638   -1.2609 C   0  0  0  0  0  0  0  0  0  0  0  0
   -2.3956   -0.3715   -2.0541 O   0  0  0  0  0  0  0  0  0  0  0  0
   -0.0899   -0.4905    0.5109 O   0  0  0  0  0  0  0  0  0  0  0  0
    1.1326    0.1689    0.4418 C   0  0  0  0  0  0  0  0  0  0  0  0
    1.9756    0.1008    1.6649 C   0  0  0  0  0  0  0  0  0  0  0  0
    2.3431   -0.7088    0.4207 C   0  0  0  0  0  0  0  0  0  0  0  0
   -2.6412    1.5023   -0.1143 H   0  0  0  0  0  0  0  0  0  0  0  0
   -1.7404    1.1535    1.4609 H   0  0  0  0  0  0  0  0  0  0  0  0
   -2.9110   -0.0629    0.7067 H   0  0  0  0  0  0  0  0  0  0  0  0
   -0.5300    1.0587   -0.7690 H   0  0  0  0  0  0  0  0  0  0  0  0
   -1.2762   -1.7980   -1.2884 H   0  0  0  0  0  0  0  0  0  0  0  0
    1.1436    1.0554   -0.2019 H   0  0  0  0  0  0  0  0  0  0  0  0
    2.7216    0.8719    1.9069 H   0  0  0  0  0  0  0  0  0  0  0  0
    1.5852   -0.4400    2.5297 H   0  0  0  0  0  0  0  0  0  0  0  0
    3.1703   -0.3707   -0.2008 H   0  0  0  0  0  0  0  0  0  0  0  0
    2.2421   -1.8149    0.5328 H   0  0  0  0  0  0  0  0  0  0  0  0
  1  2  1  0
  2  3  1  0
  3  4  2  0
  2  5  1  0
  5  6  1  0
  6  7  1  0
  7  8  1  0
  8  6  1  0
  1  9  1  0
  1 10  1  0
  1 11  1  0
  2 12  1  0
  3 13  1  0
  6 14  1  0
  7 15  1  0
  7 16  1  0
  8 17  1  0
  8 18  1  0
M  END
