
     RDKit          3D

 25 25  0  0  0  0  0  0  0  0999 V2000
   -2.9646    0.0242    1.1303 C   0  0  0  0  0  0  0  0  0  0  0  0
   -1.7555    0.4093    0.3022 C   0  0  0  0  0  0  0  0  0  0  0  0
   -1.9044   -0.1866   -1.0783 C   0  0  0  0  0  0  0  0  0  0  0  0
   -0.5637   -0.2526    0.9514 C   0  0  0  0  0  0  0  0  0  0  0  0
    0.7149    0.0407    0.2437 C   0  0  0  0  0  0  0  0  0  0  0  0
    0.9245    0.7791   -0.8324 C   0  0  0  0  0  0  0  0  0  0  0  0
    2.3706    0.7638   -1.1503 C   0  0  0  0  0  0  0  0  0  0  0  0
    2.9645   -0.4118   -0.4203 C   0  0  0  0  0  0  0  0  0  0  0  0
    2.0084   -0.5466    0.7537 C   0  0  0  0  0  0  0  0  0  0  0  0
   -3.9012    0.4523    0.7341 H   0  0  0  0  0  0  0  0  0  0  0  0
   -3.0398   -1.0936    1.0557 H   0  0  0  0  0  0  0  0  0  0  0  0
   -2.8195    0.2607    2.2066 H   0  0  0  0  0  0  0  0  0  0  0  0
   -1.6339    1.5150    0.2556 H   0  0  0  0  0  0  0  0  0  0  0  0
   -2.8080   -0.8253   -1.0840 H   0  0  0  0  0  0  0  0  0  0  0  0
   -0.9904   -0.7663   -1.3670 H   0  0  0  0  0  0  0  0  0  0  0  0
   -2.0831    0.6525   -1.8066 H   0  0  0  0  0  0  0  0  0  0  0  0
   -0.4469    0.0606    1.9970 H   0  0  0  0  0  0  0  0  0  0  0  0
   -0.7051   -1.3507    0.9456 H   0  0  0  0  0  0  0  0  0  0  0  0
    0.1840    1.3178   -1.4062 H   0  0  0  0  0  0  0  0  0  0  0  0
    2.5484    0.7043   -2.2569 H   0  0  0  0  0  0  0  0  0  0  0  0
    2.7920    1.7289   -0.7510 H   0  0  0  0  0  0  0  0  0  0  0  0
    3.9724   -0.2221   -0.0212 H   0  0  0  0  0  0  0  0  0  0  0  0
    2.9390   -1.3267   -1.0550 H   0  0  0  0  0  0  0  0  0  0  0  0
    1.8749   -1.6036    1.0649 H   0  0  0  0  0  0  0  0  0  0  0  0
    2.3226    0.1139    1.5882 H   0  0  0  0  0  0  0  0  0  0  0  0
  1  2  1  0
  2  3  1  0
  2  4  1  0
  4  5  1  0
  5  6  2  0
  6  7  1  0
  7  8  1  0
  8  9  1  0
  9  5  1  0
  1 10  1  0
  1 11  1  0
  1 12  1  0
  2 13  1  0
  3 14  1  0
  3 15  1  0
  3 16  1  0
  4 17  1  0
  4 18  1  0
  6 19  1  0
  7 20  1  0
  7 21  1  0
  8 22  1  0
  8 23  1  0
  9 24  1  0
  9 25  1  0
M  END
