
     RDKit          3D

 23 24  0  0  0  0  0  0  0  0999 V2000
   -0.2665   -1.5155   -1.3157 C   0  0  0  0  0  0  0  0  0  0  0  0
    0.0435   -0.1216   -0.7237 C   0  0  0  0  0  0  0  0  0  0  0  0
    1.2159   -0.2500    0.1571 C   0  0  0  0  0  0  0  0  0  0  0  0
    1.8712    0.8219    0.8994 C   0  0  0  0  0  0  0  0  0  0  0  0
    2.5340    0.3013   -0.3867 C   0  0  0  0  0  0  0  0  0  0  0  0
   -1.2307    0.3619   -0.1321 C   0  0  0  0  0  0  0  0  0  0  0  0
   -2.2515    0.4681   -1.1193 O   0  0  0  0  0  0  0  0  0  0  0  0
   -1.7493   -0.2046    1.1423 C   0  0  0  0  0  0  0  0  0  0  0  0
   -1.3623    1.3006    0.9914 C   0  0  0  0  0  0  0  0  0  0  0  0
    0.6507   -1.8895   -1.8119 H   0  0  0  0  0  0  0  0  0  0  0  0
   -0.5215   -2.1714   -0.4556 H   0  0  0  0  0  0  0  0  0  0  0  0
   -1.1018   -1.4071   -2.0332 H   0  0  0  0  0  0  0  0  0  0  0  0
    0.2786    0.5251   -1.6058 H   0  0  0  0  0  0  0  0  0  0  0  0
    1.3370   -1.2931    0.5893 H   0  0  0  0  0  0  0  0  0  0  0  0
    2.4448    0.5281    1.8294 H   0  0  0  0  0  0  0  0  0  0  0  0
    1.6278    1.8800    0.8972 H   0  0  0  0  0  0  0  0  0  0  0  0
    3.4549   -0.3276   -0.2703 H   0  0  0  0  0  0  0  0  0  0  0  0
    2.4879    1.0009   -1.2407 H   0  0  0  0  0  0  0  0  0  0  0  0
   -2.6971   -0.4221   -1.1534 H   0  0  0  0  0  0  0  0  0  0  0  0
   -1.1109   -0.7720    1.8254 H   0  0  0  0  0  0  0  0  0  0  0  0
   -2.8286   -0.4243    1.2521 H   0  0  0  0  0  0  0  0  0  0  0  0
   -2.2702    1.9824    1.0215 H   0  0  0  0  0  0  0  0  0  0  0  0
   -0.5562    1.6286    1.6431 H   0  0  0  0  0  0  0  0  0  0  0  0
  1  2  1  0
  2  3  1  0
  3  4  1  0
  4  5  1  0
  2  6  1  0
  6  7  1  0
  6  8  1  0
  8  9  1  0
  5  3  1  0
  9  6  1  0
  1 10  1  0
  1 11  1  0
  1 12  1  0
  2 13  1  0
  3 14  1  0
  4 15  1  0
  4 16  1  0
  5 17  1  0
  5 18  1  0
  7 19  1  0
  8 20  1  0
  8 21  1  0
  9 22  1  0
  9 23  1  0
M  END
