
     RDKit          3D

 21 21  0  0  0  0  0  0  0  0999 V2000
    1.6884    0.8300   -0.8395 C   0  0  0  0  0  0  0  0  0  0  0  0
    0.7434   -0.2464   -0.2998 C   0  0  0  0  0  0  0  0  0  0  0  0
    1.5311   -1.0469    0.7019 C   0  0  0  0  0  0  0  0  0  0  0  0
    0.3294   -1.0192   -1.3644 O   0  0  0  0  0  0  0  0  0  0  0  0
   -0.3979    0.4715    0.3511 C   0  0  0  0  0  0  0  0  0  0  0  0
   -1.4616   -0.4152    0.9584 C   0  0  0  0  0  0  0  0  0  0  0  0
   -2.4479    0.5742    0.4631 C   0  0  0  0  0  0  0  0  0  0  0  0
   -3.5346    0.9799    0.7866 O   0  0  0  0  0  0  0  0  0  0  0  0
   -1.5037    0.8679   -0.6387 C   0  0  0  0  0  0  0  0  0  0  0  0
    1.1091    1.5171   -1.4862 H   0  0  0  0  0  0  0  0  0  0  0  0
    2.5154    0.3575   -1.3928 H   0  0  0  0  0  0  0  0  0  0  0  0
    2.0750    1.3553    0.0697 H   0  0  0  0  0  0  0  0  0  0  0  0
    0.9064   -1.5106    1.4855 H   0  0  0  0  0  0  0  0  0  0  0  0
    2.1599   -1.7831    0.1898 H   0  0  0  0  0  0  0  0  0  0  0  0
    2.2428   -0.3628    1.2462 H   0  0  0  0  0  0  0  0  0  0  0  0
    0.2307   -1.9677   -1.1755 H   0  0  0  0  0  0  0  0  0  0  0  0
   -0.1415    1.3410    0.9575 H   0  0  0  0  0  0  0  0  0  0  0  0
   -1.4121   -0.5658    2.0402 H   0  0  0  0  0  0  0  0  0  0  0  0
   -1.5780   -1.3608    0.3547 H   0  0  0  0  0  0  0  0  0  0  0  0
   -1.5993    0.0819   -1.4211 H   0  0  0  0  0  0  0  0  0  0  0  0
   -1.4549    1.9023   -0.9870 H   0  0  0  0  0  0  0  0  0  0  0  0
  1  2  1  0
  2  3  1  0
  2  4  1  0
  2  5  1  0
  5  6  1  0
  6  7  1  0
  7  8  2  0
  7  9  1  0
  9  5  1  0
  1 10  1  0
  1 11  1  0
  1 12  1  0
  3 13  1  0
  3 14  1  0
  3 15  1  0
  4 16  1  0
  5 17  1  0
  6 18  1  0
  6 19  1  0
  9 20  1  0
  9 21  1  0
M  END
