
     RDKit          3D

 23 23  0  0  0  0  0  0  0  0999 V2000
    0.1269   -0.5166    1.4794 C   0  0  0  0  0  0  0  0  0  0  0  0
    0.2254   -0.5847   -0.0298 C   0  0  0  0  0  0  0  0  0  0  0  0
   -1.1171   -0.7418   -0.6545 C   0  0  0  0  0  0  0  0  0  0  0  0
   -1.6773   -1.9266   -0.1733 O   0  0  0  0  0  0  0  0  0  0  0  0
   -2.0770    0.3666   -0.3618 C   0  0  0  0  0  0  0  0  0  0  0  0
   -2.3463    0.5303    0.9876 O   0  0  0  0  0  0  0  0  0  0  0  0
    1.0027    0.6092   -0.4917 C   0  0  0  0  0  0  0  0  0  0  0  0
    2.4265    0.6459    0.1023 C   0  0  0  0  0  0  0  0  0  0  0  0
    2.1732    0.4975   -1.3725 C   0  0  0  0  0  0  0  0  0  0  0  0
    1.0102   -1.0119    1.9664 H   0  0  0  0  0  0  0  0  0  0  0  0
    0.1716    0.5466    1.8500 H   0  0  0  0  0  0  0  0  0  0  0  0
   -0.7868   -0.9729    1.8686 H   0  0  0  0  0  0  0  0  0  0  0  0
    0.8185   -1.4924   -0.2643 H   0  0  0  0  0  0  0  0  0  0  0  0
   -1.0381   -0.8496   -1.7460 H   0  0  0  0  0  0  0  0  0  0  0  0
   -2.2715   -1.7903    0.5937 H   0  0  0  0  0  0  0  0  0  0  0  0
   -3.0530    0.0835   -0.8268 H   0  0  0  0  0  0  0  0  0  0  0  0
   -1.7806    1.3170   -0.8616 H   0  0  0  0  0  0  0  0  0  0  0  0
   -2.8329    1.3897    1.0855 H   0  0  0  0  0  0  0  0  0  0  0  0
    0.4964    1.5766   -0.4495 H   0  0  0  0  0  0  0  0  0  0  0  0
    2.8078   -0.2331    0.6181 H   0  0  0  0  0  0  0  0  0  0  0  0
    2.7896    1.6046    0.5082 H   0  0  0  0  0  0  0  0  0  0  0  0
    2.4402    1.3936   -1.9889 H   0  0  0  0  0  0  0  0  0  0  0  0
    2.4917   -0.4412   -1.8390 H   0  0  0  0  0  0  0  0  0  0  0  0
  1  2  1  0
  2  3  1  0
  3  4  1  0
  3  5  1  0
  5  6  1  0
  2  7  1  0
  7  8  1  0
  8  9  1  0
  9  7  1  0
  1 10  1  0
  1 11  1  0
  1 12  1  0
  2 13  1  0
  3 14  1  0
  4 15  1  0
  5 16  1  0
  5 17  1  0
  6 18  1  0
  7 19  1  0
  8 20  1  0
  8 21  1  0
  9 22  1  0
  9 23  1  0
M  END
