
     RDKit          3D

 23 23  0  0  0  0  0  0  0  0999 V2000
    1.3984   -0.0994   -1.2017 C   0  0  0  0  0  0  0  0  0  0  0  0
    0.5041    0.1111   -0.0091 C   0  0  0  0  0  0  0  0  0  0  0  0
    0.3618    1.5901    0.2187 C   0  0  0  0  0  0  0  0  0  0  0  0
    1.0762   -0.5295    1.2275 C   0  0  0  0  0  0  0  0  0  0  0  0
    2.3191    0.0277    1.5045 O   0  0  0  0  0  0  0  0  0  0  0  0
   -0.8134   -0.5684   -0.3039 C   0  0  0  0  0  0  0  0  0  0  0  0
   -0.6438   -1.9507   -0.5265 O   0  0  0  0  0  0  0  0  0  0  0  0
   -2.0313   -0.2321    0.4915 C   0  0  0  0  0  0  0  0  0  0  0  0
   -1.9244    0.1285   -0.9594 C   0  0  0  0  0  0  0  0  0  0  0  0
    0.8361    0.1955   -2.1011 H   0  0  0  0  0  0  0  0  0  0  0  0
    2.3575    0.4591   -1.1329 H   0  0  0  0  0  0  0  0  0  0  0  0
    1.5755   -1.1931   -1.2847 H   0  0  0  0  0  0  0  0  0  0  0  0
    0.0917    2.1410   -0.7029 H   0  0  0  0  0  0  0  0  0  0  0  0
   -0.3699    1.8313    0.9892 H   0  0  0  0  0  0  0  0  0  0  0  0
    1.3516    1.9546    0.5783 H   0  0  0  0  0  0  0  0  0  0  0  0
    0.3514   -0.3359    2.0531 H   0  0  0  0  0  0  0  0  0  0  0  0
    1.1324   -1.6100    1.0821 H   0  0  0  0  0  0  0  0  0  0  0  0
    2.5233   -0.0837    2.4684 H   0  0  0  0  0  0  0  0  0  0  0  0
   -0.9042   -2.0906   -1.4794 H   0  0  0  0  0  0  0  0  0  0  0  0
   -2.7748   -1.0327    0.6979 H   0  0  0  0  0  0  0  0  0  0  0  0
   -1.9943    0.5320    1.2757 H   0  0  0  0  0  0  0  0  0  0  0  0
   -2.5359   -0.4429   -1.7077 H   0  0  0  0  0  0  0  0  0  0  0  0
   -1.8871    1.1981   -1.1774 H   0  0  0  0  0  0  0  0  0  0  0  0
  1  2  1  0
  2  3  1  0
  2  4  1  0
  4  5  1  0
  2  6  1  0
  6  7  1  0
  6  8  1  0
  8  9  1  0
  9  6  1  0
  1 10  1  0
  1 11  1  0
  1 12  1  0
  3 13  1  0
  3 14  1  0
  3 15  1  0
  4 16  1  0
  4 17  1  0
  5 18  1  0
  7 19  1  0
  8 20  1  0
  8 21  1  0
  9 22  1  0
  9 23  1  0
M  END
