
     RDKit          3D

 23 23  0  0  0  0  0  0  0  0999 V2000
   -1.9958   -1.2361   -0.5833 C   0  0  0  0  0  0  0  0  0  0  0  0
   -0.8725   -0.2205   -0.5597 C   0  0  0  0  0  0  0  0  0  0  0  0
   -1.4480    1.0821   -0.1007 C   0  0  0  0  0  0  0  0  0  0  0  0
   -2.0088    0.9837    1.1831 O   0  0  0  0  0  0  0  0  0  0  0  0
    0.2568   -0.7063    0.3147 C   0  0  0  0  0  0  0  0  0  0  0  0
   -0.2750   -0.8794    1.6074 O   0  0  0  0  0  0  0  0  0  0  0  0
    1.3944    0.2452    0.4060 C   0  0  0  0  0  0  0  0  0  0  0  0
    2.1752    0.6916   -0.7639 C   0  0  0  0  0  0  0  0  0  0  0  0
    2.7569   -0.3813    0.0590 C   0  0  0  0  0  0  0  0  0  0  0  0
   -2.3813   -1.3098    0.4647 H   0  0  0  0  0  0  0  0  0  0  0  0
   -1.6354   -2.2227   -0.9410 H   0  0  0  0  0  0  0  0  0  0  0  0
   -2.7891   -0.8577   -1.2570 H   0  0  0  0  0  0  0  0  0  0  0  0
   -0.4917   -0.0833   -1.5830 H   0  0  0  0  0  0  0  0  0  0  0  0
   -2.2455    1.3663   -0.8170 H   0  0  0  0  0  0  0  0  0  0  0  0
   -0.7248    1.9137   -0.0814 H   0  0  0  0  0  0  0  0  0  0  0  0
   -2.3924    1.8827    1.3944 H   0  0  0  0  0  0  0  0  0  0  0  0
    0.5338   -1.7199   -0.0303 H   0  0  0  0  0  0  0  0  0  0  0  0
   -0.1192   -0.0511    2.0902 H   0  0  0  0  0  0  0  0  0  0  0  0
    1.4356    0.9025    1.3221 H   0  0  0  0  0  0  0  0  0  0  0  0
    1.8366    0.4731   -1.7957 H   0  0  0  0  0  0  0  0  0  0  0  0
    2.6320    1.7231   -0.7000 H   0  0  0  0  0  0  0  0  0  0  0  0
    2.7618   -1.3905   -0.3856 H   0  0  0  0  0  0  0  0  0  0  0  0
    3.5963   -0.2056    0.7570 H   0  0  0  0  0  0  0  0  0  0  0  0
  1  2  1  0
  2  3  1  0
  3  4  1  0
  2  5  1  0
  5  6  1  0
  5  7  1  0
  7  8  1  0
  8  9  1  0
  9  7  1  0
  1 10  1  0
  1 11  1  0
  1 12  1  0
  2 13  1  0
  3 14  1  0
  3 15  1  0
  4 16  1  0
  5 17  1  0
  6 18  1  0
  7 19  1  0
  8 20  1  0
  8 21  1  0
  9 22  1  0
  9 23  1  0
M  END
