
     RDKit          3D

 20 20  0  0  0  0  0  0  0  0999 V2000
   -0.6335   -1.7258   -0.7816 C   0  0  0  0  0  0  0  0  0  0  0  0
   -0.6674   -0.5344    0.1503 C   0  0  0  0  0  0  0  0  0  0  0  0
   -1.2901    0.6537   -0.5159 C   0  0  0  0  0  0  0  0  0  0  0  0
   -2.6013    0.3807   -0.9065 O   0  0  0  0  0  0  0  0  0  0  0  0
    0.6790   -0.3197    0.7124 C   0  0  0  0  0  0  0  0  0  0  0  0
    1.0347    0.7450    1.6571 C   0  0  0  0  0  0  0  0  0  0  0  0
    1.4783    0.8685    0.1753 C   0  0  0  0  0  0  0  0  0  0  0  0
    2.8223    0.7103   -0.0815 O   0  0  0  0  0  0  0  0  0  0  0  0
    0.1145   -1.5678   -1.5778 H   0  0  0  0  0  0  0  0  0  0  0  0
   -0.2600   -2.5890   -0.1603 H   0  0  0  0  0  0  0  0  0  0  0  0
   -1.6337   -1.9804   -1.1703 H   0  0  0  0  0  0  0  0  0  0  0  0
   -1.3569   -0.8276    0.9909 H   0  0  0  0  0  0  0  0  0  0  0  0
   -0.7568    0.9946   -1.4136 H   0  0  0  0  0  0  0  0  0  0  0  0
   -1.3468    1.5184    0.1767 H   0  0  0  0  0  0  0  0  0  0  0  0
   -2.9762    1.2317   -1.2771 H   0  0  0  0  0  0  0  0  0  0  0  0
    1.3096   -1.2555    0.7736 H   0  0  0  0  0  0  0  0  0  0  0  0
    1.8644    0.5605    2.3696 H   0  0  0  0  0  0  0  0  0  0  0  0
    0.3141    1.5015    2.0200 H   0  0  0  0  0  0  0  0  0  0  0  0
    0.9424    1.6404   -0.3997 H   0  0  0  0  0  0  0  0  0  0  0  0
    2.9633   -0.0051   -0.7416 H   0  0  0  0  0  0  0  0  0  0  0  0
  1  2  1  0
  2  3  1  0
  3  4  1  0
  2  5  1  0
  5  6  1  0
  6  7  1  0
  7  8  1  0
  7  5  1  0
  1  9  1  0
  1 10  1  0
  1 11  1  0
  2 12  1  0
  3 13  1  0
  3 14  1  0
  4 15  1  0
  5 16  1  0
  6 17  1  0
  6 18  1  0
  7 19  1  0
  8 20  1  0
M  END
