
     RDKit          3D

 27 27  0  0  0  0  0  0  0  0999 V2000
   -1.5902    1.1412   -0.9498 C   0  0  0  0  0  0  0  0  0  0  0  0
   -1.1681    0.1079    0.0130 C   0  0  0  0  0  0  0  0  0  0  0  0
   -1.2782    0.7181    1.4119 C   0  0  0  0  0  0  0  0  0  0  0  0
    0.0471   -0.6569   -0.2235 C   0  0  0  0  0  0  0  0  0  0  0  0
    0.1602   -1.6285    0.9746 C   0  0  0  0  0  0  0  0  0  0  0  0
   -0.1936   -1.5905   -1.4181 C   0  0  0  0  0  0  0  0  0  0  0  0
    1.3694   -0.0650   -0.3483 C   0  0  0  0  0  0  0  0  0  0  0  0
    1.9945    0.7451    0.7794 C   0  0  0  0  0  0  0  0  0  0  0  0
    1.7470    1.3152   -0.5799 C   0  0  0  0  0  0  0  0  0  0  0  0
   -1.3075    2.1854   -0.6658 H   0  0  0  0  0  0  0  0  0  0  0  0
   -1.2976    0.9684   -2.0010 H   0  0  0  0  0  0  0  0  0  0  0  0
   -2.7032    1.1772   -0.9539 H   0  0  0  0  0  0  0  0  0  0  0  0
   -2.0027   -0.6651    0.0194 H   0  0  0  0  0  0  0  0  0  0  0  0
   -0.8031    0.1102    2.1792 H   0  0  0  0  0  0  0  0  0  0  0  0
   -2.3602    0.7843    1.6831 H   0  0  0  0  0  0  0  0  0  0  0  0
   -0.9381    1.7822    1.3925 H   0  0  0  0  0  0  0  0  0  0  0  0
    0.8010   -2.4528    0.6101 H   0  0  0  0  0  0  0  0  0  0  0  0
    0.7797   -1.1036    1.7563 H   0  0  0  0  0  0  0  0  0  0  0  0
   -0.8188   -1.9315    1.3374 H   0  0  0  0  0  0  0  0  0  0  0  0
   -0.7049   -2.5131   -1.1139 H   0  0  0  0  0  0  0  0  0  0  0  0
   -0.7982   -1.1067   -2.1981 H   0  0  0  0  0  0  0  0  0  0  0  0
    0.7707   -1.8714   -1.8918 H   0  0  0  0  0  0  0  0  0  0  0  0
    2.1232   -0.8281   -0.7378 H   0  0  0  0  0  0  0  0  0  0  0  0
    1.3580    1.1334    1.5847 H   0  0  0  0  0  0  0  0  0  0  0  0
    3.0254    0.5279    1.1201 H   0  0  0  0  0  0  0  0  0  0  0  0
    1.0757    2.1817   -0.6496 H   0  0  0  0  0  0  0  0  0  0  0  0
    2.7124    1.5349   -1.1304 H   0  0  0  0  0  0  0  0  0  0  0  0
  1  2  1  0
  2  3  1  0
  2  4  1  0
  4  5  1  0
  4  6  1  0
  4  7  1  0
  7  8  1  0
  8  9  1  0
  9  7  1  0
  1 10  1  0
  1 11  1  0
  1 12  1  0
  2 13  1  0
  3 14  1  0
  3 15  1  0
  3 16  1  0
  5 17  1  0
  5 18  1  0
  5 19  1  0
  6 20  1  0
  6 21  1  0
  6 22  1  0
  7 23  1  0
  8 24  1  0
  8 25  1  0
  9 26  1  0
  9 27  1  0
M  END
