
     RDKit          3D

 27 27  0  0  0  0  0  0  0  0999 V2000
   -1.4305   -0.5271    1.2759 C   0  0  0  0  0  0  0  0  0  0  0  0
   -1.2694    0.2211   -0.0275 C   0  0  0  0  0  0  0  0  0  0  0  0
   -2.0532   -0.5264   -1.0673 C   0  0  0  0  0  0  0  0  0  0  0  0
   -2.0127    1.5531    0.1767 C   0  0  0  0  0  0  0  0  0  0  0  0
    0.1164    0.5581   -0.3990 C   0  0  0  0  0  0  0  0  0  0  0  0
    1.0809   -0.5437   -0.5847 C   0  0  0  0  0  0  0  0  0  0  0  0
    2.4825   -0.0530   -0.9787 C   0  0  0  0  0  0  0  0  0  0  0  0
    2.7884    0.0545    0.4962 C   0  0  0  0  0  0  0  0  0  0  0  0
    1.7346   -1.0221    0.6954 C   0  0  0  0  0  0  0  0  0  0  0  0
   -1.1295   -1.5827    1.1842 H   0  0  0  0  0  0  0  0  0  0  0  0
   -2.5452   -0.5535    1.4781 H   0  0  0  0  0  0  0  0  0  0  0  0
   -0.9915    0.0079    2.1422 H   0  0  0  0  0  0  0  0  0  0  0  0
   -3.0635   -0.7154   -0.6345 H   0  0  0  0  0  0  0  0  0  0  0  0
   -2.1252    0.1382   -1.9649 H   0  0  0  0  0  0  0  0  0  0  0  0
   -1.6397   -1.4915   -1.3499 H   0  0  0  0  0  0  0  0  0  0  0  0
   -2.8403    1.4491    0.8877 H   0  0  0  0  0  0  0  0  0  0  0  0
   -1.3278    2.3211    0.5776 H   0  0  0  0  0  0  0  0  0  0  0  0
   -2.4075    1.9407   -0.7792 H   0  0  0  0  0  0  0  0  0  0  0  0
    0.5190    1.2540    0.3966 H   0  0  0  0  0  0  0  0  0  0  0  0
    0.1173    1.1832   -1.3212 H   0  0  0  0  0  0  0  0  0  0  0  0
    0.7809   -1.4086   -1.1819 H   0  0  0  0  0  0  0  0  0  0  0  0
    2.4999    0.8985   -1.5057 H   0  0  0  0  0  0  0  0  0  0  0  0
    3.0838   -0.8678   -1.4377 H   0  0  0  0  0  0  0  0  0  0  0  0
    2.4763    0.9880    0.9846 H   0  0  0  0  0  0  0  0  0  0  0  0
    3.8043   -0.3110    0.7680 H   0  0  0  0  0  0  0  0  0  0  0  0
    2.2223   -2.0322    0.5803 H   0  0  0  0  0  0  0  0  0  0  0  0
    1.1294   -0.9324    1.5886 H   0  0  0  0  0  0  0  0  0  0  0  0
  1  2  1  0
  2  3  1  0
  2  4  1  0
  2  5  1  0
  5  6  1  0
  6  7  1  0
  7  8  1  0
  8  9  1  0
  9  6  1  0
  1 10  1  0
  1 11  1  0
  1 12  1  0
  3 13  1  0
  3 14  1  0
  3 15  1  0
  4 16  1  0
  4 17  1  0
  4 18  1  0
  5 19  1  0
  5 20  1  0
  6 21  1  0
  7 22  1  0
  7 23  1  0
  8 24  1  0
  8 25  1  0
  9 26  1  0
  9 27  1  0
M  END
