
     RDKit          3D

 22 21  0  0  0  0  0  0  0  0999 V2000
    1.3212   -1.2412   -0.1301 C   0  0  0  0  0  0  0  0  0  0  0  0
    0.6230    0.0412   -0.5203 C   0  0  0  0  0  0  0  0  0  0  0  0
    1.6222    1.1523   -0.4775 C   0  0  0  0  0  0  0  0  0  0  0  0
   -0.5593    0.2297    0.3663 C   0  0  0  0  0  0  0  0  0  0  0  0
   -1.3441    1.4923    0.0729 C   0  0  0  0  0  0  0  0  0  0  0  0
   -0.2347    0.2646    1.7187 O   0  0  0  0  0  0  0  0  0  0  0  0
   -1.5307   -0.9088    0.1232 C   0  0  0  0  0  0  0  0  0  0  0  0
   -0.9738   -2.1137    0.4869 O   0  0  0  0  0  0  0  0  0  0  0  0
    1.0060   -2.1113   -0.7415 H   0  0  0  0  0  0  0  0  0  0  0  0
    1.2216   -1.4828    0.9457 H   0  0  0  0  0  0  0  0  0  0  0  0
    2.4319   -1.1581   -0.2954 H   0  0  0  0  0  0  0  0  0  0  0  0
    0.3072   -0.0846   -1.5762 H   0  0  0  0  0  0  0  0  0  0  0  0
    2.6468    0.7315   -0.5834 H   0  0  0  0  0  0  0  0  0  0  0  0
    1.6184    1.7465    0.4397 H   0  0  0  0  0  0  0  0  0  0  0  0
    1.4977    1.8196   -1.3798 H   0  0  0  0  0  0  0  0  0  0  0  0
   -0.8201    2.4032    0.3603 H   0  0  0  0  0  0  0  0  0  0  0  0
   -1.7084    1.4623   -0.9549 H   0  0  0  0  0  0  0  0  0  0  0  0
   -2.2536    1.4394    0.7398 H   0  0  0  0  0  0  0  0  0  0  0  0
    0.5832    0.7880    1.9122 H   0  0  0  0  0  0  0  0  0  0  0  0
   -2.5106   -0.7147    0.6025 H   0  0  0  0  0  0  0  0  0  0  0  0
   -1.7453   -0.9000   -0.9846 H   0  0  0  0  0  0  0  0  0  0  0  0
   -1.1986   -2.8553   -0.1243 H   0  0  0  0  0  0  0  0  0  0  0  0
  1  2  1  0
  2  3  1  0
  2  4  1  0
  4  5  1  0
  4  6  1  0
  4  7  1  0
  7  8  1  0
  1  9  1  0
  1 10  1  0
  1 11  1  0
  2 12  1  0
  3 13  1  0
  3 14  1  0
  3 15  1  0
  5 16  1  0
  5 17  1  0
  5 18  1  0
  6 19  1  0
  7 20  1  0
  7 21  1  0
  8 22  1  0
M  END
