
     RDKit          3D

 25 25  0  0  0  0  0  0  0  0999 V2000
   -1.6586   -0.7991    1.0760 C   0  0  0  0  0  0  0  0  0  0  0  0
   -1.0143    0.0341   -0.0109 C   0  0  0  0  0  0  0  0  0  0  0  0
   -1.1256   -0.7444   -1.2907 C   0  0  0  0  0  0  0  0  0  0  0  0
   -1.7767    1.3257   -0.1575 C   0  0  0  0  0  0  0  0  0  0  0  0
    0.4032    0.3360    0.3764 C   0  0  0  0  0  0  0  0  0  0  0  0
    1.1434    1.1349   -0.5851 C   0  0  0  0  0  0  0  0  0  0  0  0
    2.4102    0.7699   -0.6119 C   0  0  0  0  0  0  0  0  0  0  0  0
    2.6309   -0.3331    0.3547 C   0  0  0  0  0  0  0  0  0  0  0  0
    1.2259   -0.8824    0.6369 C   0  0  0  0  0  0  0  0  0  0  0  0
   -2.7447   -0.5109    1.1450 H   0  0  0  0  0  0  0  0  0  0  0  0
   -1.1383   -0.7278    2.0407 H   0  0  0  0  0  0  0  0  0  0  0  0
   -1.6812   -1.8879    0.8127 H   0  0  0  0  0  0  0  0  0  0  0  0
   -2.1547   -0.5757   -1.6853 H   0  0  0  0  0  0  0  0  0  0  0  0
   -1.0618   -1.8335   -1.0793 H   0  0  0  0  0  0  0  0  0  0  0  0
   -0.4238   -0.4104   -2.0711 H   0  0  0  0  0  0  0  0  0  0  0  0
   -2.3619    1.3475   -1.1072 H   0  0  0  0  0  0  0  0  0  0  0  0
   -2.5080    1.4849    0.6674 H   0  0  0  0  0  0  0  0  0  0  0  0
   -1.1084    2.2177   -0.1938 H   0  0  0  0  0  0  0  0  0  0  0  0
    0.3530    0.9111    1.3398 H   0  0  0  0  0  0  0  0  0  0  0  0
    0.7693    1.9569   -1.2451 H   0  0  0  0  0  0  0  0  0  0  0  0
    3.2158    1.2025   -1.2507 H   0  0  0  0  0  0  0  0  0  0  0  0
    3.2438   -1.1090   -0.1828 H   0  0  0  0  0  0  0  0  0  0  0  0
    3.1450   -0.0266    1.2705 H   0  0  0  0  0  0  0  0  0  0  0  0
    0.9867   -1.7484    0.0204 H   0  0  0  0  0  0  0  0  0  0  0  0
    1.2307   -1.1319    1.7308 H   0  0  0  0  0  0  0  0  0  0  0  0
  1  2  1  0
  2  3  1  0
  2  4  1  0
  2  5  1  0
  5  6  1  0
  6  7  2  0
  7  8  1  0
  8  9  1  0
  9  5  1  0
  1 10  1  0
  1 11  1  0
  1 12  1  0
  3 13  1  0
  3 14  1  0
  3 15  1  0
  4 16  1  0
  4 17  1  0
  4 18  1  0
  5 19  1  0
  6 20  1  0
  7 21  1  0
  8 22  1  0
  8 23  1  0
  9 24  1  0
  9 25  1  0
M  END
