
     RDKit          3D

 23 23  0  0  0  0  0  0  0  0999 V2000
    1.0930    1.3324   -0.8584 C   0  0  0  0  0  0  0  0  0  0  0  0
    0.7237    0.1688    0.0185 C   0  0  0  0  0  0  0  0  0  0  0  0
    1.4995   -1.0747   -0.3729 C   0  0  0  0  0  0  0  0  0  0  0  0
    1.2049    0.4993    1.4130 C   0  0  0  0  0  0  0  0  0  0  0  0
    1.8933    1.4576    1.6522 O   0  0  0  0  0  0  0  0  0  0  0  0
   -0.7510   -0.0924    0.0637 C   0  0  0  0  0  0  0  0  0  0  0  0
   -1.5575    1.0908    0.5966 C   0  0  0  0  0  0  0  0  0  0  0  0
   -1.4395   -0.8835   -0.9851 C   0  0  0  0  0  0  0  0  0  0  0  0
   -1.2194   -1.4496    0.4127 C   0  0  0  0  0  0  0  0  0  0  0  0
    2.0981    1.1177   -1.2845 H   0  0  0  0  0  0  0  0  0  0  0  0
    1.2110    2.2675   -0.2594 H   0  0  0  0  0  0  0  0  0  0  0  0
    0.3738    1.4821   -1.7051 H   0  0  0  0  0  0  0  0  0  0  0  0
    2.5837   -0.7656   -0.3823 H   0  0  0  0  0  0  0  0  0  0  0  0
    1.4114   -1.8409    0.3988 H   0  0  0  0  0  0  0  0  0  0  0  0
    1.2639   -1.4110   -1.3966 H   0  0  0  0  0  0  0  0  0  0  0  0
    0.8620   -0.2189    2.1652 H   0  0  0  0  0  0  0  0  0  0  0  0
   -0.9388    1.7100    1.2790 H   0  0  0  0  0  0  0  0  0  0  0  0
   -1.7557    1.7386   -0.2974 H   0  0  0  0  0  0  0  0  0  0  0  0
   -2.4792    0.7637    1.0945 H   0  0  0  0  0  0  0  0  0  0  0  0
   -0.8827   -1.3251   -1.8297 H   0  0  0  0  0  0  0  0  0  0  0  0
   -2.4936   -0.6628   -1.2162 H   0  0  0  0  0  0  0  0  0  0  0  0
   -0.5705   -2.3229    0.4270 H   0  0  0  0  0  0  0  0  0  0  0  0
   -2.1302   -1.5808    1.0661 H   0  0  0  0  0  0  0  0  0  0  0  0
  1  2  1  0
  2  3  1  0
  2  4  1  0
  4  5  2  0
  2  6  1  0
  6  7  1  0
  6  8  1  0
  8  9  1  0
  9  6  1  0
  1 10  1  0
  1 11  1  0
  1 12  1  0
  3 13  1  0
  3 14  1  0
  3 15  1  0
  4 16  1  0
  7 17  1  0
  7 18  1  0
  7 19  1  0
  8 20  1  0
  8 21  1  0
  9 22  1  0
  9 23  1  0
M  END
