
     RDKit          3D

 17 17  0  0  0  0  0  0  0  0999 V2000
   -0.9691   -1.3649   -0.3710 C   0  0  0  0  0  0  0  0  0  0  0  0
   -0.5061    0.0701   -0.4725 C   0  0  0  0  0  0  0  0  0  0  0  0
   -0.8761    0.8573    0.7822 C   0  0  0  0  0  0  0  0  0  0  0  0
   -0.3987    2.1578    0.5688 O   0  0  0  0  0  0  0  0  0  0  0  0
    0.9665    0.1795   -0.6569 C   0  0  0  0  0  0  0  0  0  0  0  0
    1.9512   -0.3054    0.2449 C   0  0  0  0  0  0  0  0  0  0  0  0
    1.6021   -1.0831   -0.9990 O   0  0  0  0  0  0  0  0  0  0  0  0
   -1.9638   -1.3532    0.1523 H   0  0  0  0  0  0  0  0  0  0  0  0
   -0.2860   -1.9601    0.2446 H   0  0  0  0  0  0  0  0  0  0  0  0
   -1.1467   -1.8195   -1.3601 H   0  0  0  0  0  0  0  0  0  0  0  0
   -1.0160    0.5746   -1.3090 H   0  0  0  0  0  0  0  0  0  0  0  0
   -0.3194    0.3886    1.6232 H   0  0  0  0  0  0  0  0  0  0  0  0
   -1.9697    0.8765    0.9463 H   0  0  0  0  0  0  0  0  0  0  0  0
   -1.1021    2.7992    0.3656 H   0  0  0  0  0  0  0  0  0  0  0  0
    1.2811    0.9743   -1.3800 H   0  0  0  0  0  0  0  0  0  0  0  0
    2.9986   -0.0113    0.1305 H   0  0  0  0  0  0  0  0  0  0  0  0
    1.7541   -0.9803    1.0855 H   0  0  0  0  0  0  0  0  0  0  0  0
  1  2  1  0
  2  3  1  0
  3  4  1  0
  2  5  1  0
  5  6  1  0
  6  7  1  0
  7  5  1  0
  1  8  1  0
  1  9  1  0
  1 10  1  0
  2 11  1  0
  3 12  1  0
  3 13  1  0
  4 14  1  0
  5 15  1  0
  6 16  1  0
  6 17  1  0
M  END
