
     RDKit          3D

 27 26  0  0  0  0  0  0  0  0999 V2000
   -2.3507   -0.8381   -0.2961 C   0  0  0  0  0  0  0  0  0  0  0  0
   -1.1566   -0.0567   -0.7607 C   0  0  0  0  0  0  0  0  0  0  0  0
   -1.5196    1.3986   -0.8046 C   0  0  0  0  0  0  0  0  0  0  0  0
    0.0633   -0.2352    0.0786 C   0  0  0  0  0  0  0  0  0  0  0  0
   -0.2311    0.2145    1.5167 C   0  0  0  0  0  0  0  0  0  0  0  0
    0.5402   -1.6486    0.1689 C   0  0  0  0  0  0  0  0  0  0  0  0
    1.1254    0.7077   -0.4380 C   0  0  0  0  0  0  0  0  0  0  0  0
    2.4125    0.6249    0.3272 C   0  0  0  0  0  0  0  0  0  0  0  0
    3.0070   -0.6125    0.3105 O   0  0  0  0  0  0  0  0  0  0  0  0
   -2.7125   -0.5638    0.7041 H   0  0  0  0  0  0  0  0  0  0  0  0
   -2.2221   -1.9341   -0.4400 H   0  0  0  0  0  0  0  0  0  0  0  0
   -3.1909   -0.5626   -0.9997 H   0  0  0  0  0  0  0  0  0  0  0  0
   -0.9156   -0.4075   -1.7855 H   0  0  0  0  0  0  0  0  0  0  0  0
   -0.8730    1.9158   -1.5657 H   0  0  0  0  0  0  0  0  0  0  0  0
   -2.5537    1.4519   -1.2532 H   0  0  0  0  0  0  0  0  0  0  0  0
   -1.4734    1.9125    0.1575 H   0  0  0  0  0  0  0  0  0  0  0  0
   -0.1971    1.3017    1.6252 H   0  0  0  0  0  0  0  0  0  0  0  0
   -1.1109   -0.2807    1.9321 H   0  0  0  0  0  0  0  0  0  0  0  0
    0.6474   -0.1764    2.1092 H   0  0  0  0  0  0  0  0  0  0  0  0
    1.1104   -1.9809   -0.7199 H   0  0  0  0  0  0  0  0  0  0  0  0
   -0.3395   -2.3229    0.2383 H   0  0  0  0  0  0  0  0  0  0  0  0
    1.1244   -1.7420    1.1070 H   0  0  0  0  0  0  0  0  0  0  0  0
    0.7549    1.7497   -0.3485 H   0  0  0  0  0  0  0  0  0  0  0  0
    1.2996    0.5365   -1.5262 H   0  0  0  0  0  0  0  0  0  0  0  0
    3.1164    1.3437   -0.1400 H   0  0  0  0  0  0  0  0  0  0  0  0
    2.2291    0.9994    1.3540 H   0  0  0  0  0  0  0  0  0  0  0  0
    3.4163   -0.7950   -0.5509 H   0  0  0  0  0  0  0  0  0  0  0  0
  1  2  1  0
  2  3  1  0
  2  4  1  0
  4  5  1  0
  4  6  1  0
  4  7  1  0
  7  8  1  0
  8  9  1  0
  1 10  1  0
  1 11  1  0
  1 12  1  0
  2 13  1  0
  3 14  1  0
  3 15  1  0
  3 16  1  0
  5 17  1  0
  5 18  1  0
  5 19  1  0
  6 20  1  0
  6 21  1  0
  6 22  1  0
  7 23  1  0
  7 24  1  0
  8 25  1  0
  8 26  1  0
  9 27  1  0
M  END
