
     RDKit          3D

 22 22  0  0  0  0  0  0  0  0999 V2000
    1.9260   -0.6036   -0.4151 C   0  0  0  0  0  0  0  0  0  0  0  0
    0.8072   -0.2415    0.5451 C   0  0  0  0  0  0  0  0  0  0  0  0
    1.0801    1.1278    1.1124 C   0  0  0  0  0  0  0  0  0  0  0  0
   -0.4827   -0.3076   -0.2263 C   0  0  0  0  0  0  0  0  0  0  0  0
   -0.6854   -1.7085   -0.7699 C   0  0  0  0  0  0  0  0  0  0  0  0
   -1.6860    0.2868    0.4486 C   0  0  0  0  0  0  0  0  0  0  0  0
   -1.5362    1.4305   -0.5116 C   0  0  0  0  0  0  0  0  0  0  0  0
   -0.5690    0.6965   -1.1821 O   0  0  0  0  0  0  0  0  0  0  0  0
    1.5431   -0.8591   -1.4289 H   0  0  0  0  0  0  0  0  0  0  0  0
    2.4384   -1.5156   -0.0463 H   0  0  0  0  0  0  0  0  0  0  0  0
    2.6123    0.2543   -0.5589 H   0  0  0  0  0  0  0  0  0  0  0  0
    0.7833   -0.9676    1.3831 H   0  0  0  0  0  0  0  0  0  0  0  0
    0.2614    1.4577    1.7597 H   0  0  0  0  0  0  0  0  0  0  0  0
    1.9953    1.0256    1.7512 H   0  0  0  0  0  0  0  0  0  0  0  0
    1.3238    1.8372    0.2975 H   0  0  0  0  0  0  0  0  0  0  0  0
   -1.6149   -2.1400   -0.4009 H   0  0  0  0  0  0  0  0  0  0  0  0
    0.1476   -2.3949   -0.4855 H   0  0  0  0  0  0  0  0  0  0  0  0
   -0.6285   -1.6327   -1.8840 H   0  0  0  0  0  0  0  0  0  0  0  0
   -2.6076   -0.3296    0.2854 H   0  0  0  0  0  0  0  0  0  0  0  0
   -1.5752    0.5515    1.5041 H   0  0  0  0  0  0  0  0  0  0  0  0
   -1.0927    2.3662   -0.0772 H   0  0  0  0  0  0  0  0  0  0  0  0
   -2.4404    1.6667   -1.1004 H   0  0  0  0  0  0  0  0  0  0  0  0
  1  2  1  0
  2  3  1  0
  2  4  1  0
  4  5  1  0
  4  6  1  0
  6  7  1  0
  7  8  1  0
  8  4  1  0
  1  9  1  0
  1 10  1  0
  1 11  1  0
  2 12  1  0
  3 13  1  0
  3 14  1  0
  3 15  1  0
  5 16  1  0
  5 17  1  0
  5 18  1  0
  6 19  1  0
  6 20  1  0
  7 21  1  0
  7 22  1  0
M  END
