
     RDKit          3D

 21 21  0  0  0  0  0  0  0  0999 V2000
   -0.0145    1.8390   -0.6757 C   0  0  0  0  0  0  0  0  0  0  0  0
    0.5741    0.6642    0.0271 C   0  0  0  0  0  0  0  0  0  0  0  0
    1.6520    0.0349   -0.8661 C   0  0  0  0  0  0  0  0  0  0  0  0
    2.2684   -1.1290   -0.2083 C   0  0  0  0  0  0  0  0  0  0  0  0
    2.7594   -1.0057    0.8891 O   0  0  0  0  0  0  0  0  0  0  0  0
   -0.4161   -0.4115    0.3457 C   0  0  0  0  0  0  0  0  0  0  0  0
   -1.5717   -0.0740    1.2150 C   0  0  0  0  0  0  0  0  0  0  0  0
   -2.1771   -1.1627    0.3394 C   0  0  0  0  0  0  0  0  0  0  0  0
   -1.3049   -0.7497   -0.6769 O   0  0  0  0  0  0  0  0  0  0  0  0
   -0.9151    2.2387   -0.2038 H   0  0  0  0  0  0  0  0  0  0  0  0
    0.7504    2.6529   -0.6574 H   0  0  0  0  0  0  0  0  0  0  0  0
   -0.1815    1.6393   -1.7679 H   0  0  0  0  0  0  0  0  0  0  0  0
    1.0506    0.9842    0.9606 H   0  0  0  0  0  0  0  0  0  0  0  0
    1.2518   -0.2130   -1.8624 H   0  0  0  0  0  0  0  0  0  0  0  0
    2.4554    0.8152   -1.0498 H   0  0  0  0  0  0  0  0  0  0  0  0
    2.2834   -2.0867   -0.6913 H   0  0  0  0  0  0  0  0  0  0  0  0
    0.1268   -1.3045    0.7564 H   0  0  0  0  0  0  0  0  0  0  0  0
   -1.4157   -0.3773    2.2692 H   0  0  0  0  0  0  0  0  0  0  0  0
   -2.0720    0.8955    1.0716 H   0  0  0  0  0  0  0  0  0  0  0  0
   -1.8504   -2.1839    0.6803 H   0  0  0  0  0  0  0  0  0  0  0  0
   -3.2532   -1.0661    0.1049 H   0  0  0  0  0  0  0  0  0  0  0  0
  1  2  1  0
  2  3  1  0
  3  4  1  0
  4  5  2  0
  2  6  1  0
  6  7  1  0
  7  8  1  0
  8  9  1  0
  9  6  1  0
  1 10  1  0
  1 11  1  0
  1 12  1  0
  2 13  1  0
  3 14  1  0
  3 15  1  0
  4 16  1  0
  6 17  1  0
  7 18  1  0
  7 19  1  0
  8 20  1  0
  8 21  1  0
M  END
