
     RDKit          3D

 22 22  0  0  0  0  0  0  0  0999 V2000
    1.8853   -1.0411   -0.6371 C   0  0  0  0  0  0  0  0  0  0  0  0
    1.0339   -0.2926    0.3589 C   0  0  0  0  0  0  0  0  0  0  0  0
    1.8602    0.8490    0.9115 C   0  0  0  0  0  0  0  0  0  0  0  0
   -0.2505    0.2070   -0.2687 C   0  0  0  0  0  0  0  0  0  0  0  0
   -1.1124    0.9517    0.6946 C   0  0  0  0  0  0  0  0  0  0  0  0
   -2.4771    0.7453    0.1616 C   0  0  0  0  0  0  0  0  0  0  0  0
   -2.4940   -0.2971   -0.6462 C   0  0  0  0  0  0  0  0  0  0  0  0
   -1.1319   -0.9023   -0.7395 C   0  0  0  0  0  0  0  0  0  0  0  0
    1.4681   -0.9324   -1.6600 H   0  0  0  0  0  0  0  0  0  0  0  0
    2.0029   -2.1116   -0.3687 H   0  0  0  0  0  0  0  0  0  0  0  0
    2.9276   -0.6278   -0.6987 H   0  0  0  0  0  0  0  0  0  0  0  0
    0.7468   -0.9811    1.1881 H   0  0  0  0  0  0  0  0  0  0  0  0
    2.7529    0.3815    1.3907 H   0  0  0  0  0  0  0  0  0  0  0  0
    1.2935    1.4769    1.6168 H   0  0  0  0  0  0  0  0  0  0  0  0
    2.1976    1.4405    0.0187 H   0  0  0  0  0  0  0  0  0  0  0  0
   -0.0192    0.8855   -1.1159 H   0  0  0  0  0  0  0  0  0  0  0  0
   -1.0966    0.5279    1.7192 H   0  0  0  0  0  0  0  0  0  0  0  0
   -0.8445    2.0254    0.6721 H   0  0  0  0  0  0  0  0  0  0  0  0
   -3.3286    1.3510    0.3951 H   0  0  0  0  0  0  0  0  0  0  0  0
   -3.3563   -0.6699   -1.1698 H   0  0  0  0  0  0  0  0  0  0  0  0
   -1.1065   -1.7720   -0.0466 H   0  0  0  0  0  0  0  0  0  0  0  0
   -0.9513   -1.2139   -1.7760 H   0  0  0  0  0  0  0  0  0  0  0  0
  1  2  1  0
  2  3  1  0
  2  4  1  0
  4  5  1  0
  5  6  1  0
  6  7  2  0
  7  8  1  0
  8  4  1  0
  1  9  1  0
  1 10  1  0
  1 11  1  0
  2 12  1  0
  3 13  1  0
  3 14  1  0
  3 15  1  0
  4 16  1  0
  5 17  1  0
  5 18  1  0
  6 19  1  0
  7 20  1  0
  8 21  1  0
  8 22  1  0
M  END
