
     RDKit          3D

 19 19  0  0  0  0  0  0  0  0999 V2000
   -1.1938   -1.2199   -0.7797 C   0  0  0  0  0  0  0  0  0  0  0  0
   -0.4943    0.0469   -0.3818 C   0  0  0  0  0  0  0  0  0  0  0  0
   -1.0536    0.5741    0.9004 C   0  0  0  0  0  0  0  0  0  0  0  0
   -0.6915    0.9830   -1.4153 O   0  0  0  0  0  0  0  0  0  0  0  0
    0.9912   -0.2000   -0.3047 C   0  0  0  0  0  0  0  0  0  0  0  0
    1.8253    0.9825    0.0839 C   0  0  0  0  0  0  0  0  0  0  0  0
    2.6341    0.0556    0.7941 O   0  0  0  0  0  0  0  0  0  0  0  0
    1.4872   -0.6929    0.9961 C   0  0  0  0  0  0  0  0  0  0  0  0
    1.0432   -1.4504    1.8695 O   0  0  0  0  0  0  0  0  0  0  0  0
   -0.6556   -2.1396   -0.4188 H   0  0  0  0  0  0  0  0  0  0  0  0
   -1.3275   -1.2642   -1.8998 H   0  0  0  0  0  0  0  0  0  0  0  0
   -2.2255   -1.1780   -0.3735 H   0  0  0  0  0  0  0  0  0  0  0  0
   -0.3831    0.3967    1.7380 H   0  0  0  0  0  0  0  0  0  0  0  0
   -1.3389    1.6382    0.7676 H   0  0  0  0  0  0  0  0  0  0  0  0
   -2.0145    0.0392    1.1260 H   0  0  0  0  0  0  0  0  0  0  0  0
   -1.6325    1.0886   -1.6556 H   0  0  0  0  0  0  0  0  0  0  0  0
    1.3943   -0.7919   -1.1308 H   0  0  0  0  0  0  0  0  0  0  0  0
    1.3034    1.6262    0.8230 H   0  0  0  0  0  0  0  0  0  0  0  0
    2.3322    1.5061   -0.7387 H   0  0  0  0  0  0  0  0  0  0  0  0
  1  2  1  0
  2  3  1  0
  2  4  1  0
  2  5  1  0
  5  6  1  0
  6  7  1  0
  7  8  1  0
  8  9  2  0
  8  5  1  0
  1 10  1  0
  1 11  1  0
  1 12  1  0
  3 13  1  0
  3 14  1  0
  3 15  1  0
  4 16  1  0
  5 17  1  0
  6 18  1  0
  6 19  1  0
M  END
