
     RDKit          3D

 25 25  0  0  0  0  0  0  0  0999 V2000
   -2.6681    1.4056   -0.1205 C   0  0  0  0  0  0  0  0  0  0  0  0
   -1.6867    0.2299   -0.2967 C   0  0  0  0  0  0  0  0  0  0  0  0
   -1.6980   -0.4998    0.9967 C   0  0  0  0  0  0  0  0  0  0  0  0
   -0.4033    0.7973   -0.7538 C   0  0  0  0  0  0  0  0  0  0  0  0
    0.7253   -0.1168   -1.0107 C   0  0  0  0  0  0  0  0  0  0  0  0
    1.1941   -0.9222    0.1552 C   0  0  0  0  0  0  0  0  0  0  0  0
    1.7048   -0.3666    1.4040 C   0  0  0  0  0  0  0  0  0  0  0  0
    2.6990   -0.9624    0.4314 C   0  0  0  0  0  0  0  0  0  0  0  0
    3.4983   -0.0755   -0.3134 O   0  0  0  0  0  0  0  0  0  0  0  0
   -2.5264    1.7785    0.9145 H   0  0  0  0  0  0  0  0  0  0  0  0
   -3.7095    1.0188   -0.2649 H   0  0  0  0  0  0  0  0  0  0  0  0
   -2.4273    2.2253   -0.8295 H   0  0  0  0  0  0  0  0  0  0  0  0
   -2.1396   -0.4222   -1.0689 H   0  0  0  0  0  0  0  0  0  0  0  0
   -1.1263    0.0053    1.8024 H   0  0  0  0  0  0  0  0  0  0  0  0
   -1.5003   -1.5901    0.9288 H   0  0  0  0  0  0  0  0  0  0  0  0
   -2.7654   -0.4656    1.3823 H   0  0  0  0  0  0  0  0  0  0  0  0
   -0.0358    1.5860   -0.0366 H   0  0  0  0  0  0  0  0  0  0  0  0
   -0.6065    1.3915   -1.6935 H   0  0  0  0  0  0  0  0  0  0  0  0
    1.6074    0.5012   -1.3575 H   0  0  0  0  0  0  0  0  0  0  0  0
    0.5303   -0.7885   -1.8756 H   0  0  0  0  0  0  0  0  0  0  0  0
    0.7349   -1.9484    0.2152 H   0  0  0  0  0  0  0  0  0  0  0  0
    1.8377    0.7124    1.5882 H   0  0  0  0  0  0  0  0  0  0  0  0
    1.5039   -0.9230    2.3662 H   0  0  0  0  0  0  0  0  0  0  0  0
    3.1593   -1.9348    0.6745 H   0  0  0  0  0  0  0  0  0  0  0  0
    4.0982   -0.6361   -0.8640 H   0  0  0  0  0  0  0  0  0  0  0  0
  1  2  1  0
  2  3  1  0
  2  4  1  0
  4  5  1  0
  5  6  1  0
  6  7  1  0
  7  8  1  0
  8  9  1  0
  8  6  1  0
  1 10  1  0
  1 11  1  0
  1 12  1  0
  2 13  1  0
  3 14  1  0
  3 15  1  0
  3 16  1  0
  4 17  1  0
  4 18  1  0
  5 19  1  0
  5 20  1  0
  6 21  1  0
  7 22  1  0
  7 23  1  0
  8 24  1  0
  9 25  1  0
M  END
