
     RDKit          3D

 23 23  0  0  0  0  0  0  0  0999 V2000
   -1.1736   -0.8029   -1.1623 C   0  0  0  0  0  0  0  0  0  0  0  0
   -0.9377    0.5253   -0.5188 C   0  0  0  0  0  0  0  0  0  0  0  0
   -2.2919    1.0310   -0.0673 C   0  0  0  0  0  0  0  0  0  0  0  0
   -2.2514    2.1162    0.5194 O   0  0  0  0  0  0  0  0  0  0  0  0
    0.0103    0.5716    0.6102 C   0  0  0  0  0  0  0  0  0  0  0  0
   -0.4208   -0.3334    1.7700 C   0  0  0  0  0  0  0  0  0  0  0  0
    1.4425    0.3729    0.3723 C   0  0  0  0  0  0  0  0  0  0  0  0
    1.9408   -0.9499   -0.2370 C   0  0  0  0  0  0  0  0  0  0  0  0
    2.1054    0.3621   -0.9377 C   0  0  0  0  0  0  0  0  0  0  0  0
   -2.2185   -0.8628   -1.6075 H   0  0  0  0  0  0  0  0  0  0  0  0
   -1.1402   -1.6663   -0.4750 H   0  0  0  0  0  0  0  0  0  0  0  0
   -0.5227   -1.0170   -2.0337 H   0  0  0  0  0  0  0  0  0  0  0  0
   -0.6739    1.2254   -1.3545 H   0  0  0  0  0  0  0  0  0  0  0  0
   -3.2006    0.5019   -0.2381 H   0  0  0  0  0  0  0  0  0  0  0  0
   -0.0947    1.6150    1.0668 H   0  0  0  0  0  0  0  0  0  0  0  0
    0.2062   -0.0420    2.6391 H   0  0  0  0  0  0  0  0  0  0  0  0
   -1.4661   -0.1570    2.0585 H   0  0  0  0  0  0  0  0  0  0  0  0
   -0.1827   -1.3919    1.5529 H   0  0  0  0  0  0  0  0  0  0  0  0
    2.0793    0.7223    1.2430 H   0  0  0  0  0  0  0  0  0  0  0  0
    1.2230   -1.6867   -0.5789 H   0  0  0  0  0  0  0  0  0  0  0  0
    2.8445   -1.4074    0.2501 H   0  0  0  0  0  0  0  0  0  0  0  0
    1.5695    0.5497   -1.8891 H   0  0  0  0  0  0  0  0  0  0  0  0
    3.1535    0.7239   -0.9825 H   0  0  0  0  0  0  0  0  0  0  0  0
  1  2  1  0
  2  3  1  0
  3  4  2  0
  2  5  1  0
  5  6  1  0
  5  7  1  0
  7  8  1  0
  8  9  1  0
  9  7  1  0
  1 10  1  0
  1 11  1  0
  1 12  1  0
  2 13  1  0
  3 14  1  0
  5 15  1  0
  6 16  1  0
  6 17  1  0
  6 18  1  0
  7 19  1  0
  8 20  1  0
  8 21  1  0
  9 22  1  0
  9 23  1  0
M  END
