
     RDKit          3D

 25 25  0  0  0  0  0  0  0  0999 V2000
    2.2985    0.8306   -1.0490 C   0  0  0  0  0  0  0  0  0  0  0  0
    1.5382    0.3874    0.1524 C   0  0  0  0  0  0  0  0  0  0  0  0
    2.2334   -0.8149    0.7553 C   0  0  0  0  0  0  0  0  0  0  0  0
    0.0973    0.0615   -0.1103 C   0  0  0  0  0  0  0  0  0  0  0  0
   -0.5681   -0.3743    1.1781 C   0  0  0  0  0  0  0  0  0  0  0  0
   -2.0574   -0.0811    1.0784 C   0  0  0  0  0  0  0  0  0  0  0  0
   -2.5026   -0.3888   -0.3441 C   0  0  0  0  0  0  0  0  0  0  0  0
   -1.7533    0.5160   -1.2847 C   0  0  0  0  0  0  0  0  0  0  0  0
   -0.6218    1.0891   -0.6582 O   0  0  0  0  0  0  0  0  0  0  0  0
    1.7699    0.5270   -1.9839 H   0  0  0  0  0  0  0  0  0  0  0  0
    3.3254    0.4035   -1.0275 H   0  0  0  0  0  0  0  0  0  0  0  0
    2.4567    1.9474   -1.0399 H   0  0  0  0  0  0  0  0  0  0  0  0
    1.5660    1.2258    0.9012 H   0  0  0  0  0  0  0  0  0  0  0  0
    2.4689   -1.5237   -0.0868 H   0  0  0  0  0  0  0  0  0  0  0  0
    1.5990   -1.2728    1.5218 H   0  0  0  0  0  0  0  0  0  0  0  0
    3.2293   -0.4989    1.1613 H   0  0  0  0  0  0  0  0  0  0  0  0
    0.0758   -0.7950   -0.8340 H   0  0  0  0  0  0  0  0  0  0  0  0
   -0.4262   -1.4590    1.3181 H   0  0  0  0  0  0  0  0  0  0  0  0
   -0.1157    0.2228    2.0083 H   0  0  0  0  0  0  0  0  0  0  0  0
   -2.6231   -0.6347    1.8317 H   0  0  0  0  0  0  0  0  0  0  0  0
   -2.1758    1.0275    1.2060 H   0  0  0  0  0  0  0  0  0  0  0  0
   -2.3713   -1.4660   -0.5823 H   0  0  0  0  0  0  0  0  0  0  0  0
   -3.6020   -0.1751   -0.3680 H   0  0  0  0  0  0  0  0  0  0  0  0
   -1.4071   -0.0877   -2.1604 H   0  0  0  0  0  0  0  0  0  0  0  0
   -2.4341    1.3334   -1.5832 H   0  0  0  0  0  0  0  0  0  0  0  0
  1  2  1  0
  2  3  1  0
  2  4  1  0
  4  5  1  0
  5  6  1  0
  6  7  1  0
  7  8  1  0
  8  9  1  0
  9  4  1  0
  1 10  1  0
  1 11  1  0
  1 12  1  0
  2 13  1  0
  3 14  1  0
  3 15  1  0
  3 16  1  0
  4 17  1  0
  5 18  1  0
  5 19  1  0
  6 20  1  0
  6 21  1  0
  7 22  1  0
  7 23  1  0
  8 24  1  0
  8 25  1  0
M  END
