
     RDKit          3D

 21 20  0  0  0  0  0  0  0  0999 V2000
    0.6922   -1.4974    0.3186 C   0  0  0  0  0  0  0  0  0  0  0  0
    0.3031   -0.0580    0.5618 C   0  0  0  0  0  0  0  0  0  0  0  0
    1.4830    0.8528    0.5031 C   0  0  0  0  0  0  0  0  0  0  0  0
    2.1991    0.8571   -0.7769 C   0  0  0  0  0  0  0  0  0  0  0  0
    2.9846   -0.0216   -1.0466 O   0  0  0  0  0  0  0  0  0  0  0  0
   -0.7803    0.4030   -0.3782 C   0  0  0  0  0  0  0  0  0  0  0  0
   -0.3911    0.3117   -1.6943 O   0  0  0  0  0  0  0  0  0  0  0  0
   -2.0641   -0.3004   -0.0509 C   0  0  0  0  0  0  0  0  0  0  0  0
   -3.1159    0.2413   -0.8182 O   0  0  0  0  0  0  0  0  0  0  0  0
   -0.1746   -2.1523    0.1510 H   0  0  0  0  0  0  0  0  0  0  0  0
    1.3366   -1.6103   -0.5899 H   0  0  0  0  0  0  0  0  0  0  0  0
    1.2642   -1.8091    1.2415 H   0  0  0  0  0  0  0  0  0  0  0  0
   -0.0735   -0.0248    1.6235 H   0  0  0  0  0  0  0  0  0  0  0  0
    1.1112    1.8802    0.7856 H   0  0  0  0  0  0  0  0  0  0  0  0
    2.1836    0.5794    1.3253 H   0  0  0  0  0  0  0  0  0  0  0  0
    2.0378    1.6394   -1.4945 H   0  0  0  0  0  0  0  0  0  0  0  0
   -0.9683    1.4990   -0.1831 H   0  0  0  0  0  0  0  0  0  0  0  0
   -0.7595   -0.4717   -2.1792 H   0  0  0  0  0  0  0  0  0  0  0  0
   -1.9879   -1.3626   -0.3202 H   0  0  0  0  0  0  0  0  0  0  0  0
   -2.2507   -0.1807    1.0284 H   0  0  0  0  0  0  0  0  0  0  0  0
   -3.0296    1.2249   -0.7145 H   0  0  0  0  0  0  0  0  0  0  0  0
  1  2  1  0
  2  3  1  0
  3  4  1  0
  4  5  2  0
  2  6  1  0
  6  7  1  0
  6  8  1  0
  8  9  1  0
  1 10  1  0
  1 11  1  0
  1 12  1  0
  2 13  1  0
  3 14  1  0
  3 15  1  0
  4 16  1  0
  6 17  1  0
  7 18  1  0
  8 19  1  0
  8 20  1  0
  9 21  1  0
M  END
