
     RDKit          3D

 21 21  0  0  0  0  0  0  0  0999 V2000
   -1.4085    1.5018    0.5565 C   0  0  0  0  0  0  0  0  0  0  0  0
   -0.6117    0.2354    0.7424 C   0  0  0  0  0  0  0  0  0  0  0  0
   -1.6094   -0.9139    0.7832 C   0  0  0  0  0  0  0  0  0  0  0  0
   -2.3347   -0.8964   -0.5182 C   0  0  0  0  0  0  0  0  0  0  0  0
   -3.2174   -1.7166   -0.7904 O   0  0  0  0  0  0  0  0  0  0  0  0
    0.2356   -0.0177   -0.3295 O   0  0  0  0  0  0  0  0  0  0  0  0
    1.5531   -0.1593    0.0269 C   0  0  0  0  0  0  0  0  0  0  0  0
    2.5230    0.5880   -0.8962 C   0  0  0  0  0  0  0  0  0  0  0  0
    2.5330   -0.9079   -0.7809 C   0  0  0  0  0  0  0  0  0  0  0  0
   -2.4331    1.2845    0.1329 H   0  0  0  0  0  0  0  0  0  0  0  0
   -0.9334    2.1978   -0.1812 H   0  0  0  0  0  0  0  0  0  0  0  0
   -1.6033    2.0370    1.5101 H   0  0  0  0  0  0  0  0  0  0  0  0
   -0.0969    0.2827    1.7055 H   0  0  0  0  0  0  0  0  0  0  0  0
   -1.0288   -1.8509    0.8102 H   0  0  0  0  0  0  0  0  0  0  0  0
   -2.3089   -0.8228    1.6375 H   0  0  0  0  0  0  0  0  0  0  0  0
   -2.1356   -0.1677   -1.3039 H   0  0  0  0  0  0  0  0  0  0  0  0
    1.7535   -0.0528    1.1091 H   0  0  0  0  0  0  0  0  0  0  0  0
    2.1309    0.9852   -1.8460 H   0  0  0  0  0  0  0  0  0  0  0  0
    3.3174    1.1933   -0.4532 H   0  0  0  0  0  0  0  0  0  0  0  0
    2.2518   -1.4967   -1.6688 H   0  0  0  0  0  0  0  0  0  0  0  0
    3.4235   -1.3029   -0.2458 H   0  0  0  0  0  0  0  0  0  0  0  0
  1  2  1  0
  2  3  1  0
  3  4  1  0
  4  5  2  0
  2  6  1  0
  6  7  1  0
  7  8  1  0
  8  9  1  0
  9  7  1  0
  1 10  1  0
  1 11  1  0
  1 12  1  0
  2 13  1  0
  3 14  1  0
  3 15  1  0
  4 16  1  0
  7 17  1  0
  8 18  1  0
  8 19  1  0
  9 20  1  0
  9 21  1  0
M  END
