
     RDKit          3D

 21 20  0  0  0  0  0  0  0  0999 V2000
   -0.6934   -1.8355    0.3818 C   0  0  0  0  0  0  0  0  0  0  0  0
   -1.2619   -0.6571   -0.3737 C   0  0  0  0  0  0  0  0  0  0  0  0
   -2.4109   -1.1274   -1.2234 C   0  0  0  0  0  0  0  0  0  0  0  0
   -1.6080    0.3880    0.4703 O   0  0  0  0  0  0  0  0  0  0  0  0
   -0.9204    1.5545    0.2051 C   0  0  0  0  0  0  0  0  0  0  0  0
    0.5253    1.2975    0.3678 C   0  0  0  0  0  0  0  0  0  0  0  0
    1.7089    1.1045    0.5116 C   0  0  0  0  0  0  0  0  0  0  0  0
    3.1434    0.8883    0.7044 C   0  0  0  0  0  0  0  0  0  0  0  0
    3.4155    1.1369    2.0425 O   0  0  0  0  0  0  0  0  0  0  0  0
   -1.2606   -2.7677    0.1952 H   0  0  0  0  0  0  0  0  0  0  0  0
   -0.7599   -1.5762    1.4745 H   0  0  0  0  0  0  0  0  0  0  0  0
    0.3657   -1.9213    0.1475 H   0  0  0  0  0  0  0  0  0  0  0  0
   -0.4927   -0.2605   -1.0672 H   0  0  0  0  0  0  0  0  0  0  0  0
   -3.3945   -0.7561   -0.8742 H   0  0  0  0  0  0  0  0  0  0  0  0
   -2.4739   -2.2351   -1.2016 H   0  0  0  0  0  0  0  0  0  0  0  0
   -2.2954   -0.8460   -2.2875 H   0  0  0  0  0  0  0  0  0  0  0  0
   -1.1017    1.8428   -0.8451 H   0  0  0  0  0  0  0  0  0  0  0  0
   -1.1797    2.3198    0.9422 H   0  0  0  0  0  0  0  0  0  0  0  0
    3.7391    1.5249    0.0172 H   0  0  0  0  0  0  0  0  0  0  0  0
    3.4317   -0.1681    0.4641 H   0  0  0  0  0  0  0  0  0  0  0  0
    3.5236    2.0938    2.2479 H   0  0  0  0  0  0  0  0  0  0  0  0
  1  2  1  0
  2  3  1  0
  2  4  1  0
  4  5  1  0
  5  6  1  0
  6  7  3  0
  7  8  1  0
  8  9  1  0
  1 10  1  0
  1 11  1  0
  1 12  1  0
  2 13  1  0
  3 14  1  0
  3 15  1  0
  3 16  1  0
  5 17  1  0
  5 18  1  0
  8 19  1  0
  8 20  1  0
  9 21  1  0
M  END
