
     RDKit          3D

 21 22  0  0  0  0  0  0  0  0999 V2000
    1.0649    1.3609    0.6468 C   0  0  0  0  0  0  0  0  0  0  0  0
    0.5991    0.3469   -0.3790 C   0  0  0  0  0  0  0  0  0  0  0  0
    1.3946   -0.9266   -0.2610 C   0  0  0  0  0  0  0  0  0  0  0  0
    2.7521   -0.6918   -0.4701 O   0  0  0  0  0  0  0  0  0  0  0  0
   -0.8605    0.1775   -0.3404 C   0  0  0  0  0  0  0  0  0  0  0  0
   -1.5233   -0.7807   -1.2764 C   0  0  0  0  0  0  0  0  0  0  0  0
   -2.5120   -1.0994   -0.3249 O   0  0  0  0  0  0  0  0  0  0  0  0
   -1.6400   -0.5417    0.6355 C   0  0  0  0  0  0  0  0  0  0  0  0
   -1.6259    0.9471    0.6632 C   0  0  0  0  0  0  0  0  0  0  0  0
    0.9222    0.9288    1.6662 H   0  0  0  0  0  0  0  0  0  0  0  0
    0.5183    2.2992    0.6031 H   0  0  0  0  0  0  0  0  0  0  0  0
    2.1502    1.6217    0.4803 H   0  0  0  0  0  0  0  0  0  0  0  0
    0.8747    0.7925   -1.3815 H   0  0  0  0  0  0  0  0  0  0  0  0
    1.2174   -1.3177    0.7707 H   0  0  0  0  0  0  0  0  0  0  0  0
    1.0852   -1.7052   -0.9535 H   0  0  0  0  0  0  0  0  0  0  0  0
    3.2645   -1.1562    0.2241 H   0  0  0  0  0  0  0  0  0  0  0  0
   -1.9327   -0.3384   -2.2141 H   0  0  0  0  0  0  0  0  0  0  0  0
   -0.8970   -1.6826   -1.4279 H   0  0  0  0  0  0  0  0  0  0  0  0
   -1.2809   -1.1593    1.4515 H   0  0  0  0  0  0  0  0  0  0  0  0
   -1.0601    1.3822    1.5120 H   0  0  0  0  0  0  0  0  0  0  0  0
   -2.5109    1.5429    0.3752 H   0  0  0  0  0  0  0  0  0  0  0  0
  1  2  1  0
  2  3  1  0
  3  4  1  0
  2  5  1  0
  5  6  1  0
  6  7  1  0
  7  8  1  0
  8  9  1  0
  8  5  1  0
  9  5  1  0
  1 10  1  0
  1 11  1  0
  1 12  1  0
  2 13  1  0
  3 14  1  0
  3 15  1  0
  4 16  1  0
  6 17  1  0
  6 18  1  0
  8 19  1  0
  9 20  1  0
  9 21  1  0
M  END
