
     RDKit          3D

 20 19  0  0  0  0  0  0  0  0999 V2000
   -0.4044   -0.6710    1.4436 C   0  0  0  0  0  0  0  0  0  0  0  0
   -0.3571   -0.1612    0.0195 C   0  0  0  0  0  0  0  0  0  0  0  0
   -0.8476    1.2751    0.0529 C   0  0  0  0  0  0  0  0  0  0  0  0
   -1.2883   -1.0368   -0.7920 C   0  0  0  0  0  0  0  0  0  0  0  0
    1.0383   -0.2310   -0.5570 C   0  0  0  0  0  0  0  0  0  0  0  0
    1.0353    0.2431   -1.8551 O   0  0  0  0  0  0  0  0  0  0  0  0
    2.0306    0.4721    0.2701 C   0  0  0  0  0  0  0  0  0  0  0  0
    2.2064    0.2198    1.4419 O   0  0  0  0  0  0  0  0  0  0  0  0
    0.0877   -1.6557    1.5629 H   0  0  0  0  0  0  0  0  0  0  0  0
   -0.0420    0.0909    2.1615 H   0  0  0  0  0  0  0  0  0  0  0  0
   -1.4982   -0.8087    1.6844 H   0  0  0  0  0  0  0  0  0  0  0  0
   -1.4504    1.5428   -0.8207 H   0  0  0  0  0  0  0  0  0  0  0  0
   -1.4559    1.4779    0.9554 H   0  0  0  0  0  0  0  0  0  0  0  0
    0.0669    1.9267    0.1423 H   0  0  0  0  0  0  0  0  0  0  0  0
   -1.0722   -2.0969   -0.5080 H   0  0  0  0  0  0  0  0  0  0  0  0
   -1.0271   -0.9309   -1.8721 H   0  0  0  0  0  0  0  0  0  0  0  0
   -2.3520   -0.7968   -0.6002 H   0  0  0  0  0  0  0  0  0  0  0  0
    1.3402   -1.2999   -0.6031 H   0  0  0  0  0  0  0  0  0  0  0  0
    1.3511    1.1797   -1.9291 H   0  0  0  0  0  0  0  0  0  0  0  0
    2.6385    1.2610   -0.1972 H   0  0  0  0  0  0  0  0  0  0  0  0
  1  2  1  0
  2  3  1  0
  2  4  1  0
  2  5  1  0
  5  6  1  0
  5  7  1  0
  7  8  2  0
  1  9  1  0
  1 10  1  0
  1 11  1  0
  3 12  1  0
  3 13  1  0
  3 14  1  0
  4 15  1  0
  4 16  1  0
  4 17  1  0
  5 18  1  0
  6 19  1  0
  7 20  1  0
M  END
