
     RDKit          3D

 23 23  0  0  0  0  0  0  0  0999 V2000
    0.8957   -0.4439    1.1525 C   0  0  0  0  0  0  0  0  0  0  0  0
    1.1424   -0.3233   -0.3116 C   0  0  0  0  0  0  0  0  0  0  0  0
    2.6160    0.0495   -0.5185 C   0  0  0  0  0  0  0  0  0  0  0  0
    3.3445   -1.0080    0.0590 O   0  0  0  0  0  0  0  0  0  0  0  0
    0.2940    0.6372   -1.0478 C   0  0  0  0  0  0  0  0  0  0  0  0
   -1.0291    0.4414   -1.0481 O   0  0  0  0  0  0  0  0  0  0  0  0
   -1.7897    0.5292    0.0576 C   0  0  0  0  0  0  0  0  0  0  0  0
   -2.7247   -0.7077    0.2464 C   0  0  0  0  0  0  0  0  0  0  0  0
   -3.2675    0.6425    0.0242 C   0  0  0  0  0  0  0  0  0  0  0  0
    0.0082   -1.0380    1.4095 H   0  0  0  0  0  0  0  0  0  0  0  0
    1.7487   -1.0309    1.6280 H   0  0  0  0  0  0  0  0  0  0  0  0
    0.9139    0.5568    1.6270 H   0  0  0  0  0  0  0  0  0  0  0  0
    1.0819   -1.3702   -0.7215 H   0  0  0  0  0  0  0  0  0  0  0  0
    2.8668    0.1776   -1.5720 H   0  0  0  0  0  0  0  0  0  0  0  0
    2.7913    0.9941    0.0033 H   0  0  0  0  0  0  0  0  0  0  0  0
    4.2454   -0.6167    0.2508 H   0  0  0  0  0  0  0  0  0  0  0  0
    0.6046    1.6669   -0.6980 H   0  0  0  0  0  0  0  0  0  0  0  0
    0.6241    0.5943   -2.1432 H   0  0  0  0  0  0  0  0  0  0  0  0
   -1.2987    0.8271    1.0107 H   0  0  0  0  0  0  0  0  0  0  0  0
   -2.7143   -1.1885    1.2337 H   0  0  0  0  0  0  0  0  0  0  0  0
   -2.8159   -1.4073   -0.5982 H   0  0  0  0  0  0  0  0  0  0  0  0
   -3.7990    0.8845   -0.9239 H   0  0  0  0  0  0  0  0  0  0  0  0
   -3.7385    1.1335    0.8988 H   0  0  0  0  0  0  0  0  0  0  0  0
  1  2  1  0
  2  3  1  0
  3  4  1  0
  2  5  1  0
  5  6  1  0
  6  7  1  0
  7  8  1  0
  8  9  1  0
  9  7  1  0
  1 10  1  0
  1 11  1  0
  1 12  1  0
  2 13  1  0
  3 14  1  0
  3 15  1  0
  4 16  1  0
  5 17  1  0
  5 18  1  0
  7 19  1  0
  8 20  1  0
  8 21  1  0
  9 22  1  0
  9 23  1  0
M  END
