
     RDKit          3D

 25 26  0  0  0  0  0  0  0  0999 V2000
    2.2029   -0.6816   -0.3848 C   0  0  0  0  0  0  0  0  0  0  0  0
    1.0876    0.3351   -0.4074 C   0  0  0  0  0  0  0  0  0  0  0  0
    1.3347    1.3146    0.7087 C   0  0  0  0  0  0  0  0  0  0  0  0
   -0.2714   -0.2623   -0.3921 C   0  0  0  0  0  0  0  0  0  0  0  0
   -0.4580   -1.1573   -1.6153 C   0  0  0  0  0  0  0  0  0  0  0  0
   -0.6958   -0.9956    0.8378 C   0  0  0  0  0  0  0  0  0  0  0  0
   -1.9850   -0.1754    0.7970 C   0  0  0  0  0  0  0  0  0  0  0  0
   -1.7943    1.2620    1.0809 C   0  0  0  0  0  0  0  0  0  0  0  0
   -1.3567    0.7267   -0.2023 C   0  0  0  0  0  0  0  0  0  0  0  0
    2.5028   -0.9709   -1.4234 H   0  0  0  0  0  0  0  0  0  0  0  0
    1.9371   -1.6109    0.1357 H   0  0  0  0  0  0  0  0  0  0  0  0
    3.1086   -0.2464    0.0877 H   0  0  0  0  0  0  0  0  0  0  0  0
    1.1998    0.9034   -1.3606 H   0  0  0  0  0  0  0  0  0  0  0  0
    0.7588    2.2509    0.5950 H   0  0  0  0  0  0  0  0  0  0  0  0
    2.4208    1.6170    0.6441 H   0  0  0  0  0  0  0  0  0  0  0  0
    1.2173    0.8539    1.7008 H   0  0  0  0  0  0  0  0  0  0  0  0
   -0.1729   -2.1977   -1.4204 H   0  0  0  0  0  0  0  0  0  0  0  0
   -1.5081   -1.1163   -1.9501 H   0  0  0  0  0  0  0  0  0  0  0  0
    0.1763   -0.7771   -2.4343 H   0  0  0  0  0  0  0  0  0  0  0  0
   -0.1084   -0.7723    1.7573 H   0  0  0  0  0  0  0  0  0  0  0  0
   -0.9537   -2.0713    0.7056 H   0  0  0  0  0  0  0  0  0  0  0  0
   -2.9410   -0.6599    0.6608 H   0  0  0  0  0  0  0  0  0  0  0  0
   -1.0878    1.4810    1.9187 H   0  0  0  0  0  0  0  0  0  0  0  0
   -2.6455    1.9624    1.0703 H   0  0  0  0  0  0  0  0  0  0  0  0
   -1.9682    0.9881   -1.1097 H   0  0  0  0  0  0  0  0  0  0  0  0
  1  2  1  0
  2  3  1  0
  2  4  1  0
  4  5  1  0
  4  6  1  0
  6  7  1  0
  7  8  1  0
  8  9  1  0
  9  4  1  0
  9  7  1  0
  1 10  1  0
  1 11  1  0
  1 12  1  0
  2 13  1  0
  3 14  1  0
  3 15  1  0
  3 16  1  0
  5 17  1  0
  5 18  1  0
  5 19  1  0
  6 20  1  0
  6 21  1  0
  7 22  1  0
  8 23  1  0
  8 24  1  0
  9 25  1  0
M  END
