
     RDKit          3D

 21 20  0  0  0  0  0  0  0  0999 V2000
   -1.6143    1.1220   -0.7291 C   0  0  0  0  0  0  0  0  0  0  0  0
   -1.3096   -0.1657    0.0012 C   0  0  0  0  0  0  0  0  0  0  0  0
   -2.5987   -0.9649    0.2153 C   0  0  0  0  0  0  0  0  0  0  0  0
   -0.4157   -1.0658   -0.8361 C   0  0  0  0  0  0  0  0  0  0  0  0
    0.8089   -0.4706   -1.1454 O   0  0  0  0  0  0  0  0  0  0  0  0
    1.7391   -0.0437   -0.2253 C   0  0  0  0  0  0  0  0  0  0  0  0
    1.4818   -0.1940    0.9939 O   0  0  0  0  0  0  0  0  0  0  0  0
    3.0376    0.5896   -0.6532 C   0  0  0  0  0  0  0  0  0  0  0  0
    3.7937    0.9287    0.4492 O   0  0  0  0  0  0  0  0  0  0  0  0
   -1.7498    0.9789   -1.8138 H   0  0  0  0  0  0  0  0  0  0  0  0
   -2.5462    1.5563   -0.3280 H   0  0  0  0  0  0  0  0  0  0  0  0
   -0.7452    1.7981   -0.5613 H   0  0  0  0  0  0  0  0  0  0  0  0
   -0.8730    0.0764    0.9770 H   0  0  0  0  0  0  0  0  0  0  0  0
   -2.3123   -2.0270    0.4173 H   0  0  0  0  0  0  0  0  0  0  0  0
   -3.2020   -0.5651    1.0285 H   0  0  0  0  0  0  0  0  0  0  0  0
   -3.1170   -0.9776   -0.7712 H   0  0  0  0  0  0  0  0  0  0  0  0
   -0.9660   -1.2304   -1.7993 H   0  0  0  0  0  0  0  0  0  0  0  0
   -0.3197   -2.0241   -0.2732 H   0  0  0  0  0  0  0  0  0  0  0  0
    3.5383   -0.1938   -1.2880 H   0  0  0  0  0  0  0  0  0  0  0  0
    2.7864    1.4442   -1.3019 H   0  0  0  0  0  0  0  0  0  0  0  0
    4.5839    1.4284    0.1321 H   0  0  0  0  0  0  0  0  0  0  0  0
  1  2  1  0
  2  3  1  0
  2  4  1  0
  4  5  1  0
  5  6  1  0
  6  7  2  0
  6  8  1  0
  8  9  1  0
  1 10  1  0
  1 11  1  0
  1 12  1  0
  2 13  1  0
  3 14  1  0
  3 15  1  0
  3 16  1  0
  4 17  1  0
  4 18  1  0
  8 19  1  0
  8 20  1  0
  9 21  1  0
M  END
