
     RDKit          3D

 18 18  0  0  0  0  0  0  0  0999 V2000
   -1.0877   -0.1486    1.5099 C   0  0  0  0  0  0  0  0  0  0  0  0
   -0.5756    0.2522    0.1424 C   0  0  0  0  0  0  0  0  0  0  0  0
   -1.5263   -0.2946   -0.8711 C   0  0  0  0  0  0  0  0  0  0  0  0
    0.8271   -0.2494    0.0077 C   0  0  0  0  0  0  0  0  0  0  0  0
    1.5299    0.0398   -1.2799 C   0  0  0  0  0  0  0  0  0  0  0  0
    2.7144    0.2546   -0.4977 O   0  0  0  0  0  0  0  0  0  0  0  0
    1.8841    0.6371    0.5346 C   0  0  0  0  0  0  0  0  0  0  0  0
    2.0103    1.4152    1.4986 O   0  0  0  0  0  0  0  0  0  0  0  0
   -0.9315    0.6936    2.2241 H   0  0  0  0  0  0  0  0  0  0  0  0
   -2.1818   -0.3456    1.5112 H   0  0  0  0  0  0  0  0  0  0  0  0
   -0.6010   -1.0862    1.8486 H   0  0  0  0  0  0  0  0  0  0  0  0
   -0.5712    1.3550    0.0791 H   0  0  0  0  0  0  0  0  0  0  0  0
   -1.4976    0.2239   -1.8487 H   0  0  0  0  0  0  0  0  0  0  0  0
   -1.4340   -1.4004   -0.9799 H   0  0  0  0  0  0  0  0  0  0  0  0
   -2.5661   -0.1428   -0.4538 H   0  0  0  0  0  0  0  0  0  0  0  0
    0.9914   -1.3092    0.3091 H   0  0  0  0  0  0  0  0  0  0  0  0
    1.7327   -0.8538   -1.9310 H   0  0  0  0  0  0  0  0  0  0  0  0
    1.2829    0.9592   -1.8033 H   0  0  0  0  0  0  0  0  0  0  0  0
  1  2  1  0
  2  3  1  0
  2  4  1  0
  4  5  1  0
  5  6  1  0
  6  7  1  0
  7  8  2  0
  7  4  1  0
  1  9  1  0
  1 10  1  0
  1 11  1  0
  2 12  1  0
  3 13  1  0
  3 14  1  0
  3 15  1  0
  4 16  1  0
  5 17  1  0
  5 18  1  0
M  END
