
     RDKit          3D

 27 27  0  0  0  0  0  0  0  0999 V2000
    1.7806    0.4632   -1.2801 C   0  0  0  0  0  0  0  0  0  0  0  0
    1.4081    0.1435    0.1527 C   0  0  0  0  0  0  0  0  0  0  0  0
    1.8355   -1.2502    0.4281 C   0  0  0  0  0  0  0  0  0  0  0  0
   -0.0480    0.4314    0.3875 C   0  0  0  0  0  0  0  0  0  0  0  0
   -0.3019    1.8860    0.1190 C   0  0  0  0  0  0  0  0  0  0  0  0
   -0.6092    0.0351    1.7089 C   0  0  0  0  0  0  0  0  0  0  0  0
   -1.1557   -1.2094    1.0951 C   0  0  0  0  0  0  0  0  0  0  0  0
   -0.9386   -0.5657   -0.2611 C   0  0  0  0  0  0  0  0  0  0  0  0
   -2.2362   -0.1195   -0.8316 C   0  0  0  0  0  0  0  0  0  0  0  0
    1.9692   -0.4709   -1.8550 H   0  0  0  0  0  0  0  0  0  0  0  0
    0.9719    0.9909   -1.8223 H   0  0  0  0  0  0  0  0  0  0  0  0
    2.7398    1.0406   -1.3462 H   0  0  0  0  0  0  0  0  0  0  0  0
    2.0459    0.8285    0.7871 H   0  0  0  0  0  0  0  0  0  0  0  0
    1.4034   -1.9829   -0.2859 H   0  0  0  0  0  0  0  0  0  0  0  0
    1.7086   -1.5730    1.4792 H   0  0  0  0  0  0  0  0  0  0  0  0
    2.9432   -1.2898    0.2441 H   0  0  0  0  0  0  0  0  0  0  0  0
   -0.3879    2.4240    1.1012 H   0  0  0  0  0  0  0  0  0  0  0  0
    0.5372    2.3934   -0.4080 H   0  0  0  0  0  0  0  0  0  0  0  0
   -1.2105    2.1043   -0.4350 H   0  0  0  0  0  0  0  0  0  0  0  0
    0.0913   -0.0769    2.5471 H   0  0  0  0  0  0  0  0  0  0  0  0
   -1.4455    0.7004    2.0286 H   0  0  0  0  0  0  0  0  0  0  0  0
   -2.2422   -1.3961    1.3446 H   0  0  0  0  0  0  0  0  0  0  0  0
   -0.6103   -2.1468    1.2608 H   0  0  0  0  0  0  0  0  0  0  0  0
   -0.3923   -1.2634   -0.9277 H   0  0  0  0  0  0  0  0  0  0  0  0
   -2.1797    0.7031   -1.5563 H   0  0  0  0  0  0  0  0  0  0  0  0
   -2.6861   -0.9797   -1.3711 H   0  0  0  0  0  0  0  0  0  0  0  0
   -2.9904    0.1798   -0.0610 H   0  0  0  0  0  0  0  0  0  0  0  0
  1  2  1  0
  2  3  1  0
  2  4  1  0
  4  5  1  0
  4  6  1  0
  6  7  1  0
  7  8  1  0
  8  9  1  0
  8  4  1  0
  1 10  1  0
  1 11  1  0
  1 12  1  0
  2 13  1  0
  3 14  1  0
  3 15  1  0
  3 16  1  0
  5 17  1  0
  5 18  1  0
  5 19  1  0
  6 20  1  0
  6 21  1  0
  7 22  1  0
  7 23  1  0
  8 24  1  0
  9 25  1  0
  9 26  1  0
  9 27  1  0
M  END
