
     RDKit          3D

 23 22  0  0  0  0  0  0  0  0999 V2000
   -1.5552   -1.4848   -0.2267 C   0  0  0  0  0  0  0  0  0  0  0  0
   -1.3168   -0.0111   -0.4146 C   0  0  0  0  0  0  0  0  0  0  0  0
   -2.1274    0.8244    0.5332 C   0  0  0  0  0  0  0  0  0  0  0  0
   -1.7934    0.2920   -1.7089 O   0  0  0  0  0  0  0  0  0  0  0  0
    0.1390    0.3559   -0.4124 C   0  0  0  0  0  0  0  0  0  0  0  0
    0.8437   -0.0028    0.8654 C   0  0  0  0  0  0  0  0  0  0  0  0
    2.2919    0.4056    0.7654 C   0  0  0  0  0  0  0  0  0  0  0  0
    2.9770   -0.2924   -0.3702 C   0  0  0  0  0  0  0  0  0  0  0  0
    4.1565   -0.0583   -0.5817 O   0  0  0  0  0  0  0  0  0  0  0  0
   -1.3049   -1.8452    0.7864 H   0  0  0  0  0  0  0  0  0  0  0  0
   -1.0144   -2.0283   -1.0311 H   0  0  0  0  0  0  0  0  0  0  0  0
   -2.6381   -1.6622   -0.4134 H   0  0  0  0  0  0  0  0  0  0  0  0
   -3.1119    0.2945    0.6764 H   0  0  0  0  0  0  0  0  0  0  0  0
   -2.3949    1.8157    0.0784 H   0  0  0  0  0  0  0  0  0  0  0  0
   -1.6437    0.9979    1.4982 H   0  0  0  0  0  0  0  0  0  0  0  0
   -1.2024    0.9292   -2.1726 H   0  0  0  0  0  0  0  0  0  0  0  0
    0.2124    1.4393   -0.5901 H   0  0  0  0  0  0  0  0  0  0  0  0
    0.6411   -0.1712   -1.2494 H   0  0  0  0  0  0  0  0  0  0  0  0
    0.4101    0.5420    1.7273 H   0  0  0  0  0  0  0  0  0  0  0  0
    0.7927   -1.0935    1.0647 H   0  0  0  0  0  0  0  0  0  0  0  0
    2.8634    0.2436    1.6852 H   0  0  0  0  0  0  0  0  0  0  0  0
    2.2870    1.5033    0.5071 H   0  0  0  0  0  0  0  0  0  0  0  0
    2.4881   -0.9937   -1.0164 H   0  0  0  0  0  0  0  0  0  0  0  0
  1  2  1  0
  2  3  1  0
  2  4  1  0
  2  5  1  0
  5  6  1  0
  6  7  1  0
  7  8  1  0
  8  9  2  0
  1 10  1  0
  1 11  1  0
  1 12  1  0
  3 13  1  0
  3 14  1  0
  3 15  1  0
  4 16  1  0
  5 17  1  0
  5 18  1  0
  6 19  1  0
  6 20  1  0
  7 21  1  0
  7 22  1  0
  8 23  1  0
M  END
