
     RDKit          3D

 16 15  0  0  0  0  0  0  0  0999 V2000
   -1.1866    1.3906    0.4572 C   0  0  0  0  0  0  0  0  0  0  0  0
   -0.6743    0.2981   -0.4440 C   0  0  0  0  0  0  0  0  0  0  0  0
    0.7733    0.1868   -0.2425 C   0  0  0  0  0  0  0  0  0  0  0  0
    1.9810    0.0911   -0.0774 C   0  0  0  0  0  0  0  0  0  0  0  0
    3.3939   -0.0197    0.1187 C   0  0  0  0  0  0  0  0  0  0  0  0
    4.2025   -0.0885   -0.8355 O   0  0  0  0  0  0  0  0  0  0  0  0
   -1.3314   -1.0345   -0.1538 C   0  0  0  0  0  0  0  0  0  0  0  0
   -1.1140   -1.4578    1.1359 O   0  0  0  0  0  0  0  0  0  0  0  0
   -2.2094    1.6868    0.1848 H   0  0  0  0  0  0  0  0  0  0  0  0
   -1.0996    1.0444    1.4938 H   0  0  0  0  0  0  0  0  0  0  0  0
   -0.4851    2.2649    0.3145 H   0  0  0  0  0  0  0  0  0  0  0  0
   -0.9242    0.5923   -1.4834 H   0  0  0  0  0  0  0  0  0  0  0  0
    3.8024   -0.0470    1.1132 H   0  0  0  0  0  0  0  0  0  0  0  0
   -2.4228   -0.9255   -0.2965 H   0  0  0  0  0  0  0  0  0  0  0  0
   -0.9773   -1.7897   -0.8651 H   0  0  0  0  0  0  0  0  0  0  0  0
   -1.7286   -2.1924    1.3491 H   0  0  0  0  0  0  0  0  0  0  0  0
  1  2  1  0
  2  3  1  0
  3  4  3  0
  4  5  1  0
  5  6  2  0
  2  7  1  0
  7  8  1  0
  1  9  1  0
  1 10  1  0
  1 11  1  0
  2 12  1  0
  5 13  1  0
  7 14  1  0
  7 15  1  0
  8 16  1  0
M  END
