
     RDKit          3D

 23 23  0  0  0  0  0  0  0  0999 V2000
    1.7050    0.8558   -0.6760 C   0  0  0  0  0  0  0  0  0  0  0  0
    1.1918    0.0150    0.4935 C   0  0  0  0  0  0  0  0  0  0  0  0
    2.2497   -1.0057    0.8592 C   0  0  0  0  0  0  0  0  0  0  0  0
   -0.0139   -0.7436   -0.0065 C   0  0  0  0  0  0  0  0  0  0  0  0
   -1.1140    0.1804   -0.4836 C   0  0  0  0  0  0  0  0  0  0  0  0
   -1.7168    1.1598    0.4819 C   0  0  0  0  0  0  0  0  0  0  0  0
   -1.5374    0.6298    1.7682 O   0  0  0  0  0  0  0  0  0  0  0  0
   -2.1118   -0.5038   -1.3936 C   0  0  0  0  0  0  0  0  0  0  0  0
   -1.1594    0.4718   -1.8544 O   0  0  0  0  0  0  0  0  0  0  0  0
    1.9162    0.2248   -1.5451 H   0  0  0  0  0  0  0  0  0  0  0  0
    2.5925    1.4450   -0.3403 H   0  0  0  0  0  0  0  0  0  0  0  0
    0.8853    1.5656   -0.9659 H   0  0  0  0  0  0  0  0  0  0  0  0
    0.9740    0.7018    1.3022 H   0  0  0  0  0  0  0  0  0  0  0  0
    2.3431   -1.0449    1.9828 H   0  0  0  0  0  0  0  0  0  0  0  0
    3.2288   -0.7947    0.3828 H   0  0  0  0  0  0  0  0  0  0  0  0
    1.9617   -2.0386    0.5664 H   0  0  0  0  0  0  0  0  0  0  0  0
    0.2506   -1.3876   -0.8700 H   0  0  0  0  0  0  0  0  0  0  0  0
   -0.4593   -1.3801    0.7870 H   0  0  0  0  0  0  0  0  0  0  0  0
   -2.7823    1.2835    0.2851 H   0  0  0  0  0  0  0  0  0  0  0  0
   -1.1894    2.1557    0.4539 H   0  0  0  0  0  0  0  0  0  0  0  0
   -2.1905   -0.0894    1.9546 H   0  0  0  0  0  0  0  0  0  0  0  0
   -3.1652   -0.1913   -1.3740 H   0  0  0  0  0  0  0  0  0  0  0  0
   -1.8587   -1.5092   -1.8084 H   0  0  0  0  0  0  0  0  0  0  0  0
  1  2  1  0
  2  3  1  0
  2  4  1  0
  4  5  1  0
  5  6  1  0
  6  7  1  0
  5  8  1  0
  8  9  1  0
  9  5  1  0
  1 10  1  0
  1 11  1  0
  1 12  1  0
  2 13  1  0
  3 14  1  0
  3 15  1  0
  3 16  1  0
  4 17  1  0
  4 18  1  0
  6 19  1  0
  6 20  1  0
  7 21  1  0
  8 22  1  0
  8 23  1  0
M  END
