
     RDKit          3D

 20 19  0  0  0  0  0  0  0  0999 V2000
    0.2414   -1.3540    1.6796 C   0  0  0  0  0  0  0  0  0  0  0  0
   -0.6225   -0.5501    0.7461 C   0  0  0  0  0  0  0  0  0  0  0  0
   -1.4428   -1.4473   -0.1060 C   0  0  0  0  0  0  0  0  0  0  0  0
   -1.5459    0.3848    1.5324 C   0  0  0  0  0  0  0  0  0  0  0  0
    0.2550    0.2512   -0.1448 C   0  0  0  0  0  0  0  0  0  0  0  0
    0.9681    0.9160   -0.8586 C   0  0  0  0  0  0  0  0  0  0  0  0
    1.8469    1.7214   -1.7227 C   0  0  0  0  0  0  0  0  0  0  0  0
    2.6555    2.5817   -1.0043 O   0  0  0  0  0  0  0  0  0  0  0  0
    0.3434   -2.3999    1.3113 H   0  0  0  0  0  0  0  0  0  0  0  0
    1.2553   -0.9540    1.8058 H   0  0  0  0  0  0  0  0  0  0  0  0
   -0.2935   -1.4533    2.6626 H   0  0  0  0  0  0  0  0  0  0  0  0
   -1.2114   -2.5160    0.0561 H   0  0  0  0  0  0  0  0  0  0  0  0
   -2.5166   -1.2909    0.1170 H   0  0  0  0  0  0  0  0  0  0  0  0
   -1.3400   -1.1764   -1.1941 H   0  0  0  0  0  0  0  0  0  0  0  0
   -2.3768   -0.2498    1.9047 H   0  0  0  0  0  0  0  0  0  0  0  0
   -1.9211    1.1972    0.8791 H   0  0  0  0  0  0  0  0  0  0  0  0
   -1.0415    0.7926    2.4180 H   0  0  0  0  0  0  0  0  0  0  0  0
    1.2411    2.3614   -2.4217 H   0  0  0  0  0  0  0  0  0  0  0  0
    2.4174    1.0350   -2.3710 H   0  0  0  0  0  0  0  0  0  0  0  0
    3.0880    2.1502   -0.2422 H   0  0  0  0  0  0  0  0  0  0  0  0
  1  2  1  0
  2  3  1  0
  2  4  1  0
  2  5  1  0
  5  6  3  0
  6  7  1  0
  7  8  1  0
  1  9  1  0
  1 10  1  0
  1 11  1  0
  3 12  1  0
  3 13  1  0
  3 14  1  0
  4 15  1  0
  4 16  1  0
  4 17  1  0
  7 18  1  0
  7 19  1  0
  8 20  1  0
M  END
