
     RDKit          3D

 19 19  0  0  0  0  0  0  0  0999 V2000
   -0.8598   -0.9144    0.8819 C   0  0  0  0  0  0  0  0  0  0  0  0
   -0.4486   -0.4606   -0.4916 C   0  0  0  0  0  0  0  0  0  0  0  0
   -1.4673    0.5212   -1.0055 C   0  0  0  0  0  0  0  0  0  0  0  0
   -1.5096    1.6130   -0.1211 O   0  0  0  0  0  0  0  0  0  0  0  0
    0.9021    0.1542   -0.5518 C   0  0  0  0  0  0  0  0  0  0  0  0
    2.1369   -0.5474   -0.1707 C   0  0  0  0  0  0  0  0  0  0  0  0
    1.5386    0.4917    0.7792 C   0  0  0  0  0  0  0  0  0  0  0  0
   -1.9096   -1.3174    0.7744 H   0  0  0  0  0  0  0  0  0  0  0  0
   -0.9554   -0.0567    1.5793 H   0  0  0  0  0  0  0  0  0  0  0  0
   -0.2520   -1.7356    1.2767 H   0  0  0  0  0  0  0  0  0  0  0  0
   -0.4839   -1.3557   -1.1598 H   0  0  0  0  0  0  0  0  0  0  0  0
   -2.4826    0.0588   -1.1181 H   0  0  0  0  0  0  0  0  0  0  0  0
   -1.1842    0.9389   -1.9954 H   0  0  0  0  0  0  0  0  0  0  0  0
   -2.4547    1.8599    0.0435 H   0  0  0  0  0  0  0  0  0  0  0  0
    1.0098    0.9390   -1.3480 H   0  0  0  0  0  0  0  0  0  0  0  0
    3.0811   -0.2490   -0.6698 H   0  0  0  0  0  0  0  0  0  0  0  0
    2.1602   -1.5576    0.2595 H   0  0  0  0  0  0  0  0  0  0  0  0
    2.1094    1.4619    0.8507 H   0  0  0  0  0  0  0  0  0  0  0  0
    1.0695    0.1556    1.7057 H   0  0  0  0  0  0  0  0  0  0  0  0
  1  2  1  0
  2  3  1  0
  3  4  1  0
  2  5  1  0
  5  6  1  0
  6  7  1  0
  7  5  1  0
  1  8  1  0
  1  9  1  0
  1 10  1  0
  2 11  1  0
  3 12  1  0
  3 13  1  0
  4 14  1  0
  5 15  1  0
  6 16  1  0
  6 17  1  0
  7 18  1  0
  7 19  1  0
M  END
