
     RDKit          3D

 21 22  0  0  0  0  0  0  0  0999 V2000
    0.4879   -1.6304    0.3242 C   0  0  0  0  0  0  0  0  0  0  0  0
   -0.0466   -0.2540   -0.0568 C   0  0  0  0  0  0  0  0  0  0  0  0
    0.1845   -0.0832   -1.5436 C   0  0  0  0  0  0  0  0  0  0  0  0
   -1.5197   -0.2406    0.1872 C   0  0  0  0  0  0  0  0  0  0  0  0
   -2.3581    0.9196   -0.0684 C   0  0  0  0  0  0  0  0  0  0  0  0
   -1.8978    0.6415    1.3221 O   0  0  0  0  0  0  0  0  0  0  0  0
    0.7219    0.7374    0.7646 C   0  0  0  0  0  0  0  0  0  0  0  0
    2.1922    0.7436    0.5633 C   0  0  0  0  0  0  0  0  0  0  0  0
    1.3469    1.8125    0.2006 O   0  0  0  0  0  0  0  0  0  0  0  0
    0.0892   -2.4285   -0.3136 H   0  0  0  0  0  0  0  0  0  0  0  0
    0.2126   -1.8809    1.3790 H   0  0  0  0  0  0  0  0  0  0  0  0
    1.6049   -1.5968    0.2292 H   0  0  0  0  0  0  0  0  0  0  0  0
   -0.0130    0.9662   -1.8622 H   0  0  0  0  0  0  0  0  0  0  0  0
    1.1928   -0.4343   -1.8532 H   0  0  0  0  0  0  0  0  0  0  0  0
   -0.5921   -0.7302   -2.0440 H   0  0  0  0  0  0  0  0  0  0  0  0
   -2.0397   -1.2112    0.3368 H   0  0  0  0  0  0  0  0  0  0  0  0
   -1.9987    1.8894   -0.4045 H   0  0  0  0  0  0  0  0  0  0  0  0
   -3.4452    0.7976   -0.0780 H   0  0  0  0  0  0  0  0  0  0  0  0
    0.3823    0.8508    1.8097 H   0  0  0  0  0  0  0  0  0  0  0  0
    2.6528    0.2687   -0.3424 H   0  0  0  0  0  0  0  0  0  0  0  0
    2.8428    0.8628    1.4499 H   0  0  0  0  0  0  0  0  0  0  0  0
  1  2  1  0
  2  3  1  0
  2  4  1  0
  4  5  1  0
  5  6  1  0
  2  7  1  0
  7  8  1  0
  8  9  1  0
  6  4  1  0
  9  7  1  0
  1 10  1  0
  1 11  1  0
  1 12  1  0
  3 13  1  0
  3 14  1  0
  3 15  1  0
  4 16  1  0
  5 17  1  0
  5 18  1  0
  7 19  1  0
  8 20  1  0
  8 21  1  0
M  END
