
     RDKit          3D

 23 23  0  0  0  0  0  0  0  0999 V2000
   -1.7252    1.5260    2.5346 C   0  0  0  0  0  0  0  0  0  0  0  0
   -0.7843    1.0614    1.4312 C   0  0  0  0  0  0  0  0  0  0  0  0
   -0.7621    2.1550    0.3939 C   0  0  0  0  0  0  0  0  0  0  0  0
   -1.3517   -0.2076    0.8954 C   0  0  0  0  0  0  0  0  0  0  0  0
   -0.5017   -0.7610   -0.2061 C   0  0  0  0  0  0  0  0  0  0  0  0
    0.1850   -1.1868   -1.0683 C   0  0  0  0  0  0  0  0  0  0  0  0
    1.0397   -1.6883   -2.1365 C   0  0  0  0  0  0  0  0  0  0  0  0
    2.1554   -2.5748   -1.7427 C   0  0  0  0  0  0  0  0  0  0  0  0
    2.4124   -1.1087   -2.1166 C   0  0  0  0  0  0  0  0  0  0  0  0
   -2.7411    1.6787    2.1763 H   0  0  0  0  0  0  0  0  0  0  0  0
   -1.6924    0.7987    3.3383 H   0  0  0  0  0  0  0  0  0  0  0  0
   -1.2869    2.4954    2.9165 H   0  0  0  0  0  0  0  0  0  0  0  0
    0.2429    0.9244    1.8140 H   0  0  0  0  0  0  0  0  0  0  0  0
   -0.7540    1.7043   -0.6283 H   0  0  0  0  0  0  0  0  0  0  0  0
    0.0817    2.8518    0.4814 H   0  0  0  0  0  0  0  0  0  0  0  0
   -1.7247    2.7286    0.4461 H   0  0  0  0  0  0  0  0  0  0  0  0
   -1.5017   -1.0104    1.6334 H   0  0  0  0  0  0  0  0  0  0  0  0
   -2.3719    0.0376    0.4794 H   0  0  0  0  0  0  0  0  0  0  0  0
    0.6169   -1.9051   -3.1519 H   0  0  0  0  0  0  0  0  0  0  0  0
    2.2802   -2.8985   -0.7064 H   0  0  0  0  0  0  0  0  0  0  0  0
    2.5425   -3.3160   -2.4990 H   0  0  0  0  0  0  0  0  0  0  0  0
    2.7292   -0.4601   -1.2398 H   0  0  0  0  0  0  0  0  0  0  0  0
    2.9118   -0.8446   -3.0451 H   0  0  0  0  0  0  0  0  0  0  0  0
  1  2  1  0
  2  3  1  0
  2  4  1  0
  4  5  1  0
  5  6  3  0
  6  7  1  0
  7  8  1  0
  8  9  1  0
  9  7  1  0
  1 10  1  0
  1 11  1  0
  1 12  1  0
  2 13  1  0
  3 14  1  0
  3 15  1  0
  3 16  1  0
  4 17  1  0
  4 18  1  0
  7 19  1  0
  8 20  1  0
  8 21  1  0
  9 22  1  0
  9 23  1  0
M  END
