
     RDKit          3D

 22 22  0  0  0  0  0  0  0  0999 V2000
   -2.7073   -0.4743   -0.5624 C   0  0  0  0  0  0  0  0  0  0  0  0
   -1.4274    0.0819   -0.0295 C   0  0  0  0  0  0  0  0  0  0  0  0
   -1.0255    1.3745   -0.6988 C   0  0  0  0  0  0  0  0  0  0  0  0
   -0.2665   -0.8975   -0.1711 C   0  0  0  0  0  0  0  0  0  0  0  0
    0.9496   -0.2181    0.3988 C   0  0  0  0  0  0  0  0  0  0  0  0
    2.2605   -0.9943    0.3779 C   0  0  0  0  0  0  0  0  0  0  0  0
    2.0741    0.2109   -0.4644 C   0  0  0  0  0  0  0  0  0  0  0  0
    2.7719    1.3737   -0.1150 O   0  0  0  0  0  0  0  0  0  0  0  0
   -2.6856   -1.5879   -0.5513 H   0  0  0  0  0  0  0  0  0  0  0  0
   -2.8800   -0.0832   -1.5844 H   0  0  0  0  0  0  0  0  0  0  0  0
   -3.5381   -0.0948    0.0700 H   0  0  0  0  0  0  0  0  0  0  0  0
   -1.5448    0.2426    1.0685 H   0  0  0  0  0  0  0  0  0  0  0  0
   -0.9033    2.1714    0.0757 H   0  0  0  0  0  0  0  0  0  0  0  0
   -1.8630    1.6895   -1.3547 H   0  0  0  0  0  0  0  0  0  0  0  0
   -0.0752    1.2504   -1.2910 H   0  0  0  0  0  0  0  0  0  0  0  0
   -0.1212   -1.1618   -1.2428 H   0  0  0  0  0  0  0  0  0  0  0  0
   -0.5445   -1.8173    0.3531 H   0  0  0  0  0  0  0  0  0  0  0  0
    0.7938    0.3994    1.3100 H   0  0  0  0  0  0  0  0  0  0  0  0
    2.2399   -1.9833   -0.0993 H   0  0  0  0  0  0  0  0  0  0  0  0
    2.8848   -0.9562    1.3085 H   0  0  0  0  0  0  0  0  0  0  0  0
    2.0616    0.0260   -1.5623 H   0  0  0  0  0  0  0  0  0  0  0  0
    3.5463    1.4486   -0.7468 H   0  0  0  0  0  0  0  0  0  0  0  0
  1  2  1  0
  2  3  1  0
  2  4  1  0
  4  5  1  0
  5  6  1  0
  6  7  1  0
  7  8  1  0
  7  5  1  0
  1  9  1  0
  1 10  1  0
  1 11  1  0
  2 12  1  0
  3 13  1  0
  3 14  1  0
  3 15  1  0
  4 16  1  0
  4 17  1  0
  5 18  1  0
  6 19  1  0
  6 20  1  0
  7 21  1  0
  8 22  1  0
M  END
