
     RDKit          3D

 21 21  0  0  0  0  0  0  0  0999 V2000
   -1.1865    1.2719   -0.4125 C   0  0  0  0  0  0  0  0  0  0  0  0
   -0.8177    0.1169    0.4678 C   0  0  0  0  0  0  0  0  0  0  0  0
   -2.1065   -0.6376    0.7993 C   0  0  0  0  0  0  0  0  0  0  0  0
    0.1198   -0.8610   -0.1679 C   0  0  0  0  0  0  0  0  0  0  0  0
    0.3805   -1.9059    0.7887 O   0  0  0  0  0  0  0  0  0  0  0  0
    1.3230   -1.0420    1.3235 C   0  0  0  0  0  0  0  0  0  0  0  0
    1.7792   -0.7500    2.4381 O   0  0  0  0  0  0  0  0  0  0  0  0
    1.5782   -0.5824   -0.0616 C   0  0  0  0  0  0  0  0  0  0  0  0
    2.0187    0.8398   -0.1929 C   0  0  0  0  0  0  0  0  0  0  0  0
   -1.9421    1.8757    0.1301 H   0  0  0  0  0  0  0  0  0  0  0  0
   -0.3677    1.9337   -0.6806 H   0  0  0  0  0  0  0  0  0  0  0  0
   -1.5924    0.8475   -1.3590 H   0  0  0  0  0  0  0  0  0  0  0  0
   -0.3773    0.4259    1.4352 H   0  0  0  0  0  0  0  0  0  0  0  0
   -2.9956   -0.1361    0.3676 H   0  0  0  0  0  0  0  0  0  0  0  0
   -2.2681   -0.7149    1.8901 H   0  0  0  0  0  0  0  0  0  0  0  0
   -2.0889   -1.6713    0.3981 H   0  0  0  0  0  0  0  0  0  0  0  0
   -0.2325   -1.2841   -1.1346 H   0  0  0  0  0  0  0  0  0  0  0  0
    2.1639   -1.2566   -0.6906 H   0  0  0  0  0  0  0  0  0  0  0  0
    1.6271    1.5141    0.5854 H   0  0  0  0  0  0  0  0  0  0  0  0
    3.1407    0.8390   -0.0639 H   0  0  0  0  0  0  0  0  0  0  0  0
    1.8443    1.1775   -1.2231 H   0  0  0  0  0  0  0  0  0  0  0  0
  1  2  1  0
  2  3  1  0
  2  4  1  0
  4  5  1  0
  5  6  1  0
  6  7  2  0
  6  8  1  0
  8  9  1  0
  8  4  1  0
  1 10  1  0
  1 11  1  0
  1 12  1  0
  2 13  1  0
  3 14  1  0
  3 15  1  0
  3 16  1  0
  4 17  1  0
  8 18  1  0
  9 19  1  0
  9 20  1  0
  9 21  1  0
M  END
