
     RDKit          3D

 29 28  0  0  0  0  0  0  0  0999 V2000
   -2.3810    0.1875   -0.3150 C   0  0  0  0  0  0  0  0  0  0  0  0
   -1.0986   -0.3345    0.3232 C   0  0  0  0  0  0  0  0  0  0  0  0
   -1.0931   -1.8045    0.2147 C   0  0  0  0  0  0  0  0  0  0  0  0
    0.0340    0.3918   -0.3154 C   0  0  0  0  0  0  0  0  0  0  0  0
    0.1241    0.1950   -1.7948 C   0  0  0  0  0  0  0  0  0  0  0  0
   -0.2497    1.8782   -0.0943 C   0  0  0  0  0  0  0  0  0  0  0  0
    1.3793    0.1543    0.3124 C   0  0  0  0  0  0  0  0  0  0  0  0
    1.4328    0.5655    1.7597 C   0  0  0  0  0  0  0  0  0  0  0  0
    1.9618   -1.1878    0.0385 C   0  0  0  0  0  0  0  0  0  0  0  0
   -2.8903    0.9359    0.3269 H   0  0  0  0  0  0  0  0  0  0  0  0
   -2.1779    0.6944   -1.2803 H   0  0  0  0  0  0  0  0  0  0  0  0
   -3.1133   -0.6463   -0.4446 H   0  0  0  0  0  0  0  0  0  0  0  0
   -1.1809   -0.0629    1.4039 H   0  0  0  0  0  0  0  0  0  0  0  0
   -0.6501   -2.3346    1.0917 H   0  0  0  0  0  0  0  0  0  0  0  0
   -2.1493   -2.1523    0.1843 H   0  0  0  0  0  0  0  0  0  0  0  0
   -0.6392   -2.1458   -0.7399 H   0  0  0  0  0  0  0  0  0  0  0  0
    1.2019    0.3462   -2.0921 H   0  0  0  0  0  0  0  0  0  0  0  0
   -0.4407    1.0059   -2.3417 H   0  0  0  0  0  0  0  0  0  0  0  0
   -0.2675   -0.7463   -2.1715 H   0  0  0  0  0  0  0  0  0  0  0  0
   -0.8748    2.2276   -0.9431 H   0  0  0  0  0  0  0  0  0  0  0  0
    0.7154    2.4289   -0.1708 H   0  0  0  0  0  0  0  0  0  0  0  0
   -0.6898    2.0681    0.8837 H   0  0  0  0  0  0  0  0  0  0  0  0
    2.0665    0.8818   -0.2228 H   0  0  0  0  0  0  0  0  0  0  0  0
    2.2066    1.3314    1.9779 H   0  0  0  0  0  0  0  0  0  0  0  0
    1.7415   -0.3325    2.3678 H   0  0  0  0  0  0  0  0  0  0  0  0
    0.4816    0.9714    2.1419 H   0  0  0  0  0  0  0  0  0  0  0  0
    1.7699   -1.4588   -0.9998 H   0  0  0  0  0  0  0  0  0  0  0  0
    3.0850   -1.0878    0.1293 H   0  0  0  0  0  0  0  0  0  0  0  0
    1.6957   -1.9700    0.7701 H   0  0  0  0  0  0  0  0  0  0  0  0
  1  2  1  0
  2  3  1  0
  2  4  1  0
  4  5  1  0
  4  6  1  0
  4  7  1  0
  7  8  1  0
  7  9  1  0
  1 10  1  0
  1 11  1  0
  1 12  1  0
  2 13  1  0
  3 14  1  0
  3 15  1  0
  3 16  1  0
  5 17  1  0
  5 18  1  0
  5 19  1  0
  6 20  1  0
  6 21  1  0
  6 22  1  0
  7 23  1  0
  8 24  1  0
  8 25  1  0
  8 26  1  0
  9 27  1  0
  9 28  1  0
  9 29  1  0
M  END
