
     RDKit          3D

 21 23  0  0  0  0  0  0  0  0999 V2000
   -1.7812   -1.2325   -0.3524 C   0  0  0  0  0  0  0  0  0  0  0  0
   -1.0866   -0.0787    0.2982 C   0  0  0  0  0  0  0  0  0  0  0  0
   -2.0710    1.0626    0.5245 C   0  0  0  0  0  0  0  0  0  0  0  0
    0.0848    0.4335   -0.5547 C   0  0  0  0  0  0  0  0  0  0  0  0
    1.1995   -0.4132   -0.9047 C   0  0  0  0  0  0  0  0  0  0  0  0
    2.6647   -0.0699   -0.9167 C   0  0  0  0  0  0  0  0  0  0  0  0
    3.5633   -0.3708    0.0238 O   0  0  0  0  0  0  0  0  0  0  0  0
    2.3794   -0.1761    0.6120 C   0  0  0  0  0  0  0  0  0  0  0  0
    1.2872    0.7582    0.1581 C   0  0  0  0  0  0  0  0  0  0  0  0
   -1.9780   -1.1065   -1.4231 H   0  0  0  0  0  0  0  0  0  0  0  0
   -2.7926   -1.3183    0.1378 H   0  0  0  0  0  0  0  0  0  0  0  0
   -1.2850   -2.2121   -0.1227 H   0  0  0  0  0  0  0  0  0  0  0  0
   -0.7338   -0.3945    1.2941 H   0  0  0  0  0  0  0  0  0  0  0  0
   -1.5259    1.8168    1.1300 H   0  0  0  0  0  0  0  0  0  0  0  0
   -2.9511    0.6649    1.0219 H   0  0  0  0  0  0  0  0  0  0  0  0
   -2.2817    1.4727   -0.5038 H   0  0  0  0  0  0  0  0  0  0  0  0
   -0.3110    1.0843   -1.3872 H   0  0  0  0  0  0  0  0  0  0  0  0
    1.0973   -1.4462   -0.4494 H   0  0  0  0  0  0  0  0  0  0  0  0
    2.8119    0.9731   -1.3157 H   0  0  0  0  0  0  0  0  0  0  0  0
    1.9225   -1.1463    0.9604 H   0  0  0  0  0  0  0  0  0  0  0  0
    1.7873    1.6992   -0.2303 H   0  0  0  0  0  0  0  0  0  0  0  0
  1  2  1  0
  2  3  1  0
  2  4  1  0
  4  5  1  0
  5  6  1  0
  6  7  1  0
  7  8  1  0
  8  9  1  0
  9  4  1  0
  9  5  1  0
  8  6  1  0
  1 10  1  0
  1 11  1  0
  1 12  1  0
  2 13  1  0
  3 14  1  0
  3 15  1  0
  3 16  1  0
  4 17  1  0
  5 18  1  0
  6 19  1  0
  8 20  1  0
  9 21  1  0
M  END
