
     RDKit          3D

 23 24  0  0  0  0  0  0  0  0999 V2000
    2.5679    0.7327    0.2693 C   0  0  0  0  0  0  0  0  0  0  0  0
    1.4944    0.0771   -0.5585 C   0  0  0  0  0  0  0  0  0  0  0  0
    2.0752   -1.1571   -1.2092 C   0  0  0  0  0  0  0  0  0  0  0  0
    0.3974   -0.3057    0.1944 O   0  0  0  0  0  0  0  0  0  0  0  0
   -0.7611    0.3266   -0.1735 C   0  0  0  0  0  0  0  0  0  0  0  0
   -1.9680   -0.5729   -0.1811 C   0  0  0  0  0  0  0  0  0  0  0  0
   -2.7561    0.6731    0.1392 C   0  0  0  0  0  0  0  0  0  0  0  0
   -1.5498    0.7693    1.0310 C   0  0  0  0  0  0  0  0  0  0  0  0
   -1.7641   -0.6940    1.2979 C   0  0  0  0  0  0  0  0  0  0  0  0
    2.4673    1.8318    0.3121 H   0  0  0  0  0  0  0  0  0  0  0  0
    2.6417    0.2996    1.2895 H   0  0  0  0  0  0  0  0  0  0  0  0
    3.5353    0.5182   -0.2372 H   0  0  0  0  0  0  0  0  0  0  0  0
    1.1494    0.8291   -1.3004 H   0  0  0  0  0  0  0  0  0  0  0  0
    3.1768   -1.2452   -1.0086 H   0  0  0  0  0  0  0  0  0  0  0  0
    1.5842   -2.0853   -0.8642 H   0  0  0  0  0  0  0  0  0  0  0  0
    1.8830   -1.0507   -2.3062 H   0  0  0  0  0  0  0  0  0  0  0  0
   -0.7167    1.0489   -0.9970 H   0  0  0  0  0  0  0  0  0  0  0  0
   -2.1982   -1.2836   -0.8402 H   0  0  0  0  0  0  0  0  0  0  0  0
   -2.7374    1.4522   -0.6398 H   0  0  0  0  0  0  0  0  0  0  0  0
   -3.7183    0.5139    0.6462 H   0  0  0  0  0  0  0  0  0  0  0  0
   -1.3207    1.4880    1.6812 H   0  0  0  0  0  0  0  0  0  0  0  0
   -2.6417   -0.9644    1.8947 H   0  0  0  0  0  0  0  0  0  0  0  0
   -0.8408   -1.2017    1.5604 H   0  0  0  0  0  0  0  0  0  0  0  0
  1  2  1  0
  2  3  1  0
  2  4  1  0
  4  5  1  0
  5  6  1  0
  6  7  1  0
  7  8  1  0
  8  9  1  0
  8  5  1  0
  9  6  1  0
  1 10  1  0
  1 11  1  0
  1 12  1  0
  2 13  1  0
  3 14  1  0
  3 15  1  0
  3 16  1  0
  5 17  1  0
  6 18  1  0
  7 19  1  0
  7 20  1  0
  8 21  1  0
  9 22  1  0
  9 23  1  0
M  END
