
     RDKit          3D

 27 27  0  0  0  0  0  0  0  0999 V2000
    1.4627    1.3824    0.7810 C   0  0  0  0  0  0  0  0  0  0  0  0
    1.5196    0.1069    0.0101 C   0  0  0  0  0  0  0  0  0  0  0  0
    2.5984   -0.7723    0.6587 C   0  0  0  0  0  0  0  0  0  0  0  0
    0.2049   -0.6238   -0.0662 C   0  0  0  0  0  0  0  0  0  0  0  0
    0.4044   -1.8676   -0.8576 C   0  0  0  0  0  0  0  0  0  0  0  0
   -0.8975    0.2508   -0.5322 C   0  0  0  0  0  0  0  0  0  0  0  0
   -2.2662   -0.3719   -0.6506 C   0  0  0  0  0  0  0  0  0  0  0  0
   -2.7775    1.0280   -0.3595 C   0  0  0  0  0  0  0  0  0  0  0  0
   -1.5362    1.1375    0.5459 C   0  0  0  0  0  0  0  0  0  0  0  0
    1.2102    2.2668    0.1624 H   0  0  0  0  0  0  0  0  0  0  0  0
    0.8328    1.3137    1.7053 H   0  0  0  0  0  0  0  0  0  0  0  0
    2.4970    1.5837    1.1608 H   0  0  0  0  0  0  0  0  0  0  0  0
    1.9257    0.3476   -1.0019 H   0  0  0  0  0  0  0  0  0  0  0  0
    3.5768   -0.2711    0.5122 H   0  0  0  0  0  0  0  0  0  0  0  0
    2.5221   -1.7636    0.2193 H   0  0  0  0  0  0  0  0  0  0  0  0
    2.3520   -0.7634    1.7570 H   0  0  0  0  0  0  0  0  0  0  0  0
   -0.0359   -0.9317    0.9938 H   0  0  0  0  0  0  0  0  0  0  0  0
   -0.5009   -2.2376   -1.3704 H   0  0  0  0  0  0  0  0  0  0  0  0
    0.7476   -2.6832   -0.1891 H   0  0  0  0  0  0  0  0  0  0  0  0
    1.2037   -1.7639   -1.6388 H   0  0  0  0  0  0  0  0  0  0  0  0
   -0.7058    0.8907   -1.4121 H   0  0  0  0  0  0  0  0  0  0  0  0
   -2.4822   -0.7504   -1.6639 H   0  0  0  0  0  0  0  0  0  0  0  0
   -2.5788   -1.0206    0.1847 H   0  0  0  0  0  0  0  0  0  0  0  0
   -3.7270    1.0801    0.1822 H   0  0  0  0  0  0  0  0  0  0  0  0
   -2.6545    1.6747   -1.2396 H   0  0  0  0  0  0  0  0  0  0  0  0
   -1.1392    2.1456    0.6201 H   0  0  0  0  0  0  0  0  0  0  0  0
   -1.7562    0.6126    1.4882 H   0  0  0  0  0  0  0  0  0  0  0  0
  1  2  1  0
  2  3  1  0
  2  4  1  0
  4  5  1  0
  4  6  1  0
  6  7  1  0
  7  8  1  0
  8  9  1  0
  9  6  1  0
  1 10  1  0
  1 11  1  0
  1 12  1  0
  2 13  1  0
  3 14  1  0
  3 15  1  0
  3 16  1  0
  4 17  1  0
  5 18  1  0
  5 19  1  0
  5 20  1  0
  6 21  1  0
  7 22  1  0
  7 23  1  0
  8 24  1  0
  8 25  1  0
  9 26  1  0
  9 27  1  0
M  END
