
     RDKit          3D

 19 18  0  0  0  0  0  0  0  0999 V2000
   -2.4857   -0.2709    0.5286 C   0  0  0  0  0  0  0  0  0  0  0  0
   -1.0656    0.1758    0.3608 C   0  0  0  0  0  0  0  0  0  0  0  0
   -0.9724    1.2943   -0.5924 C   0  0  0  0  0  0  0  0  0  0  0  0
   -1.6534    1.2835   -1.5997 O   0  0  0  0  0  0  0  0  0  0  0  0
   -0.1732   -0.9470   -0.1311 C   0  0  0  0  0  0  0  0  0  0  0  0
    1.2557   -0.4937   -0.2989 C   0  0  0  0  0  0  0  0  0  0  0  0
    1.8020   -0.0293    0.9255 O   0  0  0  0  0  0  0  0  0  0  0  0
    3.1006    0.4391    1.0224 C   0  0  0  0  0  0  0  0  0  0  0  0
    3.8074    0.4476   -0.0156 O   0  0  0  0  0  0  0  0  0  0  0  0
   -3.1176    0.6618    0.5955 H   0  0  0  0  0  0  0  0  0  0  0  0
   -2.8623   -0.8979   -0.2933 H   0  0  0  0  0  0  0  0  0  0  0  0
   -2.6521   -0.8123    1.4686 H   0  0  0  0  0  0  0  0  0  0  0  0
   -0.6851    0.4433    1.3791 H   0  0  0  0  0  0  0  0  0  0  0  0
   -0.2981    2.1134   -0.3845 H   0  0  0  0  0  0  0  0  0  0  0  0
   -0.1673   -1.8049    0.5725 H   0  0  0  0  0  0  0  0  0  0  0  0
   -0.5475   -1.2221   -1.1389 H   0  0  0  0  0  0  0  0  0  0  0  0
    1.8428   -1.3958   -0.5868 H   0  0  0  0  0  0  0  0  0  0  0  0
    1.3827    0.2290   -1.1228 H   0  0  0  0  0  0  0  0  0  0  0  0
    3.4893    0.7862    1.9671 H   0  0  0  0  0  0  0  0  0  0  0  0
  1  2  1  0
  2  3  1  0
  3  4  2  0
  2  5  1  0
  5  6  1  0
  6  7  1  0
  7  8  1  0
  8  9  2  0
  1 10  1  0
  1 11  1  0
  1 12  1  0
  2 13  1  0
  3 14  1  0
  5 15  1  0
  5 16  1  0
  6 17  1  0
  6 18  1  0
  8 19  1  0
M  END
