
     RDKit          3D

 21 21  0  0  0  0  0  0  0  0999 V2000
   -2.2574    1.2780   -0.2116 C   0  0  0  0  0  0  0  0  0  0  0  0
   -1.2510    0.2707   -0.7552 C   0  0  0  0  0  0  0  0  0  0  0  0
   -1.8623   -1.0755   -0.5667 C   0  0  0  0  0  0  0  0  0  0  0  0
   -2.2324   -1.7453   -1.5164 O   0  0  0  0  0  0  0  0  0  0  0  0
   -0.0211    0.3763    0.1137 C   0  0  0  0  0  0  0  0  0  0  0  0
    1.0196   -0.5958   -0.3686 C   0  0  0  0  0  0  0  0  0  0  0  0
    2.2907   -0.5306    0.4788 C   0  0  0  0  0  0  0  0  0  0  0  0
    2.6099    0.6303   -0.2658 O   0  0  0  0  0  0  0  0  0  0  0  0
    2.0116   -0.0324   -1.3627 C   0  0  0  0  0  0  0  0  0  0  0  0
   -1.8257    2.2770   -0.2779 H   0  0  0  0  0  0  0  0  0  0  0  0
   -3.2250    1.2141   -0.7376 H   0  0  0  0  0  0  0  0  0  0  0  0
   -2.4183    1.0184    0.8519 H   0  0  0  0  0  0  0  0  0  0  0  0
   -1.0006    0.4684   -1.8031 H   0  0  0  0  0  0  0  0  0  0  0  0
   -1.9921   -1.4888    0.4080 H   0  0  0  0  0  0  0  0  0  0  0  0
    0.3755    1.3963    0.1773 H   0  0  0  0  0  0  0  0  0  0  0  0
   -0.3180    0.0641    1.1317 H   0  0  0  0  0  0  0  0  0  0  0  0
    0.6542   -1.5907   -0.5878 H   0  0  0  0  0  0  0  0  0  0  0  0
    2.1380   -0.3716    1.5435 H   0  0  0  0  0  0  0  0  0  0  0  0
    2.9885   -1.3327    0.1704 H   0  0  0  0  0  0  0  0  0  0  0  0
    2.7049   -0.8434   -1.6751 H   0  0  0  0  0  0  0  0  0  0  0  0
    1.6110    0.6132   -2.1369 H   0  0  0  0  0  0  0  0  0  0  0  0
  1  2  1  0
  2  3  1  0
  3  4  2  0
  2  5  1  0
  5  6  1  0
  6  7  1  0
  7  8  1  0
  8  9  1  0
  9  6  1  0
  1 10  1  0
  1 11  1  0
  1 12  1  0
  2 13  1  0
  3 14  1  0
  5 15  1  0
  5 16  1  0
  6 17  1  0
  7 18  1  0
  7 19  1  0
  9 20  1  0
  9 21  1  0
M  END
