
     RDKit          3D

 24 24  0  0  0  0  0  0  0  0999 V2000
   -1.6446   -0.8540   -0.6381 C   0  0  0  0  0  0  0  0  0  0  0  0
   -1.5096    0.2499    0.3661 C   0  0  0  0  0  0  0  0  0  0  0  0
   -2.5229    0.0299    1.4740 C   0  0  0  0  0  0  0  0  0  0  0  0
   -0.1158    0.3276    0.9182 C   0  0  0  0  0  0  0  0  0  0  0  0
    0.8532    0.5869   -0.1828 C   0  0  0  0  0  0  0  0  0  0  0  0
    2.3070    0.7092    0.2693 C   0  0  0  0  0  0  0  0  0  0  0  0
    2.6583    0.0778   -1.0808 C   0  0  0  0  0  0  0  0  0  0  0  0
    1.3030   -0.6517   -0.9722 C   0  0  0  0  0  0  0  0  0  0  0  0
   -1.0001   -1.7322   -0.4591 H   0  0  0  0  0  0  0  0  0  0  0  0
   -2.7359   -1.1621   -0.6043 H   0  0  0  0  0  0  0  0  0  0  0  0
   -1.5199   -0.4406   -1.6818 H   0  0  0  0  0  0  0  0  0  0  0  0
   -1.8153    1.2182   -0.1216 H   0  0  0  0  0  0  0  0  0  0  0  0
   -2.3786   -0.9511    1.9677 H   0  0  0  0  0  0  0  0  0  0  0  0
   -2.5302    0.8467    2.2006 H   0  0  0  0  0  0  0  0  0  0  0  0
   -3.5307    0.0590    0.9675 H   0  0  0  0  0  0  0  0  0  0  0  0
    0.0996   -0.5873    1.4949 H   0  0  0  0  0  0  0  0  0  0  0  0
   -0.0116    1.1863    1.6444 H   0  0  0  0  0  0  0  0  0  0  0  0
    0.5930    1.4153   -0.8651 H   0  0  0  0  0  0  0  0  0  0  0  0
    2.5931    0.0743    1.1060 H   0  0  0  0  0  0  0  0  0  0  0  0
    2.6628    1.7391    0.4001 H   0  0  0  0  0  0  0  0  0  0  0  0
    2.5999    0.8034   -1.8912 H   0  0  0  0  0  0  0  0  0  0  0  0
    3.4814   -0.6346   -1.0620 H   0  0  0  0  0  0  0  0  0  0  0  0
    1.3518   -1.5504   -0.3474 H   0  0  0  0  0  0  0  0  0  0  0  0
    0.8121   -0.7595   -1.9540 H   0  0  0  0  0  0  0  0  0  0  0  0
  1  2  1  0
  2  3  1  0
  2  4  1  0
  4  5  1  0
  5  6  1  0
  6  7  1  0
  7  8  1  0
  8  5  1  0
  1  9  1  0
  1 10  1  0
  1 11  1  0
  2 12  1  0
  3 13  1  0
  3 14  1  0
  3 15  1  0
  4 16  1  0
  4 17  1  0
  5 18  1  0
  6 19  1  0
  6 20  1  0
  7 21  1  0
  7 22  1  0
  8 23  1  0
  8 24  1  0
M  END
