
     RDKit          3D

 27 26  0  0  0  0  0  0  0  0999 V2000
    0.0677    2.0343   -0.4357 C   0  0  0  0  0  0  0  0  0  0  0  0
    0.1629    0.7257    0.3831 C   0  0  0  0  0  0  0  0  0  0  0  0
    1.5759    0.3083    0.3097 C   0  0  0  0  0  0  0  0  0  0  0  0
    1.9789   -0.9354    1.0129 C   0  0  0  0  0  0  0  0  0  0  0  0
    3.3800   -1.0742    0.7886 O   0  0  0  0  0  0  0  0  0  0  0  0
   -0.8863   -0.1929   -0.0987 C   0  0  0  0  0  0  0  0  0  0  0  0
   -0.9706   -1.5280    0.5884 C   0  0  0  0  0  0  0  0  0  0  0  0
   -2.2312    0.5164    0.1436 C   0  0  0  0  0  0  0  0  0  0  0  0
   -0.8434   -0.4510   -1.5879 C   0  0  0  0  0  0  0  0  0  0  0  0
   -0.1817    1.8040   -1.4971 H   0  0  0  0  0  0  0  0  0  0  0  0
    1.0497    2.5518   -0.4466 H   0  0  0  0  0  0  0  0  0  0  0  0
   -0.6552    2.7290    0.0220 H   0  0  0  0  0  0  0  0  0  0  0  0
   -0.0706    1.0277    1.4247 H   0  0  0  0  0  0  0  0  0  0  0  0
    1.9872    0.2908   -0.7375 H   0  0  0  0  0  0  0  0  0  0  0  0
    2.1741    1.1427    0.7905 H   0  0  0  0  0  0  0  0  0  0  0  0
    1.5791   -1.8697    0.5612 H   0  0  0  0  0  0  0  0  0  0  0  0
    1.8653   -0.8839    2.1040 H   0  0  0  0  0  0  0  0  0  0  0  0
    3.5086   -0.9050   -0.1761 H   0  0  0  0  0  0  0  0  0  0  0  0
   -0.6393   -2.3781   -0.0740 H   0  0  0  0  0  0  0  0  0  0  0  0
   -0.5288   -1.5296    1.5825 H   0  0  0  0  0  0  0  0  0  0  0  0
   -2.0634   -1.7922    0.7578 H   0  0  0  0  0  0  0  0  0  0  0  0
   -3.0310   -0.2460    0.3123 H   0  0  0  0  0  0  0  0  0  0  0  0
   -2.1820    1.1354    1.0433 H   0  0  0  0  0  0  0  0  0  0  0  0
   -2.5396    1.0881   -0.7652 H   0  0  0  0  0  0  0  0  0  0  0  0
   -1.1064   -1.5079   -1.8285 H   0  0  0  0  0  0  0  0  0  0  0  0
    0.1575   -0.2420   -2.0215 H   0  0  0  0  0  0  0  0  0  0  0  0
   -1.5574    0.1817   -2.1559 H   0  0  0  0  0  0  0  0  0  0  0  0
  1  2  1  0
  2  3  1  0
  3  4  1  0
  4  5  1  0
  2  6  1  0
  6  7  1  0
  6  8  1  0
  6  9  1  0
  1 10  1  0
  1 11  1  0
  1 12  1  0
  2 13  1  0
  3 14  1  0
  3 15  1  0
  4 16  1  0
  4 17  1  0
  5 18  1  0
  7 19  1  0
  7 20  1  0
  7 21  1  0
  8 22  1  0
  8 23  1  0
  8 24  1  0
  9 25  1  0
  9 26  1  0
  9 27  1  0
M  END
