
     RDKit          3D

 23 23  0  0  0  0  0  0  0  0999 V2000
   -1.7517    1.1915    0.9859 C   0  0  0  0  0  0  0  0  0  0  0  0
   -1.3526   -0.1695    0.5120 C   0  0  0  0  0  0  0  0  0  0  0  0
   -1.8458   -0.4621   -0.8854 C   0  0  0  0  0  0  0  0  0  0  0  0
    0.1024   -0.4801    0.6897 C   0  0  0  0  0  0  0  0  0  0  0  0
    0.3879   -1.7579    0.2255 O   0  0  0  0  0  0  0  0  0  0  0  0
    1.2997   -1.2923   -0.7373 C   0  0  0  0  0  0  0  0  0  0  0  0
    1.0719    0.1203   -0.2463 C   0  0  0  0  0  0  0  0  0  0  0  0
    2.3306    0.6259    0.4462 C   0  0  0  0  0  0  0  0  0  0  0  0
    0.6012    0.9316   -1.2535 O   0  0  0  0  0  0  0  0  0  0  0  0
   -1.7084    1.2423    2.0924 H   0  0  0  0  0  0  0  0  0  0  0  0
   -2.8190    1.3344    0.7092 H   0  0  0  0  0  0  0  0  0  0  0  0
   -1.1748    2.0145    0.5293 H   0  0  0  0  0  0  0  0  0  0  0  0
   -1.9031   -0.9034    1.1756 H   0  0  0  0  0  0  0  0  0  0  0  0
   -2.9569   -0.6452   -0.7978 H   0  0  0  0  0  0  0  0  0  0  0  0
   -1.6249    0.3215   -1.6111 H   0  0  0  0  0  0  0  0  0  0  0  0
   -1.4129   -1.4631   -1.1615 H   0  0  0  0  0  0  0  0  0  0  0  0
    0.4261   -0.4010    1.7473 H   0  0  0  0  0  0  0  0  0  0  0  0
    0.9118   -1.4996   -1.7557 H   0  0  0  0  0  0  0  0  0  0  0  0
    2.3284   -1.6825   -0.5750 H   0  0  0  0  0  0  0  0  0  0  0  0
    2.5095    1.6989    0.2574 H   0  0  0  0  0  0  0  0  0  0  0  0
    2.2011    0.5199    1.5437 H   0  0  0  0  0  0  0  0  0  0  0  0
    3.2205    0.0024    0.1824 H   0  0  0  0  0  0  0  0  0  0  0  0
    1.1589    0.7535   -2.0730 H   0  0  0  0  0  0  0  0  0  0  0  0
  1  2  1  0
  2  3  1  0
  2  4  1  0
  4  5  1  0
  5  6  1  0
  6  7  1  0
  7  8  1  0
  7  9  1  0
  7  4  1  0
  1 10  1  0
  1 11  1  0
  1 12  1  0
  2 13  1  0
  3 14  1  0
  3 15  1  0
  3 16  1  0
  4 17  1  0
  6 18  1  0
  6 19  1  0
  8 20  1  0
  8 21  1  0
  8 22  1  0
  9 23  1  0
M  END
