
     RDKit          3D

 25 24  0  0  0  0  0  0  0  0999 V2000
   -2.1667    0.0935   -0.9280 C   0  0  0  0  0  0  0  0  0  0  0  0
   -1.0865    0.4978    0.0398 C   0  0  0  0  0  0  0  0  0  0  0  0
   -1.7602    0.7693    1.3875 C   0  0  0  0  0  0  0  0  0  0  0  0
   -0.0213   -0.5771    0.1951 C   0  0  0  0  0  0  0  0  0  0  0  0
   -0.6376   -1.8361    0.7007 C   0  0  0  0  0  0  0  0  0  0  0  0
    0.6341   -0.6824   -0.9963 O   0  0  0  0  0  0  0  0  0  0  0  0
    1.9579   -0.3236   -0.9833 C   0  0  0  0  0  0  0  0  0  0  0  0
    2.2191    1.0917   -0.5769 C   0  0  0  0  0  0  0  0  0  0  0  0
    3.6225    1.2693   -0.6241 O   0  0  0  0  0  0  0  0  0  0  0  0
   -2.7542    1.0200   -1.1509 H   0  0  0  0  0  0  0  0  0  0  0  0
   -2.8918   -0.6104   -0.4621 H   0  0  0  0  0  0  0  0  0  0  0  0
   -1.7846   -0.2679   -1.8913 H   0  0  0  0  0  0  0  0  0  0  0  0
   -0.6609    1.4515   -0.3172 H   0  0  0  0  0  0  0  0  0  0  0  0
   -0.9360    0.7178    2.1476 H   0  0  0  0  0  0  0  0  0  0  0  0
   -2.4239   -0.0963    1.5920 H   0  0  0  0  0  0  0  0  0  0  0  0
   -2.2661    1.7372    1.3924 H   0  0  0  0  0  0  0  0  0  0  0  0
    0.6821   -0.2055    0.9678 H   0  0  0  0  0  0  0  0  0  0  0  0
    0.0862   -2.6710    0.5959 H   0  0  0  0  0  0  0  0  0  0  0  0
   -0.8797   -1.7123    1.7618 H   0  0  0  0  0  0  0  0  0  0  0  0
   -1.5566   -2.1331    0.1579 H   0  0  0  0  0  0  0  0  0  0  0  0
    2.5827   -0.9821   -0.3287 H   0  0  0  0  0  0  0  0  0  0  0  0
    2.3584   -0.4639   -2.0091 H   0  0  0  0  0  0  0  0  0  0  0  0
    1.9245    1.3277    0.4510 H   0  0  0  0  0  0  0  0  0  0  0  0
    1.8115    1.7854   -1.3312 H   0  0  0  0  0  0  0  0  0  0  0  0
    3.9470    0.8004    0.2098 H   0  0  0  0  0  0  0  0  0  0  0  0
  1  2  1  0
  2  3  1  0
  2  4  1  0
  4  5  1  0
  4  6  1  0
  6  7  1  0
  7  8  1  0
  8  9  1  0
  1 10  1  0
  1 11  1  0
  1 12  1  0
  2 13  1  0
  3 14  1  0
  3 15  1  0
  3 16  1  0
  4 17  1  0
  5 18  1  0
  5 19  1  0
  5 20  1  0
  7 21  1  0
  7 22  1  0
  8 23  1  0
  8 24  1  0
  9 25  1  0
M  END
