
     RDKit          3D

 15 14  0  0  0  0  0  0  0  0999 V2000
   -1.3969   -0.4699    0.6620 C   0  0  0  0  0  0  0  0  0  0  0  0
   -0.4333    0.3753   -0.1186 C   0  0  0  0  0  0  0  0  0  0  0  0
   -0.1463    1.6551    0.5517 C   0  0  0  0  0  0  0  0  0  0  0  0
   -0.0577    2.7245   -0.0402 O   0  0  0  0  0  0  0  0  0  0  0  0
    0.8067   -0.4362   -0.3887 C   0  0  0  0  0  0  0  0  0  0  0  0
    1.4775   -0.8822    0.8519 C   0  0  0  0  0  0  0  0  0  0  0  0
    2.1600   -0.1188    1.5082 O   0  0  0  0  0  0  0  0  0  0  0  0
   -0.9561   -1.4618    0.9176 H   0  0  0  0  0  0  0  0  0  0  0  0
   -2.3132   -0.7066    0.0647 H   0  0  0  0  0  0  0  0  0  0  0  0
   -1.7220    0.0209    1.6027 H   0  0  0  0  0  0  0  0  0  0  0  0
   -0.8933    0.6057   -1.1021 H   0  0  0  0  0  0  0  0  0  0  0  0
    0.0040    1.7080    1.6336 H   0  0  0  0  0  0  0  0  0  0  0  0
    0.5523   -1.2909   -1.0479 H   0  0  0  0  0  0  0  0  0  0  0  0
    1.5433    0.1769   -0.9839 H   0  0  0  0  0  0  0  0  0  0  0  0
    1.3750   -1.9000    1.2030 H   0  0  0  0  0  0  0  0  0  0  0  0
  1  2  1  0
  2  3  1  0
  3  4  2  0
  2  5  1  0
  5  6  1  0
  6  7  2  0
  1  8  1  0
  1  9  1  0
  1 10  1  0
  2 11  1  0
  3 12  1  0
  5 13  1  0
  5 14  1  0
  6 15  1  0
M  END
