
     RDKit          3D

 15 14  0  0  0  0  0  0  0  0999 V2000
   -0.0644    1.3624   -0.1789 C   0  0  0  0  0  0  0  0  0  0  0  0
   -0.1115   -0.0469    0.3588 C   0  0  0  0  0  0  0  0  0  0  0  0
   -1.4910   -0.5910    0.0792 C   0  0  0  0  0  0  0  0  0  0  0  0
    0.9695   -0.8332   -0.3481 C   0  0  0  0  0  0  0  0  0  0  0  0
    2.1821   -0.2046   -0.0529 O   0  0  0  0  0  0  0  0  0  0  0  0
   -1.0115    1.6527   -0.6906 H   0  0  0  0  0  0  0  0  0  0  0  0
    0.0781    2.0350    0.7171 H   0  0  0  0  0  0  0  0  0  0  0  0
    0.7393    1.5107   -0.9235 H   0  0  0  0  0  0  0  0  0  0  0  0
    0.1039   -0.1073    1.4430 H   0  0  0  0  0  0  0  0  0  0  0  0
   -1.7119   -0.3577   -0.9887 H   0  0  0  0  0  0  0  0  0  0  0  0
   -1.6167   -1.6445    0.3336 H   0  0  0  0  0  0  0  0  0  0  0  0
   -2.2014    0.0163    0.6775 H   0  0  0  0  0  0  0  0  0  0  0  0
    0.8698   -0.8304   -1.4397 H   0  0  0  0  0  0  0  0  0  0  0  0
    1.0579   -1.8664    0.0802 H   0  0  0  0  0  0  0  0  0  0  0  0
    2.2078   -0.0951    0.9328 H   0  0  0  0  0  0  0  0  0  0  0  0
  1  2  1  0
  2  3  1  0
  2  4  1  0
  4  5  1  0
  1  6  1  0
  1  7  1  0
  1  8  1  0
  2  9  1  0
  3 10  1  0
  3 11  1  0
  3 12  1  0
  4 13  1  0
  4 14  1  0
  5 15  1  0
M  END
