
     RDKit          3D

 22 21  0  0  0  0  0  0  0  0999 V2000
   -1.4505    1.7658   -0.3824 C   0  0  0  0  0  0  0  0  0  0  0  0
   -0.7506    0.4927    0.1234 C   0  0  0  0  0  0  0  0  0  0  0  0
   -1.8315   -0.5434    0.2349 C   0  0  0  0  0  0  0  0  0  0  0  0
   -0.2379    0.7791    1.3906 O   0  0  0  0  0  0  0  0  0  0  0  0
    0.3001    0.1717   -0.8769 C   0  0  0  0  0  0  0  0  0  0  0  0
    1.1169   -1.0457   -0.5913 C   0  0  0  0  0  0  0  0  0  0  0  0
    1.8803   -1.0074    0.6971 C   0  0  0  0  0  0  0  0  0  0  0  0
    2.7750    0.0594    0.7337 O   0  0  0  0  0  0  0  0  0  0  0  0
   -0.7704    2.6093   -0.2415 H   0  0  0  0  0  0  0  0  0  0  0  0
   -2.4171    1.8809    0.1391 H   0  0  0  0  0  0  0  0  0  0  0  0
   -1.6983    1.5902   -1.4614 H   0  0  0  0  0  0  0  0  0  0  0  0
   -2.1645   -0.8916   -0.7523 H   0  0  0  0  0  0  0  0  0  0  0  0
   -2.7253   -0.1076    0.7336 H   0  0  0  0  0  0  0  0  0  0  0  0
   -1.5213   -1.3968    0.8991 H   0  0  0  0  0  0  0  0  0  0  0  0
   -0.7108    0.3221    2.1087 H   0  0  0  0  0  0  0  0  0  0  0  0
    1.0240    1.0382   -0.9006 H   0  0  0  0  0  0  0  0  0  0  0  0
   -0.1962    0.0628   -1.8691 H   0  0  0  0  0  0  0  0  0  0  0  0
    1.8952   -1.0938   -1.4104 H   0  0  0  0  0  0  0  0  0  0  0  0
    0.5410   -1.9883   -0.7147 H   0  0  0  0  0  0  0  0  0  0  0  0
    2.5469   -1.9212    0.7092 H   0  0  0  0  0  0  0  0  0  0  0  0
    1.2204   -1.0137    1.5685 H   0  0  0  0  0  0  0  0  0  0  0  0
    3.1746    0.2371   -0.1374 H   0  0  0  0  0  0  0  0  0  0  0  0
  1  2  1  0
  2  3  1  0
  2  4  1  0
  2  5  1  0
  5  6  1  0
  6  7  1  0
  7  8  1  0
  1  9  1  0
  1 10  1  0
  1 11  1  0
  3 12  1  0
  3 13  1  0
  3 14  1  0
  4 15  1  0
  5 16  1  0
  5 17  1  0
  6 18  1  0
  6 19  1  0
  7 20  1  0
  7 21  1  0
  8 22  1  0
M  END
