
     RDKit          3D

 23 22  0  0  0  0  0  0  0  0999 V2000
    2.1916    0.1219    1.1271 C   0  0  0  0  0  0  0  0  0  0  0  0
    1.3408    0.0431   -0.1481 C   0  0  0  0  0  0  0  0  0  0  0  0
    2.2418   -0.4987   -1.2019 C   0  0  0  0  0  0  0  0  0  0  0  0
    3.2461    0.0879   -1.5576 O   0  0  0  0  0  0  0  0  0  0  0  0
    0.2676   -0.7601    0.1107 O   0  0  0  0  0  0  0  0  0  0  0  0
   -0.9620   -0.1042    0.0229 C   0  0  0  0  0  0  0  0  0  0  0  0
   -2.0764   -1.1082    0.3376 C   0  0  0  0  0  0  0  0  0  0  0  0
   -1.1528    0.3001   -1.4139 C   0  0  0  0  0  0  0  0  0  0  0  0
   -1.1021    1.0263    0.9874 C   0  0  0  0  0  0  0  0  0  0  0  0
    1.6005   -0.1112    2.0190 H   0  0  0  0  0  0  0  0  0  0  0  0
    2.7163    1.0991    1.1694 H   0  0  0  0  0  0  0  0  0  0  0  0
    3.0009   -0.6636    1.0824 H   0  0  0  0  0  0  0  0  0  0  0  0
    1.0875    1.0989   -0.3888 H   0  0  0  0  0  0  0  0  0  0  0  0
    2.0000   -1.4441   -1.6696 H   0  0  0  0  0  0  0  0  0  0  0  0
   -2.9831   -0.7937   -0.2490 H   0  0  0  0  0  0  0  0  0  0  0  0
   -1.7945   -2.1185   -0.0047 H   0  0  0  0  0  0  0  0  0  0  0  0
   -2.3462   -1.0979    1.3955 H   0  0  0  0  0  0  0  0  0  0  0  0
   -1.9738    1.0289   -1.5517 H   0  0  0  0  0  0  0  0  0  0  0  0
   -0.2174    0.6175   -1.8756 H   0  0  0  0  0  0  0  0  0  0  0  0
   -1.4950   -0.6286   -1.9586 H   0  0  0  0  0  0  0  0  0  0  0  0
   -0.6456    0.7312    1.9483 H   0  0  0  0  0  0  0  0  0  0  0  0
   -0.7477    2.0006    0.6043 H   0  0  0  0  0  0  0  0  0  0  0  0
   -2.1963    1.1732    1.2148 H   0  0  0  0  0  0  0  0  0  0  0  0
  1  2  1  0
  2  3  1  0
  3  4  2  0
  2  5  1  0
  5  6  1  0
  6  7  1  0
  6  8  1  0
  6  9  1  0
  1 10  1  0
  1 11  1  0
  1 12  1  0
  2 13  1  0
  3 14  1  0
  7 15  1  0
  7 16  1  0
  7 17  1  0
  8 18  1  0
  8 19  1  0
  8 20  1  0
  9 21  1  0
  9 22  1  0
  9 23  1  0
M  END
