
     RDKit          3D

 23 23  0  0  0  0  0  0  0  0999 V2000
   -1.1607   -1.1019    0.9599 C   0  0  0  0  0  0  0  0  0  0  0  0
   -1.0282   -0.4211   -0.3850 C   0  0  0  0  0  0  0  0  0  0  0  0
   -2.2954    0.3433   -0.7243 C   0  0  0  0  0  0  0  0  0  0  0  0
   -2.4642    1.2975    0.2996 O   0  0  0  0  0  0  0  0  0  0  0  0
    0.0917    0.5787   -0.3298 C   0  0  0  0  0  0  0  0  0  0  0  0
    1.4288    0.0067   -0.0090 C   0  0  0  0  0  0  0  0  0  0  0  0
    2.5362    1.0688    0.0380 C   0  0  0  0  0  0  0  0  0  0  0  0
    1.7506   -1.3015    0.3879 C   0  0  0  0  0  0  0  0  0  0  0  0
    1.8473   -0.9674   -1.0793 O   0  0  0  0  0  0  0  0  0  0  0  0
   -0.3579   -0.7491    1.6418 H   0  0  0  0  0  0  0  0  0  0  0  0
   -2.1151   -0.7259    1.4293 H   0  0  0  0  0  0  0  0  0  0  0  0
   -1.2266   -2.2018    0.8801 H   0  0  0  0  0  0  0  0  0  0  0  0
   -0.8389   -1.2306   -1.1232 H   0  0  0  0  0  0  0  0  0  0  0  0
   -2.0633    0.9109   -1.6672 H   0  0  0  0  0  0  0  0  0  0  0  0
   -3.1696   -0.2988   -0.8368 H   0  0  0  0  0  0  0  0  0  0  0  0
   -3.2118    1.9178    0.0791 H   0  0  0  0  0  0  0  0  0  0  0  0
   -0.1512    1.3506    0.4284 H   0  0  0  0  0  0  0  0  0  0  0  0
    0.1954    1.1418   -1.2930 H   0  0  0  0  0  0  0  0  0  0  0  0
    2.3980    1.7461   -0.8477 H   0  0  0  0  0  0  0  0  0  0  0  0
    2.3962    1.7027    0.9367 H   0  0  0  0  0  0  0  0  0  0  0  0
    3.5348    0.6148   -0.0332 H   0  0  0  0  0  0  0  0  0  0  0  0
    1.1272   -2.1902    0.4375 H   0  0  0  0  0  0  0  0  0  0  0  0
    2.7768   -1.4912    0.8103 H   0  0  0  0  0  0  0  0  0  0  0  0
  1  2  1  0
  2  3  1  0
  3  4  1  0
  2  5  1  0
  5  6  1  0
  6  7  1  0
  6  8  1  0
  8  9  1  0
  9  6  1  0
  1 10  1  0
  1 11  1  0
  1 12  1  0
  2 13  1  0
  3 14  1  0
  3 15  1  0
  4 16  1  0
  5 17  1  0
  5 18  1  0
  7 19  1  0
  7 20  1  0
  7 21  1  0
  8 22  1  0
  8 23  1  0
M  END
