
     RDKit          3D

 16 15  0  0  0  0  0  0  0  0999 V2000
   -0.7099    1.0847   -0.7594 C   0  0  0  0  0  0  0  0  0  0  0  0
   -0.4251   -0.2967   -0.2157 C   0  0  0  0  0  0  0  0  0  0  0  0
   -0.8088   -0.4244    1.2422 C   0  0  0  0  0  0  0  0  0  0  0  0
   -1.0757   -1.2538   -0.9869 O   0  0  0  0  0  0  0  0  0  0  0  0
    1.0420   -0.6053   -0.2948 C   0  0  0  0  0  0  0  0  0  0  0  0
    1.4682   -1.5966   -0.9791 O   0  0  0  0  0  0  0  0  0  0  0  0
    2.0315    0.1920    0.3892 C   0  0  0  0  0  0  0  0  0  0  0  0
    1.6515    1.1664    1.0652 O   0  0  0  0  0  0  0  0  0  0  0  0
   -0.8460    1.8394    0.0643 H   0  0  0  0  0  0  0  0  0  0  0  0
   -1.6791    1.0312   -1.2942 H   0  0  0  0  0  0  0  0  0  0  0  0
    0.1043    1.4598   -1.4214 H   0  0  0  0  0  0  0  0  0  0  0  0
   -1.5895    0.3033    1.5335 H   0  0  0  0  0  0  0  0  0  0  0  0
    0.0835   -0.3538    1.8953 H   0  0  0  0  0  0  0  0  0  0  0  0
   -1.1749   -1.4831    1.3665 H   0  0  0  0  0  0  0  0  0  0  0  0
   -1.1357   -1.0217   -1.9268 H   0  0  0  0  0  0  0  0  0  0  0  0
    3.0637   -0.0413    0.3221 H   0  0  0  0  0  0  0  0  0  0  0  0
  1  2  1  0
  2  3  1  0
  2  4  1  0
  2  5  1  0
  5  6  2  0
  5  7  1  0
  7  8  2  0
  1  9  1  0
  1 10  1  0
  1 11  1  0
  3 12  1  0
  3 13  1  0
  3 14  1  0
  4 15  1  0
  7 16  1  0
M  END
