
     RDKit          3D

 23 24  0  0  0  0  0  0  0  0999 V2000
   -1.0751   -1.0164   -1.4181 C   0  0  0  0  0  0  0  0  0  0  0  0
   -1.0977   -0.1051   -0.2114 C   0  0  0  0  0  0  0  0  0  0  0  0
   -1.4754   -0.8401    1.0226 C   0  0  0  0  0  0  0  0  0  0  0  0
    0.2617    0.5693   -0.0950 C   0  0  0  0  0  0  0  0  0  0  0  0
    1.4503   -0.2992    0.0745 C   0  0  0  0  0  0  0  0  0  0  0  0
    1.6889   -1.2072    1.1375 C   0  0  0  0  0  0  0  0  0  0  0  0
    2.2793    0.1608    1.2202 O   0  0  0  0  0  0  0  0  0  0  0  0
    0.2368    1.9815    0.3778 C   0  0  0  0  0  0  0  0  0  0  0  0
    0.4488    1.7562   -1.0585 C   0  0  0  0  0  0  0  0  0  0  0  0
   -2.0952   -1.0606   -1.8722 H   0  0  0  0  0  0  0  0  0  0  0  0
   -0.4332   -0.5226   -2.1849 H   0  0  0  0  0  0  0  0  0  0  0  0
   -0.6956   -1.9946   -1.1101 H   0  0  0  0  0  0  0  0  0  0  0  0
   -1.8977    0.6556   -0.4231 H   0  0  0  0  0  0  0  0  0  0  0  0
   -1.0749   -1.8920    0.9341 H   0  0  0  0  0  0  0  0  0  0  0  0
   -1.1266   -0.3307    1.9312 H   0  0  0  0  0  0  0  0  0  0  0  0
   -2.5901   -0.8631    1.0901 H   0  0  0  0  0  0  0  0  0  0  0  0
    2.1483   -0.3073   -0.8092 H   0  0  0  0  0  0  0  0  0  0  0  0
    1.0246   -1.3890    1.9770 H   0  0  0  0  0  0  0  0  0  0  0  0
    2.5582   -1.9129    1.0372 H   0  0  0  0  0  0  0  0  0  0  0  0
   -0.7208    2.4005    0.7206 H   0  0  0  0  0  0  0  0  0  0  0  0
    1.1181    2.3662    0.9426 H   0  0  0  0  0  0  0  0  0  0  0  0
    1.4460    1.8570   -1.5382 H   0  0  0  0  0  0  0  0  0  0  0  0
   -0.3788    1.9936   -1.7446 H   0  0  0  0  0  0  0  0  0  0  0  0
  1  2  1  0
  2  3  1  0
  2  4  1  0
  4  5  1  0
  5  6  1  0
  6  7  1  0
  4  8  1  0
  8  9  1  0
  9  4  1  0
  7  5  1  0
  1 10  1  0
  1 11  1  0
  1 12  1  0
  2 13  1  0
  3 14  1  0
  3 15  1  0
  3 16  1  0
  5 17  1  0
  6 18  1  0
  6 19  1  0
  8 20  1  0
  8 21  1  0
  9 22  1  0
  9 23  1  0
M  END
