
     RDKit          3D

 25 24  0  0  0  0  0  0  0  0999 V2000
    1.7236   -0.8276   -0.9087 C   0  0  0  0  0  0  0  0  0  0  0  0
    1.3944    0.0141    0.2860 C   0  0  0  0  0  0  0  0  0  0  0  0
    2.4483    1.1439    0.2802 C   0  0  0  0  0  0  0  0  0  0  0  0
    0.0781    0.6503    0.2547 C   0  0  0  0  0  0  0  0  0  0  0  0
   -1.1609   -0.1474    0.2043 C   0  0  0  0  0  0  0  0  0  0  0  0
   -1.2635   -1.0098   -1.0178 C   0  0  0  0  0  0  0  0  0  0  0  0
   -2.3831    0.8041    0.1485 C   0  0  0  0  0  0  0  0  0  0  0  0
   -1.3574   -0.9669    1.4559 C   0  0  0  0  0  0  0  0  0  0  0  0
   -1.9715   -0.5173    2.3853 O   0  0  0  0  0  0  0  0  0  0  0  0
    1.2411   -1.7973   -0.9601 H   0  0  0  0  0  0  0  0  0  0  0  0
    2.8654   -0.9662   -0.8411 H   0  0  0  0  0  0  0  0  0  0  0  0
    1.6536   -0.2101   -1.8510 H   0  0  0  0  0  0  0  0  0  0  0  0
    1.5641   -0.5786    1.2251 H   0  0  0  0  0  0  0  0  0  0  0  0
    3.4599    0.7197    0.1035 H   0  0  0  0  0  0  0  0  0  0  0  0
    2.2264    1.8400   -0.5565 H   0  0  0  0  0  0  0  0  0  0  0  0
    2.4800    1.6534    1.2481 H   0  0  0  0  0  0  0  0  0  0  0  0
   -0.0194    1.3536    1.1532 H   0  0  0  0  0  0  0  0  0  0  0  0
    0.0779    1.4190   -0.5933 H   0  0  0  0  0  0  0  0  0  0  0  0
   -2.3495   -0.9818   -1.3773 H   0  0  0  0  0  0  0  0  0  0  0  0
   -0.6302   -0.6129   -1.8117 H   0  0  0  0  0  0  0  0  0  0  0  0
   -1.0373   -2.0627   -0.7141 H   0  0  0  0  0  0  0  0  0  0  0  0
   -2.7184    1.0509    1.1678 H   0  0  0  0  0  0  0  0  0  0  0  0
   -2.1447    1.6937   -0.4410 H   0  0  0  0  0  0  0  0  0  0  0  0
   -3.2316    0.2842   -0.3457 H   0  0  0  0  0  0  0  0  0  0  0  0
   -0.9452   -1.9484    1.5056 H   0  0  0  0  0  0  0  0  0  0  0  0
  1  2  1  0
  2  3  1  0
  2  4  1  0
  4  5  1  0
  5  6  1  0
  5  7  1  0
  5  8  1  0
  8  9  2  0
  1 10  1  0
  1 11  1  0
  1 12  1  0
  2 13  1  0
  3 14  1  0
  3 15  1  0
  3 16  1  0
  4 17  1  0
  4 18  1  0
  6 19  1  0
  6 20  1  0
  6 21  1  0
  7 22  1  0
  7 23  1  0
  7 24  1  0
  8 25  1  0
M  END
