
     RDKit          3D

 23 23  0  0  0  0  0  0  0  0999 V2000
    0.6220    1.4208    0.9658 C   0  0  0  0  0  0  0  0  0  0  0  0
    0.4571    0.1997    0.0867 C   0  0  0  0  0  0  0  0  0  0  0  0
    1.4196   -0.8422    0.6006 C   0  0  0  0  0  0  0  0  0  0  0  0
    0.9565    0.5997   -1.2865 C   0  0  0  0  0  0  0  0  0  0  0  0
    0.8285   -0.4841   -2.1503 O   0  0  0  0  0  0  0  0  0  0  0  0
   -0.9539   -0.2851    0.0280 C   0  0  0  0  0  0  0  0  0  0  0  0
   -1.6631   -0.7175    1.2880 C   0  0  0  0  0  0  0  0  0  0  0  0
   -1.7782    0.0567   -1.1174 C   0  0  0  0  0  0  0  0  0  0  0  0
   -1.2148   -1.2403   -1.0361 O   0  0  0  0  0  0  0  0  0  0  0  0
    0.6491    1.1433    2.0456 H   0  0  0  0  0  0  0  0  0  0  0  0
    1.5919    1.9131    0.7437 H   0  0  0  0  0  0  0  0  0  0  0  0
   -0.1611    2.1869    0.7845 H   0  0  0  0  0  0  0  0  0  0  0  0
    1.3184   -1.0321    1.6805 H   0  0  0  0  0  0  0  0  0  0  0  0
    1.3423   -1.7752    0.0183 H   0  0  0  0  0  0  0  0  0  0  0  0
    2.4469   -0.4382    0.4001 H   0  0  0  0  0  0  0  0  0  0  0  0
    2.0520    0.8741   -1.2123 H   0  0  0  0  0  0  0  0  0  0  0  0
    0.4288    1.4677   -1.6748 H   0  0  0  0  0  0  0  0  0  0  0  0
    1.5160   -1.1869   -1.9479 H   0  0  0  0  0  0  0  0  0  0  0  0
   -2.7259   -0.3939    1.2541 H   0  0  0  0  0  0  0  0  0  0  0  0
   -1.1915   -0.2620    2.1833 H   0  0  0  0  0  0  0  0  0  0  0  0
   -1.6635   -1.8254    1.3561 H   0  0  0  0  0  0  0  0  0  0  0  0
   -2.8945   -0.0015   -1.0325 H   0  0  0  0  0  0  0  0  0  0  0  0
   -1.3827    0.6223   -1.9775 H   0  0  0  0  0  0  0  0  0  0  0  0
  1  2  1  0
  2  3  1  0
  2  4  1  0
  4  5  1  0
  2  6  1  0
  6  7  1  0
  6  8  1  0
  8  9  1  0
  9  6  1  0
  1 10  1  0
  1 11  1  0
  1 12  1  0
  3 13  1  0
  3 14  1  0
  3 15  1  0
  4 16  1  0
  4 17  1  0
  5 18  1  0
  7 19  1  0
  7 20  1  0
  7 21  1  0
  8 22  1  0
  8 23  1  0
M  END
