
     RDKit          3D

 17 16  0  0  0  0  0  0  0  0999 V2000
   -0.9095    1.0495   -1.0214 C   0  0  0  0  0  0  0  0  0  0  0  0
   -0.0885    0.1507   -0.1094 C   0  0  0  0  0  0  0  0  0  0  0  0
   -0.3901    0.5375    1.2997 C   0  0  0  0  0  0  0  0  0  0  0  0
   -0.5621   -1.2870   -0.3037 C   0  0  0  0  0  0  0  0  0  0  0  0
    1.2231    0.2479   -0.5107 O   0  0  0  0  0  0  0  0  0  0  0  0
    2.3166   -0.3916    0.0280 C   0  0  0  0  0  0  0  0  0  0  0  0
    2.1229   -1.1466    0.9850 O   0  0  0  0  0  0  0  0  0  0  0  0
   -1.6167    1.6815   -0.4513 H   0  0  0  0  0  0  0  0  0  0  0  0
   -0.2514    1.7736   -1.5780 H   0  0  0  0  0  0  0  0  0  0  0  0
   -1.4704    0.4415   -1.7590 H   0  0  0  0  0  0  0  0  0  0  0  0
   -0.1374    1.5928    1.5259 H   0  0  0  0  0  0  0  0  0  0  0  0
   -1.5042    0.4648    1.4220 H   0  0  0  0  0  0  0  0  0  0  0  0
    0.0184   -0.1555    2.0609 H   0  0  0  0  0  0  0  0  0  0  0  0
   -0.2997   -1.8928    0.5808 H   0  0  0  0  0  0  0  0  0  0  0  0
   -0.0877   -1.6510   -1.2374 H   0  0  0  0  0  0  0  0  0  0  0  0
   -1.6432   -1.2309   -0.5000 H   0  0  0  0  0  0  0  0  0  0  0  0
    3.2799   -0.1844   -0.4313 H   0  0  0  0  0  0  0  0  0  0  0  0
  1  2  1  0
  2  3  1  0
  2  4  1  0
  2  5  1  0
  5  6  1  0
  6  7  2  0
  1  8  1  0
  1  9  1  0
  1 10  1  0
  3 11  1  0
  3 12  1  0
  3 13  1  0
  4 14  1  0
  4 15  1  0
  4 16  1  0
  6 17  1  0
M  END
