
     RDKit          3D

 23 23  0  0  0  0  0  0  0  0999 V2000
    1.3497    0.5045    1.2561 C   0  0  0  0  0  0  0  0  0  0  0  0
    1.2301    0.2667   -0.1955 C   0  0  0  0  0  0  0  0  0  0  0  0
    2.0166   -0.9788   -0.5517 C   0  0  0  0  0  0  0  0  0  0  0  0
    3.3689   -0.8492   -0.2307 O   0  0  0  0  0  0  0  0  0  0  0  0
   -0.1387    0.1858   -0.7629 C   0  0  0  0  0  0  0  0  0  0  0  0
   -0.8387    1.4746   -0.5007 O   0  0  0  0  0  0  0  0  0  0  0  0
   -1.3953    0.1275   -0.1685 C   0  0  0  0  0  0  0  0  0  0  0  0
   -1.7768    0.0342    1.2626 C   0  0  0  0  0  0  0  0  0  0  0  0
   -2.6142   -0.0619   -1.0921 C   0  0  0  0  0  0  0  0  0  0  0  0
    0.6523    1.2714    1.6630 H   0  0  0  0  0  0  0  0  0  0  0  0
    2.3749    0.9565    1.4261 H   0  0  0  0  0  0  0  0  0  0  0  0
    1.3691   -0.4265    1.8606 H   0  0  0  0  0  0  0  0  0  0  0  0
    1.7608    1.1118   -0.7279 H   0  0  0  0  0  0  0  0  0  0  0  0
    1.6472   -1.8696    0.0188 H   0  0  0  0  0  0  0  0  0  0  0  0
    1.8765   -1.2477   -1.6281 H   0  0  0  0  0  0  0  0  0  0  0  0
    3.8290   -0.1663   -0.7673 H   0  0  0  0  0  0  0  0  0  0  0  0
   -0.0720    0.0455   -1.8763 H   0  0  0  0  0  0  0  0  0  0  0  0
   -2.7017   -0.6031    1.4065 H   0  0  0  0  0  0  0  0  0  0  0  0
   -1.0252   -0.4217    1.9267 H   0  0  0  0  0  0  0  0  0  0  0  0
   -2.0984    1.0473    1.6160 H   0  0  0  0  0  0  0  0  0  0  0  0
   -3.1456    0.8710   -1.2648 H   0  0  0  0  0  0  0  0  0  0  0  0
   -2.3203   -0.5059   -2.0522 H   0  0  0  0  0  0  0  0  0  0  0  0
   -3.3480   -0.7661   -0.6177 H   0  0  0  0  0  0  0  0  0  0  0  0
  1  2  1  0
  2  3  1  0
  3  4  1  0
  2  5  1  0
  5  6  1  0
  6  7  1  0
  7  8  1  0
  7  9  1  0
  7  5  1  0
  1 10  1  0
  1 11  1  0
  1 12  1  0
  2 13  1  0
  3 14  1  0
  3 15  1  0
  4 16  1  0
  5 17  1  0
  8 18  1  0
  8 19  1  0
  8 20  1  0
  9 21  1  0
  9 22  1  0
  9 23  1  0
M  END
