
     RDKit          3D

 20 20  0  0  0  0  0  0  0  0999 V2000
   -1.6181   -1.0661    0.9942 C   0  0  0  0  0  0  0  0  0  0  0  0
   -0.7986   -0.4430   -0.1128 C   0  0  0  0  0  0  0  0  0  0  0  0
   -1.7327    0.3842   -0.9802 C   0  0  0  0  0  0  0  0  0  0  0  0
   -2.7603   -0.4196   -1.5066 O   0  0  0  0  0  0  0  0  0  0  0  0
    0.1792    0.4106    0.3659 O   0  0  0  0  0  0  0  0  0  0  0  0
    1.4549    0.0856   -0.0198 C   0  0  0  0  0  0  0  0  0  0  0  0
    2.5262    1.1014   -0.1414 C   0  0  0  0  0  0  0  0  0  0  0  0
    2.4943    0.2501    1.1064 C   0  0  0  0  0  0  0  0  0  0  0  0
   -2.5827   -0.5169    1.1042 H   0  0  0  0  0  0  0  0  0  0  0  0
   -1.0789   -0.9115    1.9621 H   0  0  0  0  0  0  0  0  0  0  0  0
   -1.8513   -2.1274    0.8141 H   0  0  0  0  0  0  0  0  0  0  0  0
   -0.3409   -1.2344   -0.7252 H   0  0  0  0  0  0  0  0  0  0  0  0
   -1.2014    0.8347   -1.8410 H   0  0  0  0  0  0  0  0  0  0  0  0
   -2.1679    1.2191   -0.4037 H   0  0  0  0  0  0  0  0  0  0  0  0
   -3.1695   -0.0238   -2.2923 H   0  0  0  0  0  0  0  0  0  0  0  0
    1.5391   -0.8035   -0.6546 H   0  0  0  0  0  0  0  0  0  0  0  0
    3.3768    0.8721   -0.8055 H   0  0  0  0  0  0  0  0  0  0  0  0
    2.3118    2.1812   -0.0662 H   0  0  0  0  0  0  0  0  0  0  0  0
    2.1955    0.8050    2.0082 H   0  0  0  0  0  0  0  0  0  0  0  0
    3.2246   -0.5979    1.1943 H   0  0  0  0  0  0  0  0  0  0  0  0
  1  2  1  0
  2  3  1  0
  3  4  1  0
  2  5  1  0
  5  6  1  0
  6  7  1  0
  7  8  1  0
  8  6  1  0
  1  9  1  0
  1 10  1  0
  1 11  1  0
  2 12  1  0
  3 13  1  0
  3 14  1  0
  4 15  1  0
  6 16  1  0
  7 17  1  0
  7 18  1  0
  8 19  1  0
  8 20  1  0
M  END
