
     RDKit          3D

 23 23  0  0  0  0  0  0  0  0999 V2000
   -2.0978    0.5535   -0.3835 C   0  0  0  0  0  0  0  0  0  0  0  0
   -1.0075   -0.4126    0.0366 C   0  0  0  0  0  0  0  0  0  0  0  0
   -1.0114   -0.4404    1.5111 C   0  0  0  0  0  0  0  0  0  0  0  0
    0.2271   -0.1227   -0.7038 C   0  0  0  0  0  0  0  0  0  0  0  0
    0.0518   -0.2618   -2.1791 C   0  0  0  0  0  0  0  0  0  0  0  0
   -0.9697   -0.3023   -2.7882 O   0  0  0  0  0  0  0  0  0  0  0  0
    0.8607    1.2310   -0.2357 C   0  0  0  0  0  0  0  0  0  0  0  0
    1.5909   -0.0567   -0.2150 C   0  0  0  0  0  0  0  0  0  0  0  0
    2.1505   -0.6570    1.0275 C   0  0  0  0  0  0  0  0  0  0  0  0
   -2.6160    0.2969   -1.3026 H   0  0  0  0  0  0  0  0  0  0  0  0
   -2.9025    0.5935    0.4144 H   0  0  0  0  0  0  0  0  0  0  0  0
   -1.6392    1.5646   -0.4661 H   0  0  0  0  0  0  0  0  0  0  0  0
   -1.3948   -1.4249   -0.2974 H   0  0  0  0  0  0  0  0  0  0  0  0
   -0.6777   -1.3856    1.9760 H   0  0  0  0  0  0  0  0  0  0  0  0
   -0.5591    0.4586    1.9250 H   0  0  0  0  0  0  0  0  0  0  0  0
   -2.0979   -0.3689    1.8320 H   0  0  0  0  0  0  0  0  0  0  0  0
    0.9670   -0.3348   -2.7751 H   0  0  0  0  0  0  0  0  0  0  0  0
    0.5687    1.6356    0.7265 H   0  0  0  0  0  0  0  0  0  0  0  0
    0.9840    1.9608   -1.0619 H   0  0  0  0  0  0  0  0  0  0  0  0
    2.4055   -0.0773   -1.0074 H   0  0  0  0  0  0  0  0  0  0  0  0
    3.1299   -0.1307    1.2426 H   0  0  0  0  0  0  0  0  0  0  0  0
    2.4580   -1.7116    0.7917 H   0  0  0  0  0  0  0  0  0  0  0  0
    1.5796   -0.6073    1.9323 H   0  0  0  0  0  0  0  0  0  0  0  0
  1  2  1  0
  2  3  1  0
  2  4  1  0
  4  5  1  0
  5  6  2  0
  4  7  1  0
  7  8  1  0
  8  9  1  0
  8  4  1  0
  1 10  1  0
  1 11  1  0
  1 12  1  0
  2 13  1  0
  3 14  1  0
  3 15  1  0
  3 16  1  0
  5 17  1  0
  7 18  1  0
  7 19  1  0
  8 20  1  0
  9 21  1  0
  9 22  1  0
  9 23  1  0
M  END
