
     RDKit          3D

 23 24  0  0  0  0  0  0  0  0999 V2000
   -2.6232    0.9421   -0.3745 C   0  0  0  0  0  0  0  0  0  0  0  0
   -1.3033    0.4025    0.2391 C   0  0  0  0  0  0  0  0  0  0  0  0
   -1.4714   -1.0971    0.0625 C   0  0  0  0  0  0  0  0  0  0  0  0
   -0.2256    1.0112   -0.5703 C   0  0  0  0  0  0  0  0  0  0  0  0
    1.1968    0.6912   -0.2004 C   0  0  0  0  0  0  0  0  0  0  0  0
    1.8058   -0.6133   -0.1736 C   0  0  0  0  0  0  0  0  0  0  0  0
    2.7759   -1.1109    0.9101 C   0  0  0  0  0  0  0  0  0  0  0  0
    1.5968   -0.9901    1.6942 O   0  0  0  0  0  0  0  0  0  0  0  0
    1.5873    0.2797    1.1102 C   0  0  0  0  0  0  0  0  0  0  0  0
   -2.5730    0.7114   -1.4729 H   0  0  0  0  0  0  0  0  0  0  0  0
   -3.4773    0.3606    0.0234 H   0  0  0  0  0  0  0  0  0  0  0  0
   -2.7122    2.0142   -0.2357 H   0  0  0  0  0  0  0  0  0  0  0  0
   -1.3288    0.6950    1.2900 H   0  0  0  0  0  0  0  0  0  0  0  0
   -0.9376   -1.5965    0.8970 H   0  0  0  0  0  0  0  0  0  0  0  0
   -2.5679   -1.3734    0.1893 H   0  0  0  0  0  0  0  0  0  0  0  0
   -1.2123   -1.4486   -0.9279 H   0  0  0  0  0  0  0  0  0  0  0  0
   -0.3162    2.1405   -0.5397 H   0  0  0  0  0  0  0  0  0  0  0  0
   -0.3826    0.7686   -1.6455 H   0  0  0  0  0  0  0  0  0  0  0  0
    1.8699    1.4455   -0.7499 H   0  0  0  0  0  0  0  0  0  0  0  0
    1.0742   -1.4294   -0.3382 H   0  0  0  0  0  0  0  0  0  0  0  0
    3.5930   -0.4499    1.1644 H   0  0  0  0  0  0  0  0  0  0  0  0
    3.1017   -2.1351    0.7258 H   0  0  0  0  0  0  0  0  0  0  0  0
    2.5299    0.7820    1.4975 H   0  0  0  0  0  0  0  0  0  0  0  0
  1  2  1  0
  2  3  1  0
  2  4  1  0
  4  5  1  0
  5  6  1  0
  6  7  1  0
  7  8  1  0
  8  9  1  0
  9  5  1  0
  9  6  1  0
  1 10  1  0
  1 11  1  0
  1 12  1  0
  2 13  1  0
  3 14  1  0
  3 15  1  0
  3 16  1  0
  4 17  1  0
  4 18  1  0
  5 19  1  0
  6 20  1  0
  7 21  1  0
  7 22  1  0
  9 23  1  0
M  END
