
     RDKit          3D

 23 22  0  0  0  0  0  0  0  0999 V2000
    1.6997   -1.2490    0.2706 C   0  0  0  0  0  0  0  0  0  0  0  0
    0.8739    0.0090    0.4571 C   0  0  0  0  0  0  0  0  0  0  0  0
    1.4134    1.0482   -0.4678 C   0  0  0  0  0  0  0  0  0  0  0  0
    1.1283    0.4391    1.7661 O   0  0  0  0  0  0  0  0  0  0  0  0
   -0.5951   -0.2548    0.2974 C   0  0  0  0  0  0  0  0  0  0  0  0
   -0.9543   -0.7948   -1.0560 C   0  0  0  0  0  0  0  0  0  0  0  0
   -2.3332   -1.0029   -1.0966 O   0  0  0  0  0  0  0  0  0  0  0  0
   -1.4572    0.9307    0.5771 C   0  0  0  0  0  0  0  0  0  0  0  0
   -1.1185    1.9533   -0.3023 O   0  0  0  0  0  0  0  0  0  0  0  0
    2.7640   -0.9444    0.4905 H   0  0  0  0  0  0  0  0  0  0  0  0
    1.4576   -2.0234    1.0250 H   0  0  0  0  0  0  0  0  0  0  0  0
    1.6331   -1.6430   -0.7696 H   0  0  0  0  0  0  0  0  0  0  0  0
    1.3673    2.0792   -0.0766 H   0  0  0  0  0  0  0  0  0  0  0  0
    0.9105    1.0605   -1.4570 H   0  0  0  0  0  0  0  0  0  0  0  0
    2.5008    0.8626   -0.7002 H   0  0  0  0  0  0  0  0  0  0  0  0
    1.2007   -0.3695    2.3422 H   0  0  0  0  0  0  0  0  0  0  0  0
   -0.8696   -1.0453    1.0411 H   0  0  0  0  0  0  0  0  0  0  0  0
   -0.7263   -0.0812   -1.8760 H   0  0  0  0  0  0  0  0  0  0  0  0
   -0.4406   -1.7442   -1.2978 H   0  0  0  0  0  0  0  0  0  0  0  0
   -2.6591   -1.3113   -0.2111 H   0  0  0  0  0  0  0  0  0  0  0  0
   -2.5055    0.6483    0.3435 H   0  0  0  0  0  0  0  0  0  0  0  0
   -1.4474    1.2540    1.6335 H   0  0  0  0  0  0  0  0  0  0  0  0
   -1.8424    2.1791   -0.9332 H   0  0  0  0  0  0  0  0  0  0  0  0
  1  2  1  0
  2  3  1  0
  2  4  1  0
  2  5  1  0
  5  6  1  0
  6  7  1  0
  5  8  1  0
  8  9  1  0
  1 10  1  0
  1 11  1  0
  1 12  1  0
  3 13  1  0
  3 14  1  0
  3 15  1  0
  4 16  1  0
  5 17  1  0
  6 18  1  0
  6 19  1  0
  7 20  1  0
  8 21  1  0
  8 22  1  0
  9 23  1  0
M  END
