
     RDKit          3D

 25 25  0  0  0  0  0  0  0  0999 V2000
   -1.9170    1.0225    1.0258 C   0  0  0  0  0  0  0  0  0  0  0  0
   -1.7212   -0.2785    0.2792 C   0  0  0  0  0  0  0  0  0  0  0  0
   -3.0246   -0.7217   -0.3068 C   0  0  0  0  0  0  0  0  0  0  0  0
   -0.6246   -0.1398   -0.7680 C   0  0  0  0  0  0  0  0  0  0  0  0
    0.6453    0.2314   -0.0585 C   0  0  0  0  0  0  0  0  0  0  0  0
    1.0899   -0.8040    0.9680 C   0  0  0  0  0  0  0  0  0  0  0  0
    1.9103   -0.5077   -0.2781 C   0  0  0  0  0  0  0  0  0  0  0  0
    3.2037    0.1864   -0.0206 C   0  0  0  0  0  0  0  0  0  0  0  0
    3.3868    1.3186   -0.8050 O   0  0  0  0  0  0  0  0  0  0  0  0
   -1.1038    1.2201    1.7592 H   0  0  0  0  0  0  0  0  0  0  0  0
   -1.9096    1.8599    0.3023 H   0  0  0  0  0  0  0  0  0  0  0  0
   -2.8607    0.9663    1.5879 H   0  0  0  0  0  0  0  0  0  0  0  0
   -1.3415   -1.0129    1.0316 H   0  0  0  0  0  0  0  0  0  0  0  0
   -3.8446   -0.3195    0.3295 H   0  0  0  0  0  0  0  0  0  0  0  0
   -3.1047   -1.8379   -0.3729 H   0  0  0  0  0  0  0  0  0  0  0  0
   -3.1042   -0.2749   -1.3319 H   0  0  0  0  0  0  0  0  0  0  0  0
   -0.9016    0.5677   -1.5685 H   0  0  0  0  0  0  0  0  0  0  0  0
   -0.5592   -1.1477   -1.2692 H   0  0  0  0  0  0  0  0  0  0  0  0
    0.7478    1.2997    0.1782 H   0  0  0  0  0  0  0  0  0  0  0  0
    0.5572   -1.7588    1.0402 H   0  0  0  0  0  0  0  0  0  0  0  0
    1.3891   -0.3589    1.9301 H   0  0  0  0  0  0  0  0  0  0  0  0
    1.9216   -1.3739   -1.0025 H   0  0  0  0  0  0  0  0  0  0  0  0
    4.0235   -0.5482   -0.2449 H   0  0  0  0  0  0  0  0  0  0  0  0
    3.2846    0.4297    1.0555 H   0  0  0  0  0  0  0  0  0  0  0  0
    3.8575    1.9821   -0.2394 H   0  0  0  0  0  0  0  0  0  0  0  0
  1  2  1  0
  2  3  1  0
  2  4  1  0
  4  5  1  0
  5  6  1  0
  6  7  1  0
  7  8  1  0
  8  9  1  0
  7  5  1  0
  1 10  1  0
  1 11  1  0
  1 12  1  0
  2 13  1  0
  3 14  1  0
  3 15  1  0
  3 16  1  0
  4 17  1  0
  4 18  1  0
  5 19  1  0
  6 20  1  0
  6 21  1  0
  7 22  1  0
  8 23  1  0
  8 24  1  0
  9 25  1  0
M  END
