
     RDKit          2D

 23 24  0  0  0  0  0  0  0  0999 V2000
   -1.5000   -4.0607    0.0000 C   0  0  0  0  0  0  0  0  0  0  0  0
   -0.0000   -4.0607    0.0000 C   0  0  0  0  0  0  0  0  0  0  0  0
    1.5000   -4.0607    0.0000 C   0  0  0  0  0  0  0  0  0  0  0  0
   -0.0000   -2.5607    0.0000 C   0  0  0  0  0  0  0  0  0  0  0  0
   -0.0000   -1.0607    0.0000 C   0  0  0  0  0  0  0  0  0  0  0  0
    1.0607    0.0000    0.0000 C   0  0  0  0  0  0  0  0  0  0  0  0
    0.0000    1.0607    0.0000 C   0  0  0  0  0  0  0  0  0  0  0  0
    0.3393   -0.0000    0.0000 C   0  0  0  0  0  0  0  0  0  0  0  0
   -1.0607    0.0000    0.0000 O   0  0  0  0  0  0  0  0  0  0  0  0
   -3.0000   -4.0607    0.0000 H   0  0  0  0  0  0  0  0  0  0  0  0
   -1.5000   -5.5607    0.0000 H   0  0  0  0  0  0  0  0  0  0  0  0
   -1.6080   -3.1815    0.0000 H   0  0  0  0  0  0  0  0  0  0  0  0
    0.0000   -5.5607    0.0000 H   0  0  0  0  0  0  0  0  0  0  0  0
    3.0000   -4.0607    0.0000 H   0  0  0  0  0  0  0  0  0  0  0  0
    1.5000   -5.5607    0.0000 H   0  0  0  0  0  0  0  0  0  0  0  0
    1.6080   -3.1815    0.0000 H   0  0  0  0  0  0  0  0  0  0  0  0
    0.8791   -2.4527    0.0000 H   0  0  0  0  0  0  0  0  0  0  0  0
   -0.8791   -2.4527    0.0000 H   0  0  0  0  0  0  0  0  0  0  0  0
    2.1213    1.0607    0.0000 H   0  0  0  0  0  0  0  0  0  0  0  0
    2.1213   -1.0607    0.0000 H   0  0  0  0  0  0  0  0  0  0  0  0
    0.0000    2.5607    0.0000 H   0  0  0  0  0  0  0  0  0  0  0  0
   -2.1213   -1.0607    0.0000 H   0  0  0  0  0  0  0  0  0  0  0  0
   -2.1213    1.0607    0.0000 H   0  0  0  0  0  0  0  0  0  0  0  0
  1  2  1  0
  2  3  1  0
  2  4  1  0
  4  5  1  0
  5  6  1  0
  6  7  1  0
  7  8  1  0
  7  9  1  0
  8  5  1  0
  9  5  1  0
  1 10  1  0
  1 11  1  0
  1 12  1  0
  2 13  1  0
  3 14  1  0
  3 15  1  0
  3 16  1  0
  4 17  1  0
  4 18  1  0
  6 19  1  0
  6 20  1  0
  7 21  1  0
  8 22  1  0
  8 23  1  0
M  END
