
     RDKit          3D

 16 15  0  0  0  0  0  0  0  0999 V2000
   -1.8513   -0.5443    0.4988 C   0  0  0  0  0  0  0  0  0  0  0  0
   -1.1113    0.2938   -0.5061 C   0  0  0  0  0  0  0  0  0  0  0  0
   -1.7934    1.5218   -0.5876 O   0  0  0  0  0  0  0  0  0  0  0  0
    0.3119    0.5090   -0.1683 C   0  0  0  0  0  0  0  0  0  0  0  0
    0.7103    1.6396   -0.0056 O   0  0  0  0  0  0  0  0  0  0  0  0
    1.2713   -0.6092   -0.0204 C   0  0  0  0  0  0  0  0  0  0  0  0
    2.6339   -0.1387    0.3230 C   0  0  0  0  0  0  0  0  0  0  0  0
    2.9817    0.1682    1.4514 O   0  0  0  0  0  0  0  0  0  0  0  0
   -1.2991   -1.4412    0.8310 H   0  0  0  0  0  0  0  0  0  0  0  0
   -2.7972   -0.8795   -0.0067 H   0  0  0  0  0  0  0  0  0  0  0  0
   -2.1401    0.0777    1.3614 H   0  0  0  0  0  0  0  0  0  0  0  0
   -1.2111   -0.1632   -1.5212 H   0  0  0  0  0  0  0  0  0  0  0  0
   -1.3359    2.1177    0.0427 H   0  0  0  0  0  0  0  0  0  0  0  0
    0.9307   -1.2663    0.8111 H   0  0  0  0  0  0  0  0  0  0  0  0
    1.2896   -1.2387   -0.9354 H   0  0  0  0  0  0  0  0  0  0  0  0
    3.4101   -0.0466   -0.4602 H   0  0  0  0  0  0  0  0  0  0  0  0
  1  2  1  0
  2  3  1  0
  2  4  1  0
  4  5  2  0
  4  6  1  0
  6  7  1  0
  7  8  2  0
  1  9  1  0
  1 10  1  0
  1 11  1  0
  2 12  1  0
  3 13  1  0
  6 14  1  0
  6 15  1  0
  7 16  1  0
M  END
