
     RDKit          3D

 21 22  0  0  0  0  0  0  0  0999 V2000
   -1.9485    0.5977   -0.9071 C   0  0  0  0  0  0  0  0  0  0  0  0
   -1.9026   -0.6400   -0.0691 C   0  0  0  0  0  0  0  0  0  0  0  0
   -2.5986   -0.3990    1.1088 O   0  0  0  0  0  0  0  0  0  0  0  0
   -0.5240   -1.1414    0.2272 C   0  0  0  0  0  0  0  0  0  0  0  0
    0.4759   -0.3316    0.9484 C   0  0  0  0  0  0  0  0  0  0  0  0
    0.5636    1.0044    0.5984 O   0  0  0  0  0  0  0  0  0  0  0  0
    1.2426    0.6264   -0.5408 C   0  0  0  0  0  0  0  0  0  0  0  0
    2.7432    0.6372   -0.2365 C   0  0  0  0  0  0  0  0  0  0  0  0
    0.6595   -0.7565   -0.5327 C   0  0  0  0  0  0  0  0  0  0  0  0
   -3.0158    0.8049   -1.1349 H   0  0  0  0  0  0  0  0  0  0  0  0
   -1.4681    0.4256   -1.9126 H   0  0  0  0  0  0  0  0  0  0  0  0
   -1.5505    1.4959   -0.4184 H   0  0  0  0  0  0  0  0  0  0  0  0
   -2.4458   -1.4384   -0.6305 H   0  0  0  0  0  0  0  0  0  0  0  0
   -2.6203    0.5772    1.2756 H   0  0  0  0  0  0  0  0  0  0  0  0
   -0.5745   -2.2100    0.6013 H   0  0  0  0  0  0  0  0  0  0  0  0
    1.1973   -0.7689    1.6565 H   0  0  0  0  0  0  0  0  0  0  0  0
    1.0703    1.2306   -1.4458 H   0  0  0  0  0  0  0  0  0  0  0  0
    3.1640   -0.2132   -0.8220 H   0  0  0  0  0  0  0  0  0  0  0  0
    3.1994    1.5991   -0.4761 H   0  0  0  0  0  0  0  0  0  0  0  0
    2.9071    0.4518    0.8409 H   0  0  0  0  0  0  0  0  0  0  0  0
    1.4259   -1.5519   -0.7200 H   0  0  0  0  0  0  0  0  0  0  0  0
  1  2  1  0
  2  3  1  0
  2  4  1  0
  4  5  1  0
  5  6  1  0
  6  7  1  0
  7  8  1  0
  7  9  1  0
  9  4  1  0
  9  5  1  0
  1 10  1  0
  1 11  1  0
  1 12  1  0
  2 13  1  0
  3 14  1  0
  4 15  1  0
  5 16  1  0
  7 17  1  0
  8 18  1  0
  8 19  1  0
  8 20  1  0
  9 21  1  0
M  END
