
     RDKit          3D

 20 20  0  0  0  0  0  0  0  0999 V2000
    1.8179   -0.8813    0.3737 C   0  0  0  0  0  0  0  0  0  0  0  0
    1.3943    0.3426   -0.3699 C   0  0  0  0  0  0  0  0  0  0  0  0
    2.0190    1.4429    0.1855 O   0  0  0  0  0  0  0  0  0  0  0  0
   -0.0839    0.5784   -0.3565 C   0  0  0  0  0  0  0  0  0  0  0  0
   -0.7078    0.7564    1.0086 C   0  0  0  0  0  0  0  0  0  0  0  0
   -1.9320    0.0267    0.4378 C   0  0  0  0  0  0  0  0  0  0  0  0
   -0.9470   -0.6534   -0.5225 C   0  0  0  0  0  0  0  0  0  0  0  0
   -1.4453   -0.8124   -1.8003 O   0  0  0  0  0  0  0  0  0  0  0  0
    1.4708   -1.8257   -0.1349 H   0  0  0  0  0  0  0  0  0  0  0  0
    2.9306   -0.9324    0.3245 H   0  0  0  0  0  0  0  0  0  0  0  0
    1.5496   -0.8864    1.4336 H   0  0  0  0  0  0  0  0  0  0  0  0
    1.7283    0.2403   -1.4220 H   0  0  0  0  0  0  0  0  0  0  0  0
    1.4326    2.2538    0.1261 H   0  0  0  0  0  0  0  0  0  0  0  0
   -0.3925    1.3507   -1.0795 H   0  0  0  0  0  0  0  0  0  0  0  0
   -0.9151    1.7940    1.3071 H   0  0  0  0  0  0  0  0  0  0  0  0
   -0.1898    0.1267    1.7647 H   0  0  0  0  0  0  0  0  0  0  0  0
   -2.4326   -0.6420    1.1328 H   0  0  0  0  0  0  0  0  0  0  0  0
   -2.5714    0.7713   -0.0983 H   0  0  0  0  0  0  0  0  0  0  0  0
   -0.5584   -1.5689   -0.0299 H   0  0  0  0  0  0  0  0  0  0  0  0
   -2.1673   -1.4814   -1.7567 H   0  0  0  0  0  0  0  0  0  0  0  0
  1  2  1  0
  2  3  1  0
  2  4  1  0
  4  5  1  0
  5  6  1  0
  6  7  1  0
  7  8  1  0
  7  4  1  0
  1  9  1  0
  1 10  1  0
  1 11  1  0
  2 12  1  0
  3 13  1  0
  4 14  1  0
  5 15  1  0
  5 16  1  0
  6 17  1  0
  6 18  1  0
  7 19  1  0
  8 20  1  0
M  END
