
     RDKit          3D

 21 21  0  0  0  0  0  0  0  0999 V2000
   -1.6480   -0.7121    0.9636 C   0  0  0  0  0  0  0  0  0  0  0  0
   -0.7278   -0.8044   -0.2109 C   0  0  0  0  0  0  0  0  0  0  0  0
   -1.4608   -0.8322   -1.3943 O   0  0  0  0  0  0  0  0  0  0  0  0
    0.2563    0.3421   -0.2757 C   0  0  0  0  0  0  0  0  0  0  0  0
   -0.3003    1.7581   -0.2989 C   0  0  0  0  0  0  0  0  0  0  0  0
   -1.1671    1.9909    0.7490 O   0  0  0  0  0  0  0  0  0  0  0  0
    1.1518    0.1650   -1.3932 O   0  0  0  0  0  0  0  0  0  0  0  0
    1.6354    0.1551   -0.0071 C   0  0  0  0  0  0  0  0  0  0  0  0
    2.2889   -1.1369    0.3328 C   0  0  0  0  0  0  0  0  0  0  0  0
   -1.2740   -0.0970    1.7943 H   0  0  0  0  0  0  0  0  0  0  0  0
   -2.6288   -0.2455    0.6588 H   0  0  0  0  0  0  0  0  0  0  0  0
   -1.9317   -1.7441    1.3182 H   0  0  0  0  0  0  0  0  0  0  0  0
   -0.1067   -1.7353   -0.0939 H   0  0  0  0  0  0  0  0  0  0  0  0
   -2.4126   -0.9870   -1.1706 H   0  0  0  0  0  0  0  0  0  0  0  0
    0.5451    2.4597   -0.3103 H   0  0  0  0  0  0  0  0  0  0  0  0
   -0.8849    1.9235   -1.2503 H   0  0  0  0  0  0  0  0  0  0  0  0
   -1.0581    2.9599    1.0001 H   0  0  0  0  0  0  0  0  0  0  0  0
    2.2614    1.0635    0.2348 H   0  0  0  0  0  0  0  0  0  0  0  0
    3.3389   -0.9970    0.6999 H   0  0  0  0  0  0  0  0  0  0  0  0
    1.7580   -1.6747    1.1493 H   0  0  0  0  0  0  0  0  0  0  0  0
    2.3650   -1.8517   -0.5120 H   0  0  0  0  0  0  0  0  0  0  0  0
  1  2  1  0
  2  3  1  0
  2  4  1  0
  4  5  1  0
  5  6  1  0
  4  7  1  0
  7  8  1  0
  8  9  1  0
  8  4  1  0
  1 10  1  0
  1 11  1  0
  1 12  1  0
  2 13  1  0
  3 14  1  0
  5 15  1  0
  5 16  1  0
  6 17  1  0
  8 18  1  0
  9 19  1  0
  9 20  1  0
  9 21  1  0
M  END
