
     RDKit          3D

 21 20  0  0  0  0  0  0  0  0999 V2000
   -3.4537    0.0575    0.0107 C   0  0  0  0  0  0  0  0  0  0  0  0
   -2.1837   -0.5164    0.5720 C   0  0  0  0  0  0  0  0  0  0  0  0
   -2.1016   -1.8785    0.3137 O   0  0  0  0  0  0  0  0  0  0  0  0
   -0.9514    0.1537    0.0510 C   0  0  0  0  0  0  0  0  0  0  0  0
    0.2449   -0.5389    0.7116 C   0  0  0  0  0  0  0  0  0  0  0  0
    1.4920    0.0582    0.2547 C   0  0  0  0  0  0  0  0  0  0  0  0
    2.5152    0.5689   -0.1249 C   0  0  0  0  0  0  0  0  0  0  0  0
    3.7595    1.2017   -0.6109 C   0  0  0  0  0  0  0  0  0  0  0  0
    4.3040    0.3470   -1.5550 O   0  0  0  0  0  0  0  0  0  0  0  0
   -4.2895   -0.6431    0.1910 H   0  0  0  0  0  0  0  0  0  0  0  0
   -3.7313    1.0063    0.5566 H   0  0  0  0  0  0  0  0  0  0  0  0
   -3.3002    0.2867   -1.0521 H   0  0  0  0  0  0  0  0  0  0  0  0
   -2.2228   -0.3680    1.6902 H   0  0  0  0  0  0  0  0  0  0  0  0
   -1.5507   -2.1067   -0.4642 H   0  0  0  0  0  0  0  0  0  0  0  0
   -0.8792   -0.0476   -1.0493 H   0  0  0  0  0  0  0  0  0  0  0  0
   -0.9217    1.2316    0.1777 H   0  0  0  0  0  0  0  0  0  0  0  0
    0.0909   -0.4010    1.8056 H   0  0  0  0  0  0  0  0  0  0  0  0
    0.2440   -1.6067    0.4097 H   0  0  0  0  0  0  0  0  0  0  0  0
    4.4841    1.3150    0.2249 H   0  0  0  0  0  0  0  0  0  0  0  0
    3.5416    2.2025   -1.0052 H   0  0  0  0  0  0  0  0  0  0  0  0
    4.9096   -0.3222   -1.1077 H   0  0  0  0  0  0  0  0  0  0  0  0
  1  2  1  0
  2  3  1  0
  2  4  1  0
  4  5  1  0
  5  6  1  0
  6  7  3  0
  7  8  1  0
  8  9  1  0
  1 10  1  0
  1 11  1  0
  1 12  1  0
  2 13  1  0
  3 14  1  0
  4 15  1  0
  4 16  1  0
  5 17  1  0
  5 18  1  0
  8 19  1  0
  8 20  1  0
  9 21  1  0
M  END
