
     RDKit          3D

 20 20  0  0  0  0  0  0  0  0999 V2000
   -2.2148    0.8857   -0.2189 C   0  0  0  0  0  0  0  0  0  0  0  0
   -0.8994    0.3771    0.3272 C   0  0  0  0  0  0  0  0  0  0  0  0
   -1.2080   -0.5276    1.3696 O   0  0  0  0  0  0  0  0  0  0  0  0
   -0.2055   -0.3857   -0.7393 C   0  0  0  0  0  0  0  0  0  0  0  0
    1.0957   -1.0334   -0.5993 C   0  0  0  0  0  0  0  0  0  0  0  0
    1.9425   -0.9203    0.6258 C   0  0  0  0  0  0  0  0  0  0  0  0
    0.9555    0.2884   -1.3867 C   0  0  0  0  0  0  0  0  0  0  0  0
    1.5380    1.4082   -0.8587 O   0  0  0  0  0  0  0  0  0  0  0  0
   -2.3608    1.9647   -0.0542 H   0  0  0  0  0  0  0  0  0  0  0  0
   -3.0874    0.3514    0.2221 H   0  0  0  0  0  0  0  0  0  0  0  0
   -2.3018    0.6939   -1.3292 H   0  0  0  0  0  0  0  0  0  0  0  0
   -0.2952    1.1714    0.7994 H   0  0  0  0  0  0  0  0  0  0  0  0
   -1.9077   -1.1307    1.0060 H   0  0  0  0  0  0  0  0  0  0  0  0
   -0.9170   -0.8783   -1.4661 H   0  0  0  0  0  0  0  0  0  0  0  0
    1.3080   -1.9266   -1.2193 H   0  0  0  0  0  0  0  0  0  0  0  0
    1.5623   -1.5870    1.4196 H   0  0  0  0  0  0  0  0  0  0  0  0
    2.0089    0.1350    0.9972 H   0  0  0  0  0  0  0  0  0  0  0  0
    2.9971   -1.1952    0.3697 H   0  0  0  0  0  0  0  0  0  0  0  0
    1.0678    0.2066   -2.5011 H   0  0  0  0  0  0  0  0  0  0  0  0
    0.9218    2.1025   -0.5473 H   0  0  0  0  0  0  0  0  0  0  0  0
  1  2  1  0
  2  3  1  0
  2  4  1  0
  4  5  1  0
  5  6  1  0
  5  7  1  0
  7  8  1  0
  7  4  1  0
  1  9  1  0
  1 10  1  0
  1 11  1  0
  2 12  1  0
  3 13  1  0
  4 14  1  0
  5 15  1  0
  6 16  1  0
  6 17  1  0
  6 18  1  0
  7 19  1  0
  8 20  1  0
M  END
