
     RDKit          3D

 23 23  0  0  0  0  0  0  0  0999 V2000
    2.1288   -0.7112    0.2603 C   0  0  0  0  0  0  0  0  0  0  0  0
    0.7044   -0.7701   -0.2019 C   0  0  0  0  0  0  0  0  0  0  0  0
    0.1312   -1.9305    0.3187 O   0  0  0  0  0  0  0  0  0  0  0  0
   -0.0987    0.4486    0.1295 C   0  0  0  0  0  0  0  0  0  0  0  0
    0.5284    1.6613   -0.5224 C   0  0  0  0  0  0  0  0  0  0  0  0
   -0.2024    0.7318    1.6010 C   0  0  0  0  0  0  0  0  0  0  0  0
   -1.4772    0.2739   -0.4510 C   0  0  0  0  0  0  0  0  0  0  0  0
   -2.3707   -0.7990   -0.0960 C   0  0  0  0  0  0  0  0  0  0  0  0
   -2.5912    0.6025    0.2848 O   0  0  0  0  0  0  0  0  0  0  0  0
    2.2546   -1.0116    1.3200 H   0  0  0  0  0  0  0  0  0  0  0  0
    2.6802   -1.5006   -0.3303 H   0  0  0  0  0  0  0  0  0  0  0  0
    2.6337    0.2403    0.0213 H   0  0  0  0  0  0  0  0  0  0  0  0
    0.7176   -0.8987   -1.3039 H   0  0  0  0  0  0  0  0  0  0  0  0
    0.5997   -2.6955   -0.1334 H   0  0  0  0  0  0  0  0  0  0  0  0
   -0.2012    2.4965   -0.4992 H   0  0  0  0  0  0  0  0  0  0  0  0
    1.4977    1.9361   -0.0674 H   0  0  0  0  0  0  0  0  0  0  0  0
    0.7696    1.3506   -1.5771 H   0  0  0  0  0  0  0  0  0  0  0  0
    0.7573    1.0620    2.0176 H   0  0  0  0  0  0  0  0  0  0  0  0
   -0.6243   -0.1221    2.1580 H   0  0  0  0  0  0  0  0  0  0  0  0
   -0.9045    1.5872    1.7154 H   0  0  0  0  0  0  0  0  0  0  0  0
   -1.5332    0.6177   -1.5272 H   0  0  0  0  0  0  0  0  0  0  0  0
   -3.1074   -1.1692   -0.8335 H   0  0  0  0  0  0  0  0  0  0  0  0
   -2.2923   -1.4002    0.8199 H   0  0  0  0  0  0  0  0  0  0  0  0
  1  2  1  0
  2  3  1  0
  2  4  1  0
  4  5  1  0
  4  6  1  0
  4  7  1  0
  7  8  1  0
  8  9  1  0
  9  7  1  0
  1 10  1  0
  1 11  1  0
  1 12  1  0
  2 13  1  0
  3 14  1  0
  5 15  1  0
  5 16  1  0
  5 17  1  0
  6 18  1  0
  6 19  1  0
  6 20  1  0
  7 21  1  0
  8 22  1  0
  8 23  1  0
M  END
