
     RDKit          3D

 23 24  0  0  0  0  0  0  0  0999 V2000
    2.1663    0.6887   -0.2802 C   0  0  0  0  0  0  0  0  0  0  0  0
    0.9581    0.4756    0.6055 C   0  0  0  0  0  0  0  0  0  0  0  0
    1.4254    0.0902    1.8737 O   0  0  0  0  0  0  0  0  0  0  0  0
    0.0379   -0.5887    0.0827 C   0  0  0  0  0  0  0  0  0  0  0  0
    0.6829   -1.9507   -0.0484 C   0  0  0  0  0  0  0  0  0  0  0  0
   -0.9122   -0.2312   -0.9842 C   0  0  0  0  0  0  0  0  0  0  0  0
   -1.5632    1.1132   -0.9048 C   0  0  0  0  0  0  0  0  0  0  0  0
   -2.2057    0.6836    0.3974 C   0  0  0  0  0  0  0  0  0  0  0  0
   -1.4024   -0.5864    0.4254 C   0  0  0  0  0  0  0  0  0  0  0  0
    2.5403    1.7186   -0.0879 H   0  0  0  0  0  0  0  0  0  0  0  0
    3.0015    0.0092   -0.0201 H   0  0  0  0  0  0  0  0  0  0  0  0
    1.8588    0.6074   -1.3470 H   0  0  0  0  0  0  0  0  0  0  0  0
    0.4333    1.4591    0.6710 H   0  0  0  0  0  0  0  0  0  0  0  0
    2.0973    0.7307    2.2180 H   0  0  0  0  0  0  0  0  0  0  0  0
    1.3524   -1.9076   -0.9328 H   0  0  0  0  0  0  0  0  0  0  0  0
    1.2629   -2.2467    0.8324 H   0  0  0  0  0  0  0  0  0  0  0  0
   -0.1042   -2.7040   -0.3120 H   0  0  0  0  0  0  0  0  0  0  0  0
   -1.2348   -0.9616   -1.7541 H   0  0  0  0  0  0  0  0  0  0  0  0
   -0.9077    1.9858   -0.7730 H   0  0  0  0  0  0  0  0  0  0  0  0
   -2.2879    1.3271   -1.7213 H   0  0  0  0  0  0  0  0  0  0  0  0
   -2.0129    1.3722    1.2574 H   0  0  0  0  0  0  0  0  0  0  0  0
   -3.2764    0.4533    0.2194 H   0  0  0  0  0  0  0  0  0  0  0  0
   -1.9098   -1.5377    0.5828 H   0  0  0  0  0  0  0  0  0  0  0  0
  1  2  1  0
  2  3  1  0
  2  4  1  0
  4  5  1  0
  4  6  1  0
  6  7  1  0
  7  8  1  0
  8  9  1  0
  9  4  1  0
  9  6  1  0
  1 10  1  0
  1 11  1  0
  1 12  1  0
  2 13  1  0
  3 14  1  0
  5 15  1  0
  5 16  1  0
  5 17  1  0
  6 18  1  0
  7 19  1  0
  7 20  1  0
  8 21  1  0
  8 22  1  0
  9 23  1  0
M  END
