
     RDKit          3D

 19 20  0  0  0  0  0  0  0  0999 V2000
    2.1928   -0.1517   -0.6010 C   0  0  0  0  0  0  0  0  0  0  0  0
    1.1427    0.0721    0.4482 C   0  0  0  0  0  0  0  0  0  0  0  0
    1.2583   -0.9301    1.4008 O   0  0  0  0  0  0  0  0  0  0  0  0
   -0.2429    0.1117   -0.1461 C   0  0  0  0  0  0  0  0  0  0  0  0
   -0.8214    1.5018   -0.4381 C   0  0  0  0  0  0  0  0  0  0  0  0
   -1.3781    0.6354    0.6400 C   0  0  0  0  0  0  0  0  0  0  0  0
   -2.5042   -0.0966    0.2723 O   0  0  0  0  0  0  0  0  0  0  0  0
   -2.0391   -1.1990   -0.3964 C   0  0  0  0  0  0  0  0  0  0  0  0
   -0.7497   -0.9776   -0.8024 O   0  0  0  0  0  0  0  0  0  0  0  0
    1.9480    0.2813   -1.5800 H   0  0  0  0  0  0  0  0  0  0  0  0
    3.1813    0.2890   -0.2791 H   0  0  0  0  0  0  0  0  0  0  0  0
    2.3318   -1.2439   -0.7202 H   0  0  0  0  0  0  0  0  0  0  0  0
    1.3535    1.0412    0.9449 H   0  0  0  0  0  0  0  0  0  0  0  0
    1.9715   -0.6685    2.0391 H   0  0  0  0  0  0  0  0  0  0  0  0
   -0.2061    2.3597   -0.1637 H   0  0  0  0  0  0  0  0  0  0  0  0
   -1.3763    1.5919   -1.3893 H   0  0  0  0  0  0  0  0  0  0  0  0
   -1.2201    0.8520    1.7056 H   0  0  0  0  0  0  0  0  0  0  0  0
   -2.1015   -2.0663    0.3230 H   0  0  0  0  0  0  0  0  0  0  0  0
   -2.7404   -1.4022   -1.2577 H   0  0  0  0  0  0  0  0  0  0  0  0
  1  2  1  0
  2  3  1  0
  2  4  1  0
  4  5  1  0
  5  6  1  0
  6  7  1  0
  7  8  1  0
  8  9  1  0
  6  4  1  0
  9  4  1  0
  1 10  1  0
  1 11  1  0
  1 12  1  0
  2 13  1  0
  3 14  1  0
  5 15  1  0
  5 16  1  0
  6 17  1  0
  8 18  1  0
  8 19  1  0
M  END
