
     RDKit          3D

 23 24  0  0  0  0  0  0  0  0999 V2000
    2.8175   -0.4869    0.0021 C   0  0  0  0  0  0  0  0  0  0  0  0
    1.7740    0.5833   -0.3872 C   0  0  0  0  0  0  0  0  0  0  0  0
    1.8727    1.5302    0.6189 O   0  0  0  0  0  0  0  0  0  0  0  0
    0.4947   -0.1273   -0.5121 C   0  0  0  0  0  0  0  0  0  0  0  0
   -0.7590    0.5606   -0.8856 C   0  0  0  0  0  0  0  0  0  0  0  0
   -0.8819    1.0377    0.5148 C   0  0  0  0  0  0  0  0  0  0  0  0
   -0.3714   -0.3333    0.6896 C   0  0  0  0  0  0  0  0  0  0  0  0
   -1.4086   -0.7124   -0.3605 C   0  0  0  0  0  0  0  0  0  0  0  0
   -2.8288   -0.6026    0.0530 C   0  0  0  0  0  0  0  0  0  0  0  0
    2.5115   -0.8399    1.0067 H   0  0  0  0  0  0  0  0  0  0  0  0
    2.7702   -1.3283   -0.7278 H   0  0  0  0  0  0  0  0  0  0  0  0
    3.7997   -0.0243    0.0846 H   0  0  0  0  0  0  0  0  0  0  0  0
    2.0826    1.0153   -1.3767 H   0  0  0  0  0  0  0  0  0  0  0  0
    1.8826    1.0264    1.4909 H   0  0  0  0  0  0  0  0  0  0  0  0
    0.5733   -1.0765   -1.1442 H   0  0  0  0  0  0  0  0  0  0  0  0
   -1.0032    1.0247   -1.7365 H   0  0  0  0  0  0  0  0  0  0  0  0
   -1.9611    1.1863    0.8555 H   0  0  0  0  0  0  0  0  0  0  0  0
   -0.3319    1.9056    0.8525 H   0  0  0  0  0  0  0  0  0  0  0  0
   -0.1709   -0.8583    1.5145 H   0  0  0  0  0  0  0  0  0  0  0  0
   -1.1491   -1.5526   -1.0077 H   0  0  0  0  0  0  0  0  0  0  0  0
   -2.9692   -0.5615    1.1674 H   0  0  0  0  0  0  0  0  0  0  0  0
   -3.3412   -1.5637   -0.2479 H   0  0  0  0  0  0  0  0  0  0  0  0
   -3.4024    0.1974   -0.4643 H   0  0  0  0  0  0  0  0  0  0  0  0
  1  2  1  0
  2  3  1  0
  2  4  1  0
  4  5  1  0
  5  6  1  0
  6  7  1  0
  7  8  1  0
  8  9  1  0
  7  4  1  0
  8  5  1  0
  1 10  1  0
  1 11  1  0
  1 12  1  0
  2 13  1  0
  3 14  1  0
  4 15  1  0
  5 16  1  0
  6 17  1  0
  6 18  1  0
  7 19  1  0
  8 20  1  0
  9 21  1  0
  9 22  1  0
  9 23  1  0
M  END
