
     RDKit          3D

 13 12  0  0  0  0  0  0  0  0999 V2000
   -1.0144   -0.8722    0.1945 C   0  0  0  0  0  0  0  0  0  0  0  0
    0.1835   -0.0262   -0.1762 C   0  0  0  0  0  0  0  0  0  0  0  0
    1.0595   -0.8102   -0.9155 O   0  0  0  0  0  0  0  0  0  0  0  0
   -0.2093    1.1452   -0.9937 C   0  0  0  0  0  0  0  0  0  0  0  0
    0.2507    1.2539   -2.1114 O   0  0  0  0  0  0  0  0  0  0  0  0
    0.8694    0.5104    1.0398 C   0  0  0  0  0  0  0  0  0  0  0  0
    0.1935    1.2179    1.7704 O   0  0  0  0  0  0  0  0  0  0  0  0
   -0.8963   -1.9304   -0.1431 H   0  0  0  0  0  0  0  0  0  0  0  0
   -1.8963   -0.4300   -0.3097 H   0  0  0  0  0  0  0  0  0  0  0  0
   -1.1433   -0.8610    1.2930 H   0  0  0  0  0  0  0  0  0  0  0  0
    1.5974   -1.3810   -0.3245 H   0  0  0  0  0  0  0  0  0  0  0  0
   -0.9042    1.8968   -0.5892 H   0  0  0  0  0  0  0  0  0  0  0  0
    1.9098    0.2868    1.2656 H   0  0  0  0  0  0  0  0  0  0  0  0
  1  2  1  0
  2  3  1  0
  2  4  1  0
  4  5  2  0
  2  6  1  0
  6  7  2  0
  1  8  1  0
  1  9  1  0
  1 10  1  0
  3 11  1  0
  4 12  1  0
  6 13  1  0
M  END
