
     RDKit          3D

 18 19  0  0  0  0  0  0  0  0999 V2000
   -1.9408    0.5281   -0.2103 C   0  0  0  0  0  0  0  0  0  0  0  0
   -1.1827   -0.5026    0.5489 C   0  0  0  0  0  0  0  0  0  0  0  0
   -1.2767   -1.7773   -0.0577 O   0  0  0  0  0  0  0  0  0  0  0  0
    0.2571   -0.2139    0.7491 C   0  0  0  0  0  0  0  0  0  0  0  0
    1.0467   -0.0648   -0.5525 C   0  0  0  0  0  0  0  0  0  0  0  0
    2.5109   -0.0298   -0.3798 C   0  0  0  0  0  0  0  0  0  0  0  0
    2.3299    1.0206    0.5496 O   0  0  0  0  0  0  0  0  0  0  0  0
    0.9217    1.0363    0.4043 C   0  0  0  0  0  0  0  0  0  0  0  0
   -3.0312    0.5430    0.0783 H   0  0  0  0  0  0  0  0  0  0  0  0
   -1.5383    1.5473   -0.1098 H   0  0  0  0  0  0  0  0  0  0  0  0
   -1.9551    0.2059   -1.2910 H   0  0  0  0  0  0  0  0  0  0  0  0
   -1.6834   -0.6291    1.5424 H   0  0  0  0  0  0  0  0  0  0  0  0
   -2.2221   -1.9867   -0.2996 H   0  0  0  0  0  0  0  0  0  0  0  0
    0.7565   -0.8183    1.5615 H   0  0  0  0  0  0  0  0  0  0  0  0
    0.5365   -0.1186   -1.5059 H   0  0  0  0  0  0  0  0  0  0  0  0
    2.8908   -0.9652    0.0817 H   0  0  0  0  0  0  0  0  0  0  0  0
    3.1384    0.2578   -1.2288 H   0  0  0  0  0  0  0  0  0  0  0  0
    0.4417    1.9672    0.1195 H   0  0  0  0  0  0  0  0  0  0  0  0
  1  2  1  0
  2  3  1  0
  2  4  1  0
  4  5  1  0
  5  6  1  0
  6  7  1  0
  7  8  1  0
  8  4  1  0
  8  5  1  0
  1  9  1  0
  1 10  1  0
  1 11  1  0
  2 12  1  0
  3 13  1  0
  4 14  1  0
  5 15  1  0
  6 16  1  0
  6 17  1  0
  8 18  1  0
M  END
