
     RDKit          3D

 23 23  0  0  0  0  0  0  0  0999 V2000
   -2.7370    0.7909    0.9513 C   0  0  0  0  0  0  0  0  0  0  0  0
   -1.8897    0.4714   -0.2599 C   0  0  0  0  0  0  0  0  0  0  0  0
   -2.2113   -0.7826   -0.7306 O   0  0  0  0  0  0  0  0  0  0  0  0
   -0.4172    0.5903    0.0291 C   0  0  0  0  0  0  0  0  0  0  0  0
    0.4160   -0.1400   -1.0229 C   0  0  0  0  0  0  0  0  0  0  0  0
    1.2514   -0.3636    0.2173 C   0  0  0  0  0  0  0  0  0  0  0  0
    2.2389    0.7644    0.3780 C   0  0  0  0  0  0  0  0  0  0  0  0
    1.9717   -1.6863    0.2777 C   0  0  0  0  0  0  0  0  0  0  0  0
    0.0991   -0.2732    0.9650 O   0  0  0  0  0  0  0  0  0  0  0  0
   -3.7990    0.6567    0.6315 H   0  0  0  0  0  0  0  0  0  0  0  0
   -2.5026    0.0360    1.7490 H   0  0  0  0  0  0  0  0  0  0  0  0
   -2.6300    1.8253    1.2915 H   0  0  0  0  0  0  0  0  0  0  0  0
   -2.1377    1.2121   -1.0466 H   0  0  0  0  0  0  0  0  0  0  0  0
   -2.5251   -1.3314    0.0132 H   0  0  0  0  0  0  0  0  0  0  0  0
   -0.1391    1.6254    0.2142 H   0  0  0  0  0  0  0  0  0  0  0  0
   -0.0733   -1.0691   -1.3173 H   0  0  0  0  0  0  0  0  0  0  0  0
    0.8452    0.4931   -1.7970 H   0  0  0  0  0  0  0  0  0  0  0  0
    1.8860    1.7251   -0.0101 H   0  0  0  0  0  0  0  0  0  0  0  0
    2.6195    0.8874    1.3918 H   0  0  0  0  0  0  0  0  0  0  0  0
    3.1284    0.4866   -0.2606 H   0  0  0  0  0  0  0  0  0  0  0  0
    2.7734   -1.5660    1.0641 H   0  0  0  0  0  0  0  0  0  0  0  0
    2.5200   -1.8169   -0.6719 H   0  0  0  0  0  0  0  0  0  0  0  0
    1.3123   -2.5357    0.5114 H   0  0  0  0  0  0  0  0  0  0  0  0
  1  2  1  0
  2  3  1  0
  2  4  1  0
  4  5  1  0
  5  6  1  0
  6  7  1  0
  6  8  1  0
  6  9  1  0
  9  4  1  0
  1 10  1  0
  1 11  1  0
  1 12  1  0
  2 13  1  0
  3 14  1  0
  4 15  1  0
  5 16  1  0
  5 17  1  0
  7 18  1  0
  7 19  1  0
  7 20  1  0
  8 21  1  0
  8 22  1  0
  8 23  1  0
M  END
