
     RDKit          3D

 17 16  0  0  0  0  0  0  0  0999 V2000
   -1.3493   -1.0542   -0.5093 C   0  0  0  0  0  0  0  0  0  0  0  0
   -0.7900   -0.0067    0.3862 C   0  0  0  0  0  0  0  0  0  0  0  0
   -0.6557   -0.5499    1.6632 O   0  0  0  0  0  0  0  0  0  0  0  0
   -1.7365    1.1494    0.3937 C   0  0  0  0  0  0  0  0  0  0  0  0
   -1.9275    1.7021   -0.6817 O   0  0  0  0  0  0  0  0  0  0  0  0
    0.5507    0.5136   -0.0350 C   0  0  0  0  0  0  0  0  0  0  0  0
    1.5380   -0.4990   -0.0720 O   0  0  0  0  0  0  0  0  0  0  0  0
    2.8368   -0.1845   -0.4431 C   0  0  0  0  0  0  0  0  0  0  0  0
    3.0973    1.0103   -0.7390 O   0  0  0  0  0  0  0  0  0  0  0  0
   -1.3725   -0.7569   -1.5817 H   0  0  0  0  0  0  0  0  0  0  0  0
   -0.8835   -2.0578   -0.3722 H   0  0  0  0  0  0  0  0  0  0  0  0
   -2.4293   -1.1939   -0.2249 H   0  0  0  0  0  0  0  0  0  0  0  0
    0.2727   -0.8725    1.7599 H   0  0  0  0  0  0  0  0  0  0  0  0
   -2.1998    1.4422    1.3188 H   0  0  0  0  0  0  0  0  0  0  0  0
    0.8944    1.2954    0.6713 H   0  0  0  0  0  0  0  0  0  0  0  0
    0.5217    0.9790   -1.0449 H   0  0  0  0  0  0  0  0  0  0  0  0
    3.6324   -0.9168   -0.4893 H   0  0  0  0  0  0  0  0  0  0  0  0
  1  2  1  0
  2  3  1  0
  2  4  1  0
  4  5  2  0
  2  6  1  0
  6  7  1  0
  7  8  1  0
  8  9  2  0
  1 10  1  0
  1 11  1  0
  1 12  1  0
  3 13  1  0
  4 14  1  0
  6 15  1  0
  6 16  1  0
  8 17  1  0
M  END
