
     RDKit          3D

 23 23  0  0  0  0  0  0  0  0999 V2000
   -2.9901    0.5274   -0.3336 C   0  0  0  0  0  0  0  0  0  0  0  0
   -1.8128   -0.2113    0.3142 C   0  0  0  0  0  0  0  0  0  0  0  0
   -1.9806   -0.1390    1.6738 O   0  0  0  0  0  0  0  0  0  0  0  0
   -0.5667    0.4267   -0.1934 C   0  0  0  0  0  0  0  0  0  0  0  0
    0.7008   -0.1673    0.3351 C   0  0  0  0  0  0  0  0  0  0  0  0
    0.8691   -1.6218    0.0075 C   0  0  0  0  0  0  0  0  0  0  0  0
    1.8579    0.5850   -0.2416 C   0  0  0  0  0  0  0  0  0  0  0  0
    3.2521    0.2741    0.0596 C   0  0  0  0  0  0  0  0  0  0  0  0
    2.6084    1.4225    0.7272 O   0  0  0  0  0  0  0  0  0  0  0  0
   -3.8672    0.5483    0.3423 H   0  0  0  0  0  0  0  0  0  0  0  0
   -2.7172    1.6103   -0.4903 H   0  0  0  0  0  0  0  0  0  0  0  0
   -3.3027    0.0532   -1.2723 H   0  0  0  0  0  0  0  0  0  0  0  0
   -1.8744   -1.2605   -0.0633 H   0  0  0  0  0  0  0  0  0  0  0  0
   -1.8757    0.7911    1.9585 H   0  0  0  0  0  0  0  0  0  0  0  0
   -0.5789    1.5005    0.0815 H   0  0  0  0  0  0  0  0  0  0  0  0
   -0.5895    0.3905   -1.3039 H   0  0  0  0  0  0  0  0  0  0  0  0
    0.7078   -0.0376    1.4363 H   0  0  0  0  0  0  0  0  0  0  0  0
    1.4171   -2.1040    0.8630 H   0  0  0  0  0  0  0  0  0  0  0  0
    1.5267   -1.7806   -0.8827 H   0  0  0  0  0  0  0  0  0  0  0  0
   -0.0528   -2.1713   -0.1561 H   0  0  0  0  0  0  0  0  0  0  0  0
    1.6638    1.2047   -1.1354 H   0  0  0  0  0  0  0  0  0  0  0  0
    3.5758   -0.4719    0.7869 H   0  0  0  0  0  0  0  0  0  0  0  0
    4.0292    0.6308   -0.6245 H   0  0  0  0  0  0  0  0  0  0  0  0
  1  2  1  0
  2  3  1  0
  2  4  1  0
  4  5  1  0
  5  6  1  0
  5  7  1  0
  7  8  1  0
  8  9  1  0
  9  7  1  0
  1 10  1  0
  1 11  1  0
  1 12  1  0
  2 13  1  0
  3 14  1  0
  4 15  1  0
  4 16  1  0
  5 17  1  0
  6 18  1  0
  6 19  1  0
  6 20  1  0
  7 21  1  0
  8 22  1  0
  8 23  1  0
M  END
