
     RDKit          3D

 21 20  0  0  0  0  0  0  0  0999 V2000
    2.8426   -0.6048    0.6897 C   0  0  0  0  0  0  0  0  0  0  0  0
    1.8374    0.5016    0.5494 C   0  0  0  0  0  0  0  0  0  0  0  0
    2.2623    1.3121   -0.5143 O   0  0  0  0  0  0  0  0  0  0  0  0
    0.4644   -0.0121    0.3060 C   0  0  0  0  0  0  0  0  0  0  0  0
   -0.0049   -0.7303    1.1715 O   0  0  0  0  0  0  0  0  0  0  0  0
   -0.3234    0.2979   -0.8911 C   0  0  0  0  0  0  0  0  0  0  0  0
   -1.6916   -0.3201   -0.8745 C   0  0  0  0  0  0  0  0  0  0  0  0
   -2.5693    0.1105    0.2477 C   0  0  0  0  0  0  0  0  0  0  0  0
   -3.8027   -0.5539    0.1164 O   0  0  0  0  0  0  0  0  0  0  0  0
    2.5109   -1.4625    0.0914 H   0  0  0  0  0  0  0  0  0  0  0  0
    3.8665   -0.2798    0.3458 H   0  0  0  0  0  0  0  0  0  0  0  0
    2.9897   -0.9235    1.7519 H   0  0  0  0  0  0  0  0  0  0  0  0
    1.8507    1.1036    1.4801 H   0  0  0  0  0  0  0  0  0  0  0  0
    2.3822    2.2543   -0.2395 H   0  0  0  0  0  0  0  0  0  0  0  0
   -0.3516    1.3835   -1.1358 H   0  0  0  0  0  0  0  0  0  0  0  0
    0.2107   -0.1695   -1.7696 H   0  0  0  0  0  0  0  0  0  0  0  0
   -2.2395   -0.1579   -1.8348 H   0  0  0  0  0  0  0  0  0  0  0  0
   -1.5751   -1.4367   -0.7832 H   0  0  0  0  0  0  0  0  0  0  0  0
   -2.8048    1.1970    0.0967 H   0  0  0  0  0  0  0  0  0  0  0  0
   -2.1833    0.0104    1.2536 H   0  0  0  0  0  0  0  0  0  0  0  0
   -3.6710   -1.5199   -0.0574 H   0  0  0  0  0  0  0  0  0  0  0  0
  1  2  1  0
  2  3  1  0
  2  4  1  0
  4  5  2  0
  4  6  1  0
  6  7  1  0
  7  8  1  0
  8  9  1  0
  1 10  1  0
  1 11  1  0
  1 12  1  0
  2 13  1  0
  3 14  1  0
  6 15  1  0
  6 16  1  0
  7 17  1  0
  7 18  1  0
  8 19  1  0
  8 20  1  0
  9 21  1  0
M  END
