
     RDKit          3D

 21 22  0  0  0  0  0  0  0  0999 V2000
   -2.5583    0.9251    0.7442 C   0  0  0  0  0  0  0  0  0  0  0  0
   -1.8164   -0.2851    0.1737 C   0  0  0  0  0  0  0  0  0  0  0  0
   -2.4023   -0.5717   -1.0495 O   0  0  0  0  0  0  0  0  0  0  0  0
   -0.3920    0.1121   -0.0779 C   0  0  0  0  0  0  0  0  0  0  0  0
    0.5708   -1.0443   -0.2706 C   0  0  0  0  0  0  0  0  0  0  0  0
    1.4235   -0.1022    0.4584 C   0  0  0  0  0  0  0  0  0  0  0  0
    2.7397   -0.2851    0.9841 C   0  0  0  0  0  0  0  0  0  0  0  0
    2.4480    0.7590   -0.1362 C   0  0  0  0  0  0  0  0  0  0  0  0
    0.3363    0.4347    1.0812 O   0  0  0  0  0  0  0  0  0  0  0  0
   -2.4054    1.7708    0.0474 H   0  0  0  0  0  0  0  0  0  0  0  0
   -3.6346    0.7142    0.7898 H   0  0  0  0  0  0  0  0  0  0  0  0
   -2.2222    1.1561    1.7760 H   0  0  0  0  0  0  0  0  0  0  0  0
   -1.8468   -1.1237    0.8775 H   0  0  0  0  0  0  0  0  0  0  0  0
   -2.7729   -1.4924   -1.0995 H   0  0  0  0  0  0  0  0  0  0  0  0
   -0.2609    0.8410   -0.8816 H   0  0  0  0  0  0  0  0  0  0  0  0
    0.8108   -1.2850   -1.3218 H   0  0  0  0  0  0  0  0  0  0  0  0
    0.2232   -1.9330    0.2938 H   0  0  0  0  0  0  0  0  0  0  0  0
    3.3669   -1.1493    0.6492 H   0  0  0  0  0  0  0  0  0  0  0  0
    3.0595    0.1598    1.9369 H   0  0  0  0  0  0  0  0  0  0  0  0
    2.4266    1.8284    0.2041 H   0  0  0  0  0  0  0  0  0  0  0  0
    2.9065    0.5704   -1.1139 H   0  0  0  0  0  0  0  0  0  0  0  0
  1  2  1  0
  2  3  1  0
  2  4  1  0
  4  5  1  0
  5  6  1  0
  6  7  1  0
  7  8  1  0
  6  9  1  0
  9  4  1  0
  8  6  1  0
  1 10  1  0
  1 11  1  0
  1 12  1  0
  2 13  1  0
  3 14  1  0
  4 15  1  0
  5 16  1  0
  5 17  1  0
  7 18  1  0
  7 19  1  0
  8 20  1  0
  8 21  1  0
M  END
