
     RDKit          3D

 23 22  0  0  0  0  0  0  0  0999 V2000
   -2.2646    0.6230    0.3897 C   0  0  0  0  0  0  0  0  0  0  0  0
   -0.8296    0.7938   -0.0621 C   0  0  0  0  0  0  0  0  0  0  0  0
   -0.7912    1.0496   -1.4191 O   0  0  0  0  0  0  0  0  0  0  0  0
   -0.0807   -0.4788    0.2571 C   0  0  0  0  0  0  0  0  0  0  0  0
   -0.7774   -1.6126   -0.4778 C   0  0  0  0  0  0  0  0  0  0  0  0
   -0.0854   -0.7841    1.5950 O   0  0  0  0  0  0  0  0  0  0  0  0
    1.3405   -0.4464   -0.2287 C   0  0  0  0  0  0  0  0  0  0  0  0
    2.1336    0.6825    0.3910 C   0  0  0  0  0  0  0  0  0  0  0  0
    3.4301    0.6313   -0.1170 O   0  0  0  0  0  0  0  0  0  0  0  0
   -2.8845    0.1775   -0.4349 H   0  0  0  0  0  0  0  0  0  0  0  0
   -2.7349    1.6056    0.6180 H   0  0  0  0  0  0  0  0  0  0  0  0
   -2.3513   -0.0385    1.2678 H   0  0  0  0  0  0  0  0  0  0  0  0
   -0.4099    1.6762    0.4546 H   0  0  0  0  0  0  0  0  0  0  0  0
   -1.3232    0.3187   -1.8576 H   0  0  0  0  0  0  0  0  0  0  0  0
   -0.4921   -1.5448   -1.5465 H   0  0  0  0  0  0  0  0  0  0  0  0
   -0.3614   -2.5907   -0.1208 H   0  0  0  0  0  0  0  0  0  0  0  0
   -1.8771   -1.5957   -0.3234 H   0  0  0  0  0  0  0  0  0  0  0  0
   -0.2191   -0.0158    2.1988 H   0  0  0  0  0  0  0  0  0  0  0  0
    1.8039   -1.4153    0.0502 H   0  0  0  0  0  0  0  0  0  0  0  0
    1.3964   -0.3669   -1.3360 H   0  0  0  0  0  0  0  0  0  0  0  0
    1.7187    1.6672    0.1820 H   0  0  0  0  0  0  0  0  0  0  0  0
    2.1455    0.5607    1.4982 H   0  0  0  0  0  0  0  0  0  0  0  0
    3.5135    1.1035   -0.9786 H   0  0  0  0  0  0  0  0  0  0  0  0
  1  2  1  0
  2  3  1  0
  2  4  1  0
  4  5  1  0
  4  6  1  0
  4  7  1  0
  7  8  1  0
  8  9  1  0
  1 10  1  0
  1 11  1  0
  1 12  1  0
  2 13  1  0
  3 14  1  0
  5 15  1  0
  5 16  1  0
  5 17  1  0
  6 18  1  0
  7 19  1  0
  7 20  1  0
  8 21  1  0
  8 22  1  0
  9 23  1  0
M  END
