
     RDKit          3D

 19 21  0  0  0  0  0  0  0  0999 V2000
    2.2491   -0.7249    0.6806 C   0  0  0  0  0  0  0  0  0  0  0  0
    1.3731    0.3216    0.0225 C   0  0  0  0  0  0  0  0  0  0  0  0
    1.2920    1.4868    0.7829 O   0  0  0  0  0  0  0  0  0  0  0  0
   -0.0048   -0.2999   -0.1281 C   0  0  0  0  0  0  0  0  0  0  0  0
   -0.1434   -1.4599   -0.8458 O   0  0  0  0  0  0  0  0  0  0  0  0
   -0.6852   -0.3469   -1.4238 C   0  0  0  0  0  0  0  0  0  0  0  0
   -1.9785    0.1493   -0.8477 C   0  0  0  0  0  0  0  0  0  0  0  0
   -2.4682   -0.3679    0.4334 C   0  0  0  0  0  0  0  0  0  0  0  0
   -1.1929    0.3613    0.4876 C   0  0  0  0  0  0  0  0  0  0  0  0
    3.2208   -0.3211    1.0131 H   0  0  0  0  0  0  0  0  0  0  0  0
    2.3607   -1.5496   -0.0646 H   0  0  0  0  0  0  0  0  0  0  0  0
    1.6472   -1.1601    1.5108 H   0  0  0  0  0  0  0  0  0  0  0  0
    1.8277    0.5451   -0.9806 H   0  0  0  0  0  0  0  0  0  0  0  0
    2.0567    2.0789    0.6679 H   0  0  0  0  0  0  0  0  0  0  0  0
   -0.2162    0.1708   -2.2676 H   0  0  0  0  0  0  0  0  0  0  0  0
   -2.4466    1.0698   -1.2669 H   0  0  0  0  0  0  0  0  0  0  0  0
   -3.3942    0.1112    0.8365 H   0  0  0  0  0  0  0  0  0  0  0  0
   -2.3930   -1.4719    0.5834 H   0  0  0  0  0  0  0  0  0  0  0  0
   -1.1042    1.4073    0.8064 H   0  0  0  0  0  0  0  0  0  0  0  0
  1  2  1  0
  2  3  1  0
  2  4  1  0
  4  5  1  0
  5  6  1  0
  6  7  1  0
  7  8  1  0
  8  9  1  0
  6  4  1  0
  9  7  1  0
  9  4  1  0
  1 10  1  0
  1 11  1  0
  1 12  1  0
  2 13  1  0
  3 14  1  0
  6 15  1  0
  7 16  1  0
  8 17  1  0
  8 18  1  0
  9 19  1  0
M  END
