
     RDKit          3D

 21 21  0  0  0  0  0  0  0  0999 V2000
   -2.0584    0.0823    0.3139 C   0  0  0  0  0  0  0  0  0  0  0  0
   -0.9067   -0.0098   -0.6468 C   0  0  0  0  0  0  0  0  0  0  0  0
   -1.1211   -1.0616   -1.5371 O   0  0  0  0  0  0  0  0  0  0  0  0
    0.4002   -0.2981    0.0637 C   0  0  0  0  0  0  0  0  0  0  0  0
    0.3136   -1.5919    0.8259 C   0  0  0  0  0  0  0  0  0  0  0  0
    0.7283    0.8575    0.8997 C   0  0  0  0  0  0  0  0  0  0  0  0
    1.6061    1.6057    0.2540 C   0  0  0  0  0  0  0  0  0  0  0  0
    1.8709    0.9342   -1.0439 C   0  0  0  0  0  0  0  0  0  0  0  0
    1.3894   -0.3651   -0.8812 O   0  0  0  0  0  0  0  0  0  0  0  0
   -2.8493    0.7937   -0.0601 H   0  0  0  0  0  0  0  0  0  0  0  0
   -1.7862    0.4418    1.3130 H   0  0  0  0  0  0  0  0  0  0  0  0
   -2.5796   -0.8911    0.4563 H   0  0  0  0  0  0  0  0  0  0  0  0
   -0.8416    0.9625   -1.1758 H   0  0  0  0  0  0  0  0  0  0  0  0
   -1.8483   -1.6125   -1.2017 H   0  0  0  0  0  0  0  0  0  0  0  0
   -0.1475   -2.3462    0.1557 H   0  0  0  0  0  0  0  0  0  0  0  0
    1.3354   -1.9707    1.0675 H   0  0  0  0  0  0  0  0  0  0  0  0
   -0.3046   -1.5228    1.7419 H   0  0  0  0  0  0  0  0  0  0  0  0
    0.3403    1.1165    1.9106 H   0  0  0  0  0  0  0  0  0  0  0  0
    2.0634    2.5520    0.6027 H   0  0  0  0  0  0  0  0  0  0  0  0
    2.9779    0.8643   -1.1574 H   0  0  0  0  0  0  0  0  0  0  0  0
    1.4177    1.4592   -1.9009 H   0  0  0  0  0  0  0  0  0  0  0  0
  1  2  1  0
  2  3  1  0
  2  4  1  0
  4  5  1  0
  4  6  1  0
  6  7  2  0
  7  8  1  0
  8  9  1  0
  9  4  1  0
  1 10  1  0
  1 11  1  0
  1 12  1  0
  2 13  1  0
  3 14  1  0
  5 15  1  0
  5 16  1  0
  5 17  1  0
  6 18  1  0
  7 19  1  0
  8 20  1  0
  8 21  1  0
M  END
