
     RDKit          3D

 21 22  0  0  0  0  0  0  0  0999 V2000
    1.8009    1.0203   -0.4593 C   0  0  0  0  0  0  0  0  0  0  0  0
    1.6626   -0.4663   -0.6933 C   0  0  0  0  0  0  0  0  0  0  0  0
    2.4754   -1.1722    0.1708 O   0  0  0  0  0  0  0  0  0  0  0  0
    0.2130   -0.9173   -0.5414 C   0  0  0  0  0  0  0  0  0  0  0  0
   -0.4244   -0.7124    0.6888 C   0  0  0  0  0  0  0  0  0  0  0  0
   -0.8554    0.3631    1.5446 C   0  0  0  0  0  0  0  0  0  0  0  0
   -1.9724    0.8614    1.0374 C   0  0  0  0  0  0  0  0  0  0  0  0
   -2.2709    0.0592   -0.2236 C   0  0  0  0  0  0  0  0  0  0  0  0
   -0.8279    0.0071   -0.6430 C   0  0  0  0  0  0  0  0  0  0  0  0
    1.4262    1.5400   -1.3435 H   0  0  0  0  0  0  0  0  0  0  0  0
    2.8692    1.2545   -0.3292 H   0  0  0  0  0  0  0  0  0  0  0  0
    1.2932    1.3097    0.4894 H   0  0  0  0  0  0  0  0  0  0  0  0
    1.9804   -0.7048   -1.7276 H   0  0  0  0  0  0  0  0  0  0  0  0
    2.6547   -2.0953   -0.1251 H   0  0  0  0  0  0  0  0  0  0  0  0
    0.0640   -1.8853   -1.1116 H   0  0  0  0  0  0  0  0  0  0  0  0
   -1.0756   -1.6063    0.9890 H   0  0  0  0  0  0  0  0  0  0  0  0
   -0.3958    0.7390    2.4450 H   0  0  0  0  0  0  0  0  0  0  0  0
   -2.5665    1.6598    1.4093 H   0  0  0  0  0  0  0  0  0  0  0  0
   -2.6411   -0.9244    0.0749 H   0  0  0  0  0  0  0  0  0  0  0  0
   -2.9329    0.5886   -0.8976 H   0  0  0  0  0  0  0  0  0  0  0  0
   -0.4765    1.0815   -0.7537 H   0  0  0  0  0  0  0  0  0  0  0  0
  1  2  1  0
  2  3  1  0
  2  4  1  0
  4  5  1  0
  5  6  1  0
  6  7  2  0
  7  8  1  0
  8  9  1  0
  9  4  1  0
  9  5  1  0
  1 10  1  0
  1 11  1  0
  1 12  1  0
  2 13  1  0
  3 14  1  0
  4 15  1  0
  5 16  1  0
  6 17  1  0
  7 18  1  0
  8 19  1  0
  8 20  1  0
  9 21  1  0
M  END
