
     RDKit          3D

 21 21  0  0  0  0  0  0  0  0999 V2000
    1.3252   -1.1206   -0.7652 C   0  0  0  0  0  0  0  0  0  0  0  0
    1.1492   -0.4167    0.5243 C   0  0  0  0  0  0  0  0  0  0  0  0
    2.3442    0.1888    0.9047 O   0  0  0  0  0  0  0  0  0  0  0  0
   -0.0148    0.5143    0.5977 C   0  0  0  0  0  0  0  0  0  0  0  0
    0.0525    1.6287   -0.4316 C   0  0  0  0  0  0  0  0  0  0  0  0
   -1.1018    2.4179   -0.2413 O   0  0  0  0  0  0  0  0  0  0  0  0
   -1.3413   -0.1676    0.6163 C   0  0  0  0  0  0  0  0  0  0  0  0
   -1.8240   -1.0262   -0.4285 C   0  0  0  0  0  0  0  0  0  0  0  0
   -1.1363   -1.6362    0.7324 O   0  0  0  0  0  0  0  0  0  0  0  0
    0.9696   -0.5644   -1.6556 H   0  0  0  0  0  0  0  0  0  0  0  0
    0.8683   -2.1377   -0.7958 H   0  0  0  0  0  0  0  0  0  0  0  0
    2.4110   -1.2861   -0.9310 H   0  0  0  0  0  0  0  0  0  0  0  0
    0.9608   -1.2063    1.3111 H   0  0  0  0  0  0  0  0  0  0  0  0
    2.3027    0.4772    1.8640 H   0  0  0  0  0  0  0  0  0  0  0  0
    0.0848    1.0497    1.5919 H   0  0  0  0  0  0  0  0  0  0  0  0
    0.0953    1.2682   -1.4609 H   0  0  0  0  0  0  0  0  0  0  0  0
    0.8884    2.2836   -0.1417 H   0  0  0  0  0  0  0  0  0  0  0  0
   -1.7625    2.2119   -0.9236 H   0  0  0  0  0  0  0  0  0  0  0  0
   -2.1002    0.1725    1.3814 H   0  0  0  0  0  0  0  0  0  0  0  0
   -1.3005   -1.2780   -1.3491 H   0  0  0  0  0  0  0  0  0  0  0  0
   -2.8704   -1.3730   -0.3994 H   0  0  0  0  0  0  0  0  0  0  0  0
  1  2  1  0
  2  3  1  0
  2  4  1  0
  4  5  1  0
  5  6  1  0
  4  7  1  0
  7  8  1  0
  8  9  1  0
  9  7  1  0
  1 10  1  0
  1 11  1  0
  1 12  1  0
  2 13  1  0
  3 14  1  0
  4 15  1  0
  5 16  1  0
  5 17  1  0
  6 18  1  0
  7 19  1  0
  8 20  1  0
  8 21  1  0
M  END
