
     RDKit          3D

 17 16  0  0  0  0  0  0  0  0999 V2000
   -1.2653    0.1105    1.4085 C   0  0  0  0  0  0  0  0  0  0  0  0
   -1.3794    0.1956   -0.0938 C   0  0  0  0  0  0  0  0  0  0  0  0
   -1.1519   -1.0981   -0.5874 O   0  0  0  0  0  0  0  0  0  0  0  0
   -0.3176    1.0810   -0.7007 C   0  0  0  0  0  0  0  0  0  0  0  0
   -0.4882    1.0033   -2.0969 O   0  0  0  0  0  0  0  0  0  0  0  0
    0.9818    0.5382   -0.2971 C   0  0  0  0  0  0  0  0  0  0  0  0
    2.0553    0.0815    0.0532 C   0  0  0  0  0  0  0  0  0  0  0  0
    3.3213   -0.4636    0.4544 C   0  0  0  0  0  0  0  0  0  0  0  0
    3.9837   -1.1798   -0.3348 O   0  0  0  0  0  0  0  0  0  0  0  0
   -0.2257   -0.1602    1.6517 H   0  0  0  0  0  0  0  0  0  0  0  0
   -1.5021    1.0759    1.9055 H   0  0  0  0  0  0  0  0  0  0  0  0
   -2.0029   -0.6580    1.7381 H   0  0  0  0  0  0  0  0  0  0  0  0
   -2.3886    0.5667   -0.3677 H   0  0  0  0  0  0  0  0  0  0  0  0
   -1.4768   -1.2195   -1.4936 H   0  0  0  0  0  0  0  0  0  0  0  0
   -0.4250    2.1373   -0.3860 H   0  0  0  0  0  0  0  0  0  0  0  0
   -1.4600    0.9054   -2.2879 H   0  0  0  0  0  0  0  0  0  0  0  0
    3.7414   -0.2791    1.4344 H   0  0  0  0  0  0  0  0  0  0  0  0
  1  2  1  0
  2  3  1  0
  2  4  1  0
  4  5  1  0
  4  6  1  0
  6  7  3  0
  7  8  1  0
  8  9  2  0
  1 10  1  0
  1 11  1  0
  1 12  1  0
  2 13  1  0
  3 14  1  0
  4 15  1  0
  5 16  1  0
  8 17  1  0
M  END
