
     RDKit          3D

 27 26  0  0  0  0  0  0  0  0999 V2000
   -3.2968   -0.7754   -0.4838 C   0  0  0  0  0  0  0  0  0  0  0  0
   -2.1317   -0.1344    0.2347 C   0  0  0  0  0  0  0  0  0  0  0  0
   -2.3377    1.2450    0.2315 O   0  0  0  0  0  0  0  0  0  0  0  0
   -0.8146   -0.4957   -0.4325 C   0  0  0  0  0  0  0  0  0  0  0  0
    0.3419    0.1485    0.2913 C   0  0  0  0  0  0  0  0  0  0  0  0
    0.4192   -0.2998    1.7365 C   0  0  0  0  0  0  0  0  0  0  0  0
    1.6564   -0.1019   -0.3602 C   0  0  0  0  0  0  0  0  0  0  0  0
    2.7261    0.5986    0.4656 C   0  0  0  0  0  0  0  0  0  0  0  0
    1.7483    0.3572   -1.7789 C   0  0  0  0  0  0  0  0  0  0  0  0
   -3.0472   -1.8442   -0.6490 H   0  0  0  0  0  0  0  0  0  0  0  0
   -4.2078   -0.6147    0.1021 H   0  0  0  0  0  0  0  0  0  0  0  0
   -3.4303   -0.2440   -1.4626 H   0  0  0  0  0  0  0  0  0  0  0  0
   -2.1555   -0.5145    1.2856 H   0  0  0  0  0  0  0  0  0  0  0  0
   -1.8261    1.7094    0.9197 H   0  0  0  0  0  0  0  0  0  0  0  0
   -0.7514   -1.5958   -0.4417 H   0  0  0  0  0  0  0  0  0  0  0  0
   -0.8361   -0.0775   -1.4580 H   0  0  0  0  0  0  0  0  0  0  0  0
    0.1231    1.2422    0.3215 H   0  0  0  0  0  0  0  0  0  0  0  0
   -0.1696    0.3618    2.4078 H   0  0  0  0  0  0  0  0  0  0  0  0
    1.4734   -0.1981    2.0495 H   0  0  0  0  0  0  0  0  0  0  0  0
    0.1285   -1.3689    1.8395 H   0  0  0  0  0  0  0  0  0  0  0  0
    1.9143   -1.1806   -0.3374 H   0  0  0  0  0  0  0  0  0  0  0  0
    3.4592    1.1080   -0.2171 H   0  0  0  0  0  0  0  0  0  0  0  0
    2.2958    1.4055    1.0956 H   0  0  0  0  0  0  0  0  0  0  0  0
    3.2822   -0.0836    1.1150 H   0  0  0  0  0  0  0  0  0  0  0  0
    1.5689   -0.5126   -2.4735 H   0  0  0  0  0  0  0  0  0  0  0  0
    1.0733    1.1901   -2.0284 H   0  0  0  0  0  0  0  0  0  0  0  0
    2.7941    0.6751   -1.9726 H   0  0  0  0  0  0  0  0  0  0  0  0
  1  2  1  0
  2  3  1  0
  2  4  1  0
  4  5  1  0
  5  6  1  0
  5  7  1  0
  7  8  1  0
  7  9  1  0
  1 10  1  0
  1 11  1  0
  1 12  1  0
  2 13  1  0
  3 14  1  0
  4 15  1  0
  4 16  1  0
  5 17  1  0
  6 18  1  0
  6 19  1  0
  6 20  1  0
  7 21  1  0
  8 22  1  0
  8 23  1  0
  8 24  1  0
  9 25  1  0
  9 26  1  0
  9 27  1  0
M  END
