
     RDKit          3D

 23 23  0  0  0  0  0  0  0  0999 V2000
   -2.2160    0.8694    0.3380 C   0  0  0  0  0  0  0  0  0  0  0  0
   -1.3245   -0.2049   -0.1983 C   0  0  0  0  0  0  0  0  0  0  0  0
   -0.8307    0.2011   -1.4455 O   0  0  0  0  0  0  0  0  0  0  0  0
   -0.2264   -0.6127    0.7207 C   0  0  0  0  0  0  0  0  0  0  0  0
    0.5754   -1.7034    0.0238 C   0  0  0  0  0  0  0  0  0  0  0  0
    1.5695   -1.1078   -0.9116 C   0  0  0  0  0  0  0  0  0  0  0  0
    1.9671    0.1394   -0.8867 C   0  0  0  0  0  0  0  0  0  0  0  0
    1.4678    1.1305    0.0935 C   0  0  0  0  0  0  0  0  0  0  0  0
    0.6428    0.5215    1.1792 C   0  0  0  0  0  0  0  0  0  0  0  0
   -2.8758    0.4242    1.1123 H   0  0  0  0  0  0  0  0  0  0  0  0
   -1.7142    1.7862    0.6396 H   0  0  0  0  0  0  0  0  0  0  0  0
   -2.9112    1.1568   -0.5043 H   0  0  0  0  0  0  0  0  0  0  0  0
   -1.9539   -1.0964   -0.3969 H   0  0  0  0  0  0  0  0  0  0  0  0
   -1.6272    0.5872   -1.9230 H   0  0  0  0  0  0  0  0  0  0  0  0
   -0.6710   -1.0769    1.6225 H   0  0  0  0  0  0  0  0  0  0  0  0
    1.0301   -2.4091    0.7413 H   0  0  0  0  0  0  0  0  0  0  0  0
   -0.1215   -2.3125   -0.6025 H   0  0  0  0  0  0  0  0  0  0  0  0
    1.9827   -1.7796   -1.6640 H   0  0  0  0  0  0  0  0  0  0  0  0
    2.7037    0.5011   -1.6113 H   0  0  0  0  0  0  0  0  0  0  0  0
    0.8819    1.9106   -0.4636 H   0  0  0  0  0  0  0  0  0  0  0  0
    2.3384    1.6587    0.5331 H   0  0  0  0  0  0  0  0  0  0  0  0
   -0.0052    1.2796    1.6305 H   0  0  0  0  0  0  0  0  0  0  0  0
    1.3183    0.1372    1.9732 H   0  0  0  0  0  0  0  0  0  0  0  0
  1  2  1  0
  2  3  1  0
  2  4  1  0
  4  5  1  0
  5  6  1  0
  6  7  2  0
  7  8  1  0
  8  9  1  0
  9  4  1  0
  1 10  1  0
  1 11  1  0
  1 12  1  0
  2 13  1  0
  3 14  1  0
  4 15  1  0
  5 16  1  0
  5 17  1  0
  6 18  1  0
  7 19  1  0
  8 20  1  0
  8 21  1  0
  9 22  1  0
  9 23  1  0
M  END
