
     RDKit          3D

 19 19  0  0  0  0  0  0  0  0999 V2000
   -1.6450   -1.3465   -0.1804 C   0  0  0  0  0  0  0  0  0  0  0  0
   -1.6600   -0.2049   -1.1737 C   0  0  0  0  0  0  0  0  0  0  0  0
   -2.9675   -0.0489   -1.6635 O   0  0  0  0  0  0  0  0  0  0  0  0
   -1.2701    1.1178   -0.4889 C   0  0  0  0  0  0  0  0  0  0  0  0
    0.0799    0.9971    0.0278 C   0  0  0  0  0  0  0  0  0  0  0  0
    1.4207    0.8924    0.5365 C   0  0  0  0  0  0  0  0  0  0  0  0
    2.5416    0.7953    0.9821 C   0  0  0  0  0  0  0  0  0  0  0  0
    3.0729   -0.2331    1.9091 C   0  0  0  0  0  0  0  0  0  0  0  0
    2.8904    1.2030    2.3194 O   0  0  0  0  0  0  0  0  0  0  0  0
   -2.4335   -2.0639   -0.5282 H   0  0  0  0  0  0  0  0  0  0  0  0
   -0.6373   -1.8100   -0.1657 H   0  0  0  0  0  0  0  0  0  0  0  0
   -1.8764   -0.9519    0.8435 H   0  0  0  0  0  0  0  0  0  0  0  0
   -0.9827   -0.4328   -2.0224 H   0  0  0  0  0  0  0  0  0  0  0  0
   -3.2228   -1.0063   -1.9017 H   0  0  0  0  0  0  0  0  0  0  0  0
   -1.3265    1.9117   -1.2791 H   0  0  0  0  0  0  0  0  0  0  0  0
   -1.9364    1.3871    0.3257 H   0  0  0  0  0  0  0  0  0  0  0  0
    3.5122    1.1785    0.2914 H   0  0  0  0  0  0  0  0  0  0  0  0
    4.1137   -0.5518    1.8244 H   0  0  0  0  0  0  0  0  0  0  0  0
    2.3269   -0.8327    2.4774 H   0  0  0  0  0  0  0  0  0  0  0  0
  1  2  1  0
  2  3  1  0
  2  4  1  0
  4  5  1  0
  5  6  3  0
  6  7  1  0
  7  8  1  0
  8  9  1  0
  9  7  1  0
  1 10  1  0
  1 11  1  0
  1 12  1  0
  2 13  1  0
  3 14  1  0
  4 15  1  0
  4 16  1  0
  7 17  1  0
  8 18  1  0
  8 19  1  0
M  END
