
     RDKit          3D

 19 20  0  0  0  0  0  0  0  0999 V2000
    2.4820   -0.1743    0.3823 C   0  0  0  0  0  0  0  0  0  0  0  0
    1.2047   -0.6606   -0.2662 C   0  0  0  0  0  0  0  0  0  0  0  0
    0.9899   -2.0303   -0.0178 O   0  0  0  0  0  0  0  0  0  0  0  0
   -0.0056    0.0711    0.1966 C   0  0  0  0  0  0  0  0  0  0  0  0
   -0.8695    0.7062   -0.8531 C   0  0  0  0  0  0  0  0  0  0  0  0
   -2.1156    0.0587   -0.2910 C   0  0  0  0  0  0  0  0  0  0  0  0
   -2.9611    0.9804    0.3163 O   0  0  0  0  0  0  0  0  0  0  0  0
   -1.2285   -0.7082    0.6592 C   0  0  0  0  0  0  0  0  0  0  0  0
   -0.4192    0.0192    1.5082 O   0  0  0  0  0  0  0  0  0  0  0  0
    2.9108   -1.0310    0.9367 H   0  0  0  0  0  0  0  0  0  0  0  0
    2.3106    0.6860    1.0583 H   0  0  0  0  0  0  0  0  0  0  0  0
    3.2185    0.1390   -0.3911 H   0  0  0  0  0  0  0  0  0  0  0  0
    1.3044   -0.5544   -1.3643 H   0  0  0  0  0  0  0  0  0  0  0  0
    1.2161   -2.1644    0.9357 H   0  0  0  0  0  0  0  0  0  0  0  0
   -0.6854    0.2723   -1.8787 H   0  0  0  0  0  0  0  0  0  0  0  0
   -0.8843    1.8239   -0.8559 H   0  0  0  0  0  0  0  0  0  0  0  0
   -2.6540   -0.6221   -0.9503 H   0  0  0  0  0  0  0  0  0  0  0  0
   -2.6240    1.9026    0.2496 H   0  0  0  0  0  0  0  0  0  0  0  0
   -1.1899   -1.8039    0.6253 H   0  0  0  0  0  0  0  0  0  0  0  0
  1  2  1  0
  2  3  1  0
  2  4  1  0
  4  5  1  0
  5  6  1  0
  6  7  1  0
  6  8  1  0
  8  9  1  0
  8  4  1  0
  9  4  1  0
  1 10  1  0
  1 11  1  0
  1 12  1  0
  2 13  1  0
  3 14  1  0
  5 15  1  0
  5 16  1  0
  6 17  1  0
  7 18  1  0
  8 19  1  0
M  END
