
     RDKit          3D

 19 18  0  0  0  0  0  0  0  0999 V2000
   -1.6504   -0.6126   -1.3341 C   0  0  0  0  0  0  0  0  0  0  0  0
   -1.0356   -0.5920    0.0499 C   0  0  0  0  0  0  0  0  0  0  0  0
   -1.2809   -1.7643    0.7608 O   0  0  0  0  0  0  0  0  0  0  0  0
    0.4010   -0.3129   -0.0356 C   0  0  0  0  0  0  0  0  0  0  0  0
    1.5984   -0.0948   -0.1222 C   0  0  0  0  0  0  0  0  0  0  0  0
    3.0354    0.1713   -0.2009 C   0  0  0  0  0  0  0  0  0  0  0  0
    3.2220    1.2148   -1.0652 O   0  0  0  0  0  0  0  0  0  0  0  0
   -1.6433    0.5363    0.8415 C   0  0  0  0  0  0  0  0  0  0  0  0
   -1.0455    0.5919    2.1146 O   0  0  0  0  0  0  0  0  0  0  0  0
   -2.6692   -1.0393   -1.3134 H   0  0  0  0  0  0  0  0  0  0  0  0
   -1.6599    0.4643   -1.6679 H   0  0  0  0  0  0  0  0  0  0  0  0
   -0.9819   -1.1505   -2.0314 H   0  0  0  0  0  0  0  0  0  0  0  0
   -1.3072   -1.6149    1.7403 H   0  0  0  0  0  0  0  0  0  0  0  0
    3.4576    0.4715    0.7940 H   0  0  0  0  0  0  0  0  0  0  0  0
    3.6058   -0.7290   -0.5206 H   0  0  0  0  0  0  0  0  0  0  0  0
    2.3681    1.4893   -1.4762 H   0  0  0  0  0  0  0  0  0  0  0  0
   -1.4881    1.5267    0.3742 H   0  0  0  0  0  0  0  0  0  0  0  0
   -2.7133    0.2970    1.0098 H   0  0  0  0  0  0  0  0  0  0  0  0
   -0.2131    1.1472    2.0824 H   0  0  0  0  0  0  0  0  0  0  0  0
  1  2  1  0
  2  3  1  0
  2  4  1  0
  4  5  3  0
  5  6  1  0
  6  7  1  0
  2  8  1  0
  8  9  1  0
  1 10  1  0
  1 11  1  0
  1 12  1  0
  3 13  1  0
  6 14  1  0
  6 15  1  0
  7 16  1  0
  8 17  1  0
  8 18  1  0
  9 19  1  0
M  END
