
     RDKit          3D

 21 21  0  0  0  0  0  0  0  0999 V2000
    2.9718    0.9664    0.0380 C   0  0  0  0  0  0  0  0  0  0  0  0
    1.9506    0.0851    0.7343 C   0  0  0  0  0  0  0  0  0  0  0  0
    2.5049   -1.1935    0.7954 O   0  0  0  0  0  0  0  0  0  0  0  0
    0.6859   -0.0116   -0.1006 C   0  0  0  0  0  0  0  0  0  0  0  0
   -0.1889   -0.8851    0.4872 O   0  0  0  0  0  0  0  0  0  0  0  0
   -1.3844   -1.0755   -0.1857 C   0  0  0  0  0  0  0  0  0  0  0  0
   -2.1772    0.1783   -0.3393 C   0  0  0  0  0  0  0  0  0  0  0  0
   -3.4968    0.3864    0.2033 C   0  0  0  0  0  0  0  0  0  0  0  0
   -3.4386   -0.1783   -1.0682 O   0  0  0  0  0  0  0  0  0  0  0  0
    3.9730    0.6078    0.3561 H   0  0  0  0  0  0  0  0  0  0  0  0
    2.8349    2.0385    0.2636 H   0  0  0  0  0  0  0  0  0  0  0  0
    2.8327    0.7785   -1.0589 H   0  0  0  0  0  0  0  0  0  0  0  0
    1.7544    0.4180    1.7587 H   0  0  0  0  0  0  0  0  0  0  0  0
    2.4993   -1.6365   -0.1021 H   0  0  0  0  0  0  0  0  0  0  0  0
    0.2100    0.9994   -0.1237 H   0  0  0  0  0  0  0  0  0  0  0  0
    0.9483   -0.3709   -1.1007 H   0  0  0  0  0  0  0  0  0  0  0  0
   -1.0805   -1.3789   -1.2339 H   0  0  0  0  0  0  0  0  0  0  0  0
   -1.9860   -1.9025    0.2654 H   0  0  0  0  0  0  0  0  0  0  0  0
   -1.6497    1.0094   -0.8774 H   0  0  0  0  0  0  0  0  0  0  0  0
   -3.8837    1.4225    0.2436 H   0  0  0  0  0  0  0  0  0  0  0  0
   -3.8799   -0.2577    1.0171 H   0  0  0  0  0  0  0  0  0  0  0  0
  1  2  1  0
  2  3  1  0
  2  4  1  0
  4  5  1  0
  5  6  1  0
  6  7  1  0
  7  8  1  0
  8  9  1  0
  9  7  1  0
  1 10  1  0
  1 11  1  0
  1 12  1  0
  2 13  1  0
  3 14  1  0
  4 15  1  0
  4 16  1  0
  6 17  1  0
  6 18  1  0
  7 19  1  0
  8 20  1  0
  8 21  1  0
M  END
