
     RDKit          3D

 20 21  0  0  0  0  0  0  0  0999 V2000
   -2.3570   -0.7451    0.4489 C   0  0  0  0  0  0  0  0  0  0  0  0
   -1.5743    0.1937   -0.4417 C   0  0  0  0  0  0  0  0  0  0  0  0
   -2.3351    1.3487   -0.6050 O   0  0  0  0  0  0  0  0  0  0  0  0
   -0.2058    0.4559    0.0821 C   0  0  0  0  0  0  0  0  0  0  0  0
    0.7123   -0.6796    0.2542 C   0  0  0  0  0  0  0  0  0  0  0  0
    2.0714   -0.3642    0.8157 C   0  0  0  0  0  0  0  0  0  0  0  0
    2.3500    0.4733   -0.3908 C   0  0  0  0  0  0  0  0  0  0  0  0
    0.9224    0.3867   -0.8527 C   0  0  0  0  0  0  0  0  0  0  0  0
   -3.1669   -1.1885   -0.1559 H   0  0  0  0  0  0  0  0  0  0  0  0
   -1.7475   -1.5798    0.8383 H   0  0  0  0  0  0  0  0  0  0  0  0
   -2.8474   -0.2032    1.2923 H   0  0  0  0  0  0  0  0  0  0  0  0
   -1.5224   -0.3131   -1.4466 H   0  0  0  0  0  0  0  0  0  0  0  0
   -1.9459    2.1345   -0.1663 H   0  0  0  0  0  0  0  0  0  0  0  0
   -0.1356    1.2581    0.8658 H   0  0  0  0  0  0  0  0  0  0  0  0
    0.5083   -1.6832   -0.1574 H   0  0  0  0  0  0  0  0  0  0  0  0
    1.9977    0.1919    1.7788 H   0  0  0  0  0  0  0  0  0  0  0  0
    2.7318   -1.2410    0.9555 H   0  0  0  0  0  0  0  0  0  0  0  0
    2.7100    1.5117   -0.1514 H   0  0  0  0  0  0  0  0  0  0  0  0
    3.0545   -0.0384   -1.0759 H   0  0  0  0  0  0  0  0  0  0  0  0
    0.7798    0.0817   -1.8881 H   0  0  0  0  0  0  0  0  0  0  0  0
  1  2  1  0
  2  3  1  0
  2  4  1  0
  4  5  1  0
  5  6  1  0
  6  7  1  0
  7  8  1  0
  8  4  1  0
  8  5  1  0
  1  9  1  0
  1 10  1  0
  1 11  1  0
  2 12  1  0
  3 13  1  0
  4 14  1  0
  5 15  1  0
  6 16  1  0
  6 17  1  0
  7 18  1  0
  7 19  1  0
  8 20  1  0
M  END
