
     RDKit          3D

 23 23  0  0  0  0  0  0  0  0999 V2000
    2.2178   -0.7795   -0.7875 C   0  0  0  0  0  0  0  0  0  0  0  0
    1.4874   -0.1675    0.3613 C   0  0  0  0  0  0  0  0  0  0  0  0
    2.3405    0.7961    0.9512 O   0  0  0  0  0  0  0  0  0  0  0  0
    0.2233    0.5302    0.0011 C   0  0  0  0  0  0  0  0  0  0  0  0
    0.3812    1.5856   -0.9006 O   0  0  0  0  0  0  0  0  0  0  0  0
   -0.6922    0.7570    1.2080 C   0  0  0  0  0  0  0  0  0  0  0  0
   -1.1003   -0.1048    0.0405 C   0  0  0  0  0  0  0  0  0  0  0  0
   -1.2653   -1.5923    0.2871 C   0  0  0  0  0  0  0  0  0  0  0  0
   -2.2026    0.5349   -0.8068 C   0  0  0  0  0  0  0  0  0  0  0  0
    2.7283    0.0349   -1.3459 H   0  0  0  0  0  0  0  0  0  0  0  0
    1.5951   -1.3879   -1.4449 H   0  0  0  0  0  0  0  0  0  0  0  0
    3.0026   -1.4586   -0.3523 H   0  0  0  0  0  0  0  0  0  0  0  0
    1.3259   -0.9232    1.1791 H   0  0  0  0  0  0  0  0  0  0  0  0
    2.4193    1.5148    0.2555 H   0  0  0  0  0  0  0  0  0  0  0  0
    0.4889    2.4592   -0.4478 H   0  0  0  0  0  0  0  0  0  0  0  0
   -0.4999    0.2097    2.1341 H   0  0  0  0  0  0  0  0  0  0  0  0
   -1.0670    1.8016    1.2818 H   0  0  0  0  0  0  0  0  0  0  0  0
   -2.1883   -1.8025    0.8780 H   0  0  0  0  0  0  0  0  0  0  0  0
   -1.2371   -2.1484   -0.6661 H   0  0  0  0  0  0  0  0  0  0  0  0
   -0.4217   -1.9357    0.8939 H   0  0  0  0  0  0  0  0  0  0  0  0
   -1.8091    0.9958   -1.7143 H   0  0  0  0  0  0  0  0  0  0  0  0
   -2.7456    1.3189   -0.2393 H   0  0  0  0  0  0  0  0  0  0  0  0
   -2.9813   -0.2384   -1.0660 H   0  0  0  0  0  0  0  0  0  0  0  0
  1  2  1  0
  2  3  1  0
  2  4  1  0
  4  5  1  0
  4  6  1  0
  6  7  1  0
  7  8  1  0
  7  9  1  0
  7  4  1  0
  1 10  1  0
  1 11  1  0
  1 12  1  0
  2 13  1  0
  3 14  1  0
  5 15  1  0
  6 16  1  0
  6 17  1  0
  8 18  1  0
  8 19  1  0
  8 20  1  0
  9 21  1  0
  9 22  1  0
  9 23  1  0
M  END
