
     RDKit          3D

 21 22  0  0  0  0  0  0  0  0999 V2000
    2.3849   -0.0254   -0.6589 C   0  0  0  0  0  0  0  0  0  0  0  0
    1.3464    0.5606    0.2234 C   0  0  0  0  0  0  0  0  0  0  0  0
    1.6239    0.1746    1.5480 O   0  0  0  0  0  0  0  0  0  0  0  0
   -0.0362    0.2369   -0.0815 C   0  0  0  0  0  0  0  0  0  0  0  0
   -0.5813   -1.1255    0.2391 C   0  0  0  0  0  0  0  0  0  0  0  0
   -2.0522   -0.8519   -0.1475 C   0  0  0  0  0  0  0  0  0  0  0  0
   -1.8188    0.5338   -0.7013 C   0  0  0  0  0  0  0  0  0  0  0  0
   -1.1056    1.1782    0.4852 C   0  0  0  0  0  0  0  0  0  0  0  0
   -0.5642    0.5109   -1.3204 O   0  0  0  0  0  0  0  0  0  0  0  0
    3.1068   -0.6971   -0.1223 H   0  0  0  0  0  0  0  0  0  0  0  0
    3.0442    0.7475   -1.1491 H   0  0  0  0  0  0  0  0  0  0  0  0
    1.9899   -0.6341   -1.5010 H   0  0  0  0  0  0  0  0  0  0  0  0
    1.4652    1.6845    0.1678 H   0  0  0  0  0  0  0  0  0  0  0  0
    1.8403   -0.7959    1.5427 H   0  0  0  0  0  0  0  0  0  0  0  0
   -0.1606   -1.9172   -0.4085 H   0  0  0  0  0  0  0  0  0  0  0  0
   -0.5068   -1.3771    1.3102 H   0  0  0  0  0  0  0  0  0  0  0  0
   -2.4112   -1.5678   -0.8767 H   0  0  0  0  0  0  0  0  0  0  0  0
   -2.6128   -0.7683    0.7816 H   0  0  0  0  0  0  0  0  0  0  0  0
   -2.6179    1.0658   -1.1585 H   0  0  0  0  0  0  0  0  0  0  0  0
   -0.8783    2.2414    0.3671 H   0  0  0  0  0  0  0  0  0  0  0  0
   -1.4558    0.8261    1.4606 H   0  0  0  0  0  0  0  0  0  0  0  0
  1  2  1  0
  2  3  1  0
  2  4  1  0
  4  5  1  0
  5  6  1  0
  6  7  1  0
  7  8  1  0
  7  9  1  0
  8  4  1  0
  9  4  1  0
  1 10  1  0
  1 11  1  0
  1 12  1  0
  2 13  1  0
  3 14  1  0
  5 15  1  0
  5 16  1  0
  6 17  1  0
  6 18  1  0
  7 19  1  0
  8 20  1  0
  8 21  1  0
M  END
