
     RDKit          3D

 13 12  0  0  0  0  0  0  0  0999 V2000
   -1.7956   -0.2565    0.4239 C   0  0  0  0  0  0  0  0  0  0  0  0
   -0.8467    0.8617    0.0873 C   0  0  0  0  0  0  0  0  0  0  0  0
   -1.1364    1.2795   -1.2227 O   0  0  0  0  0  0  0  0  0  0  0  0
    0.5111    0.3205    0.1798 C   0  0  0  0  0  0  0  0  0  0  0  0
    1.6380   -0.1492    0.2668 C   0  0  0  0  0  0  0  0  0  0  0  0
    2.9534   -0.7043    0.3886 C   0  0  0  0  0  0  0  0  0  0  0  0
    3.1378   -1.9444    0.4236 O   0  0  0  0  0  0  0  0  0  0  0  0
   -2.8468    0.0885    0.3382 H   0  0  0  0  0  0  0  0  0  0  0  0
   -1.6446   -0.5264    1.5086 H   0  0  0  0  0  0  0  0  0  0  0  0
   -1.6694   -1.1004   -0.2499 H   0  0  0  0  0  0  0  0  0  0  0  0
   -0.9971    1.7193    0.7612 H   0  0  0  0  0  0  0  0  0  0  0  0
   -1.1307    0.4925   -1.8281 H   0  0  0  0  0  0  0  0  0  0  0  0
    3.8271   -0.0808    0.4541 H   0  0  0  0  0  0  0  0  0  0  0  0
  1  2  1  0
  2  3  1  0
  2  4  1  0
  4  5  3  0
  5  6  1  0
  6  7  2  0
  1  8  1  0
  1  9  1  0
  1 10  1  0
  2 11  1  0
  3 12  1  0
  6 13  1  0
M  END
