
     RDKit          3D

 21 22  0  0  0  0  0  0  0  0999 V2000
    2.3777   -0.6059    0.0749 C   0  0  0  0  0  0  0  0  0  0  0  0
    1.2282    0.1547    0.6997 C   0  0  0  0  0  0  0  0  0  0  0  0
    1.6575    1.4795    0.8500 O   0  0  0  0  0  0  0  0  0  0  0  0
    0.0773    0.1597   -0.2534 C   0  0  0  0  0  0  0  0  0  0  0  0
    0.4960    0.6848   -1.4926 O   0  0  0  0  0  0  0  0  0  0  0  0
   -0.5639   -1.1768   -0.5209 C   0  0  0  0  0  0  0  0  0  0  0  0
   -1.8483   -0.3773   -0.6461 C   0  0  0  0  0  0  0  0  0  0  0  0
   -2.3817    0.0405    0.6620 C   0  0  0  0  0  0  0  0  0  0  0  0
   -1.1971    0.7586    0.1804 C   0  0  0  0  0  0  0  0  0  0  0  0
    2.5882   -1.5221    0.6702 H   0  0  0  0  0  0  0  0  0  0  0  0
    3.3027    0.0002    0.0013 H   0  0  0  0  0  0  0  0  0  0  0  0
    2.1496   -0.9567   -0.9538 H   0  0  0  0  0  0  0  0  0  0  0  0
    0.9937   -0.2332    1.6954 H   0  0  0  0  0  0  0  0  0  0  0  0
    1.0128    1.9846    1.3732 H   0  0  0  0  0  0  0  0  0  0  0  0
    0.1674    1.5945   -1.5893 H   0  0  0  0  0  0  0  0  0  0  0  0
   -0.2347   -1.6893   -1.4412 H   0  0  0  0  0  0  0  0  0  0  0  0
   -0.5607   -1.8598    0.3449 H   0  0  0  0  0  0  0  0  0  0  0  0
   -2.2073   -0.0369   -1.6073 H   0  0  0  0  0  0  0  0  0  0  0  0
   -3.3591    0.5418    0.6421 H   0  0  0  0  0  0  0  0  0  0  0  0
   -2.3236   -0.7395    1.4659 H   0  0  0  0  0  0  0  0  0  0  0  0
   -1.3748    1.7986   -0.1555 H   0  0  0  0  0  0  0  0  0  0  0  0
  1  2  1  0
  2  3  1  0
  2  4  1  0
  4  5  1  0
  4  6  1  0
  6  7  1  0
  7  8  1  0
  8  9  1  0
  9  4  1  0
  9  7  1  0
  1 10  1  0
  1 11  1  0
  1 12  1  0
  2 13  1  0
  3 14  1  0
  5 15  1  0
  6 16  1  0
  6 17  1  0
  7 18  1  0
  8 19  1  0
  8 20  1  0
  9 21  1  0
M  END
