
     RDKit          3D

 21 22  0  0  0  0  0  0  0  0999 V2000
   -1.7834    0.9503    0.4332 C   0  0  0  0  0  0  0  0  0  0  0  0
   -1.7205   -0.5164    0.1090 C   0  0  0  0  0  0  0  0  0  0  0  0
   -2.9719   -0.8711   -0.4523 O   0  0  0  0  0  0  0  0  0  0  0  0
   -0.6258   -0.7973   -0.8367 C   0  0  0  0  0  0  0  0  0  0  0  0
    0.7579   -0.5273   -0.5092 C   0  0  0  0  0  0  0  0  0  0  0  0
    1.2693   -1.2339    0.6182 O   0  0  0  0  0  0  0  0  0  0  0  0
    2.3655   -0.4063    0.3880 C   0  0  0  0  0  0  0  0  0  0  0  0
    2.5326    0.9876    0.6983 C   0  0  0  0  0  0  0  0  0  0  0  0
    1.1683    0.6311    0.3423 C   0  0  0  0  0  0  0  0  0  0  0  0
   -1.0513    1.5110   -0.1806 H   0  0  0  0  0  0  0  0  0  0  0  0
   -2.8201    1.3146    0.1442 H   0  0  0  0  0  0  0  0  0  0  0  0
   -1.7156    1.1673    1.5223 H   0  0  0  0  0  0  0  0  0  0  0  0
   -1.6931   -1.1378    1.0353 H   0  0  0  0  0  0  0  0  0  0  0  0
   -2.8316   -1.0746   -1.4012 H   0  0  0  0  0  0  0  0  0  0  0  0
   -0.7041   -1.9040   -1.0959 H   0  0  0  0  0  0  0  0  0  0  0  0
   -0.8367   -0.3240   -1.8477 H   0  0  0  0  0  0  0  0  0  0  0  0
    1.4001   -0.5803   -1.4095 H   0  0  0  0  0  0  0  0  0  0  0  0
    2.8070   -0.6861   -0.5921 H   0  0  0  0  0  0  0  0  0  0  0  0
    2.8793    1.2189    1.7496 H   0  0  0  0  0  0  0  0  0  0  0  0
    3.0332    1.6972   -0.0117 H   0  0  0  0  0  0  0  0  0  0  0  0
    0.5409    0.5810    1.2966 H   0  0  0  0  0  0  0  0  0  0  0  0
  1  2  1  0
  2  3  1  0
  2  4  1  0
  4  5  1  0
  5  6  1  0
  6  7  1  0
  7  8  1  0
  8  9  1  0
  9  5  1  0
  9  7  1  0
  1 10  1  0
  1 11  1  0
  1 12  1  0
  2 13  1  0
  3 14  1  0
  4 15  1  0
  4 16  1  0
  5 17  1  0
  7 18  1  0
  8 19  1  0
  8 20  1  0
  9 21  1  0
M  END
