
     RDKit          3D

 23 23  0  0  0  0  0  0  0  0999 V2000
    2.1056    0.3924    0.9164 C   0  0  0  0  0  0  0  0  0  0  0  0
    1.5907    0.1218   -0.4326 C   0  0  0  0  0  0  0  0  0  0  0  0
    1.8501   -1.2214   -0.7468 O   0  0  0  0  0  0  0  0  0  0  0  0
    0.1973    0.4095   -0.7492 C   0  0  0  0  0  0  0  0  0  0  0  0
   -0.3014    1.6923   -0.5186 O   0  0  0  0  0  0  0  0  0  0  0  0
   -1.5492    1.0669   -0.7906 C   0  0  0  0  0  0  0  0  0  0  0  0
   -0.9382   -0.1074    0.0065 C   0  0  0  0  0  0  0  0  0  0  0  0
   -1.3964   -1.4542   -0.4579 C   0  0  0  0  0  0  0  0  0  0  0  0
   -1.1503    0.2252    1.4342 C   0  0  0  0  0  0  0  0  0  0  0  0
    2.6962    1.3579    0.9542 H   0  0  0  0  0  0  0  0  0  0  0  0
    2.8699   -0.3779    1.2419 H   0  0  0  0  0  0  0  0  0  0  0  0
    1.3916    0.4529    1.7313 H   0  0  0  0  0  0  0  0  0  0  0  0
    2.2339    0.7012   -1.1640 H   0  0  0  0  0  0  0  0  0  0  0  0
    2.7352   -1.3391   -1.1521 H   0  0  0  0  0  0  0  0  0  0  0  0
    0.0208    0.2207   -1.8568 H   0  0  0  0  0  0  0  0  0  0  0  0
   -2.3975    1.5494   -0.3126 H   0  0  0  0  0  0  0  0  0  0  0  0
   -1.6304    0.8604   -1.8679 H   0  0  0  0  0  0  0  0  0  0  0  0
   -1.4647   -2.1194    0.4433 H   0  0  0  0  0  0  0  0  0  0  0  0
   -0.6158   -1.9056   -1.1113 H   0  0  0  0  0  0  0  0  0  0  0  0
   -2.3560   -1.4666   -0.9710 H   0  0  0  0  0  0  0  0  0  0  0  0
   -0.7567   -0.5191    2.1551 H   0  0  0  0  0  0  0  0  0  0  0  0
   -0.8631    1.2594    1.6415 H   0  0  0  0  0  0  0  0  0  0  0  0
   -2.2715    0.2007    1.6071 H   0  0  0  0  0  0  0  0  0  0  0  0
  1  2  1  0
  2  3  1  0
  2  4  1  0
  4  5  1  0
  5  6  1  0
  6  7  1  0
  7  8  1  0
  7  9  1  0
  7  4  1  0
  1 10  1  0
  1 11  1  0
  1 12  1  0
  2 13  1  0
  3 14  1  0
  4 15  1  0
  6 16  1  0
  6 17  1  0
  8 18  1  0
  8 19  1  0
  8 20  1  0
  9 21  1  0
  9 22  1  0
  9 23  1  0
M  END
