
     RDKit          3D

 16 15  0  0  0  0  0  0  0  0999 V2000
   -1.3988   -1.0753    0.1966 C   0  0  0  0  0  0  0  0  0  0  0  0
   -0.3655   -0.0327   -0.1648 C   0  0  0  0  0  0  0  0  0  0  0  0
   -0.5617    0.2762   -1.5103 O   0  0  0  0  0  0  0  0  0  0  0  0
   -0.5676    1.1985    0.6568 C   0  0  0  0  0  0  0  0  0  0  0  0
   -0.8572    2.2526    0.1164 O   0  0  0  0  0  0  0  0  0  0  0  0
    1.0406   -0.5211    0.0916 C   0  0  0  0  0  0  0  0  0  0  0  0
    2.0595    0.4811   -0.2545 C   0  0  0  0  0  0  0  0  0  0  0  0
    3.2296    0.1815   -0.0828 O   0  0  0  0  0  0  0  0  0  0  0  0
   -0.9742   -1.6941    1.0048 H   0  0  0  0  0  0  0  0  0  0  0  0
   -2.3593   -0.5844    0.4781 H   0  0  0  0  0  0  0  0  0  0  0  0
   -1.6327   -1.7105   -0.7015 H   0  0  0  0  0  0  0  0  0  0  0  0
   -1.3607    0.8683   -1.5390 H   0  0  0  0  0  0  0  0  0  0  0  0
   -0.4605    1.1701    1.7303 H   0  0  0  0  0  0  0  0  0  0  0  0
    1.1534   -0.8279    1.1503 H   0  0  0  0  0  0  0  0  0  0  0  0
    1.2005   -1.4439   -0.5235 H   0  0  0  0  0  0  0  0  0  0  0  0
    1.8546    1.4616   -0.6486 H   0  0  0  0  0  0  0  0  0  0  0  0
  1  2  1  0
  2  3  1  0
  2  4  1  0
  4  5  2  0
  2  6  1  0
  6  7  1  0
  7  8  2  0
  1  9  1  0
  1 10  1  0
  1 11  1  0
  3 12  1  0
  4 13  1  0
  6 14  1  0
  6 15  1  0
  7 16  1  0
M  END
