
     RDKit          3D

 19 20  0  0  0  0  0  0  0  0999 V2000
    2.3029   -0.3177    0.5907 C   0  0  0  0  0  0  0  0  0  0  0  0
    1.5236    0.5246   -0.3696 C   0  0  0  0  0  0  0  0  0  0  0  0
    1.9176    0.2032   -1.6748 O   0  0  0  0  0  0  0  0  0  0  0  0
    0.0412    0.2287   -0.2430 C   0  0  0  0  0  0  0  0  0  0  0  0
   -0.8422    1.1580    0.0886 C   0  0  0  0  0  0  0  0  0  0  0  0
   -2.2159    0.5948    0.1392 C   0  0  0  0  0  0  0  0  0  0  0  0
   -2.0559   -0.7941   -0.3517 C   0  0  0  0  0  0  0  0  0  0  0  0
   -1.3521   -1.6763    0.5189 O   0  0  0  0  0  0  0  0  0  0  0  0
   -0.5990   -1.1002   -0.4677 C   0  0  0  0  0  0  0  0  0  0  0  0
    2.9021   -1.0792    0.0511 H   0  0  0  0  0  0  0  0  0  0  0  0
    1.6271   -0.8726    1.2968 H   0  0  0  0  0  0  0  0  0  0  0  0
    3.0444    0.3042    1.1628 H   0  0  0  0  0  0  0  0  0  0  0  0
    1.7467    1.5708   -0.1873 H   0  0  0  0  0  0  0  0  0  0  0  0
    1.1415    0.2219   -2.2647 H   0  0  0  0  0  0  0  0  0  0  0  0
   -0.5671    2.2151    0.2970 H   0  0  0  0  0  0  0  0  0  0  0  0
   -2.5413    0.5783    1.2152 H   0  0  0  0  0  0  0  0  0  0  0  0
   -2.9475    1.1941   -0.4172 H   0  0  0  0  0  0  0  0  0  0  0  0
   -2.7983   -1.2838   -0.9959 H   0  0  0  0  0  0  0  0  0  0  0  0
   -0.3276   -1.6696   -1.3803 H   0  0  0  0  0  0  0  0  0  0  0  0
  1  2  1  0
  2  3  1  0
  2  4  1  0
  4  5  2  0
  5  6  1  0
  6  7  1  0
  7  8  1  0
  8  9  1  0
  9  4  1  0
  9  7  1  0
  1 10  1  0
  1 11  1  0
  1 12  1  0
  2 13  1  0
  3 14  1  0
  5 15  1  0
  6 16  1  0
  6 17  1  0
  7 18  1  0
  9 19  1  0
M  END
