
     RDKit          3D

 19 19  0  0  0  0  0  0  0  0999 V2000
   -1.2000    0.6919    1.4133 C   0  0  0  0  0  0  0  0  0  0  0  0
   -1.0719   -0.2971    0.2694 C   0  0  0  0  0  0  0  0  0  0  0  0
   -1.7732   -1.4581    0.5800 O   0  0  0  0  0  0  0  0  0  0  0  0
   -1.6736    0.2911   -0.9431 C   0  0  0  0  0  0  0  0  0  0  0  0
   -2.6160   -0.2570   -1.4701 O   0  0  0  0  0  0  0  0  0  0  0  0
    0.3696   -0.7066    0.0504 C   0  0  0  0  0  0  0  0  0  0  0  0
    1.2521    0.4538   -0.2800 C   0  0  0  0  0  0  0  0  0  0  0  0
    2.6939    0.1700   -0.5166 C   0  0  0  0  0  0  0  0  0  0  0  0
    2.3085    0.7430    0.6927 O   0  0  0  0  0  0  0  0  0  0  0  0
   -2.2415    0.5993    1.7956 H   0  0  0  0  0  0  0  0  0  0  0  0
   -0.5338    0.4286    2.2462 H   0  0  0  0  0  0  0  0  0  0  0  0
   -1.0504    1.7256    1.0375 H   0  0  0  0  0  0  0  0  0  0  0  0
   -1.4062   -2.1766   -0.0013 H   0  0  0  0  0  0  0  0  0  0  0  0
   -1.3125    1.2025   -1.3962 H   0  0  0  0  0  0  0  0  0  0  0  0
    0.7679   -1.2553    0.9272 H   0  0  0  0  0  0  0  0  0  0  0  0
    0.3562   -1.4274   -0.8049 H   0  0  0  0  0  0  0  0  0  0  0  0
    0.8384    1.3379   -0.7856 H   0  0  0  0  0  0  0  0  0  0  0  0
    3.2338    0.8009   -1.2621 H   0  0  0  0  0  0  0  0  0  0  0  0
    3.0586   -0.8665   -0.4495 H   0  0  0  0  0  0  0  0  0  0  0  0
  1  2  1  0
  2  3  1  0
  2  4  1  0
  4  5  2  0
  2  6  1  0
  6  7  1  0
  7  8  1  0
  8  9  1  0
  9  7  1  0
  1 10  1  0
  1 11  1  0
  1 12  1  0
  3 13  1  0
  4 14  1  0
  6 15  1  0
  6 16  1  0
  7 17  1  0
  8 18  1  0
  8 19  1  0
M  END
