
     RDKit          3D

 21 22  0  0  0  0  0  0  0  0999 V2000
   -1.9981    0.9027    0.4776 C   0  0  0  0  0  0  0  0  0  0  0  0
   -1.8565   -0.5874    0.3467 C   0  0  0  0  0  0  0  0  0  0  0  0
   -2.8436   -0.9841   -0.5898 O   0  0  0  0  0  0  0  0  0  0  0  0
   -0.5004   -1.0377   -0.1127 C   0  0  0  0  0  0  0  0  0  0  0  0
   -0.0519   -0.5273   -1.3739 O   0  0  0  0  0  0  0  0  0  0  0  0
    0.6467   -0.3044   -0.1942 C   0  0  0  0  0  0  0  0  0  0  0  0
    1.0236    1.0533    0.2532 C   0  0  0  0  0  0  0  0  0  0  0  0
    2.4202    0.5590    0.5514 C   0  0  0  0  0  0  0  0  0  0  0  0
    2.0632   -0.7606   -0.0697 C   0  0  0  0  0  0  0  0  0  0  0  0
   -1.7808    1.1840    1.5283 H   0  0  0  0  0  0  0  0  0  0  0  0
   -3.0616    1.2371    0.3112 H   0  0  0  0  0  0  0  0  0  0  0  0
   -1.3544    1.4588   -0.2318 H   0  0  0  0  0  0  0  0  0  0  0  0
   -2.1215   -1.1059    1.2896 H   0  0  0  0  0  0  0  0  0  0  0  0
   -2.3539   -1.0515   -1.4680 H   0  0  0  0  0  0  0  0  0  0  0  0
   -0.4541   -2.1701   -0.1473 H   0  0  0  0  0  0  0  0  0  0  0  0
    0.5734    1.4492    1.1875 H   0  0  0  0  0  0  0  0  0  0  0  0
    1.0250    1.7964   -0.5977 H   0  0  0  0  0  0  0  0  0  0  0  0
    2.6323    0.4187    1.6326 H   0  0  0  0  0  0  0  0  0  0  0  0
    3.2318    1.0666   -0.0147 H   0  0  0  0  0  0  0  0  0  0  0  0
    2.5372   -0.9402   -1.0739 H   0  0  0  0  0  0  0  0  0  0  0  0
    2.2232   -1.6566    0.5933 H   0  0  0  0  0  0  0  0  0  0  0  0
  1  2  1  0
  2  3  1  0
  2  4  1  0
  4  5  1  0
  5  6  1  0
  6  7  1  0
  7  8  1  0
  8  9  1  0
  6  4  1  0
  9  6  1  0
  1 10  1  0
  1 11  1  0
  1 12  1  0
  2 13  1  0
  3 14  1  0
  4 15  1  0
  7 16  1  0
  7 17  1  0
  8 18  1  0
  8 19  1  0
  9 20  1  0
  9 21  1  0
M  END
