
     RDKit          3D

 21 21  0  0  0  0  0  0  0  0999 V2000
   -1.9291   -1.2008   -0.5022 C   0  0  0  0  0  0  0  0  0  0  0  0
   -0.8138   -0.6362    0.3129 C   0  0  0  0  0  0  0  0  0  0  0  0
   -1.3137   -0.3116    1.6040 O   0  0  0  0  0  0  0  0  0  0  0  0
   -0.1527    0.5608   -0.2348 C   0  0  0  0  0  0  0  0  0  0  0  0
   -0.6638    1.9479    0.2172 C   0  0  0  0  0  0  0  0  0  0  0  0
    0.4352    0.6343   -1.4788 O   0  0  0  0  0  0  0  0  0  0  0  0
    1.3326    0.4621   -0.4286 C   0  0  0  0  0  0  0  0  0  0  0  0
    2.0992   -0.8048   -0.5072 C   0  0  0  0  0  0  0  0  0  0  0  0
    2.8389   -0.7576   -1.7092 O   0  0  0  0  0  0  0  0  0  0  0  0
   -2.6435   -0.4750   -0.8861 H   0  0  0  0  0  0  0  0  0  0  0  0
   -2.4880   -1.9363    0.1123 H   0  0  0  0  0  0  0  0  0  0  0  0
   -1.5254   -1.7565   -1.3833 H   0  0  0  0  0  0  0  0  0  0  0  0
   -0.0738   -1.4283    0.5095 H   0  0  0  0  0  0  0  0  0  0  0  0
   -2.2054    0.1116    1.4642 H   0  0  0  0  0  0  0  0  0  0  0  0
   -1.7011    2.0817   -0.0767 H   0  0  0  0  0  0  0  0  0  0  0  0
   -0.0591    2.7443   -0.2246 H   0  0  0  0  0  0  0  0  0  0  0  0
   -0.6123    1.9998    1.3353 H   0  0  0  0  0  0  0  0  0  0  0  0
    1.9068    1.3371   -0.0593 H   0  0  0  0  0  0  0  0  0  0  0  0
    1.4948   -1.7278   -0.5944 H   0  0  0  0  0  0  0  0  0  0  0  0
    2.7754   -0.9504    0.3715 H   0  0  0  0  0  0  0  0  0  0  0  0
    3.2990    0.1056   -1.7061 H   0  0  0  0  0  0  0  0  0  0  0  0
  1  2  1  0
  2  3  1  0
  2  4  1  0
  4  5  1  0
  4  6  1  0
  6  7  1  0
  7  8  1  0
  8  9  1  0
  7  4  1  0
  1 10  1  0
  1 11  1  0
  1 12  1  0
  2 13  1  0
  3 14  1  0
  5 15  1  0
  5 16  1  0
  5 17  1  0
  7 18  1  0
  8 19  1  0
  8 20  1  0
  9 21  1  0
M  END
