
     RDKit          3D

 21 20  0  0  0  0  0  0  0  0999 V2000
   -2.5570    0.1147   -0.2408 C   0  0  0  0  0  0  0  0  0  0  0  0
   -1.6816    0.4623    0.9288 C   0  0  0  0  0  0  0  0  0  0  0  0
   -1.9350    1.7964    1.2655 O   0  0  0  0  0  0  0  0  0  0  0  0
   -0.2171    0.3480    0.6245 C   0  0  0  0  0  0  0  0  0  0  0  0
    0.1798   -1.0500    0.2110 C   0  0  0  0  0  0  0  0  0  0  0  0
    1.6259   -1.0896   -0.0717 C   0  0  0  0  0  0  0  0  0  0  0  0
    2.0966   -2.1602   -0.4199 O   0  0  0  0  0  0  0  0  0  0  0  0
    2.5382    0.0567    0.0337 C   0  0  0  0  0  0  0  0  0  0  0  0
    3.8459   -0.2886   -0.2969 O   0  0  0  0  0  0  0  0  0  0  0  0
   -2.6572   -0.9840   -0.3595 H   0  0  0  0  0  0  0  0  0  0  0  0
   -2.2339    0.6211   -1.1710 H   0  0  0  0  0  0  0  0  0  0  0  0
   -3.5758    0.4977   -0.0183 H   0  0  0  0  0  0  0  0  0  0  0  0
   -1.9651   -0.1961    1.7724 H   0  0  0  0  0  0  0  0  0  0  0  0
   -2.3321    2.3022    0.5142 H   0  0  0  0  0  0  0  0  0  0  0  0
    0.3324    0.5766    1.5634 H   0  0  0  0  0  0  0  0  0  0  0  0
    0.0423    1.0405   -0.1992 H   0  0  0  0  0  0  0  0  0  0  0  0
   -0.3767   -1.4263   -0.6551 H   0  0  0  0  0  0  0  0  0  0  0  0
    0.0050   -1.7308    1.0909 H   0  0  0  0  0  0  0  0  0  0  0  0
    2.2571    0.9224   -0.5848 H   0  0  0  0  0  0  0  0  0  0  0  0
    2.5540    0.3621    1.1202 H   0  0  0  0  0  0  0  0  0  0  0  0
    4.0542   -0.1751   -1.2502 H   0  0  0  0  0  0  0  0  0  0  0  0
  1  2  1  0
  2  3  1  0
  2  4  1  0
  4  5  1  0
  5  6  1  0
  6  7  2  0
  6  8  1  0
  8  9  1  0
  1 10  1  0
  1 11  1  0
  1 12  1  0
  2 13  1  0
  3 14  1  0
  4 15  1  0
  4 16  1  0
  5 17  1  0
  5 18  1  0
  8 19  1  0
  8 20  1  0
  9 21  1  0
M  END
