
     RDKit          3D

 23 23  0  0  0  0  0  0  0  0999 V2000
    3.1446   -0.1553    0.2412 C   0  0  0  0  0  0  0  0  0  0  0  0
    1.8921    0.6123   -0.0861 C   0  0  0  0  0  0  0  0  0  0  0  0
    1.9700    1.2316   -1.3053 O   0  0  0  0  0  0  0  0  0  0  0  0
    0.7215   -0.2970    0.0764 C   0  0  0  0  0  0  0  0  0  0  0  0
   -0.6045    0.3553   -0.2239 C   0  0  0  0  0  0  0  0  0  0  0  0
   -0.9453    1.4415    0.5433 O   0  0  0  0  0  0  0  0  0  0  0  0
   -2.2691    0.9655    0.6953 C   0  0  0  0  0  0  0  0  0  0  0  0
   -1.7144   -0.4214    0.4685 C   0  0  0  0  0  0  0  0  0  0  0  0
   -2.5173   -1.3171   -0.4098 C   0  0  0  0  0  0  0  0  0  0  0  0
    3.0492   -1.2199   -0.0952 H   0  0  0  0  0  0  0  0  0  0  0  0
    3.3318   -0.2151    1.3407 H   0  0  0  0  0  0  0  0  0  0  0  0
    4.0470    0.2663   -0.2559 H   0  0  0  0  0  0  0  0  0  0  0  0
    1.7874    1.4234    0.6916 H   0  0  0  0  0  0  0  0  0  0  0  0
    2.4580    2.0868   -1.1832 H   0  0  0  0  0  0  0  0  0  0  0  0
    0.8334   -1.1635   -0.6036 H   0  0  0  0  0  0  0  0  0  0  0  0
    0.7385   -0.7085    1.1062 H   0  0  0  0  0  0  0  0  0  0  0  0
   -0.8238    0.4980   -1.2974 H   0  0  0  0  0  0  0  0  0  0  0  0
   -2.6510    1.0825    1.7277 H   0  0  0  0  0  0  0  0  0  0  0  0
   -2.9372    1.2786   -0.1193 H   0  0  0  0  0  0  0  0  0  0  0  0
   -1.3724   -0.9327    1.4015 H   0  0  0  0  0  0  0  0  0  0  0  0
   -1.8467   -1.8887   -1.1000 H   0  0  0  0  0  0  0  0  0  0  0  0
   -2.9985   -2.1051    0.2347 H   0  0  0  0  0  0  0  0  0  0  0  0
   -3.2934   -0.8174   -1.0028 H   0  0  0  0  0  0  0  0  0  0  0  0
  1  2  1  0
  2  3  1  0
  2  4  1  0
  4  5  1  0
  5  6  1  0
  6  7  1  0
  7  8  1  0
  8  9  1  0
  8  5  1  0
  1 10  1  0
  1 11  1  0
  1 12  1  0
  2 13  1  0
  3 14  1  0
  4 15  1  0
  4 16  1  0
  5 17  1  0
  7 18  1  0
  7 19  1  0
  8 20  1  0
  9 21  1  0
  9 22  1  0
  9 23  1  0
M  END
