
     RDKit          3D

 23 23  0  0  0  0  0  0  0  0999 V2000
    2.5095   -0.6872   -0.6717 C   0  0  0  0  0  0  0  0  0  0  0  0
    1.5444    0.4458   -0.4631 C   0  0  0  0  0  0  0  0  0  0  0  0
    2.1735    1.4231    0.2832 O   0  0  0  0  0  0  0  0  0  0  0  0
    0.3125    0.0123    0.2751 C   0  0  0  0  0  0  0  0  0  0  0  0
   -0.5980    1.2139    0.4385 C   0  0  0  0  0  0  0  0  0  0  0  0
   -1.9289    0.8250   -0.1731 C   0  0  0  0  0  0  0  0  0  0  0  0
   -1.9034   -0.6873    0.0398 C   0  0  0  0  0  0  0  0  0  0  0  0
   -2.8998   -1.3402   -0.6249 O   0  0  0  0  0  0  0  0  0  0  0  0
   -0.5117   -0.9876   -0.5340 C   0  0  0  0  0  0  0  0  0  0  0  0
    3.1818   -0.7630    0.2286 H   0  0  0  0  0  0  0  0  0  0  0  0
    3.1409   -0.4205   -1.5531 H   0  0  0  0  0  0  0  0  0  0  0  0
    2.0027   -1.6500   -0.7715 H   0  0  0  0  0  0  0  0  0  0  0  0
    1.2148    0.9131   -1.4131 H   0  0  0  0  0  0  0  0  0  0  0  0
    2.0661    2.3300   -0.0948 H   0  0  0  0  0  0  0  0  0  0  0  0
    0.5351   -0.4808    1.2335 H   0  0  0  0  0  0  0  0  0  0  0  0
   -0.1635    2.1141   -0.0140 H   0  0  0  0  0  0  0  0  0  0  0  0
   -0.7868    1.3360    1.5321 H   0  0  0  0  0  0  0  0  0  0  0  0
   -2.7844    1.3055    0.2979 H   0  0  0  0  0  0  0  0  0  0  0  0
   -1.8477    0.9864   -1.2631 H   0  0  0  0  0  0  0  0  0  0  0  0
   -1.8418   -0.8777    1.1182 H   0  0  0  0  0  0  0  0  0  0  0  0
   -2.6377   -2.2885   -0.7261 H   0  0  0  0  0  0  0  0  0  0  0  0
   -0.2081   -2.0201   -0.3684 H   0  0  0  0  0  0  0  0  0  0  0  0
   -0.5695   -0.7020   -1.6022 H   0  0  0  0  0  0  0  0  0  0  0  0
  1  2  1  0
  2  3  1  0
  2  4  1  0
  4  5  1  0
  5  6  1  0
  6  7  1  0
  7  8  1  0
  7  9  1  0
  9  4  1  0
  1 10  1  0
  1 11  1  0
  1 12  1  0
  2 13  1  0
  3 14  1  0
  4 15  1  0
  5 16  1  0
  5 17  1  0
  6 18  1  0
  6 19  1  0
  7 20  1  0
  8 21  1  0
  9 22  1  0
  9 23  1  0
M  END
