
     RDKit          3D

 21 22  0  0  0  0  0  0  0  0999 V2000
   -2.0258   -0.3240   -1.1237 C   0  0  0  0  0  0  0  0  0  0  0  0
   -0.9900    0.5372   -0.4803 C   0  0  0  0  0  0  0  0  0  0  0  0
   -1.6159    1.3570    0.4453 O   0  0  0  0  0  0  0  0  0  0  0  0
    0.0954   -0.2193    0.2218 C   0  0  0  0  0  0  0  0  0  0  0  0
   -0.2867   -0.8640    1.5259 C   0  0  0  0  0  0  0  0  0  0  0  0
    0.7543   -1.0595   -0.6732 O   0  0  0  0  0  0  0  0  0  0  0  0
    1.6465   -0.0290   -0.9128 C   0  0  0  0  0  0  0  0  0  0  0  0
    2.6691    0.1769    0.1219 C   0  0  0  0  0  0  0  0  0  0  0  0
    1.3014    0.6572    0.4019 C   0  0  0  0  0  0  0  0  0  0  0  0
   -2.8078   -0.6757   -0.4218 H   0  0  0  0  0  0  0  0  0  0  0  0
   -2.5569    0.3040   -1.8767 H   0  0  0  0  0  0  0  0  0  0  0  0
   -1.6062   -1.1811   -1.6994 H   0  0  0  0  0  0  0  0  0  0  0  0
   -0.5441    1.1892   -1.2540 H   0  0  0  0  0  0  0  0  0  0  0  0
   -2.1784    0.8000    1.0440 H   0  0  0  0  0  0  0  0  0  0  0  0
    0.2618   -1.8356    1.6112 H   0  0  0  0  0  0  0  0  0  0  0  0
    0.0071   -0.2123    2.3841 H   0  0  0  0  0  0  0  0  0  0  0  0
   -1.3589   -1.1184    1.5953 H   0  0  0  0  0  0  0  0  0  0  0  0
    1.5650    0.5868   -1.8242 H   0  0  0  0  0  0  0  0  0  0  0  0
    3.4512    0.9209   -0.0878 H   0  0  0  0  0  0  0  0  0  0  0  0
    3.0589   -0.7622    0.5964 H   0  0  0  0  0  0  0  0  0  0  0  0
    1.1603    1.7520    0.4059 H   0  0  0  0  0  0  0  0  0  0  0  0
  1  2  1  0
  2  3  1  0
  2  4  1  0
  4  5  1  0
  4  6  1  0
  6  7  1  0
  7  8  1  0
  8  9  1  0
  9  4  1  0
  9  7  1  0
  1 10  1  0
  1 11  1  0
  1 12  1  0
  2 13  1  0
  3 14  1  0
  5 15  1  0
  5 16  1  0
  5 17  1  0
  7 18  1  0
  8 19  1  0
  8 20  1  0
  9 21  1  0
M  END
