
     RDKit          3D

 23 23  0  0  0  0  0  0  0  0999 V2000
    2.5040   -0.4513    1.3812 C   0  0  0  0  0  0  0  0  0  0  0  0
    2.1877    0.3878    0.1738 C   0  0  0  0  0  0  0  0  0  0  0  0
    2.9983   -0.0087   -0.8687 O   0  0  0  0  0  0  0  0  0  0  0  0
    0.7372    0.1881   -0.2457 C   0  0  0  0  0  0  0  0  0  0  0  0
   -0.1241    0.5840    0.7979 O   0  0  0  0  0  0  0  0  0  0  0  0
   -1.4149    0.3697    0.3328 C   0  0  0  0  0  0  0  0  0  0  0  0
   -1.7553    1.1519   -0.9105 C   0  0  0  0  0  0  0  0  0  0  0  0
   -1.8228   -1.1147    0.3462 C   0  0  0  0  0  0  0  0  0  0  0  0
   -2.4797   -0.1339    1.2284 C   0  0  0  0  0  0  0  0  0  0  0  0
    1.6706   -1.1519    1.6153 H   0  0  0  0  0  0  0  0  0  0  0  0
    2.7254    0.2171    2.2552 H   0  0  0  0  0  0  0  0  0  0  0  0
    3.4014   -1.1137    1.2104 H   0  0  0  0  0  0  0  0  0  0  0  0
    2.4086    1.4541    0.3803 H   0  0  0  0  0  0  0  0  0  0  0  0
    2.6319   -0.8417   -1.3006 H   0  0  0  0  0  0  0  0  0  0  0  0
    0.5257    0.7290   -1.1694 H   0  0  0  0  0  0  0  0  0  0  0  0
    0.6186   -0.8953   -0.4673 H   0  0  0  0  0  0  0  0  0  0  0  0
   -1.4602    0.5458   -1.7998 H   0  0  0  0  0  0  0  0  0  0  0  0
   -2.8626    1.3493   -0.9300 H   0  0  0  0  0  0  0  0  0  0  0  0
   -1.1697    2.0732   -0.9216 H   0  0  0  0  0  0  0  0  0  0  0  0
   -1.1417   -1.8336    0.8331 H   0  0  0  0  0  0  0  0  0  0  0  0
   -2.3132   -1.5129   -0.5687 H   0  0  0  0  0  0  0  0  0  0  0  0
   -2.3418   -0.1713    2.3183 H   0  0  0  0  0  0  0  0  0  0  0  0
   -3.5233    0.1791    0.9499 H   0  0  0  0  0  0  0  0  0  0  0  0
  1  2  1  0
  2  3  1  0
  2  4  1  0
  4  5  1  0
  5  6  1  0
  6  7  1  0
  6  8  1  0
  8  9  1  0
  9  6  1  0
  1 10  1  0
  1 11  1  0
  1 12  1  0
  2 13  1  0
  3 14  1  0
  4 15  1  0
  4 16  1  0
  7 17  1  0
  7 18  1  0
  7 19  1  0
  8 20  1  0
  8 21  1  0
  9 22  1  0
  9 23  1  0
M  END
