
     RDKit          3D

 21 21  0  0  0  0  0  0  0  0999 V2000
    2.4562    0.8253    0.0613 C   0  0  0  0  0  0  0  0  0  0  0  0
    1.1848    0.1804    0.4971 C   0  0  0  0  0  0  0  0  0  0  0  0
    1.3735   -1.0269    1.1594 O   0  0  0  0  0  0  0  0  0  0  0  0
    0.2581   -0.1315   -0.6795 C   0  0  0  0  0  0  0  0  0  0  0  0
    0.9546   -1.0872   -1.4526 O   0  0  0  0  0  0  0  0  0  0  0  0
   -0.9637   -0.7592   -0.0315 C   0  0  0  0  0  0  0  0  0  0  0  0
   -1.6383    0.1823    0.9570 C   0  0  0  0  0  0  0  0  0  0  0  0
   -2.3124   -0.2837   -0.2648 C   0  0  0  0  0  0  0  0  0  0  0  0
   -2.6298    0.6770   -1.2328 O   0  0  0  0  0  0  0  0  0  0  0  0
    2.9224    1.2926    0.9635 H   0  0  0  0  0  0  0  0  0  0  0  0
    2.2060    1.6579   -0.6215 H   0  0  0  0  0  0  0  0  0  0  0  0
    3.1094    0.0614   -0.3802 H   0  0  0  0  0  0  0  0  0  0  0  0
    0.6727    0.8618    1.2075 H   0  0  0  0  0  0  0  0  0  0  0  0
    2.2720   -1.3849    1.0788 H   0  0  0  0  0  0  0  0  0  0  0  0
    0.0144    0.7643   -1.2577 H   0  0  0  0  0  0  0  0  0  0  0  0
    0.5388   -1.2450   -2.3167 H   0  0  0  0  0  0  0  0  0  0  0  0
   -0.7929   -1.8127    0.2670 H   0  0  0  0  0  0  0  0  0  0  0  0
   -1.8362   -0.2578    1.9592 H   0  0  0  0  0  0  0  0  0  0  0  0
   -1.3434    1.2326    0.9957 H   0  0  0  0  0  0  0  0  0  0  0  0
   -3.1408   -1.0235   -0.1240 H   0  0  0  0  0  0  0  0  0  0  0  0
   -3.3054    1.2770   -0.7850 H   0  0  0  0  0  0  0  0  0  0  0  0
  1  2  1  0
  2  3  1  0
  2  4  1  0
  4  5  1  0
  4  6  1  0
  6  7  1  0
  7  8  1  0
  8  9  1  0
  8  6  1  0
  1 10  1  0
  1 11  1  0
  1 12  1  0
  2 13  1  0
  3 14  1  0
  4 15  1  0
  5 16  1  0
  6 17  1  0
  7 18  1  0
  7 19  1  0
  8 20  1  0
  9 21  1  0
M  END
