
     RDKit          3D

 18 18  0  0  0  0  0  0  0  0999 V2000
   -1.9955   -0.1918   -0.5543 C   0  0  0  0  0  0  0  0  0  0  0  0
   -0.9665   -0.0679    0.5761 C   0  0  0  0  0  0  0  0  0  0  0  0
   -0.9152    1.2256    1.0687 O   0  0  0  0  0  0  0  0  0  0  0  0
    0.3514   -0.5888    0.1047 C   0  0  0  0  0  0  0  0  0  0  0  0
    0.9686    0.0887   -1.0775 C   0  0  0  0  0  0  0  0  0  0  0  0
    2.1587    0.4023   -0.2327 C   0  0  0  0  0  0  0  0  0  0  0  0
    3.2675    0.8990   -0.3472 O   0  0  0  0  0  0  0  0  0  0  0  0
    1.4782   -0.1634    0.9886 C   0  0  0  0  0  0  0  0  0  0  0  0
   -2.9615    0.1088   -0.1055 H   0  0  0  0  0  0  0  0  0  0  0  0
   -2.0624   -1.3033   -0.7460 H   0  0  0  0  0  0  0  0  0  0  0  0
   -1.7120    0.3706   -1.4400 H   0  0  0  0  0  0  0  0  0  0  0  0
   -1.3368   -0.7566    1.3678 H   0  0  0  0  0  0  0  0  0  0  0  0
   -1.6288    1.7508    0.5945 H   0  0  0  0  0  0  0  0  0  0  0  0
    0.3172   -1.7042    0.0427 H   0  0  0  0  0  0  0  0  0  0  0  0
    1.2441   -0.6635   -1.8457 H   0  0  0  0  0  0  0  0  0  0  0  0
    0.4396    0.9636   -1.4850 H   0  0  0  0  0  0  0  0  0  0  0  0
    2.1082   -0.9985    1.3881 H   0  0  0  0  0  0  0  0  0  0  0  0
    1.2455    0.6286    1.7027 H   0  0  0  0  0  0  0  0  0  0  0  0
  1  2  1  0
  2  3  1  0
  2  4  1  0
  4  5  1  0
  5  6  1  0
  6  7  2  0
  6  8  1  0
  8  4  1  0
  1  9  1  0
  1 10  1  0
  1 11  1  0
  2 12  1  0
  3 13  1  0
  4 14  1  0
  5 15  1  0
  5 16  1  0
  8 17  1  0
  8 18  1  0
M  END
