
     RDKit          3D

 19 18  0  0  0  0  0  0  0  0999 V2000
    1.7153    0.5747   -0.5120 C   0  0  0  0  0  0  0  0  0  0  0  0
    0.8338   -0.1199    0.4759 C   0  0  0  0  0  0  0  0  0  0  0  0
    1.1519   -1.4762    0.4779 O   0  0  0  0  0  0  0  0  0  0  0  0
   -0.6365    0.0722    0.2131 C   0  0  0  0  0  0  0  0  0  0  0  0
   -0.9019   -0.4989   -1.1839 C   0  0  0  0  0  0  0  0  0  0  0  0
   -1.0853    1.4512    0.3279 C   0  0  0  0  0  0  0  0  0  0  0  0
   -0.5879    2.2008    1.1320 O   0  0  0  0  0  0  0  0  0  0  0  0
   -1.3760   -0.7952    1.1826 C   0  0  0  0  0  0  0  0  0  0  0  0
   -2.3499   -1.4427    0.8373 O   0  0  0  0  0  0  0  0  0  0  0  0
    1.4417    0.3621   -1.5588 H   0  0  0  0  0  0  0  0  0  0  0  0
    2.7547    0.2132   -0.3424 H   0  0  0  0  0  0  0  0  0  0  0  0
    1.7433    1.6699   -0.3052 H   0  0  0  0  0  0  0  0  0  0  0  0
    1.0801    0.2645    1.4931 H   0  0  0  0  0  0  0  0  0  0  0  0
    2.1255   -1.5869    0.2932 H   0  0  0  0  0  0  0  0  0  0  0  0
   -0.6883    0.3023   -1.8964 H   0  0  0  0  0  0  0  0  0  0  0  0
   -0.2939   -1.4113   -1.3419 H   0  0  0  0  0  0  0  0  0  0  0  0
   -1.9815   -0.7253   -1.2110 H   0  0  0  0  0  0  0  0  0  0  0  0
   -1.8677    1.8264   -0.3015 H   0  0  0  0  0  0  0  0  0  0  0  0
   -1.0776   -0.8810    2.2200 H   0  0  0  0  0  0  0  0  0  0  0  0
  1  2  1  0
  2  3  1  0
  2  4  1  0
  4  5  1  0
  4  6  1  0
  6  7  2  0
  4  8  1  0
  8  9  2  0
  1 10  1  0
  1 11  1  0
  1 12  1  0
  2 13  1  0
  3 14  1  0
  5 15  1  0
  5 16  1  0
  5 17  1  0
  6 18  1  0
  8 19  1  0
M  END
