
     RDKit          3D

 17 16  0  0  0  0  0  0  0  0999 V2000
   -1.9022   -0.7038   -0.9218 C   0  0  0  0  0  0  0  0  0  0  0  0
   -1.3581    0.0385    0.2805 C   0  0  0  0  0  0  0  0  0  0  0  0
   -1.7124   -0.6369    1.4465 O   0  0  0  0  0  0  0  0  0  0  0  0
    0.1137    0.0963    0.2194 C   0  0  0  0  0  0  0  0  0  0  0  0
    1.3198    0.1459    0.1902 C   0  0  0  0  0  0  0  0  0  0  0  0
    2.7957    0.2298    0.1439 C   0  0  0  0  0  0  0  0  0  0  0  0
    3.3511   -1.0380   -0.0713 O   0  0  0  0  0  0  0  0  0  0  0  0
   -1.8690    1.4332    0.3310 C   0  0  0  0  0  0  0  0  0  0  0  0
   -2.4895    1.8051    1.3025 O   0  0  0  0  0  0  0  0  0  0  0  0
   -1.0759   -0.8123   -1.6637 H   0  0  0  0  0  0  0  0  0  0  0  0
   -2.2365   -1.7218   -0.6689 H   0  0  0  0  0  0  0  0  0  0  0  0
   -2.7589   -0.1513   -1.3776 H   0  0  0  0  0  0  0  0  0  0  0  0
   -0.9893   -1.2397    1.7484 H   0  0  0  0  0  0  0  0  0  0  0  0
    3.2233    0.6181    1.0690 H   0  0  0  0  0  0  0  0  0  0  0  0
    3.0371    0.9038   -0.6955 H   0  0  0  0  0  0  0  0  0  0  0  0
    4.2564   -1.1004    0.3274 H   0  0  0  0  0  0  0  0  0  0  0  0
   -1.7055    2.1335   -0.4743 H   0  0  0  0  0  0  0  0  0  0  0  0
  1  2  1  0
  2  3  1  0
  2  4  1  0
  4  5  3  0
  5  6  1  0
  6  7  1  0
  2  8  1  0
  8  9  2  0
  1 10  1  0
  1 11  1  0
  1 12  1  0
  3 13  1  0
  6 14  1  0
  6 15  1  0
  7 16  1  0
  8 17  1  0
M  END
