
     RDKit          3D

 19 20  0  0  0  0  0  0  0  0999 V2000
    2.2878    0.7233   -0.2702 C   0  0  0  0  0  0  0  0  0  0  0  0
    1.2265    0.3461    0.6995 C   0  0  0  0  0  0  0  0  0  0  0  0
    1.8049   -0.2795    1.8119 O   0  0  0  0  0  0  0  0  0  0  0  0
    0.2487   -0.6779    0.1071 C   0  0  0  0  0  0  0  0  0  0  0  0
   -0.7431   -0.9786    1.1755 O   0  0  0  0  0  0  0  0  0  0  0  0
   -1.0686   -0.3977   -0.0179 C   0  0  0  0  0  0  0  0  0  0  0  0
   -1.8382    0.8513   -0.1432 C   0  0  0  0  0  0  0  0  0  0  0  0
   -2.3503    0.3764   -1.3725 O   0  0  0  0  0  0  0  0  0  0  0  0
   -2.1579   -0.9273   -0.8610 C   0  0  0  0  0  0  0  0  0  0  0  0
    3.3114    0.3907    0.0675 H   0  0  0  0  0  0  0  0  0  0  0  0
    2.3536    1.8440   -0.2971 H   0  0  0  0  0  0  0  0  0  0  0  0
    2.1344    0.3767   -1.2939 H   0  0  0  0  0  0  0  0  0  0  0  0
    0.6636    1.2284    1.0789 H   0  0  0  0  0  0  0  0  0  0  0  0
    2.2899   -1.0941    1.5233 H   0  0  0  0  0  0  0  0  0  0  0  0
    0.7390   -1.6034   -0.2121 H   0  0  0  0  0  0  0  0  0  0  0  0
   -2.6822    0.9408    0.5664 H   0  0  0  0  0  0  0  0  0  0  0  0
   -1.2703    1.8029   -0.2498 H   0  0  0  0  0  0  0  0  0  0  0  0
   -3.0322   -1.2391   -0.2185 H   0  0  0  0  0  0  0  0  0  0  0  0
   -1.9170   -1.6830   -1.6107 H   0  0  0  0  0  0  0  0  0  0  0  0
  1  2  1  0
  2  3  1  0
  2  4  1  0
  4  5  1  0
  5  6  1  0
  6  7  1  0
  7  8  1  0
  8  9  1  0
  6  4  1  0
  9  6  1  0
  1 10  1  0
  1 11  1  0
  1 12  1  0
  2 13  1  0
  3 14  1  0
  4 15  1  0
  7 16  1  0
  7 17  1  0
  9 18  1  0
  9 19  1  0
M  END
