
     RDKit          3D

 23 23  0  0  0  0  0  0  0  0999 V2000
    2.4567   -0.1679   -0.2196 C   0  0  0  0  0  0  0  0  0  0  0  0
    1.0636   -0.5581   -0.6448 C   0  0  0  0  0  0  0  0  0  0  0  0
    0.9584   -0.6380   -2.0299 O   0  0  0  0  0  0  0  0  0  0  0  0
    0.0950    0.4570   -0.0573 C   0  0  0  0  0  0  0  0  0  0  0  0
    0.2666    0.3829    1.4532 C   0  0  0  0  0  0  0  0  0  0  0  0
   -0.8821   -0.5746    1.7889 C   0  0  0  0  0  0  0  0  0  0  0  0
   -1.9133    0.0156    1.0441 O   0  0  0  0  0  0  0  0  0  0  0  0
   -1.3391    0.0385   -0.2264 C   0  0  0  0  0  0  0  0  0  0  0  0
   -2.1232    0.9857   -1.0977 C   0  0  0  0  0  0  0  0  0  0  0  0
    3.1879   -0.3931   -1.0432 H   0  0  0  0  0  0  0  0  0  0  0  0
    2.8179   -0.7078    0.6661 H   0  0  0  0  0  0  0  0  0  0  0  0
    2.5422    0.9253    0.0118 H   0  0  0  0  0  0  0  0  0  0  0  0
    0.8552   -1.5587   -0.2131 H   0  0  0  0  0  0  0  0  0  0  0  0
    0.6031   -1.5335   -2.3051 H   0  0  0  0  0  0  0  0  0  0  0  0
    0.3105    1.4586   -0.4523 H   0  0  0  0  0  0  0  0  0  0  0  0
    1.2378   -0.0162    1.7557 H   0  0  0  0  0  0  0  0  0  0  0  0
    0.0709    1.3931    1.9008 H   0  0  0  0  0  0  0  0  0  0  0  0
   -0.6536   -1.5313    1.2966 H   0  0  0  0  0  0  0  0  0  0  0  0
   -1.0866   -0.6238    2.8520 H   0  0  0  0  0  0  0  0  0  0  0  0
   -1.4382   -0.9927   -0.6417 H   0  0  0  0  0  0  0  0  0  0  0  0
   -1.9642    2.0266   -0.7070 H   0  0  0  0  0  0  0  0  0  0  0  0
   -1.8705    0.8857   -2.1519 H   0  0  0  0  0  0  0  0  0  0  0  0
   -3.1952    0.7268   -0.9792 H   0  0  0  0  0  0  0  0  0  0  0  0
  1  2  1  0
  2  3  1  0
  2  4  1  0
  4  5  1  0
  5  6  1  0
  6  7  1  0
  7  8  1  0
  8  9  1  0
  8  4  1  0
  1 10  1  0
  1 11  1  0
  1 12  1  0
  2 13  1  0
  3 14  1  0
  4 15  1  0
  5 16  1  0
  5 17  1  0
  6 18  1  0
  6 19  1  0
  8 20  1  0
  9 21  1  0
  9 22  1  0
  9 23  1  0
M  END
