
     RDKit          3D

 21 21  0  0  0  0  0  0  0  0999 V2000
    1.7824   -1.0684   -0.1139 C   0  0  0  0  0  0  0  0  0  0  0  0
    1.5319    0.3808   -0.2615 C   0  0  0  0  0  0  0  0  0  0  0  0
    2.3507    1.0695    0.6338 O   0  0  0  0  0  0  0  0  0  0  0  0
    0.1053    0.8079   -0.1089 C   0  0  0  0  0  0  0  0  0  0  0  0
   -0.9400    0.2577   -1.0411 C   0  0  0  0  0  0  0  0  0  0  0  0
   -0.6121   -0.7229   -1.9544 O   0  0  0  0  0  0  0  0  0  0  0  0
   -0.9520   -0.0465    0.4326 C   0  0  0  0  0  0  0  0  0  0  0  0
   -2.0414    0.6121    1.2597 C   0  0  0  0  0  0  0  0  0  0  0  0
   -0.7198   -1.3590    0.8384 O   0  0  0  0  0  0  0  0  0  0  0  0
    2.8083   -1.2780   -0.5301 H   0  0  0  0  0  0  0  0  0  0  0  0
    1.8763   -1.3126    0.9803 H   0  0  0  0  0  0  0  0  0  0  0  0
    1.1030   -1.7344   -0.6423 H   0  0  0  0  0  0  0  0  0  0  0  0
    1.8628    0.7257   -1.2846 H   0  0  0  0  0  0  0  0  0  0  0  0
    2.6468    1.9388    0.2671 H   0  0  0  0  0  0  0  0  0  0  0  0
   -0.0037    1.9033    0.0728 H   0  0  0  0  0  0  0  0  0  0  0  0
   -1.7588    0.9365   -1.4045 H   0  0  0  0  0  0  0  0  0  0  0  0
   -1.0136   -1.6045   -1.7676 H   0  0  0  0  0  0  0  0  0  0  0  0
   -3.0097    0.1170    1.1770 H   0  0  0  0  0  0  0  0  0  0  0  0
   -2.1670    1.6648    0.8760 H   0  0  0  0  0  0  0  0  0  0  0  0
   -1.6911    0.7388    2.3125 H   0  0  0  0  0  0  0  0  0  0  0  0
   -1.1584   -2.0265    0.2587 H   0  0  0  0  0  0  0  0  0  0  0  0
  1  2  1  0
  2  3  1  0
  2  4  1  0
  4  5  1  0
  5  6  1  0
  5  7  1  0
  7  8  1  0
  7  9  1  0
  7  4  1  0
  1 10  1  0
  1 11  1  0
  1 12  1  0
  2 13  1  0
  3 14  1  0
  4 15  1  0
  5 16  1  0
  6 17  1  0
  8 18  1  0
  8 19  1  0
  8 20  1  0
  9 21  1  0
M  END
