
     RDKit          3D

 23 24  0  0  0  0  0  0  0  0999 V2000
    2.8908   -0.8613   -0.4394 C   0  0  0  0  0  0  0  0  0  0  0  0
    1.9664   -0.0109    0.4058 C   0  0  0  0  0  0  0  0  0  0  0  0
    2.6480    1.1219    0.8002 O   0  0  0  0  0  0  0  0  0  0  0  0
    0.6948    0.2672   -0.3227 C   0  0  0  0  0  0  0  0  0  0  0  0
   -0.3985    1.0650    0.2358 C   0  0  0  0  0  0  0  0  0  0  0  0
   -1.6319    1.2025   -0.6314 C   0  0  0  0  0  0  0  0  0  0  0  0
   -1.8460   -0.2876   -0.4706 C   0  0  0  0  0  0  0  0  0  0  0  0
   -2.9559   -0.5681    0.5499 C   0  0  0  0  0  0  0  0  0  0  0  0
   -0.5064   -0.4264    0.1629 C   0  0  0  0  0  0  0  0  0  0  0  0
    3.2960   -0.1749   -1.2394 H   0  0  0  0  0  0  0  0  0  0  0  0
    2.3235   -1.6435   -0.9995 H   0  0  0  0  0  0  0  0  0  0  0  0
    3.7117   -1.3016    0.1329 H   0  0  0  0  0  0  0  0  0  0  0  0
    1.7701   -0.6057    1.3436 H   0  0  0  0  0  0  0  0  0  0  0  0
    3.4746    0.8208    1.2559 H   0  0  0  0  0  0  0  0  0  0  0  0
    0.8380    0.3671   -1.4385 H   0  0  0  0  0  0  0  0  0  0  0  0
   -0.3550    1.5707    1.2092 H   0  0  0  0  0  0  0  0  0  0  0  0
   -1.3592    1.4069   -1.6964 H   0  0  0  0  0  0  0  0  0  0  0  0
   -2.4500    1.7970   -0.2262 H   0  0  0  0  0  0  0  0  0  0  0  0
   -2.0260   -0.8473   -1.3974 H   0  0  0  0  0  0  0  0  0  0  0  0
   -3.7777   -1.1569    0.0990 H   0  0  0  0  0  0  0  0  0  0  0  0
   -2.5361   -1.1512    1.3962 H   0  0  0  0  0  0  0  0  0  0  0  0
   -3.3216    0.3939    0.9909 H   0  0  0  0  0  0  0  0  0  0  0  0
   -0.4496   -0.9775    1.1289 H   0  0  0  0  0  0  0  0  0  0  0  0
  1  2  1  0
  2  3  1  0
  2  4  1  0
  4  5  1  0
  5  6  1  0
  6  7  1  0
  7  8  1  0
  7  9  1  0
  9  4  1  0
  9  5  1  0
  1 10  1  0
  1 11  1  0
  1 12  1  0
  2 13  1  0
  3 14  1  0
  4 15  1  0
  5 16  1  0
  6 17  1  0
  6 18  1  0
  7 19  1  0
  8 20  1  0
  8 21  1  0
  8 22  1  0
  9 23  1  0
M  END
