
     RDKit          3D

 15 14  0  0  0  0  0  0  0  0999 V2000
   -0.9222    0.8934   -0.5684 C   0  0  0  0  0  0  0  0  0  0  0  0
   -0.3664    0.1176    0.6290 C   0  0  0  0  0  0  0  0  0  0  0  0
   -0.8157    0.7524    1.7977 O   0  0  0  0  0  0  0  0  0  0  0  0
   -0.8676   -1.2598    0.6169 C   0  0  0  0  0  0  0  0  0  0  0  0
   -0.6041   -1.9904   -0.3121 O   0  0  0  0  0  0  0  0  0  0  0  0
    1.1096    0.2241    0.6012 C   0  0  0  0  0  0  0  0  0  0  0  0
    1.6748    0.7888    1.5786 O   0  0  0  0  0  0  0  0  0  0  0  0
    1.9192   -0.2782   -0.4727 C   0  0  0  0  0  0  0  0  0  0  0  0
    1.4351   -0.8460   -1.4820 O   0  0  0  0  0  0  0  0  0  0  0  0
   -0.4309    1.8772   -0.6301 H   0  0  0  0  0  0  0  0  0  0  0  0
   -0.6782    0.3502   -1.5048 H   0  0  0  0  0  0  0  0  0  0  0  0
   -2.0281    1.0447   -0.4591 H   0  0  0  0  0  0  0  0  0  0  0  0
   -0.9478    0.1394    2.5433 H   0  0  0  0  0  0  0  0  0  0  0  0
   -1.4682   -1.6409    1.4188 H   0  0  0  0  0  0  0  0  0  0  0  0
    2.9906   -0.1726   -0.4286 H   0  0  0  0  0  0  0  0  0  0  0  0
  1  2  1  0
  2  3  1  0
  2  4  1  0
  4  5  2  0
  2  6  1  0
  6  7  2  0
  6  8  1  0
  8  9  2  0
  1 10  1  0
  1 11  1  0
  1 12  1  0
  3 13  1  0
  4 14  1  0
  8 15  1  0
M  END
