
     RDKit          3D

 25 24  0  0  0  0  0  0  0  0999 V2000
   -1.5714   -0.3228   -1.7618 C   0  0  0  0  0  0  0  0  0  0  0  0
   -1.4557    0.5382   -0.5272 C   0  0  0  0  0  0  0  0  0  0  0  0
   -2.7290    0.6128    0.0391 O   0  0  0  0  0  0  0  0  0  0  0  0
   -0.5466   -0.0855    0.5064 C   0  0  0  0  0  0  0  0  0  0  0  0
   -0.4497    0.7871    1.7183 C   0  0  0  0  0  0  0  0  0  0  0  0
    0.7972   -0.4570   -0.0649 C   0  0  0  0  0  0  0  0  0  0  0  0
    1.6107   -1.0670    1.0577 C   0  0  0  0  0  0  0  0  0  0  0  0
    1.5658    0.7160   -0.5957 C   0  0  0  0  0  0  0  0  0  0  0  0
    2.7779    0.2331   -1.0892 O   0  0  0  0  0  0  0  0  0  0  0  0
   -0.9691    0.0809   -2.6097 H   0  0  0  0  0  0  0  0  0  0  0  0
   -2.6155   -0.3739   -2.1350 H   0  0  0  0  0  0  0  0  0  0  0  0
   -1.2417   -1.3606   -1.6026 H   0  0  0  0  0  0  0  0  0  0  0  0
   -1.1686    1.5605   -0.8043 H   0  0  0  0  0  0  0  0  0  0  0  0
   -2.8269   -0.1703    0.6625 H   0  0  0  0  0  0  0  0  0  0  0  0
   -1.0337   -1.0374    0.8188 H   0  0  0  0  0  0  0  0  0  0  0  0
    0.1964    1.6623    1.5919 H   0  0  0  0  0  0  0  0  0  0  0  0
   -1.4762    1.1602    1.9427 H   0  0  0  0  0  0  0  0  0  0  0  0
   -0.1685    0.1612    2.6083 H   0  0  0  0  0  0  0  0  0  0  0  0
    0.6467   -1.1984   -0.8469 H   0  0  0  0  0  0  0  0  0  0  0  0
    2.5382   -1.5262    0.7047 H   0  0  0  0  0  0  0  0  0  0  0  0
    1.7945   -0.2432    1.7887 H   0  0  0  0  0  0  0  0  0  0  0  0
    0.9344   -1.7898    1.5802 H   0  0  0  0  0  0  0  0  0  0  0  0
    1.7922    1.4830    0.1387 H   0  0  0  0  0  0  0  0  0  0  0  0
    1.0540    1.1974   -1.4706 H   0  0  0  0  0  0  0  0  0  0  0  0
    2.5447   -0.5606   -1.6499 H   0  0  0  0  0  0  0  0  0  0  0  0
  1  2  1  0
  2  3  1  0
  2  4  1  0
  4  5  1  0
  4  6  1  0
  6  7  1  0
  6  8  1  0
  8  9  1  0
  1 10  1  0
  1 11  1  0
  1 12  1  0
  2 13  1  0
  3 14  1  0
  4 15  1  0
  5 16  1  0
  5 17  1  0
  5 18  1  0
  6 19  1  0
  7 20  1  0
  7 21  1  0
  7 22  1  0
  8 23  1  0
  8 24  1  0
  9 25  1  0
M  END
