
     RDKit          3D

 20 20  0  0  0  0  0  0  0  0999 V2000
   -1.8219    1.1957   -0.0215 C   0  0  0  0  0  0  0  0  0  0  0  0
   -1.3533    0.1181    0.9090 C   0  0  0  0  0  0  0  0  0  0  0  0
   -2.3639   -0.8012    1.1487 O   0  0  0  0  0  0  0  0  0  0  0  0
   -0.1488   -0.6198    0.4273 C   0  0  0  0  0  0  0  0  0  0  0  0
   -0.2672   -1.3531   -0.7244 O   0  0  0  0  0  0  0  0  0  0  0  0
    1.0980   -1.1513   -0.9394 C   0  0  0  0  0  0  0  0  0  0  0  0
    0.9408    0.1807   -0.2035 C   0  0  0  0  0  0  0  0  0  0  0  0
    2.1164    0.4757    0.7061 C   0  0  0  0  0  0  0  0  0  0  0  0
   -1.2050    2.1119    0.0265 H   0  0  0  0  0  0  0  0  0  0  0  0
   -1.9615    0.8582   -1.0659 H   0  0  0  0  0  0  0  0  0  0  0  0
   -2.8435    1.5132    0.3374 H   0  0  0  0  0  0  0  0  0  0  0  0
   -1.0920    0.6039    1.8732 H   0  0  0  0  0  0  0  0  0  0  0  0
   -2.2627   -1.6016    0.5681 H   0  0  0  0  0  0  0  0  0  0  0  0
    0.2753   -1.2341    1.2661 H   0  0  0  0  0  0  0  0  0  0  0  0
    1.6660   -1.8789   -0.3395 H   0  0  0  0  0  0  0  0  0  0  0  0
    1.3831   -1.0497   -1.9938 H   0  0  0  0  0  0  0  0  0  0  0  0
    0.6510    0.9893   -0.8736 H   0  0  0  0  0  0  0  0  0  0  0  0
    2.1293   -0.2879    1.5251 H   0  0  0  0  0  0  0  0  0  0  0  0
    3.0878    0.4550    0.1593 H   0  0  0  0  0  0  0  0  0  0  0  0
    1.9719    1.4758    1.1278 H   0  0  0  0  0  0  0  0  0  0  0  0
  1  2  1  0
  2  3  1  0
  2  4  1  0
  4  5  1  0
  5  6  1  0
  6  7  1  0
  7  8  1  0
  7  4  1  0
  1  9  1  0
  1 10  1  0
  1 11  1  0
  2 12  1  0
  3 13  1  0
  4 14  1  0
  6 15  1  0
  6 16  1  0
  7 17  1  0
  8 18  1  0
  8 19  1  0
  8 20  1  0
M  END
