
     RDKit          3D

 19 19  0  0  0  0  0  0  0  0999 V2000
    2.3193    0.4230    0.4258 C   0  0  0  0  0  0  0  0  0  0  0  0
    1.2152   -0.1104   -0.4021 C   0  0  0  0  0  0  0  0  0  0  0  0
    1.4204   -1.4102   -0.8631 O   0  0  0  0  0  0  0  0  0  0  0  0
   -0.1332   -0.0715    0.2633 C   0  0  0  0  0  0  0  0  0  0  0  0
   -1.2244   -0.6283   -0.6270 C   0  0  0  0  0  0  0  0  0  0  0  0
   -2.4583   -0.0271    0.0627 C   0  0  0  0  0  0  0  0  0  0  0  0
   -2.0092    1.2144    0.5599 O   0  0  0  0  0  0  0  0  0  0  0  0
   -0.6265    1.3115    0.4827 C   0  0  0  0  0  0  0  0  0  0  0  0
    0.0140    2.3901    0.5868 O   0  0  0  0  0  0  0  0  0  0  0  0
    2.5885    1.4657    0.1264 H   0  0  0  0  0  0  0  0  0  0  0  0
    2.1101    0.4108    1.5298 H   0  0  0  0  0  0  0  0  0  0  0  0
    3.2158   -0.2415    0.2877 H   0  0  0  0  0  0  0  0  0  0  0  0
    1.1314    0.5282   -1.3223 H   0  0  0  0  0  0  0  0  0  0  0  0
    0.9678   -2.0131   -0.2207 H   0  0  0  0  0  0  0  0  0  0  0  0
   -0.1664   -0.6447    1.2054 H   0  0  0  0  0  0  0  0  0  0  0  0
   -1.1318   -0.2300   -1.6530 H   0  0  0  0  0  0  0  0  0  0  0  0
   -1.2713   -1.7302   -0.6016 H   0  0  0  0  0  0  0  0  0  0  0  0
   -3.2219    0.1044   -0.7038 H   0  0  0  0  0  0  0  0  0  0  0  0
   -2.7393   -0.7410    0.8632 H   0  0  0  0  0  0  0  0  0  0  0  0
  1  2  1  0
  2  3  1  0
  2  4  1  0
  4  5  1  0
  5  6  1  0
  6  7  1  0
  7  8  1  0
  8  9  2  0
  8  4  1  0
  1 10  1  0
  1 11  1  0
  1 12  1  0
  2 13  1  0
  3 14  1  0
  4 15  1  0
  5 16  1  0
  5 17  1  0
  6 18  1  0
  6 19  1  0
M  END
