
     RDKit          3D

 21 21  0  0  0  0  0  0  0  0999 V2000
   -2.2044    0.7914   -0.0239 C   0  0  0  0  0  0  0  0  0  0  0  0
   -1.3967    0.0428   -1.0378 C   0  0  0  0  0  0  0  0  0  0  0  0
   -2.1837   -0.6464   -1.9583 O   0  0  0  0  0  0  0  0  0  0  0  0
   -0.4972   -0.9360   -0.2699 C   0  0  0  0  0  0  0  0  0  0  0  0
    0.3944   -0.1641    0.6525 C   0  0  0  0  0  0  0  0  0  0  0  0
    1.3764   -0.7978    1.5310 C   0  0  0  0  0  0  0  0  0  0  0  0
    1.8956   -0.2062    0.2616 C   0  0  0  0  0  0  0  0  0  0  0  0
    2.5485    1.1171    0.2632 C   0  0  0  0  0  0  0  0  0  0  0  0
    2.2957    1.9291    1.1197 O   0  0  0  0  0  0  0  0  0  0  0  0
   -1.9873    1.8820   -0.1428 H   0  0  0  0  0  0  0  0  0  0  0  0
   -3.3091    0.6629   -0.2031 H   0  0  0  0  0  0  0  0  0  0  0  0
   -2.0190    0.4763    1.0154 H   0  0  0  0  0  0  0  0  0  0  0  0
   -0.7385    0.7215   -1.6184 H   0  0  0  0  0  0  0  0  0  0  0  0
   -1.7127   -0.7864   -2.8146 H   0  0  0  0  0  0  0  0  0  0  0  0
   -1.1109   -1.7067    0.2376 H   0  0  0  0  0  0  0  0  0  0  0  0
    0.0883   -1.4861   -1.0561 H   0  0  0  0  0  0  0  0  0  0  0  0
   -0.0075    0.8157    0.9847 H   0  0  0  0  0  0  0  0  0  0  0  0
    1.5003   -1.8895    1.6231 H   0  0  0  0  0  0  0  0  0  0  0  0
    1.6391   -0.2743    2.4954 H   0  0  0  0  0  0  0  0  0  0  0  0
    2.1738   -0.9030   -0.5536 H   0  0  0  0  0  0  0  0  0  0  0  0
    3.2549    1.3577   -0.5059 H   0  0  0  0  0  0  0  0  0  0  0  0
  1  2  1  0
  2  3  1  0
  2  4  1  0
  4  5  1  0
  5  6  1  0
  6  7  1  0
  7  8  1  0
  8  9  2  0
  7  5  1  0
  1 10  1  0
  1 11  1  0
  1 12  1  0
  2 13  1  0
  3 14  1  0
  4 15  1  0
  4 16  1  0
  5 17  1  0
  6 18  1  0
  6 19  1  0
  7 20  1  0
  8 21  1  0
M  END
