
     RDKit          3D

 21 21  0  0  0  0  0  0  0  0999 V2000
   -2.2528   -0.7099    0.4037 C   0  0  0  0  0  0  0  0  0  0  0  0
   -0.9090   -0.8786   -0.3292 C   0  0  0  0  0  0  0  0  0  0  0  0
   -0.1763   -1.7327    0.4520 O   0  0  0  0  0  0  0  0  0  0  0  0
   -0.3634    0.4827   -0.5328 C   0  0  0  0  0  0  0  0  0  0  0  0
   -1.2121    1.2684   -1.3548 O   0  0  0  0  0  0  0  0  0  0  0  0
    0.1257    1.1501    0.7615 C   0  0  0  0  0  0  0  0  0  0  0  0
    1.0263    0.8914   -0.4374 C   0  0  0  0  0  0  0  0  0  0  0  0
    2.2030    0.0183   -0.2887 C   0  0  0  0  0  0  0  0  0  0  0  0
    2.2350   -0.7807    0.8332 O   0  0  0  0  0  0  0  0  0  0  0  0
   -2.6103   -1.6753    0.8029 H   0  0  0  0  0  0  0  0  0  0  0  0
   -2.0499    0.0447    1.1942 H   0  0  0  0  0  0  0  0  0  0  0  0
   -2.9994   -0.2309   -0.2856 H   0  0  0  0  0  0  0  0  0  0  0  0
   -1.1873   -1.3679   -1.3088 H   0  0  0  0  0  0  0  0  0  0  0  0
   -0.3203   -1.6202    1.4239 H   0  0  0  0  0  0  0  0  0  0  0  0
   -1.1126    2.2007   -1.0396 H   0  0  0  0  0  0  0  0  0  0  0  0
   -0.2196    2.1571    0.9929 H   0  0  0  0  0  0  0  0  0  0  0  0
    0.3269    0.4935    1.6289 H   0  0  0  0  0  0  0  0  0  0  0  0
    1.2841    1.8618   -0.9611 H   0  0  0  0  0  0  0  0  0  0  0  0
    3.1280    0.6299   -0.2603 H   0  0  0  0  0  0  0  0  0  0  0  0
    2.2923   -0.6270   -1.1879 H   0  0  0  0  0  0  0  0  0  0  0  0
    2.7916   -1.5756    0.6151 H   0  0  0  0  0  0  0  0  0  0  0  0
  1  2  1  0
  2  3  1  0
  2  4  1  0
  4  5  1  0
  4  6  1  0
  6  7  1  0
  7  8  1  0
  8  9  1  0
  7  4  1  0
  1 10  1  0
  1 11  1  0
  1 12  1  0
  2 13  1  0
  3 14  1  0
  5 15  1  0
  6 16  1  0
  6 17  1  0
  7 18  1  0
  8 19  1  0
  8 20  1  0
  9 21  1  0
M  END
