
     RDKit          3D

 17 18  0  0  0  0  0  0  0  0999 V2000
    1.3991   -0.9161    0.1183 C   0  0  0  0  0  0  0  0  0  0  0  0
    0.7726   -0.0055   -0.8650 C   0  0  0  0  0  0  0  0  0  0  0  0
    1.5538    1.1444   -1.1060 O   0  0  0  0  0  0  0  0  0  0  0  0
   -0.6693    0.3968   -0.5261 C   0  0  0  0  0  0  0  0  0  0  0  0
   -1.5480   -0.7468   -0.4433 C   0  0  0  0  0  0  0  0  0  0  0  0
   -1.2415   -0.1861    0.8291 C   0  0  0  0  0  0  0  0  0  0  0  0
   -0.0664    0.4925    1.2645 O   0  0  0  0  0  0  0  0  0  0  0  0
   -0.6004    1.5149    0.4572 C   0  0  0  0  0  0  0  0  0  0  0  0
   -0.8909    2.7156    0.4712 O   0  0  0  0  0  0  0  0  0  0  0  0
    0.6517   -1.6020    0.5330 H   0  0  0  0  0  0  0  0  0  0  0  0
    2.0429   -0.4237    0.8801 H   0  0  0  0  0  0  0  0  0  0  0  0
    2.1192   -1.5769   -0.4546 H   0  0  0  0  0  0  0  0  0  0  0  0
    0.7027   -0.5176   -1.8525 H   0  0  0  0  0  0  0  0  0  0  0  0
    1.6280    1.7007   -0.2892 H   0  0  0  0  0  0  0  0  0  0  0  0
   -1.1966   -1.8035   -0.6411 H   0  0  0  0  0  0  0  0  0  0  0  0
   -2.5595   -0.6136   -0.9218 H   0  0  0  0  0  0  0  0  0  0  0  0
   -2.0975    0.4270    1.2655 H   0  0  0  0  0  0  0  0  0  0  0  0
  1  2  1  0
  2  3  1  0
  2  4  1  0
  4  5  1  0
  5  6  1  0
  6  7  1  0
  7  8  1  0
  8  9  2  0
  6  4  1  0
  8  4  1  0
  1 10  1  0
  1 11  1  0
  1 12  1  0
  2 13  1  0
  3 14  1  0
  5 15  1  0
  5 16  1  0
  6 17  1  0
M  END
