
     RDKit          3D

 21 21  0  0  0  0  0  0  0  0999 V2000
   -2.8096   -0.6155    0.4695 C   0  0  0  0  0  0  0  0  0  0  0  0
   -1.9624   -0.5535   -0.7789 C   0  0  0  0  0  0  0  0  0  0  0  0
   -2.0196    0.7286   -1.3266 O   0  0  0  0  0  0  0  0  0  0  0  0
   -0.5644   -0.9093   -0.5408 C   0  0  0  0  0  0  0  0  0  0  0  0
   -0.2634   -1.9615   -0.0400 O   0  0  0  0  0  0  0  0  0  0  0  0
    0.5183    0.0457   -0.9212 C   0  0  0  0  0  0  0  0  0  0  0  0
    1.3617    0.3425    0.2999 C   0  0  0  0  0  0  0  0  0  0  0  0
    2.5261    1.2927    0.1586 C   0  0  0  0  0  0  0  0  0  0  0  0
    2.7368   -0.1782    0.4478 C   0  0  0  0  0  0  0  0  0  0  0  0
   -2.7783    0.3810    0.9627 H   0  0  0  0  0  0  0  0  0  0  0  0
   -2.4870   -1.3949    1.1682 H   0  0  0  0  0  0  0  0  0  0  0  0
   -3.8684   -0.8222    0.2263 H   0  0  0  0  0  0  0  0  0  0  0  0
   -2.3517   -1.2374   -1.5785 H   0  0  0  0  0  0  0  0  0  0  0  0
   -1.7622    1.3732   -0.6126 H   0  0  0  0  0  0  0  0  0  0  0  0
    1.1226   -0.4383   -1.7246 H   0  0  0  0  0  0  0  0  0  0  0  0
    0.1258    1.0166   -1.2935 H   0  0  0  0  0  0  0  0  0  0  0  0
    0.7606    0.5182    1.2436 H   0  0  0  0  0  0  0  0  0  0  0  0
    2.7978    1.6526   -0.8427 H   0  0  0  0  0  0  0  0  0  0  0  0
    2.6934    2.0446    0.9625 H   0  0  0  0  0  0  0  0  0  0  0  0
    3.2017   -0.8114   -0.3236 H   0  0  0  0  0  0  0  0  0  0  0  0
    3.0219   -0.4735    1.4906 H   0  0  0  0  0  0  0  0  0  0  0  0
  1  2  1  0
  2  3  1  0
  2  4  1  0
  4  5  2  0
  4  6  1  0
  6  7  1  0
  7  8  1  0
  8  9  1  0
  9  7  1  0
  1 10  1  0
  1 11  1  0
  1 12  1  0
  2 13  1  0
  3 14  1  0
  6 15  1  0
  6 16  1  0
  7 17  1  0
  8 18  1  0
  8 19  1  0
  9 20  1  0
  9 21  1  0
M  END
