
     RDKit          3D

 21 20  0  0  0  0  0  0  0  0999 V2000
    2.1335   -0.2156   -0.7199 C   0  0  0  0  0  0  0  0  0  0  0  0
    0.7535    0.3268   -0.4818 C   0  0  0  0  0  0  0  0  0  0  0  0
    0.8563    1.5395    0.2025 O   0  0  0  0  0  0  0  0  0  0  0  0
   -0.1624   -0.6446    0.1918 C   0  0  0  0  0  0  0  0  0  0  0  0
    0.2864   -1.1044    1.5298 C   0  0  0  0  0  0  0  0  0  0  0  0
   -1.5350    0.0168    0.2855 C   0  0  0  0  0  0  0  0  0  0  0  0
   -1.4793    1.1968    1.0222 O   0  0  0  0  0  0  0  0  0  0  0  0
   -2.0940    0.3206   -1.0409 C   0  0  0  0  0  0  0  0  0  0  0  0
   -2.2676   -0.5173   -1.9185 O   0  0  0  0  0  0  0  0  0  0  0  0
    2.4585   -0.8005    0.1439 H   0  0  0  0  0  0  0  0  0  0  0  0
    2.1241   -0.8369   -1.6570 H   0  0  0  0  0  0  0  0  0  0  0  0
    2.8191    0.6545   -0.8111 H   0  0  0  0  0  0  0  0  0  0  0  0
    0.2933    0.5684   -1.4647 H   0  0  0  0  0  0  0  0  0  0  0  0
    1.3011    2.1954   -0.3913 H   0  0  0  0  0  0  0  0  0  0  0  0
   -0.2835   -1.5163   -0.4713 H   0  0  0  0  0  0  0  0  0  0  0  0
    0.9286   -0.4054    2.0768 H   0  0  0  0  0  0  0  0  0  0  0  0
   -0.6291   -1.2694    2.1590 H   0  0  0  0  0  0  0  0  0  0  0  0
    0.7599   -2.1209    1.4604 H   0  0  0  0  0  0  0  0  0  0  0  0
   -2.2228   -0.7297    0.7656 H   0  0  0  0  0  0  0  0  0  0  0  0
   -1.6484    2.0040    0.4405 H   0  0  0  0  0  0  0  0  0  0  0  0
   -2.3923    1.3381   -1.3215 H   0  0  0  0  0  0  0  0  0  0  0  0
  1  2  1  0
  2  3  1  0
  2  4  1  0
  4  5  1  0
  4  6  1  0
  6  7  1  0
  6  8  1  0
  8  9  2  0
  1 10  1  0
  1 11  1  0
  1 12  1  0
  2 13  1  0
  3 14  1  0
  4 15  1  0
  5 16  1  0
  5 17  1  0
  5 18  1  0
  6 19  1  0
  7 20  1  0
  8 21  1  0
M  END
