
     RDKit          3D

 21 21  0  0  0  0  0  0  0  0999 V2000
    2.2510   -0.6717   -0.0430 C   0  0  0  0  0  0  0  0  0  0  0  0
    1.5902    0.6830    0.1017 C   0  0  0  0  0  0  0  0  0  0  0  0
    2.6033    1.5902    0.3939 O   0  0  0  0  0  0  0  0  0  0  0  0
    0.5881    0.5811    1.1950 C   0  0  0  0  0  0  0  0  0  0  0  0
    0.8090    1.2702    2.1796 O   0  0  0  0  0  0  0  0  0  0  0  0
   -0.6013   -0.2446    1.1953 C   0  0  0  0  0  0  0  0  0  0  0  0
   -0.8763   -1.3985    0.3481 C   0  0  0  0  0  0  0  0  0  0  0  0
   -1.3999   -0.1149   -0.1402 C   0  0  0  0  0  0  0  0  0  0  0  0
   -2.7848    0.3629    0.0417 C   0  0  0  0  0  0  0  0  0  0  0  0
    3.3794   -0.5839   -0.0347 H   0  0  0  0  0  0  0  0  0  0  0  0
    1.9781   -1.0654   -1.0547 H   0  0  0  0  0  0  0  0  0  0  0  0
    1.9591   -1.3272    0.7798 H   0  0  0  0  0  0  0  0  0  0  0  0
    1.1036    1.0021   -0.8461 H   0  0  0  0  0  0  0  0  0  0  0  0
    2.7562    2.2476   -0.3245 H   0  0  0  0  0  0  0  0  0  0  0  0
   -1.2190   -0.1729    2.1275 H   0  0  0  0  0  0  0  0  0  0  0  0
   -1.6230   -2.1474    0.7298 H   0  0  0  0  0  0  0  0  0  0  0  0
   -0.1109   -1.9177   -0.2659 H   0  0  0  0  0  0  0  0  0  0  0  0
   -0.8719    0.3230   -1.0095 H   0  0  0  0  0  0  0  0  0  0  0  0
   -2.7919    1.4868    0.1321 H   0  0  0  0  0  0  0  0  0  0  0  0
   -3.2426    0.0081    1.0007 H   0  0  0  0  0  0  0  0  0  0  0  0
   -3.4963    0.0893   -0.7514 H   0  0  0  0  0  0  0  0  0  0  0  0
  1  2  1  0
  2  3  1  0
  2  4  1  0
  4  5  2  0
  4  6  1  0
  6  7  1  0
  7  8  1  0
  8  9  1  0
  8  6  1  0
  1 10  1  0
  1 11  1  0
  1 12  1  0
  2 13  1  0
  3 14  1  0
  6 15  1  0
  7 16  1  0
  7 17  1  0
  8 18  1  0
  9 19  1  0
  9 20  1  0
  9 21  1  0
M  END
