
     RDKit          3D

 21 21  0  0  0  0  0  0  0  0999 V2000
   -3.1003   -0.1017    0.1611 C   0  0  0  0  0  0  0  0  0  0  0  0
   -1.7181    0.3736    0.5840 C   0  0  0  0  0  0  0  0  0  0  0  0
   -1.3736    1.5059   -0.1353 O   0  0  0  0  0  0  0  0  0  0  0  0
   -0.7709   -0.7722    0.3020 C   0  0  0  0  0  0  0  0  0  0  0  0
    0.6221   -0.4680    0.6615 C   0  0  0  0  0  0  0  0  0  0  0  0
    0.9608   -0.5630    1.8221 O   0  0  0  0  0  0  0  0  0  0  0  0
    1.6220   -0.0498   -0.3465 C   0  0  0  0  0  0  0  0  0  0  0  0
    3.0611   -0.5945   -0.1976 C   0  0  0  0  0  0  0  0  0  0  0  0
    2.7511    0.8417    0.0087 C   0  0  0  0  0  0  0  0  0  0  0  0
   -3.8576    0.5755    0.6229 H   0  0  0  0  0  0  0  0  0  0  0  0
   -3.2936   -1.1396    0.4631 H   0  0  0  0  0  0  0  0  0  0  0  0
   -3.1115   -0.0671   -0.9427 H   0  0  0  0  0  0  0  0  0  0  0  0
   -1.7315    0.5620    1.6799 H   0  0  0  0  0  0  0  0  0  0  0  0
   -2.2003    1.9659   -0.4233 H   0  0  0  0  0  0  0  0  0  0  0  0
   -0.8173   -1.0660   -0.7562 H   0  0  0  0  0  0  0  0  0  0  0  0
   -1.1779   -1.6484    0.8889 H   0  0  0  0  0  0  0  0  0  0  0  0
    1.2683    0.0283   -1.4186 H   0  0  0  0  0  0  0  0  0  0  0  0
    3.2780   -1.2226    0.6927 H   0  0  0  0  0  0  0  0  0  0  0  0
    3.5487   -0.9152   -1.1622 H   0  0  0  0  0  0  0  0  0  0  0  0
    2.8950    1.2292    1.0413 H   0  0  0  0  0  0  0  0  0  0  0  0
    3.1455    1.5260   -0.7617 H   0  0  0  0  0  0  0  0  0  0  0  0
  1  2  1  0
  2  3  1  0
  2  4  1  0
  4  5  1  0
  5  6  2  0
  5  7  1  0
  7  8  1  0
  8  9  1  0
  9  7  1  0
  1 10  1  0
  1 11  1  0
  1 12  1  0
  2 13  1  0
  3 14  1  0
  4 15  1  0
  4 16  1  0
  7 17  1  0
  8 18  1  0
  8 19  1  0
  9 20  1  0
  9 21  1  0
M  END
