
     RDKit          3D

 23 24  0  0  0  0  0  0  0  0999 V2000
    2.0988    0.1924   -1.0758 C   0  0  0  0  0  0  0  0  0  0  0  0
    1.3052   -0.6715   -0.1848 C   0  0  0  0  0  0  0  0  0  0  0  0
    2.0633   -0.9712    0.9512 O   0  0  0  0  0  0  0  0  0  0  0  0
   -0.0159   -0.1801    0.2422 C   0  0  0  0  0  0  0  0  0  0  0  0
   -0.7435   -1.1417    1.1518 C   0  0  0  0  0  0  0  0  0  0  0  0
   -1.9940   -0.8810    0.3424 C   0  0  0  0  0  0  0  0  0  0  0  0
   -1.1544   -0.1165   -0.6516 C   0  0  0  0  0  0  0  0  0  0  0  0
   -1.3016    1.3687   -0.4205 C   0  0  0  0  0  0  0  0  0  0  0  0
   -0.1617    1.2650    0.5829 C   0  0  0  0  0  0  0  0  0  0  0  0
    2.6963    0.9359   -0.4734 H   0  0  0  0  0  0  0  0  0  0  0  0
    2.8534   -0.3945   -1.6410 H   0  0  0  0  0  0  0  0  0  0  0  0
    1.5255    0.7805   -1.8122 H   0  0  0  0  0  0  0  0  0  0  0  0
    1.1566   -1.6641   -0.7044 H   0  0  0  0  0  0  0  0  0  0  0  0
    2.2432   -0.1257    1.4330 H   0  0  0  0  0  0  0  0  0  0  0  0
   -0.3733   -2.1755    1.0085 H   0  0  0  0  0  0  0  0  0  0  0  0
   -0.7478   -0.7627    2.1825 H   0  0  0  0  0  0  0  0  0  0  0  0
   -2.4451   -1.7612   -0.1214 H   0  0  0  0  0  0  0  0  0  0  0  0
   -2.6819   -0.2388    0.9552 H   0  0  0  0  0  0  0  0  0  0  0  0
   -1.1323   -0.4669   -1.6673 H   0  0  0  0  0  0  0  0  0  0  0  0
   -1.0616    1.9821   -1.3073 H   0  0  0  0  0  0  0  0  0  0  0  0
   -2.2784    1.6711    0.0466 H   0  0  0  0  0  0  0  0  0  0  0  0
    0.6424    1.9399    0.3062 H   0  0  0  0  0  0  0  0  0  0  0  0
   -0.4932    1.4159    1.6503 H   0  0  0  0  0  0  0  0  0  0  0  0
  1  2  1  0
  2  3  1  0
  2  4  1  0
  4  5  1  0
  5  6  1  0
  6  7  1  0
  7  8  1  0
  8  9  1  0
  7  4  1  0
  9  4  1  0
  1 10  1  0
  1 11  1  0
  1 12  1  0
  2 13  1  0
  3 14  1  0
  5 15  1  0
  5 16  1  0
  6 17  1  0
  6 18  1  0
  7 19  1  0
  8 20  1  0
  8 21  1  0
  9 22  1  0
  9 23  1  0
M  END
