
     RDKit          3D

 18 19  0  0  0  0  0  0  0  0999 V2000
   -2.1211    0.6014   -0.0801 C   0  0  0  0  0  0  0  0  0  0  0  0
   -1.0840   -0.5191   -0.0220 C   0  0  0  0  0  0  0  0  0  0  0  0
   -1.3436   -1.3031    1.1079 O   0  0  0  0  0  0  0  0  0  0  0  0
    0.2682    0.1000    0.1869 C   0  0  0  0  0  0  0  0  0  0  0  0
    1.4328   -0.8113    0.2747 C   0  0  0  0  0  0  0  0  0  0  0  0
    2.2940    0.3619   -0.1003 C   0  0  0  0  0  0  0  0  0  0  0  0
    1.1065    0.3298   -1.0208 C   0  0  0  0  0  0  0  0  0  0  0  0
    1.2825   -1.0433   -1.0801 O   0  0  0  0  0  0  0  0  0  0  0  0
   -1.8661    1.2807   -0.9132 H   0  0  0  0  0  0  0  0  0  0  0  0
   -3.0985    0.0982   -0.2323 H   0  0  0  0  0  0  0  0  0  0  0  0
   -2.1009    1.0982    0.9150 H   0  0  0  0  0  0  0  0  0  0  0  0
   -1.1552   -1.1128   -0.9378 H   0  0  0  0  0  0  0  0  0  0  0  0
   -1.9717   -0.8328    1.7268 H   0  0  0  0  0  0  0  0  0  0  0  0
    0.2769    0.9447    0.9030 H   0  0  0  0  0  0  0  0  0  0  0  0
    1.6394   -1.4960    0.9852 H   0  0  0  0  0  0  0  0  0  0  0  0
    3.2632    0.1379   -0.5365 H   0  0  0  0  0  0  0  0  0  0  0  0
    2.2484    1.2120    0.6158 H   0  0  0  0  0  0  0  0  0  0  0  0
    0.9293    0.9536   -1.7922 H   0  0  0  0  0  0  0  0  0  0  0  0
  1  2  1  0
  2  3  1  0
  2  4  1  0
  4  5  1  0
  5  6  1  0
  6  7  1  0
  7  8  1  0
  7  4  1  0
  8  5  1  0
  1  9  1  0
  1 10  1  0
  1 11  1  0
  2 12  1  0
  3 13  1  0
  4 14  1  0
  5 15  1  0
  6 16  1  0
  6 17  1  0
  7 18  1  0
M  END
