
     RDKit          3D

 23 22  0  0  0  0  0  0  0  0999 V2000
    2.3574    0.4045    0.4843 C   0  0  0  0  0  0  0  0  0  0  0  0
    1.5580   -0.3095   -0.5652 C   0  0  0  0  0  0  0  0  0  0  0  0
    1.3903   -1.6425   -0.1949 O   0  0  0  0  0  0  0  0  0  0  0  0
    0.2255    0.3677   -0.8190 C   0  0  0  0  0  0  0  0  0  0  0  0
   -0.4127   -0.3184   -1.8470 O   0  0  0  0  0  0  0  0  0  0  0  0
   -0.6554    0.3325    0.4017 C   0  0  0  0  0  0  0  0  0  0  0  0
   -0.9586   -1.0789    0.8493 C   0  0  0  0  0  0  0  0  0  0  0  0
   -1.9610    1.0640    0.1797 C   0  0  0  0  0  0  0  0  0  0  0  0
   -2.6714    0.4747   -0.8817 O   0  0  0  0  0  0  0  0  0  0  0  0
    2.3696    1.4955    0.3476 H   0  0  0  0  0  0  0  0  0  0  0  0
    3.4137    0.0578    0.4292 H   0  0  0  0  0  0  0  0  0  0  0  0
    1.9538    0.2233    1.5193 H   0  0  0  0  0  0  0  0  0  0  0  0
    2.1641   -0.2627   -1.5103 H   0  0  0  0  0  0  0  0  0  0  0  0
    1.8137   -1.7892    0.6803 H   0  0  0  0  0  0  0  0  0  0  0  0
    0.4126    1.4052   -1.1560 H   0  0  0  0  0  0  0  0  0  0  0  0
   -0.1182   -1.2726   -1.8076 H   0  0  0  0  0  0  0  0  0  0  0  0
   -0.1563    0.8448    1.2631 H   0  0  0  0  0  0  0  0  0  0  0  0
   -0.3183   -1.3943    1.7085 H   0  0  0  0  0  0  0  0  0  0  0  0
   -0.9348   -1.8076    0.0146 H   0  0  0  0  0  0  0  0  0  0  0  0
   -2.0123   -1.1417    1.2560 H   0  0  0  0  0  0  0  0  0  0  0  0
   -2.6257    0.9801    1.0626 H   0  0  0  0  0  0  0  0  0  0  0  0
   -1.8083    2.1475    0.0099 H   0  0  0  0  0  0  0  0  0  0  0  0
   -3.0257    1.2197   -1.4245 H   0  0  0  0  0  0  0  0  0  0  0  0
  1  2  1  0
  2  3  1  0
  2  4  1  0
  4  5  1  0
  4  6  1  0
  6  7  1  0
  6  8  1  0
  8  9  1  0
  1 10  1  0
  1 11  1  0
  1 12  1  0
  2 13  1  0
  3 14  1  0
  4 15  1  0
  5 16  1  0
  6 17  1  0
  7 18  1  0
  7 19  1  0
  7 20  1  0
  8 21  1  0
  8 22  1  0
  9 23  1  0
M  END
