
     RDKit          3D

 16 16  0  0  0  0  0  0  0  0999 V2000
    1.4605    0.8291   -0.0417 C   0  0  0  0  0  0  0  0  0  0  0  0
    0.9824   -0.6038   -0.0873 C   0  0  0  0  0  0  0  0  0  0  0  0
    1.4035   -1.2134   -1.2666 O   0  0  0  0  0  0  0  0  0  0  0  0
   -0.4997   -0.7329    0.1388 C   0  0  0  0  0  0  0  0  0  0  0  0
   -0.8573   -0.1081    1.3251 O   0  0  0  0  0  0  0  0  0  0  0  0
   -1.8885    0.6417    0.7322 C   0  0  0  0  0  0  0  0  0  0  0  0
   -1.3680    0.1824   -0.5858 C   0  0  0  0  0  0  0  0  0  0  0  0
   -1.5895    0.4658   -1.7518 O   0  0  0  0  0  0  0  0  0  0  0  0
    1.8375    1.1727   -1.0497 H   0  0  0  0  0  0  0  0  0  0  0  0
    2.2654    0.9791    0.7128 H   0  0  0  0  0  0  0  0  0  0  0  0
    0.6152    1.4660    0.2765 H   0  0  0  0  0  0  0  0  0  0  0  0
    1.4720   -1.1422    0.7533 H   0  0  0  0  0  0  0  0  0  0  0  0
    1.5621   -2.1627   -1.0893 H   0  0  0  0  0  0  0  0  0  0  0  0
   -0.8037   -1.7820    0.0844 H   0  0  0  0  0  0  0  0  0  0  0  0
   -1.6894    1.7129    0.9140 H   0  0  0  0  0  0  0  0  0  0  0  0
   -2.9024    0.2953    0.9352 H   0  0  0  0  0  0  0  0  0  0  0  0
  1  2  1  0
  2  3  1  0
  2  4  1  0
  4  5  1  0
  5  6  1  0
  6  7  1  0
  7  8  2  0
  7  4  1  0
  1  9  1  0
  1 10  1  0
  1 11  1  0
  2 12  1  0
  3 13  1  0
  4 14  1  0
  6 15  1  0
  6 16  1  0
M  END
