
     RDKit          3D

 20 20  0  0  0  0  0  0  0  0999 V2000
   -1.9075    1.0921    0.5678 C   0  0  0  0  0  0  0  0  0  0  0  0
   -1.2885   -0.3030    0.6449 C   0  0  0  0  0  0  0  0  0  0  0  0
   -2.1684   -1.1811    0.0123 O   0  0  0  0  0  0  0  0  0  0  0  0
    0.0274   -0.3439   -0.0994 C   0  0  0  0  0  0  0  0  0  0  0  0
    0.6334   -1.7273   -0.0188 C   0  0  0  0  0  0  0  0  0  0  0  0
    1.8144   -1.2113    0.5084 O   0  0  0  0  0  0  0  0  0  0  0  0
    1.2352    0.0609    0.6880 C   0  0  0  0  0  0  0  0  0  0  0  0
    2.1196    1.1027    0.0606 C   0  0  0  0  0  0  0  0  0  0  0  0
   -3.0061    1.0274    0.3938 H   0  0  0  0  0  0  0  0  0  0  0  0
   -1.4901    1.6752   -0.2808 H   0  0  0  0  0  0  0  0  0  0  0  0
   -1.7710    1.5984    1.5472 H   0  0  0  0  0  0  0  0  0  0  0  0
   -1.1935   -0.5996    1.6919 H   0  0  0  0  0  0  0  0  0  0  0  0
   -2.1223   -0.9709   -0.9558 H   0  0  0  0  0  0  0  0  0  0  0  0
    0.0038    0.1080   -1.1096 H   0  0  0  0  0  0  0  0  0  0  0  0
    0.7285   -2.1812   -1.0264 H   0  0  0  0  0  0  0  0  0  0  0  0
    0.1643   -2.3937    0.7463 H   0  0  0  0  0  0  0  0  0  0  0  0
    1.0905    0.2336    1.7697 H   0  0  0  0  0  0  0  0  0  0  0  0
    1.6246    2.0896   -0.0079 H   0  0  0  0  0  0  0  0  0  0  0  0
    2.4519    0.7750   -0.9588 H   0  0  0  0  0  0  0  0  0  0  0  0
    3.0538    1.1490    0.6825 H   0  0  0  0  0  0  0  0  0  0  0  0
  1  2  1  0
  2  3  1  0
  2  4  1  0
  4  5  1  0
  5  6  1  0
  6  7  1  0
  7  8  1  0
  7  4  1  0
  1  9  1  0
  1 10  1  0
  1 11  1  0
  2 12  1  0
  3 13  1  0
  4 14  1  0
  5 15  1  0
  5 16  1  0
  7 17  1  0
  8 18  1  0
  8 19  1  0
  8 20  1  0
M  END
