
     RDKit          3D

 21 22  0  0  0  0  0  0  0  0999 V2000
   -1.8914    0.6962   -0.7708 C   0  0  0  0  0  0  0  0  0  0  0  0
   -1.3237    0.0927    0.5110 C   0  0  0  0  0  0  0  0  0  0  0  0
   -1.3630    1.0421    1.5324 O   0  0  0  0  0  0  0  0  0  0  0  0
   -0.0752   -0.4584    0.3166 C   0  0  0  0  0  0  0  0  0  0  0  0
    0.6799   -1.3112    1.3018 C   0  0  0  0  0  0  0  0  0  0  0  0
    1.4665   -1.2659    0.0365 C   0  0  0  0  0  0  0  0  0  0  0  0
    0.2571   -1.4258   -0.6312 O   0  0  0  0  0  0  0  0  0  0  0  0
    1.1996    0.2092   -0.0093 C   0  0  0  0  0  0  0  0  0  0  0  0
    1.2822    0.8403   -1.3694 C   0  0  0  0  0  0  0  0  0  0  0  0
   -2.9716    0.5202   -0.8757 H   0  0  0  0  0  0  0  0  0  0  0  0
   -1.3119    0.3111   -1.6526 H   0  0  0  0  0  0  0  0  0  0  0  0
   -1.7468    1.8068   -0.7829 H   0  0  0  0  0  0  0  0  0  0  0  0
   -2.0899   -0.6825    0.8149 H   0  0  0  0  0  0  0  0  0  0  0  0
   -1.4274    0.6098    2.4251 H   0  0  0  0  0  0  0  0  0  0  0  0
    1.0731   -0.7990    2.1749 H   0  0  0  0  0  0  0  0  0  0  0  0
    0.2310   -2.2986    1.4614 H   0  0  0  0  0  0  0  0  0  0  0  0
    2.3363   -1.7333   -0.1732 H   0  0  0  0  0  0  0  0  0  0  0  0
    1.6976    0.8052    0.7713 H   0  0  0  0  0  0  0  0  0  0  0  0
    1.0312    0.0749   -2.1151 H   0  0  0  0  0  0  0  0  0  0  0  0
    2.3248    1.2390   -1.5151 H   0  0  0  0  0  0  0  0  0  0  0  0
    0.6217    1.7272   -1.4506 H   0  0  0  0  0  0  0  0  0  0  0  0
  1  2  1  0
  2  3  1  0
  2  4  1  0
  4  5  1  0
  5  6  1  0
  6  7  1  0
  6  8  1  0
  8  9  1  0
  7  4  1  0
  8  4  1  0
  1 10  1  0
  1 11  1  0
  1 12  1  0
  2 13  1  0
  3 14  1  0
  5 15  1  0
  5 16  1  0
  6 17  1  0
  8 18  1  0
  9 19  1  0
  9 20  1  0
  9 21  1  0
M  END
