
     RDKit          3D

 21 22  0  0  0  0  0  0  0  0999 V2000
   -2.4907    0.9130    0.4131 C   0  0  0  0  0  0  0  0  0  0  0  0
   -1.6212   -0.3527    0.4370 C   0  0  0  0  0  0  0  0  0  0  0  0
   -2.2658   -1.4365   -0.0942 O   0  0  0  0  0  0  0  0  0  0  0  0
   -0.3387    0.0101   -0.2615 C   0  0  0  0  0  0  0  0  0  0  0  0
    0.6948   -1.0624   -0.3753 C   0  0  0  0  0  0  0  0  0  0  0  0
    1.5955   -0.2205    0.5018 C   0  0  0  0  0  0  0  0  0  0  0  0
    2.9490    0.1833    0.0169 C   0  0  0  0  0  0  0  0  0  0  0  0
    1.1461    0.0525    1.7547 O   0  0  0  0  0  0  0  0  0  0  0  0
    0.5775    0.7358    0.6954 C   0  0  0  0  0  0  0  0  0  0  0  0
   -3.1609    0.9012   -0.4658 H   0  0  0  0  0  0  0  0  0  0  0  0
   -3.0579    1.0153    1.3580 H   0  0  0  0  0  0  0  0  0  0  0  0
   -1.8358    1.8122    0.3470 H   0  0  0  0  0  0  0  0  0  0  0  0
   -1.4310   -0.5469    1.5159 H   0  0  0  0  0  0  0  0  0  0  0  0
   -2.3850   -2.1885    0.5669 H   0  0  0  0  0  0  0  0  0  0  0  0
   -0.4621    0.5565   -1.2150 H   0  0  0  0  0  0  0  0  0  0  0  0
    0.3826   -2.0269    0.0492 H   0  0  0  0  0  0  0  0  0  0  0  0
    1.1877   -1.1530   -1.3801 H   0  0  0  0  0  0  0  0  0  0  0  0
    3.4050    0.8313    0.7944 H   0  0  0  0  0  0  0  0  0  0  0  0
    2.8570    0.8235   -0.8911 H   0  0  0  0  0  0  0  0  0  0  0  0
    3.6407   -0.6647   -0.1341 H   0  0  0  0  0  0  0  0  0  0  0  0
    0.6131    1.8173    0.7387 H   0  0  0  0  0  0  0  0  0  0  0  0
  1  2  1  0
  2  3  1  0
  2  4  1  0
  4  5  1  0
  5  6  1  0
  6  7  1  0
  6  8  1  0
  8  9  1  0
  9  4  1  0
  9  6  1  0
  1 10  1  0
  1 11  1  0
  1 12  1  0
  2 13  1  0
  3 14  1  0
  4 15  1  0
  5 16  1  0
  5 17  1  0
  7 18  1  0
  7 19  1  0
  7 20  1  0
  9 21  1  0
M  END
