
     RDKit          3D

 23 22  0  0  0  0  0  0  0  0999 V2000
   -1.3475   -1.5629    0.8255 C   0  0  0  0  0  0  0  0  0  0  0  0
   -1.0091   -0.0891    0.8036 C   0  0  0  0  0  0  0  0  0  0  0  0
   -2.2307    0.5997    0.8230 O   0  0  0  0  0  0  0  0  0  0  0  0
   -0.3353    0.2118   -0.4902 C   0  0  0  0  0  0  0  0  0  0  0  0
    0.0548    1.6728   -0.6285 C   0  0  0  0  0  0  0  0  0  0  0  0
   -1.0569    2.5081   -0.5574 O   0  0  0  0  0  0  0  0  0  0  0  0
    0.7838   -0.7016   -0.8481 C   0  0  0  0  0  0  0  0  0  0  0  0
    1.9153   -0.7360    0.1257 C   0  0  0  0  0  0  0  0  0  0  0  0
    2.5170    0.4853    0.2974 O   0  0  0  0  0  0  0  0  0  0  0  0
   -0.6417   -2.1312    1.4973 H   0  0  0  0  0  0  0  0  0  0  0  0
   -2.3678   -1.7455    1.2547 H   0  0  0  0  0  0  0  0  0  0  0  0
   -1.3577   -2.0224   -0.1744 H   0  0  0  0  0  0  0  0  0  0  0  0
   -0.4533    0.2239    1.6948 H   0  0  0  0  0  0  0  0  0  0  0  0
   -2.2865    1.2467    1.5612 H   0  0  0  0  0  0  0  0  0  0  0  0
   -1.1222    0.0590   -1.2917 H   0  0  0  0  0  0  0  0  0  0  0  0
    0.7630    2.0112    0.1320 H   0  0  0  0  0  0  0  0  0  0  0  0
    0.5290    1.8301   -1.6191 H   0  0  0  0  0  0  0  0  0  0  0  0
   -1.7689    2.2214   -1.1968 H   0  0  0  0  0  0  0  0  0  0  0  0
    0.4348   -1.7229   -1.1018 H   0  0  0  0  0  0  0  0  0  0  0  0
    1.2158   -0.3086   -1.8168 H   0  0  0  0  0  0  0  0  0  0  0  0
    1.6475   -1.1885    1.1008 H   0  0  0  0  0  0  0  0  0  0  0  0
    2.6922   -1.4224   -0.3102 H   0  0  0  0  0  0  0  0  0  0  0  0
    3.4244    0.5612   -0.0809 H   0  0  0  0  0  0  0  0  0  0  0  0
  1  2  1  0
  2  3  1  0
  2  4  1  0
  4  5  1  0
  5  6  1  0
  4  7  1  0
  7  8  1  0
  8  9  1  0
  1 10  1  0
  1 11  1  0
  1 12  1  0
  2 13  1  0
  3 14  1  0
  4 15  1  0
  5 16  1  0
  5 17  1  0
  6 18  1  0
  7 19  1  0
  7 20  1  0
  8 21  1  0
  8 22  1  0
  9 23  1  0
M  END
