
     RDKit          3D

 21 21  0  0  0  0  0  0  0  0999 V2000
   -1.7411    1.1324    0.2277 C   0  0  0  0  0  0  0  0  0  0  0  0
   -1.2374   -0.1943   -0.1829 C   0  0  0  0  0  0  0  0  0  0  0  0
   -1.9983   -1.2215    0.4020 O   0  0  0  0  0  0  0  0  0  0  0  0
    0.2145   -0.4443    0.0553 C   0  0  0  0  0  0  0  0  0  0  0  0
    0.6832   -1.8226   -0.3841 C   0  0  0  0  0  0  0  0  0  0  0  0
    0.9945    0.1745    1.1270 C   0  0  0  0  0  0  0  0  0  0  0  0
    2.1431   -0.4767    1.5784 O   0  0  0  0  0  0  0  0  0  0  0  0
    1.1178    0.7084   -0.2815 C   0  0  0  0  0  0  0  0  0  0  0  0
    0.6180    1.9762   -0.4500 O   0  0  0  0  0  0  0  0  0  0  0  0
   -1.1817    1.6496    1.0053 H   0  0  0  0  0  0  0  0  0  0  0  0
   -1.8255    1.8488   -0.6416 H   0  0  0  0  0  0  0  0  0  0  0  0
   -2.7892    1.0045    0.6317 H   0  0  0  0  0  0  0  0  0  0  0  0
   -1.4180   -0.3139   -1.2881 H   0  0  0  0  0  0  0  0  0  0  0  0
   -2.8704   -0.8471    0.7303 H   0  0  0  0  0  0  0  0  0  0  0  0
    0.8802   -2.3993    0.5489 H   0  0  0  0  0  0  0  0  0  0  0  0
    1.6634   -1.7535   -0.9108 H   0  0  0  0  0  0  0  0  0  0  0  0
   -0.0712   -2.3631   -0.9632 H   0  0  0  0  0  0  0  0  0  0  0  0
    0.5519    0.8230    1.9093 H   0  0  0  0  0  0  0  0  0  0  0  0
    2.8296   -0.5705    0.8961 H   0  0  0  0  0  0  0  0  0  0  0  0
    2.0245    0.4925   -0.8766 H   0  0  0  0  0  0  0  0  0  0  0  0
    1.4120    2.5968   -0.4570 H   0  0  0  0  0  0  0  0  0  0  0  0
  1  2  1  0
  2  3  1  0
  2  4  1  0
  4  5  1  0
  4  6  1  0
  6  7  1  0
  6  8  1  0
  8  9  1  0
  8  4  1  0
  1 10  1  0
  1 11  1  0
  1 12  1  0
  2 13  1  0
  3 14  1  0
  5 15  1  0
  5 16  1  0
  5 17  1  0
  6 18  1  0
  7 19  1  0
  8 20  1  0
  9 21  1  0
M  END
