
     RDKit          3D

 21 21  0  0  0  0  0  0  0  0999 V2000
   -3.0223    0.0733   -0.3376 C   0  0  0  0  0  0  0  0  0  0  0  0
   -1.5175   -0.2200   -0.3270 C   0  0  0  0  0  0  0  0  0  0  0  0
   -1.3062   -1.3292    0.5091 O   0  0  0  0  0  0  0  0  0  0  0  0
   -0.8439    0.9997    0.2479 C   0  0  0  0  0  0  0  0  0  0  0  0
    0.6354    0.8543    0.3186 C   0  0  0  0  0  0  0  0  0  0  0  0
    0.9662   -0.3087    1.1827 O   0  0  0  0  0  0  0  0  0  0  0  0
    1.3997   -0.2195   -0.2377 C   0  0  0  0  0  0  0  0  0  0  0  0
    2.9131   -0.0705   -0.2558 C   0  0  0  0  0  0  0  0  0  0  0  0
    3.5137   -1.1822    0.3615 O   0  0  0  0  0  0  0  0  0  0  0  0
   -3.6084   -0.8480   -0.3017 H   0  0  0  0  0  0  0  0  0  0  0  0
   -3.2159    0.6572    0.5985 H   0  0  0  0  0  0  0  0  0  0  0  0
   -3.2744    0.7461   -1.1722 H   0  0  0  0  0  0  0  0  0  0  0  0
   -1.1453   -0.4920   -1.3246 H   0  0  0  0  0  0  0  0  0  0  0  0
   -2.1551   -1.6478    0.9108 H   0  0  0  0  0  0  0  0  0  0  0  0
   -1.1465    1.8711   -0.3323 H   0  0  0  0  0  0  0  0  0  0  0  0
   -1.2427    1.1091    1.2994 H   0  0  0  0  0  0  0  0  0  0  0  0
    1.1683    1.7451    0.7086 H   0  0  0  0  0  0  0  0  0  0  0  0
    0.9920   -1.0726   -0.7762 H   0  0  0  0  0  0  0  0  0  0  0  0
    3.2921   -0.0642   -1.2983 H   0  0  0  0  0  0  0  0  0  0  0  0
    3.2421    0.8201    0.3052 H   0  0  0  0  0  0  0  0  0  0  0  0
    4.3555   -1.4213   -0.1039 H   0  0  0  0  0  0  0  0  0  0  0  0
  1  2  1  0
  2  3  1  0
  2  4  1  0
  4  5  1  0
  5  6  1  0
  6  7  1  0
  7  8  1  0
  8  9  1  0
  7  5  1  0
  1 10  1  0
  1 11  1  0
  1 12  1  0
  2 13  1  0
  3 14  1  0
  4 15  1  0
  4 16  1  0
  5 17  1  0
  7 18  1  0
  8 19  1  0
  8 20  1  0
  9 21  1  0
M  END
