
     RDKit          3D

 21 21  0  0  0  0  0  0  0  0999 V2000
   -2.0149    0.8638   -0.6271 C   0  0  0  0  0  0  0  0  0  0  0  0
   -1.3083   -0.4042   -0.2872 C   0  0  0  0  0  0  0  0  0  0  0  0
   -2.0706   -1.1996    0.5940 O   0  0  0  0  0  0  0  0  0  0  0  0
    0.0216   -0.1806    0.3937 C   0  0  0  0  0  0  0  0  0  0  0  0
   -0.0233    0.4510    1.6014 O   0  0  0  0  0  0  0  0  0  0  0  0
    0.8295   -1.4618    0.4682 C   0  0  0  0  0  0  0  0  0  0  0  0
    1.3103   -1.2148   -0.8315 O   0  0  0  0  0  0  0  0  0  0  0  0
    1.1106    0.1573   -0.5531 C   0  0  0  0  0  0  0  0  0  0  0  0
    2.3674    0.7347    0.0168 C   0  0  0  0  0  0  0  0  0  0  0  0
   -2.5275    0.8096   -1.6122 H   0  0  0  0  0  0  0  0  0  0  0  0
   -1.2938    1.6886   -0.6916 H   0  0  0  0  0  0  0  0  0  0  0  0
   -2.7972    1.1410    0.1217 H   0  0  0  0  0  0  0  0  0  0  0  0
   -1.1600   -1.0200   -1.1967 H   0  0  0  0  0  0  0  0  0  0  0  0
   -3.0077   -1.2484    0.2894 H   0  0  0  0  0  0  0  0  0  0  0  0
   -0.2029    1.4066    1.5814 H   0  0  0  0  0  0  0  0  0  0  0  0
    0.1953   -2.3520    0.5195 H   0  0  0  0  0  0  0  0  0  0  0  0
    1.6341   -1.4538    1.2386 H   0  0  0  0  0  0  0  0  0  0  0  0
    0.7380    0.7027   -1.4464 H   0  0  0  0  0  0  0  0  0  0  0  0
    2.2103    1.5522    0.7218 H   0  0  0  0  0  0  0  0  0  0  0  0
    2.9958    1.0725   -0.8413 H   0  0  0  0  0  0  0  0  0  0  0  0
    2.9933   -0.0450    0.5405 H   0  0  0  0  0  0  0  0  0  0  0  0
  1  2  1  0
  2  3  1  0
  2  4  1  0
  4  5  1  0
  4  6  1  0
  6  7  1  0
  7  8  1  0
  8  9  1  0
  8  4  1  0
  1 10  1  0
  1 11  1  0
  1 12  1  0
  2 13  1  0
  3 14  1  0
  5 15  1  0
  6 16  1  0
  6 17  1  0
  8 18  1  0
  9 19  1  0
  9 20  1  0
  9 21  1  0
M  END
