
     RDKit          3D

 20 20  0  0  0  0  0  0  0  0999 V2000
    2.0877   -0.7014    0.5886 C   0  0  0  0  0  0  0  0  0  0  0  0
    1.1965    0.3847    0.0449 C   0  0  0  0  0  0  0  0  0  0  0  0
    1.4468    0.5910   -1.3057 O   0  0  0  0  0  0  0  0  0  0  0  0
   -0.2558    0.0985    0.3250 C   0  0  0  0  0  0  0  0  0  0  0  0
   -0.4603   -0.0989    1.6735 O   0  0  0  0  0  0  0  0  0  0  0  0
   -1.2200    1.0374   -0.3632 C   0  0  0  0  0  0  0  0  0  0  0  0
   -2.1366   -0.1747   -0.5446 C   0  0  0  0  0  0  0  0  0  0  0  0
   -0.8592   -1.0235   -0.4719 C   0  0  0  0  0  0  0  0  0  0  0  0
    3.1140   -0.3304    0.5804 H   0  0  0  0  0  0  0  0  0  0  0  0
    1.7575   -0.9156    1.6193 H   0  0  0  0  0  0  0  0  0  0  0  0
    1.9277   -1.6101   -0.0239 H   0  0  0  0  0  0  0  0  0  0  0  0
    1.4602    1.3220    0.5768 H   0  0  0  0  0  0  0  0  0  0  0  0
    2.2522    1.1820   -1.3604 H   0  0  0  0  0  0  0  0  0  0  0  0
   -0.9522    0.6309    2.1101 H   0  0  0  0  0  0  0  0  0  0  0  0
   -1.5952    1.7881    0.3451 H   0  0  0  0  0  0  0  0  0  0  0  0
   -0.8011    1.4060   -1.3043 H   0  0  0  0  0  0  0  0  0  0  0  0
   -2.6549   -0.2015   -1.4962 H   0  0  0  0  0  0  0  0  0  0  0  0
   -2.7531   -0.2804    0.3750 H   0  0  0  0  0  0  0  0  0  0  0  0
   -1.0714   -1.9349    0.1179 H   0  0  0  0  0  0  0  0  0  0  0  0
   -0.4827   -1.1693   -1.4863 H   0  0  0  0  0  0  0  0  0  0  0  0
  1  2  1  0
  2  3  1  0
  2  4  1  0
  4  5  1  0
  4  6  1  0
  6  7  1  0
  7  8  1  0
  8  4  1  0
  1  9  1  0
  1 10  1  0
  1 11  1  0
  2 12  1  0
  3 13  1  0
  5 14  1  0
  6 15  1  0
  6 16  1  0
  7 17  1  0
  7 18  1  0
  8 19  1  0
  8 20  1  0
M  END
