
     RDKit          3D

 23 23  0  0  0  0  0  0  0  0999 V2000
    2.2708    0.0420    0.5591 C   0  0  0  0  0  0  0  0  0  0  0  0
    1.5006    0.2341   -0.7046 C   0  0  0  0  0  0  0  0  0  0  0  0
    2.1677   -0.3522   -1.7525 O   0  0  0  0  0  0  0  0  0  0  0  0
    0.0734   -0.2219   -0.6086 C   0  0  0  0  0  0  0  0  0  0  0  0
   -0.0602   -1.5843   -0.4233 O   0  0  0  0  0  0  0  0  0  0  0  0
   -1.4477   -1.7128   -0.2963 C   0  0  0  0  0  0  0  0  0  0  0  0
   -1.8523   -0.6014    0.6581 C   0  0  0  0  0  0  0  0  0  0  0  0
   -0.6520    0.3510    0.5636 C   0  0  0  0  0  0  0  0  0  0  0  0
   -1.2013    1.7239    0.3365 C   0  0  0  0  0  0  0  0  0  0  0  0
    2.1284   -0.9696    0.9595 H   0  0  0  0  0  0  0  0  0  0  0  0
    2.0718    0.8210    1.3243 H   0  0  0  0  0  0  0  0  0  0  0  0
    3.3657    0.1182    0.3032 H   0  0  0  0  0  0  0  0  0  0  0  0
    1.4600    1.3391   -0.9278 H   0  0  0  0  0  0  0  0  0  0  0  0
    3.1349   -0.3398   -1.5376 H   0  0  0  0  0  0  0  0  0  0  0  0
   -0.4736    0.0570   -1.5287 H   0  0  0  0  0  0  0  0  0  0  0  0
   -1.8609   -1.5305   -1.3204 H   0  0  0  0  0  0  0  0  0  0  0  0
   -1.7315   -2.7123    0.0931 H   0  0  0  0  0  0  0  0  0  0  0  0
   -2.7625   -0.1234    0.2596 H   0  0  0  0  0  0  0  0  0  0  0  0
   -2.0162   -0.9494    1.6813 H   0  0  0  0  0  0  0  0  0  0  0  0
   -0.0677    0.2812    1.5047 H   0  0  0  0  0  0  0  0  0  0  0  0
   -2.0039    1.9038    1.0952 H   0  0  0  0  0  0  0  0  0  0  0  0
   -0.3765    2.4700    0.4198 H   0  0  0  0  0  0  0  0  0  0  0  0
   -1.6672    1.7564   -0.6581 H   0  0  0  0  0  0  0  0  0  0  0  0
  1  2  1  0
  2  3  1  0
  2  4  1  0
  4  5  1  0
  5  6  1  0
  6  7  1  0
  7  8  1  0
  8  9  1  0
  8  4  1  0
  1 10  1  0
  1 11  1  0
  1 12  1  0
  2 13  1  0
  3 14  1  0
  4 15  1  0
  6 16  1  0
  6 17  1  0
  7 18  1  0
  7 19  1  0
  8 20  1  0
  9 21  1  0
  9 22  1  0
  9 23  1  0
M  END
