
     RDKit          3D

 20 21  0  0  0  0  0  0  0  0999 V2000
    2.3674    0.0060    0.4219 C   0  0  0  0  0  0  0  0  0  0  0  0
    1.2323   -0.0901   -0.5444 C   0  0  0  0  0  0  0  0  0  0  0  0
    0.9610   -1.4022   -0.9413 O   0  0  0  0  0  0  0  0  0  0  0  0
    0.0010    0.6327   -0.0717 C   0  0  0  0  0  0  0  0  0  0  0  0
   -0.5867    0.1663    1.2225 C   0  0  0  0  0  0  0  0  0  0  0  0
   -1.9583    0.3410    0.5579 C   0  0  0  0  0  0  0  0  0  0  0  0
   -2.2370   -0.6434   -0.4874 C   0  0  0  0  0  0  0  0  0  0  0  0
   -1.2508    0.3877   -0.8167 C   0  0  0  0  0  0  0  0  0  0  0  0
    3.3486    0.1479   -0.1161 H   0  0  0  0  0  0  0  0  0  0  0  0
    2.4926   -0.9161    1.0204 H   0  0  0  0  0  0  0  0  0  0  0  0
    2.2180    0.9136    1.0395 H   0  0  0  0  0  0  0  0  0  0  0  0
    1.5612    0.4387   -1.4847 H   0  0  0  0  0  0  0  0  0  0  0  0
    1.8041   -1.7292   -1.3815 H   0  0  0  0  0  0  0  0  0  0  0  0
    0.2255    1.7290   -0.0045 H   0  0  0  0  0  0  0  0  0  0  0  0
   -0.4651   -0.9098    1.4646 H   0  0  0  0  0  0  0  0  0  0  0  0
   -0.4573    0.8229    2.0914 H   0  0  0  0  0  0  0  0  0  0  0  0
   -2.5499    1.2242    0.7722 H   0  0  0  0  0  0  0  0  0  0  0  0
   -1.9194   -1.7005   -0.2473 H   0  0  0  0  0  0  0  0  0  0  0  0
   -3.2096   -0.6071   -0.9761 H   0  0  0  0  0  0  0  0  0  0  0  0
   -1.5777    1.1884   -1.5186 H   0  0  0  0  0  0  0  0  0  0  0  0
  1  2  1  0
  2  3  1  0
  2  4  1  0
  4  5  1  0
  5  6  1  0
  6  7  1  0
  7  8  1  0
  8  4  1  0
  8  6  1  0
  1  9  1  0
  1 10  1  0
  1 11  1  0
  2 12  1  0
  3 13  1  0
  4 14  1  0
  5 15  1  0
  5 16  1  0
  6 17  1  0
  7 18  1  0
  7 19  1  0
  8 20  1  0
M  END
