
     RDKit          3D

 23 23  0  0  0  0  0  0  0  0999 V2000
    2.6168    0.3362    0.7141 C   0  0  0  0  0  0  0  0  0  0  0  0
    1.8763    0.5334   -0.5923 C   0  0  0  0  0  0  0  0  0  0  0  0
    1.4509    1.8381   -0.7632 O   0  0  0  0  0  0  0  0  0  0  0  0
    0.7470   -0.4644   -0.6966 C   0  0  0  0  0  0  0  0  0  0  0  0
   -0.2557   -0.3279    0.4223 C   0  0  0  0  0  0  0  0  0  0  0  0
   -1.3453   -1.3319    0.2728 C   0  0  0  0  0  0  0  0  0  0  0  0
   -2.5526   -0.5194   -0.1151 C   0  0  0  0  0  0  0  0  0  0  0  0
   -2.0849    0.8848   -0.0180 C   0  0  0  0  0  0  0  0  0  0  0  0
   -0.8228    0.9290    0.4781 O   0  0  0  0  0  0  0  0  0  0  0  0
    2.7650   -0.7738    0.8131 H   0  0  0  0  0  0  0  0  0  0  0  0
    3.6444    0.7590    0.6793 H   0  0  0  0  0  0  0  0  0  0  0  0
    2.0870    0.7609    1.5737 H   0  0  0  0  0  0  0  0  0  0  0  0
    2.6010    0.2770   -1.3945 H   0  0  0  0  0  0  0  0  0  0  0  0
    1.3825    2.1013   -1.7162 H   0  0  0  0  0  0  0  0  0  0  0  0
    1.1822   -1.4815   -0.6507 H   0  0  0  0  0  0  0  0  0  0  0  0
    0.2127   -0.3868   -1.6632 H   0  0  0  0  0  0  0  0  0  0  0  0
    0.2385   -0.5060    1.4016 H   0  0  0  0  0  0  0  0  0  0  0  0
   -1.1015   -2.0451   -0.5188 H   0  0  0  0  0  0  0  0  0  0  0  0
   -1.5216   -1.9297    1.1995 H   0  0  0  0  0  0  0  0  0  0  0  0
   -2.8198   -0.7262   -1.1749 H   0  0  0  0  0  0  0  0  0  0  0  0
   -3.3935   -0.7907    0.5276 H   0  0  0  0  0  0  0  0  0  0  0  0
   -2.8296    1.4566    0.6096 H   0  0  0  0  0  0  0  0  0  0  0  0
   -2.0771    1.4075   -1.0179 H   0  0  0  0  0  0  0  0  0  0  0  0
  1  2  1  0
  2  3  1  0
  2  4  1  0
  4  5  1  0
  5  6  1  0
  6  7  1  0
  7  8  1  0
  8  9  1  0
  9  5  1  0
  1 10  1  0
  1 11  1  0
  1 12  1  0
  2 13  1  0
  3 14  1  0
  4 15  1  0
  4 16  1  0
  5 17  1  0
  6 18  1  0
  6 19  1  0
  7 20  1  0
  7 21  1  0
  8 22  1  0
  8 23  1  0
M  END
