
     RDKit          3D

 17 16  0  0  0  0  0  0  0  0999 V2000
    1.1674   -0.9321   -0.5337 C   0  0  0  0  0  0  0  0  0  0  0  0
    0.2518    0.2686   -0.3126 C   0  0  0  0  0  0  0  0  0  0  0  0
   -0.3524    0.6775   -1.4797 O   0  0  0  0  0  0  0  0  0  0  0  0
    1.1399    1.3349    0.2734 C   0  0  0  0  0  0  0  0  0  0  0  0
    1.7040    1.0136    1.3220 O   0  0  0  0  0  0  0  0  0  0  0  0
   -0.7642   -0.0631    0.7600 C   0  0  0  0  0  0  0  0  0  0  0  0
   -1.5206    1.0597    1.0286 O   0  0  0  0  0  0  0  0  0  0  0  0
   -1.6279   -1.1884    0.4189 C   0  0  0  0  0  0  0  0  0  0  0  0
   -1.2281   -2.3107    0.1346 O   0  0  0  0  0  0  0  0  0  0  0  0
    2.1089   -0.6014   -0.9973 H   0  0  0  0  0  0  0  0  0  0  0  0
    0.6047   -1.6523   -1.1599 H   0  0  0  0  0  0  0  0  0  0  0  0
    1.4201   -1.3783    0.4484 H   0  0  0  0  0  0  0  0  0  0  0  0
    0.2647    1.2662   -2.0008 H   0  0  0  0  0  0  0  0  0  0  0  0
    1.2737    2.2931   -0.1785 H   0  0  0  0  0  0  0  0  0  0  0  0
   -0.1659   -0.3538    1.6709 H   0  0  0  0  0  0  0  0  0  0  0  0
   -1.5783    1.6190    0.1974 H   0  0  0  0  0  0  0  0  0  0  0  0
   -2.6975   -1.0523    0.4083 H   0  0  0  0  0  0  0  0  0  0  0  0
  1  2  1  0
  2  3  1  0
  2  4  1  0
  4  5  2  0
  2  6  1  0
  6  7  1  0
  6  8  1  0
  8  9  2  0
  1 10  1  0
  1 11  1  0
  1 12  1  0
  3 13  1  0
  4 14  1  0
  6 15  1  0
  7 16  1  0
  8 17  1  0
M  END
