
     RDKit          3D

 23 24  0  0  0  0  0  0  0  0999 V2000
    2.6555   -0.5470    0.5435 C   0  0  0  0  0  0  0  0  0  0  0  0
    1.7012   -0.2634   -0.5957 C   0  0  0  0  0  0  0  0  0  0  0  0
    2.3015    0.7418   -1.3865 O   0  0  0  0  0  0  0  0  0  0  0  0
    0.3989    0.2987   -0.0839 C   0  0  0  0  0  0  0  0  0  0  0  0
   -0.6239    0.6181   -1.1223 C   0  0  0  0  0  0  0  0  0  0  0  0
   -1.6540    0.0234   -0.1724 C   0  0  0  0  0  0  0  0  0  0  0  0
   -2.5056    0.9059    0.6570 C   0  0  0  0  0  0  0  0  0  0  0  0
   -1.5642   -1.4272   -0.0330 C   0  0  0  0  0  0  0  0  0  0  0  0
   -0.5078   -0.6447    0.6190 C   0  0  0  0  0  0  0  0  0  0  0  0
    3.0722    0.3749    0.9677 H   0  0  0  0  0  0  0  0  0  0  0  0
    2.1534   -1.1330    1.3610 H   0  0  0  0  0  0  0  0  0  0  0  0
    3.5061   -1.1140    0.1106 H   0  0  0  0  0  0  0  0  0  0  0  0
    1.5724   -1.1312   -1.2567 H   0  0  0  0  0  0  0  0  0  0  0  0
    2.3971    1.5697   -0.8310 H   0  0  0  0  0  0  0  0  0  0  0  0
    0.6117    1.2087    0.5305 H   0  0  0  0  0  0  0  0  0  0  0  0
   -0.4945   -0.0776   -2.0008 H   0  0  0  0  0  0  0  0  0  0  0  0
   -0.7706    1.6547   -1.4052 H   0  0  0  0  0  0  0  0  0  0  0  0
   -2.5875    0.4466    1.6780 H   0  0  0  0  0  0  0  0  0  0  0  0
   -1.9769    1.8859    0.8390 H   0  0  0  0  0  0  0  0  0  0  0  0
   -3.5135    1.1045    0.2515 H   0  0  0  0  0  0  0  0  0  0  0  0
   -1.3625   -1.9957   -0.9868 H   0  0  0  0  0  0  0  0  0  0  0  0
   -2.2886   -1.9282    0.6074 H   0  0  0  0  0  0  0  0  0  0  0  0
   -0.5206   -0.5709    1.7091 H   0  0  0  0  0  0  0  0  0  0  0  0
  1  2  1  0
  2  3  1  0
  2  4  1  0
  4  5  1  0
  5  6  1  0
  6  7  1  0
  6  8  1  0
  8  9  1  0
  9  4  1  0
  9  6  1  0
  1 10  1  0
  1 11  1  0
  1 12  1  0
  2 13  1  0
  3 14  1  0
  4 15  1  0
  5 16  1  0
  5 17  1  0
  7 18  1  0
  7 19  1  0
  7 20  1  0
  8 21  1  0
  8 22  1  0
  9 23  1  0
M  END
