
     RDKit          3D

 21 22  0  0  0  0  0  0  0  0999 V2000
    2.7748   -0.1081   -0.5370 C   0  0  0  0  0  0  0  0  0  0  0  0
    1.5094    0.4673    0.0916 C   0  0  0  0  0  0  0  0  0  0  0  0
    1.6902    0.6589    1.4616 O   0  0  0  0  0  0  0  0  0  0  0  0
    0.3682   -0.4588   -0.1965 C   0  0  0  0  0  0  0  0  0  0  0  0
   -0.9196    0.0078    0.3728 C   0  0  0  0  0  0  0  0  0  0  0  0
   -2.0288   -1.0133    0.0212 C   0  0  0  0  0  0  0  0  0  0  0  0
   -2.8648    0.2139    0.3211 C   0  0  0  0  0  0  0  0  0  0  0  0
   -2.9711    1.3137   -0.3983 O   0  0  0  0  0  0  0  0  0  0  0  0
   -1.7527    0.8450   -0.5777 C   0  0  0  0  0  0  0  0  0  0  0  0
    2.6581   -1.2171   -0.6719 H   0  0  0  0  0  0  0  0  0  0  0  0
    2.9569    0.3109   -1.5425 H   0  0  0  0  0  0  0  0  0  0  0  0
    3.6197    0.0479    0.1658 H   0  0  0  0  0  0  0  0  0  0  0  0
    1.2729    1.4405   -0.4079 H   0  0  0  0  0  0  0  0  0  0  0  0
    2.2105    1.4950    1.6268 H   0  0  0  0  0  0  0  0  0  0  0  0
    0.2851   -0.5885   -1.2807 H   0  0  0  0  0  0  0  0  0  0  0  0
    0.5682   -1.4873    0.2199 H   0  0  0  0  0  0  0  0  0  0  0  0
   -0.9403    0.3140    1.4185 H   0  0  0  0  0  0  0  0  0  0  0  0
   -1.9754   -1.2988   -1.0258 H   0  0  0  0  0  0  0  0  0  0  0  0
   -2.0785   -1.7724    0.7889 H   0  0  0  0  0  0  0  0  0  0  0  0
   -2.7350    0.4571    1.4255 H   0  0  0  0  0  0  0  0  0  0  0  0
   -1.6479    0.3722   -1.6070 H   0  0  0  0  0  0  0  0  0  0  0  0
  1  2  1  0
  2  3  1  0
  2  4  1  0
  4  5  1  0
  5  6  1  0
  6  7  1  0
  7  8  1  0
  8  9  1  0
  9  5  1  0
  9  7  1  0
  1 10  1  0
  1 11  1  0
  1 12  1  0
  2 13  1  0
  3 14  1  0
  4 15  1  0
  4 16  1  0
  5 17  1  0
  6 18  1  0
  6 19  1  0
  7 20  1  0
  9 21  1  0
M  END
