
     RDKit          3D

 25 24  0  0  0  0  0  0  0  0999 V2000
    2.7989    0.3700    1.0329 C   0  0  0  0  0  0  0  0  0  0  0  0
    2.3068   -0.1864   -0.2706 C   0  0  0  0  0  0  0  0  0  0  0  0
    2.5432   -1.5659   -0.3285 O   0  0  0  0  0  0  0  0  0  0  0  0
    0.8744    0.1424   -0.5483 C   0  0  0  0  0  0  0  0  0  0  0  0
   -0.0087   -0.4315    0.3382 O   0  0  0  0  0  0  0  0  0  0  0  0
   -1.3186   -0.1014    0.0443 C   0  0  0  0  0  0  0  0  0  0  0  0
   -2.2947   -0.7299    1.0160 C   0  0  0  0  0  0  0  0  0  0  0  0
   -1.7248   -0.5452   -1.3473 C   0  0  0  0  0  0  0  0  0  0  0  0
   -1.5625    1.4028    0.0991 C   0  0  0  0  0  0  0  0  0  0  0  0
    2.0339    0.3115    1.8431 H   0  0  0  0  0  0  0  0  0  0  0  0
    3.1559    1.4284    0.9057 H   0  0  0  0  0  0  0  0  0  0  0  0
    3.6968   -0.2290    1.3243 H   0  0  0  0  0  0  0  0  0  0  0  0
    2.9127    0.2688   -1.0976 H   0  0  0  0  0  0  0  0  0  0  0  0
    3.4110   -1.7784    0.0772 H   0  0  0  0  0  0  0  0  0  0  0  0
    0.7832    1.2450   -0.5909 H   0  0  0  0  0  0  0  0  0  0  0  0
    0.6375   -0.2868   -1.5625 H   0  0  0  0  0  0  0  0  0  0  0  0
   -3.2828   -0.2659    0.8317 H   0  0  0  0  0  0  0  0  0  0  0  0
   -1.9763   -0.5671    2.0770 H   0  0  0  0  0  0  0  0  0  0  0  0
   -2.3958   -1.8186    0.8787 H   0  0  0  0  0  0  0  0  0  0  0  0
   -1.4936    0.2482   -2.0876 H   0  0  0  0  0  0  0  0  0  0  0  0
   -1.2404   -1.4741   -1.6477 H   0  0  0  0  0  0  0  0  0  0  0  0
   -2.8308   -0.6937   -1.3598 H   0  0  0  0  0  0  0  0  0  0  0  0
   -1.1381    1.9061   -0.7732 H   0  0  0  0  0  0  0  0  0  0  0  0
   -1.2019    1.8380    1.0598 H   0  0  0  0  0  0  0  0  0  0  0  0
   -2.6849    1.5127    0.0857 H   0  0  0  0  0  0  0  0  0  0  0  0
  1  2  1  0
  2  3  1  0
  2  4  1  0
  4  5  1  0
  5  6  1  0
  6  7  1  0
  6  8  1  0
  6  9  1  0
  1 10  1  0
  1 11  1  0
  1 12  1  0
  2 13  1  0
  3 14  1  0
  4 15  1  0
  4 16  1  0
  7 17  1  0
  7 18  1  0
  7 19  1  0
  8 20  1  0
  8 21  1  0
  8 22  1  0
  9 23  1  0
  9 24  1  0
  9 25  1  0
M  END
