
     RDKit          3D

 19 19  0  0  0  0  0  0  0  0999 V2000
   -3.1632    0.9964    0.5729 C   0  0  0  0  0  0  0  0  0  0  0  0
   -2.3403   -0.2925    0.6093 C   0  0  0  0  0  0  0  0  0  0  0  0
   -2.9234   -1.2992   -0.1185 O   0  0  0  0  0  0  0  0  0  0  0  0
   -0.9701   -0.0384    0.1508 C   0  0  0  0  0  0  0  0  0  0  0  0
    0.1614    0.1514   -0.2196 C   0  0  0  0  0  0  0  0  0  0  0  0
    1.5274    0.3888   -0.6423 C   0  0  0  0  0  0  0  0  0  0  0  0
    2.4166   -0.6003    0.0885 C   0  0  0  0  0  0  0  0  0  0  0  0
    3.8820   -0.4781   -0.2483 C   0  0  0  0  0  0  0  0  0  0  0  0
    3.0951   -1.5496   -0.6706 O   0  0  0  0  0  0  0  0  0  0  0  0
   -2.9430    1.6315    1.4630 H   0  0  0  0  0  0  0  0  0  0  0  0
   -2.7706    1.5724   -0.2994 H   0  0  0  0  0  0  0  0  0  0  0  0
   -4.2276    0.8131    0.4304 H   0  0  0  0  0  0  0  0  0  0  0  0
   -2.3006   -0.6384    1.6751 H   0  0  0  0  0  0  0  0  0  0  0  0
   -3.8588   -1.1015   -0.3629 H   0  0  0  0  0  0  0  0  0  0  0  0
    1.9013    1.4018   -0.3760 H   0  0  0  0  0  0  0  0  0  0  0  0
    1.6380    0.3043   -1.7441 H   0  0  0  0  0  0  0  0  0  0  0  0
    2.1202   -0.8677    1.1147 H   0  0  0  0  0  0  0  0  0  0  0  0
    4.1814    0.2320   -1.0472 H   0  0  0  0  0  0  0  0  0  0  0  0
    4.5740   -0.6262    0.6038 H   0  0  0  0  0  0  0  0  0  0  0  0
  1  2  1  0
  2  3  1  0
  2  4  1  0
  4  5  3  0
  5  6  1  0
  6  7  1  0
  7  8  1  0
  8  9  1  0
  9  7  1  0
  1 10  1  0
  1 11  1  0
  1 12  1  0
  2 13  1  0
  3 14  1  0
  6 15  1  0
  6 16  1  0
  7 17  1  0
  8 18  1  0
  8 19  1  0
M  END
