
     RDKit          3D

 21 22  0  0  0  0  0  0  0  0999 V2000
    1.9821    1.1456    0.4021 C   0  0  0  0  0  0  0  0  0  0  0  0
    1.3166   -0.2221    0.5184 C   0  0  0  0  0  0  0  0  0  0  0  0
    2.2543   -1.1829    0.1338 O   0  0  0  0  0  0  0  0  0  0  0  0
    0.1366   -0.2986   -0.3892 C   0  0  0  0  0  0  0  0  0  0  0  0
   -0.5294   -1.6710   -0.2712 C   0  0  0  0  0  0  0  0  0  0  0  0
   -1.8621   -0.9441   -0.3398 C   0  0  0  0  0  0  0  0  0  0  0  0
   -1.1287    0.3185    0.0376 C   0  0  0  0  0  0  0  0  0  0  0  0
   -1.6334    1.5797   -0.0554 C   0  0  0  0  0  0  0  0  0  0  0  0
   -1.3197    0.9161    1.2508 O   0  0  0  0  0  0  0  0  0  0  0  0
    1.8684    1.7468    1.3153 H   0  0  0  0  0  0  0  0  0  0  0  0
    3.0751    1.0434    0.1762 H   0  0  0  0  0  0  0  0  0  0  0  0
    1.5597    1.7257   -0.4402 H   0  0  0  0  0  0  0  0  0  0  0  0
    1.0688   -0.3942    1.5847 H   0  0  0  0  0  0  0  0  0  0  0  0
    2.1102   -1.3659   -0.8263 H   0  0  0  0  0  0  0  0  0  0  0  0
    0.4224   -0.0436   -1.4246 H   0  0  0  0  0  0  0  0  0  0  0  0
   -0.3527   -2.3480   -1.1102 H   0  0  0  0  0  0  0  0  0  0  0  0
   -0.4048   -2.1174    0.7419 H   0  0  0  0  0  0  0  0  0  0  0  0
   -2.6151   -1.3023    0.3813 H   0  0  0  0  0  0  0  0  0  0  0  0
   -2.2112   -0.9025   -1.4085 H   0  0  0  0  0  0  0  0  0  0  0  0
   -1.0171    2.5080   -0.1870 H   0  0  0  0  0  0  0  0  0  0  0  0
   -2.7200    1.8086   -0.1433 H   0  0  0  0  0  0  0  0  0  0  0  0
  1  2  1  0
  2  3  1  0
  2  4  1  0
  4  5  1  0
  5  6  1  0
  6  7  1  0
  7  8  1  0
  8  9  1  0
  7  4  1  0
  9  7  1  0
  1 10  1  0
  1 11  1  0
  1 12  1  0
  2 13  1  0
  3 14  1  0
  4 15  1  0
  5 16  1  0
  5 17  1  0
  6 18  1  0
  6 19  1  0
  8 20  1  0
  8 21  1  0
M  END
