
     RDKit          3D

 21 20  0  0  0  0  0  0  0  0999 V2000
   -2.3242   -1.3001   -0.3227 C   0  0  0  0  0  0  0  0  0  0  0  0
   -2.0557    0.1115    0.1027 C   0  0  0  0  0  0  0  0  0  0  0  0
   -2.3570    0.9661   -0.9569 O   0  0  0  0  0  0  0  0  0  0  0  0
   -0.6481    0.3193    0.6057 C   0  0  0  0  0  0  0  0  0  0  0  0
    0.3122    0.0987   -0.3420 O   0  0  0  0  0  0  0  0  0  0  0  0
    1.5710    0.3037    0.1762 C   0  0  0  0  0  0  0  0  0  0  0  0
    2.4345   -0.9493    0.0274 C   0  0  0  0  0  0  0  0  0  0  0  0
    2.2584    1.4623   -0.5003 C   0  0  0  0  0  0  0  0  0  0  0  0
    3.3779    1.7424   -0.1292 O   0  0  0  0  0  0  0  0  0  0  0  0
   -3.4475   -1.4103   -0.3638 H   0  0  0  0  0  0  0  0  0  0  0  0
   -1.9642   -1.5490   -1.3295 H   0  0  0  0  0  0  0  0  0  0  0  0
   -1.9853   -1.9939    0.4558 H   0  0  0  0  0  0  0  0  0  0  0  0
   -2.7648    0.3555    0.9211 H   0  0  0  0  0  0  0  0  0  0  0  0
   -2.5763    1.8388   -0.5814 H   0  0  0  0  0  0  0  0  0  0  0  0
   -0.5812    1.3859    0.9237 H   0  0  0  0  0  0  0  0  0  0  0  0
   -0.4950   -0.2773    1.5275 H   0  0  0  0  0  0  0  0  0  0  0  0
    1.4817    0.5987    1.2416 H   0  0  0  0  0  0  0  0  0  0  0  0
    1.8970   -1.7644   -0.4669 H   0  0  0  0  0  0  0  0  0  0  0  0
    3.3654   -0.6941   -0.5253 H   0  0  0  0  0  0  0  0  0  0  0  0
    2.7314   -1.2706    1.0601 H   0  0  0  0  0  0  0  0  0  0  0  0
    1.7700    2.0261   -1.2912 H   0  0  0  0  0  0  0  0  0  0  0  0
  1  2  1  0
  2  3  1  0
  2  4  1  0
  4  5  1  0
  5  6  1  0
  6  7  1  0
  6  8  1  0
  8  9  2  0
  1 10  1  0
  1 11  1  0
  1 12  1  0
  2 13  1  0
  3 14  1  0
  4 15  1  0
  4 16  1  0
  6 17  1  0
  7 18  1  0
  7 19  1  0
  7 20  1  0
  8 21  1  0
M  END
