
     RDKit          3D

 19 19  0  0  0  0  0  0  0  0999 V2000
   -2.1456   -0.9128   -0.3715 C   0  0  0  0  0  0  0  0  0  0  0  0
   -1.4152    0.4159   -0.2665 C   0  0  0  0  0  0  0  0  0  0  0  0
   -2.0499    1.2539    0.6178 O   0  0  0  0  0  0  0  0  0  0  0  0
    0.0283    0.2041    0.1027 C   0  0  0  0  0  0  0  0  0  0  0  0
    0.6372    0.6657    1.1790 C   0  0  0  0  0  0  0  0  0  0  0  0
    2.0291    0.2595    1.1963 C   0  0  0  0  0  0  0  0  0  0  0  0
    2.7829    0.2126    2.1953 O   0  0  0  0  0  0  0  0  0  0  0  0
    2.3363   -0.0783   -0.2190 C   0  0  0  0  0  0  0  0  0  0  0  0
    0.9943   -0.5746   -0.7031 C   0  0  0  0  0  0  0  0  0  0  0  0
   -2.8565   -0.8428   -1.2311 H   0  0  0  0  0  0  0  0  0  0  0  0
   -1.4394   -1.7171   -0.6218 H   0  0  0  0  0  0  0  0  0  0  0  0
   -2.7395   -1.1195    0.5528 H   0  0  0  0  0  0  0  0  0  0  0  0
   -1.4400    0.9107   -1.2669 H   0  0  0  0  0  0  0  0  0  0  0  0
   -2.3481    2.1134    0.2094 H   0  0  0  0  0  0  0  0  0  0  0  0
    0.1126    1.2689    1.9250 H   0  0  0  0  0  0  0  0  0  0  0  0
    2.6196    0.8571   -0.7741 H   0  0  0  0  0  0  0  0  0  0  0  0
    3.1220   -0.8624   -0.3068 H   0  0  0  0  0  0  0  0  0  0  0  0
    0.9218   -1.6482   -0.4288 H   0  0  0  0  0  0  0  0  0  0  0  0
    0.8499   -0.4062   -1.7887 H   0  0  0  0  0  0  0  0  0  0  0  0
  1  2  1  0
  2  3  1  0
  2  4  1  0
  4  5  2  0
  5  6  1  0
  6  7  2  0
  6  8  1  0
  8  9  1  0
  9  4  1  0
  1 10  1  0
  1 11  1  0
  1 12  1  0
  2 13  1  0
  3 14  1  0
  5 15  1  0
  8 16  1  0
  8 17  1  0
  9 18  1  0
  9 19  1  0
M  END
