
     RDKit          3D

 21 22  0  0  0  0  0  0  0  0999 V2000
   -1.8881   -1.1681    0.1613 C   0  0  0  0  0  0  0  0  0  0  0  0
   -1.4018    0.2324   -0.0672 C   0  0  0  0  0  0  0  0  0  0  0  0
   -2.0104    0.8028   -1.1848 O   0  0  0  0  0  0  0  0  0  0  0  0
    0.0845    0.3413   -0.2199 C   0  0  0  0  0  0  0  0  0  0  0  0
    0.8244   -0.3590   -1.2936 C   0  0  0  0  0  0  0  0  0  0  0  0
    1.6850   -1.2184   -0.6632 O   0  0  0  0  0  0  0  0  0  0  0  0
    2.0561   -0.6715    0.5480 C   0  0  0  0  0  0  0  0  0  0  0  0
    0.8971    0.1805    1.0183 C   0  0  0  0  0  0  0  0  0  0  0  0
    0.7528    1.5190    0.3841 C   0  0  0  0  0  0  0  0  0  0  0  0
   -3.0016   -1.1506   -0.0305 H   0  0  0  0  0  0  0  0  0  0  0  0
   -1.7890   -1.4961    1.2150 H   0  0  0  0  0  0  0  0  0  0  0  0
   -1.4797   -1.9127   -0.5265 H   0  0  0  0  0  0  0  0  0  0  0  0
   -1.7152    0.8297    0.8148 H   0  0  0  0  0  0  0  0  0  0  0  0
   -2.0693    1.7934   -1.0561 H   0  0  0  0  0  0  0  0  0  0  0  0
    1.4220    0.3830   -1.8989 H   0  0  0  0  0  0  0  0  0  0  0  0
    0.1926   -0.8925   -2.0252 H   0  0  0  0  0  0  0  0  0  0  0  0
    2.9050    0.0326    0.3517 H   0  0  0  0  0  0  0  0  0  0  0  0
    2.3139   -1.4174    1.3049 H   0  0  0  0  0  0  0  0  0  0  0  0
    0.4504   -0.0575    1.9888 H   0  0  0  0  0  0  0  0  0  0  0  0
    0.1104    2.2923    0.8157 H   0  0  0  0  0  0  0  0  0  0  0  0
    1.6611    1.9367   -0.1132 H   0  0  0  0  0  0  0  0  0  0  0  0
  1  2  1  0
  2  3  1  0
  2  4  1  0
  4  5  1  0
  5  6  1  0
  6  7  1  0
  7  8  1  0
  8  9  1  0
  8  4  1  0
  9  4  1  0
  1 10  1  0
  1 11  1  0
  1 12  1  0
  2 13  1  0
  3 14  1  0
  5 15  1  0
  5 16  1  0
  7 17  1  0
  7 18  1  0
  8 19  1  0
  9 20  1  0
  9 21  1  0
M  END
