
     RDKit          3D

 15 14  0  0  0  0  0  0  0  0999 V2000
   -1.4509    0.5272   -0.5485 C   0  0  0  0  0  0  0  0  0  0  0  0
   -0.7308   -0.2588    0.5494 C   0  0  0  0  0  0  0  0  0  0  0  0
   -0.3306    0.6449    1.4911 O   0  0  0  0  0  0  0  0  0  0  0  0
    0.3270   -1.1470   -0.0143 C   0  0  0  0  0  0  0  0  0  0  0  0
    1.3750   -0.5159   -0.6669 O   0  0  0  0  0  0  0  0  0  0  0  0
    2.2818    0.3752   -0.1291 C   0  0  0  0  0  0  0  0  0  0  0  0
    2.2077    0.6899    1.0832 O   0  0  0  0  0  0  0  0  0  0  0  0
   -0.6937    0.7956   -1.3017 H   0  0  0  0  0  0  0  0  0  0  0  0
   -1.9199    1.4040   -0.0871 H   0  0  0  0  0  0  0  0  0  0  0  0
   -2.2250   -0.1640   -0.9505 H   0  0  0  0  0  0  0  0  0  0  0  0
   -1.4986   -0.9193    1.0542 H   0  0  0  0  0  0  0  0  0  0  0  0
   -0.9692    1.3949    1.5112 H   0  0  0  0  0  0  0  0  0  0  0  0
    0.7203   -1.8648    0.7643 H   0  0  0  0  0  0  0  0  0  0  0  0
   -0.1752   -1.7996   -0.7896 H   0  0  0  0  0  0  0  0  0  0  0  0
    3.0821    0.8378   -0.7041 H   0  0  0  0  0  0  0  0  0  0  0  0
  1  2  1  0
  2  3  1  0
  2  4  1  0
  4  5  1  0
  5  6  1  0
  6  7  2  0
  1  8  1  0
  1  9  1  0
  1 10  1  0
  2 11  1  0
  3 12  1  0
  4 13  1  0
  4 14  1  0
  6 15  1  0
M  END
