
     RDKit          3D

 25 24  0  0  0  0  0  0  0  0999 V2000
   -1.9553    1.0436    0.7203 C   0  0  0  0  0  0  0  0  0  0  0  0
   -1.5860    0.1123   -0.3971 C   0  0  0  0  0  0  0  0  0  0  0  0
   -1.6259    0.7799   -1.6081 O   0  0  0  0  0  0  0  0  0  0  0  0
   -0.3256   -0.6435   -0.1851 C   0  0  0  0  0  0  0  0  0  0  0  0
   -0.4715   -1.4836    1.0750 C   0  0  0  0  0  0  0  0  0  0  0  0
    0.9228    0.1385   -0.0795 C   0  0  0  0  0  0  0  0  0  0  0  0
    2.0747   -0.8261    0.1330 C   0  0  0  0  0  0  0  0  0  0  0  0
    1.2660    1.0351   -1.1992 C   0  0  0  0  0  0  0  0  0  0  0  0
    0.8505    0.9147    1.0957 O   0  0  0  0  0  0  0  0  0  0  0  0
   -2.0660    0.5414    1.6845 H   0  0  0  0  0  0  0  0  0  0  0  0
   -2.9609    1.4696    0.4626 H   0  0  0  0  0  0  0  0  0  0  0  0
   -1.2857    1.9067    0.8286 H   0  0  0  0  0  0  0  0  0  0  0  0
   -2.4062   -0.6473   -0.4486 H   0  0  0  0  0  0  0  0  0  0  0  0
   -1.8182    0.1945   -2.3823 H   0  0  0  0  0  0  0  0  0  0  0  0
   -0.2304   -1.3753   -1.0181 H   0  0  0  0  0  0  0  0  0  0  0  0
    0.4512   -2.1259    1.1747 H   0  0  0  0  0  0  0  0  0  0  0  0
   -1.3138   -2.1944    0.9170 H   0  0  0  0  0  0  0  0  0  0  0  0
   -0.6129   -0.8615    1.9803 H   0  0  0  0  0  0  0  0  0  0  0  0
    3.0192   -0.4484   -0.2946 H   0  0  0  0  0  0  0  0  0  0  0  0
    2.2579   -1.0302    1.2043 H   0  0  0  0  0  0  0  0  0  0  0  0
    1.8802   -1.8063   -0.3764 H   0  0  0  0  0  0  0  0  0  0  0  0
    0.9141    2.0976   -1.0542 H   0  0  0  0  0  0  0  0  0  0  0  0
    2.3733    1.1307   -1.2618 H   0  0  0  0  0  0  0  0  0  0  0  0
    0.9639    0.6565   -2.2116 H   0  0  0  0  0  0  0  0  0  0  0  0
    1.6847    1.4214    1.2405 H   0  0  0  0  0  0  0  0  0  0  0  0
  1  2  1  0
  2  3  1  0
  2  4  1  0
  4  5  1  0
  4  6  1  0
  6  7  1  0
  6  8  1  0
  6  9  1  0
  1 10  1  0
  1 11  1  0
  1 12  1  0
  2 13  1  0
  3 14  1  0
  4 15  1  0
  5 16  1  0
  5 17  1  0
  5 18  1  0
  7 19  1  0
  7 20  1  0
  7 21  1  0
  8 22  1  0
  8 23  1  0
  8 24  1  0
  9 25  1  0
M  END
