
     RDKit          3D

 23 24  0  0  0  0  0  0  0  0999 V2000
    2.8402    0.1758   -0.4833 C   0  0  0  0  0  0  0  0  0  0  0  0
    1.5872    0.4672    0.3314 C   0  0  0  0  0  0  0  0  0  0  0  0
    1.0857    1.6713   -0.1249 O   0  0  0  0  0  0  0  0  0  0  0  0
    0.6206   -0.6628    0.2824 C   0  0  0  0  0  0  0  0  0  0  0  0
    0.0309   -1.1456   -0.9883 C   0  0  0  0  0  0  0  0  0  0  0  0
   -0.7658   -0.4136   -0.0238 C   0  0  0  0  0  0  0  0  0  0  0  0
   -1.9340   -0.9786    0.7175 C   0  0  0  0  0  0  0  0  0  0  0  0
   -2.7328    0.2444    0.2389 C   0  0  0  0  0  0  0  0  0  0  0  0
   -1.4210    0.8881   -0.2331 C   0  0  0  0  0  0  0  0  0  0  0  0
    2.8185    0.6802   -1.4670 H   0  0  0  0  0  0  0  0  0  0  0  0
    2.9223   -0.9200   -0.6134 H   0  0  0  0  0  0  0  0  0  0  0  0
    3.7281    0.6042    0.0525 H   0  0  0  0  0  0  0  0  0  0  0  0
    1.8776    0.6282    1.4046 H   0  0  0  0  0  0  0  0  0  0  0  0
    1.6972    2.3988    0.1618 H   0  0  0  0  0  0  0  0  0  0  0  0
    0.8410   -1.4735    1.0284 H   0  0  0  0  0  0  0  0  0  0  0  0
   -0.1434   -2.2324   -1.1243 H   0  0  0  0  0  0  0  0  0  0  0  0
    0.2483   -0.6343   -1.9610 H   0  0  0  0  0  0  0  0  0  0  0  0
   -1.7373   -0.9747    1.8129 H   0  0  0  0  0  0  0  0  0  0  0  0
   -2.3408   -1.9397    0.3208 H   0  0  0  0  0  0  0  0  0  0  0  0
   -3.1965    0.7334    1.1070 H   0  0  0  0  0  0  0  0  0  0  0  0
   -3.3874    0.0210   -0.6163 H   0  0  0  0  0  0  0  0  0  0  0  0
   -1.1821    1.7191    0.4292 H   0  0  0  0  0  0  0  0  0  0  0  0
   -1.4565    1.1433   -1.3306 H   0  0  0  0  0  0  0  0  0  0  0  0
  1  2  1  0
  2  3  1  0
  2  4  1  0
  4  5  1  0
  5  6  1  0
  6  7  1  0
  7  8  1  0
  8  9  1  0
  6  4  1  0
  9  6  1  0
  1 10  1  0
  1 11  1  0
  1 12  1  0
  2 13  1  0
  3 14  1  0
  4 15  1  0
  5 16  1  0
  5 17  1  0
  7 18  1  0
  7 19  1  0
  8 20  1  0
  8 21  1  0
  9 22  1  0
  9 23  1  0
M  END
