
     RDKit          3D

 20 20  0  0  0  0  0  0  0  0999 V2000
    2.1955   -0.6885   -0.0660 C   0  0  0  0  0  0  0  0  0  0  0  0
    1.1774    0.2976   -0.4535 C   0  0  0  0  0  0  0  0  0  0  0  0
    1.7528    1.5663   -0.6788 O   0  0  0  0  0  0  0  0  0  0  0  0
    0.0322    0.4963    0.4718 C   0  0  0  0  0  0  0  0  0  0  0  0
   -0.7292   -0.7327    0.8192 C   0  0  0  0  0  0  0  0  0  0  0  0
   -2.1220   -0.4150    0.2872 C   0  0  0  0  0  0  0  0  0  0  0  0
   -1.7588    0.5322   -0.8576 C   0  0  0  0  0  0  0  0  0  0  0  0
   -0.8596    1.3717   -0.1749 O   0  0  0  0  0  0  0  0  0  0  0  0
    3.1853   -0.1860    0.0961 H   0  0  0  0  0  0  0  0  0  0  0  0
    2.4081   -1.4432   -0.8808 H   0  0  0  0  0  0  0  0  0  0  0  0
    1.9891   -1.2774    0.8386 H   0  0  0  0  0  0  0  0  0  0  0  0
    0.7584    0.0012   -1.4583 H   0  0  0  0  0  0  0  0  0  0  0  0
    2.0229    1.9747    0.1899 H   0  0  0  0  0  0  0  0  0  0  0  0
    0.3539    1.0210    1.4143 H   0  0  0  0  0  0  0  0  0  0  0  0
   -0.3249   -1.6547    0.3949 H   0  0  0  0  0  0  0  0  0  0  0  0
   -0.8593   -0.8060    1.9386 H   0  0  0  0  0  0  0  0  0  0  0  0
   -2.6432   -1.3091   -0.0572 H   0  0  0  0  0  0  0  0  0  0  0  0
   -2.6899    0.1936    1.0110 H   0  0  0  0  0  0  0  0  0  0  0  0
   -2.6168    1.1132   -1.1890 H   0  0  0  0  0  0  0  0  0  0  0  0
   -1.2719   -0.0552   -1.6454 H   0  0  0  0  0  0  0  0  0  0  0  0
  1  2  1  0
  2  3  1  0
  2  4  1  0
  4  5  1  0
  5  6  1  0
  6  7  1  0
  7  8  1  0
  8  4  1  0
  1  9  1  0
  1 10  1  0
  1 11  1  0
  2 12  1  0
  3 13  1  0
  4 14  1  0
  5 15  1  0
  5 16  1  0
  6 17  1  0
  6 18  1  0
  7 19  1  0
  7 20  1  0
M  END
