
     RDKit          3D

 23 23  0  0  0  0  0  0  0  0999 V2000
    2.6493   -0.5308    0.2630 C   0  0  0  0  0  0  0  0  0  0  0  0
    1.4093    0.3341    0.1417 C   0  0  0  0  0  0  0  0  0  0  0  0
    1.5703    1.2333   -0.8976 O   0  0  0  0  0  0  0  0  0  0  0  0
    0.2590   -0.5708   -0.1698 C   0  0  0  0  0  0  0  0  0  0  0  0
    0.1354   -1.4662    0.9158 O   0  0  0  0  0  0  0  0  0  0  0  0
   -1.0595    0.1527   -0.2725 C   0  0  0  0  0  0  0  0  0  0  0  0
   -1.1629    1.2235   -1.3242 C   0  0  0  0  0  0  0  0  0  0  0  0
   -1.9224    0.3159    0.9225 C   0  0  0  0  0  0  0  0  0  0  0  0
   -2.2591   -0.7657   -0.0518 C   0  0  0  0  0  0  0  0  0  0  0  0
    2.3882   -1.5877    0.5459 H   0  0  0  0  0  0  0  0  0  0  0  0
    3.2324   -0.5560   -0.6809 H   0  0  0  0  0  0  0  0  0  0  0  0
    3.3351   -0.1791    1.0612 H   0  0  0  0  0  0  0  0  0  0  0  0
    1.3042    0.8683    1.1035 H   0  0  0  0  0  0  0  0  0  0  0  0
    2.4253    1.7265   -0.8654 H   0  0  0  0  0  0  0  0  0  0  0  0
    0.4956   -1.1092   -1.1071 H   0  0  0  0  0  0  0  0  0  0  0  0
    0.0493   -2.3651    0.5372 H   0  0  0  0  0  0  0  0  0  0  0  0
   -0.9730    2.2308   -0.8631 H   0  0  0  0  0  0  0  0  0  0  0  0
   -2.1864    1.1692   -1.7472 H   0  0  0  0  0  0  0  0  0  0  0  0
   -0.4222    1.0986   -2.1215 H   0  0  0  0  0  0  0  0  0  0  0  0
   -2.6164    1.1599    0.9730 H   0  0  0  0  0  0  0  0  0  0  0  0
   -1.4957    0.0122    1.9037 H   0  0  0  0  0  0  0  0  0  0  0  0
   -3.0629   -0.6055   -0.8006 H   0  0  0  0  0  0  0  0  0  0  0  0
   -2.0927   -1.7889    0.2939 H   0  0  0  0  0  0  0  0  0  0  0  0
  1  2  1  0
  2  3  1  0
  2  4  1  0
  4  5  1  0
  4  6  1  0
  6  7  1  0
  6  8  1  0
  8  9  1  0
  9  6  1  0
  1 10  1  0
  1 11  1  0
  1 12  1  0
  2 13  1  0
  3 14  1  0
  4 15  1  0
  5 16  1  0
  7 17  1  0
  7 18  1  0
  7 19  1  0
  8 20  1  0
  8 21  1  0
  9 22  1  0
  9 23  1  0
M  END
