
     RDKit          3D

 23 24  0  0  0  0  0  0  0  0999 V2000
    3.2902    0.2757    0.2569 C   0  0  0  0  0  0  0  0  0  0  0  0
    1.9445   -0.0050    0.9316 C   0  0  0  0  0  0  0  0  0  0  0  0
    1.9051   -1.3420    1.2636 O   0  0  0  0  0  0  0  0  0  0  0  0
    0.8845    0.3856   -0.0610 C   0  0  0  0  0  0  0  0  0  0  0  0
   -0.5145    0.1715    0.4468 C   0  0  0  0  0  0  0  0  0  0  0  0
   -1.5639    0.5719   -0.5701 C   0  0  0  0  0  0  0  0  0  0  0  0
   -2.9570    0.6588   -0.0511 C   0  0  0  0  0  0  0  0  0  0  0  0
   -2.8402   -0.8135    0.3546 C   0  0  0  0  0  0  0  0  0  0  0  0
   -1.4138   -0.8362   -0.1449 C   0  0  0  0  0  0  0  0  0  0  0  0
    3.2081    1.3161   -0.1701 H   0  0  0  0  0  0  0  0  0  0  0  0
    3.5105   -0.4293   -0.5449 H   0  0  0  0  0  0  0  0  0  0  0  0
    4.0686    0.2248    1.0342 H   0  0  0  0  0  0  0  0  0  0  0  0
    1.8778    0.6648    1.7977 H   0  0  0  0  0  0  0  0  0  0  0  0
    2.8062   -1.7758    1.1454 H   0  0  0  0  0  0  0  0  0  0  0  0
    1.0154   -0.1189   -1.0306 H   0  0  0  0  0  0  0  0  0  0  0  0
    0.9930    1.4879   -0.2306 H   0  0  0  0  0  0  0  0  0  0  0  0
   -0.7081    0.4800    1.5053 H   0  0  0  0  0  0  0  0  0  0  0  0
   -1.2839    0.9100   -1.5628 H   0  0  0  0  0  0  0  0  0  0  0  0
   -3.7037    0.8662   -0.8177 H   0  0  0  0  0  0  0  0  0  0  0  0
   -2.9871    1.3461    0.8410 H   0  0  0  0  0  0  0  0  0  0  0  0
   -3.5521   -1.4104   -0.2657 H   0  0  0  0  0  0  0  0  0  0  0  0
   -2.8968   -0.9935    1.4404 H   0  0  0  0  0  0  0  0  0  0  0  0
   -1.0828   -1.6347   -0.8146 H   0  0  0  0  0  0  0  0  0  0  0  0
  1  2  1  0
  2  3  1  0
  2  4  1  0
  4  5  1  0
  5  6  1  0
  6  7  1  0
  7  8  1  0
  8  9  1  0
  9  5  1  0
  9  6  1  0
  1 10  1  0
  1 11  1  0
  1 12  1  0
  2 13  1  0
  3 14  1  0
  4 15  1  0
  4 16  1  0
  5 17  1  0
  6 18  1  0
  7 19  1  0
  7 20  1  0
  8 21  1  0
  8 22  1  0
  9 23  1  0
M  END
