
     RDKit          3D

 20 21  0  0  0  0  0  0  0  0999 V2000
    1.9701    0.8605    0.2227 C   0  0  0  0  0  0  0  0  0  0  0  0
    0.9245    0.0902   -0.5596 C   0  0  0  0  0  0  0  0  0  0  0  0
    1.6514   -1.0875   -0.9432 O   0  0  0  0  0  0  0  0  0  0  0  0
   -0.1889   -0.4152    0.2706 C   0  0  0  0  0  0  0  0  0  0  0  0
   -0.9313    0.6741    0.9906 C   0  0  0  0  0  0  0  0  0  0  0  0
   -1.5503    0.8607   -0.3909 C   0  0  0  0  0  0  0  0  0  0  0  0
   -1.6303   -0.6052   -0.3130 C   0  0  0  0  0  0  0  0  0  0  0  0
   -0.6970   -1.6677   -0.2232 C   0  0  0  0  0  0  0  0  0  0  0  0
    1.7381    1.9412    0.2945 H   0  0  0  0  0  0  0  0  0  0  0  0
    2.1141    0.4579    1.2199 H   0  0  0  0  0  0  0  0  0  0  0  0
    2.9408    0.7920   -0.3128 H   0  0  0  0  0  0  0  0  0  0  0  0
    0.7148    0.5402   -1.5204 H   0  0  0  0  0  0  0  0  0  0  0  0
    2.0204   -1.4443   -0.0970 H   0  0  0  0  0  0  0  0  0  0  0  0
   -0.3255    1.4780    1.3644 H   0  0  0  0  0  0  0  0  0  0  0  0
   -1.6822    0.2288    1.6738 H   0  0  0  0  0  0  0  0  0  0  0  0
   -2.5660    1.3617   -0.3406 H   0  0  0  0  0  0  0  0  0  0  0  0
   -0.9917    1.3906   -1.1356 H   0  0  0  0  0  0  0  0  0  0  0  0
   -2.4392   -0.8294    0.4729 H   0  0  0  0  0  0  0  0  0  0  0  0
   -0.6734   -2.5014    0.5431 H   0  0  0  0  0  0  0  0  0  0  0  0
   -0.3982   -2.1252   -1.2161 H   0  0  0  0  0  0  0  0  0  0  0  0
  1  2  1  0
  2  3  1  0
  2  4  1  0
  4  5  1  0
  5  6  1  0
  6  7  1  0
  7  8  1  0
  7  4  1  0
  8  4  1  0
  1  9  1  0
  1 10  1  0
  1 11  1  0
  2 12  1  0
  3 13  1  0
  5 14  1  0
  5 15  1  0
  6 16  1  0
  6 17  1  0
  7 18  1  0
  8 19  1  0
  8 20  1  0
M  END
