
     RDKit          3D

 20 20  0  0  0  0  0  0  0  0999 V2000
    2.6256    0.3894   -0.2595 C   0  0  0  0  0  0  0  0  0  0  0  0
    1.3318   -0.3574    0.0623 C   0  0  0  0  0  0  0  0  0  0  0  0
    1.2695   -0.6871    1.3971 O   0  0  0  0  0  0  0  0  0  0  0  0
    0.1697    0.4304   -0.4358 C   0  0  0  0  0  0  0  0  0  0  0  0
   -1.1819   -0.1562   -0.2171 C   0  0  0  0  0  0  0  0  0  0  0  0
   -2.3426    0.7004   -0.7685 C   0  0  0  0  0  0  0  0  0  0  0  0
   -1.5782   -0.8199    1.0741 C   0  0  0  0  0  0  0  0  0  0  0  0
   -1.3522   -1.5181   -0.1055 O   0  0  0  0  0  0  0  0  0  0  0  0
    3.3679    0.2421    0.5719 H   0  0  0  0  0  0  0  0  0  0  0  0
    2.4143    1.4714   -0.3874 H   0  0  0  0  0  0  0  0  0  0  0  0
    3.0900    0.0210   -1.1968 H   0  0  0  0  0  0  0  0  0  0  0  0
    1.4034   -1.3198   -0.5147 H   0  0  0  0  0  0  0  0  0  0  0  0
    1.6032   -1.6037    1.5546 H   0  0  0  0  0  0  0  0  0  0  0  0
    0.1867    1.4370    0.0765 H   0  0  0  0  0  0  0  0  0  0  0  0
    0.2972    0.6629   -1.5304 H   0  0  0  0  0  0  0  0  0  0  0  0
   -2.2340    1.6785   -0.2523 H   0  0  0  0  0  0  0  0  0  0  0  0
   -2.2116    0.8543   -1.8719 H   0  0  0  0  0  0  0  0  0  0  0  0
   -3.2994    0.2547   -0.4983 H   0  0  0  0  0  0  0  0  0  0  0  0
   -0.9069   -0.8549    1.9236 H   0  0  0  0  0  0  0  0  0  0  0  0
   -2.6526   -0.8249    1.3780 H   0  0  0  0  0  0  0  0  0  0  0  0
  1  2  1  0
  2  3  1  0
  2  4  1  0
  4  5  1  0
  5  6  1  0
  5  7  1  0
  7  8  1  0
  8  5  1  0
  1  9  1  0
  1 10  1  0
  1 11  1  0
  2 12  1  0
  3 13  1  0
  4 14  1  0
  4 15  1  0
  6 16  1  0
  6 17  1  0
  6 18  1  0
  7 19  1  0
  7 20  1  0
M  END
