
     RDKit          3D

 22 22  0  0  0  0  0  0  0  0999 V2000
    2.0868    0.8272    0.6107 C   0  0  0  0  0  0  0  0  0  0  0  0
    1.4878   -0.2497   -0.2678 C   0  0  0  0  0  0  0  0  0  0  0  0
    1.8824   -1.5149    0.1752 O   0  0  0  0  0  0  0  0  0  0  0  0
    0.0211   -0.1125   -0.4335 C   0  0  0  0  0  0  0  0  0  0  0  0
   -0.6325   -1.1754   -1.3140 C   0  0  0  0  0  0  0  0  0  0  0  0
   -0.5313    1.2654   -0.4350 C   0  0  0  0  0  0  0  0  0  0  0  0
   -0.8769    0.3124    0.7038 C   0  0  0  0  0  0  0  0  0  0  0  0
   -2.3302   -0.1193    0.6967 C   0  0  0  0  0  0  0  0  0  0  0  0
    1.5980    0.8976    1.5788 H   0  0  0  0  0  0  0  0  0  0  0  0
    3.1831    0.6184    0.7819 H   0  0  0  0  0  0  0  0  0  0  0  0
    2.0967    1.7947    0.0362 H   0  0  0  0  0  0  0  0  0  0  0  0
    1.9847   -0.1240   -1.2747 H   0  0  0  0  0  0  0  0  0  0  0  0
    2.1129   -1.5025    1.1384 H   0  0  0  0  0  0  0  0  0  0  0  0
    0.1269   -1.7506   -1.8895 H   0  0  0  0  0  0  0  0  0  0  0  0
   -1.0919   -1.9054   -0.6062 H   0  0  0  0  0  0  0  0  0  0  0  0
   -1.4232   -0.7615   -1.9311 H   0  0  0  0  0  0  0  0  0  0  0  0
   -1.3202    1.5314   -1.1658 H   0  0  0  0  0  0  0  0  0  0  0  0
    0.0896    2.1024   -0.1177 H   0  0  0  0  0  0  0  0  0  0  0  0
   -0.3700    0.4094    1.6664 H   0  0  0  0  0  0  0  0  0  0  0  0
   -2.6414   -0.3701   -0.3407 H   0  0  0  0  0  0  0  0  0  0  0  0
   -2.9312    0.7727    0.9818 H   0  0  0  0  0  0  0  0  0  0  0  0
   -2.5210   -0.9460    1.4062 H   0  0  0  0  0  0  0  0  0  0  0  0
  1  2  1  0
  2  3  1  0
  2  4  1  0
  4  5  1  0
  4  6  1  0
  6  7  1  0
  7  8  1  0
  7  4  1  0
  1  9  1  0
  1 10  1  0
  1 11  1  0
  2 12  1  0
  3 13  1  0
  5 14  1  0
  5 15  1  0
  5 16  1  0
  6 17  1  0
  6 18  1  0
  7 19  1  0
  8 20  1  0
  8 21  1  0
  8 22  1  0
M  END
