
     RDKit          3D

 19 20  0  0  0  0  0  0  0  0999 V2000
    1.9904    0.6753   -0.0479 C   0  0  0  0  0  0  0  0  0  0  0  0
    1.0878   -0.5239    0.0828 C   0  0  0  0  0  0  0  0  0  0  0  0
    0.7734   -0.7363    1.4143 O   0  0  0  0  0  0  0  0  0  0  0  0
   -0.1339   -0.4317   -0.8000 C   0  0  0  0  0  0  0  0  0  0  0  0
   -1.0263    0.7374   -0.5432 C   0  0  0  0  0  0  0  0  0  0  0  0
   -0.6347    1.6311    0.4220 O   0  0  0  0  0  0  0  0  0  0  0  0
   -2.0480   -0.2381    0.0383 C   0  0  0  0  0  0  0  0  0  0  0  0
   -2.5041   -1.2266   -0.7969 O   0  0  0  0  0  0  0  0  0  0  0  0
   -1.2253   -1.3360   -0.2686 C   0  0  0  0  0  0  0  0  0  0  0  0
    1.9908    1.0711   -1.0932 H   0  0  0  0  0  0  0  0  0  0  0  0
    1.6867    1.4815    0.6502 H   0  0  0  0  0  0  0  0  0  0  0  0
    3.0270    0.3899    0.2606 H   0  0  0  0  0  0  0  0  0  0  0  0
    1.6818   -1.4065   -0.2577 H   0  0  0  0  0  0  0  0  0  0  0  0
    1.5091   -0.3398    1.9620 H   0  0  0  0  0  0  0  0  0  0  0  0
    0.1129   -0.5767   -1.8662 H   0  0  0  0  0  0  0  0  0  0  0  0
   -1.4015    1.2173   -1.4770 H   0  0  0  0  0  0  0  0  0  0  0  0
   -1.4170    1.8187    1.0058 H   0  0  0  0  0  0  0  0  0  0  0  0
   -2.5347   -0.0068    0.9865 H   0  0  0  0  0  0  0  0  0  0  0  0
   -0.9342   -2.2001    0.3283 H   0  0  0  0  0  0  0  0  0  0  0  0
  1  2  1  0
  2  3  1  0
  2  4  1  0
  4  5  1  0
  5  6  1  0
  5  7  1  0
  7  8  1  0
  8  9  1  0
  9  4  1  0
  9  7  1  0
  1 10  1  0
  1 11  1  0
  1 12  1  0
  2 13  1  0
  3 14  1  0
  4 15  1  0
  5 16  1  0
  6 17  1  0
  7 18  1  0
  9 19  1  0
M  END
