
     RDKit          3D

 25 25  0  0  0  0  0  0  0  0999 V2000
    2.8302   -0.7603   -0.4244 C   0  0  0  0  0  0  0  0  0  0  0  0
    2.2101    0.5953   -0.2829 C   0  0  0  0  0  0  0  0  0  0  0  0
    2.9711    1.3300    0.6307 O   0  0  0  0  0  0  0  0  0  0  0  0
    0.8018    0.5555    0.2439 C   0  0  0  0  0  0  0  0  0  0  0  0
   -0.1363   -0.2257   -0.6391 C   0  0  0  0  0  0  0  0  0  0  0  0
   -1.5108   -0.1646    0.0385 C   0  0  0  0  0  0  0  0  0  0  0  0
   -2.0655    1.2335    0.2184 C   0  0  0  0  0  0  0  0  0  0  0  0
   -1.8458   -1.2228    1.0342 C   0  0  0  0  0  0  0  0  0  0  0  0
   -2.5279   -1.2044   -0.2983 C   0  0  0  0  0  0  0  0  0  0  0  0
    2.1004   -1.5971   -0.2920 H   0  0  0  0  0  0  0  0  0  0  0  0
    3.3542   -0.8986   -1.3956 H   0  0  0  0  0  0  0  0  0  0  0  0
    3.6230   -0.9451    0.3567 H   0  0  0  0  0  0  0  0  0  0  0  0
    2.2567    1.1514   -1.2408 H   0  0  0  0  0  0  0  0  0  0  0  0
    2.8859    2.2965    0.4031 H   0  0  0  0  0  0  0  0  0  0  0  0
    0.4320    1.6133    0.2408 H   0  0  0  0  0  0  0  0  0  0  0  0
    0.7716    0.2212    1.2833 H   0  0  0  0  0  0  0  0  0  0  0  0
   -0.2735    0.3253   -1.6072 H   0  0  0  0  0  0  0  0  0  0  0  0
    0.1556   -1.2604   -0.8068 H   0  0  0  0  0  0  0  0  0  0  0  0
   -1.4853    1.9724   -0.3566 H   0  0  0  0  0  0  0  0  0  0  0  0
   -2.1253    1.5214    1.2992 H   0  0  0  0  0  0  0  0  0  0  0  0
   -3.1195    1.2972   -0.1551 H   0  0  0  0  0  0  0  0  0  0  0  0
   -2.3979   -0.9172    1.9306 H   0  0  0  0  0  0  0  0  0  0  0  0
   -1.0568   -1.9898    1.1728 H   0  0  0  0  0  0  0  0  0  0  0  0
   -2.2444   -2.0022   -1.0345 H   0  0  0  0  0  0  0  0  0  0  0  0
   -3.6038   -0.9249   -0.3190 H   0  0  0  0  0  0  0  0  0  0  0  0
  1  2  1  0
  2  3  1  0
  2  4  1  0
  4  5  1  0
  5  6  1  0
  6  7  1  0
  6  8  1  0
  8  9  1  0
  9  6  1  0
  1 10  1  0
  1 11  1  0
  1 12  1  0
  2 13  1  0
  3 14  1  0
  4 15  1  0
  4 16  1  0
  5 17  1  0
  5 18  1  0
  7 19  1  0
  7 20  1  0
  7 21  1  0
  8 22  1  0
  8 23  1  0
  9 24  1  0
  9 25  1  0
M  END
