
     RDKit          3D

 20 20  0  0  0  0  0  0  0  0999 V2000
    1.5920    1.1876    0.2400 C   0  0  0  0  0  0  0  0  0  0  0  0
    1.2341   -0.2516    0.0707 C   0  0  0  0  0  0  0  0  0  0  0  0
    0.9948   -0.5062   -1.2730 O   0  0  0  0  0  0  0  0  0  0  0  0
    0.1360   -0.7273    0.9717 C   0  0  0  0  0  0  0  0  0  0  0  0
    0.0410   -2.1259    0.7704 O   0  0  0  0  0  0  0  0  0  0  0  0
   -1.2082   -0.1585    0.7168 C   0  0  0  0  0  0  0  0  0  0  0  0
   -1.8731   -0.3582   -0.6062 C   0  0  0  0  0  0  0  0  0  0  0  0
   -1.4490    1.0183   -0.1336 C   0  0  0  0  0  0  0  0  0  0  0  0
    2.6151    1.2810    0.7116 H   0  0  0  0  0  0  0  0  0  0  0  0
    0.9219    1.7267    0.9702 H   0  0  0  0  0  0  0  0  0  0  0  0
    1.6822    1.7474   -0.7199 H   0  0  0  0  0  0  0  0  0  0  0  0
    2.1346   -0.8848    0.3301 H   0  0  0  0  0  0  0  0  0  0  0  0
    1.8359   -0.6003   -1.7881 H   0  0  0  0  0  0  0  0  0  0  0  0
    0.4481   -0.6207    2.0307 H   0  0  0  0  0  0  0  0  0  0  0  0
    0.0358   -2.3114   -0.1874 H   0  0  0  0  0  0  0  0  0  0  0  0
   -1.9120   -0.2718    1.5903 H   0  0  0  0  0  0  0  0  0  0  0  0
   -2.9748   -0.4870   -0.6597 H   0  0  0  0  0  0  0  0  0  0  0  0
   -1.3006   -0.8813   -1.3728 H   0  0  0  0  0  0  0  0  0  0  0  0
   -0.7006    1.4841   -0.7789 H   0  0  0  0  0  0  0  0  0  0  0  0
   -2.2533    1.7402    0.1738 H   0  0  0  0  0  0  0  0  0  0  0  0
  1  2  1  0
  2  3  1  0
  2  4  1  0
  4  5  1  0
  4  6  1  0
  6  7  1  0
  7  8  1  0
  8  6  1  0
  1  9  1  0
  1 10  1  0
  1 11  1  0
  2 12  1  0
  3 13  1  0
  4 14  1  0
  5 15  1  0
  6 16  1  0
  7 17  1  0
  7 18  1  0
  8 19  1  0
  8 20  1  0
M  END
