
     RDKit          3D

 21 21  0  0  0  0  0  0  0  0999 V2000
   -1.5696    0.1954    1.1848 C   0  0  0  0  0  0  0  0  0  0  0  0
   -1.3901    0.2079   -0.2911 C   0  0  0  0  0  0  0  0  0  0  0  0
   -2.2644   -0.7054   -0.8689 O   0  0  0  0  0  0  0  0  0  0  0  0
   -0.0111   -0.1133   -0.7642 C   0  0  0  0  0  0  0  0  0  0  0  0
    0.4936   -1.4560   -0.3681 C   0  0  0  0  0  0  0  0  0  0  0  0
    1.8612   -1.3334   -0.6241 O   0  0  0  0  0  0  0  0  0  0  0  0
    2.1954   -0.1659    0.0818 C   0  0  0  0  0  0  0  0  0  0  0  0
    1.0518    0.8015   -0.1951 C   0  0  0  0  0  0  0  0  0  0  0  0
    0.6082    1.4352    0.9510 O   0  0  0  0  0  0  0  0  0  0  0  0
   -1.6354    1.2334    1.5720 H   0  0  0  0  0  0  0  0  0  0  0  0
   -0.7302   -0.3117    1.7370 H   0  0  0  0  0  0  0  0  0  0  0  0
   -2.5512   -0.2799    1.4803 H   0  0  0  0  0  0  0  0  0  0  0  0
   -1.6733    1.2070   -0.6819 H   0  0  0  0  0  0  0  0  0  0  0  0
   -2.5360   -0.4280   -1.7904 H   0  0  0  0  0  0  0  0  0  0  0  0
   -0.0075   -0.0531   -1.8696 H   0  0  0  0  0  0  0  0  0  0  0  0
    0.1310   -2.2850   -1.0034 H   0  0  0  0  0  0  0  0  0  0  0  0
    0.3984   -1.6734    0.7100 H   0  0  0  0  0  0  0  0  0  0  0  0
    2.2336   -0.4562    1.1512 H   0  0  0  0  0  0  0  0  0  0  0  0
    3.1289    0.2625   -0.2897 H   0  0  0  0  0  0  0  0  0  0  0  0
    1.3465    1.5257   -0.9948 H   0  0  0  0  0  0  0  0  0  0  0  0
    0.9203    2.3928    0.8733 H   0  0  0  0  0  0  0  0  0  0  0  0
  1  2  1  0
  2  3  1  0
  2  4  1  0
  4  5  1  0
  5  6  1  0
  6  7  1  0
  7  8  1  0
  8  9  1  0
  8  4  1  0
  1 10  1  0
  1 11  1  0
  1 12  1  0
  2 13  1  0
  3 14  1  0
  4 15  1  0
  5 16  1  0
  5 17  1  0
  7 18  1  0
  7 19  1  0
  8 20  1  0
  9 21  1  0
M  END
