
     RDKit          3D

 22 21  0  0  0  0  0  0  0  0999 V2000
   -2.7185   -0.5606   -0.1485 C   0  0  0  0  0  0  0  0  0  0  0  0
   -1.4422    0.1716    0.1241 C   0  0  0  0  0  0  0  0  0  0  0  0
   -1.2870    0.4866    1.4824 O   0  0  0  0  0  0  0  0  0  0  0  0
   -0.2088   -0.6240   -0.2634 C   0  0  0  0  0  0  0  0  0  0  0  0
    0.9684    0.2648    0.0805 C   0  0  0  0  0  0  0  0  0  0  0  0
    0.8755    1.5540   -0.7021 C   0  0  0  0  0  0  0  0  0  0  0  0
    2.2930   -0.4217   -0.1538 C   0  0  0  0  0  0  0  0  0  0  0  0
    2.4084   -1.5683    0.6196 O   0  0  0  0  0  0  0  0  0  0  0  0
   -3.3270    0.0006   -0.9173 H   0  0  0  0  0  0  0  0  0  0  0  0
   -3.3417   -0.4724    0.7900 H   0  0  0  0  0  0  0  0  0  0  0  0
   -2.5842   -1.5914   -0.4670 H   0  0  0  0  0  0  0  0  0  0  0  0
   -1.4111    1.1385   -0.4277 H   0  0  0  0  0  0  0  0  0  0  0  0
   -1.6404   -0.2229    2.0693 H   0  0  0  0  0  0  0  0  0  0  0  0
   -0.1559   -1.5285    0.3622 H   0  0  0  0  0  0  0  0  0  0  0  0
   -0.2183   -0.8973   -1.3374 H   0  0  0  0  0  0  0  0  0  0  0  0
    0.8957    0.4626    1.1820 H   0  0  0  0  0  0  0  0  0  0  0  0
    1.8996    1.8044   -1.0364 H   0  0  0  0  0  0  0  0  0  0  0  0
    0.4199    2.3580   -0.0855 H   0  0  0  0  0  0  0  0  0  0  0  0
    0.2460    1.4269   -1.6119 H   0  0  0  0  0  0  0  0  0  0  0  0
    3.0814    0.2978    0.1337 H   0  0  0  0  0  0  0  0  0  0  0  0
    2.4390   -0.6944   -1.2128 H   0  0  0  0  0  0  0  0  0  0  0  0
    2.8082   -1.3845    1.5200 H   0  0  0  0  0  0  0  0  0  0  0  0
  1  2  1  0
  2  3  1  0
  2  4  1  0
  4  5  1  0
  5  6  1  0
  5  7  1  0
  7  8  1  0
  1  9  1  0
  1 10  1  0
  1 11  1  0
  2 12  1  0
  3 13  1  0
  4 14  1  0
  4 15  1  0
  5 16  1  0
  6 17  1  0
  6 18  1  0
  6 19  1  0
  7 20  1  0
  7 21  1  0
  8 22  1  0
M  END
