
     RDKit          3D

 23 22  0  0  0  0  0  0  0  0999 V2000
   -3.2447    0.3637    0.3828 C   0  0  0  0  0  0  0  0  0  0  0  0
   -2.1473   -0.6362   -0.0013 C   0  0  0  0  0  0  0  0  0  0  0  0
   -2.3040   -1.0170   -1.3307 O   0  0  0  0  0  0  0  0  0  0  0  0
   -0.8371    0.0605    0.1865 C   0  0  0  0  0  0  0  0  0  0  0  0
    0.2622   -0.6959   -0.1325 O   0  0  0  0  0  0  0  0  0  0  0  0
    1.3996    0.0778    0.0906 C   0  0  0  0  0  0  0  0  0  0  0  0
    2.2901   -0.5555    1.1330 C   0  0  0  0  0  0  0  0  0  0  0  0
    2.1776    0.3040   -1.1879 C   0  0  0  0  0  0  0  0  0  0  0  0
    3.3017    1.0800   -0.9140 O   0  0  0  0  0  0  0  0  0  0  0  0
   -3.5636    0.8589   -0.5539 H   0  0  0  0  0  0  0  0  0  0  0  0
   -2.8148    1.1872    1.0200 H   0  0  0  0  0  0  0  0  0  0  0  0
   -4.0488   -0.1011    0.9537 H   0  0  0  0  0  0  0  0  0  0  0  0
   -2.2577   -1.4930    0.7046 H   0  0  0  0  0  0  0  0  0  0  0  0
   -2.3911   -1.9858   -1.4283 H   0  0  0  0  0  0  0  0  0  0  0  0
   -0.7208    0.4374    1.2118 H   0  0  0  0  0  0  0  0  0  0  0  0
   -0.8329    0.9472   -0.5039 H   0  0  0  0  0  0  0  0  0  0  0  0
    1.1311    1.1042    0.4676 H   0  0  0  0  0  0  0  0  0  0  0  0
    3.0758    0.1639    1.4151 H   0  0  0  0  0  0  0  0  0  0  0  0
    2.7159   -1.4849    0.6996 H   0  0  0  0  0  0  0  0  0  0  0  0
    1.6694   -0.7838    2.0307 H   0  0  0  0  0  0  0  0  0  0  0  0
    2.5559   -0.6881   -1.5153 H   0  0  0  0  0  0  0  0  0  0  0  0
    1.5845    0.8213   -1.9411 H   0  0  0  0  0  0  0  0  0  0  0  0
    2.9990    2.0351   -0.7869 H   0  0  0  0  0  0  0  0  0  0  0  0
  1  2  1  0
  2  3  1  0
  2  4  1  0
  4  5  1  0
  5  6  1  0
  6  7  1  0
  6  8  1  0
  8  9  1  0
  1 10  1  0
  1 11  1  0
  1 12  1  0
  2 13  1  0
  3 14  1  0
  4 15  1  0
  4 16  1  0
  6 17  1  0
  7 18  1  0
  7 19  1  0
  7 20  1  0
  8 21  1  0
  8 22  1  0
  9 23  1  0
M  END
