
     RDKit          3D

 15 14  0  0  0  0  0  0  0  0999 V2000
   -1.6544   -0.6962    0.3957 C   0  0  0  0  0  0  0  0  0  0  0  0
   -0.6383    0.2443   -0.2474 C   0  0  0  0  0  0  0  0  0  0  0  0
   -0.6724    0.1613   -1.6257 O   0  0  0  0  0  0  0  0  0  0  0  0
    0.7060   -0.1462    0.2038 C   0  0  0  0  0  0  0  0  0  0  0  0
    1.8111   -0.4508    0.5772 C   0  0  0  0  0  0  0  0  0  0  0  0
    3.1375   -0.8354    1.0330 C   0  0  0  0  0  0  0  0  0  0  0  0
    4.0994   -0.9872    0.2692 O   0  0  0  0  0  0  0  0  0  0  0  0
   -0.9078    1.6197    0.2435 C   0  0  0  0  0  0  0  0  0  0  0  0
   -1.1295    2.5440   -0.5139 O   0  0  0  0  0  0  0  0  0  0  0  0
   -1.2404   -1.0461    1.3603 H   0  0  0  0  0  0  0  0  0  0  0  0
   -2.5860   -0.1671    0.6032 H   0  0  0  0  0  0  0  0  0  0  0  0
   -1.7778   -1.6094   -0.2319 H   0  0  0  0  0  0  0  0  0  0  0  0
   -1.4813    0.5688   -2.0192 H   0  0  0  0  0  0  0  0  0  0  0  0
    3.2364   -0.9839    2.0985 H   0  0  0  0  0  0  0  0  0  0  0  0
   -0.9023    1.7842    1.3109 H   0  0  0  0  0  0  0  0  0  0  0  0
  1  2  1  0
  2  3  1  0
  2  4  1  0
  4  5  3  0
  5  6  1  0
  6  7  2  0
  2  8  1  0
  8  9  2  0
  1 10  1  0
  1 11  1  0
  1 12  1  0
  3 13  1  0
  6 14  1  0
  8 15  1  0
M  END
