
     RDKit          3D

 21 20  0  0  0  0  0  0  0  0999 V2000
    3.2122    0.6746    0.0997 C   0  0  0  0  0  0  0  0  0  0  0  0
    2.1572   -0.4329    0.1297 C   0  0  0  0  0  0  0  0  0  0  0  0
    2.3279   -1.3096   -0.9245 O   0  0  0  0  0  0  0  0  0  0  0  0
    0.8182    0.2591    0.0894 C   0  0  0  0  0  0  0  0  0  0  0  0
   -0.2440   -0.6452    0.1486 O   0  0  0  0  0  0  0  0  0  0  0  0
   -1.4072    0.1354    0.1023 C   0  0  0  0  0  0  0  0  0  0  0  0
   -2.6580   -0.6961    0.1573 C   0  0  0  0  0  0  0  0  0  0  0  0
   -3.8077    0.2503    0.1007 C   0  0  0  0  0  0  0  0  0  0  0  0
   -3.6718    1.4666    0.0242 O   0  0  0  0  0  0  0  0  0  0  0  0
    3.5613    0.8383   -0.9371 H   0  0  0  0  0  0  0  0  0  0  0  0
    4.0482    0.4597    0.7973 H   0  0  0  0  0  0  0  0  0  0  0  0
    2.7704    1.6521    0.4256 H   0  0  0  0  0  0  0  0  0  0  0  0
    2.2495   -0.9335    1.1224 H   0  0  0  0  0  0  0  0  0  0  0  0
    2.2170   -2.2512   -0.5755 H   0  0  0  0  0  0  0  0  0  0  0  0
    0.7354    0.8979    0.9936 H   0  0  0  0  0  0  0  0  0  0  0  0
    0.7153    0.8465   -0.8531 H   0  0  0  0  0  0  0  0  0  0  0  0
   -1.3526    0.8498    0.9199 H   0  0  0  0  0  0  0  0  0  0  0  0
   -1.3846    0.6564   -0.8884 H   0  0  0  0  0  0  0  0  0  0  0  0
   -2.7190   -1.4080   -0.6675 H   0  0  0  0  0  0  0  0  0  0  0  0
   -2.7230   -1.2158    1.1502 H   0  0  0  0  0  0  0  0  0  0  0  0
   -4.8447   -0.0942    0.1246 H   0  0  0  0  0  0  0  0  0  0  0  0
  1  2  1  0
  2  3  1  0
  2  4  1  0
  4  5  1  0
  5  6  1  0
  6  7  1  0
  7  8  1  0
  8  9  2  0
  1 10  1  0
  1 11  1  0
  1 12  1  0
  2 13  1  0
  3 14  1  0
  4 15  1  0
  4 16  1  0
  6 17  1  0
  6 18  1  0
  7 19  1  0
  7 20  1  0
  8 21  1  0
M  END
