
     RDKit          3D

 20 20  0  0  0  0  0  0  0  0999 V2000
   -2.3172   -0.4705    0.5818 C   0  0  0  0  0  0  0  0  0  0  0  0
   -1.2601   -0.3825   -0.5037 C   0  0  0  0  0  0  0  0  0  0  0  0
   -1.0229   -1.6750   -0.9636 O   0  0  0  0  0  0  0  0  0  0  0  0
    0.0315    0.1758    0.0186 C   0  0  0  0  0  0  0  0  0  0  0  0
    0.1041    1.6873    0.0375 C   0  0  0  0  0  0  0  0  0  0  0  0
    0.5830   -0.5419    1.0573 O   0  0  0  0  0  0  0  0  0  0  0  0
    1.2724   -0.5381   -0.2601 C   0  0  0  0  0  0  0  0  0  0  0  0
    2.6186    0.1200   -0.0863 C   0  0  0  0  0  0  0  0  0  0  0  0
   -2.1302   -1.3201    1.2768 H   0  0  0  0  0  0  0  0  0  0  0  0
   -3.2745   -0.7307    0.0569 H   0  0  0  0  0  0  0  0  0  0  0  0
   -2.3976    0.4853    1.1430 H   0  0  0  0  0  0  0  0  0  0  0  0
   -1.6968    0.2189   -1.3277 H   0  0  0  0  0  0  0  0  0  0  0  0
   -1.1046   -2.3546   -0.2650 H   0  0  0  0  0  0  0  0  0  0  0  0
    0.6022    1.9823   -0.9260 H   0  0  0  0  0  0  0  0  0  0  0  0
    0.7049    2.0109    0.8968 H   0  0  0  0  0  0  0  0  0  0  0  0
   -0.9023    2.1594    0.0115 H   0  0  0  0  0  0  0  0  0  0  0  0
    1.2265   -1.5110   -0.7435 H   0  0  0  0  0  0  0  0  0  0  0  0
    3.2943   -0.6729    0.3507 H   0  0  0  0  0  0  0  0  0  0  0  0
    2.5967    0.9230    0.6747 H   0  0  0  0  0  0  0  0  0  0  0  0
    3.0719    0.4344   -1.0298 H   0  0  0  0  0  0  0  0  0  0  0  0
  1  2  1  0
  2  3  1  0
  2  4  1  0
  4  5  1  0
  4  6  1  0
  6  7  1  0
  7  8  1  0
  7  4  1  0
  1  9  1  0
  1 10  1  0
  1 11  1  0
  2 12  1  0
  3 13  1  0
  5 14  1  0
  5 15  1  0
  5 16  1  0
  7 17  1  0
  8 18  1  0
  8 19  1  0
  8 20  1  0
M  END
