
     RDKit          3D

 22 22  0  0  0  0  0  0  0  0999 V2000
    2.6454   -0.8266    0.0202 C   0  0  0  0  0  0  0  0  0  0  0  0
    1.9715    0.4413   -0.3852 C   0  0  0  0  0  0  0  0  0  0  0  0
    2.0858    1.3546    0.6517 O   0  0  0  0  0  0  0  0  0  0  0  0
    0.5504    0.2641   -0.8243 C   0  0  0  0  0  0  0  0  0  0  0  0
   -0.2749   -0.3261    0.2946 C   0  0  0  0  0  0  0  0  0  0  0  0
   -1.6986   -0.5314   -0.0666 C   0  0  0  0  0  0  0  0  0  0  0  0
   -2.5604    0.6234   -0.4765 C   0  0  0  0  0  0  0  0  0  0  0  0
   -2.7071    0.0459    0.9032 C   0  0  0  0  0  0  0  0  0  0  0  0
    2.5251   -1.6085   -0.7740 H   0  0  0  0  0  0  0  0  0  0  0  0
    3.7423   -0.6314    0.0653 H   0  0  0  0  0  0  0  0  0  0  0  0
    2.3524   -1.1916    1.0166 H   0  0  0  0  0  0  0  0  0  0  0  0
    2.5564    0.8703   -1.2428 H   0  0  0  0  0  0  0  0  0  0  0  0
    1.6731    1.0595    1.4887 H   0  0  0  0  0  0  0  0  0  0  0  0
    0.5252   -0.4390   -1.6757 H   0  0  0  0  0  0  0  0  0  0  0  0
    0.1736    1.2592   -1.1439 H   0  0  0  0  0  0  0  0  0  0  0  0
    0.1681   -1.3486    0.4818 H   0  0  0  0  0  0  0  0  0  0  0  0
   -0.2043    0.3074    1.1936 H   0  0  0  0  0  0  0  0  0  0  0  0
   -1.9816   -1.5389   -0.4652 H   0  0  0  0  0  0  0  0  0  0  0  0
   -3.3973    0.4293   -1.1821 H   0  0  0  0  0  0  0  0  0  0  0  0
   -2.1203    1.6307   -0.6180 H   0  0  0  0  0  0  0  0  0  0  0  0
   -2.3797    0.6916    1.7240 H   0  0  0  0  0  0  0  0  0  0  0  0
   -3.6450   -0.5354    1.0973 H   0  0  0  0  0  0  0  0  0  0  0  0
  1  2  1  0
  2  3  1  0
  2  4  1  0
  4  5  1  0
  5  6  1  0
  6  7  1  0
  7  8  1  0
  8  6  1  0
  1  9  1  0
  1 10  1  0
  1 11  1  0
  2 12  1  0
  3 13  1  0
  4 14  1  0
  4 15  1  0
  5 16  1  0
  5 17  1  0
  6 18  1  0
  7 19  1  0
  7 20  1  0
  8 21  1  0
  8 22  1  0
M  END
