
     RDKit          3D

 21 21  0  0  0  0  0  0  0  0999 V2000
    2.3417   -0.5712    0.0711 C   0  0  0  0  0  0  0  0  0  0  0  0
    1.3141    0.3945   -0.4369 C   0  0  0  0  0  0  0  0  0  0  0  0
    1.7447    1.6960   -0.3050 O   0  0  0  0  0  0  0  0  0  0  0  0
   -0.0111    0.2673    0.2836 C   0  0  0  0  0  0  0  0  0  0  0  0
    0.0696    0.5649    1.6261 O   0  0  0  0  0  0  0  0  0  0  0  0
   -0.9888    1.1144   -0.4502 C   0  0  0  0  0  0  0  0  0  0  0  0
   -2.1424    0.5061   -0.6586 C   0  0  0  0  0  0  0  0  0  0  0  0
   -2.0809   -0.8493   -0.0790 C   0  0  0  0  0  0  0  0  0  0  0  0
   -0.6063   -1.1163    0.0432 C   0  0  0  0  0  0  0  0  0  0  0  0
    2.2077   -1.5686   -0.3984 H   0  0  0  0  0  0  0  0  0  0  0  0
    2.2957   -0.6246    1.1908 H   0  0  0  0  0  0  0  0  0  0  0  0
    3.3433   -0.1769   -0.2678 H   0  0  0  0  0  0  0  0  0  0  0  0
    1.1240    0.1864   -1.5005 H   0  0  0  0  0  0  0  0  0  0  0  0
    1.7585    1.9972    0.6433 H   0  0  0  0  0  0  0  0  0  0  0  0
   -0.8168    0.8394    1.9709 H   0  0  0  0  0  0  0  0  0  0  0  0
   -0.8038    2.1522   -0.8012 H   0  0  0  0  0  0  0  0  0  0  0  0
   -3.0162    0.9574   -1.1900 H   0  0  0  0  0  0  0  0  0  0  0  0
   -2.6081   -1.6098   -0.6860 H   0  0  0  0  0  0  0  0  0  0  0  0
   -2.4883   -0.8136    0.9716 H   0  0  0  0  0  0  0  0  0  0  0  0
   -0.2510   -1.5324   -0.8980 H   0  0  0  0  0  0  0  0  0  0  0  0
   -0.3854   -1.8132    0.8710 H   0  0  0  0  0  0  0  0  0  0  0  0
  1  2  1  0
  2  3  1  0
  2  4  1  0
  4  5  1  0
  4  6  1  0
  6  7  2  0
  7  8  1  0
  8  9  1  0
  9  4  1  0
  1 10  1  0
  1 11  1  0
  1 12  1  0
  2 13  1  0
  3 14  1  0
  5 15  1  0
  6 16  1  0
  7 17  1  0
  8 18  1  0
  8 19  1  0
  9 20  1  0
  9 21  1  0
M  END
