
     RDKit          3D

 18 18  0  0  0  0  0  0  0  0999 V2000
   -0.9257   -0.7423   -1.4953 C   0  0  0  0  0  0  0  0  0  0  0  0
   -0.6987   -0.3570   -0.0594 C   0  0  0  0  0  0  0  0  0  0  0  0
   -0.8674    0.9872    0.2175 O   0  0  0  0  0  0  0  0  0  0  0  0
   -1.7585    1.5343    1.1156 C   0  0  0  0  0  0  0  0  0  0  0  0
   -2.4874    0.7204    1.7414 O   0  0  0  0  0  0  0  0  0  0  0  0
    0.7400   -0.7266    0.2773 C   0  0  0  0  0  0  0  0  0  0  0  0
    1.8419   -0.1069   -0.4901 C   0  0  0  0  0  0  0  0  0  0  0  0
    1.5938    0.3238    0.9412 C   0  0  0  0  0  0  0  0  0  0  0  0
   -0.3900   -0.0768   -2.1943 H   0  0  0  0  0  0  0  0  0  0  0  0
   -2.0011   -0.8549   -1.7435 H   0  0  0  0  0  0  0  0  0  0  0  0
   -0.4718   -1.7554   -1.6290 H   0  0  0  0  0  0  0  0  0  0  0  0
   -1.3970   -0.9433    0.5567 H   0  0  0  0  0  0  0  0  0  0  0  0
   -1.8383    2.6081    1.2843 H   0  0  0  0  0  0  0  0  0  0  0  0
    0.8842   -1.7985    0.5440 H   0  0  0  0  0  0  0  0  0  0  0  0
    1.6204    0.6725   -1.2770 H   0  0  0  0  0  0  0  0  0  0  0  0
    2.7838   -0.6793   -0.6407 H   0  0  0  0  0  0  0  0  0  0  0  0
    1.1010    1.2983    1.1263 H   0  0  0  0  0  0  0  0  0  0  0  0
    2.2708   -0.1037    1.7250 H   0  0  0  0  0  0  0  0  0  0  0  0
  1  2  1  0
  2  3  1  0
  3  4  1  0
  4  5  2  0
  2  6  1  0
  6  7  1  0
  7  8  1  0
  8  6  1  0
  1  9  1  0
  1 10  1  0
  1 11  1  0
  2 12  1  0
  4 13  1  0
  6 14  1  0
  7 15  1  0
  7 16  1  0
  8 17  1  0
  8 18  1  0
M  END
