
     RDKit          3D

 21 21  0  0  0  0  0  0  0  0999 V2000
    1.7759    1.2557   -0.1547 C   0  0  0  0  0  0  0  0  0  0  0  0
    1.2491   -0.0965   -0.4771 C   0  0  0  0  0  0  0  0  0  0  0  0
    1.8803   -0.5190   -1.6703 O   0  0  0  0  0  0  0  0  0  0  0  0
    1.6352   -1.0719    0.5656 C   0  0  0  0  0  0  0  0  0  0  0  0
    2.3654   -2.0347    0.3574 O   0  0  0  0  0  0  0  0  0  0  0  0
   -0.2363   -0.1284   -0.7505 C   0  0  0  0  0  0  0  0  0  0  0  0
   -1.0515    0.3438    0.4096 C   0  0  0  0  0  0  0  0  0  0  0  0
   -2.5425    0.3279    0.1781 C   0  0  0  0  0  0  0  0  0  0  0  0
   -1.9192   -0.5516    1.1968 C   0  0  0  0  0  0  0  0  0  0  0  0
    1.7458    1.5401    0.8959 H   0  0  0  0  0  0  0  0  0  0  0  0
    2.8617    1.2750   -0.4632 H   0  0  0  0  0  0  0  0  0  0  0  0
    1.2891    2.0413   -0.7589 H   0  0  0  0  0  0  0  0  0  0  0  0
    1.2736   -1.0820   -2.2103 H   0  0  0  0  0  0  0  0  0  0  0  0
    1.2694   -0.9579    1.5803 H   0  0  0  0  0  0  0  0  0  0  0  0
   -0.4922   -1.1753   -1.0302 H   0  0  0  0  0  0  0  0  0  0  0  0
   -0.4818    0.4929   -1.6330 H   0  0  0  0  0  0  0  0  0  0  0  0
   -0.6101    1.2102    0.9558 H   0  0  0  0  0  0  0  0  0  0  0  0
   -2.9288   -0.1827   -0.7312 H   0  0  0  0  0  0  0  0  0  0  0  0
   -3.0574    1.2581    0.4199 H   0  0  0  0  0  0  0  0  0  0  0  0
   -1.9470   -1.6498    1.0370 H   0  0  0  0  0  0  0  0  0  0  0  0
   -2.0785   -0.2952    2.2831 H   0  0  0  0  0  0  0  0  0  0  0  0
  1  2  1  0
  2  3  1  0
  2  4  1  0
  4  5  2  0
  2  6  1  0
  6  7  1  0
  7  8  1  0
  8  9  1  0
  9  7  1  0
  1 10  1  0
  1 11  1  0
  1 12  1  0
  3 13  1  0
  4 14  1  0
  6 15  1  0
  6 16  1  0
  7 17  1  0
  8 18  1  0
  8 19  1  0
  9 20  1  0
  9 21  1  0
M  END
