
     RDKit          3D

 21 22  0  0  0  0  0  0  0  0999 V2000
    2.4761    0.8471    0.3313 C   0  0  0  0  0  0  0  0  0  0  0  0
    1.6185   -0.4026    0.3182 C   0  0  0  0  0  0  0  0  0  0  0  0
    2.2392   -1.3980   -0.4699 O   0  0  0  0  0  0  0  0  0  0  0  0
    0.2978   -0.0965   -0.4074 C   0  0  0  0  0  0  0  0  0  0  0  0
   -0.7607   -1.0520   -0.6091 C   0  0  0  0  0  0  0  0  0  0  0  0
   -2.2089   -0.9399   -0.1969 C   0  0  0  0  0  0  0  0  0  0  0  0
   -1.6326   -0.7824    1.0902 O   0  0  0  0  0  0  0  0  0  0  0  0
   -0.8210    0.1185    0.4426 C   0  0  0  0  0  0  0  0  0  0  0  0
   -1.6041    1.3614    0.0567 C   0  0  0  0  0  0  0  0  0  0  0  0
    3.0430    0.9144    1.2963 H   0  0  0  0  0  0  0  0  0  0  0  0
    3.1334    0.9342   -0.5363 H   0  0  0  0  0  0  0  0  0  0  0  0
    1.7778    1.7154    0.3059 H   0  0  0  0  0  0  0  0  0  0  0  0
    1.4415   -0.7769    1.3356 H   0  0  0  0  0  0  0  0  0  0  0  0
    1.6052   -2.1444   -0.5021 H   0  0  0  0  0  0  0  0  0  0  0  0
    0.5275    0.5418   -1.3123 H   0  0  0  0  0  0  0  0  0  0  0  0
   -0.4103   -2.0504   -0.1896 H   0  0  0  0  0  0  0  0  0  0  0  0
   -2.7742   -1.8823   -0.3236 H   0  0  0  0  0  0  0  0  0  0  0  0
   -2.8062   -0.1257   -0.5686 H   0  0  0  0  0  0  0  0  0  0  0  0
   -2.5270    1.5040    0.6091 H   0  0  0  0  0  0  0  0  0  0  0  0
   -1.6794    1.4939   -1.0459 H   0  0  0  0  0  0  0  0  0  0  0  0
   -0.9355    2.2203    0.3759 H   0  0  0  0  0  0  0  0  0  0  0  0
  1  2  1  0
  2  3  1  0
  2  4  1  0
  4  5  1  0
  5  6  1  0
  6  7  1  0
  7  8  1  0
  8  9  1  0
  8  4  1  0
  8  5  1  0
  1 10  1  0
  1 11  1  0
  1 12  1  0
  2 13  1  0
  3 14  1  0
  4 15  1  0
  5 16  1  0
  6 17  1  0
  6 18  1  0
  9 19  1  0
  9 20  1  0
  9 21  1  0
M  END
