
     RDKit          3D

 21 22  0  0  0  0  0  0  0  0999 V2000
    2.0659   -0.6532    0.8910 C   0  0  0  0  0  0  0  0  0  0  0  0
    1.5170    0.5932    0.2767 C   0  0  0  0  0  0  0  0  0  0  0  0
    2.3161    0.8844   -0.8486 O   0  0  0  0  0  0  0  0  0  0  0  0
    0.1065    0.4425   -0.2228 C   0  0  0  0  0  0  0  0  0  0  0  0
   -0.3696   -0.8749   -0.7655 C   0  0  0  0  0  0  0  0  0  0  0  0
   -1.8067   -1.0393   -0.3169 C   0  0  0  0  0  0  0  0  0  0  0  0
   -2.2680    0.3543   -0.0257 C   0  0  0  0  0  0  0  0  0  0  0  0
   -1.0082    1.1121    0.3138 C   0  0  0  0  0  0  0  0  0  0  0  0
   -0.3706    1.6174   -0.8494 O   0  0  0  0  0  0  0  0  0  0  0  0
    1.4402   -1.0668    1.6985 H   0  0  0  0  0  0  0  0  0  0  0  0
    3.0876   -0.4253    1.2591 H   0  0  0  0  0  0  0  0  0  0  0  0
    2.2107   -1.3949    0.0621 H   0  0  0  0  0  0  0  0  0  0  0  0
    1.5841    1.4786    0.9434 H   0  0  0  0  0  0  0  0  0  0  0  0
    2.5521    1.8385   -0.8986 H   0  0  0  0  0  0  0  0  0  0  0  0
    0.2183   -1.6730   -0.2763 H   0  0  0  0  0  0  0  0  0  0  0  0
   -0.2612   -0.9362   -1.8694 H   0  0  0  0  0  0  0  0  0  0  0  0
   -1.8636   -1.6119    0.6432 H   0  0  0  0  0  0  0  0  0  0  0  0
   -2.4190   -1.4988   -1.1066 H   0  0  0  0  0  0  0  0  0  0  0  0
   -2.7686    0.7789   -0.9261 H   0  0  0  0  0  0  0  0  0  0  0  0
   -3.0146    0.3690    0.7806 H   0  0  0  0  0  0  0  0  0  0  0  0
   -0.9484    1.7054    1.2374 H   0  0  0  0  0  0  0  0  0  0  0  0
  1  2  1  0
  2  3  1  0
  2  4  1  0
  4  5  1  0
  5  6  1  0
  6  7  1  0
  7  8  1  0
  8  9  1  0
  8  4  1  0
  9  4  1  0
  1 10  1  0
  1 11  1  0
  1 12  1  0
  2 13  1  0
  3 14  1  0
  5 15  1  0
  5 16  1  0
  6 17  1  0
  6 18  1  0
  7 19  1  0
  7 20  1  0
  8 21  1  0
M  END
