
     RDKit          3D

 20 20  0  0  0  0  0  0  0  0999 V2000
   -2.2686    0.4257    0.5679 C   0  0  0  0  0  0  0  0  0  0  0  0
   -1.2911   -0.6096    0.0354 C   0  0  0  0  0  0  0  0  0  0  0  0
   -1.5124   -0.7083   -1.3280 O   0  0  0  0  0  0  0  0  0  0  0  0
    0.0830   -0.1604    0.3884 C   0  0  0  0  0  0  0  0  0  0  0  0
    1.1778   -1.0788   -0.0684 C   0  0  0  0  0  0  0  0  0  0  0  0
    2.3561   -0.1829    0.1127 C   0  0  0  0  0  0  0  0  0  0  0  0
    1.9688    1.0733   -0.0513 C   0  0  0  0  0  0  0  0  0  0  0  0
    0.5119    1.0929   -0.3513 C   0  0  0  0  0  0  0  0  0  0  0  0
   -2.0773    1.3544    0.0066 H   0  0  0  0  0  0  0  0  0  0  0  0
   -3.3057    0.0796    0.5491 H   0  0  0  0  0  0  0  0  0  0  0  0
   -1.9538    0.6166    1.6266 H   0  0  0  0  0  0  0  0  0  0  0  0
   -1.5063   -1.5451    0.5462 H   0  0  0  0  0  0  0  0  0  0  0  0
   -0.9833   -1.4648   -1.6842 H   0  0  0  0  0  0  0  0  0  0  0  0
    0.1506    0.0223    1.4657 H   0  0  0  0  0  0  0  0  0  0  0  0
    1.2472   -2.0164    0.4687 H   0  0  0  0  0  0  0  0  0  0  0  0
    1.0842   -1.2227   -1.1854 H   0  0  0  0  0  0  0  0  0  0  0  0
    3.3459   -0.5477    0.3402 H   0  0  0  0  0  0  0  0  0  0  0  0
    2.5836    1.9536    0.0154 H   0  0  0  0  0  0  0  0  0  0  0  0
    0.3848    0.9233   -1.4579 H   0  0  0  0  0  0  0  0  0  0  0  0
    0.0046    1.9951    0.0034 H   0  0  0  0  0  0  0  0  0  0  0  0
  1  2  1  0
  2  3  1  0
  2  4  1  0
  4  5  1  0
  5  6  1  0
  6  7  2  0
  7  8  1  0
  8  4  1  0
  1  9  1  0
  1 10  1  0
  1 11  1  0
  2 12  1  0
  3 13  1  0
  4 14  1  0
  5 15  1  0
  5 16  1  0
  6 17  1  0
  7 18  1  0
  8 19  1  0
  8 20  1  0
M  END
