
     RDKit          3D

 19 19  0  0  0  0  0  0  0  0999 V2000
   -2.3270   -0.5477    0.5039 C   0  0  0  0  0  0  0  0  0  0  0  0
   -1.2595   -0.0903   -0.4237 C   0  0  0  0  0  0  0  0  0  0  0  0
   -1.6742    0.8695   -1.3288 O   0  0  0  0  0  0  0  0  0  0  0  0
   -0.0146    0.4028    0.2639 C   0  0  0  0  0  0  0  0  0  0  0  0
    1.1183    0.5420   -0.7310 C   0  0  0  0  0  0  0  0  0  0  0  0
    2.2248   -0.3647   -0.2462 C   0  0  0  0  0  0  0  0  0  0  0  0
    1.8796   -0.4686    1.2178 C   0  0  0  0  0  0  0  0  0  0  0  0
    2.6689   -0.5024    2.1973 O   0  0  0  0  0  0  0  0  0  0  0  0
    0.4828   -0.5170    1.2111 O   0  0  0  0  0  0  0  0  0  0  0  0
   -3.3025   -0.1100    0.1372 H   0  0  0  0  0  0  0  0  0  0  0  0
   -2.1552   -0.2967    1.5628 H   0  0  0  0  0  0  0  0  0  0  0  0
   -2.4902   -1.6532    0.4570 H   0  0  0  0  0  0  0  0  0  0  0  0
   -0.9449   -0.9818   -1.0410 H   0  0  0  0  0  0  0  0  0  0  0  0
   -1.7409    1.7784   -0.9122 H   0  0  0  0  0  0  0  0  0  0  0  0
   -0.1550    1.3863    0.7572 H   0  0  0  0  0  0  0  0  0  0  0  0
    1.5301    1.5710   -0.7527 H   0  0  0  0  0  0  0  0  0  0  0  0
    0.7957    0.3151   -1.7658 H   0  0  0  0  0  0  0  0  0  0  0  0
    2.1369   -1.3789   -0.7215 H   0  0  0  0  0  0  0  0  0  0  0  0
    3.2270    0.0462   -0.3853 H   0  0  0  0  0  0  0  0  0  0  0  0
  1  2  1  0
  2  3  1  0
  2  4  1  0
  4  5  1  0
  5  6  1  0
  6  7  1  0
  7  8  2  0
  7  9  1  0
  9  4  1  0
  1 10  1  0
  1 11  1  0
  1 12  1  0
  2 13  1  0
  3 14  1  0
  4 15  1  0
  5 16  1  0
  5 17  1  0
  6 18  1  0
  6 19  1  0
M  END
