
     RDKit          3D

 21 22  0  0  0  0  0  0  0  0999 V2000
    2.1443    0.2338   -0.5401 C   0  0  0  0  0  0  0  0  0  0  0  0
    0.9506    0.3611    0.3859 C   0  0  0  0  0  0  0  0  0  0  0  0
    1.1208   -0.2404    1.6151 O   0  0  0  0  0  0  0  0  0  0  0  0
   -0.3526    0.2491   -0.2775 C   0  0  0  0  0  0  0  0  0  0  0  0
   -0.5469   -1.0372   -1.0022 C   0  0  0  0  0  0  0  0  0  0  0  0
   -0.9839   -1.5563    0.3522 C   0  0  0  0  0  0  0  0  0  0  0  0
   -1.6567   -0.2616    0.3960 C   0  0  0  0  0  0  0  0  0  0  0  0
   -1.3163    1.1067    0.3759 C   0  0  0  0  0  0  0  0  0  0  0  0
   -1.8514    2.1028   -0.4811 O   0  0  0  0  0  0  0  0  0  0  0  0
    2.3991   -0.8207   -0.7578 H   0  0  0  0  0  0  0  0  0  0  0  0
    3.0294    0.6654   -0.0249 H   0  0  0  0  0  0  0  0  0  0  0  0
    1.9504    0.8514   -1.4153 H   0  0  0  0  0  0  0  0  0  0  0  0
    1.0442    1.4780    0.6700 H   0  0  0  0  0  0  0  0  0  0  0  0
    2.1112   -0.3836    1.7396 H   0  0  0  0  0  0  0  0  0  0  0  0
    0.3677   -1.5262   -1.3075 H   0  0  0  0  0  0  0  0  0  0  0  0
   -1.3536   -1.0843   -1.7522 H   0  0  0  0  0  0  0  0  0  0  0  0
   -1.6806   -2.4358    0.2118 H   0  0  0  0  0  0  0  0  0  0  0  0
   -0.2429   -1.8862    1.0531 H   0  0  0  0  0  0  0  0  0  0  0  0
   -2.5628   -0.3594   -0.3102 H   0  0  0  0  0  0  0  0  0  0  0  0
   -1.1761    1.5821    1.3944 H   0  0  0  0  0  0  0  0  0  0  0  0
   -1.3940    2.9611   -0.3252 H   0  0  0  0  0  0  0  0  0  0  0  0
  1  2  1  0
  2  3  1  0
  2  4  1  0
  4  5  1  0
  5  6  1  0
  6  7  1  0
  7  8  1  0
  8  9  1  0
  7  4  1  0
  8  4  1  0
  1 10  1  0
  1 11  1  0
  1 12  1  0
  2 13  1  0
  3 14  1  0
  5 15  1  0
  5 16  1  0
  6 17  1  0
  6 18  1  0
  7 19  1  0
  8 20  1  0
  9 21  1  0
M  END
