
     RDKit          3D

 21 21  0  0  0  0  0  0  0  0999 V2000
    2.4055    0.3170    0.9377 C   0  0  0  0  0  0  0  0  0  0  0  0
    1.5602    0.6636   -0.2594 C   0  0  0  0  0  0  0  0  0  0  0  0
    2.2831    0.7240   -1.4413 O   0  0  0  0  0  0  0  0  0  0  0  0
    0.3591   -0.2595   -0.3880 C   0  0  0  0  0  0  0  0  0  0  0  0
   -0.5266   -0.1273    0.8323 C   0  0  0  0  0  0  0  0  0  0  0  0
   -1.9331   -0.4417    0.3186 C   0  0  0  0  0  0  0  0  0  0  0  0
   -2.8028    0.5790    0.6945 O   0  0  0  0  0  0  0  0  0  0  0  0
   -1.7049   -0.4436   -1.1722 C   0  0  0  0  0  0  0  0  0  0  0  0
   -0.4865    0.2027   -1.3942 O   0  0  0  0  0  0  0  0  0  0  0  0
    2.5323    1.1884    1.6290 H   0  0  0  0  0  0  0  0  0  0  0  0
    3.4566    0.0491    0.6276 H   0  0  0  0  0  0  0  0  0  0  0  0
    1.9639   -0.4899    1.5636 H   0  0  0  0  0  0  0  0  0  0  0  0
    1.1316    1.6945   -0.0914 H   0  0  0  0  0  0  0  0  0  0  0  0
    1.9794    0.0608   -2.1090 H   0  0  0  0  0  0  0  0  0  0  0  0
    0.6626   -1.3096   -0.5543 H   0  0  0  0  0  0  0  0  0  0  0  0
   -0.5060    0.9613    1.1088 H   0  0  0  0  0  0  0  0  0  0  0  0
   -0.2358   -0.7858    1.6584 H   0  0  0  0  0  0  0  0  0  0  0  0
   -2.2841   -1.4205    0.7064 H   0  0  0  0  0  0  0  0  0  0  0  0
   -3.7271    0.2758    0.4563 H   0  0  0  0  0  0  0  0  0  0  0  0
   -2.5500    0.0627   -1.6406 H   0  0  0  0  0  0  0  0  0  0  0  0
   -1.5774   -1.5012   -1.4828 H   0  0  0  0  0  0  0  0  0  0  0  0
  1  2  1  0
  2  3  1  0
  2  4  1  0
  4  5  1  0
  5  6  1  0
  6  7  1  0
  6  8  1  0
  8  9  1  0
  9  4  1  0
  1 10  1  0
  1 11  1  0
  1 12  1  0
  2 13  1  0
  3 14  1  0
  4 15  1  0
  5 16  1  0
  5 17  1  0
  6 18  1  0
  7 19  1  0
  8 20  1  0
  8 21  1  0
M  END
