
     RDKit          3D

 21 21  0  0  0  0  0  0  0  0999 V2000
   -0.0016   -0.5170    2.0792 C   0  0  0  0  0  0  0  0  0  0  0  0
   -0.0698   -0.2510    0.5759 C   0  0  0  0  0  0  0  0  0  0  0  0
    1.0564    0.4367    0.1388 O   0  0  0  0  0  0  0  0  0  0  0  0
    1.8316   -0.3215   -0.7224 C   0  0  0  0  0  0  0  0  0  0  0  0
    2.9988    0.5141   -1.1193 C   0  0  0  0  0  0  0  0  0  0  0  0
    3.1691    1.6452   -0.7178 O   0  0  0  0  0  0  0  0  0  0  0  0
   -1.3461    0.4856    0.3161 C   0  0  0  0  0  0  0  0  0  0  0  0
   -1.7478    0.9107   -1.0367 C   0  0  0  0  0  0  0  0  0  0  0  0
   -2.3769   -0.3080   -0.4950 C   0  0  0  0  0  0  0  0  0  0  0  0
    0.5004   -1.4781    2.2976 H   0  0  0  0  0  0  0  0  0  0  0  0
   -1.0348   -0.5788    2.4990 H   0  0  0  0  0  0  0  0  0  0  0  0
    0.4982    0.3524    2.5554 H   0  0  0  0  0  0  0  0  0  0  0  0
   -0.0411   -1.2577    0.0987 H   0  0  0  0  0  0  0  0  0  0  0  0
    2.1575   -1.2483   -0.1899 H   0  0  0  0  0  0  0  0  0  0  0  0
    1.2874   -0.6193   -1.6411 H   0  0  0  0  0  0  0  0  0  0  0  0
    3.7527    0.1150   -1.8029 H   0  0  0  0  0  0  0  0  0  0  0  0
   -1.7382    1.1088    1.1668 H   0  0  0  0  0  0  0  0  0  0  0  0
   -2.3460    1.8564   -1.1370 H   0  0  0  0  0  0  0  0  0  0  0  0
   -1.0851    0.7505   -1.9222 H   0  0  0  0  0  0  0  0  0  0  0  0
   -3.3867   -0.3045   -0.0449 H   0  0  0  0  0  0  0  0  0  0  0  0
   -2.0777   -1.2912   -0.8982 H   0  0  0  0  0  0  0  0  0  0  0  0
  1  2  1  0
  2  3  1  0
  3  4  1  0
  4  5  1  0
  5  6  2  0
  2  7  1  0
  7  8  1  0
  8  9  1  0
  9  7  1  0
  1 10  1  0
  1 11  1  0
  1 12  1  0
  2 13  1  0
  4 14  1  0
  4 15  1  0
  5 16  1  0
  7 17  1  0
  8 18  1  0
  8 19  1  0
  9 20  1  0
  9 21  1  0
M  END
