
     RDKit          3D

 19 19  0  0  0  0  0  0  0  0999 V2000
    1.6898    0.7355   -0.3038 C   0  0  0  0  0  0  0  0  0  0  0  0
    1.0301   -0.6022   -0.2711 C   0  0  0  0  0  0  0  0  0  0  0  0
    1.4682   -1.2856    0.8655 O   0  0  0  0  0  0  0  0  0  0  0  0
   -0.4680   -0.5512   -0.2703 C   0  0  0  0  0  0  0  0  0  0  0  0
   -0.9938   -1.8382   -0.2800 O   0  0  0  0  0  0  0  0  0  0  0  0
   -0.9654    0.1876    0.9529 C   0  0  0  0  0  0  0  0  0  0  0  0
   -1.9965    0.7968    0.0108 C   0  0  0  0  0  0  0  0  0  0  0  0
   -1.1147    0.4300   -1.1216 C   0  0  0  0  0  0  0  0  0  0  0  0
   -1.0260    0.8259   -2.2578 O   0  0  0  0  0  0  0  0  0  0  0  0
    1.0088    1.5549   -0.0782 H   0  0  0  0  0  0  0  0  0  0  0  0
    2.1943    0.9272   -1.2797 H   0  0  0  0  0  0  0  0  0  0  0  0
    2.5224    0.7918    0.4566 H   0  0  0  0  0  0  0  0  0  0  0  0
    1.4269   -1.1883   -1.1424 H   0  0  0  0  0  0  0  0  0  0  0  0
    2.3799   -0.9744    1.0890 H   0  0  0  0  0  0  0  0  0  0  0  0
   -0.4676   -2.3900    0.3223 H   0  0  0  0  0  0  0  0  0  0  0  0
   -1.4017   -0.4677    1.7291 H   0  0  0  0  0  0  0  0  0  0  0  0
   -0.2705    0.9265    1.3827 H   0  0  0  0  0  0  0  0  0  0  0  0
   -2.9576    0.2395    0.0644 H   0  0  0  0  0  0  0  0  0  0  0  0
   -2.0587    1.8820    0.1317 H   0  0  0  0  0  0  0  0  0  0  0  0
  1  2  1  0
  2  3  1  0
  2  4  1  0
  4  5  1  0
  4  6  1  0
  6  7  1  0
  7  8  1  0
  8  9  2  0
  8  4  1  0
  1 10  1  0
  1 11  1  0
  1 12  1  0
  2 13  1  0
  3 14  1  0
  5 15  1  0
  6 16  1  0
  6 17  1  0
  7 18  1  0
  7 19  1  0
M  END
