
     RDKit          3D

 21 20  0  0  0  0  0  0  0  0999 V2000
   -1.0300    1.1717   -1.2539 C   0  0  0  0  0  0  0  0  0  0  0  0
   -0.7747   -0.1606   -0.6247 C   0  0  0  0  0  0  0  0  0  0  0  0
   -1.1197   -1.1396   -1.5675 O   0  0  0  0  0  0  0  0  0  0  0  0
   -1.6386   -0.3423    0.6270 C   0  0  0  0  0  0  0  0  0  0  0  0
   -1.4449   -1.5839    1.2028 O   0  0  0  0  0  0  0  0  0  0  0  0
    0.6548   -0.3966   -0.2690 C   0  0  0  0  0  0  0  0  0  0  0  0
    1.2158    0.6012    0.7248 C   0  0  0  0  0  0  0  0  0  0  0  0
    2.6222    0.2146    0.9398 C   0  0  0  0  0  0  0  0  0  0  0  0
    3.3633    0.1160   -0.0071 O   0  0  0  0  0  0  0  0  0  0  0  0
   -1.8494    1.1070   -1.9925 H   0  0  0  0  0  0  0  0  0  0  0  0
   -0.1183    1.4534   -1.8410 H   0  0  0  0  0  0  0  0  0  0  0  0
   -1.2677    1.9842   -0.5281 H   0  0  0  0  0  0  0  0  0  0  0  0
   -0.4490   -1.0545   -2.2932 H   0  0  0  0  0  0  0  0  0  0  0  0
   -1.3189    0.4581    1.3226 H   0  0  0  0  0  0  0  0  0  0  0  0
   -2.7269   -0.2524    0.3951 H   0  0  0  0  0  0  0  0  0  0  0  0
   -1.0279   -1.4707    2.0977 H   0  0  0  0  0  0  0  0  0  0  0  0
    0.7235   -1.3958    0.2622 H   0  0  0  0  0  0  0  0  0  0  0  0
    1.3228   -0.4622   -1.1427 H   0  0  0  0  0  0  0  0  0  0  0  0
    0.6795    0.5725    1.6904 H   0  0  0  0  0  0  0  0  0  0  0  0
    1.1989    1.6391    0.3280 H   0  0  0  0  0  0  0  0  0  0  0  0
    2.9852    0.0202    1.9295 H   0  0  0  0  0  0  0  0  0  0  0  0
  1  2  1  0
  2  3  1  0
  2  4  1  0
  4  5  1  0
  2  6  1  0
  6  7  1  0
  7  8  1  0
  8  9  2  0
  1 10  1  0
  1 11  1  0
  1 12  1  0
  3 13  1  0
  4 14  1  0
  4 15  1  0
  5 16  1  0
  6 17  1  0
  6 18  1  0
  7 19  1  0
  7 20  1  0
  8 21  1  0
M  END
