
     RDKit          3D

 19 22  0  0  0  0  0  0  0  0999 V2000
    2.1613    0.6398    0.4221 C   0  0  0  0  0  0  0  0  0  0  0  0
    1.3186   -0.2661   -0.4344 C   0  0  0  0  0  0  0  0  0  0  0  0
    1.6758   -1.5885   -0.0785 O   0  0  0  0  0  0  0  0  0  0  0  0
   -0.0969   -0.0913   -0.3299 C   0  0  0  0  0  0  0  0  0  0  0  0
   -0.9818   -0.2215    0.8399 C   0  0  0  0  0  0  0  0  0  0  0  0
   -1.9055    0.7339    0.2654 C   0  0  0  0  0  0  0  0  0  0  0  0
   -2.0650   -0.6563   -0.0409 C   0  0  0  0  0  0  0  0  0  0  0  0
   -1.1670   -0.5098   -1.2035 C   0  0  0  0  0  0  0  0  0  0  0  0
   -0.9848    0.8947   -0.8898 C   0  0  0  0  0  0  0  0  0  0  0  0
    1.5645    1.4770    0.8629 H   0  0  0  0  0  0  0  0  0  0  0  0
    2.9637    1.1244   -0.1721 H   0  0  0  0  0  0  0  0  0  0  0  0
    2.6929    0.0895    1.2407 H   0  0  0  0  0  0  0  0  0  0  0  0
    1.6566   -0.1562   -1.4873 H   0  0  0  0  0  0  0  0  0  0  0  0
    1.2957   -1.8001    0.8227 H   0  0  0  0  0  0  0  0  0  0  0  0
   -0.7608   -0.4823    1.8275 H   0  0  0  0  0  0  0  0  0  0  0  0
   -2.5259    1.4533    0.7034 H   0  0  0  0  0  0  0  0  0  0  0  0
   -2.8327   -1.3512    0.1225 H   0  0  0  0  0  0  0  0  0  0  0  0
   -1.1737   -1.0220   -2.1154 H   0  0  0  0  0  0  0  0  0  0  0  0
   -0.8349    1.7327   -1.4976 H   0  0  0  0  0  0  0  0  0  0  0  0
  1  2  1  0
  2  3  1  0
  2  4  1  0
  4  5  1  0
  5  6  1  0
  6  7  1  0
  7  8  1  0
  8  9  1  0
  8  4  1  0
  9  4  1  0
  7  5  1  0
  9  6  1  0
  1 10  1  0
  1 11  1  0
  1 12  1  0
  2 13  1  0
  3 14  1  0
  5 15  1  0
  6 16  1  0
  7 17  1  0
  8 18  1  0
  9 19  1  0
M  END
