
     RDKit          3D

 23 23  0  0  0  0  0  0  0  0999 V2000
    2.1879    0.8273   -0.2368 C   0  0  0  0  0  0  0  0  0  0  0  0
    1.9401   -0.0947    0.9389 C   0  0  0  0  0  0  0  0  0  0  0  0
    1.8819    0.7254    2.0655 O   0  0  0  0  0  0  0  0  0  0  0  0
    0.6389   -0.8099    0.8536 C   0  0  0  0  0  0  0  0  0  0  0  0
    0.2697   -1.7149   -0.2439 C   0  0  0  0  0  0  0  0  0  0  0  0
   -0.2423   -0.3046   -0.2987 C   0  0  0  0  0  0  0  0  0  0  0  0
   -1.6544    0.0124    0.0962 C   0  0  0  0  0  0  0  0  0  0  0  0
   -2.3999    0.4958   -1.1332 C   0  0  0  0  0  0  0  0  0  0  0  0
   -3.7230    0.8088   -0.8358 O   0  0  0  0  0  0  0  0  0  0  0  0
    2.2523    0.2775   -1.1773 H   0  0  0  0  0  0  0  0  0  0  0  0
    3.2000    1.2921   -0.0469 H   0  0  0  0  0  0  0  0  0  0  0  0
    1.4848    1.6867   -0.2538 H   0  0  0  0  0  0  0  0  0  0  0  0
    2.7852   -0.8099    0.9792 H   0  0  0  0  0  0  0  0  0  0  0  0
    2.6495    1.3589    2.0366 H   0  0  0  0  0  0  0  0  0  0  0  0
    0.1347   -0.9863    1.8370 H   0  0  0  0  0  0  0  0  0  0  0  0
   -0.5183   -2.4646   -0.0280 H   0  0  0  0  0  0  0  0  0  0  0  0
    1.0115   -2.0674   -0.9770 H   0  0  0  0  0  0  0  0  0  0  0  0
    0.2088    0.3221   -1.0728 H   0  0  0  0  0  0  0  0  0  0  0  0
   -2.1533   -0.8271    0.5850 H   0  0  0  0  0  0  0  0  0  0  0  0
   -1.6610    0.8635    0.8309 H   0  0  0  0  0  0  0  0  0  0  0  0
   -1.8890    1.4006   -1.5192 H   0  0  0  0  0  0  0  0  0  0  0  0
   -2.3509   -0.2634   -1.9415 H   0  0  0  0  0  0  0  0  0  0  0  0
   -4.0532    0.2715   -0.0790 H   0  0  0  0  0  0  0  0  0  0  0  0
  1  2  1  0
  2  3  1  0
  2  4  1  0
  4  5  1  0
  5  6  1  0
  6  7  1  0
  7  8  1  0
  8  9  1  0
  6  4  1  0
  1 10  1  0
  1 11  1  0
  1 12  1  0
  2 13  1  0
  3 14  1  0
  4 15  1  0
  5 16  1  0
  5 17  1  0
  6 18  1  0
  7 19  1  0
  7 20  1  0
  8 21  1  0
  8 22  1  0
  9 23  1  0
M  END
