
     RDKit          3D

 19 18  0  0  0  0  0  0  0  0999 V2000
   -1.2012    1.1781    0.4237 C   0  0  0  0  0  0  0  0  0  0  0  0
   -1.2188   -0.3254    0.3880 C   0  0  0  0  0  0  0  0  0  0  0  0
   -1.8585   -0.7941    1.5283 O   0  0  0  0  0  0  0  0  0  0  0  0
    0.1373   -0.9468    0.2889 C   0  0  0  0  0  0  0  0  0  0  0  0
   -0.0764   -2.3433    0.2195 O   0  0  0  0  0  0  0  0  0  0  0  0
    0.8437   -0.5808   -0.9800 C   0  0  0  0  0  0  0  0  0  0  0  0
    1.1478    0.7923   -1.0944 O   0  0  0  0  0  0  0  0  0  0  0  0
    1.9567    1.4737   -0.1992 C   0  0  0  0  0  0  0  0  0  0  0  0
    2.4357    0.8124    0.7600 O   0  0  0  0  0  0  0  0  0  0  0  0
   -2.2591    1.5015    0.6530 H   0  0  0  0  0  0  0  0  0  0  0  0
   -0.9456    1.6552   -0.5234 H   0  0  0  0  0  0  0  0  0  0  0  0
   -0.5667    1.5967    1.2201 H   0  0  0  0  0  0  0  0  0  0  0  0
   -1.8106   -0.6358   -0.4912 H   0  0  0  0  0  0  0  0  0  0  0  0
   -1.3406   -0.4458    2.3156 H   0  0  0  0  0  0  0  0  0  0  0  0
    0.7754   -0.7742    1.1574 H   0  0  0  0  0  0  0  0  0  0  0  0
   -0.3001   -2.6224   -0.7026 H   0  0  0  0  0  0  0  0  0  0  0  0
    0.2785   -0.9504   -1.8507 H   0  0  0  0  0  0  0  0  0  0  0  0
    1.8321   -1.1237   -1.0139 H   0  0  0  0  0  0  0  0  0  0  0  0
    2.1704    2.5327   -0.3168 H   0  0  0  0  0  0  0  0  0  0  0  0
  1  2  1  0
  2  3  1  0
  2  4  1  0
  4  5  1  0
  4  6  1  0
  6  7  1  0
  7  8  1  0
  8  9  2  0
  1 10  1  0
  1 11  1  0
  1 12  1  0
  2 13  1  0
  3 14  1  0
  4 15  1  0
  5 16  1  0
  6 17  1  0
  6 18  1  0
  8 19  1  0
M  END
