
     RDKit          3D

 19 19  0  0  0  0  0  0  0  0999 V2000
   -1.1916   -1.4148    0.5871 C   0  0  0  0  0  0  0  0  0  0  0  0
   -0.9770   -0.0198    0.0601 C   0  0  0  0  0  0  0  0  0  0  0  0
   -1.7190    0.9121    0.8574 O   0  0  0  0  0  0  0  0  0  0  0  0
   -2.7204    1.6742    0.2862 C   0  0  0  0  0  0  0  0  0  0  0  0
   -2.9437    1.5149   -0.9349 O   0  0  0  0  0  0  0  0  0  0  0  0
    0.4674    0.3873    0.0633 C   0  0  0  0  0  0  0  0  0  0  0  0
    1.0039    0.3877    1.4410 O   0  0  0  0  0  0  0  0  0  0  0  0
    1.5697   -0.4713    0.3546 C   0  0  0  0  0  0  0  0  0  0  0  0
    2.9550   -0.0279   -0.0112 C   0  0  0  0  0  0  0  0  0  0  0  0
   -2.2933   -1.4935    0.8167 H   0  0  0  0  0  0  0  0  0  0  0  0
   -0.9928   -2.1691   -0.2064 H   0  0  0  0  0  0  0  0  0  0  0  0
   -0.6379   -1.6438    1.4932 H   0  0  0  0  0  0  0  0  0  0  0  0
   -1.3238   -0.0134   -0.9937 H   0  0  0  0  0  0  0  0  0  0  0  0
   -3.2579    2.3635    0.9106 H   0  0  0  0  0  0  0  0  0  0  0  0
    0.6557    1.3575   -0.4435 H   0  0  0  0  0  0  0  0  0  0  0  0
    1.3749   -1.5522    0.5526 H   0  0  0  0  0  0  0  0  0  0  0  0
    3.5269    0.3328    0.8849 H   0  0  0  0  0  0  0  0  0  0  0  0
    3.5214   -0.9196   -0.3945 H   0  0  0  0  0  0  0  0  0  0  0  0
    2.9824    0.7953   -0.7472 H   0  0  0  0  0  0  0  0  0  0  0  0
  1  2  1  0
  2  3  1  0
  3  4  1  0
  4  5  2  0
  2  6  1  0
  6  7  1  0
  7  8  1  0
  8  9  1  0
  8  6  1  0
  1 10  1  0
  1 11  1  0
  1 12  1  0
  2 13  1  0
  4 14  1  0
  6 15  1  0
  8 16  1  0
  9 17  1  0
  9 18  1  0
  9 19  1  0
M  END
