
     RDKit          3D

 21 21  0  0  0  0  0  0  0  0999 V2000
    2.0511   -0.1627   -0.8281 C   0  0  0  0  0  0  0  0  0  0  0  0
    0.9694   -0.4687    0.1530 C   0  0  0  0  0  0  0  0  0  0  0  0
    1.4280    0.0159    1.4055 O   0  0  0  0  0  0  0  0  0  0  0  0
   -0.3338    0.2126   -0.0713 C   0  0  0  0  0  0  0  0  0  0  0  0
   -1.4157   -0.1489    0.9596 C   0  0  0  0  0  0  0  0  0  0  0  0
   -1.6158   -1.5999    0.8529 C   0  0  0  0  0  0  0  0  0  0  0  0
   -0.9112   -2.3565    1.4632 O   0  0  0  0  0  0  0  0  0  0  0  0
   -0.7672    0.7054   -1.3873 C   0  0  0  0  0  0  0  0  0  0  0  0
   -0.2385    1.7109   -0.4037 C   0  0  0  0  0  0  0  0  0  0  0  0
    2.0378    0.8624   -1.2157 H   0  0  0  0  0  0  0  0  0  0  0  0
    2.1231   -0.9241   -1.6460 H   0  0  0  0  0  0  0  0  0  0  0  0
    3.0386   -0.2622   -0.2854 H   0  0  0  0  0  0  0  0  0  0  0  0
    0.8827   -1.5722    0.2414 H   0  0  0  0  0  0  0  0  0  0  0  0
    0.8796   -0.3574    2.1252 H   0  0  0  0  0  0  0  0  0  0  0  0
   -2.3611    0.3725    0.7023 H   0  0  0  0  0  0  0  0  0  0  0  0
   -1.0851    0.1635    1.9831 H   0  0  0  0  0  0  0  0  0  0  0  0
   -2.3987   -1.9729    0.2225 H   0  0  0  0  0  0  0  0  0  0  0  0
   -0.1588    0.5604   -2.3024 H   0  0  0  0  0  0  0  0  0  0  0  0
   -1.8638    0.6677   -1.5658 H   0  0  0  0  0  0  0  0  0  0  0  0
    0.7353    2.1875   -0.5161 H   0  0  0  0  0  0  0  0  0  0  0  0
   -0.9962    2.3666    0.1132 H   0  0  0  0  0  0  0  0  0  0  0  0
  1  2  1  0
  2  3  1  0
  2  4  1  0
  4  5  1  0
  5  6  1  0
  6  7  2  0
  4  8  1  0
  8  9  1  0
  9  4  1  0
  1 10  1  0
  1 11  1  0
  1 12  1  0
  2 13  1  0
  3 14  1  0
  5 15  1  0
  5 16  1  0
  6 17  1  0
  8 18  1  0
  8 19  1  0
  9 20  1  0
  9 21  1  0
M  END
