
     RDKit          3D

 19 19  0  0  0  0  0  0  0  0999 V2000
   -1.9121    0.2192   -0.2490 C   0  0  0  0  0  0  0  0  0  0  0  0
   -0.7952   -0.6531    0.2721 C   0  0  0  0  0  0  0  0  0  0  0  0
   -0.7488   -1.8669   -0.3686 O   0  0  0  0  0  0  0  0  0  0  0  0
    0.5029    0.0873    0.1041 C   0  0  0  0  0  0  0  0  0  0  0  0
    0.5955    1.3946    0.8251 C   0  0  0  0  0  0  0  0  0  0  0  0
    1.7483   -0.7322    0.1609 C   0  0  0  0  0  0  0  0  0  0  0  0
    2.2335    0.1103   -0.8963 O   0  0  0  0  0  0  0  0  0  0  0  0
    0.9181    0.2349   -1.3050 C   0  0  0  0  0  0  0  0  0  0  0  0
    0.4003    0.4008   -2.4269 O   0  0  0  0  0  0  0  0  0  0  0  0
   -1.5337    1.1532   -0.7272 H   0  0  0  0  0  0  0  0  0  0  0  0
   -2.6210    0.5046    0.5277 H   0  0  0  0  0  0  0  0  0  0  0  0
   -2.4749   -0.3137   -1.0460 H   0  0  0  0  0  0  0  0  0  0  0  0
   -0.9215   -0.8625    1.3664 H   0  0  0  0  0  0  0  0  0  0  0  0
   -1.3843   -2.5179    0.0643 H   0  0  0  0  0  0  0  0  0  0  0  0
   -0.2248    2.0826    0.5329 H   0  0  0  0  0  0  0  0  0  0  0  0
    0.6525    1.2301    1.9188 H   0  0  0  0  0  0  0  0  0  0  0  0
    1.5364    1.8992    0.4583 H   0  0  0  0  0  0  0  0  0  0  0  0
    1.6283   -1.7555   -0.2453 H   0  0  0  0  0  0  0  0  0  0  0  0
    2.4005   -0.6150    1.0336 H   0  0  0  0  0  0  0  0  0  0  0  0
  1  2  1  0
  2  3  1  0
  2  4  1  0
  4  5  1  0
  4  6  1  0
  6  7  1  0
  7  8  1  0
  8  9  2  0
  8  4  1  0
  1 10  1  0
  1 11  1  0
  1 12  1  0
  2 13  1  0
  3 14  1  0
  5 15  1  0
  5 16  1  0
  5 17  1  0
  6 18  1  0
  6 19  1  0
M  END
