
     RDKit          3D

 15 14  0  0  0  0  0  0  0  0999 V2000
   -2.6457   -0.2000    1.1049 C   0  0  0  0  0  0  0  0  0  0  0  0
   -2.0121    0.5124   -0.0802 C   0  0  0  0  0  0  0  0  0  0  0  0
   -2.1849    1.8809    0.0354 O   0  0  0  0  0  0  0  0  0  0  0  0
   -0.5974    0.2010   -0.1751 C   0  0  0  0  0  0  0  0  0  0  0  0
    0.5901   -0.0437   -0.2680 C   0  0  0  0  0  0  0  0  0  0  0  0
    1.9895   -0.3563   -0.3702 C   0  0  0  0  0  0  0  0  0  0  0  0
    3.1900   -0.6124   -0.4666 C   0  0  0  0  0  0  0  0  0  0  0  0
    4.5822   -0.8854   -0.5701 C   0  0  0  0  0  0  0  0  0  0  0  0
    5.2890    0.0361   -1.0683 O   0  0  0  0  0  0  0  0  0  0  0  0
   -2.8668    0.4710    1.9439 H   0  0  0  0  0  0  0  0  0  0  0  0
   -2.0727   -1.0992    1.3618 H   0  0  0  0  0  0  0  0  0  0  0  0
   -3.6420   -0.5875    0.7359 H   0  0  0  0  0  0  0  0  0  0  0  0
   -2.5132    0.2240   -1.0324 H   0  0  0  0  0  0  0  0  0  0  0  0
   -2.1302    2.2551   -0.8924 H   0  0  0  0  0  0  0  0  0  0  0  0
    5.0244   -1.7960   -0.2587 H   0  0  0  0  0  0  0  0  0  0  0  0
  1  2  1  0
  2  3  1  0
  2  4  1  0
  4  5  3  0
  5  6  1  0
  6  7  3  0
  7  8  1  0
  8  9  2  0
  1 10  1  0
  1 11  1  0
  1 12  1  0
  2 13  1  0
  3 14  1  0
  8 15  1  0
M  END
