
     RDKit          3D

 21 22  0  0  0  0  0  0  0  0999 V2000
   -1.7467   -0.7243   -0.6914 C   0  0  0  0  0  0  0  0  0  0  0  0
   -1.7122    0.2495    0.4060 C   0  0  0  0  0  0  0  0  0  0  0  0
   -2.3591   -0.3318    1.5222 O   0  0  0  0  0  0  0  0  0  0  0  0
   -0.4337    0.8467    0.8141 C   0  0  0  0  0  0  0  0  0  0  0  0
    0.3593    1.6380   -0.1810 C   0  0  0  0  0  0  0  0  0  0  0  0
    0.9228    0.4462    0.5457 C   0  0  0  0  0  0  0  0  0  0  0  0
    1.3750   -0.7503   -0.2450 C   0  0  0  0  0  0  0  0  0  0  0  0
    2.8865   -0.9655   -0.3763 C   0  0  0  0  0  0  0  0  0  0  0  0
    2.0490   -1.7038    0.4551 O   0  0  0  0  0  0  0  0  0  0  0  0
   -1.2412   -1.6790   -0.4357 H   0  0  0  0  0  0  0  0  0  0  0  0
   -2.8128   -1.0451   -0.9003 H   0  0  0  0  0  0  0  0  0  0  0  0
   -1.3850   -0.3700   -1.6649 H   0  0  0  0  0  0  0  0  0  0  0  0
   -2.4024    1.1035    0.1247 H   0  0  0  0  0  0  0  0  0  0  0  0
   -3.1032   -0.8955    1.1860 H   0  0  0  0  0  0  0  0  0  0  0  0
   -0.5871    1.4445    1.7730 H   0  0  0  0  0  0  0  0  0  0  0  0
    0.7245    2.6582    0.0498 H   0  0  0  0  0  0  0  0  0  0  0  0
    0.0864    1.5013   -1.2427 H   0  0  0  0  0  0  0  0  0  0  0  0
    1.7144    0.7534    1.2967 H   0  0  0  0  0  0  0  0  0  0  0  0
    0.8872   -0.9465   -1.2269 H   0  0  0  0  0  0  0  0  0  0  0  0
    3.4832   -0.1460    0.0290 H   0  0  0  0  0  0  0  0  0  0  0  0
    3.2951   -1.5083   -1.2381 H   0  0  0  0  0  0  0  0  0  0  0  0
  1  2  1  0
  2  3  1  0
  2  4  1  0
  4  5  1  0
  5  6  1  0
  6  7  1  0
  7  8  1  0
  8  9  1  0
  6  4  1  0
  9  7  1  0
  1 10  1  0
  1 11  1  0
  1 12  1  0
  2 13  1  0
  3 14  1  0
  4 15  1  0
  5 16  1  0
  5 17  1  0
  6 18  1  0
  7 19  1  0
  8 20  1  0
  8 21  1  0
M  END
