
     RDKit          3D

 19 19  0  0  0  0  0  0  0  0999 V2000
    2.1283   -0.3494    0.4815 C   0  0  0  0  0  0  0  0  0  0  0  0
    1.1294    0.2026   -0.5446 C   0  0  0  0  0  0  0  0  0  0  0  0
    0.9556    1.5529   -0.2476 O   0  0  0  0  0  0  0  0  0  0  0  0
   -0.1665   -0.5770   -0.2823 C   0  0  0  0  0  0  0  0  0  0  0  0
   -1.3078   -0.2126   -1.1711 C   0  0  0  0  0  0  0  0  0  0  0  0
   -2.1337    0.0645    0.0846 C   0  0  0  0  0  0  0  0  0  0  0  0
   -0.8618    0.0510    0.9091 C   0  0  0  0  0  0  0  0  0  0  0  0
    1.5769   -0.4811    1.4177 H   0  0  0  0  0  0  0  0  0  0  0  0
    2.5697   -1.2707    0.0823 H   0  0  0  0  0  0  0  0  0  0  0  0
    2.8679    0.4646    0.6516 H   0  0  0  0  0  0  0  0  0  0  0  0
    1.5009    0.0272   -1.5658 H   0  0  0  0  0  0  0  0  0  0  0  0
    1.5229    1.8526    0.4885 H   0  0  0  0  0  0  0  0  0  0  0  0
   -0.0106   -1.6592   -0.2080 H   0  0  0  0  0  0  0  0  0  0  0  0
   -1.7903   -1.0718   -1.7103 H   0  0  0  0  0  0  0  0  0  0  0  0
   -1.1943    0.6952   -1.7793 H   0  0  0  0  0  0  0  0  0  0  0  0
   -2.7768   -0.7825    0.3999 H   0  0  0  0  0  0  0  0  0  0  0  0
   -2.6427    1.0441    0.0584 H   0  0  0  0  0  0  0  0  0  0  0  0
   -0.5108    1.0729    1.1701 H   0  0  0  0  0  0  0  0  0  0  0  0
   -0.8565   -0.6231    1.7653 H   0  0  0  0  0  0  0  0  0  0  0  0
  1  2  1  0
  2  3  1  0
  2  4  1  0
  4  5  1  0
  5  6  1  0
  6  7  1  0
  7  4  1  0
  1  8  1  0
  1  9  1  0
  1 10  1  0
  2 11  1  0
  3 12  1  0
  4 13  1  0
  5 14  1  0
  5 15  1  0
  6 16  1  0
  6 17  1  0
  7 18  1  0
  7 19  1  0
M  END
