
     RDKit          3D

 23 23  0  0  0  0  0  0  0  0999 V2000
   -2.6440   -0.4315   -0.4166 C   0  0  0  0  0  0  0  0  0  0  0  0
   -1.7626   -0.0183    0.7209 C   0  0  0  0  0  0  0  0  0  0  0  0
   -2.5118    0.7546    1.6072 O   0  0  0  0  0  0  0  0  0  0  0  0
   -0.5351    0.7394    0.2689 C   0  0  0  0  0  0  0  0  0  0  0  0
    0.3388   -0.0370   -0.6466 C   0  0  0  0  0  0  0  0  0  0  0  0
    1.5745    0.6926   -1.1167 C   0  0  0  0  0  0  0  0  0  0  0  0
    1.6402   -0.5962   -0.2630 C   0  0  0  0  0  0  0  0  0  0  0  0
    2.2125   -0.4164    1.1180 C   0  0  0  0  0  0  0  0  0  0  0  0
    2.1184   -1.7019   -0.9714 O   0  0  0  0  0  0  0  0  0  0  0  0
   -2.7471    0.3836   -1.1626 H   0  0  0  0  0  0  0  0  0  0  0  0
   -2.2884   -1.3774   -0.8811 H   0  0  0  0  0  0  0  0  0  0  0  0
   -3.6598   -0.6395    0.0209 H   0  0  0  0  0  0  0  0  0  0  0  0
   -1.4693   -0.9360    1.2950 H   0  0  0  0  0  0  0  0  0  0  0  0
   -2.5289    1.7097    1.3554 H   0  0  0  0  0  0  0  0  0  0  0  0
   -0.0243    1.1416    1.1443 H   0  0  0  0  0  0  0  0  0  0  0  0
   -0.9217    1.6339   -0.3023 H   0  0  0  0  0  0  0  0  0  0  0  0
   -0.1928   -0.5598   -1.4748 H   0  0  0  0  0  0  0  0  0  0  0  0
    1.8623    1.6395   -0.5915 H   0  0  0  0  0  0  0  0  0  0  0  0
    1.8984    0.6379   -2.1529 H   0  0  0  0  0  0  0  0  0  0  0  0
    3.2449   -0.8705    1.1099 H   0  0  0  0  0  0  0  0  0  0  0  0
    2.3744    0.6583    1.3424 H   0  0  0  0  0  0  0  0  0  0  0  0
    1.6444   -0.9437    1.8974 H   0  0  0  0  0  0  0  0  0  0  0  0
    2.3771   -1.4628   -1.9007 H   0  0  0  0  0  0  0  0  0  0  0  0
  1  2  1  0
  2  3  1  0
  2  4  1  0
  4  5  1  0
  5  6  1  0
  6  7  1  0
  7  8  1  0
  7  9  1  0
  7  5  1  0
  1 10  1  0
  1 11  1  0
  1 12  1  0
  2 13  1  0
  3 14  1  0
  4 15  1  0
  4 16  1  0
  5 17  1  0
  6 18  1  0
  6 19  1  0
  8 20  1  0
  8 21  1  0
  8 22  1  0
  9 23  1  0
M  END
