
     RDKit          3D

 19 18  0  0  0  0  0  0  0  0999 V2000
    2.4812   -0.3316    0.4442 C   0  0  0  0  0  0  0  0  0  0  0  0
    1.2436    0.4791    0.1137 C   0  0  0  0  0  0  0  0  0  0  0  0
    1.4372    1.1267   -1.0969 O   0  0  0  0  0  0  0  0  0  0  0  0
    0.0784   -0.4582    0.1056 C   0  0  0  0  0  0  0  0  0  0  0  0
   -1.2325    0.2140   -0.2113 C   0  0  0  0  0  0  0  0  0  0  0  0
   -2.3183   -0.8420   -0.1862 C   0  0  0  0  0  0  0  0  0  0  0  0
   -1.5537    1.2274    0.6572 O   0  0  0  0  0  0  0  0  0  0  0  0
    2.3297   -0.9908    1.3077 H   0  0  0  0  0  0  0  0  0  0  0  0
    3.3739    0.3149    0.5328 H   0  0  0  0  0  0  0  0  0  0  0  0
    2.6666   -0.9846   -0.4438 H   0  0  0  0  0  0  0  0  0  0  0  0
    1.1519    1.2468    0.9091 H   0  0  0  0  0  0  0  0  0  0  0  0
    1.2204    2.0971   -1.0123 H   0  0  0  0  0  0  0  0  0  0  0  0
    0.2446   -1.2417   -0.6553 H   0  0  0  0  0  0  0  0  0  0  0  0
    0.0382   -0.9570    1.0935 H   0  0  0  0  0  0  0  0  0  0  0  0
   -1.2178    0.6370   -1.2366 H   0  0  0  0  0  0  0  0  0  0  0  0
   -2.7812   -0.9104    0.8358 H   0  0  0  0  0  0  0  0  0  0  0  0
   -1.8640   -1.8085   -0.4042 H   0  0  0  0  0  0  0  0  0  0  0  0
   -3.0739   -0.6266   -0.9684 H   0  0  0  0  0  0  0  0  0  0  0  0
   -2.2243    1.8082    0.2154 H   0  0  0  0  0  0  0  0  0  0  0  0
  1  2  1  0
  2  3  1  0
  2  4  1  0
  4  5  1  0
  5  6  1  0
  5  7  1  0
  1  8  1  0
  1  9  1  0
  1 10  1  0
  2 11  1  0
  3 12  1  0
  4 13  1  0
  4 14  1  0
  5 15  1  0
  6 16  1  0
  6 17  1  0
  6 18  1  0
  7 19  1  0
M  END
