
     RDKit          3D

 23 23  0  0  0  0  0  0  0  0999 V2000
    2.0018    0.9796   -0.7444 C   0  0  0  0  0  0  0  0  0  0  0  0
    1.6794    0.0227    0.3597 C   0  0  0  0  0  0  0  0  0  0  0  0
    1.8988    0.6062    1.6291 O   0  0  0  0  0  0  0  0  0  0  0  0
    0.2704   -0.4960    0.2795 C   0  0  0  0  0  0  0  0  0  0  0  0
   -0.0414   -1.7801    0.1367 C   0  0  0  0  0  0  0  0  0  0  0  0
   -1.5156   -1.9694    0.0895 C   0  0  0  0  0  0  0  0  0  0  0  0
   -1.9201   -0.6018   -0.4889 C   0  0  0  0  0  0  0  0  0  0  0  0
   -0.9942    0.2578    0.3444 C   0  0  0  0  0  0  0  0  0  0  0  0
   -0.9336    1.6688   -0.1336 C   0  0  0  0  0  0  0  0  0  0  0  0
    2.8968    0.6354   -1.3087 H   0  0  0  0  0  0  0  0  0  0  0  0
    2.2790    1.9676   -0.2985 H   0  0  0  0  0  0  0  0  0  0  0  0
    1.2053    1.0742   -1.5109 H   0  0  0  0  0  0  0  0  0  0  0  0
    2.3884   -0.8279    0.3019 H   0  0  0  0  0  0  0  0  0  0  0  0
    2.8238    0.4180    1.9432 H   0  0  0  0  0  0  0  0  0  0  0  0
    0.6694   -2.5860    0.0637 H   0  0  0  0  0  0  0  0  0  0  0  0
   -1.8383   -2.7742   -0.5677 H   0  0  0  0  0  0  0  0  0  0  0  0
   -1.9449   -1.9929    1.1083 H   0  0  0  0  0  0  0  0  0  0  0  0
   -2.9867   -0.3885   -0.3050 H   0  0  0  0  0  0  0  0  0  0  0  0
   -1.6064   -0.5122   -1.5299 H   0  0  0  0  0  0  0  0  0  0  0  0
   -1.3602    0.1626    1.3911 H   0  0  0  0  0  0  0  0  0  0  0  0
   -0.0504    2.2212    0.1773 H   0  0  0  0  0  0  0  0  0  0  0  0
   -1.0786    1.7288   -1.2304 H   0  0  0  0  0  0  0  0  0  0  0  0
   -1.8427    2.1860    0.2936 H   0  0  0  0  0  0  0  0  0  0  0  0
  1  2  1  0
  2  3  1  0
  2  4  1  0
  4  5  2  0
  5  6  1  0
  6  7  1  0
  7  8  1  0
  8  9  1  0
  8  4  1  0
  1 10  1  0
  1 11  1  0
  1 12  1  0
  2 13  1  0
  3 14  1  0
  5 15  1  0
  6 16  1  0
  6 17  1  0
  7 18  1  0
  7 19  1  0
  8 20  1  0
  9 21  1  0
  9 22  1  0
  9 23  1  0
M  END
