
     RDKit          3D

 23 23  0  0  0  0  0  0  0  0999 V2000
   -2.5480   -0.5228    0.7551 C   0  0  0  0  0  0  0  0  0  0  0  0
   -1.6421    0.1319   -0.2821 C   0  0  0  0  0  0  0  0  0  0  0  0
   -2.3677    1.2422   -0.7722 O   0  0  0  0  0  0  0  0  0  0  0  0
   -0.3824    0.6252    0.3472 C   0  0  0  0  0  0  0  0  0  0  0  0
    0.5813    1.2891   -0.5955 C   0  0  0  0  0  0  0  0  0  0  0  0
    0.9419   -0.0033    0.1226 C   0  0  0  0  0  0  0  0  0  0  0  0
    1.1060   -1.2399   -0.6917 C   0  0  0  0  0  0  0  0  0  0  0  0
    1.9972    0.1913    1.1864 C   0  0  0  0  0  0  0  0  0  0  0  0
    3.1509   -0.4746    0.7777 O   0  0  0  0  0  0  0  0  0  0  0  0
   -3.0539    0.3044    1.2893 H   0  0  0  0  0  0  0  0  0  0  0  0
   -1.9382   -1.1334    1.4547 H   0  0  0  0  0  0  0  0  0  0  0  0
   -3.3037   -1.1442    0.2449 H   0  0  0  0  0  0  0  0  0  0  0  0
   -1.5115   -0.5786   -1.0943 H   0  0  0  0  0  0  0  0  0  0  0  0
   -2.6287    1.0975   -1.7203 H   0  0  0  0  0  0  0  0  0  0  0  0
   -0.5203    1.1768    1.3070 H   0  0  0  0  0  0  0  0  0  0  0  0
    1.0672    2.2318   -0.2950 H   0  0  0  0  0  0  0  0  0  0  0  0
    0.4482    1.1952   -1.6902 H   0  0  0  0  0  0  0  0  0  0  0  0
    1.6244   -2.0157   -0.0632 H   0  0  0  0  0  0  0  0  0  0  0  0
    1.7342   -1.0659   -1.6097 H   0  0  0  0  0  0  0  0  0  0  0  0
    0.1834   -1.7064   -1.0425 H   0  0  0  0  0  0  0  0  0  0  0  0
    2.2537    1.2525    1.3532 H   0  0  0  0  0  0  0  0  0  0  0  0
    1.6591   -0.3199    2.1190 H   0  0  0  0  0  0  0  0  0  0  0  0
    3.1493   -0.5333   -0.2011 H   0  0  0  0  0  0  0  0  0  0  0  0
  1  2  1  0
  2  3  1  0
  2  4  1  0
  4  5  1  0
  5  6  1  0
  6  7  1  0
  6  8  1  0
  8  9  1  0
  6  4  1  0
  1 10  1  0
  1 11  1  0
  1 12  1  0
  2 13  1  0
  3 14  1  0
  4 15  1  0
  5 16  1  0
  5 17  1  0
  7 18  1  0
  7 19  1  0
  7 20  1  0
  8 21  1  0
  8 22  1  0
  9 23  1  0
M  END
