
     RDKit          3D

 21 22  0  0  0  0  0  0  0  0999 V2000
    1.9619    0.7240    0.7006 C   0  0  0  0  0  0  0  0  0  0  0  0
    1.1718    0.1595   -0.4898 C   0  0  0  0  0  0  0  0  0  0  0  0
    1.9306   -0.9099   -0.9673 O   0  0  0  0  0  0  0  0  0  0  0  0
   -0.0957   -0.1915   -0.1308 C   0  0  0  0  0  0  0  0  0  0  0  0
   -1.1764   -0.7807   -1.0098 C   0  0  0  0  0  0  0  0  0  0  0  0
   -1.8457   -0.6105    0.3395 C   0  0  0  0  0  0  0  0  0  0  0  0
   -0.5569   -1.1599    0.8987 C   0  0  0  0  0  0  0  0  0  0  0  0
   -1.1844    0.7264    0.3834 C   0  0  0  0  0  0  0  0  0  0  0  0
   -1.6136    1.5546   -0.6442 O   0  0  0  0  0  0  0  0  0  0  0  0
    1.9248   -0.0663    1.4945 H   0  0  0  0  0  0  0  0  0  0  0  0
    3.0103    0.8936    0.4398 H   0  0  0  0  0  0  0  0  0  0  0  0
    1.4108    1.5993    1.0424 H   0  0  0  0  0  0  0  0  0  0  0  0
    1.2420    0.9501   -1.2687 H   0  0  0  0  0  0  0  0  0  0  0  0
    2.4594   -0.6826   -1.7696 H   0  0  0  0  0  0  0  0  0  0  0  0
   -1.4944   -0.0885   -1.7880 H   0  0  0  0  0  0  0  0  0  0  0  0
   -1.0107   -1.8290   -1.2775 H   0  0  0  0  0  0  0  0  0  0  0  0
   -2.7773   -0.8706    0.5831 H   0  0  0  0  0  0  0  0  0  0  0  0
   -0.4318   -2.2069    0.5974 H   0  0  0  0  0  0  0  0  0  0  0  0
   -0.3484   -0.9061    1.9515 H   0  0  0  0  0  0  0  0  0  0  0  0
   -1.0120    1.1875    1.3526 H   0  0  0  0  0  0  0  0  0  0  0  0
   -1.5642    2.5075   -0.4378 H   0  0  0  0  0  0  0  0  0  0  0  0
  1  2  1  0
  2  3  1  0
  2  4  1  0
  4  5  1  0
  5  6  1  0
  6  7  1  0
  6  8  1  0
  8  9  1  0
  7  4  1  0
  8  4  1  0
  1 10  1  0
  1 11  1  0
  1 12  1  0
  2 13  1  0
  3 14  1  0
  5 15  1  0
  5 16  1  0
  6 17  1  0
  7 18  1  0
  7 19  1  0
  8 20  1  0
  9 21  1  0
M  END
