
     RDKit          3D

 19 18  0  0  0  0  0  0  0  0999 V2000
    1.8991   -0.1035   -0.4899 C   0  0  0  0  0  0  0  0  0  0  0  0
    0.6651   -0.7730    0.0656 C   0  0  0  0  0  0  0  0  0  0  0  0
    0.3985   -1.9285   -0.6566 O   0  0  0  0  0  0  0  0  0  0  0  0
   -0.5405    0.1336   -0.0892 C   0  0  0  0  0  0  0  0  0  0  0  0
   -0.1734    1.4521    0.5858 C   0  0  0  0  0  0  0  0  0  0  0  0
   -1.7877   -0.4545    0.4749 C   0  0  0  0  0  0  0  0  0  0  0  0
   -0.7207    0.4214   -1.4418 O   0  0  0  0  0  0  0  0  0  0  0  0
    2.6648   -0.8558   -0.8289 H   0  0  0  0  0  0  0  0  0  0  0  0
    1.5814    0.4735   -1.3990 H   0  0  0  0  0  0  0  0  0  0  0  0
    2.3844    0.5672    0.2539 H   0  0  0  0  0  0  0  0  0  0  0  0
    0.8683   -1.0019    1.1209 H   0  0  0  0  0  0  0  0  0  0  0  0
    0.3173   -2.6737   -0.0139 H   0  0  0  0  0  0  0  0  0  0  0  0
    0.0522    1.2731    1.6504 H   0  0  0  0  0  0  0  0  0  0  0  0
   -0.9567    2.2188    0.4353 H   0  0  0  0  0  0  0  0  0  0  0  0
    0.7525    1.7956    0.0676 H   0  0  0  0  0  0  0  0  0  0  0  0
   -1.7684   -1.5791    0.4848 H   0  0  0  0  0  0  0  0  0  0  0  0
   -2.6538   -0.1846   -0.1608 H   0  0  0  0  0  0  0  0  0  0  0  0
   -2.0291   -0.1333    1.4996 H   0  0  0  0  0  0  0  0  0  0  0  0
   -0.9533    1.3527   -1.5588 H   0  0  0  0  0  0  0  0  0  0  0  0
  1  2  1  0
  2  3  1  0
  2  4  1  0
  4  5  1  0
  4  6  1  0
  4  7  1  0
  1  8  1  0
  1  9  1  0
  1 10  1  0
  2 11  1  0
  3 12  1  0
  5 13  1  0
  5 14  1  0
  5 15  1  0
  6 16  1  0
  6 17  1  0
  6 18  1  0
  7 19  1  0
M  END
