
     RDKit          3D

 21 21  0  0  0  0  0  0  0  0999 V2000
   -2.6884   -0.1387    0.3491 C   0  0  0  0  0  0  0  0  0  0  0  0
   -1.9783   -0.4637   -0.9312 C   0  0  0  0  0  0  0  0  0  0  0  0
   -1.7656   -1.8015   -1.1356 O   0  0  0  0  0  0  0  0  0  0  0  0
   -0.7138    0.3613   -0.9852 C   0  0  0  0  0  0  0  0  0  0  0  0
    0.2099   -0.0238   -0.0280 O   0  0  0  0  0  0  0  0  0  0  0  0
    1.3280    0.7864   -0.1573 C   0  0  0  0  0  0  0  0  0  0  0  0
    2.2863    0.9673    0.9545 C   0  0  0  0  0  0  0  0  0  0  0  0
    2.6257   -0.0214   -0.1340 C   0  0  0  0  0  0  0  0  0  0  0  0
    2.5896   -1.3399    0.2658 O   0  0  0  0  0  0  0  0  0  0  0  0
   -1.9898    0.2645    1.1178 H   0  0  0  0  0  0  0  0  0  0  0  0
   -3.1987   -1.0418    0.7900 H   0  0  0  0  0  0  0  0  0  0  0  0
   -3.4454    0.6786    0.1682 H   0  0  0  0  0  0  0  0  0  0  0  0
   -2.6187   -0.0967   -1.7834 H   0  0  0  0  0  0  0  0  0  0  0  0
   -1.9380   -2.3853   -0.3774 H   0  0  0  0  0  0  0  0  0  0  0  0
   -1.0346    1.4234   -0.7715 H   0  0  0  0  0  0  0  0  0  0  0  0
   -0.2461    0.3809   -1.9745 H   0  0  0  0  0  0  0  0  0  0  0  0
    1.2746    1.5366   -0.9471 H   0  0  0  0  0  0  0  0  0  0  0  0
    2.0769    0.6281    1.9753 H   0  0  0  0  0  0  0  0  0  0  0  0
    2.8651    1.9333    0.9286 H   0  0  0  0  0  0  0  0  0  0  0  0
    3.3974    0.2434   -0.8788 H   0  0  0  0  0  0  0  0  0  0  0  0
    2.9638   -1.8908   -0.4631 H   0  0  0  0  0  0  0  0  0  0  0  0
  1  2  1  0
  2  3  1  0
  2  4  1  0
  4  5  1  0
  5  6  1  0
  6  7  1  0
  7  8  1  0
  8  9  1  0
  8  6  1  0
  1 10  1  0
  1 11  1  0
  1 12  1  0
  2 13  1  0
  3 14  1  0
  4 15  1  0
  4 16  1  0
  6 17  1  0
  7 18  1  0
  7 19  1  0
  8 20  1  0
  9 21  1  0
M  END
