
     RDKit          3D

 25 24  0  0  0  0  0  0  0  0999 V2000
   -1.7409   -1.2542   -0.4384 C   0  0  0  0  0  0  0  0  0  0  0  0
   -1.0459   -0.6139    0.7688 C   0  0  0  0  0  0  0  0  0  0  0  0
   -2.0629    0.0284    1.4776 O   0  0  0  0  0  0  0  0  0  0  0  0
   -0.0396    0.3891    0.2728 C   0  0  0  0  0  0  0  0  0  0  0  0
   -0.6970    1.4801   -0.5454 C   0  0  0  0  0  0  0  0  0  0  0  0
    0.5626    1.0595    1.4933 C   0  0  0  0  0  0  0  0  0  0  0  0
    1.0609   -0.1979   -0.5387 C   0  0  0  0  0  0  0  0  0  0  0  0
    1.8965   -1.2231    0.1712 C   0  0  0  0  0  0  0  0  0  0  0  0
    1.9255    0.8085   -0.9707 O   0  0  0  0  0  0  0  0  0  0  0  0
   -2.4002   -0.5002   -0.8928 H   0  0  0  0  0  0  0  0  0  0  0  0
   -2.4109   -2.0502   -0.0347 H   0  0  0  0  0  0  0  0  0  0  0  0
   -1.0389   -1.7332   -1.1194 H   0  0  0  0  0  0  0  0  0  0  0  0
   -0.6129   -1.3627    1.4429 H   0  0  0  0  0  0  0  0  0  0  0  0
   -2.7547    0.3948    0.8835 H   0  0  0  0  0  0  0  0  0  0  0  0
   -0.8837    1.1199   -1.5907 H   0  0  0  0  0  0  0  0  0  0  0  0
    0.0898    2.2800   -0.6666 H   0  0  0  0  0  0  0  0  0  0  0  0
   -1.5825    1.9039   -0.0723 H   0  0  0  0  0  0  0  0  0  0  0  0
    0.9678    0.2585    2.1462 H   0  0  0  0  0  0  0  0  0  0  0  0
   -0.2743    1.5841    2.0033 H   0  0  0  0  0  0  0  0  0  0  0  0
    1.3423    1.7719    1.1495 H   0  0  0  0  0  0  0  0  0  0  0  0
    0.6750   -0.6843   -1.4692 H   0  0  0  0  0  0  0  0  0  0  0  0
    2.3576   -0.7567    1.0494 H   0  0  0  0  0  0  0  0  0  0  0  0
    1.3535   -2.1618    0.3949 H   0  0  0  0  0  0  0  0  0  0  0  0
    2.7244   -1.5023   -0.5154 H   0  0  0  0  0  0  0  0  0  0  0  0
    2.5884    0.9616   -0.2536 H   0  0  0  0  0  0  0  0  0  0  0  0
  1  2  1  0
  2  3  1  0
  2  4  1  0
  4  5  1  0
  4  6  1  0
  4  7  1  0
  7  8  1  0
  7  9  1  0
  1 10  1  0
  1 11  1  0
  1 12  1  0
  2 13  1  0
  3 14  1  0
  5 15  1  0
  5 16  1  0
  5 17  1  0
  6 18  1  0
  6 19  1  0
  6 20  1  0
  7 21  1  0
  8 22  1  0
  8 23  1  0
  8 24  1  0
  9 25  1  0
M  END
