
     RDKit          3D

 23 23  0  0  0  0  0  0  0  0999 V2000
    3.0175   -0.0906   -0.0050 C   0  0  0  0  0  0  0  0  0  0  0  0
    1.6441   -0.7667   -0.0420 C   0  0  0  0  0  0  0  0  0  0  0  0
    1.2943   -0.8847   -1.3715 O   0  0  0  0  0  0  0  0  0  0  0  0
    0.6949    0.1690    0.6745 C   0  0  0  0  0  0  0  0  0  0  0  0
   -0.7084   -0.3340    0.7361 C   0  0  0  0  0  0  0  0  0  0  0  0
   -1.3799   -0.5753   -0.5986 C   0  0  0  0  0  0  0  0  0  0  0  0
   -2.5811    0.1737   -0.0604 C   0  0  0  0  0  0  0  0  0  0  0  0
   -3.1260    1.0274   -1.0045 O   0  0  0  0  0  0  0  0  0  0  0  0
   -1.6761    0.8281    0.9602 C   0  0  0  0  0  0  0  0  0  0  0  0
    3.7715   -0.7003   -0.5533 H   0  0  0  0  0  0  0  0  0  0  0  0
    3.3203    0.0645    1.0632 H   0  0  0  0  0  0  0  0  0  0  0  0
    2.9711    0.9084   -0.4846 H   0  0  0  0  0  0  0  0  0  0  0  0
    1.7531   -1.7262    0.4631 H   0  0  0  0  0  0  0  0  0  0  0  0
    2.0942   -0.9312   -1.9773 H   0  0  0  0  0  0  0  0  0  0  0  0
    1.0343    0.3251    1.7264 H   0  0  0  0  0  0  0  0  0  0  0  0
    0.6819    1.1705    0.2121 H   0  0  0  0  0  0  0  0  0  0  0  0
   -0.9197   -1.1072    1.5000 H   0  0  0  0  0  0  0  0  0  0  0  0
   -0.8967   -0.0799   -1.4472 H   0  0  0  0  0  0  0  0  0  0  0  0
   -1.6480   -1.6415   -0.7862 H   0  0  0  0  0  0  0  0  0  0  0  0
   -3.3363   -0.4531    0.4561 H   0  0  0  0  0  0  0  0  0  0  0  0
   -2.6693    1.9091   -1.0201 H   0  0  0  0  0  0  0  0  0  0  0  0
   -1.2582    1.8199    0.6451 H   0  0  0  0  0  0  0  0  0  0  0  0
   -2.0777    0.8950    1.9843 H   0  0  0  0  0  0  0  0  0  0  0  0
  1  2  1  0
  2  3  1  0
  2  4  1  0
  4  5  1  0
  5  6  1  0
  6  7  1  0
  7  8  1  0
  7  9  1  0
  9  5  1  0
  1 10  1  0
  1 11  1  0
  1 12  1  0
  2 13  1  0
  3 14  1  0
  4 15  1  0
  4 16  1  0
  5 17  1  0
  6 18  1  0
  6 19  1  0
  7 20  1  0
  8 21  1  0
  9 22  1  0
  9 23  1  0
M  END
