
     RDKit          3D

 21 20  0  0  0  0  0  0  0  0999 V2000
   -1.9305   -0.2164   -1.0132 C   0  0  0  0  0  0  0  0  0  0  0  0
   -1.4747    0.4316    0.2543 C   0  0  0  0  0  0  0  0  0  0  0  0
   -1.6706    1.8067    0.1337 O   0  0  0  0  0  0  0  0  0  0  0  0
   -0.0160    0.1209    0.5773 C   0  0  0  0  0  0  0  0  0  0  0  0
    0.2220   -1.3304    0.7387 C   0  0  0  0  0  0  0  0  0  0  0  0
    0.8835    0.8999   -0.3197 C   0  0  0  0  0  0  0  0  0  0  0  0
    2.2395    0.7758   -0.2006 O   0  0  0  0  0  0  0  0  0  0  0  0
    3.0248   -0.2957   -0.4819 C   0  0  0  0  0  0  0  0  0  0  0  0
    2.5356   -1.3403   -0.9236 O   0  0  0  0  0  0  0  0  0  0  0  0
   -2.7398    0.4088   -1.4458 H   0  0  0  0  0  0  0  0  0  0  0  0
   -2.4082   -1.2208   -0.8340 H   0  0  0  0  0  0  0  0  0  0  0  0
   -1.1440   -0.2795   -1.7955 H   0  0  0  0  0  0  0  0  0  0  0  0
   -2.1363    0.0851    1.0730 H   0  0  0  0  0  0  0  0  0  0  0  0
   -1.4522    2.2986    0.9572 H   0  0  0  0  0  0  0  0  0  0  0  0
    0.1318    0.5778    1.6112 H   0  0  0  0  0  0  0  0  0  0  0  0
    0.0737   -1.9424   -0.1778 H   0  0  0  0  0  0  0  0  0  0  0  0
    1.1375   -1.5872    1.3106 H   0  0  0  0  0  0  0  0  0  0  0  0
   -0.5984   -1.7669    1.4258 H   0  0  0  0  0  0  0  0  0  0  0  0
    0.6612    2.0040   -0.0942 H   0  0  0  0  0  0  0  0  0  0  0  0
    0.5290    0.8393   -1.3965 H   0  0  0  0  0  0  0  0  0  0  0  0
    4.1322   -0.2688   -0.3245 H   0  0  0  0  0  0  0  0  0  0  0  0
  1  2  1  0
  2  3  1  0
  2  4  1  0
  4  5  1  0
  4  6  1  0
  6  7  1  0
  7  8  1  0
  8  9  2  0
  1 10  1  0
  1 11  1  0
  1 12  1  0
  2 13  1  0
  3 14  1  0
  4 15  1  0
  5 16  1  0
  5 17  1  0
  5 18  1  0
  6 19  1  0
  6 20  1  0
  8 21  1  0
M  END
