
     RDKit          3D

 21 22  0  0  0  0  0  0  0  0999 V2000
    2.6488    0.2157   -0.4584 C   0  0  0  0  0  0  0  0  0  0  0  0
    1.5947   -0.3973    0.4237 C   0  0  0  0  0  0  0  0  0  0  0  0
    1.6552   -1.8044    0.3718 O   0  0  0  0  0  0  0  0  0  0  0  0
    0.2176    0.0101    0.0468 C   0  0  0  0  0  0  0  0  0  0  0  0
   -0.2196    0.8153   -0.9284 C   0  0  0  0  0  0  0  0  0  0  0  0
   -1.6897    0.7738   -0.7438 C   0  0  0  0  0  0  0  0  0  0  0  0
   -1.9481   -0.7076   -0.4508 C   0  0  0  0  0  0  0  0  0  0  0  0
   -1.0130   -0.4195    0.7146 C   0  0  0  0  0  0  0  0  0  0  0  0
   -1.7736    0.9166    0.7812 C   0  0  0  0  0  0  0  0  0  0  0  0
    2.2662    1.0156   -1.1156 H   0  0  0  0  0  0  0  0  0  0  0  0
    3.0043   -0.5951   -1.1488 H   0  0  0  0  0  0  0  0  0  0  0  0
    3.4961    0.5662    0.1708 H   0  0  0  0  0  0  0  0  0  0  0  0
    1.8046   -0.1401    1.5027 H   0  0  0  0  0  0  0  0  0  0  0  0
    1.4454   -2.1917    1.2589 H   0  0  0  0  0  0  0  0  0  0  0  0
    0.3381    1.3686   -1.6758 H   0  0  0  0  0  0  0  0  0  0  0  0
   -2.3485    1.3077   -1.3497 H   0  0  0  0  0  0  0  0  0  0  0  0
   -1.5690   -1.3928   -1.2083 H   0  0  0  0  0  0  0  0  0  0  0  0
   -2.9922   -0.8230   -0.1248 H   0  0  0  0  0  0  0  0  0  0  0  0
   -1.0212   -1.0409    1.5581 H   0  0  0  0  0  0  0  0  0  0  0  0
   -2.7683    0.8031    1.2036 H   0  0  0  0  0  0  0  0  0  0  0  0
   -1.1278    1.7195    1.1722 H   0  0  0  0  0  0  0  0  0  0  0  0
  1  2  1  0
  2  3  1  0
  2  4  1  0
  4  5  2  0
  5  6  1  0
  6  7  1  0
  7  8  1  0
  8  9  1  0
  8  4  1  0
  9  6  1  0
  1 10  1  0
  1 11  1  0
  1 12  1  0
  2 13  1  0
  3 14  1  0
  5 15  1  0
  6 16  1  0
  7 17  1  0
  7 18  1  0
  8 19  1  0
  9 20  1  0
  9 21  1  0
M  END
