
     RDKit          3D

 17 18  0  0  0  0  0  0  0  0999 V2000
    1.5884   -0.8619   -0.4839 C   0  0  0  0  0  0  0  0  0  0  0  0
    0.9639    0.4780   -0.1793 C   0  0  0  0  0  0  0  0  0  0  0  0
    1.5490    0.8308    1.0601 O   0  0  0  0  0  0  0  0  0  0  0  0
   -0.4590    0.5967   -0.2274 C   0  0  0  0  0  0  0  0  0  0  0  0
   -1.2546   -0.6613   -0.2606 C   0  0  0  0  0  0  0  0  0  0  0  0
   -1.7630   -0.1924    1.0485 C   0  0  0  0  0  0  0  0  0  0  0  0
   -2.0760   -0.5081    2.1400 O   0  0  0  0  0  0  0  0  0  0  0  0
   -1.6825    1.0367    0.2252 C   0  0  0  0  0  0  0  0  0  0  0  0
   -0.7923    1.8741    0.0214 O   0  0  0  0  0  0  0  0  0  0  0  0
    2.6704   -0.7351   -0.7036 H   0  0  0  0  0  0  0  0  0  0  0  0
    1.1496   -1.3928   -1.3307 H   0  0  0  0  0  0  0  0  0  0  0  0
    1.5450   -1.5573    0.3879 H   0  0  0  0  0  0  0  0  0  0  0  0
    1.4325    1.2053   -0.8813 H   0  0  0  0  0  0  0  0  0  0  0  0
    2.5117    1.0418    0.9543 H   0  0  0  0  0  0  0  0  0  0  0  0
   -2.0986   -0.6308   -1.0046 H   0  0  0  0  0  0  0  0  0  0  0  0
   -0.7025   -1.5656   -0.2890 H   0  0  0  0  0  0  0  0  0  0  0  0
   -2.5819    1.0417   -0.4773 H   0  0  0  0  0  0  0  0  0  0  0  0
  1  2  1  0
  2  3  1  0
  2  4  1  0
  4  5  1  0
  5  6  1  0
  6  7  2  0
  6  8  1  0
  8  9  1  0
  8  4  1  0
  9  4  1  0
  1 10  1  0
  1 11  1  0
  1 12  1  0
  2 13  1  0
  3 14  1  0
  5 15  1  0
  5 16  1  0
  8 17  1  0
M  END
