
     RDKit          3D

 20 19  0  0  0  0  0  0  0  0999 V2000
   -2.7736   -0.7605   -0.3695 C   0  0  0  0  0  0  0  0  0  0  0  0
   -1.7919    0.4078   -0.2166 C   0  0  0  0  0  0  0  0  0  0  0  0
   -1.7606    0.7435    1.1294 O   0  0  0  0  0  0  0  0  0  0  0  0
   -0.4230   -0.0312   -0.7119 C   0  0  0  0  0  0  0  0  0  0  0  0
    0.4465    1.0064   -0.5270 O   0  0  0  0  0  0  0  0  0  0  0  0
    1.7332    0.7814   -0.9214 C   0  0  0  0  0  0  0  0  0  0  0  0
    2.4155   -0.3620   -0.2234 C   0  0  0  0  0  0  0  0  0  0  0  0
    2.4654   -0.1357    1.1513 O   0  0  0  0  0  0  0  0  0  0  0  0
   -2.5571   -1.2832   -1.3074 H   0  0  0  0  0  0  0  0  0  0  0  0
   -2.4917   -1.4741    0.4535 H   0  0  0  0  0  0  0  0  0  0  0  0
   -3.8123   -0.4003   -0.2737 H   0  0  0  0  0  0  0  0  0  0  0  0
   -2.1885    1.2695   -0.7717 H   0  0  0  0  0  0  0  0  0  0  0  0
   -1.2921    1.5904    1.3024 H   0  0  0  0  0  0  0  0  0  0  0  0
   -0.1376   -0.9062   -0.0712 H   0  0  0  0  0  0  0  0  0  0  0  0
   -0.5527   -0.3136   -1.7748 H   0  0  0  0  0  0  0  0  0  0  0  0
    1.7841    0.6734   -2.0204 H   0  0  0  0  0  0  0  0  0  0  0  0
    2.3250    1.7015   -0.6762 H   0  0  0  0  0  0  0  0  0  0  0  0
    1.9821   -1.3469   -0.4693 H   0  0  0  0  0  0  0  0  0  0  0  0
    3.4664   -0.3861   -0.5826 H   0  0  0  0  0  0  0  0  0  0  0  0
    3.1629   -0.7742    1.5065 H   0  0  0  0  0  0  0  0  0  0  0  0
  1  2  1  0
  2  3  1  0
  2  4  1  0
  4  5  1  0
  5  6  1  0
  6  7  1  0
  7  8  1  0
  1  9  1  0
  1 10  1  0
  1 11  1  0
  2 12  1  0
  3 13  1  0
  4 14  1  0
  4 15  1  0
  6 16  1  0
  6 17  1  0
  7 18  1  0
  7 19  1  0
  8 20  1  0
M  END
