
     RDKit          3D

 22 22  0  0  0  0  0  0  0  0999 V2000
    2.2543   -0.7953   -0.0612 C   0  0  0  0  0  0  0  0  0  0  0  0
    1.2082   -0.1063    0.7858 C   0  0  0  0  0  0  0  0  0  0  0  0
    1.8427    0.7490    1.6947 O   0  0  0  0  0  0  0  0  0  0  0  0
    0.2269    0.6031   -0.0817 C   0  0  0  0  0  0  0  0  0  0  0  0
   -0.5488   -0.1764   -1.0448 C   0  0  0  0  0  0  0  0  0  0  0  0
   -0.5693   -1.6782   -1.0741 C   0  0  0  0  0  0  0  0  0  0  0  0
   -1.2390    0.4961    0.1128 C   0  0  0  0  0  0  0  0  0  0  0  0
   -2.1176    1.6956   -0.2109 C   0  0  0  0  0  0  0  0  0  0  0  0
    2.2146   -0.3263   -1.0629 H   0  0  0  0  0  0  0  0  0  0  0  0
    1.9753   -1.8629   -0.1908 H   0  0  0  0  0  0  0  0  0  0  0  0
    3.2753   -0.6969    0.3919 H   0  0  0  0  0  0  0  0  0  0  0  0
    0.6929   -0.9007    1.3906 H   0  0  0  0  0  0  0  0  0  0  0  0
    1.1861    1.4155    2.0075 H   0  0  0  0  0  0  0  0  0  0  0  0
    0.5632    1.6348   -0.3986 H   0  0  0  0  0  0  0  0  0  0  0  0
   -0.6729    0.2727   -2.0662 H   0  0  0  0  0  0  0  0  0  0  0  0
   -0.4060   -2.1053   -0.0519 H   0  0  0  0  0  0  0  0  0  0  0  0
    0.1850   -2.0991   -1.7676 H   0  0  0  0  0  0  0  0  0  0  0  0
   -1.5888   -2.0132   -1.3813 H   0  0  0  0  0  0  0  0  0  0  0  0
   -1.6737   -0.1763    0.8694 H   0  0  0  0  0  0  0  0  0  0  0  0
   -2.8245    1.9254    0.5952 H   0  0  0  0  0  0  0  0  0  0  0  0
   -2.5702    1.5704   -1.1992 H   0  0  0  0  0  0  0  0  0  0  0  0
   -1.4137    2.5743   -0.2617 H   0  0  0  0  0  0  0  0  0  0  0  0
  1  2  1  0
  2  3  1  0
  2  4  1  0
  4  5  1  0
  5  6  1  0
  5  7  1  0
  7  8  1  0
  7  4  1  0
  1  9  1  0
  1 10  1  0
  1 11  1  0
  2 12  1  0
  3 13  1  0
  4 14  1  0
  5 15  1  0
  6 16  1  0
  6 17  1  0
  6 18  1  0
  7 19  1  0
  8 20  1  0
  8 21  1  0
  8 22  1  0
M  END
