
     RDKit          3D

 19 20  0  0  0  0  0  0  0  0999 V2000
    1.9274   -0.7531   -0.3022 C   0  0  0  0  0  0  0  0  0  0  0  0
    0.9695    0.4426   -0.3932 C   0  0  0  0  0  0  0  0  0  0  0  0
    0.9319    0.8887   -1.7198 O   0  0  0  0  0  0  0  0  0  0  0  0
   -0.3534   -0.0213    0.0807 C   0  0  0  0  0  0  0  0  0  0  0  0
   -0.4269   -0.5342    1.4785 C   0  0  0  0  0  0  0  0  0  0  0  0
   -1.7150   -0.0489    1.6290 O   0  0  0  0  0  0  0  0  0  0  0  0
   -1.4276    0.8370    0.5648 C   0  0  0  0  0  0  0  0  0  0  0  0
   -1.5192    0.2197   -0.7734 C   0  0  0  0  0  0  0  0  0  0  0  0
   -2.4164   -0.8429   -0.9889 O   0  0  0  0  0  0  0  0  0  0  0  0
    1.7094   -1.4842   -1.1117 H   0  0  0  0  0  0  0  0  0  0  0  0
    1.7904   -1.1950    0.7070 H   0  0  0  0  0  0  0  0  0  0  0  0
    2.9565   -0.3792   -0.3756 H   0  0  0  0  0  0  0  0  0  0  0  0
    1.4251    1.2361    0.2636 H   0  0  0  0  0  0  0  0  0  0  0  0
    1.2613    1.8177   -1.7586 H   0  0  0  0  0  0  0  0  0  0  0  0
    0.2879    0.0106    2.1495 H   0  0  0  0  0  0  0  0  0  0  0  0
   -0.2893   -1.6144    1.5734 H   0  0  0  0  0  0  0  0  0  0  0  0
   -1.3608    1.9016    0.7506 H   0  0  0  0  0  0  0  0  0  0  0  0
   -1.3832    0.9121   -1.6285 H   0  0  0  0  0  0  0  0  0  0  0  0
   -2.3677   -1.3930   -0.1451 H   0  0  0  0  0  0  0  0  0  0  0  0
  1  2  1  0
  2  3  1  0
  2  4  1  0
  4  5  1  0
  5  6  1  0
  6  7  1  0
  7  8  1  0
  8  9  1  0
  7  4  1  0
  8  4  1  0
  1 10  1  0
  1 11  1  0
  1 12  1  0
  2 13  1  0
  3 14  1  0
  5 15  1  0
  5 16  1  0
  7 17  1  0
  8 18  1  0
  9 19  1  0
M  END
