
     RDKit          3D

 23 23  0  0  0  0  0  0  0  0999 V2000
    2.3668    0.7778   -0.8422 C   0  0  0  0  0  0  0  0  0  0  0  0
    1.9006   -0.5849   -0.3539 C   0  0  0  0  0  0  0  0  0  0  0  0
    2.9469   -1.2291    0.2898 O   0  0  0  0  0  0  0  0  0  0  0  0
    0.7484   -0.4390    0.6019 C   0  0  0  0  0  0  0  0  0  0  0  0
   -0.4385    0.2364   -0.0080 C   0  0  0  0  0  0  0  0  0  0  0  0
   -1.0542   -0.4276   -1.1983 C   0  0  0  0  0  0  0  0  0  0  0  0
   -1.8710   -1.2399   -0.3813 O   0  0  0  0  0  0  0  0  0  0  0  0
   -1.7167   -0.2833    0.6215 C   0  0  0  0  0  0  0  0  0  0  0  0
   -2.8460    0.7217    0.6006 C   0  0  0  0  0  0  0  0  0  0  0  0
    1.5871    1.2408   -1.4826 H   0  0  0  0  0  0  0  0  0  0  0  0
    2.5438    1.4745    0.0179 H   0  0  0  0  0  0  0  0  0  0  0  0
    3.3432    0.6831   -1.3559 H   0  0  0  0  0  0  0  0  0  0  0  0
    1.5607   -1.1379   -1.2457 H   0  0  0  0  0  0  0  0  0  0  0  0
    2.7931   -1.2058    1.2657 H   0  0  0  0  0  0  0  0  0  0  0  0
    0.5136   -1.4137    1.0519 H   0  0  0  0  0  0  0  0  0  0  0  0
    1.1063    0.2186    1.4347 H   0  0  0  0  0  0  0  0  0  0  0  0
   -0.3785    1.3177   -0.0028 H   0  0  0  0  0  0  0  0  0  0  0  0
   -0.4079   -1.0764   -1.7967 H   0  0  0  0  0  0  0  0  0  0  0  0
   -1.7048    0.2746   -1.7674 H   0  0  0  0  0  0  0  0  0  0  0  0
   -1.6056   -0.7599    1.6053 H   0  0  0  0  0  0  0  0  0  0  0  0
   -2.9550    1.1573   -0.4179 H   0  0  0  0  0  0  0  0  0  0  0  0
   -3.8071    0.1984    0.8057 H   0  0  0  0  0  0  0  0  0  0  0  0
   -2.6253    1.4966    1.3644 H   0  0  0  0  0  0  0  0  0  0  0  0
  1  2  1  0
  2  3  1  0
  2  4  1  0
  4  5  1  0
  5  6  1  0
  6  7  1  0
  7  8  1  0
  8  9  1  0
  8  5  1  0
  1 10  1  0
  1 11  1  0
  1 12  1  0
  2 13  1  0
  3 14  1  0
  4 15  1  0
  4 16  1  0
  5 17  1  0
  6 18  1  0
  6 19  1  0
  8 20  1  0
  9 21  1  0
  9 22  1  0
  9 23  1  0
M  END
