
     RDKit          3D

 19 18  0  0  0  0  0  0  0  0999 V2000
   -2.1552   -1.4515    0.1938 C   0  0  0  0  0  0  0  0  0  0  0  0
   -1.9510    0.0422    0.0921 C   0  0  0  0  0  0  0  0  0  0  0  0
   -3.0720    0.7812    0.4523 O   0  0  0  0  0  0  0  0  0  0  0  0
   -0.6953    0.5247    0.7015 C   0  0  0  0  0  0  0  0  0  0  0  0
    0.4479    0.3272    0.1908 C   0  0  0  0  0  0  0  0  0  0  0  0
    1.5709    0.1472   -0.2996 C   0  0  0  0  0  0  0  0  0  0  0  0
    2.9889   -0.0810   -0.9436 C   0  0  0  0  0  0  0  0  0  0  0  0
    3.3526    1.2415   -1.5847 C   0  0  0  0  0  0  0  0  0  0  0  0
    3.0847    1.3506   -2.7622 O   0  0  0  0  0  0  0  0  0  0  0  0
   -3.2663   -1.5909    0.0032 H   0  0  0  0  0  0  0  0  0  0  0  0
   -1.4967   -2.0860   -0.3587 H   0  0  0  0  0  0  0  0  0  0  0  0
   -2.0862   -1.7637    1.2898 H   0  0  0  0  0  0  0  0  0  0  0  0
   -1.8350    0.2238   -1.0690 H   0  0  0  0  0  0  0  0  0  0  0  0
   -3.5002    0.2680    1.2613 H   0  0  0  0  0  0  0  0  0  0  0  0
   -0.7698   -0.2322    1.7429 H   0  0  0  0  0  0  0  0  0  0  0  0
   -0.8579    1.4758    1.3668 H   0  0  0  0  0  0  0  0  0  0  0  0
    2.7955   -0.8366   -1.7107 H   0  0  0  0  0  0  0  0  0  0  0  0
    3.6380   -0.3528   -0.1635 H   0  0  0  0  0  0  0  0  0  0  0  0
    3.8070    2.0126   -1.0100 H   0  0  0  0  0  0  0  0  0  0  0  0
  1  2  1  0
  2  3  1  0
  2  4  1  0
  4  5  1  0
  5  6  3  0
  6  7  1  0
  7  8  1  0
  8  9  2  0
  1 10  1  0
  1 11  1  0
  1 12  1  0
  2 13  1  0
  3 14  1  0
  4 15  1  0
  4 16  1  0
  7 17  1  0
  7 18  1  0
  8 19  1  0
M  END
