
     RDKit          3D

 25 24  0  0  0  0  0  0  0  0999 V2000
   -1.8902    1.6068   -0.0618 C   0  0  0  0  0  0  0  0  0  0  0  0
   -1.9074    0.0897    0.0400 C   0  0  0  0  0  0  0  0  0  0  0  0
   -2.3192   -0.4316   -1.1934 O   0  0  0  0  0  0  0  0  0  0  0  0
   -0.4987   -0.4141    0.3906 C   0  0  0  0  0  0  0  0  0  0  0  0
   -0.5887   -1.9080    0.4746 C   0  0  0  0  0  0  0  0  0  0  0  0
    0.3700   -0.0288   -0.7653 C   0  0  0  0  0  0  0  0  0  0  0  0
    1.8080   -0.4451   -0.6006 C   0  0  0  0  0  0  0  0  0  0  0  0
    2.4133    0.2001    0.6402 C   0  0  0  0  0  0  0  0  0  0  0  0
    2.3620    1.5900    0.5307 O   0  0  0  0  0  0  0  0  0  0  0  0
   -2.8994    2.0178    0.0152 H   0  0  0  0  0  0  0  0  0  0  0  0
   -1.1847    2.0314    0.6874 H   0  0  0  0  0  0  0  0  0  0  0  0
   -1.4922    1.9025   -1.0574 H   0  0  0  0  0  0  0  0  0  0  0  0
   -2.6326   -0.1712    0.8396 H   0  0  0  0  0  0  0  0  0  0  0  0
   -2.0553    0.1945   -1.9192 H   0  0  0  0  0  0  0  0  0  0  0  0
   -0.2276    0.0667    1.3373 H   0  0  0  0  0  0  0  0  0  0  0  0
   -0.5722   -2.2158    1.5427 H   0  0  0  0  0  0  0  0  0  0  0  0
   -1.5647   -2.3057    0.0774 H   0  0  0  0  0  0  0  0  0  0  0  0
    0.1934   -2.4123   -0.1150 H   0  0  0  0  0  0  0  0  0  0  0  0
    0.3721    1.0648   -0.9630 H   0  0  0  0  0  0  0  0  0  0  0  0
   -0.0307   -0.5368   -1.6679 H   0  0  0  0  0  0  0  0  0  0  0  0
    1.9709   -1.5157   -0.5599 H   0  0  0  0  0  0  0  0  0  0  0  0
    2.3900   -0.0471   -1.4582 H   0  0  0  0  0  0  0  0  0  0  0  0
    1.9297   -0.1275    1.5662 H   0  0  0  0  0  0  0  0  0  0  0  0
    3.4756   -0.0908    0.6968 H   0  0  0  0  0  0  0  0  0  0  0  0
    2.5787    1.8862   -0.3667 H   0  0  0  0  0  0  0  0  0  0  0  0
  1  2  1  0
  2  3  1  0
  2  4  1  0
  4  5  1  0
  4  6  1  0
  6  7  1  0
  7  8  1  0
  8  9  1  0
  1 10  1  0
  1 11  1  0
  1 12  1  0
  2 13  1  0
  3 14  1  0
  4 15  1  0
  5 16  1  0
  5 17  1  0
  5 18  1  0
  6 19  1  0
  6 20  1  0
  7 21  1  0
  7 22  1  0
  8 23  1  0
  8 24  1  0
  9 25  1  0
M  END
