
     RDKit          3D

 21 22  0  0  0  0  0  0  0  0999 V2000
   -2.3079   -1.0240    0.3614 C   0  0  0  0  0  0  0  0  0  0  0  0
   -1.7963    0.3295   -0.0912 C   0  0  0  0  0  0  0  0  0  0  0  0
   -2.3349    1.2790    0.7410 O   0  0  0  0  0  0  0  0  0  0  0  0
   -0.3226    0.3812   -0.1318 C   0  0  0  0  0  0  0  0  0  0  0  0
    0.5120    1.1460    0.5625 C   0  0  0  0  0  0  0  0  0  0  0  0
    1.8454    0.8038    0.1386 C   0  0  0  0  0  0  0  0  0  0  0  0
    2.8133   -0.1730    0.3836 C   0  0  0  0  0  0  0  0  0  0  0  0
    1.5786   -0.7382    0.0613 C   0  0  0  0  0  0  0  0  0  0  0  0
    0.5386   -0.5320   -1.0003 C   0  0  0  0  0  0  0  0  0  0  0  0
   -2.3187   -1.7445   -0.4847 H   0  0  0  0  0  0  0  0  0  0  0  0
   -1.7132   -1.4544    1.1818 H   0  0  0  0  0  0  0  0  0  0  0  0
   -3.3550   -0.9386    0.7226 H   0  0  0  0  0  0  0  0  0  0  0  0
   -2.2344    0.4948   -1.1054 H   0  0  0  0  0  0  0  0  0  0  0  0
   -1.9595    2.1689    0.4645 H   0  0  0  0  0  0  0  0  0  0  0  0
    0.1686    1.8861    1.3107 H   0  0  0  0  0  0  0  0  0  0  0  0
    1.9961    1.3346   -0.8644 H   0  0  0  0  0  0  0  0  0  0  0  0
    3.6713   -0.3287   -0.3276 H   0  0  0  0  0  0  0  0  0  0  0  0
    3.2324   -0.2754    1.4266 H   0  0  0  0  0  0  0  0  0  0  0  0
    1.0323   -1.1941    0.9493 H   0  0  0  0  0  0  0  0  0  0  0  0
    0.0233   -1.4581   -1.2401 H   0  0  0  0  0  0  0  0  0  0  0  0
    0.9305    0.0371   -1.8583 H   0  0  0  0  0  0  0  0  0  0  0  0
  1  2  1  0
  2  3  1  0
  2  4  1  0
  4  5  2  0
  5  6  1  0
  6  7  1  0
  7  8  1  0
  8  9  1  0
  9  4  1  0
  8  6  1  0
  1 10  1  0
  1 11  1  0
  1 12  1  0
  2 13  1  0
  3 14  1  0
  5 15  1  0
  6 16  1  0
  7 17  1  0
  7 18  1  0
  8 19  1  0
  9 20  1  0
  9 21  1  0
M  END
