
     RDKit          3D

 21 21  0  0  0  0  0  0  0  0999 V2000
   -0.8251   -1.2363    0.9097 C   0  0  0  0  0  0  0  0  0  0  0  0
   -0.4930   -0.2346   -0.2045 C   0  0  0  0  0  0  0  0  0  0  0  0
   -0.7115   -0.8266   -1.4174 O   0  0  0  0  0  0  0  0  0  0  0  0
   -1.3527    0.9876    0.0436 C   0  0  0  0  0  0  0  0  0  0  0  0
   -2.7124    0.6580    0.0026 O   0  0  0  0  0  0  0  0  0  0  0  0
    0.9531    0.1491   -0.0010 C   0  0  0  0  0  0  0  0  0  0  0  0
    2.0117   -0.9014   -0.2434 C   0  0  0  0  0  0  0  0  0  0  0  0
    1.3725    1.5245    0.0748 C   0  0  0  0  0  0  0  0  0  0  0  0
    1.0575    0.7780    1.3448 O   0  0  0  0  0  0  0  0  0  0  0  0
   -0.2942   -0.8570    1.8124 H   0  0  0  0  0  0  0  0  0  0  0  0
   -1.8990   -1.3434    1.0647 H   0  0  0  0  0  0  0  0  0  0  0  0
   -0.3835   -2.2162    0.6532 H   0  0  0  0  0  0  0  0  0  0  0  0
   -1.3926   -1.5486   -1.4083 H   0  0  0  0  0  0  0  0  0  0  0  0
   -1.1052    1.7521   -0.7005 H   0  0  0  0  0  0  0  0  0  0  0  0
   -1.0874    1.3458    1.0729 H   0  0  0  0  0  0  0  0  0  0  0  0
   -3.1761    1.3431   -0.5521 H   0  0  0  0  0  0  0  0  0  0  0  0
    1.5435   -1.9147   -0.2894 H   0  0  0  0  0  0  0  0  0  0  0  0
    2.7441   -0.9338    0.6073 H   0  0  0  0  0  0  0  0  0  0  0  0
    2.5996   -0.6874   -1.1599 H   0  0  0  0  0  0  0  0  0  0  0  0
    2.4356    1.7626    0.1103 H   0  0  0  0  0  0  0  0  0  0  0  0
    0.7150    2.3994   -0.0461 H   0  0  0  0  0  0  0  0  0  0  0  0
  1  2  1  0
  2  3  1  0
  2  4  1  0
  4  5  1  0
  2  6  1  0
  6  7  1  0
  6  8  1  0
  8  9  1  0
  9  6  1  0
  1 10  1  0
  1 11  1  0
  1 12  1  0
  3 13  1  0
  4 14  1  0
  4 15  1  0
  5 16  1  0
  7 17  1  0
  7 18  1  0
  7 19  1  0
  8 20  1  0
  8 21  1  0
M  END
