
     RDKit          3D

 19 19  0  0  0  0  0  0  0  0999 V2000
    2.0445    0.5588    0.8132 C   0  0  0  0  0  0  0  0  0  0  0  0
    1.0931    0.2085   -0.2929 C   0  0  0  0  0  0  0  0  0  0  0  0
    1.6788   -0.7980   -1.0882 O   0  0  0  0  0  0  0  0  0  0  0  0
   -0.2176   -0.3257    0.1910 C   0  0  0  0  0  0  0  0  0  0  0  0
   -0.1711   -1.4853    0.9585 O   0  0  0  0  0  0  0  0  0  0  0  0
   -1.4309    0.4914    0.2974 C   0  0  0  0  0  0  0  0  0  0  0  0
   -2.4302    0.1086    1.1852 O   0  0  0  0  0  0  0  0  0  0  0  0
   -1.2956   -0.3580   -0.9108 C   0  0  0  0  0  0  0  0  0  0  0  0
   -1.0279    0.2672   -2.1057 O   0  0  0  0  0  0  0  0  0  0  0  0
    2.1366   -0.2398    1.5801 H   0  0  0  0  0  0  0  0  0  0  0  0
    1.8553    1.5591    1.2556 H   0  0  0  0  0  0  0  0  0  0  0  0
    3.0734    0.6335    0.3545 H   0  0  0  0  0  0  0  0  0  0  0  0
    0.9042    1.1258   -0.8831 H   0  0  0  0  0  0  0  0  0  0  0  0
    0.9189   -1.1202   -1.6687 H   0  0  0  0  0  0  0  0  0  0  0  0
   -0.2066   -1.3111    1.9319 H   0  0  0  0  0  0  0  0  0  0  0  0
   -1.4211    1.6028    0.1179 H   0  0  0  0  0  0  0  0  0  0  0  0
   -2.4385   -0.8703    1.3135 H   0  0  0  0  0  0  0  0  0  0  0  0
   -1.8916   -1.2884   -1.0125 H   0  0  0  0  0  0  0  0  0  0  0  0
   -1.1737    1.2411   -2.0369 H   0  0  0  0  0  0  0  0  0  0  0  0
  1  2  1  0
  2  3  1  0
  2  4  1  0
  4  5  1  0
  4  6  1  0
  6  7  1  0
  6  8  1  0
  8  9  1  0
  8  4  1  0
  1 10  1  0
  1 11  1  0
  1 12  1  0
  2 13  1  0
  3 14  1  0
  5 15  1  0
  6 16  1  0
  7 17  1  0
  8 18  1  0
  9 19  1  0
M  END
