
     RDKit          3D

 21 21  0  0  0  0  0  0  0  0999 V2000
    2.2065   -0.1203   -0.4437 C   0  0  0  0  0  0  0  0  0  0  0  0
    1.0733    0.2011    0.4616 C   0  0  0  0  0  0  0  0  0  0  0  0
    0.9748    1.5692    0.7346 O   0  0  0  0  0  0  0  0  0  0  0  0
   -0.2454   -0.3751    0.0326 C   0  0  0  0  0  0  0  0  0  0  0  0
   -0.1854   -1.8614   -0.0379 C   0  0  0  0  0  0  0  0  0  0  0  0
    0.1550   -2.4756   -1.0292 O   0  0  0  0  0  0  0  0  0  0  0  0
   -0.9185    0.2776   -1.1323 C   0  0  0  0  0  0  0  0  0  0  0  0
   -1.8864    0.9904   -0.1969 C   0  0  0  0  0  0  0  0  0  0  0  0
   -1.4137    0.0549    0.8930 C   0  0  0  0  0  0  0  0  0  0  0  0
    2.6914   -1.0999   -0.2141 H   0  0  0  0  0  0  0  0  0  0  0  0
    3.0194    0.6367   -0.3454 H   0  0  0  0  0  0  0  0  0  0  0  0
    1.9499   -0.1549   -1.5166 H   0  0  0  0  0  0  0  0  0  0  0  0
    1.3109   -0.2745    1.4604 H   0  0  0  0  0  0  0  0  0  0  0  0
    1.4920    1.8166    1.5444 H   0  0  0  0  0  0  0  0  0  0  0  0
   -0.4651   -2.4082    0.8560 H   0  0  0  0  0  0  0  0  0  0  0  0
   -0.3246    0.9872   -1.7246 H   0  0  0  0  0  0  0  0  0  0  0  0
   -1.4762   -0.4792   -1.7255 H   0  0  0  0  0  0  0  0  0  0  0  0
   -1.6805    2.0568   -0.0384 H   0  0  0  0  0  0  0  0  0  0  0  0
   -2.9510    0.8632   -0.4889 H   0  0  0  0  0  0  0  0  0  0  0  0
   -2.1760   -0.7291    1.0624 H   0  0  0  0  0  0  0  0  0  0  0  0
   -1.1505    0.5244    1.8488 H   0  0  0  0  0  0  0  0  0  0  0  0
  1  2  1  0
  2  3  1  0
  2  4  1  0
  4  5  1  0
  5  6  2  0
  4  7  1  0
  7  8  1  0
  8  9  1  0
  9  4  1  0
  1 10  1  0
  1 11  1  0
  1 12  1  0
  2 13  1  0
  3 14  1  0
  5 15  1  0
  7 16  1  0
  7 17  1  0
  8 18  1  0
  8 19  1  0
  9 20  1  0
  9 21  1  0
M  END
