
     RDKit          3D

 19 20  0  0  0  0  0  0  0  0999 V2000
    1.7357    0.9960    0.2795 C   0  0  0  0  0  0  0  0  0  0  0  0
    1.3890   -0.3937   -0.0109 C   0  0  0  0  0  0  0  0  0  0  0  0
    1.7803   -1.2051    1.0847 O   0  0  0  0  0  0  0  0  0  0  0  0
   -0.0618   -0.7129   -0.2606 C   0  0  0  0  0  0  0  0  0  0  0  0
   -0.2104   -2.0942   -0.5694 O   0  0  0  0  0  0  0  0  0  0  0  0
   -1.0124    0.1131   -0.9447 C   0  0  0  0  0  0  0  0  0  0  0  0
   -2.3955    0.5194   -0.4053 C   0  0  0  0  0  0  0  0  0  0  0  0
   -1.5655    1.1857    0.5391 O   0  0  0  0  0  0  0  0  0  0  0  0
   -1.0006   -0.0864    0.6215 C   0  0  0  0  0  0  0  0  0  0  0  0
    0.9207    1.7355    0.2602 H   0  0  0  0  0  0  0  0  0  0  0  0
    2.5225    1.4020   -0.4126 H   0  0  0  0  0  0  0  0  0  0  0  0
    2.2049    1.1080    1.3035 H   0  0  0  0  0  0  0  0  0  0  0  0
    2.0477   -0.7527   -0.8367 H   0  0  0  0  0  0  0  0  0  0  0  0
    1.4680   -0.7727    1.9157 H   0  0  0  0  0  0  0  0  0  0  0  0
    0.4488   -2.3423   -1.2846 H   0  0  0  0  0  0  0  0  0  0  0  0
   -0.5486    1.0937   -1.2815 H   0  0  0  0  0  0  0  0  0  0  0  0
   -3.0043   -0.2880   -0.0214 H   0  0  0  0  0  0  0  0  0  0  0  0
   -2.9152    1.2734   -0.9951 H   0  0  0  0  0  0  0  0  0  0  0  0
   -1.8033   -0.7788    1.0185 H   0  0  0  0  0  0  0  0  0  0  0  0
  1  2  1  0
  2  3  1  0
  2  4  1  0
  4  5  1  0
  4  6  1  0
  6  7  1  0
  7  8  1  0
  8  9  1  0
  9  4  1  0
  9  6  1  0
  1 10  1  0
  1 11  1  0
  1 12  1  0
  2 13  1  0
  3 14  1  0
  5 15  1  0
  6 16  1  0
  7 17  1  0
  7 18  1  0
  9 19  1  0
M  END
