
     RDKit          3D

 20 19  0  0  0  0  0  0  0  0999 V2000
   -1.9561   -0.5054   -0.6211 C   0  0  0  0  0  0  0  0  0  0  0  0
   -0.6246   -0.8670   -0.0840 C   0  0  0  0  0  0  0  0  0  0  0  0
   -0.7928   -1.8275    0.9129 O   0  0  0  0  0  0  0  0  0  0  0  0
    0.2109    0.2685    0.4014 C   0  0  0  0  0  0  0  0  0  0  0  0
    1.5506   -0.1992    0.9305 C   0  0  0  0  0  0  0  0  0  0  0  0
    2.2894   -0.8597   -0.0520 O   0  0  0  0  0  0  0  0  0  0  0  0
    0.4467    1.3545   -0.5786 C   0  0  0  0  0  0  0  0  0  0  0  0
   -0.7028    1.9782   -1.0372 O   0  0  0  0  0  0  0  0  0  0  0  0
   -2.5166    0.2324   -0.0170 H   0  0  0  0  0  0  0  0  0  0  0  0
   -2.5855   -1.4327   -0.6101 H   0  0  0  0  0  0  0  0  0  0  0  0
   -1.9343   -0.1691   -1.6878 H   0  0  0  0  0  0  0  0  0  0  0  0
   -0.0484   -1.3717   -0.9080 H   0  0  0  0  0  0  0  0  0  0  0  0
   -1.2825   -1.4429    1.6913 H   0  0  0  0  0  0  0  0  0  0  0  0
   -0.3213    0.7193    1.2853 H   0  0  0  0  0  0  0  0  0  0  0  0
    2.1148    0.6278    1.4065 H   0  0  0  0  0  0  0  0  0  0  0  0
    1.4077   -0.9596    1.7482 H   0  0  0  0  0  0  0  0  0  0  0  0
    3.0472   -1.3050    0.4335 H   0  0  0  0  0  0  0  0  0  0  0  0
    1.0227    0.9686   -1.4415 H   0  0  0  0  0  0  0  0  0  0  0  0
    1.0928    2.1182   -0.0948 H   0  0  0  0  0  0  0  0  0  0  0  0
   -0.4180    2.6724   -1.6776 H   0  0  0  0  0  0  0  0  0  0  0  0
  1  2  1  0
  2  3  1  0
  2  4  1  0
  4  5  1  0
  5  6  1  0
  4  7  1  0
  7  8  1  0
  1  9  1  0
  1 10  1  0
  1 11  1  0
  2 12  1  0
  3 13  1  0
  4 14  1  0
  5 15  1  0
  5 16  1  0
  6 17  1  0
  7 18  1  0
  7 19  1  0
  8 20  1  0
M  END
