
     RDKit          3D

 19 19  0  0  0  0  0  0  0  0999 V2000
    2.0246   -0.7107   -0.4095 C   0  0  0  0  0  0  0  0  0  0  0  0
    1.4342    0.4354    0.3614 C   0  0  0  0  0  0  0  0  0  0  0  0
    1.4556    1.5621   -0.4449 O   0  0  0  0  0  0  0  0  0  0  0  0
    0.0539    0.0808    0.8386 C   0  0  0  0  0  0  0  0  0  0  0  0
   -0.4903    1.1683    1.6014 O   0  0  0  0  0  0  0  0  0  0  0  0
   -1.7379    0.9928    1.0076 C   0  0  0  0  0  0  0  0  0  0  0  0
   -2.8859    1.3250    1.4019 O   0  0  0  0  0  0  0  0  0  0  0  0
   -1.0601    0.3279   -0.1185 C   0  0  0  0  0  0  0  0  0  0  0  0
   -1.8377   -0.8616   -0.5894 C   0  0  0  0  0  0  0  0  0  0  0  0
    1.3415   -1.0025   -1.2335 H   0  0  0  0  0  0  0  0  0  0  0  0
    2.2701   -1.5829    0.2484 H   0  0  0  0  0  0  0  0  0  0  0  0
    2.9931   -0.3960   -0.8531 H   0  0  0  0  0  0  0  0  0  0  0  0
    2.1201    0.6448    1.2170 H   0  0  0  0  0  0  0  0  0  0  0  0
    1.2584    1.3229   -1.3992 H   0  0  0  0  0  0  0  0  0  0  0  0
    0.0428   -0.8249    1.4347 H   0  0  0  0  0  0  0  0  0  0  0  0
   -0.7644    0.9791   -0.9606 H   0  0  0  0  0  0  0  0  0  0  0  0
   -2.8896   -0.5366   -0.7336 H   0  0  0  0  0  0  0  0  0  0  0  0
   -1.4582   -1.2674   -1.5605 H   0  0  0  0  0  0  0  0  0  0  0  0
   -1.8702   -1.6562    0.1917 H   0  0  0  0  0  0  0  0  0  0  0  0
  1  2  1  0
  2  3  1  0
  2  4  1  0
  4  5  1  0
  5  6  1  0
  6  7  2  0
  6  8  1  0
  8  9  1  0
  8  4  1  0
  1 10  1  0
  1 11  1  0
  1 12  1  0
  2 13  1  0
  3 14  1  0
  4 15  1  0
  8 16  1  0
  9 17  1  0
  9 18  1  0
  9 19  1  0
M  END
