
     RDKit          3D

 21 21  0  0  0  0  0  0  0  0999 V2000
   -1.4040   -1.6123   -0.0401 C   0  0  0  0  0  0  0  0  0  0  0  0
   -1.2620   -0.1669   -0.3564 C   0  0  0  0  0  0  0  0  0  0  0  0
   -1.9754    0.5618    0.5923 O   0  0  0  0  0  0  0  0  0  0  0  0
    0.1675    0.3167   -0.3886 C   0  0  0  0  0  0  0  0  0  0  0  0
    0.1810    1.7724   -0.8101 C   0  0  0  0  0  0  0  0  0  0  0  0
    0.9344   -0.3773   -1.3222 O   0  0  0  0  0  0  0  0  0  0  0  0
    0.8511    0.1931    0.9419 C   0  0  0  0  0  0  0  0  0  0  0  0
    2.1554   -0.4293    1.1051 C   0  0  0  0  0  0  0  0  0  0  0  0
    0.9876   -1.1386    1.3756 O   0  0  0  0  0  0  0  0  0  0  0  0
   -1.3559   -1.7968    1.0676 H   0  0  0  0  0  0  0  0  0  0  0  0
   -2.4212   -1.9363   -0.3505 H   0  0  0  0  0  0  0  0  0  0  0  0
   -0.7056   -2.2695   -0.5961 H   0  0  0  0  0  0  0  0  0  0  0  0
   -1.7097    0.0264   -1.3497 H   0  0  0  0  0  0  0  0  0  0  0  0
   -1.3742    1.2176    1.0215 H   0  0  0  0  0  0  0  0  0  0  0  0
    0.1699    2.4390    0.0719 H   0  0  0  0  0  0  0  0  0  0  0  0
   -0.7095    2.0136   -1.4397 H   0  0  0  0  0  0  0  0  0  0  0  0
    1.0686    2.0113   -1.4545 H   0  0  0  0  0  0  0  0  0  0  0  0
    0.3677   -0.7570   -2.0473 H   0  0  0  0  0  0  0  0  0  0  0  0
    0.5454    0.9588    1.6735 H   0  0  0  0  0  0  0  0  0  0  0  0
    2.7219   -0.1978    2.0304 H   0  0  0  0  0  0  0  0  0  0  0  0
    2.7673   -0.8289    0.2752 H   0  0  0  0  0  0  0  0  0  0  0  0
  1  2  1  0
  2  3  1  0
  2  4  1  0
  4  5  1  0
  4  6  1  0
  4  7  1  0
  7  8  1  0
  8  9  1  0
  9  7  1  0
  1 10  1  0
  1 11  1  0
  1 12  1  0
  2 13  1  0
  3 14  1  0
  5 15  1  0
  5 16  1  0
  5 17  1  0
  6 18  1  0
  7 19  1  0
  8 20  1  0
  8 21  1  0
M  END
