
     RDKit          3D

 21 21  0  0  0  0  0  0  0  0999 V2000
   -2.1636    0.3941    0.7099 C   0  0  0  0  0  0  0  0  0  0  0  0
   -1.0647   -0.5850    0.4729 C   0  0  0  0  0  0  0  0  0  0  0  0
   -1.4933   -1.5052   -0.4801 O   0  0  0  0  0  0  0  0  0  0  0  0
    0.2033    0.0320   -0.0271 C   0  0  0  0  0  0  0  0  0  0  0  0
    0.1046    0.7670   -1.3272 C   0  0  0  0  0  0  0  0  0  0  0  0
    1.2983   -1.0393   -0.1065 C   0  0  0  0  0  0  0  0  0  0  0  0
    2.2263    0.0587    0.3691 C   0  0  0  0  0  0  0  0  0  0  0  0
    1.0353    0.7429    0.9396 C   0  0  0  0  0  0  0  0  0  0  0  0
    0.8987    1.5434    1.8343 O   0  0  0  0  0  0  0  0  0  0  0  0
   -1.8757    1.2726    1.3001 H   0  0  0  0  0  0  0  0  0  0  0  0
   -2.9741   -0.1296    1.2771 H   0  0  0  0  0  0  0  0  0  0  0  0
   -2.6226    0.7856   -0.2303 H   0  0  0  0  0  0  0  0  0  0  0  0
   -0.8642   -1.1285    1.4038 H   0  0  0  0  0  0  0  0  0  0  0  0
   -1.2905   -1.2130   -1.4037 H   0  0  0  0  0  0  0  0  0  0  0  0
    0.9667    1.4614   -1.4258 H   0  0  0  0  0  0  0  0  0  0  0  0
    0.1465    0.0314   -2.1439 H   0  0  0  0  0  0  0  0  0  0  0  0
   -0.8277    1.3734   -1.3191 H   0  0  0  0  0  0  0  0  0  0  0  0
    1.4709   -1.4099   -1.1157 H   0  0  0  0  0  0  0  0  0  0  0  0
    1.1892   -1.8074    0.6874 H   0  0  0  0  0  0  0  0  0  0  0  0
    2.6584    0.5886   -0.5199 H   0  0  0  0  0  0  0  0  0  0  0  0
    2.9783   -0.2333    1.1047 H   0  0  0  0  0  0  0  0  0  0  0  0
  1  2  1  0
  2  3  1  0
  2  4  1  0
  4  5  1  0
  4  6  1  0
  6  7  1  0
  7  8  1  0
  8  9  2  0
  8  4  1  0
  1 10  1  0
  1 11  1  0
  1 12  1  0
  2 13  1  0
  3 14  1  0
  5 15  1  0
  5 16  1  0
  5 17  1  0
  6 18  1  0
  6 19  1  0
  7 20  1  0
  7 21  1  0
M  END
