
     RDKit          3D

 23 23  0  0  0  0  0  0  0  0999 V2000
   -2.4454    0.8549   -0.4408 C   0  0  0  0  0  0  0  0  0  0  0  0
   -1.6399    0.2810    0.7056 C   0  0  0  0  0  0  0  0  0  0  0  0
   -1.2343    1.3161    1.5082 O   0  0  0  0  0  0  0  0  0  0  0  0
   -0.5082   -0.5912    0.2371 C   0  0  0  0  0  0  0  0  0  0  0  0
   -1.0312   -1.7817   -0.5545 C   0  0  0  0  0  0  0  0  0  0  0  0
    0.4439    0.0567   -0.4946 O   0  0  0  0  0  0  0  0  0  0  0  0
    1.6746   -0.0357    0.1442 C   0  0  0  0  0  0  0  0  0  0  0  0
    2.9138   -0.1557   -0.7533 C   0  0  0  0  0  0  0  0  0  0  0  0
    2.6575    1.0778    0.0489 C   0  0  0  0  0  0  0  0  0  0  0  0
   -3.4205    1.1793    0.0042 H   0  0  0  0  0  0  0  0  0  0  0  0
   -1.9381    1.7227   -0.9132 H   0  0  0  0  0  0  0  0  0  0  0  0
   -2.6866    0.0562   -1.1564 H   0  0  0  0  0  0  0  0  0  0  0  0
   -2.3323   -0.3568    1.2958 H   0  0  0  0  0  0  0  0  0  0  0  0
   -0.6855    1.9378    0.9772 H   0  0  0  0  0  0  0  0  0  0  0  0
   -0.0338   -1.0145    1.1442 H   0  0  0  0  0  0  0  0  0  0  0  0
   -0.6926   -2.7500   -0.1324 H   0  0  0  0  0  0  0  0  0  0  0  0
   -0.7274   -1.6849   -1.6356 H   0  0  0  0  0  0  0  0  0  0  0  0
   -2.1389   -1.8160   -0.5515 H   0  0  0  0  0  0  0  0  0  0  0  0
    1.7069   -0.5979    1.1146 H   0  0  0  0  0  0  0  0  0  0  0  0
    2.7265   -0.0723   -1.8581 H   0  0  0  0  0  0  0  0  0  0  0  0
    3.6691   -0.9020   -0.4075 H   0  0  0  0  0  0  0  0  0  0  0  0
    3.3387    1.2720    0.9027 H   0  0  0  0  0  0  0  0  0  0  0  0
    2.3836    2.0046   -0.5285 H   0  0  0  0  0  0  0  0  0  0  0  0
  1  2  1  0
  2  3  1  0
  2  4  1  0
  4  5  1  0
  4  6  1  0
  6  7  1  0
  7  8  1  0
  8  9  1  0
  9  7  1  0
  1 10  1  0
  1 11  1  0
  1 12  1  0
  2 13  1  0
  3 14  1  0
  4 15  1  0
  5 16  1  0
  5 17  1  0
  5 18  1  0
  7 19  1  0
  8 20  1  0
  8 21  1  0
  9 22  1  0
  9 23  1  0
M  END
