
     RDKit          3D

 20 20  0  0  0  0  0  0  0  0999 V2000
   -1.9018    1.0429    0.2322 C   0  0  0  0  0  0  0  0  0  0  0  0
   -0.8270    0.4565   -0.6491 C   0  0  0  0  0  0  0  0  0  0  0  0
   -1.4078   -0.5106   -1.4525 O   0  0  0  0  0  0  0  0  0  0  0  0
    0.3171   -0.1187    0.1743 C   0  0  0  0  0  0  0  0  0  0  0  0
   -0.0827   -1.4432    0.7522 C   0  0  0  0  0  0  0  0  0  0  0  0
    1.6046   -0.2674   -0.6081 C   0  0  0  0  0  0  0  0  0  0  0  0
    2.2024    0.7149    0.3857 C   0  0  0  0  0  0  0  0  0  0  0  0
    0.9527    0.7632    0.9998 O   0  0  0  0  0  0  0  0  0  0  0  0
   -2.4221    0.2382    0.8252 H   0  0  0  0  0  0  0  0  0  0  0  0
   -1.4957    1.8310    0.9069 H   0  0  0  0  0  0  0  0  0  0  0  0
   -2.6772    1.4585   -0.4450 H   0  0  0  0  0  0  0  0  0  0  0  0
   -0.3980    1.3000   -1.2326 H   0  0  0  0  0  0  0  0  0  0  0  0
   -2.2889   -0.8110   -1.1284 H   0  0  0  0  0  0  0  0  0  0  0  0
   -0.9430   -1.3837    1.4451 H   0  0  0  0  0  0  0  0  0  0  0  0
    0.7633   -2.0094    1.1839 H   0  0  0  0  0  0  0  0  0  0  0  0
   -0.4514   -2.0658   -0.1153 H   0  0  0  0  0  0  0  0  0  0  0  0
    2.0646   -1.2606   -0.5978 H   0  0  0  0  0  0  0  0  0  0  0  0
    1.5260    0.1150   -1.6408 H   0  0  0  0  0  0  0  0  0  0  0  0
    2.5223    1.6555   -0.1098 H   0  0  0  0  0  0  0  0  0  0  0  0
    2.9428    0.2945    1.0742 H   0  0  0  0  0  0  0  0  0  0  0  0
  1  2  1  0
  2  3  1  0
  2  4  1  0
  4  5  1  0
  4  6  1  0
  6  7  1  0
  7  8  1  0
  8  4  1  0
  1  9  1  0
  1 10  1  0
  1 11  1  0
  2 12  1  0
  3 13  1  0
  5 14  1  0
  5 15  1  0
  5 16  1  0
  6 17  1  0
  6 18  1  0
  7 19  1  0
  7 20  1  0
M  END
