
     RDKit          3D

 21 21  0  0  0  0  0  0  0  0999 V2000
    2.4692    0.0826   -0.2178 C   0  0  0  0  0  0  0  0  0  0  0  0
    1.1636    0.7591   -0.5492 C   0  0  0  0  0  0  0  0  0  0  0  0
    0.8657    0.7324   -1.8991 O   0  0  0  0  0  0  0  0  0  0  0  0
    0.0222    0.1850    0.2872 C   0  0  0  0  0  0  0  0  0  0  0  0
   -1.3292    0.3995   -0.3157 C   0  0  0  0  0  0  0  0  0  0  0  0
   -2.3072   -0.6996    0.0316 C   0  0  0  0  0  0  0  0  0  0  0  0
   -1.9083    1.6000    0.0540 O   0  0  0  0  0  0  0  0  0  0  0  0
    0.3139   -1.0913    1.0085 C   0  0  0  0  0  0  0  0  0  0  0  0
    0.1820    0.1484    1.6588 O   0  0  0  0  0  0  0  0  0  0  0  0
    2.5961    0.1432    0.8834 H   0  0  0  0  0  0  0  0  0  0  0  0
    3.2661    0.6540   -0.7540 H   0  0  0  0  0  0  0  0  0  0  0  0
    2.5168   -0.9581   -0.5980 H   0  0  0  0  0  0  0  0  0  0  0  0
    1.2755    1.8283   -0.2520 H   0  0  0  0  0  0  0  0  0  0  0  0
    1.3951    0.0211   -2.3697 H   0  0  0  0  0  0  0  0  0  0  0  0
   -1.2168    0.3976   -1.4182 H   0  0  0  0  0  0  0  0  0  0  0  0
   -2.3724   -0.8988    1.0996 H   0  0  0  0  0  0  0  0  0  0  0  0
   -3.3087   -0.3684   -0.3080 H   0  0  0  0  0  0  0  0  0  0  0  0
   -2.0161   -1.5867   -0.5543 H   0  0  0  0  0  0  0  0  0  0  0  0
   -2.4043    1.9778   -0.7159 H   0  0  0  0  0  0  0  0  0  0  0  0
    1.3242   -1.5428    0.9504 H   0  0  0  0  0  0  0  0  0  0  0  0
   -0.5274   -1.7832    1.2734 H   0  0  0  0  0  0  0  0  0  0  0  0
  1  2  1  0
  2  3  1  0
  2  4  1  0
  4  5  1  0
  5  6  1  0
  5  7  1  0
  4  8  1  0
  8  9  1  0
  9  4  1  0
  1 10  1  0
  1 11  1  0
  1 12  1  0
  2 13  1  0
  3 14  1  0
  5 15  1  0
  6 16  1  0
  6 17  1  0
  6 18  1  0
  7 19  1  0
  8 20  1  0
  8 21  1  0
M  END
