
     RDKit          3D

 21 21  0  0  0  0  0  0  0  0999 V2000
    2.5234   -0.2492   -0.6829 C   0  0  0  0  0  0  0  0  0  0  0  0
    1.5128    0.1860    0.3512 C   0  0  0  0  0  0  0  0  0  0  0  0
    0.8181    1.2804   -0.1256 O   0  0  0  0  0  0  0  0  0  0  0  0
    0.5759   -0.8932    0.7044 C   0  0  0  0  0  0  0  0  0  0  0  0
    1.0486   -1.9315    1.1329 O   0  0  0  0  0  0  0  0  0  0  0  0
   -0.8876   -0.7770    0.5655 C   0  0  0  0  0  0  0  0  0  0  0  0
   -1.3731   -0.4998   -0.8442 C   0  0  0  0  0  0  0  0  0  0  0  0
   -2.1262    0.6902   -0.2991 C   0  0  0  0  0  0  0  0  0  0  0  0
   -1.5411    0.4598    1.0833 C   0  0  0  0  0  0  0  0  0  0  0  0
    2.8912   -1.2521   -0.3766 H   0  0  0  0  0  0  0  0  0  0  0  0
    2.0066   -0.3022   -1.6662 H   0  0  0  0  0  0  0  0  0  0  0  0
    3.3596    0.4846   -0.6910 H   0  0  0  0  0  0  0  0  0  0  0  0
    2.1122    0.4887    1.2564 H   0  0  0  0  0  0  0  0  0  0  0  0
    1.4150    1.7541   -0.7648 H   0  0  0  0  0  0  0  0  0  0  0  0
   -1.4315   -1.6995    0.9282 H   0  0  0  0  0  0  0  0  0  0  0  0
   -2.0481   -1.2322   -1.2833 H   0  0  0  0  0  0  0  0  0  0  0  0
   -0.5363   -0.2565   -1.5136 H   0  0  0  0  0  0  0  0  0  0  0  0
   -3.2372    0.5656   -0.2864 H   0  0  0  0  0  0  0  0  0  0  0  0
   -1.8300    1.6392   -0.7666 H   0  0  0  0  0  0  0  0  0  0  0  0
   -2.3322    0.2602    1.8540 H   0  0  0  0  0  0  0  0  0  0  0  0
   -0.9203    1.2843    1.4242 H   0  0  0  0  0  0  0  0  0  0  0  0
  1  2  1  0
  2  3  1  0
  2  4  1  0
  4  5  2  0
  4  6  1  0
  6  7  1  0
  7  8  1  0
  8  9  1  0
  9  6  1  0
  1 10  1  0
  1 11  1  0
  1 12  1  0
  2 13  1  0
  3 14  1  0
  6 15  1  0
  7 16  1  0
  7 17  1  0
  8 18  1  0
  8 19  1  0
  9 20  1  0
  9 21  1  0
M  END
