
     RDKit          3D

 21 21  0  0  0  0  0  0  0  0999 V2000
    1.8379    0.6718    1.0533 C   0  0  0  0  0  0  0  0  0  0  0  0
    1.3481   -0.5655    0.3645 C   0  0  0  0  0  0  0  0  0  0  0  0
    2.3211   -0.9415   -0.5717 O   0  0  0  0  0  0  0  0  0  0  0  0
    0.0660   -0.3763   -0.3794 C   0  0  0  0  0  0  0  0  0  0  0  0
   -0.4246   -1.6044   -1.0659 C   0  0  0  0  0  0  0  0  0  0  0  0
   -1.4822   -1.5479   -1.7105 O   0  0  0  0  0  0  0  0  0  0  0  0
   -0.1924    0.9051   -1.0837 C   0  0  0  0  0  0  0  0  0  0  0  0
   -1.0083    0.5085    0.1378 C   0  0  0  0  0  0  0  0  0  0  0  0
   -2.4451    0.2007   -0.1423 C   0  0  0  0  0  0  0  0  0  0  0  0
    1.9809    1.5264    0.3664 H   0  0  0  0  0  0  0  0  0  0  0  0
    2.8753    0.4269    1.4299 H   0  0  0  0  0  0  0  0  0  0  0  0
    1.2306    0.9407    1.9484 H   0  0  0  0  0  0  0  0  0  0  0  0
    1.2804   -1.3651    1.1470 H   0  0  0  0  0  0  0  0  0  0  0  0
    2.1397   -0.4173   -1.3896 H   0  0  0  0  0  0  0  0  0  0  0  0
    0.0983   -2.5383   -1.0270 H   0  0  0  0  0  0  0  0  0  0  0  0
    0.4374    1.7975   -0.9393 H   0  0  0  0  0  0  0  0  0  0  0  0
   -0.6645    0.8591   -2.0781 H   0  0  0  0  0  0  0  0  0  0  0  0
   -0.8483    1.0891    1.0861 H   0  0  0  0  0  0  0  0  0  0  0  0
   -2.7045    0.3840   -1.2258 H   0  0  0  0  0  0  0  0  0  0  0  0
   -3.1125    0.8775    0.4256 H   0  0  0  0  0  0  0  0  0  0  0  0
   -2.7333   -0.8309    0.1290 H   0  0  0  0  0  0  0  0  0  0  0  0
  1  2  1  0
  2  3  1  0
  2  4  1  0
  4  5  1  0
  5  6  2  0
  4  7  1  0
  7  8  1  0
  8  9  1  0
  8  4  1  0
  1 10  1  0
  1 11  1  0
  1 12  1  0
  2 13  1  0
  3 14  1  0
  5 15  1  0
  7 16  1  0
  7 17  1  0
  8 18  1  0
  9 19  1  0
  9 20  1  0
  9 21  1  0
M  END
