
     RDKit          3D

 23 23  0  0  0  0  0  0  0  0999 V2000
   -1.5502    1.1738    1.0380 C   0  0  0  0  0  0  0  0  0  0  0  0
   -0.9833    0.3170   -0.0091 C   0  0  0  0  0  0  0  0  0  0  0  0
   -0.8276    1.1195   -1.1708 O   0  0  0  0  0  0  0  0  0  0  0  0
   -2.0582   -0.6908   -0.4314 C   0  0  0  0  0  0  0  0  0  0  0  0
   -1.5919   -1.4029   -1.5218 O   0  0  0  0  0  0  0  0  0  0  0  0
    0.2623   -0.4041    0.2197 C   0  0  0  0  0  0  0  0  0  0  0  0
    1.4975    0.3432    0.5279 C   0  0  0  0  0  0  0  0  0  0  0  0
    2.7886   -0.4707    0.7610 C   0  0  0  0  0  0  0  0  0  0  0  0
    2.6321    0.2611   -0.5166 C   0  0  0  0  0  0  0  0  0  0  0  0
   -2.1100    2.0504    0.6356 H   0  0  0  0  0  0  0  0  0  0  0  0
   -2.3208    0.6297    1.6649 H   0  0  0  0  0  0  0  0  0  0  0  0
   -0.8490    1.5832    1.7818 H   0  0  0  0  0  0  0  0  0  0  0  0
   -1.6417    1.1686   -1.6924 H   0  0  0  0  0  0  0  0  0  0  0  0
   -2.1853   -1.3616    0.4632 H   0  0  0  0  0  0  0  0  0  0  0  0
   -3.0265   -0.2003   -0.5951 H   0  0  0  0  0  0  0  0  0  0  0  0
   -1.8666   -2.3609   -1.4010 H   0  0  0  0  0  0  0  0  0  0  0  0
    0.4666   -1.0813   -0.6373 H   0  0  0  0  0  0  0  0  0  0  0  0
    0.1109   -1.1269    1.0810 H   0  0  0  0  0  0  0  0  0  0  0  0
    1.5100    1.3014    1.0692 H   0  0  0  0  0  0  0  0  0  0  0  0
    3.5333   -0.0882    1.4550 H   0  0  0  0  0  0  0  0  0  0  0  0
    2.6292   -1.5695    0.7586 H   0  0  0  0  0  0  0  0  0  0  0  0
    3.1823    1.1678   -0.7638 H   0  0  0  0  0  0  0  0  0  0  0  0
    2.3983   -0.3585   -1.4315 H   0  0  0  0  0  0  0  0  0  0  0  0
  1  2  1  0
  2  3  1  0
  2  4  1  0
  4  5  1  0
  2  6  1  0
  6  7  1  0
  7  8  1  0
  8  9  1  0
  9  7  1  0
  1 10  1  0
  1 11  1  0
  1 12  1  0
  3 13  1  0
  4 14  1  0
  4 15  1  0
  5 16  1  0
  6 17  1  0
  6 18  1  0
  7 19  1  0
  8 20  1  0
  8 21  1  0
  9 22  1  0
  9 23  1  0
M  END
