
     RDKit          3D

 16 16  0  0  0  0  0  0  0  0999 V2000
   -0.1907   -1.1086    0.7224 C   0  0  0  0  0  0  0  0  0  0  0  0
    0.3348   -0.2485   -0.4072 C   0  0  0  0  0  0  0  0  0  0  0  0
    1.4047    0.5576   -0.0358 O   0  0  0  0  0  0  0  0  0  0  0  0
    2.6794    0.5065   -0.5633 C   0  0  0  0  0  0  0  0  0  0  0  0
    2.8857   -0.3507   -1.4626 O   0  0  0  0  0  0  0  0  0  0  0  0
   -0.8028    0.5705   -0.9821 C   0  0  0  0  0  0  0  0  0  0  0  0
   -2.0394    0.7944   -0.2589 C   0  0  0  0  0  0  0  0  0  0  0  0
   -1.9548   -0.1674   -1.3960 O   0  0  0  0  0  0  0  0  0  0  0  0
   -1.1017   -1.6193    0.3448 H   0  0  0  0  0  0  0  0  0  0  0  0
    0.5666   -1.8154    1.0596 H   0  0  0  0  0  0  0  0  0  0  0  0
   -0.5342   -0.4640    1.5728 H   0  0  0  0  0  0  0  0  0  0  0  0
    0.6742   -0.9447   -1.2020 H   0  0  0  0  0  0  0  0  0  0  0  0
    3.4845    1.1704   -0.2289 H   0  0  0  0  0  0  0  0  0  0  0  0
   -0.4893    1.2710   -1.7791 H   0  0  0  0  0  0  0  0  0  0  0  0
   -2.6736    1.6435   -0.5111 H   0  0  0  0  0  0  0  0  0  0  0  0
   -2.2434    0.2048    0.6598 H   0  0  0  0  0  0  0  0  0  0  0  0
  1  2  1  0
  2  3  1  0
  3  4  1  0
  4  5  2  0
  2  6  1  0
  6  7  1  0
  7  8  1  0
  8  6  1  0
  1  9  1  0
  1 10  1  0
  1 11  1  0
  2 12  1  0
  4 13  1  0
  6 14  1  0
  7 15  1  0
  7 16  1  0
M  END
