
     RDKit          3D

 21 22  0  0  0  0  0  0  0  0999 V2000
    2.0424   -0.1919   -0.9023 C   0  0  0  0  0  0  0  0  0  0  0  0
    1.6073    0.3250    0.4397 C   0  0  0  0  0  0  0  0  0  0  0  0
    2.6473    0.1820    1.3345 O   0  0  0  0  0  0  0  0  0  0  0  0
    0.3354   -0.3519    0.9201 C   0  0  0  0  0  0  0  0  0  0  0  0
   -0.7789   -0.2062    0.1134 C   0  0  0  0  0  0  0  0  0  0  0  0
   -2.1402   -0.7354    0.3049 C   0  0  0  0  0  0  0  0  0  0  0  0
   -2.1002   -0.1043   -1.0549 C   0  0  0  0  0  0  0  0  0  0  0  0
   -1.3644    1.0413   -0.4272 C   0  0  0  0  0  0  0  0  0  0  0  0
   -0.8660   -0.7102   -1.2058 O   0  0  0  0  0  0  0  0  0  0  0  0
    3.1418   -0.2774   -0.9316 H   0  0  0  0  0  0  0  0  0  0  0  0
    1.6237   -1.2376   -0.9873 H   0  0  0  0  0  0  0  0  0  0  0  0
    1.6377    0.4137   -1.7350 H   0  0  0  0  0  0  0  0  0  0  0  0
    1.4219    1.4217    0.3156 H   0  0  0  0  0  0  0  0  0  0  0  0
    2.5006    0.8357    2.0721 H   0  0  0  0  0  0  0  0  0  0  0  0
    0.1810   -0.0091    1.9642 H   0  0  0  0  0  0  0  0  0  0  0  0
    0.6224   -1.4423    1.0296 H   0  0  0  0  0  0  0  0  0  0  0  0
   -2.2159   -1.8476    0.3014 H   0  0  0  0  0  0  0  0  0  0  0  0
   -2.7943   -0.2735    1.0487 H   0  0  0  0  0  0  0  0  0  0  0  0
   -2.8496   -0.0548   -1.7272 H   0  0  0  0  0  0  0  0  0  0  0  0
   -0.6650    1.5681   -1.0971 H   0  0  0  0  0  0  0  0  0  0  0  0
   -1.9872    1.6547    0.2243 H   0  0  0  0  0  0  0  0  0  0  0  0
  1  2  1  0
  2  3  1  0
  2  4  1  0
  4  5  1  0
  5  6  1  0
  6  7  1  0
  7  8  1  0
  7  9  1  0
  8  5  1  0
  9  5  1  0
  1 10  1  0
  1 11  1  0
  1 12  1  0
  2 13  1  0
  3 14  1  0
  4 15  1  0
  4 16  1  0
  6 17  1  0
  6 18  1  0
  7 19  1  0
  8 20  1  0
  8 21  1  0
M  END
