
     RDKit          3D

 19 19  0  0  0  0  0  0  0  0999 V2000
   -1.9414   -0.6221    0.7490 C   0  0  0  0  0  0  0  0  0  0  0  0
   -0.6933    0.2020    0.7780 C   0  0  0  0  0  0  0  0  0  0  0  0
   -1.0184    1.5401    0.9586 O   0  0  0  0  0  0  0  0  0  0  0  0
    0.1222    0.0895   -0.4932 C   0  0  0  0  0  0  0  0  0  0  0  0
    1.5229    0.6459   -0.3672 C   0  0  0  0  0  0  0  0  0  0  0  0
    2.2910   -0.0562    0.6776 C   0  0  0  0  0  0  0  0  0  0  0  0
    3.4356    0.2724    0.9060 O   0  0  0  0  0  0  0  0  0  0  0  0
   -0.1397   -0.8629   -1.5289 C   0  0  0  0  0  0  0  0  0  0  0  0
   -0.5085    0.5254   -1.6911 O   0  0  0  0  0  0  0  0  0  0  0  0
   -2.3087   -0.7161    1.7936 H   0  0  0  0  0  0  0  0  0  0  0  0
   -2.7081   -0.0792    0.1411 H   0  0  0  0  0  0  0  0  0  0  0  0
   -1.7935   -1.6319    0.3056 H   0  0  0  0  0  0  0  0  0  0  0  0
   -0.0273   -0.0785    1.6197 H   0  0  0  0  0  0  0  0  0  0  0  0
   -1.1971    1.9967    0.0902 H   0  0  0  0  0  0  0  0  0  0  0  0
    1.4005    1.7127   -0.0227 H   0  0  0  0  0  0  0  0  0  0  0  0
    2.0455    0.6202   -1.3440 H   0  0  0  0  0  0  0  0  0  0  0  0
    1.8148   -0.8575    1.2247 H   0  0  0  0  0  0  0  0  0  0  0  0
   -1.0161   -1.5050   -1.6253 H   0  0  0  0  0  0  0  0  0  0  0  0
    0.7197   -1.1955   -2.1718 H   0  0  0  0  0  0  0  0  0  0  0  0
  1  2  1  0
  2  3  1  0
  2  4  1  0
  4  5  1  0
  5  6  1  0
  6  7  2  0
  4  8  1  0
  8  9  1  0
  9  4  1  0
  1 10  1  0
  1 11  1  0
  1 12  1  0
  2 13  1  0
  3 14  1  0
  5 15  1  0
  5 16  1  0
  6 17  1  0
  8 18  1  0
  8 19  1  0
M  END
