
     RDKit          3D

 21 21  0  0  0  0  0  0  0  0999 V2000
   -2.2446    0.6234    1.0543 C   0  0  0  0  0  0  0  0  0  0  0  0
   -2.4337    0.5087   -0.4250 C   0  0  0  0  0  0  0  0  0  0  0  0
   -2.0385    1.6778   -1.0464 O   0  0  0  0  0  0  0  0  0  0  0  0
   -1.6768   -0.6407   -1.0407 C   0  0  0  0  0  0  0  0  0  0  0  0
   -0.2467   -0.4740   -0.7954 C   0  0  0  0  0  0  0  0  0  0  0  0
    0.9389   -0.3455   -0.6112 C   0  0  0  0  0  0  0  0  0  0  0  0
    2.3895   -0.2068   -0.3962 C   0  0  0  0  0  0  0  0  0  0  0  0
    2.8875    0.3145    0.8788 C   0  0  0  0  0  0  0  0  0  0  0  0
    3.0380   -1.1586    0.6050 C   0  0  0  0  0  0  0  0  0  0  0  0
   -3.1832    0.5334    1.6397 H   0  0  0  0  0  0  0  0  0  0  0  0
   -1.4907   -0.1501    1.3478 H   0  0  0  0  0  0  0  0  0  0  0  0
   -1.7949    1.5987    1.3601 H   0  0  0  0  0  0  0  0  0  0  0  0
   -3.5295    0.3703   -0.6535 H   0  0  0  0  0  0  0  0  0  0  0  0
   -2.0782    1.5564   -2.0273 H   0  0  0  0  0  0  0  0  0  0  0  0
   -2.0278   -1.6357   -0.7037 H   0  0  0  0  0  0  0  0  0  0  0  0
   -1.8748   -0.5834   -2.1476 H   0  0  0  0  0  0  0  0  0  0  0  0
    2.9598   -0.0904   -1.3539 H   0  0  0  0  0  0  0  0  0  0  0  0
    3.8524    0.8687    0.9437 H   0  0  0  0  0  0  0  0  0  0  0  0
    2.1610    0.6263    1.6358 H   0  0  0  0  0  0  0  0  0  0  0  0
    4.0170   -1.5790    0.3352 H   0  0  0  0  0  0  0  0  0  0  0  0
    2.3754   -1.8140    1.2126 H   0  0  0  0  0  0  0  0  0  0  0  0
  1  2  1  0
  2  3  1  0
  2  4  1  0
  4  5  1  0
  5  6  3  0
  6  7  1  0
  7  8  1  0
  8  9  1  0
  9  7  1  0
  1 10  1  0
  1 11  1  0
  1 12  1  0
  2 13  1  0
  3 14  1  0
  4 15  1  0
  4 16  1  0
  7 17  1  0
  8 18  1  0
  8 19  1  0
  9 20  1  0
  9 21  1  0
M  END
