
     RDKit          3D

 23 24  0  0  0  0  0  0  0  0999 V2000
   -2.6131    0.2494   -0.0197 C   0  0  0  0  0  0  0  0  0  0  0  0
   -1.2488    0.2415    0.6763 C   0  0  0  0  0  0  0  0  0  0  0  0
   -0.8724    1.5733    0.7913 O   0  0  0  0  0  0  0  0  0  0  0  0
   -0.2892   -0.5484   -0.1789 C   0  0  0  0  0  0  0  0  0  0  0  0
   -0.0935    0.0107   -1.5734 C   0  0  0  0  0  0  0  0  0  0  0  0
    1.3959   -0.2368   -1.3985 C   0  0  0  0  0  0  0  0  0  0  0  0
    1.1490   -0.3627    0.0620 C   0  0  0  0  0  0  0  0  0  0  0  0
    1.9794   -1.0901    0.9957 C   0  0  0  0  0  0  0  0  0  0  0  0
    1.7605    0.4500    1.0882 C   0  0  0  0  0  0  0  0  0  0  0  0
   -2.6603    1.0393   -0.7884 H   0  0  0  0  0  0  0  0  0  0  0  0
   -3.4386    0.3826    0.6805 H   0  0  0  0  0  0  0  0  0  0  0  0
   -2.7515   -0.7279   -0.5640 H   0  0  0  0  0  0  0  0  0  0  0  0
   -1.3356   -0.1955    1.6912 H   0  0  0  0  0  0  0  0  0  0  0  0
   -1.7055    2.0986    1.0020 H   0  0  0  0  0  0  0  0  0  0  0  0
   -0.5916   -1.6101   -0.2558 H   0  0  0  0  0  0  0  0  0  0  0  0
   -0.3703    1.1027   -1.5552 H   0  0  0  0  0  0  0  0  0  0  0  0
   -0.5777   -0.5645   -2.3758 H   0  0  0  0  0  0  0  0  0  0  0  0
    1.6935   -1.1761   -1.9209 H   0  0  0  0  0  0  0  0  0  0  0  0
    2.0363    0.6255   -1.6394 H   0  0  0  0  0  0  0  0  0  0  0  0
    1.6178   -1.6813    1.8430 H   0  0  0  0  0  0  0  0  0  0  0  0
    2.9993   -1.4070    0.6507 H   0  0  0  0  0  0  0  0  0  0  0  0
    2.6647    1.0538    0.7801 H   0  0  0  0  0  0  0  0  0  0  0  0
    1.2519    0.7728    2.0089 H   0  0  0  0  0  0  0  0  0  0  0  0
  1  2  1  0
  2  3  1  0
  2  4  1  0
  4  5  1  0
  5  6  1  0
  6  7  1  0
  7  8  1  0
  8  9  1  0
  7  4  1  0
  9  7  1  0
  1 10  1  0
  1 11  1  0
  1 12  1  0
  2 13  1  0
  3 14  1  0
  4 15  1  0
  5 16  1  0
  5 17  1  0
  6 18  1  0
  6 19  1  0
  8 20  1  0
  8 21  1  0
  9 22  1  0
  9 23  1  0
M  END
