
     RDKit          3D

 21 21  0  0  0  0  0  0  0  0999 V2000
    2.0802    1.0227   -0.2799 C   0  0  0  0  0  0  0  0  0  0  0  0
    1.5935   -0.4110   -0.0551 C   0  0  0  0  0  0  0  0  0  0  0  0
    2.3105   -0.9976    0.9650 O   0  0  0  0  0  0  0  0  0  0  0  0
    0.1468   -0.3317    0.2216 C   0  0  0  0  0  0  0  0  0  0  0  0
   -0.6895   -0.9669   -0.5905 C   0  0  0  0  0  0  0  0  0  0  0  0
   -2.1409   -0.8609   -0.2754 C   0  0  0  0  0  0  0  0  0  0  0  0
   -2.3306    0.5560    0.2861 C   0  0  0  0  0  0  0  0  0  0  0  0
   -1.6570    0.6018    1.4796 O   0  0  0  0  0  0  0  0  0  0  0  0
   -0.2997    0.4561    1.3965 C   0  0  0  0  0  0  0  0  0  0  0  0
    2.2580    1.4509    0.7231 H   0  0  0  0  0  0  0  0  0  0  0  0
    3.0184    1.0219   -0.8530 H   0  0  0  0  0  0  0  0  0  0  0  0
    1.2519    1.5410   -0.8161 H   0  0  0  0  0  0  0  0  0  0  0  0
    1.8229   -0.9597   -0.9964 H   0  0  0  0  0  0  0  0  0  0  0  0
    3.1585   -1.3660    0.5918 H   0  0  0  0  0  0  0  0  0  0  0  0
   -0.3540   -1.5398   -1.4462 H   0  0  0  0  0  0  0  0  0  0  0  0
   -2.3184   -1.5812    0.5730 H   0  0  0  0  0  0  0  0  0  0  0  0
   -2.7852   -1.0525   -1.1362 H   0  0  0  0  0  0  0  0  0  0  0  0
   -3.3797    0.8042    0.4331 H   0  0  0  0  0  0  0  0  0  0  0  0
   -1.8874    1.2607   -0.4654 H   0  0  0  0  0  0  0  0  0  0  0  0
    0.0274   -0.1051    2.3201 H   0  0  0  0  0  0  0  0  0  0  0  0
    0.1744    1.4572    1.4377 H   0  0  0  0  0  0  0  0  0  0  0  0
  1  2  1  0
  2  3  1  0
  2  4  1  0
  4  5  2  0
  5  6  1  0
  6  7  1  0
  7  8  1  0
  8  9  1  0
  9  4  1  0
  1 10  1  0
  1 11  1  0
  1 12  1  0
  2 13  1  0
  3 14  1  0
  5 15  1  0
  6 16  1  0
  6 17  1  0
  7 18  1  0
  7 19  1  0
  9 20  1  0
  9 21  1  0
M  END
