
     RDKit          3D

 21 21  0  0  0  0  0  0  0  0999 V2000
    2.5009    0.7544    0.6398 C   0  0  0  0  0  0  0  0  0  0  0  0
    1.3891   -0.1454    0.1616 C   0  0  0  0  0  0  0  0  0  0  0  0
    1.8946   -0.9584   -0.8485 O   0  0  0  0  0  0  0  0  0  0  0  0
    0.2690    0.7326   -0.3842 C   0  0  0  0  0  0  0  0  0  0  0  0
   -0.8423   -0.1538   -0.8625 C   0  0  0  0  0  0  0  0  0  0  0  0
   -1.4357   -1.0407    0.2263 C   0  0  0  0  0  0  0  0  0  0  0  0
   -2.7419   -0.8334   -0.4388 C   0  0  0  0  0  0  0  0  0  0  0  0
   -3.7698   -1.4465   -0.5686 O   0  0  0  0  0  0  0  0  0  0  0  0
   -2.2191    0.4807   -0.8809 C   0  0  0  0  0  0  0  0  0  0  0  0
    2.4395    0.9351    1.7398 H   0  0  0  0  0  0  0  0  0  0  0  0
    3.4783    0.2976    0.3790 H   0  0  0  0  0  0  0  0  0  0  0  0
    2.4137    1.7414    0.1232 H   0  0  0  0  0  0  0  0  0  0  0  0
    1.0390   -0.7994    0.9727 H   0  0  0  0  0  0  0  0  0  0  0  0
    2.8761   -1.0471   -0.8000 H   0  0  0  0  0  0  0  0  0  0  0  0
    0.6605    1.2896   -1.2532 H   0  0  0  0  0  0  0  0  0  0  0  0
   -0.0970    1.3840    0.4344 H   0  0  0  0  0  0  0  0  0  0  0  0
   -0.6063   -0.7161   -1.7846 H   0  0  0  0  0  0  0  0  0  0  0  0
   -1.0558   -2.0705    0.2315 H   0  0  0  0  0  0  0  0  0  0  0  0
   -1.3726   -0.4942    1.1898 H   0  0  0  0  0  0  0  0  0  0  0  0
   -2.5687    0.8254   -1.8712 H   0  0  0  0  0  0  0  0  0  0  0  0
   -2.2515    1.2646   -0.0774 H   0  0  0  0  0  0  0  0  0  0  0  0
  1  2  1  0
  2  3  1  0
  2  4  1  0
  4  5  1  0
  5  6  1  0
  6  7  1  0
  7  8  2  0
  7  9  1  0
  9  5  1  0
  1 10  1  0
  1 11  1  0
  1 12  1  0
  2 13  1  0
  3 14  1  0
  4 15  1  0
  4 16  1  0
  5 17  1  0
  6 18  1  0
  6 19  1  0
  9 20  1  0
  9 21  1  0
M  END
