
     RDKit          3D

 23 22  0  0  0  0  0  0  0  0999 V2000
    3.0639   -0.6530    0.0490 C   0  0  0  0  0  0  0  0  0  0  0  0
    1.9816    0.4087   -0.0520 C   0  0  0  0  0  0  0  0  0  0  0  0
    2.0356    1.1621    1.1029 O   0  0  0  0  0  0  0  0  0  0  0  0
    0.6661   -0.3169   -0.1694 C   0  0  0  0  0  0  0  0  0  0  0  0
   -0.5041    0.6509   -0.2783 C   0  0  0  0  0  0  0  0  0  0  0  0
   -1.7541   -0.2343   -0.3901 C   0  0  0  0  0  0  0  0  0  0  0  0
   -3.0008    0.5704   -0.5056 C   0  0  0  0  0  0  0  0  0  0  0  0
   -1.7510   -1.0713    0.8437 C   0  0  0  0  0  0  0  0  0  0  0  0
   -1.8975   -0.5228    1.9361 O   0  0  0  0  0  0  0  0  0  0  0  0
    2.8507   -1.2054    1.0035 H   0  0  0  0  0  0  0  0  0  0  0  0
    4.0738   -0.2476    0.0249 H   0  0  0  0  0  0  0  0  0  0  0  0
    2.8495   -1.3889   -0.7589 H   0  0  0  0  0  0  0  0  0  0  0  0
    2.1305    0.9888   -0.9755 H   0  0  0  0  0  0  0  0  0  0  0  0
    2.4075    2.0703    0.9253 H   0  0  0  0  0  0  0  0  0  0  0  0
    0.4541   -0.9430    0.7333 H   0  0  0  0  0  0  0  0  0  0  0  0
    0.6841   -1.0265   -1.0208 H   0  0  0  0  0  0  0  0  0  0  0  0
   -0.6406    1.2153    0.6669 H   0  0  0  0  0  0  0  0  0  0  0  0
   -0.4145    1.3438   -1.1144 H   0  0  0  0  0  0  0  0  0  0  0  0
   -1.5671   -0.9012   -1.2572 H   0  0  0  0  0  0  0  0  0  0  0  0
   -2.8272    1.6636   -0.5470 H   0  0  0  0  0  0  0  0  0  0  0  0
   -3.5666    0.2143   -1.4019 H   0  0  0  0  0  0  0  0  0  0  0  0
   -3.6477    0.3515    0.3763 H   0  0  0  0  0  0  0  0  0  0  0  0
   -1.6260   -2.1287    0.8090 H   0  0  0  0  0  0  0  0  0  0  0  0
  1  2  1  0
  2  3  1  0
  2  4  1  0
  4  5  1  0
  5  6  1  0
  6  7  1  0
  6  8  1  0
  8  9  2  0
  1 10  1  0
  1 11  1  0
  1 12  1  0
  2 13  1  0
  3 14  1  0
  4 15  1  0
  4 16  1  0
  5 17  1  0
  5 18  1  0
  6 19  1  0
  7 20  1  0
  7 21  1  0
  7 22  1  0
  8 23  1  0
M  END
