
     RDKit          3D

 20 20  0  0  0  0  0  0  0  0999 V2000
    1.8967   -0.7828    0.3852 C   0  0  0  0  0  0  0  0  0  0  0  0
    1.3339    0.5087   -0.0966 C   0  0  0  0  0  0  0  0  0  0  0  0
    1.8698    0.8378   -1.3426 O   0  0  0  0  0  0  0  0  0  0  0  0
   -0.1516    0.5332   -0.2211 C   0  0  0  0  0  0  0  0  0  0  0  0
   -0.8841    0.2738    1.0702 C   0  0  0  0  0  0  0  0  0  0  0  0
   -2.2456   -0.1254    0.4777 C   0  0  0  0  0  0  0  0  0  0  0  0
   -1.9833   -0.8260   -0.6715 O   0  0  0  0  0  0  0  0  0  0  0  0
   -0.7058   -0.5604   -1.0931 C   0  0  0  0  0  0  0  0  0  0  0  0
    1.8579   -1.5965   -0.3680 H   0  0  0  0  0  0  0  0  0  0  0  0
    2.9752   -0.6055    0.6556 H   0  0  0  0  0  0  0  0  0  0  0  0
    1.4074   -1.1028    1.3086 H   0  0  0  0  0  0  0  0  0  0  0  0
    1.6377    1.3027    0.6124 H   0  0  0  0  0  0  0  0  0  0  0  0
    1.3200    1.5888   -1.7146 H   0  0  0  0  0  0  0  0  0  0  0  0
   -0.4729    1.5215   -0.6061 H   0  0  0  0  0  0  0  0  0  0  0  0
   -0.9814    1.1777    1.6981 H   0  0  0  0  0  0  0  0  0  0  0  0
   -0.5361   -0.5856    1.6317 H   0  0  0  0  0  0  0  0  0  0  0  0
   -2.7084    0.8506    0.1775 H   0  0  0  0  0  0  0  0  0  0  0  0
   -2.8638   -0.6622    1.2129 H   0  0  0  0  0  0  0  0  0  0  0  0
   -0.6687   -0.2745   -2.1832 H   0  0  0  0  0  0  0  0  0  0  0  0
   -0.0968   -1.4731   -0.9334 H   0  0  0  0  0  0  0  0  0  0  0  0
  1  2  1  0
  2  3  1  0
  2  4  1  0
  4  5  1  0
  5  6  1  0
  6  7  1  0
  7  8  1  0
  8  4  1  0
  1  9  1  0
  1 10  1  0
  1 11  1  0
  2 12  1  0
  3 13  1  0
  4 14  1  0
  5 15  1  0
  5 16  1  0
  6 17  1  0
  6 18  1  0
  8 19  1  0
  8 20  1  0
M  END
