
     RDKit          3D

 23 23  0  0  0  0  0  0  0  0999 V2000
    2.5609    0.5127    0.4423 C   0  0  0  0  0  0  0  0  0  0  0  0
    1.7151   -0.3087   -0.4693 C   0  0  0  0  0  0  0  0  0  0  0  0
    1.5643   -1.5991    0.0678 O   0  0  0  0  0  0  0  0  0  0  0  0
    0.3501    0.2547   -0.7164 C   0  0  0  0  0  0  0  0  0  0  0  0
   -0.4850    0.4154    0.5056 C   0  0  0  0  0  0  0  0  0  0  0  0
    0.0356    1.2513    1.4738 O   0  0  0  0  0  0  0  0  0  0  0  0
   -1.2497   -0.7815    1.0637 C   0  0  0  0  0  0  0  0  0  0  0  0
   -1.9771    0.3812    0.4266 C   0  0  0  0  0  0  0  0  0  0  0  0
   -2.6545    0.0395   -0.8769 C   0  0  0  0  0  0  0  0  0  0  0  0
    3.5910    0.6366    0.0048 H   0  0  0  0  0  0  0  0  0  0  0  0
    2.7308    0.0268    1.4293 H   0  0  0  0  0  0  0  0  0  0  0  0
    2.1674    1.5459    0.5457 H   0  0  0  0  0  0  0  0  0  0  0  0
    2.2210   -0.4023   -1.4533 H   0  0  0  0  0  0  0  0  0  0  0  0
    2.4858   -1.9289    0.3175 H   0  0  0  0  0  0  0  0  0  0  0  0
    0.4257    1.2527   -1.2119 H   0  0  0  0  0  0  0  0  0  0  0  0
   -0.1410   -0.4091   -1.4763 H   0  0  0  0  0  0  0  0  0  0  0  0
    0.3622    0.7756    2.2713 H   0  0  0  0  0  0  0  0  0  0  0  0
   -1.3513   -0.8770    2.1634 H   0  0  0  0  0  0  0  0  0  0  0  0
   -1.1471   -1.7252    0.4814 H   0  0  0  0  0  0  0  0  0  0  0  0
   -2.5498    1.0712    1.0618 H   0  0  0  0  0  0  0  0  0  0  0  0
   -2.6341    0.8867   -1.6000 H   0  0  0  0  0  0  0  0  0  0  0  0
   -3.7387   -0.1249   -0.6537 H   0  0  0  0  0  0  0  0  0  0  0  0
   -2.2815   -0.8934   -1.3324 H   0  0  0  0  0  0  0  0  0  0  0  0
  1  2  1  0
  2  3  1  0
  2  4  1  0
  4  5  1  0
  5  6  1  0
  5  7  1  0
  7  8  1  0
  8  9  1  0
  8  5  1  0
  1 10  1  0
  1 11  1  0
  1 12  1  0
  2 13  1  0
  3 14  1  0
  4 15  1  0
  4 16  1  0
  6 17  1  0
  7 18  1  0
  7 19  1  0
  8 20  1  0
  9 21  1  0
  9 22  1  0
  9 23  1  0
M  END
