
     RDKit          3D

 19 19  0  0  0  0  0  0  0  0999 V2000
    1.9347    0.9980    0.4416 C   0  0  0  0  0  0  0  0  0  0  0  0
    0.9470    0.1326   -0.3371 C   0  0  0  0  0  0  0  0  0  0  0  0
    1.6740   -0.9337   -0.9001 O   0  0  0  0  0  0  0  0  0  0  0  0
   -0.0697   -0.3413    0.6415 C   0  0  0  0  0  0  0  0  0  0  0  0
   -1.2173   -1.2195    0.2777 C   0  0  0  0  0  0  0  0  0  0  0  0
   -1.2091   -1.6741   -1.0472 O   0  0  0  0  0  0  0  0  0  0  0  0
   -1.4536    0.2316    0.5573 C   0  0  0  0  0  0  0  0  0  0  0  0
   -1.9406    1.0544   -0.5467 C   0  0  0  0  0  0  0  0  0  0  0  0
   -1.6326    1.0177   -1.7062 O   0  0  0  0  0  0  0  0  0  0  0  0
    2.4477    1.6277   -0.2898 H   0  0  0  0  0  0  0  0  0  0  0  0
    1.3852    1.5785    1.2191 H   0  0  0  0  0  0  0  0  0  0  0  0
    2.6067    0.3096    0.9884 H   0  0  0  0  0  0  0  0  0  0  0  0
    0.5093    0.6672   -1.1780 H   0  0  0  0  0  0  0  0  0  0  0  0
    2.5990   -0.6307   -1.0283 H   0  0  0  0  0  0  0  0  0  0  0  0
    0.3516   -0.5155    1.6776 H   0  0  0  0  0  0  0  0  0  0  0  0
   -1.5529   -1.9969    0.9891 H   0  0  0  0  0  0  0  0  0  0  0  0
   -0.7384   -2.5551   -1.0186 H   0  0  0  0  0  0  0  0  0  0  0  0
   -1.9405    0.4213    1.5703 H   0  0  0  0  0  0  0  0  0  0  0  0
   -2.7004    1.8282   -0.3106 H   0  0  0  0  0  0  0  0  0  0  0  0
  1  2  1  0
  2  3  1  0
  2  4  1  0
  4  5  1  0
  5  6  1  0
  5  7  1  0
  7  8  1  0
  8  9  2  0
  7  4  1  0
  1 10  1  0
  1 11  1  0
  1 12  1  0
  2 13  1  0
  3 14  1  0
  4 15  1  0
  5 16  1  0
  6 17  1  0
  7 18  1  0
  8 19  1  0
M  END
