
     RDKit          3D

 20 19  0  0  0  0  0  0  0  0999 V2000
   -2.6520   -0.4860   -0.3035 C   0  0  0  0  0  0  0  0  0  0  0  0
   -1.2444   -0.1529    0.2109 C   0  0  0  0  0  0  0  0  0  0  0  0
   -1.4136    0.9248    1.0806 O   0  0  0  0  0  0  0  0  0  0  0  0
   -0.3449    0.2344   -0.9501 C   0  0  0  0  0  0  0  0  0  0  0  0
    1.0283    0.5598   -0.4471 C   0  0  0  0  0  0  0  0  0  0  0  0
    1.6936   -0.5940    0.2682 C   0  0  0  0  0  0  0  0  0  0  0  0
    3.0371   -0.1589    0.7170 C   0  0  0  0  0  0  0  0  0  0  0  0
    3.4253    0.9704    0.4851 O   0  0  0  0  0  0  0  0  0  0  0  0
   -2.6927   -1.5021   -0.7344 H   0  0  0  0  0  0  0  0  0  0  0  0
   -2.8782    0.3036   -1.0554 H   0  0  0  0  0  0  0  0  0  0  0  0
   -3.3299   -0.3661    0.5693 H   0  0  0  0  0  0  0  0  0  0  0  0
   -0.8720   -1.0415    0.7436 H   0  0  0  0  0  0  0  0  0  0  0  0
   -1.9580    1.6241    0.6193 H   0  0  0  0  0  0  0  0  0  0  0  0
   -0.7701    1.1679   -1.3713 H   0  0  0  0  0  0  0  0  0  0  0  0
   -0.3591   -0.5298   -1.7367 H   0  0  0  0  0  0  0  0  0  0  0  0
    0.9415    1.3934    0.2868 H   0  0  0  0  0  0  0  0  0  0  0  0
    1.7026    0.8293   -1.2927 H   0  0  0  0  0  0  0  0  0  0  0  0
    1.1177   -0.9321    1.1601 H   0  0  0  0  0  0  0  0  0  0  0  0
    1.8509   -1.4296   -0.4490 H   0  0  0  0  0  0  0  0  0  0  0  0
    3.7178   -0.8147    1.2601 H   0  0  0  0  0  0  0  0  0  0  0  0
  1  2  1  0
  2  3  1  0
  2  4  1  0
  4  5  1  0
  5  6  1  0
  6  7  1  0
  7  8  2  0
  1  9  1  0
  1 10  1  0
  1 11  1  0
  2 12  1  0
  3 13  1  0
  4 14  1  0
  4 15  1  0
  5 16  1  0
  5 17  1  0
  6 18  1  0
  6 19  1  0
  7 20  1  0
M  END
