
     RDKit          3D

 23 24  0  0  0  0  0  0  0  0999 V2000
    0.3817    0.1034    1.6228 C   0  0  0  0  0  0  0  0  0  0  0  0
   -0.0704   -0.6269    0.3524 C   0  0  0  0  0  0  0  0  0  0  0  0
    0.0139   -1.9950    0.6442 O   0  0  0  0  0  0  0  0  0  0  0  0
    0.7992   -0.2722   -0.8158 C   0  0  0  0  0  0  0  0  0  0  0  0
    2.2636   -0.6281   -0.6117 C   0  0  0  0  0  0  0  0  0  0  0  0
    1.7933    0.7972   -0.7916 C   0  0  0  0  0  0  0  0  0  0  0  0
   -1.5168   -0.3053    0.1306 C   0  0  0  0  0  0  0  0  0  0  0  0
   -1.8004    1.1602   -0.0493 C   0  0  0  0  0  0  0  0  0  0  0  0
   -2.0653    0.1871   -1.1296 C   0  0  0  0  0  0  0  0  0  0  0  0
    0.3860    1.1932    1.4873 H   0  0  0  0  0  0  0  0  0  0  0  0
   -0.2950   -0.1829    2.4538 H   0  0  0  0  0  0  0  0  0  0  0  0
    1.3979   -0.2148    1.9322 H   0  0  0  0  0  0  0  0  0  0  0  0
   -0.5188   -2.2010    1.4430 H   0  0  0  0  0  0  0  0  0  0  0  0
    0.3514   -0.5243   -1.8015 H   0  0  0  0  0  0  0  0  0  0  0  0
    2.6078   -0.8497    0.4179 H   0  0  0  0  0  0  0  0  0  0  0  0
    2.8053   -1.1114   -1.4692 H   0  0  0  0  0  0  0  0  0  0  0  0
    1.8518    1.4999    0.0579 H   0  0  0  0  0  0  0  0  0  0  0  0
    2.0872    1.2606   -1.7529 H   0  0  0  0  0  0  0  0  0  0  0  0
   -2.2024   -0.9033    0.7999 H   0  0  0  0  0  0  0  0  0  0  0  0
   -0.9524    1.8741   -0.0984 H   0  0  0  0  0  0  0  0  0  0  0  0
   -2.6328    1.5328    0.5738 H   0  0  0  0  0  0  0  0  0  0  0  0
   -1.5203    0.2179   -2.0902 H   0  0  0  0  0  0  0  0  0  0  0  0
   -3.1645   -0.0115   -1.3056 H   0  0  0  0  0  0  0  0  0  0  0  0
  1  2  1  0
  2  3  1  0
  2  4  1  0
  4  5  1  0
  5  6  1  0
  2  7  1  0
  7  8  1  0
  8  9  1  0
  6  4  1  0
  9  7  1  0
  1 10  1  0
  1 11  1  0
  1 12  1  0
  3 13  1  0
  4 14  1  0
  5 15  1  0
  5 16  1  0
  6 17  1  0
  6 18  1  0
  7 19  1  0
  8 20  1  0
  8 21  1  0
  9 22  1  0
  9 23  1  0
M  END
