
     RDKit          3D

 19 18  0  0  0  0  0  0  0  0999 V2000
   -2.0576    0.0936    0.5862 C   0  0  0  0  0  0  0  0  0  0  0  0
   -0.7723   -0.4825    0.0897 C   0  0  0  0  0  0  0  0  0  0  0  0
   -1.0627   -1.5210   -0.7805 O   0  0  0  0  0  0  0  0  0  0  0  0
    0.1429    0.5445   -0.5273 C   0  0  0  0  0  0  0  0  0  0  0  0
    0.4864    1.5880    0.4740 C   0  0  0  0  0  0  0  0  0  0  0  0
    0.9959    2.6430    0.1462 O   0  0  0  0  0  0  0  0  0  0  0  0
    1.4337   -0.1295   -0.9631 C   0  0  0  0  0  0  0  0  0  0  0  0
    2.1432   -0.7584    0.1683 C   0  0  0  0  0  0  0  0  0  0  0  0
    2.8118   -0.0874    0.9162 O   0  0  0  0  0  0  0  0  0  0  0  0
   -2.3913   -0.4476    1.5206 H   0  0  0  0  0  0  0  0  0  0  0  0
   -1.9953    1.1961    0.7639 H   0  0  0  0  0  0  0  0  0  0  0  0
   -2.9196   -0.0654   -0.1238 H   0  0  0  0  0  0  0  0  0  0  0  0
   -0.2038   -0.9378    0.9417 H   0  0  0  0  0  0  0  0  0  0  0  0
   -1.8829   -1.9705   -0.4250 H   0  0  0  0  0  0  0  0  0  0  0  0
   -0.2921    1.0083   -1.4426 H   0  0  0  0  0  0  0  0  0  0  0  0
    0.2752    1.3989    1.5242 H   0  0  0  0  0  0  0  0  0  0  0  0
    1.1627   -0.9109   -1.7238 H   0  0  0  0  0  0  0  0  0  0  0  0
    2.0663    0.6546   -1.4643 H   0  0  0  0  0  0  0  0  0  0  0  0
    2.0597   -1.8161    0.3195 H   0  0  0  0  0  0  0  0  0  0  0  0
  1  2  1  0
  2  3  1  0
  2  4  1  0
  4  5  1  0
  5  6  2  0
  4  7  1  0
  7  8  1  0
  8  9  2  0
  1 10  1  0
  1 11  1  0
  1 12  1  0
  2 13  1  0
  3 14  1  0
  4 15  1  0
  5 16  1  0
  7 17  1  0
  7 18  1  0
  8 19  1  0
M  END
