
     RDKit          3D

 21 21  0  0  0  0  0  0  0  0999 V2000
    2.5147    0.6966   -0.3172 C   0  0  0  0  0  0  0  0  0  0  0  0
    1.5485   -0.0871    0.4856 C   0  0  0  0  0  0  0  0  0  0  0  0
    1.8395   -1.4574    0.4623 O   0  0  0  0  0  0  0  0  0  0  0  0
    0.1226    0.1647    0.1385 C   0  0  0  0  0  0  0  0  0  0  0  0
   -0.3731    0.9877   -0.7798 C   0  0  0  0  0  0  0  0  0  0  0  0
   -1.8743    0.9146   -0.7786 C   0  0  0  0  0  0  0  0  0  0  0  0
   -2.0336   -0.5382   -0.3036 C   0  0  0  0  0  0  0  0  0  0  0  0
   -1.0080   -0.5087    0.8128 C   0  0  0  0  0  0  0  0  0  0  0  0
   -0.7006   -1.7587    1.2990 O   0  0  0  0  0  0  0  0  0  0  0  0
    3.3990    0.0567   -0.6062 H   0  0  0  0  0  0  0  0  0  0  0  0
    2.9773    1.5228    0.2954 H   0  0  0  0  0  0  0  0  0  0  0  0
    2.1383    1.1257   -1.2454 H   0  0  0  0  0  0  0  0  0  0  0  0
    1.6587    0.2107    1.5693 H   0  0  0  0  0  0  0  0  0  0  0  0
    1.5961   -1.8632   -0.4161 H   0  0  0  0  0  0  0  0  0  0  0  0
    0.1691    1.6217   -1.4391 H   0  0  0  0  0  0  0  0  0  0  0  0
   -2.3097    1.0688   -1.7627 H   0  0  0  0  0  0  0  0  0  0  0  0
   -2.2496    1.5704    0.0180 H   0  0  0  0  0  0  0  0  0  0  0  0
   -1.6519   -1.2151   -1.0983 H   0  0  0  0  0  0  0  0  0  0  0  0
   -3.0403   -0.7502    0.0358 H   0  0  0  0  0  0  0  0  0  0  0  0
   -1.4018    0.1834    1.5817 H   0  0  0  0  0  0  0  0  0  0  0  0
   -1.3209   -1.9453    2.0487 H   0  0  0  0  0  0  0  0  0  0  0  0
  1  2  1  0
  2  3  1  0
  2  4  1  0
  4  5  2  0
  5  6  1  0
  6  7  1  0
  7  8  1  0
  8  9  1  0
  8  4  1  0
  1 10  1  0
  1 11  1  0
  1 12  1  0
  2 13  1  0
  3 14  1  0
  5 15  1  0
  6 16  1  0
  6 17  1  0
  7 18  1  0
  7 19  1  0
  8 20  1  0
  9 21  1  0
M  END
