
     RDKit          3D

 21 21  0  0  0  0  0  0  0  0999 V2000
    2.2069    0.8414    0.6840 C   0  0  0  0  0  0  0  0  0  0  0  0
    1.7255   -0.3828   -0.0293 C   0  0  0  0  0  0  0  0  0  0  0  0
    2.1060   -1.5602    0.6189 O   0  0  0  0  0  0  0  0  0  0  0  0
    0.2522   -0.3761   -0.2062 C   0  0  0  0  0  0  0  0  0  0  0  0
   -0.6018   -1.2710    0.2633 C   0  0  0  0  0  0  0  0  0  0  0  0
   -1.9779   -0.8950   -0.1381 C   0  0  0  0  0  0  0  0  0  0  0  0
   -1.8691    0.5818   -0.3443 C   0  0  0  0  0  0  0  0  0  0  0  0
   -1.8399    1.1876    0.9115 O   0  0  0  0  0  0  0  0  0  0  0  0
   -0.4937    0.6932   -0.9678 C   0  0  0  0  0  0  0  0  0  0  0  0
    3.0234    1.3176    0.0683 H   0  0  0  0  0  0  0  0  0  0  0  0
    2.7008    0.6115    1.6640 H   0  0  0  0  0  0  0  0  0  0  0  0
    1.3690    1.5527    0.8159 H   0  0  0  0  0  0  0  0  0  0  0  0
    2.1693   -0.4429   -1.0517 H   0  0  0  0  0  0  0  0  0  0  0  0
    2.0035   -2.2839   -0.0383 H   0  0  0  0  0  0  0  0  0  0  0  0
   -0.3174   -2.1374    0.8485 H   0  0  0  0  0  0  0  0  0  0  0  0
   -2.6491   -1.1099    0.7434 H   0  0  0  0  0  0  0  0  0  0  0  0
   -2.3244   -1.4503   -1.0366 H   0  0  0  0  0  0  0  0  0  0  0  0
   -2.6648    1.0026   -0.9886 H   0  0  0  0  0  0  0  0  0  0  0  0
   -2.3445    2.0411    0.9350 H   0  0  0  0  0  0  0  0  0  0  0  0
   -0.4667    0.4183   -2.0221 H   0  0  0  0  0  0  0  0  0  0  0  0
   -0.0073    1.6616   -0.7300 H   0  0  0  0  0  0  0  0  0  0  0  0
  1  2  1  0
  2  3  1  0
  2  4  1  0
  4  5  2  0
  5  6  1  0
  6  7  1  0
  7  8  1  0
  7  9  1  0
  9  4  1  0
  1 10  1  0
  1 11  1  0
  1 12  1  0
  2 13  1  0
  3 14  1  0
  5 15  1  0
  6 16  1  0
  6 17  1  0
  7 18  1  0
  8 19  1  0
  9 20  1  0
  9 21  1  0
M  END
