
     RDKit          3D

 19 18  0  0  0  0  0  0  0  0999 V2000
   -1.0108    1.4317   -0.6401 C   0  0  0  0  0  0  0  0  0  0  0  0
   -0.7891    0.4693    0.4650 C   0  0  0  0  0  0  0  0  0  0  0  0
   -0.7369    1.2055    1.6589 O   0  0  0  0  0  0  0  0  0  0  0  0
    0.4239   -0.3920    0.3388 C   0  0  0  0  0  0  0  0  0  0  0  0
    1.7132    0.3299    0.2713 C   0  0  0  0  0  0  0  0  0  0  0  0
    0.2692   -1.3465   -0.8285 C   0  0  0  0  0  0  0  0  0  0  0  0
   -0.8759   -2.1231   -0.5375 O   0  0  0  0  0  0  0  0  0  0  0  0
   -0.7159    1.1079   -1.6360 H   0  0  0  0  0  0  0  0  0  0  0  0
   -2.1208    1.6392   -0.6976 H   0  0  0  0  0  0  0  0  0  0  0  0
   -0.5740    2.4307   -0.3563 H   0  0  0  0  0  0  0  0  0  0  0  0
   -1.6823   -0.1824    0.5553 H   0  0  0  0  0  0  0  0  0  0  0  0
   -1.2448    0.7636    2.3761 H   0  0  0  0  0  0  0  0  0  0  0  0
    0.4441   -1.0483    1.2575 H   0  0  0  0  0  0  0  0  0  0  0  0
    2.4215    0.0282    1.0916 H   0  0  0  0  0  0  0  0  0  0  0  0
    2.2607    0.0671   -0.6772 H   0  0  0  0  0  0  0  0  0  0  0  0
    1.6504    1.4264    0.3225 H   0  0  0  0  0  0  0  0  0  0  0  0
    1.1528   -1.9857   -0.9681 H   0  0  0  0  0  0  0  0  0  0  0  0
    0.0423   -0.7812   -1.7356 H   0  0  0  0  0  0  0  0  0  0  0  0
   -0.6278   -3.0402   -0.2600 H   0  0  0  0  0  0  0  0  0  0  0  0
  1  2  1  0
  2  3  1  0
  2  4  1  0
  4  5  1  0
  4  6  1  0
  6  7  1  0
  1  8  1  0
  1  9  1  0
  1 10  1  0
  2 11  1  0
  3 12  1  0
  4 13  1  0
  5 14  1  0
  5 15  1  0
  5 16  1  0
  6 17  1  0
  6 18  1  0
  7 19  1  0
M  END
