
     RDKit          3D

 21 22  0  0  0  0  0  0  0  0999 V2000
   -2.2935    0.0020   -0.7420 C   0  0  0  0  0  0  0  0  0  0  0  0
   -1.2640   -0.4446    0.2484 C   0  0  0  0  0  0  0  0  0  0  0  0
   -1.8631   -0.4520    1.5071 O   0  0  0  0  0  0  0  0  0  0  0  0
   -0.0645    0.4521    0.3365 C   0  0  0  0  0  0  0  0  0  0  0  0
    0.6610    0.5471   -1.0187 C   0  0  0  0  0  0  0  0  0  0  0  0
    1.7654   -0.4359   -0.6973 C   0  0  0  0  0  0  0  0  0  0  0  0
    2.3289    0.1866    0.5639 C   0  0  0  0  0  0  0  0  0  0  0  0
    1.0161   -0.3468    1.0544 C   0  0  0  0  0  0  0  0  0  0  0  0
    1.2003   -1.4004    0.1351 O   0  0  0  0  0  0  0  0  0  0  0  0
   -2.5690    1.0586   -0.6116 H   0  0  0  0  0  0  0  0  0  0  0  0
   -3.2310   -0.5827   -0.5102 H   0  0  0  0  0  0  0  0  0  0  0  0
   -2.0505   -0.2667   -1.7901 H   0  0  0  0  0  0  0  0  0  0  0  0
   -0.9770   -1.4928    0.0342 H   0  0  0  0  0  0  0  0  0  0  0  0
   -2.4578    0.3227    1.5862 H   0  0  0  0  0  0  0  0  0  0  0  0
   -0.2587    1.4228    0.7795 H   0  0  0  0  0  0  0  0  0  0  0  0
    1.1382    1.5499   -1.0995 H   0  0  0  0  0  0  0  0  0  0  0  0
    0.0333    0.2663   -1.8485 H   0  0  0  0  0  0  0  0  0  0  0  0
    2.4347   -0.7360   -1.4662 H   0  0  0  0  0  0  0  0  0  0  0  0
    3.1641   -0.3433    1.0084 H   0  0  0  0  0  0  0  0  0  0  0  0
    2.4093    1.2825    0.4543 H   0  0  0  0  0  0  0  0  0  0  0  0
    0.8778   -0.5895    2.0763 H   0  0  0  0  0  0  0  0  0  0  0  0
  1  2  1  0
  2  3  1  0
  2  4  1  0
  4  5  1  0
  5  6  1  0
  6  7  1  0
  7  8  1  0
  8  9  1  0
  8  4  1  0
  9  6  1  0
  1 10  1  0
  1 11  1  0
  1 12  1  0
  2 13  1  0
  3 14  1  0
  4 15  1  0
  5 16  1  0
  5 17  1  0
  6 18  1  0
  7 19  1  0
  7 20  1  0
  8 21  1  0
M  END
