
     RDKit          3D

 23 22  0  0  0  0  0  0  0  0999 V2000
    2.8279    0.4352   -0.0046 C   0  0  0  0  0  0  0  0  0  0  0  0
    1.4161   -0.0925   -0.3056 C   0  0  0  0  0  0  0  0  0  0  0  0
    1.3937   -1.4023    0.1705 O   0  0  0  0  0  0  0  0  0  0  0  0
    0.4015    0.7738    0.3688 C   0  0  0  0  0  0  0  0  0  0  0  0
   -1.0083    0.3695    0.1526 C   0  0  0  0  0  0  0  0  0  0  0  0
   -1.4262    0.3698   -1.2991 C   0  0  0  0  0  0  0  0  0  0  0  0
   -2.7716   -0.0320   -1.3211 O   0  0  0  0  0  0  0  0  0  0  0  0
   -1.3674   -0.9887    0.7143 C   0  0  0  0  0  0  0  0  0  0  0  0
   -1.1578   -1.0218    2.1024 O   0  0  0  0  0  0  0  0  0  0  0  0
    2.8734    1.5146   -0.2943 H   0  0  0  0  0  0  0  0  0  0  0  0
    3.4967   -0.1251   -0.7057 H   0  0  0  0  0  0  0  0  0  0  0  0
    3.1064    0.2539    1.0373 H   0  0  0  0  0  0  0  0  0  0  0  0
    1.3428   -0.1210   -1.3954 H   0  0  0  0  0  0  0  0  0  0  0  0
    2.2945   -1.7778    0.1805 H   0  0  0  0  0  0  0  0  0  0  0  0
    0.5371    1.8425    0.1101 H   0  0  0  0  0  0  0  0  0  0  0  0
    0.6202    0.7190    1.4731 H   0  0  0  0  0  0  0  0  0  0  0  0
   -1.6919    1.0937    0.6613 H   0  0  0  0  0  0  0  0  0  0  0  0
   -0.8751   -0.4272   -1.8591 H   0  0  0  0  0  0  0  0  0  0  0  0
   -1.3081    1.3633   -1.7716 H   0  0  0  0  0  0  0  0  0  0  0  0
   -3.3501    0.7599   -1.2075 H   0  0  0  0  0  0  0  0  0  0  0  0
   -0.8944   -1.8161    0.1791 H   0  0  0  0  0  0  0  0  0  0  0  0
   -2.4773   -1.0942    0.5183 H   0  0  0  0  0  0  0  0  0  0  0  0
   -1.9824   -0.5966    2.4959 H   0  0  0  0  0  0  0  0  0  0  0  0
  1  2  1  0
  2  3  1  0
  2  4  1  0
  4  5  1  0
  5  6  1  0
  6  7  1  0
  5  8  1  0
  8  9  1  0
  1 10  1  0
  1 11  1  0
  1 12  1  0
  2 13  1  0
  3 14  1  0
  4 15  1  0
  4 16  1  0
  5 17  1  0
  6 18  1  0
  6 19  1  0
  7 20  1  0
  8 21  1  0
  8 22  1  0
  9 23  1  0
M  END
