
     RDKit          3D

 21 22  0  0  0  0  0  0  0  0999 V2000
    2.5366   -0.2364   -0.8527 C   0  0  0  0  0  0  0  0  0  0  0  0
    1.4105    0.4337   -0.0735 C   0  0  0  0  0  0  0  0  0  0  0  0
    1.6331    0.2622    1.2700 O   0  0  0  0  0  0  0  0  0  0  0  0
    0.0852   -0.2074   -0.5176 C   0  0  0  0  0  0  0  0  0  0  0  0
    0.1702   -1.5725   -0.2279 O   0  0  0  0  0  0  0  0  0  0  0  0
   -1.1204   -1.3453    0.2683 C   0  0  0  0  0  0  0  0  0  0  0  0
   -0.9808    0.0518    0.4154 C   0  0  0  0  0  0  0  0  0  0  0  0
   -2.3495    0.5520    0.4579 C   0  0  0  0  0  0  0  0  0  0  0  0
   -1.2799    1.4228    0.3319 C   0  0  0  0  0  0  0  0  0  0  0  0
    3.1172   -0.9250   -0.1815 H   0  0  0  0  0  0  0  0  0  0  0  0
    3.1939    0.5110   -1.3285 H   0  0  0  0  0  0  0  0  0  0  0  0
    2.1172   -0.8863   -1.6453 H   0  0  0  0  0  0  0  0  0  0  0  0
    1.3782    1.5216   -0.2766 H   0  0  0  0  0  0  0  0  0  0  0  0
    1.3569   -0.6771    1.5100 H   0  0  0  0  0  0  0  0  0  0  0  0
   -0.0696   -0.0857   -1.6083 H   0  0  0  0  0  0  0  0  0  0  0  0
   -1.2151   -1.9191    1.2368 H   0  0  0  0  0  0  0  0  0  0  0  0
   -1.8244   -1.8249   -0.4674 H   0  0  0  0  0  0  0  0  0  0  0  0
   -2.8554    0.3430    1.4364 H   0  0  0  0  0  0  0  0  0  0  0  0
   -3.0858    0.4158   -0.3881 H   0  0  0  0  0  0  0  0  0  0  0  0
   -1.2460    2.1024   -0.5775 H   0  0  0  0  0  0  0  0  0  0  0  0
   -0.9721    2.0632    1.2182 H   0  0  0  0  0  0  0  0  0  0  0  0
  1  2  1  0
  2  3  1  0
  2  4  1  0
  4  5  1  0
  5  6  1  0
  6  7  1  0
  7  8  1  0
  8  9  1  0
  7  4  1  0
  9  7  1  0
  1 10  1  0
  1 11  1  0
  1 12  1  0
  2 13  1  0
  3 14  1  0
  4 15  1  0
  6 16  1  0
  6 17  1  0
  8 18  1  0
  8 19  1  0
  9 20  1  0
  9 21  1  0
M  END
