
     RDKit          3D

 22 21  0  0  0  0  0  0  0  0999 V2000
   -2.1539    0.2889    0.9426 C   0  0  0  0  0  0  0  0  0  0  0  0
   -1.7119   -0.0395   -0.4769 C   0  0  0  0  0  0  0  0  0  0  0  0
   -1.3284    1.1271   -1.1037 O   0  0  0  0  0  0  0  0  0  0  0  0
   -0.7424   -1.1600   -0.5279 C   0  0  0  0  0  0  0  0  0  0  0  0
    0.5319   -1.0027    0.2092 C   0  0  0  0  0  0  0  0  0  0  0  0
    1.2927    0.1878   -0.3185 C   0  0  0  0  0  0  0  0  0  0  0  0
    2.6257    0.3477    0.4168 C   0  0  0  0  0  0  0  0  0  0  0  0
    2.3301    0.5291    1.7642 O   0  0  0  0  0  0  0  0  0  0  0  0
   -2.8367    1.1470    0.8671 H   0  0  0  0  0  0  0  0  0  0  0  0
   -2.7164   -0.5602    1.3601 H   0  0  0  0  0  0  0  0  0  0  0  0
   -1.2913    0.5506    1.5845 H   0  0  0  0  0  0  0  0  0  0  0  0
   -2.6752   -0.3843   -0.9779 H   0  0  0  0  0  0  0  0  0  0  0  0
   -1.8218    1.8702   -0.6715 H   0  0  0  0  0  0  0  0  0  0  0  0
   -1.2939   -2.0692   -0.1403 H   0  0  0  0  0  0  0  0  0  0  0  0
   -0.5735   -1.4099   -1.6184 H   0  0  0  0  0  0  0  0  0  0  0  0
    1.1764   -1.8951   -0.0002 H   0  0  0  0  0  0  0  0  0  0  0  0
    0.4128   -0.9660    1.3119 H   0  0  0  0  0  0  0  0  0  0  0  0
    1.3982    0.1444   -1.4005 H   0  0  0  0  0  0  0  0  0  0  0  0
    0.6716    1.0945   -0.0424 H   0  0  0  0  0  0  0  0  0  0  0  0
    3.2117   -0.5659    0.2166 H   0  0  0  0  0  0  0  0  0  0  0  0
    3.0908    1.2638   -0.0266 H   0  0  0  0  0  0  0  0  0  0  0  0
    2.4037    1.5018    2.0202 H   0  0  0  0  0  0  0  0  0  0  0  0
  1  2  1  0
  2  3  1  0
  2  4  1  0
  4  5  1  0
  5  6  1  0
  6  7  1  0
  7  8  1  0
  1  9  1  0
  1 10  1  0
  1 11  1  0
  2 12  1  0
  3 13  1  0
  4 14  1  0
  4 15  1  0
  5 16  1  0
  5 17  1  0
  6 18  1  0
  6 19  1  0
  7 20  1  0
  7 21  1  0
  8 22  1  0
M  END
