
     RDKit          3D

 20 20  0  0  0  0  0  0  0  0999 V2000
    2.2144    0.2795   -0.5859 C   0  0  0  0  0  0  0  0  0  0  0  0
    1.5624   -0.2272    0.6801 C   0  0  0  0  0  0  0  0  0  0  0  0
    1.4363    0.7897    1.6036 O   0  0  0  0  0  0  0  0  0  0  0  0
    0.2547   -0.9030    0.3602 C   0  0  0  0  0  0  0  0  0  0  0  0
   -0.7302    0.0128   -0.3124 C   0  0  0  0  0  0  0  0  0  0  0  0
   -2.0518   -0.6586   -0.6392 C   0  0  0  0  0  0  0  0  0  0  0  0
   -1.9922    0.4041    0.3711 C   0  0  0  0  0  0  0  0  0  0  0  0
   -2.5554    1.6255    0.0516 O   0  0  0  0  0  0  0  0  0  0  0  0
    2.4264    1.3662   -0.4950 H   0  0  0  0  0  0  0  0  0  0  0  0
    3.1731   -0.2717   -0.7794 H   0  0  0  0  0  0  0  0  0  0  0  0
    1.5582    0.0532   -1.4642 H   0  0  0  0  0  0  0  0  0  0  0  0
    2.2220   -1.0004    1.1304 H   0  0  0  0  0  0  0  0  0  0  0  0
    2.2459    1.3784    1.5291 H   0  0  0  0  0  0  0  0  0  0  0  0
   -0.2071   -1.3714    1.2430 H   0  0  0  0  0  0  0  0  0  0  0  0
    0.4753   -1.7238   -0.3606 H   0  0  0  0  0  0  0  0  0  0  0  0
   -0.3100    0.7385   -1.0147 H   0  0  0  0  0  0  0  0  0  0  0  0
   -2.3982   -0.4783   -1.6660 H   0  0  0  0  0  0  0  0  0  0  0  0
   -2.2409   -1.6869   -0.2731 H   0  0  0  0  0  0  0  0  0  0  0  0
   -2.0333    0.1215    1.4420 H   0  0  0  0  0  0  0  0  0  0  0  0
   -3.0495    1.5518   -0.8206 H   0  0  0  0  0  0  0  0  0  0  0  0
  1  2  1  0
  2  3  1  0
  2  4  1  0
  4  5  1  0
  5  6  1  0
  6  7  1  0
  7  8  1  0
  7  5  1  0
  1  9  1  0
  1 10  1  0
  1 11  1  0
  2 12  1  0
  3 13  1  0
  4 14  1  0
  4 15  1  0
  5 16  1  0
  6 17  1  0
  6 18  1  0
  7 19  1  0
  8 20  1  0
M  END
