
     RDKit          3D

 21 21  0  0  0  0  0  0  0  0999 V2000
   -2.2277    0.7211    0.1551 C   0  0  0  0  0  0  0  0  0  0  0  0
   -1.3473   -0.4691   -0.1453 C   0  0  0  0  0  0  0  0  0  0  0  0
   -1.4155   -1.4568    0.8008 O   0  0  0  0  0  0  0  0  0  0  0  0
    0.0581    0.0267   -0.3703 C   0  0  0  0  0  0  0  0  0  0  0  0
    0.0421    1.0113   -1.3288 O   0  0  0  0  0  0  0  0  0  0  0  0
    1.0238   -1.0857   -0.6725 C   0  0  0  0  0  0  0  0  0  0  0  0
    2.3391   -0.4277   -0.3387 C   0  0  0  0  0  0  0  0  0  0  0  0
    2.1288    0.5345    0.5557 C   0  0  0  0  0  0  0  0  0  0  0  0
    0.6677    0.6009    0.8928 C   0  0  0  0  0  0  0  0  0  0  0  0
   -2.0643    1.1083    1.1942 H   0  0  0  0  0  0  0  0  0  0  0  0
   -3.2978    0.5192   -0.0551 H   0  0  0  0  0  0  0  0  0  0  0  0
   -1.9270    1.5203   -0.5782 H   0  0  0  0  0  0  0  0  0  0  0  0
   -1.6995   -0.8923   -1.1088 H   0  0  0  0  0  0  0  0  0  0  0  0
   -1.7518   -1.1278    1.6652 H   0  0  0  0  0  0  0  0  0  0  0  0
    0.5798    0.8108   -2.1133 H   0  0  0  0  0  0  0  0  0  0  0  0
    0.9867   -1.4638   -1.6884 H   0  0  0  0  0  0  0  0  0  0  0  0
    0.8659   -1.8735    0.1135 H   0  0  0  0  0  0  0  0  0  0  0  0
    3.2688   -0.7472   -0.7994 H   0  0  0  0  0  0  0  0  0  0  0  0
    2.9418    1.1406    0.9390 H   0  0  0  0  0  0  0  0  0  0  0  0
    0.3310    1.6154    1.1179 H   0  0  0  0  0  0  0  0  0  0  0  0
    0.4973   -0.0651    1.7647 H   0  0  0  0  0  0  0  0  0  0  0  0
  1  2  1  0
  2  3  1  0
  2  4  1  0
  4  5  1  0
  4  6  1  0
  6  7  1  0
  7  8  2  0
  8  9  1  0
  9  4  1  0
  1 10  1  0
  1 11  1  0
  1 12  1  0
  2 13  1  0
  3 14  1  0
  5 15  1  0
  6 16  1  0
  6 17  1  0
  7 18  1  0
  8 19  1  0
  9 20  1  0
  9 21  1  0
M  END
