
     RDKit          3D

 21 21  0  0  0  0  0  0  0  0999 V2000
    2.5123   -0.0743   -0.3806 C   0  0  0  0  0  0  0  0  0  0  0  0
    1.2174    0.4913    0.1685 C   0  0  0  0  0  0  0  0  0  0  0  0
    1.0884    0.1082    1.4972 O   0  0  0  0  0  0  0  0  0  0  0  0
    0.0585    0.0435   -0.6741 C   0  0  0  0  0  0  0  0  0  0  0  0
   -0.1575   -1.3207   -0.7297 O   0  0  0  0  0  0  0  0  0  0  0  0
   -1.5059   -1.0487   -0.9651 C   0  0  0  0  0  0  0  0  0  0  0  0
   -1.3070    0.2268   -0.1356 C   0  0  0  0  0  0  0  0  0  0  0  0
   -1.5421   -0.1032    1.3100 C   0  0  0  0  0  0  0  0  0  0  0  0
   -2.0008    1.2984   -0.6410 O   0  0  0  0  0  0  0  0  0  0  0  0
    2.9410   -0.8633    0.2802 H   0  0  0  0  0  0  0  0  0  0  0  0
    3.2622    0.7468   -0.5119 H   0  0  0  0  0  0  0  0  0  0  0  0
    2.3689   -0.5277   -1.3971 H   0  0  0  0  0  0  0  0  0  0  0  0
    1.2733    1.5915    0.1468 H   0  0  0  0  0  0  0  0  0  0  0  0
    2.0122   -0.0169    1.8656 H   0  0  0  0  0  0  0  0  0  0  0  0
    0.1351    0.4531   -1.7013 H   0  0  0  0  0  0  0  0  0  0  0  0
   -1.7232   -0.7334   -2.0153 H   0  0  0  0  0  0  0  0  0  0  0  0
   -2.2205   -1.7453   -0.5193 H   0  0  0  0  0  0  0  0  0  0  0  0
   -1.2285   -1.1318    1.5765 H   0  0  0  0  0  0  0  0  0  0  0  0
   -1.1301    0.6085    2.0245 H   0  0  0  0  0  0  0  0  0  0  0  0
   -2.6604   -0.0936    1.4678 H   0  0  0  0  0  0  0  0  0  0  0  0
   -1.3932    2.0909   -0.6660 H   0  0  0  0  0  0  0  0  0  0  0  0
  1  2  1  0
  2  3  1  0
  2  4  1  0
  4  5  1  0
  5  6  1  0
  6  7  1  0
  7  8  1  0
  7  9  1  0
  7  4  1  0
  1 10  1  0
  1 11  1  0
  1 12  1  0
  2 13  1  0
  3 14  1  0
  4 15  1  0
  6 16  1  0
  6 17  1  0
  8 18  1  0
  8 19  1  0
  8 20  1  0
  9 21  1  0
M  END
