
     RDKit          3D

 21 21  0  0  0  0  0  0  0  0999 V2000
   -1.3436    1.6166   -0.0396 C   0  0  0  0  0  0  0  0  0  0  0  0
   -0.7095    0.2376   -0.1367 C   0  0  0  0  0  0  0  0  0  0  0  0
   -1.1352   -0.3652   -1.3124 O   0  0  0  0  0  0  0  0  0  0  0  0
   -1.1939   -0.5694    1.0145 C   0  0  0  0  0  0  0  0  0  0  0  0
   -2.5783   -0.6200    0.9797 O   0  0  0  0  0  0  0  0  0  0  0  0
    0.7768    0.4292   -0.1835 C   0  0  0  0  0  0  0  0  0  0  0  0
    1.5632   -0.8244   -0.2797 C   0  0  0  0  0  0  0  0  0  0  0  0
    3.0301   -0.7222   -0.3304 C   0  0  0  0  0  0  0  0  0  0  0  0
    2.4136   -0.9924    0.9257 O   0  0  0  0  0  0  0  0  0  0  0  0
   -1.5905    1.9890   -1.0376 H   0  0  0  0  0  0  0  0  0  0  0  0
   -0.6503    2.3363    0.4553 H   0  0  0  0  0  0  0  0  0  0  0  0
   -2.2596    1.5962    0.5998 H   0  0  0  0  0  0  0  0  0  0  0  0
   -1.9725    0.0609   -1.6361 H   0  0  0  0  0  0  0  0  0  0  0  0
   -0.8182   -1.6069    1.0389 H   0  0  0  0  0  0  0  0  0  0  0  0
   -0.9143   -0.1220    2.0012 H   0  0  0  0  0  0  0  0  0  0  0  0
   -2.9274   -1.4512    0.5443 H   0  0  0  0  0  0  0  0  0  0  0  0
    0.9863    1.0280   -1.1166 H   0  0  0  0  0  0  0  0  0  0  0  0
    1.0686    1.1012    0.6516 H   0  0  0  0  0  0  0  0  0  0  0  0
    1.0991   -1.7944   -0.5246 H   0  0  0  0  0  0  0  0  0  0  0  0
    3.6558   -1.5946   -0.6505 H   0  0  0  0  0  0  0  0  0  0  0  0
    3.4999    0.2676   -0.4579 H   0  0  0  0  0  0  0  0  0  0  0  0
  1  2  1  0
  2  3  1  0
  2  4  1  0
  4  5  1  0
  2  6  1  0
  6  7  1  0
  7  8  1  0
  8  9  1  0
  9  7  1  0
  1 10  1  0
  1 11  1  0
  1 12  1  0
  3 13  1  0
  4 14  1  0
  4 15  1  0
  5 16  1  0
  6 17  1  0
  6 18  1  0
  7 19  1  0
  8 20  1  0
  8 21  1  0
M  END
