
     RDKit          3D

 25 24  0  0  0  0  0  0  0  0999 V2000
    3.8143   -0.1445   -0.3070 C   0  0  0  0  0  0  0  0  0  0  0  0
    2.5380    0.3246    0.2991 C   0  0  0  0  0  0  0  0  0  0  0  0
    2.4158    0.0012    1.6478 O   0  0  0  0  0  0  0  0  0  0  0  0
    1.3059   -0.2438   -0.4186 C   0  0  0  0  0  0  0  0  0  0  0  0
    0.1177    0.3137    0.2998 C   0  0  0  0  0  0  0  0  0  0  0  0
   -1.1996   -0.1304   -0.2589 C   0  0  0  0  0  0  0  0  0  0  0  0
   -2.2848    0.5244    0.5830 C   0  0  0  0  0  0  0  0  0  0  0  0
   -3.6611    0.1457    0.1082 C   0  0  0  0  0  0  0  0  0  0  0  0
   -3.8075   -1.2252    0.1921 O   0  0  0  0  0  0  0  0  0  0  0  0
    4.3813   -0.6988    0.4978 H   0  0  0  0  0  0  0  0  0  0  0  0
    4.4995    0.7144   -0.5658 H   0  0  0  0  0  0  0  0  0  0  0  0
    3.6896   -0.7478   -1.2060 H   0  0  0  0  0  0  0  0  0  0  0  0
    2.4991    1.4329    0.2356 H   0  0  0  0  0  0  0  0  0  0  0  0
    2.4863   -0.9807    1.7247 H   0  0  0  0  0  0  0  0  0  0  0  0
    1.3470   -1.3542   -0.3665 H   0  0  0  0  0  0  0  0  0  0  0  0
    1.3417    0.0571   -1.4853 H   0  0  0  0  0  0  0  0  0  0  0  0
    0.1883    0.0153    1.3643 H   0  0  0  0  0  0  0  0  0  0  0  0
    0.1597    1.4298    0.1771 H   0  0  0  0  0  0  0  0  0  0  0  0
   -1.3214    0.2706   -1.2917 H   0  0  0  0  0  0  0  0  0  0  0  0
   -1.3069   -1.2268   -0.2918 H   0  0  0  0  0  0  0  0  0  0  0  0
   -2.1092    1.6131    0.5748 H   0  0  0  0  0  0  0  0  0  0  0  0
   -2.1541    0.1740    1.6279 H   0  0  0  0  0  0  0  0  0  0  0  0
   -3.8570    0.5552   -0.9014 H   0  0  0  0  0  0  0  0  0  0  0  0
   -4.3868    0.6230    0.7922 H   0  0  0  0  0  0  0  0  0  0  0  0
   -4.6959   -1.4429    0.5916 H   0  0  0  0  0  0  0  0  0  0  0  0
  1  2  1  0
  2  3  1  0
  2  4  1  0
  4  5  1  0
  5  6  1  0
  6  7  1  0
  7  8  1  0
  8  9  1  0
  1 10  1  0
  1 11  1  0
  1 12  1  0
  2 13  1  0
  3 14  1  0
  4 15  1  0
  4 16  1  0
  5 17  1  0
  5 18  1  0
  6 19  1  0
  6 20  1  0
  7 21  1  0
  7 22  1  0
  8 23  1  0
  8 24  1  0
  9 25  1  0
M  END
