
     RDKit          3D

 19 19  0  0  0  0  0  0  0  0999 V2000
   -2.0559    0.2443    0.3801 C   0  0  0  0  0  0  0  0  0  0  0  0
   -0.9377    0.4335   -0.5811 C   0  0  0  0  0  0  0  0  0  0  0  0
   -0.7264   -0.7570   -1.2798 O   0  0  0  0  0  0  0  0  0  0  0  0
    0.3135    0.8354    0.1620 C   0  0  0  0  0  0  0  0  0  0  0  0
    0.7093   -0.2172    1.1528 C   0  0  0  0  0  0  0  0  0  0  0  0
    1.4984   -1.1675    0.3472 C   0  0  0  0  0  0  0  0  0  0  0  0
    1.9387   -0.5512   -0.7335 C   0  0  0  0  0  0  0  0  0  0  0  0
    1.4866    0.8343   -0.7380 C   0  0  0  0  0  0  0  0  0  0  0  0
    1.9587    1.8067   -1.3471 O   0  0  0  0  0  0  0  0  0  0  0  0
   -1.7985    0.5055    1.4268 H   0  0  0  0  0  0  0  0  0  0  0  0
   -2.3739   -0.8352    0.4225 H   0  0  0  0  0  0  0  0  0  0  0  0
   -2.9210    0.8295    0.0851 H   0  0  0  0  0  0  0  0  0  0  0  0
   -1.1949    1.1990   -1.3135 H   0  0  0  0  0  0  0  0  0  0  0  0
   -1.5478   -1.2993   -1.2350 H   0  0  0  0  0  0  0  0  0  0  0  0
    0.1177    1.8211    0.6177 H   0  0  0  0  0  0  0  0  0  0  0  0
   -0.1422   -0.6841    1.6714 H   0  0  0  0  0  0  0  0  0  0  0  0
    1.4175    0.2753    1.8716 H   0  0  0  0  0  0  0  0  0  0  0  0
    1.7032   -2.2237    0.5840 H   0  0  0  0  0  0  0  0  0  0  0  0
    2.5547   -1.0494   -1.4933 H   0  0  0  0  0  0  0  0  0  0  0  0
  1  2  1  0
  2  3  1  0
  2  4  1  0
  4  5  1  0
  5  6  1  0
  6  7  2  0
  7  8  1  0
  8  9  2  0
  8  4  1  0
  1 10  1  0
  1 11  1  0
  1 12  1  0
  2 13  1  0
  3 14  1  0
  4 15  1  0
  5 16  1  0
  5 17  1  0
  6 18  1  0
  7 19  1  0
M  END
