
     RDKit          3D

 19 20  0  0  0  0  0  0  0  0999 V2000
   -2.2674   -0.1797    0.7693 C   0  0  0  0  0  0  0  0  0  0  0  0
   -1.4736    0.6199   -0.2625 C   0  0  0  0  0  0  0  0  0  0  0  0
   -1.4425   -0.1261   -1.4150 O   0  0  0  0  0  0  0  0  0  0  0  0
   -0.0832    0.8094    0.3467 C   0  0  0  0  0  0  0  0  0  0  0  0
    0.6548   -0.3428    0.6499 C   0  0  0  0  0  0  0  0  0  0  0  0
    1.1644   -1.3789   -0.0698 O   0  0  0  0  0  0  0  0  0  0  0  0
    2.4777   -0.8983   -0.3114 C   0  0  0  0  0  0  0  0  0  0  0  0
    2.3926    0.5159   -0.2377 O   0  0  0  0  0  0  0  0  0  0  0  0
    1.0683    0.7102   -0.4594 C   0  0  0  0  0  0  0  0  0  0  0  0
   -3.3429    0.0887    0.6566 H   0  0  0  0  0  0  0  0  0  0  0  0
   -2.1065   -1.2636    0.6675 H   0  0  0  0  0  0  0  0  0  0  0  0
   -1.9579    0.0956    1.8046 H   0  0  0  0  0  0  0  0  0  0  0  0
   -1.9397    1.5961   -0.4435 H   0  0  0  0  0  0  0  0  0  0  0  0
   -1.0884    0.4183   -2.1615 H   0  0  0  0  0  0  0  0  0  0  0  0
   -0.1257    1.6676    1.0810 H   0  0  0  0  0  0  0  0  0  0  0  0
    1.2520   -0.2823    1.6160 H   0  0  0  0  0  0  0  0  0  0  0  0
    3.0980   -1.2024    0.5671 H   0  0  0  0  0  0  0  0  0  0  0  0
    2.8693   -1.2387   -1.2702 H   0  0  0  0  0  0  0  0  0  0  0  0
    0.8507    0.3910   -1.5278 H   0  0  0  0  0  0  0  0  0  0  0  0
  1  2  1  0
  2  3  1  0
  2  4  1  0
  4  5  1  0
  5  6  1  0
  6  7  1  0
  7  8  1  0
  8  9  1  0
  9  4  1  0
  9  5  1  0
  1 10  1  0
  1 11  1  0
  1 12  1  0
  2 13  1  0
  3 14  1  0
  4 15  1  0
  5 16  1  0
  7 17  1  0
  7 18  1  0
  9 19  1  0
M  END
