
     RDKit          3D

 23 22  0  0  0  0  0  0  0  0999 V2000
   -2.6924    0.6486    0.7605 C   0  0  0  0  0  0  0  0  0  0  0  0
   -1.6203   -0.0814   -0.0067 C   0  0  0  0  0  0  0  0  0  0  0  0
   -1.7774   -1.4433    0.2699 O   0  0  0  0  0  0  0  0  0  0  0  0
   -0.2622    0.4216    0.4025 C   0  0  0  0  0  0  0  0  0  0  0  0
    0.8614   -0.2627   -0.3235 C   0  0  0  0  0  0  0  0  0  0  0  0
    0.8429   -1.7616   -0.0548 C   0  0  0  0  0  0  0  0  0  0  0  0
    2.1822    0.2455    0.2174 C   0  0  0  0  0  0  0  0  0  0  0  0
    2.3511    1.6898    0.0492 C   0  0  0  0  0  0  0  0  0  0  0  0
    3.3598    2.2350    0.4352 O   0  0  0  0  0  0  0  0  0  0  0  0
   -2.2481    1.1420    1.6404 H   0  0  0  0  0  0  0  0  0  0  0  0
   -3.1452    1.4781    0.1493 H   0  0  0  0  0  0  0  0  0  0  0  0
   -3.5328   -0.0117    1.0547 H   0  0  0  0  0  0  0  0  0  0  0  0
   -1.8118    0.0806   -1.0825 H   0  0  0  0  0  0  0  0  0  0  0  0
   -2.3726   -1.6066    1.0421 H   0  0  0  0  0  0  0  0  0  0  0  0
   -0.1279    0.3066    1.4776 H   0  0  0  0  0  0  0  0  0  0  0  0
   -0.2246    1.5002    0.1428 H   0  0  0  0  0  0  0  0  0  0  0  0
    0.8012   -0.1485   -1.4214 H   0  0  0  0  0  0  0  0  0  0  0  0
    0.1525   -2.2906   -0.7400 H   0  0  0  0  0  0  0  0  0  0  0  0
    1.9014   -2.1236   -0.1821 H   0  0  0  0  0  0  0  0  0  0  0  0
    0.5642   -1.9444    1.0030 H   0  0  0  0  0  0  0  0  0  0  0  0
    2.2309   -0.0792    1.2946 H   0  0  0  0  0  0  0  0  0  0  0  0
    2.9895   -0.2679   -0.3697 H   0  0  0  0  0  0  0  0  0  0  0  0
    1.5782    2.2735   -0.4189 H   0  0  0  0  0  0  0  0  0  0  0  0
  1  2  1  0
  2  3  1  0
  2  4  1  0
  4  5  1  0
  5  6  1  0
  5  7  1  0
  7  8  1  0
  8  9  2  0
  1 10  1  0
  1 11  1  0
  1 12  1  0
  2 13  1  0
  3 14  1  0
  4 15  1  0
  4 16  1  0
  5 17  1  0
  6 18  1  0
  6 19  1  0
  6 20  1  0
  7 21  1  0
  7 22  1  0
  8 23  1  0
M  END
