
     RDKit          3D

 17 18  0  0  0  0  0  0  0  0999 V2000
   -1.9572   -0.4602    0.6144 C   0  0  0  0  0  0  0  0  0  0  0  0
   -1.1580    0.0760   -0.5271 C   0  0  0  0  0  0  0  0  0  0  0  0
   -1.6171    1.3630   -0.8074 O   0  0  0  0  0  0  0  0  0  0  0  0
    0.3053   -0.0164   -0.3675 C   0  0  0  0  0  0  0  0  0  0  0  0
    0.9621    0.4225   -1.6253 O   0  0  0  0  0  0  0  0  0  0  0  0
    1.3245    0.8711   -0.3428 C   0  0  0  0  0  0  0  0  0  0  0  0
    2.2283   -0.1605    0.3374 C   0  0  0  0  0  0  0  0  0  0  0  0
    0.9973   -1.0387    0.3909 C   0  0  0  0  0  0  0  0  0  0  0  0
    0.8841   -2.1319    0.9223 O   0  0  0  0  0  0  0  0  0  0  0  0
   -2.8602   -1.0294    0.2511 H   0  0  0  0  0  0  0  0  0  0  0  0
   -2.3867    0.3469    1.2629 H   0  0  0  0  0  0  0  0  0  0  0  0
   -1.4077   -1.1527    1.2746 H   0  0  0  0  0  0  0  0  0  0  0  0
   -1.4427   -0.5374   -1.4331 H   0  0  0  0  0  0  0  0  0  0  0  0
   -0.9124    2.0429   -0.7326 H   0  0  0  0  0  0  0  0  0  0  0  0
    1.4667    1.9278   -0.1483 H   0  0  0  0  0  0  0  0  0  0  0  0
    2.6302    0.1292    1.3012 H   0  0  0  0  0  0  0  0  0  0  0  0
    2.9435   -0.6521   -0.3706 H   0  0  0  0  0  0  0  0  0  0  0  0
  1  2  1  0
  2  3  1  0
  2  4  1  0
  4  5  1  0
  5  6  1  0
  6  7  1  0
  7  8  1  0
  8  9  2  0
  6  4  1  0
  8  4  1  0
  1 10  1  0
  1 11  1  0
  1 12  1  0
  2 13  1  0
  3 14  1  0
  6 15  1  0
  7 16  1  0
  7 17  1  0
M  END
