
     RDKit          3D

 18 17  0  0  0  0  0  0  0  0999 V2000
   -2.2968   -0.8178   -0.2316 C   0  0  0  0  0  0  0  0  0  0  0  0
   -1.2204    0.1785    0.1348 C   0  0  0  0  0  0  0  0  0  0  0  0
   -1.1155    1.1343   -0.8761 O   0  0  0  0  0  0  0  0  0  0  0  0
    0.0654   -0.4586    0.4509 C   0  0  0  0  0  0  0  0  0  0  0  0
    0.0799   -1.3103    1.3235 O   0  0  0  0  0  0  0  0  0  0  0  0
    1.3312   -0.1217   -0.2300 C   0  0  0  0  0  0  0  0  0  0  0  0
    2.3951    0.3493    0.7390 C   0  0  0  0  0  0  0  0  0  0  0  0
    1.1804    0.8516   -1.1912 O   0  0  0  0  0  0  0  0  0  0  0  0
   -1.9301   -1.8161    0.0927 H   0  0  0  0  0  0  0  0  0  0  0  0
   -2.4476   -0.7728   -1.3283 H   0  0  0  0  0  0  0  0  0  0  0  0
   -3.2785   -0.5765    0.2389 H   0  0  0  0  0  0  0  0  0  0  0  0
   -1.5956    0.7246    1.0386 H   0  0  0  0  0  0  0  0  0  0  0  0
   -1.9136    1.7259   -0.7809 H   0  0  0  0  0  0  0  0  0  0  0  0
    1.7489   -1.0249   -0.7453 H   0  0  0  0  0  0  0  0  0  0  0  0
    2.0855    0.2317    1.8014 H   0  0  0  0  0  0  0  0  0  0  0  0
    2.6387    1.4292    0.5891 H   0  0  0  0  0  0  0  0  0  0  0  0
    3.3485   -0.2102    0.6185 H   0  0  0  0  0  0  0  0  0  0  0  0
    0.9245    0.4838   -2.0837 H   0  0  0  0  0  0  0  0  0  0  0  0
  1  2  1  0
  2  3  1  0
  2  4  1  0
  4  5  2  0
  4  6  1  0
  6  7  1  0
  6  8  1  0
  1  9  1  0
  1 10  1  0
  1 11  1  0
  2 12  1  0
  3 13  1  0
  6 14  1  0
  7 15  1  0
  7 16  1  0
  7 17  1  0
  8 18  1  0
M  END
