
     RDKit          3D

 18 18  0  0  0  0  0  0  0  0999 V2000
   -1.9743   -0.3468   -0.1654 C   0  0  0  0  0  0  0  0  0  0  0  0
   -1.0216    0.2603    0.7944 C   0  0  0  0  0  0  0  0  0  0  0  0
   -1.4364    1.5815    1.0630 O   0  0  0  0  0  0  0  0  0  0  0  0
    0.3936    0.3176    0.3472 C   0  0  0  0  0  0  0  0  0  0  0  0
    0.6360    1.0733   -0.8028 O   0  0  0  0  0  0  0  0  0  0  0  0
    1.8139    0.3189   -0.9163 C   0  0  0  0  0  0  0  0  0  0  0  0
    0.9694   -0.8441   -0.3670 C   0  0  0  0  0  0  0  0  0  0  0  0
    1.8068   -1.6815    0.3530 O   0  0  0  0  0  0  0  0  0  0  0  0
   -1.5783   -1.1153   -0.8246 H   0  0  0  0  0  0  0  0  0  0  0  0
   -2.8683   -0.7747    0.3761 H   0  0  0  0  0  0  0  0  0  0  0  0
   -2.4165    0.4529   -0.8284 H   0  0  0  0  0  0  0  0  0  0  0  0
   -1.0694   -0.2611    1.7713 H   0  0  0  0  0  0  0  0  0  0  0  0
   -1.5672    1.9990    0.1863 H   0  0  0  0  0  0  0  0  0  0  0  0
    1.0721    0.6690    1.1499 H   0  0  0  0  0  0  0  0  0  0  0  0
    2.1682    0.1369   -1.9238 H   0  0  0  0  0  0  0  0  0  0  0  0
    2.5492    0.7054   -0.1779 H   0  0  0  0  0  0  0  0  0  0  0  0
    0.4205   -1.2903   -1.1885 H   0  0  0  0  0  0  0  0  0  0  0  0
    2.1022   -1.2009    1.1535 H   0  0  0  0  0  0  0  0  0  0  0  0
  1  2  1  0
  2  3  1  0
  2  4  1  0
  4  5  1  0
  5  6  1  0
  6  7  1  0
  7  8  1  0
  7  4  1  0
  1  9  1  0
  1 10  1  0
  1 11  1  0
  2 12  1  0
  3 13  1  0
  4 14  1  0
  6 15  1  0
  6 16  1  0
  7 17  1  0
  8 18  1  0
M  END
