
     RDKit          3D

 21 21  0  0  0  0  0  0  0  0999 V2000
   -1.9511   -0.7858    1.0313 C   0  0  0  0  0  0  0  0  0  0  0  0
   -1.7500    0.0169   -0.2198 C   0  0  0  0  0  0  0  0  0  0  0  0
   -2.4831    1.1985   -0.1504 O   0  0  0  0  0  0  0  0  0  0  0  0
   -0.3204    0.2329   -0.5791 C   0  0  0  0  0  0  0  0  0  0  0  0
    0.4772   -1.0145   -0.8232 C   0  0  0  0  0  0  0  0  0  0  0  0
    0.8082   -0.0342    0.2932 C   0  0  0  0  0  0  0  0  0  0  0  0
    0.7110   -0.5238    1.5769 O   0  0  0  0  0  0  0  0  0  0  0  0
    2.1081    0.7300    0.0431 C   0  0  0  0  0  0  0  0  0  0  0  0
    2.1731    1.2078   -1.2554 O   0  0  0  0  0  0  0  0  0  0  0  0
   -1.5496   -1.8275    0.8791 H   0  0  0  0  0  0  0  0  0  0  0  0
   -3.0645   -0.9412    1.1310 H   0  0  0  0  0  0  0  0  0  0  0  0
   -1.5887   -0.3100    1.9380 H   0  0  0  0  0  0  0  0  0  0  0  0
   -2.2134   -0.5798   -1.0596 H   0  0  0  0  0  0  0  0  0  0  0  0
   -1.9413    1.9584   -0.4682 H   0  0  0  0  0  0  0  0  0  0  0  0
   -0.1734    1.0465   -1.3455 H   0  0  0  0  0  0  0  0  0  0  0  0
    0.0830   -1.9982   -0.5049 H   0  0  0  0  0  0  0  0  0  0  0  0
    1.1397   -1.0703   -1.7052 H   0  0  0  0  0  0  0  0  0  0  0  0
    1.5947   -0.9281    1.8133 H   0  0  0  0  0  0  0  0  0  0  0  0
    2.9805    0.0480    0.2151 H   0  0  0  0  0  0  0  0  0  0  0  0
    2.2369    1.5544    0.7781 H   0  0  0  0  0  0  0  0  0  0  0  0
    2.7231    2.0200   -1.3108 H   0  0  0  0  0  0  0  0  0  0  0  0
  1  2  1  0
  2  3  1  0
  2  4  1  0
  4  5  1  0
  5  6  1  0
  6  7  1  0
  6  8  1  0
  8  9  1  0
  6  4  1  0
  1 10  1  0
  1 11  1  0
  1 12  1  0
  2 13  1  0
  3 14  1  0
  4 15  1  0
  5 16  1  0
  5 17  1  0
  7 18  1  0
  8 19  1  0
  8 20  1  0
  9 21  1  0
M  END
