
     RDKit          3D

 19 19  0  0  0  0  0  0  0  0999 V2000
   -2.3654    0.4461   -0.2548 C   0  0  0  0  0  0  0  0  0  0  0  0
   -1.4270   -0.7305   -0.2744 C   0  0  0  0  0  0  0  0  0  0  0  0
   -1.7398   -1.5902    0.7755 O   0  0  0  0  0  0  0  0  0  0  0  0
   -0.0153   -0.2490   -0.0560 C   0  0  0  0  0  0  0  0  0  0  0  0
    0.8099   -0.5988    0.9299 C   0  0  0  0  0  0  0  0  0  0  0  0
    2.0880    0.1181    0.7477 C   0  0  0  0  0  0  0  0  0  0  0  0
    2.0873    0.4823   -0.7049 C   0  0  0  0  0  0  0  0  0  0  0  0
    0.6436    0.6905   -0.9430 C   0  0  0  0  0  0  0  0  0  0  0  0
    0.1266    1.4944   -1.7302 O   0  0  0  0  0  0  0  0  0  0  0  0
   -2.2871    0.9362    0.7360 H   0  0  0  0  0  0  0  0  0  0  0  0
   -2.0876    1.1267   -1.0747 H   0  0  0  0  0  0  0  0  0  0  0  0
   -3.3921    0.0512   -0.4452 H   0  0  0  0  0  0  0  0  0  0  0  0
   -1.5185   -1.3044   -1.2190 H   0  0  0  0  0  0  0  0  0  0  0  0
   -1.5094   -1.1237    1.6293 H   0  0  0  0  0  0  0  0  0  0  0  0
    0.5293   -1.3054    1.7157 H   0  0  0  0  0  0  0  0  0  0  0  0
    2.9653   -0.4818    1.0497 H   0  0  0  0  0  0  0  0  0  0  0  0
    2.0039    1.0646    1.3430 H   0  0  0  0  0  0  0  0  0  0  0  0
    2.3948   -0.4037   -1.2902 H   0  0  0  0  0  0  0  0  0  0  0  0
    2.6937    1.3776   -0.9344 H   0  0  0  0  0  0  0  0  0  0  0  0
  1  2  1  0
  2  3  1  0
  2  4  1  0
  4  5  2  0
  5  6  1  0
  6  7  1  0
  7  8  1  0
  8  9  2  0
  8  4  1  0
  1 10  1  0
  1 11  1  0
  1 12  1  0
  2 13  1  0
  3 14  1  0
  5 15  1  0
  6 16  1  0
  6 17  1  0
  7 18  1  0
  7 19  1  0
M  END
