
     RDKit          3D

 18 18  0  0  0  0  0  0  0  0999 V2000
    1.5337   -1.0780    0.4616 C   0  0  0  0  0  0  0  0  0  0  0  0
    0.7675   -0.2013   -0.4794 C   0  0  0  0  0  0  0  0  0  0  0  0
    1.6310    0.7683   -0.9652 O   0  0  0  0  0  0  0  0  0  0  0  0
   -0.4280    0.4454    0.1621 C   0  0  0  0  0  0  0  0  0  0  0  0
   -1.4363   -0.4976    0.8107 C   0  0  0  0  0  0  0  0  0  0  0  0
   -1.9832   -1.3082   -0.1970 O   0  0  0  0  0  0  0  0  0  0  0  0
   -0.4960    1.8264    0.3949 C   0  0  0  0  0  0  0  0  0  0  0  0
   -1.1380    1.2725   -0.8486 O   0  0  0  0  0  0  0  0  0  0  0  0
    1.0547   -1.1611    1.4678 H   0  0  0  0  0  0  0  0  0  0  0  0
    2.5716   -0.6962    0.6626 H   0  0  0  0  0  0  0  0  0  0  0  0
    1.6535   -2.1253    0.0844 H   0  0  0  0  0  0  0  0  0  0  0  0
    0.4038   -0.7691   -1.3797 H   0  0  0  0  0  0  0  0  0  0  0  0
    2.0965    0.4851   -1.7853 H   0  0  0  0  0  0  0  0  0  0  0  0
   -0.9909   -1.1186    1.5819 H   0  0  0  0  0  0  0  0  0  0  0  0
   -2.2833    0.0579    1.2514 H   0  0  0  0  0  0  0  0  0  0  0  0
   -2.0263   -0.7365   -1.0273 H   0  0  0  0  0  0  0  0  0  0  0  0
   -1.2811    2.3405    0.9528 H   0  0  0  0  0  0  0  0  0  0  0  0
    0.3508    2.4956    0.0955 H   0  0  0  0  0  0  0  0  0  0  0  0
  1  2  1  0
  2  3  1  0
  2  4  1  0
  4  5  1  0
  5  6  1  0
  4  7  1  0
  7  8  1  0
  8  4  1  0
  1  9  1  0
  1 10  1  0
  1 11  1  0
  2 12  1  0
  3 13  1  0
  5 14  1  0
  5 15  1  0
  6 16  1  0
  7 17  1  0
  7 18  1  0
M  END
