
     RDKit          3D

 16 16  0  0  0  0  0  0  0  0999 V2000
   -1.8779    0.6978    0.3225 C   0  0  0  0  0  0  0  0  0  0  0  0
   -0.9320   -0.3722   -0.2281 C   0  0  0  0  0  0  0  0  0  0  0  0
   -0.8110   -1.3444    0.7259 O   0  0  0  0  0  0  0  0  0  0  0  0
    0.3606    0.3148   -0.5566 C   0  0  0  0  0  0  0  0  0  0  0  0
    1.5901   -0.6000   -0.5273 C   0  0  0  0  0  0  0  0  0  0  0  0
    2.1958    0.6498   -0.0284 C   0  0  0  0  0  0  0  0  0  0  0  0
    3.3122    1.1892   -0.0868 O   0  0  0  0  0  0  0  0  0  0  0  0
    0.9833    0.9756    0.5402 O   0  0  0  0  0  0  0  0  0  0  0  0
   -2.0892    1.4532   -0.4626 H   0  0  0  0  0  0  0  0  0  0  0  0
   -2.8354    0.2048    0.5816 H   0  0  0  0  0  0  0  0  0  0  0  0
   -1.4250    1.1587    1.2375 H   0  0  0  0  0  0  0  0  0  0  0  0
   -1.3810   -0.7139   -1.1762 H   0  0  0  0  0  0  0  0  0  0  0  0
   -0.8456   -2.2437    0.2993 H   0  0  0  0  0  0  0  0  0  0  0  0
    0.3198    0.9375   -1.4511 H   0  0  0  0  0  0  0  0  0  0  0  0
    1.9151   -0.9563   -1.5082 H   0  0  0  0  0  0  0  0  0  0  0  0
    1.5201   -1.3509    0.2819 H   0  0  0  0  0  0  0  0  0  0  0  0
  1  2  1  0
  2  3  1  0
  2  4  1  0
  4  5  1  0
  5  6  1  0
  6  7  2  0
  6  8  1  0
  8  4  1  0
  1  9  1  0
  1 10  1  0
  1 11  1  0
  2 12  1  0
  3 13  1  0
  4 14  1  0
  5 15  1  0
  5 16  1  0
M  END
