
     RDKit          3D

 17 17  0  0  0  0  0  0  0  0999 V2000
   -2.0809   -0.2121   -0.1607 C   0  0  0  0  0  0  0  0  0  0  0  0
   -0.8065    0.4588    0.2820 C   0  0  0  0  0  0  0  0  0  0  0  0
   -1.0559    1.8317    0.3772 O   0  0  0  0  0  0  0  0  0  0  0  0
    0.3256    0.1991   -0.6865 C   0  0  0  0  0  0  0  0  0  0  0  0
    1.4494    0.8362   -0.2323 O   0  0  0  0  0  0  0  0  0  0  0  0
    2.2839   -0.0731    0.3619 C   0  0  0  0  0  0  0  0  0  0  0  0
    2.0264   -1.2903   -0.3491 O   0  0  0  0  0  0  0  0  0  0  0  0
    0.6581   -1.2608   -0.6200 C   0  0  0  0  0  0  0  0  0  0  0  0
   -0.1202   -2.2358   -0.7736 O   0  0  0  0  0  0  0  0  0  0  0  0
   -2.9409    0.5122   -0.1705 H   0  0  0  0  0  0  0  0  0  0  0  0
   -1.9821   -0.6220   -1.1873 H   0  0  0  0  0  0  0  0  0  0  0  0
   -2.3415   -0.9979    0.5745 H   0  0  0  0  0  0  0  0  0  0  0  0
   -0.4749    0.1184    1.2847 H   0  0  0  0  0  0  0  0  0  0  0  0
   -0.3991    2.3740   -0.1251 H   0  0  0  0  0  0  0  0  0  0  0  0
    0.0836    0.4272   -1.7232 H   0  0  0  0  0  0  0  0  0  0  0  0
    2.0345   -0.2769    1.4282 H   0  0  0  0  0  0  0  0  0  0  0  0
    3.3405    0.2113    0.2350 H   0  0  0  0  0  0  0  0  0  0  0  0
  1  2  1  0
  2  3  1  0
  2  4  1  0
  4  5  1  0
  5  6  1  0
  6  7  1  0
  7  8  1  0
  8  9  2  0
  8  4  1  0
  1 10  1  0
  1 11  1  0
  1 12  1  0
  2 13  1  0
  3 14  1  0
  4 15  1  0
  6 16  1  0
  6 17  1  0
M  END
