
     RDKit          3D

 19 20  0  0  0  0  0  0  0  0999 V2000
    1.8372    0.6324   -0.6391 C   0  0  0  0  0  0  0  0  0  0  0  0
    1.4216   -0.3166    0.4707 C   0  0  0  0  0  0  0  0  0  0  0  0
    1.9991   -1.5651    0.3294 O   0  0  0  0  0  0  0  0  0  0  0  0
   -0.0905   -0.4502    0.5103 C   0  0  0  0  0  0  0  0  0  0  0  0
   -0.5860   -1.0313   -0.6608 O   0  0  0  0  0  0  0  0  0  0  0  0
   -1.9468   -0.7500   -0.6224 C   0  0  0  0  0  0  0  0  0  0  0  0
   -1.9338    0.7435   -0.2952 C   0  0  0  0  0  0  0  0  0  0  0  0
   -0.8408    1.4793   -0.7714 O   0  0  0  0  0  0  0  0  0  0  0  0
   -0.7439    0.9221    0.4802 C   0  0  0  0  0  0  0  0  0  0  0  0
    1.1496    0.4937   -1.5002 H   0  0  0  0  0  0  0  0  0  0  0  0
    2.8978    0.4616   -0.9261 H   0  0  0  0  0  0  0  0  0  0  0  0
    1.7303    1.6885   -0.3142 H   0  0  0  0  0  0  0  0  0  0  0  0
    1.7292    0.0840    1.4543 H   0  0  0  0  0  0  0  0  0  0  0  0
    2.1747   -1.9795    1.2191 H   0  0  0  0  0  0  0  0  0  0  0  0
   -0.3566   -1.0217    1.4093 H   0  0  0  0  0  0  0  0  0  0  0  0
   -2.3579   -1.2534    0.2698 H   0  0  0  0  0  0  0  0  0  0  0  0
   -2.4697   -0.9753   -1.5474 H   0  0  0  0  0  0  0  0  0  0  0  0
   -2.8633    1.3012   -0.2574 H   0  0  0  0  0  0  0  0  0  0  0  0
   -0.7504    1.5367    1.3911 H   0  0  0  0  0  0  0  0  0  0  0  0
  1  2  1  0
  2  3  1  0
  2  4  1  0
  4  5  1  0
  5  6  1  0
  6  7  1  0
  7  8  1  0
  8  9  1  0
  9  4  1  0
  9  7  1  0
  1 10  1  0
  1 11  1  0
  1 12  1  0
  2 13  1  0
  3 14  1  0
  4 15  1  0
  6 16  1  0
  6 17  1  0
  7 18  1  0
  9 19  1  0
M  END
