
     RDKit          3D

 21 22  0  0  0  0  0  0  0  0999 V2000
   -2.1336    0.8790   -0.4102 C   0  0  0  0  0  0  0  0  0  0  0  0
   -2.0175   -0.0654    0.7361 C   0  0  0  0  0  0  0  0  0  0  0  0
   -2.9459   -1.1086    0.6242 O   0  0  0  0  0  0  0  0  0  0  0  0
   -0.6490   -0.6676    0.8883 C   0  0  0  0  0  0  0  0  0  0  0  0
   -0.2129   -1.4708   -0.1360 O   0  0  0  0  0  0  0  0  0  0  0  0
    0.9948   -0.8603   -0.3657 C   0  0  0  0  0  0  0  0  0  0  0  0
    1.8358   -0.2750    0.6811 C   0  0  0  0  0  0  0  0  0  0  0  0
    3.0084    0.5561    0.2087 C   0  0  0  0  0  0  0  0  0  0  0  0
    0.4863    0.2943    0.5313 C   0  0  0  0  0  0  0  0  0  0  0  0
   -1.3423    0.6185   -1.1719 H   0  0  0  0  0  0  0  0  0  0  0  0
   -3.1540    0.7674   -0.8813 H   0  0  0  0  0  0  0  0  0  0  0  0
   -2.0088    1.9511   -0.1218 H   0  0  0  0  0  0  0  0  0  0  0  0
   -2.2825    0.4622    1.6842 H   0  0  0  0  0  0  0  0  0  0  0  0
   -2.5775   -1.8663    1.1383 H   0  0  0  0  0  0  0  0  0  0  0  0
   -0.4800   -1.1743    1.8595 H   0  0  0  0  0  0  0  0  0  0  0  0
    1.2232   -0.6409   -1.4073 H   0  0  0  0  0  0  0  0  0  0  0  0
    2.0247   -0.7858    1.6613 H   0  0  0  0  0  0  0  0  0  0  0  0
    3.8918   -0.1407    0.1873 H   0  0  0  0  0  0  0  0  0  0  0  0
    3.2702    1.3635    0.9339 H   0  0  0  0  0  0  0  0  0  0  0  0
    2.8045    0.9606   -0.8091 H   0  0  0  0  0  0  0  0  0  0  0  0
    0.2643    1.2030   -0.0298 H   0  0  0  0  0  0  0  0  0  0  0  0
  1  2  1  0
  2  3  1  0
  2  4  1  0
  4  5  1  0
  5  6  1  0
  6  7  1  0
  7  8  1  0
  7  9  1  0
  9  4  1  0
  9  6  1  0
  1 10  1  0
  1 11  1  0
  1 12  1  0
  2 13  1  0
  3 14  1  0
  4 15  1  0
  6 16  1  0
  7 17  1  0
  8 18  1  0
  8 19  1  0
  8 20  1  0
  9 21  1  0
M  END
