
     RDKit          3D

 21 21  0  0  0  0  0  0  0  0999 V2000
    3.4931    0.2292   -1.0330 C   0  0  0  0  0  0  0  0  0  0  0  0
    2.8194   -0.5266    0.0824 C   0  0  0  0  0  0  0  0  0  0  0  0
    3.2046    0.0700    1.2868 O   0  0  0  0  0  0  0  0  0  0  0  0
    1.3749   -0.4177   -0.1306 C   0  0  0  0  0  0  0  0  0  0  0  0
    0.1681   -0.3149   -0.2996 C   0  0  0  0  0  0  0  0  0  0  0  0
   -1.2821   -0.2115   -0.4900 C   0  0  0  0  0  0  0  0  0  0  0  0
   -1.8549    1.1175   -0.1299 C   0  0  0  0  0  0  0  0  0  0  0  0
   -2.1474   -0.1005    0.7076 C   0  0  0  0  0  0  0  0  0  0  0  0
   -3.5591   -0.6700    0.6768 C   0  0  0  0  0  0  0  0  0  0  0  0
    3.5350   -0.3877   -1.9767 H   0  0  0  0  0  0  0  0  0  0  0  0
    3.0543    1.2150   -1.2259 H   0  0  0  0  0  0  0  0  0  0  0  0
    4.5526    0.3891   -0.7244 H   0  0  0  0  0  0  0  0  0  0  0  0
    3.1692   -1.5822    0.0137 H   0  0  0  0  0  0  0  0  0  0  0  0
    2.5955    0.8511    1.4045 H   0  0  0  0  0  0  0  0  0  0  0  0
   -1.6662   -0.6279   -1.4501 H   0  0  0  0  0  0  0  0  0  0  0  0
   -2.7375    1.4991   -0.6829 H   0  0  0  0  0  0  0  0  0  0  0  0
   -1.2560    1.9042    0.3377 H   0  0  0  0  0  0  0  0  0  0  0  0
   -1.6595   -0.1959    1.6981 H   0  0  0  0  0  0  0  0  0  0  0  0
   -3.8806   -1.0449    1.6530 H   0  0  0  0  0  0  0  0  0  0  0  0
   -4.2330    0.2024    0.4316 H   0  0  0  0  0  0  0  0  0  0  0  0
   -3.6904   -1.3980   -0.1490 H   0  0  0  0  0  0  0  0  0  0  0  0
  1  2  1  0
  2  3  1  0
  2  4  1  0
  4  5  3  0
  5  6  1  0
  6  7  1  0
  7  8  1  0
  8  9  1  0
  8  6  1  0
  1 10  1  0
  1 11  1  0
  1 12  1  0
  2 13  1  0
  3 14  1  0
  6 15  1  0
  7 16  1  0
  7 17  1  0
  8 18  1  0
  9 19  1  0
  9 20  1  0
  9 21  1  0
M  END
