
     RDKit          3D

 21 21  0  0  0  0  0  0  0  0999 V2000
   -2.4530   -0.6494    0.0891 C   0  0  0  0  0  0  0  0  0  0  0  0
   -1.7383    0.4995   -0.5778 C   0  0  0  0  0  0  0  0  0  0  0  0
   -2.5196    1.6412   -0.4081 O   0  0  0  0  0  0  0  0  0  0  0  0
   -0.3767    0.7578    0.0305 C   0  0  0  0  0  0  0  0  0  0  0  0
    0.5310   -0.4271   -0.0785 C   0  0  0  0  0  0  0  0  0  0  0  0
    1.8934   -0.2911    0.4837 C   0  0  0  0  0  0  0  0  0  0  0  0
    2.5387   -1.3808    1.0664 O   0  0  0  0  0  0  0  0  0  0  0  0
    1.6843   -0.4336   -1.0066 C   0  0  0  0  0  0  0  0  0  0  0  0
    2.0336    0.6817   -1.7400 O   0  0  0  0  0  0  0  0  0  0  0  0
   -2.4616   -0.5392    1.1926 H   0  0  0  0  0  0  0  0  0  0  0  0
   -3.4858   -0.6670   -0.3253 H   0  0  0  0  0  0  0  0  0  0  0  0
   -1.9955   -1.6199   -0.1529 H   0  0  0  0  0  0  0  0  0  0  0  0
   -1.5964    0.2694   -1.6410 H   0  0  0  0  0  0  0  0  0  0  0  0
   -2.2788    2.2982   -1.1064 H   0  0  0  0  0  0  0  0  0  0  0  0
    0.0353    1.6530   -0.4746 H   0  0  0  0  0  0  0  0  0  0  0  0
   -0.5564    0.9881    1.1150 H   0  0  0  0  0  0  0  0  0  0  0  0
    0.0215   -1.4019    0.0631 H   0  0  0  0  0  0  0  0  0  0  0  0
    2.2080    0.6812    0.8916 H   0  0  0  0  0  0  0  0  0  0  0  0
    3.5118   -1.2895    0.8111 H   0  0  0  0  0  0  0  0  0  0  0  0
    1.9704   -1.4027   -1.4995 H   0  0  0  0  0  0  0  0  0  0  0  0
    3.0341    0.6319   -1.8697 H   0  0  0  0  0  0  0  0  0  0  0  0
  1  2  1  0
  2  3  1  0
  2  4  1  0
  4  5  1  0
  5  6  1  0
  6  7  1  0
  6  8  1  0
  8  9  1  0
  8  5  1  0
  1 10  1  0
  1 11  1  0
  1 12  1  0
  2 13  1  0
  3 14  1  0
  4 15  1  0
  4 16  1  0
  5 17  1  0
  6 18  1  0
  7 19  1  0
  8 20  1  0
  9 21  1  0
M  END
