
     RDKit          3D

 19 18  0  0  0  0  0  0  0  0999 V2000
   -1.6788    1.3660    0.0096 C   0  0  0  0  0  0  0  0  0  0  0  0
   -1.7194   -0.1314    0.2060 C   0  0  0  0  0  0  0  0  0  0  0  0
   -2.1542   -0.8292   -0.8885 O   0  0  0  0  0  0  0  0  0  0  0  0
   -0.3514   -0.6169    0.6608 C   0  0  0  0  0  0  0  0  0  0  0  0
    0.6500   -0.2428   -0.4156 C   0  0  0  0  0  0  0  0  0  0  0  0
    2.0106   -0.6900   -0.0495 C   0  0  0  0  0  0  0  0  0  0  0  0
    2.1683   -1.9093    0.2208 O   0  0  0  0  0  0  0  0  0  0  0  0
    3.1493    0.2214    0.0013 C   0  0  0  0  0  0  0  0  0  0  0  0
    2.9843    1.4269   -0.2643 O   0  0  0  0  0  0  0  0  0  0  0  0
   -1.0712    1.8034    0.8386 H   0  0  0  0  0  0  0  0  0  0  0  0
   -1.1908    1.6284   -0.9703 H   0  0  0  0  0  0  0  0  0  0  0  0
   -2.7071    1.7850   -0.0479 H   0  0  0  0  0  0  0  0  0  0  0  0
   -2.3892   -0.2897    1.0986 H   0  0  0  0  0  0  0  0  0  0  0  0
   -2.3395   -1.7694   -0.5875 H   0  0  0  0  0  0  0  0  0  0  0  0
   -0.3973   -1.6897    0.8292 H   0  0  0  0  0  0  0  0  0  0  0  0
   -0.1184   -0.0143    1.5790 H   0  0  0  0  0  0  0  0  0  0  0  0
    0.6674    0.8265   -0.5981 H   0  0  0  0  0  0  0  0  0  0  0  0
    0.3491   -0.7570   -1.3594 H   0  0  0  0  0  0  0  0  0  0  0  0
    4.1384   -0.1179    0.2630 H   0  0  0  0  0  0  0  0  0  0  0  0
  1  2  1  0
  2  3  1  0
  2  4  1  0
  4  5  1  0
  5  6  1  0
  6  7  2  0
  6  8  1  0
  8  9  2  0
  1 10  1  0
  1 11  1  0
  1 12  1  0
  2 13  1  0
  3 14  1  0
  4 15  1  0
  4 16  1  0
  5 17  1  0
  5 18  1  0
  8 19  1  0
M  END
