
     RDKit          3D

 23 24  0  0  0  0  0  0  0  0999 V2000
    1.2316    1.7517   -0.2661 C   0  0  0  0  0  0  0  0  0  0  0  0
    1.4426    0.3734    0.2845 C   0  0  0  0  0  0  0  0  0  0  0  0
    2.5565   -0.2114   -0.3427 O   0  0  0  0  0  0  0  0  0  0  0  0
    0.2168   -0.4820    0.0513 C   0  0  0  0  0  0  0  0  0  0  0  0
   -1.0863   -0.0599    0.6452 C   0  0  0  0  0  0  0  0  0  0  0  0
   -1.8044    1.1733    0.3577 C   0  0  0  0  0  0  0  0  0  0  0  0
   -2.3463   -0.1139   -0.1932 C   0  0  0  0  0  0  0  0  0  0  0  0
    0.2900   -1.4290   -1.0863 C   0  0  0  0  0  0  0  0  0  0  0  0
    0.5149   -1.9762    0.2661 C   0  0  0  0  0  0  0  0  0  0  0  0
    0.6767    1.6428   -1.2202 H   0  0  0  0  0  0  0  0  0  0  0  0
    2.2466    2.2065   -0.4509 H   0  0  0  0  0  0  0  0  0  0  0  0
    0.6765    2.3454    0.4896 H   0  0  0  0  0  0  0  0  0  0  0  0
    1.6912    0.3907    1.3795 H   0  0  0  0  0  0  0  0  0  0  0  0
    2.6514    0.1168   -1.2719 H   0  0  0  0  0  0  0  0  0  0  0  0
   -1.1969   -0.4607    1.7041 H   0  0  0  0  0  0  0  0  0  0  0  0
   -2.4578    1.5969    1.1795 H   0  0  0  0  0  0  0  0  0  0  0  0
   -1.5127    1.9602   -0.3513 H   0  0  0  0  0  0  0  0  0  0  0  0
   -2.2936   -0.2597   -1.2726 H   0  0  0  0  0  0  0  0  0  0  0  0
   -3.2385   -0.5913    0.2907 H   0  0  0  0  0  0  0  0  0  0  0  0
   -0.6271   -1.7384   -1.6342 H   0  0  0  0  0  0  0  0  0  0  0  0
    1.1634   -1.3354   -1.7575 H   0  0  0  0  0  0  0  0  0  0  0  0
   -0.3004   -2.6186    0.6672 H   0  0  0  0  0  0  0  0  0  0  0  0
    1.5059   -2.2812    0.6248 H   0  0  0  0  0  0  0  0  0  0  0  0
  1  2  1  0
  2  3  1  0
  2  4  1  0
  4  5  1  0
  5  6  1  0
  6  7  1  0
  4  8  1  0
  8  9  1  0
  9  4  1  0
  7  5  1  0
  1 10  1  0
  1 11  1  0
  1 12  1  0
  2 13  1  0
  3 14  1  0
  5 15  1  0
  6 16  1  0
  6 17  1  0
  7 18  1  0
  7 19  1  0
  8 20  1  0
  8 21  1  0
  9 22  1  0
  9 23  1  0
M  END
