
     RDKit          3D

 19 18  0  0  0  0  0  0  0  0999 V2000
   -0.7023   -1.4511   -0.5549 C   0  0  0  0  0  0  0  0  0  0  0  0
    0.1021   -0.2048   -0.2843 C   0  0  0  0  0  0  0  0  0  0  0  0
    0.5488    0.4068   -1.4332 O   0  0  0  0  0  0  0  0  0  0  0  0
    1.3154   -0.5654    0.5843 C   0  0  0  0  0  0  0  0  0  0  0  0
    2.1235    0.6312    0.8643 C   0  0  0  0  0  0  0  0  0  0  0  0
    2.8892    1.0785    0.0195 O   0  0  0  0  0  0  0  0  0  0  0  0
   -0.7421    0.7887    0.5173 C   0  0  0  0  0  0  0  0  0  0  0  0
   -1.9567    1.1721   -0.2094 C   0  0  0  0  0  0  0  0  0  0  0  0
   -2.0159    2.0247   -1.0728 O   0  0  0  0  0  0  0  0  0  0  0  0
   -1.7123   -1.3326   -0.1302 H   0  0  0  0  0  0  0  0  0  0  0  0
   -0.7585   -1.6530   -1.6573 H   0  0  0  0  0  0  0  0  0  0  0  0
   -0.2016   -2.3620   -0.1233 H   0  0  0  0  0  0  0  0  0  0  0  0
    0.1521    0.0415   -2.2645 H   0  0  0  0  0  0  0  0  0  0  0  0
    1.9169   -1.3609    0.1043 H   0  0  0  0  0  0  0  0  0  0  0  0
    0.9477   -0.9922    1.5374 H   0  0  0  0  0  0  0  0  0  0  0  0
    2.0475    1.1208    1.8087 H   0  0  0  0  0  0  0  0  0  0  0  0
   -0.9652    0.3202    1.5077 H   0  0  0  0  0  0  0  0  0  0  0  0
   -0.1074    1.6765    0.7518 H   0  0  0  0  0  0  0  0  0  0  0  0
   -2.8811    0.6609    0.0348 H   0  0  0  0  0  0  0  0  0  0  0  0
  1  2  1  0
  2  3  1  0
  2  4  1  0
  4  5  1  0
  5  6  2  0
  2  7  1  0
  7  8  1  0
  8  9  2  0
  1 10  1  0
  1 11  1  0
  1 12  1  0
  3 13  1  0
  4 14  1  0
  4 15  1  0
  5 16  1  0
  7 17  1  0
  7 18  1  0
  8 19  1  0
M  END
