
     RDKit          3D

 15 14  0  0  0  0  0  0  0  0999 V2000
    0.0194    1.7475    0.4414 C   0  0  0  0  0  0  0  0  0  0  0  0
   -0.1058    0.4118   -0.2145 C   0  0  0  0  0  0  0  0  0  0  0  0
   -0.9055   -0.4972    0.5333 O   0  0  0  0  0  0  0  0  0  0  0  0
   -2.0369   -1.0905    0.0088 C   0  0  0  0  0  0  0  0  0  0  0  0
   -2.3574   -0.8068   -1.1719 O   0  0  0  0  0  0  0  0  0  0  0  0
    1.2675   -0.1478   -0.4236 C   0  0  0  0  0  0  0  0  0  0  0  0
    2.0680    0.5647   -1.0721 O   0  0  0  0  0  0  0  0  0  0  0  0
    1.6280   -1.4462    0.1054 C   0  0  0  0  0  0  0  0  0  0  0  0
    0.7968   -2.1195    0.7451 O   0  0  0  0  0  0  0  0  0  0  0  0
    1.0933    2.0877    0.5276 H   0  0  0  0  0  0  0  0  0  0  0  0
   -0.4737    2.5503   -0.1774 H   0  0  0  0  0  0  0  0  0  0  0  0
   -0.4114    1.7954    1.4615 H   0  0  0  0  0  0  0  0  0  0  0  0
   -0.5291    0.5561   -1.2477 H   0  0  0  0  0  0  0  0  0  0  0  0
   -2.6698   -1.7848    0.5434 H   0  0  0  0  0  0  0  0  0  0  0  0
    2.6165   -1.8206   -0.0595 H   0  0  0  0  0  0  0  0  0  0  0  0
  1  2  1  0
  2  3  1  0
  3  4  1  0
  4  5  2  0
  2  6  1  0
  6  7  2  0
  6  8  1  0
  8  9  2  0
  1 10  1  0
  1 11  1  0
  1 12  1  0
  2 13  1  0
  4 14  1  0
  8 15  1  0
M  END
