
     RDKit          3D

 21 21  0  0  0  0  0  0  0  0999 V2000
   -2.4366   -0.5025    0.0681 C   0  0  0  0  0  0  0  0  0  0  0  0
   -1.6424    0.6896    0.5563 C   0  0  0  0  0  0  0  0  0  0  0  0
   -2.1512    1.8075   -0.1139 O   0  0  0  0  0  0  0  0  0  0  0  0
   -0.1827    0.5788    0.1281 C   0  0  0  0  0  0  0  0  0  0  0  0
   -0.1907    0.4169   -1.2550 O   0  0  0  0  0  0  0  0  0  0  0  0
    0.4882   -0.6200    0.8070 C   0  0  0  0  0  0  0  0  0  0  0  0
    1.8805   -0.7409    0.4110 C   0  0  0  0  0  0  0  0  0  0  0  0
    3.2010   -0.2165    0.3305 C   0  0  0  0  0  0  0  0  0  0  0  0
    2.3365    0.4220    0.9417 O   0  0  0  0  0  0  0  0  0  0  0  0
   -2.1434   -0.6735   -0.9843 H   0  0  0  0  0  0  0  0  0  0  0  0
   -3.5138   -0.2622    0.1564 H   0  0  0  0  0  0  0  0  0  0  0  0
   -2.2603   -1.4043    0.6852 H   0  0  0  0  0  0  0  0  0  0  0  0
   -1.7393    0.7778    1.6553 H   0  0  0  0  0  0  0  0  0  0  0  0
   -1.6282    2.6247    0.0884 H   0  0  0  0  0  0  0  0  0  0  0  0
    0.3897    1.4714    0.3998 H   0  0  0  0  0  0  0  0  0  0  0  0
   -0.1509   -0.5741   -1.4104 H   0  0  0  0  0  0  0  0  0  0  0  0
    0.2805   -0.5642    1.9219 H   0  0  0  0  0  0  0  0  0  0  0  0
   -0.1181   -1.5060    0.5221 H   0  0  0  0  0  0  0  0  0  0  0  0
    1.8684   -1.2225   -0.5730 H   0  0  0  0  0  0  0  0  0  0  0  0
    3.7148    0.3179   -0.5276 H   0  0  0  0  0  0  0  0  0  0  0  0
    3.9979   -0.8199    0.8684 H   0  0  0  0  0  0  0  0  0  0  0  0
  1  2  1  0
  2  3  1  0
  2  4  1  0
  4  5  1  0
  4  6  1  0
  6  7  1  0
  7  8  1  0
  8  9  1  0
  9  7  1  0
  1 10  1  0
  1 11  1  0
  1 12  1  0
  2 13  1  0
  3 14  1  0
  4 15  1  0
  5 16  1  0
  6 17  1  0
  6 18  1  0
  7 19  1  0
  8 20  1  0
  8 21  1  0
M  END
