
     RDKit          3D

 18 18  0  0  0  0  0  0  0  0999 V2000
   -2.1009    0.3037    0.6555 C   0  0  0  0  0  0  0  0  0  0  0  0
   -1.0113   -0.0135   -0.3201 C   0  0  0  0  0  0  0  0  0  0  0  0
   -0.7520    1.0261   -1.1848 O   0  0  0  0  0  0  0  0  0  0  0  0
    0.2683   -0.4659    0.3321 C   0  0  0  0  0  0  0  0  0  0  0  0
    0.0934   -1.5213    1.2275 O   0  0  0  0  0  0  0  0  0  0  0  0
    1.3926   -0.6875   -0.6808 C   0  0  0  0  0  0  0  0  0  0  0  0
    1.4707    0.3439    0.3964 C   0  0  0  0  0  0  0  0  0  0  0  0
    1.5654    1.6460   -0.0235 O   0  0  0  0  0  0  0  0  0  0  0  0
   -3.0764    0.2112    0.1073 H   0  0  0  0  0  0  0  0  0  0  0  0
   -2.0471    1.3584    0.9891 H   0  0  0  0  0  0  0  0  0  0  0  0
   -2.0932   -0.3712    1.5241 H   0  0  0  0  0  0  0  0  0  0  0  0
   -1.3736   -0.8944   -0.9271 H   0  0  0  0  0  0  0  0  0  0  0  0
   -1.1636    0.8826   -2.0582 H   0  0  0  0  0  0  0  0  0  0  0  0
    0.9842   -1.7485    1.5740 H   0  0  0  0  0  0  0  0  0  0  0  0
    1.2683   -0.3446   -1.7069 H   0  0  0  0  0  0  0  0  0  0  0  0
    1.9746   -1.6354   -0.5985 H   0  0  0  0  0  0  0  0  0  0  0  0
    2.1890    0.0972    1.2319 H   0  0  0  0  0  0  0  0  0  0  0  0
    2.4116    1.8131   -0.5382 H   0  0  0  0  0  0  0  0  0  0  0  0
  1  2  1  0
  2  3  1  0
  2  4  1  0
  4  5  1  0
  4  6  1  0
  6  7  1  0
  7  8  1  0
  7  4  1  0
  1  9  1  0
  1 10  1  0
  1 11  1  0
  2 12  1  0
  3 13  1  0
  5 14  1  0
  6 15  1  0
  6 16  1  0
  7 17  1  0
  8 18  1  0
M  END
