
     RDKit          3D

 25 25  0  0  0  0  0  0  0  0999 V2000
    3.0718    0.1488    0.3887 C   0  0  0  0  0  0  0  0  0  0  0  0
    1.8714   -0.0949   -0.5086 C   0  0  0  0  0  0  0  0  0  0  0  0
    1.6732   -1.4615   -0.5637 O   0  0  0  0  0  0  0  0  0  0  0  0
    0.6922    0.6199    0.1703 C   0  0  0  0  0  0  0  0  0  0  0  0
   -0.5245    0.4273   -0.6504 C   0  0  0  0  0  0  0  0  0  0  0  0
   -0.8663   -1.0409   -0.7986 C   0  0  0  0  0  0  0  0  0  0  0  0
   -2.3257   -0.6512   -0.6806 C   0  0  0  0  0  0  0  0  0  0  0  0
   -1.8508    0.6736   -0.0664 C   0  0  0  0  0  0  0  0  0  0  0  0
   -2.0195    0.7402    1.4044 C   0  0  0  0  0  0  0  0  0  0  0  0
    4.0127    0.2245   -0.1887 H   0  0  0  0  0  0  0  0  0  0  0  0
    2.9273    1.0804    0.9777 H   0  0  0  0  0  0  0  0  0  0  0  0
    3.1779   -0.7004    1.1002 H   0  0  0  0  0  0  0  0  0  0  0  0
    2.0622    0.3274   -1.5096 H   0  0  0  0  0  0  0  0  0  0  0  0
    2.5481   -1.9254   -0.4274 H   0  0  0  0  0  0  0  0  0  0  0  0
    1.0122    1.6543    0.3081 H   0  0  0  0  0  0  0  0  0  0  0  0
    0.5986    0.1277    1.1651 H   0  0  0  0  0  0  0  0  0  0  0  0
   -0.4216    0.9424   -1.6449 H   0  0  0  0  0  0  0  0  0  0  0  0
   -0.5536   -1.4100   -1.7943 H   0  0  0  0  0  0  0  0  0  0  0  0
   -0.5684   -1.6623    0.0666 H   0  0  0  0  0  0  0  0  0  0  0  0
   -2.9119   -1.2201    0.0414 H   0  0  0  0  0  0  0  0  0  0  0  0
   -2.7649   -0.5536   -1.6758 H   0  0  0  0  0  0  0  0  0  0  0  0
   -2.4512    1.4887   -0.5636 H   0  0  0  0  0  0  0  0  0  0  0  0
   -1.1080    0.8818    1.9890 H   0  0  0  0  0  0  0  0  0  0  0  0
   -2.5650   -0.1906    1.7418 H   0  0  0  0  0  0  0  0  0  0  0  0
   -2.7163    1.5739    1.7193 H   0  0  0  0  0  0  0  0  0  0  0  0
  1  2  1  0
  2  3  1  0
  2  4  1  0
  4  5  1  0
  5  6  1  0
  6  7  1  0
  7  8  1  0
  8  9  1  0
  8  5  1  0
  1 10  1  0
  1 11  1  0
  1 12  1  0
  2 13  1  0
  3 14  1  0
  4 15  1  0
  4 16  1  0
  5 17  1  0
  6 18  1  0
  6 19  1  0
  7 20  1  0
  7 21  1  0
  8 22  1  0
  9 23  1  0
  9 24  1  0
  9 25  1  0
M  END
