
     RDKit          3D

 19 20  0  0  0  0  0  0  0  0999 V2000
   -1.9306    1.1014    0.2912 C   0  0  0  0  0  0  0  0  0  0  0  0
   -1.2970   -0.1083   -0.3608 C   0  0  0  0  0  0  0  0  0  0  0  0
   -1.7828   -1.2866    0.1707 O   0  0  0  0  0  0  0  0  0  0  0  0
    0.1925   -0.0288   -0.3768 C   0  0  0  0  0  0  0  0  0  0  0  0
    0.9378   -1.3128   -0.6822 C   0  0  0  0  0  0  0  0  0  0  0  0
    2.2115   -1.1825   -0.2136 O   0  0  0  0  0  0  0  0  0  0  0  0
    2.3846    0.0224    0.3984 C   0  0  0  0  0  0  0  0  0  0  0  0
    1.0459    0.7422    0.4124 C   0  0  0  0  0  0  0  0  0  0  0  0
    0.6872    1.1713   -0.9183 O   0  0  0  0  0  0  0  0  0  0  0  0
   -3.0208    1.0133    0.1970 H   0  0  0  0  0  0  0  0  0  0  0  0
   -1.5825    1.9957   -0.2656 H   0  0  0  0  0  0  0  0  0  0  0  0
   -1.6516    1.2090    1.3530 H   0  0  0  0  0  0  0  0  0  0  0  0
   -1.6362   -0.0796   -1.4384 H   0  0  0  0  0  0  0  0  0  0  0  0
   -2.5765   -1.6250   -0.3503 H   0  0  0  0  0  0  0  0  0  0  0  0
    0.4293   -2.1138   -0.1112 H   0  0  0  0  0  0  0  0  0  0  0  0
    0.8674   -1.5702   -1.7661 H   0  0  0  0  0  0  0  0  0  0  0  0
    2.8430   -0.0277    1.4075 H   0  0  0  0  0  0  0  0  0  0  0  0
    3.0672    0.6423   -0.2496 H   0  0  0  0  0  0  0  0  0  0  0  0
    0.8115    1.4378    1.2276 H   0  0  0  0  0  0  0  0  0  0  0  0
  1  2  1  0
  2  3  1  0
  2  4  1  0
  4  5  1  0
  5  6  1  0
  6  7  1  0
  7  8  1  0
  8  9  1  0
  8  4  1  0
  9  4  1  0
  1 10  1  0
  1 11  1  0
  1 12  1  0
  2 13  1  0
  3 14  1  0
  5 15  1  0
  5 16  1  0
  7 17  1  0
  7 18  1  0
  8 19  1  0
M  END
