
     RDKit          3D

 23 24  0  0  0  0  0  0  0  0999 V2000
   -2.2021    0.8383    0.0384 C   0  0  0  0  0  0  0  0  0  0  0  0
   -1.3239   -0.2207   -0.6081 C   0  0  0  0  0  0  0  0  0  0  0  0
   -1.1684   -0.0290   -1.9655 O   0  0  0  0  0  0  0  0  0  0  0  0
   -0.0036   -0.2337    0.1406 C   0  0  0  0  0  0  0  0  0  0  0  0
   -0.2432   -0.5658    1.5938 C   0  0  0  0  0  0  0  0  0  0  0  0
    0.7800    1.0643   -0.0478 C   0  0  0  0  0  0  0  0  0  0  0  0
    1.9375    0.2835   -0.5695 C   0  0  0  0  0  0  0  0  0  0  0  0
    2.4298   -0.9300    0.1532 C   0  0  0  0  0  0  0  0  0  0  0  0
    1.1179   -0.9531   -0.5280 C   0  0  0  0  0  0  0  0  0  0  0  0
   -1.6233    1.4562    0.7634 H   0  0  0  0  0  0  0  0  0  0  0  0
   -2.4800    1.5605   -0.7844 H   0  0  0  0  0  0  0  0  0  0  0  0
   -3.1194    0.4012    0.4855 H   0  0  0  0  0  0  0  0  0  0  0  0
   -1.8009   -1.2188   -0.3809 H   0  0  0  0  0  0  0  0  0  0  0  0
   -1.8902    0.5350   -2.3574 H   0  0  0  0  0  0  0  0  0  0  0  0
   -0.8976   -1.4586    1.6151 H   0  0  0  0  0  0  0  0  0  0  0  0
   -0.7476    0.2309    2.1415 H   0  0  0  0  0  0  0  0  0  0  0  0
    0.6834   -0.8479    2.1319 H   0  0  0  0  0  0  0  0  0  0  0  0
    0.9734    1.5932    0.8944 H   0  0  0  0  0  0  0  0  0  0  0  0
    0.3293    1.7400   -0.7913 H   0  0  0  0  0  0  0  0  0  0  0  0
    2.5011    0.6022   -1.4470 H   0  0  0  0  0  0  0  0  0  0  0  0
    2.5211   -0.8024    1.2457 H   0  0  0  0  0  0  0  0  0  0  0  0
    3.2641   -1.4700   -0.3016 H   0  0  0  0  0  0  0  0  0  0  0  0
    0.9626   -1.5752   -1.4220 H   0  0  0  0  0  0  0  0  0  0  0  0
  1  2  1  0
  2  3  1  0
  2  4  1  0
  4  5  1  0
  4  6  1  0
  6  7  1  0
  7  8  1  0
  8  9  1  0
  9  4  1  0
  9  7  1  0
  1 10  1  0
  1 11  1  0
  1 12  1  0
  2 13  1  0
  3 14  1  0
  5 15  1  0
  5 16  1  0
  5 17  1  0
  6 18  1  0
  6 19  1  0
  7 20  1  0
  8 21  1  0
  8 22  1  0
  9 23  1  0
M  END
