
     RDKit          3D

 21 21  0  0  0  0  0  0  0  0999 V2000
    2.3039    0.4725   -0.1506 C   0  0  0  0  0  0  0  0  0  0  0  0
    1.1026    0.0050   -0.9192 C   0  0  0  0  0  0  0  0  0  0  0  0
    0.6870    1.0434   -1.7499 O   0  0  0  0  0  0  0  0  0  0  0  0
   -0.0554   -0.3665   -0.0236 C   0  0  0  0  0  0  0  0  0  0  0  0
    0.2747   -1.4878    0.9170 C   0  0  0  0  0  0  0  0  0  0  0  0
   -0.4036    0.7412    0.7165 O   0  0  0  0  0  0  0  0  0  0  0  0
   -1.7645    0.9482    0.5717 C   0  0  0  0  0  0  0  0  0  0  0  0
   -2.2724   -0.2197   -0.2349 C   0  0  0  0  0  0  0  0  0  0  0  0
   -1.1165   -0.7260   -0.8137 O   0  0  0  0  0  0  0  0  0  0  0  0
    2.9580    1.0327   -0.8659 H   0  0  0  0  0  0  0  0  0  0  0  0
    2.9150   -0.3704    0.2329 H   0  0  0  0  0  0  0  0  0  0  0  0
    1.9989    1.1793    0.6323 H   0  0  0  0  0  0  0  0  0  0  0  0
    1.3537   -0.8570   -1.5656 H   0  0  0  0  0  0  0  0  0  0  0  0
    0.6735    1.9161   -1.2792 H   0  0  0  0  0  0  0  0  0  0  0  0
   -0.6231   -2.0916    1.1588 H   0  0  0  0  0  0  0  0  0  0  0  0
    0.6985   -1.0488    1.8674 H   0  0  0  0  0  0  0  0  0  0  0  0
    1.0347   -2.1835    0.5289 H   0  0  0  0  0  0  0  0  0  0  0  0
   -2.2067    1.0183    1.5765 H   0  0  0  0  0  0  0  0  0  0  0  0
   -1.8941    1.9154    0.0432 H   0  0  0  0  0  0  0  0  0  0  0  0
   -2.9591    0.1002   -1.0358 H   0  0  0  0  0  0  0  0  0  0  0  0
   -2.7049   -1.0212    0.3931 H   0  0  0  0  0  0  0  0  0  0  0  0
  1  2  1  0
  2  3  1  0
  2  4  1  0
  4  5  1  0
  4  6  1  0
  6  7  1  0
  7  8  1  0
  8  9  1  0
  9  4  1  0
  1 10  1  0
  1 11  1  0
  1 12  1  0
  2 13  1  0
  3 14  1  0
  5 15  1  0
  5 16  1  0
  5 17  1  0
  7 18  1  0
  7 19  1  0
  8 20  1  0
  8 21  1  0
M  END
