
     RDKit          3D

 23 24  0  0  0  0  0  0  0  0999 V2000
   -2.2441   -0.6791    0.1314 C   0  0  0  0  0  0  0  0  0  0  0  0
   -1.6455    0.4433   -0.7259 C   0  0  0  0  0  0  0  0  0  0  0  0
   -2.6436    1.3675   -0.9634 O   0  0  0  0  0  0  0  0  0  0  0  0
   -0.4794    1.0821    0.0472 C   0  0  0  0  0  0  0  0  0  0  0  0
    0.5149    0.1301    0.3244 C   0  0  0  0  0  0  0  0  0  0  0  0
    1.0845   -0.4768   -0.8941 C   0  0  0  0  0  0  0  0  0  0  0  0
    2.4778   -0.2912   -0.4138 C   0  0  0  0  0  0  0  0  0  0  0  0
    1.6738   -0.4242    0.8877 C   0  0  0  0  0  0  0  0  0  0  0  0
    1.2810    0.6936    1.5397 C   0  0  0  0  0  0  0  0  0  0  0  0
   -1.5121   -1.4812    0.2177 H   0  0  0  0  0  0  0  0  0  0  0  0
   -3.2335   -0.9613   -0.2270 H   0  0  0  0  0  0  0  0  0  0  0  0
   -2.4011   -0.2112    1.1457 H   0  0  0  0  0  0  0  0  0  0  0  0
   -1.2808    0.0370   -1.6857 H   0  0  0  0  0  0  0  0  0  0  0  0
   -2.3541    2.3037   -0.7858 H   0  0  0  0  0  0  0  0  0  0  0  0
   -0.9874    1.6538    0.8656 H   0  0  0  0  0  0  0  0  0  0  0  0
   -0.1076    1.8909   -0.6512 H   0  0  0  0  0  0  0  0  0  0  0  0
    0.9273    0.0001   -1.8671 H   0  0  0  0  0  0  0  0  0  0  0  0
    0.8419   -1.5809   -0.9280 H   0  0  0  0  0  0  0  0  0  0  0  0
    3.1980   -1.0876   -0.5884 H   0  0  0  0  0  0  0  0  0  0  0  0
    2.8588    0.7519   -0.5684 H   0  0  0  0  0  0  0  0  0  0  0  0
    1.6583   -1.4782    1.2466 H   0  0  0  0  0  0  0  0  0  0  0  0
    0.6127    0.6595    2.4533 H   0  0  0  0  0  0  0  0  0  0  0  0
    1.7601    1.6840    1.4394 H   0  0  0  0  0  0  0  0  0  0  0  0
  1  2  1  0
  2  3  1  0
  2  4  1  0
  4  5  1  0
  5  6  1  0
  6  7  1  0
  7  8  1  0
  8  9  1  0
  8  5  1  0
  9  5  1  0
  1 10  1  0
  1 11  1  0
  1 12  1  0
  2 13  1  0
  3 14  1  0
  4 15  1  0
  4 16  1  0
  6 17  1  0
  6 18  1  0
  7 19  1  0
  7 20  1  0
  8 21  1  0
  9 22  1  0
  9 23  1  0
M  END
