
     RDKit          3D

 19 18  0  0  0  0  0  0  0  0999 V2000
   -1.6754    0.9597   -0.1590 C   0  0  0  0  0  0  0  0  0  0  0  0
   -0.7738   -0.0603   -0.8143 C   0  0  0  0  0  0  0  0  0  0  0  0
   -1.5847   -0.9995   -1.4921 O   0  0  0  0  0  0  0  0  0  0  0  0
    0.0016   -0.8569    0.2127 C   0  0  0  0  0  0  0  0  0  0  0  0
   -0.9426   -1.4449    1.0365 O   0  0  0  0  0  0  0  0  0  0  0  0
    0.9405   -0.0246    0.9980 C   0  0  0  0  0  0  0  0  0  0  0  0
    0.7654    0.0481    2.2025 O   0  0  0  0  0  0  0  0  0  0  0  0
    2.0765    0.7278    0.4410 C   0  0  0  0  0  0  0  0  0  0  0  0
    2.1357    0.5307   -0.9150 O   0  0  0  0  0  0  0  0  0  0  0  0
   -2.5988    1.1444   -0.7648 H   0  0  0  0  0  0  0  0  0  0  0  0
   -1.9847    0.6093    0.8589 H   0  0  0  0  0  0  0  0  0  0  0  0
   -1.1278    1.9217    0.0110 H   0  0  0  0  0  0  0  0  0  0  0  0
   -0.1152    0.4496   -1.5087 H   0  0  0  0  0  0  0  0  0  0  0  0
   -2.3558   -1.2159   -0.8875 H   0  0  0  0  0  0  0  0  0  0  0  0
    0.5652   -1.6508   -0.3014 H   0  0  0  0  0  0  0  0  0  0  0  0
   -1.2302   -2.3309    0.7196 H   0  0  0  0  0  0  0  0  0  0  0  0
    2.0064    1.8203    0.6220 H   0  0  0  0  0  0  0  0  0  0  0  0
    2.9976    0.3906    0.9609 H   0  0  0  0  0  0  0  0  0  0  0  0
    2.9001   -0.0185   -1.2204 H   0  0  0  0  0  0  0  0  0  0  0  0
  1  2  1  0
  2  3  1  0
  2  4  1  0
  4  5  1  0
  4  6  1  0
  6  7  2  0
  6  8  1  0
  8  9  1  0
  1 10  1  0
  1 11  1  0
  1 12  1  0
  2 13  1  0
  3 14  1  0
  4 15  1  0
  5 16  1  0
  8 17  1  0
  8 18  1  0
  9 19  1  0
M  END
