
     RDKit          3D

 16 16  0  0  0  0  0  0  0  0999 V2000
   -2.0382    0.1355    1.3706 C   0  0  0  0  0  0  0  0  0  0  0  0
   -1.7644   -0.8014    0.2112 C   0  0  0  0  0  0  0  0  0  0  0  0
   -2.5571   -0.3740   -0.8501 O   0  0  0  0  0  0  0  0  0  0  0  0
   -0.3275   -0.6729   -0.0947 C   0  0  0  0  0  0  0  0  0  0  0  0
    0.8453   -0.5501   -0.3376 C   0  0  0  0  0  0  0  0  0  0  0  0
    2.2757   -0.4070   -0.6332 C   0  0  0  0  0  0  0  0  0  0  0  0
    2.7778    1.0271   -0.6526 C   0  0  0  0  0  0  0  0  0  0  0  0
    2.5646    0.1868   -1.8479 O   0  0  0  0  0  0  0  0  0  0  0  0
   -1.3187    0.0237    2.1918 H   0  0  0  0  0  0  0  0  0  0  0  0
   -2.1883    1.1826    1.0399 H   0  0  0  0  0  0  0  0  0  0  0  0
   -3.0372   -0.1871    1.7852 H   0  0  0  0  0  0  0  0  0  0  0  0
   -2.0193   -1.8300    0.5316 H   0  0  0  0  0  0  0  0  0  0  0  0
   -2.1115    0.3635   -1.3359 H   0  0  0  0  0  0  0  0  0  0  0  0
    2.9845   -1.1504   -0.2587 H   0  0  0  0  0  0  0  0  0  0  0  0
    3.8463    1.1976   -0.4258 H   0  0  0  0  0  0  0  0  0  0  0  0
    2.0679    1.8562   -0.6938 H   0  0  0  0  0  0  0  0  0  0  0  0
  1  2  1  0
  2  3  1  0
  2  4  1  0
  4  5  3  0
  5  6  1  0
  6  7  1  0
  7  8  1  0
  8  6  1  0
  1  9  1  0
  1 10  1  0
  1 11  1  0
  2 12  1  0
  3 13  1  0
  6 14  1  0
  7 15  1  0
  7 16  1  0
M  END
