
     RDKit          3D

 21 20  0  0  0  0  0  0  0  0999 V2000
   -2.8112   -0.0716   -0.0704 C   0  0  0  0  0  0  0  0  0  0  0  0
   -1.5401    0.7385   -0.2154 C   0  0  0  0  0  0  0  0  0  0  0  0
   -1.1942    0.7638   -1.5558 O   0  0  0  0  0  0  0  0  0  0  0  0
   -0.4710    0.1278    0.6221 C   0  0  0  0  0  0  0  0  0  0  0  0
   -0.6936    0.0486    1.8274 O   0  0  0  0  0  0  0  0  0  0  0  0
    0.8049   -0.3762    0.1208 C   0  0  0  0  0  0  0  0  0  0  0  0
    1.5988   -0.9322    1.2756 C   0  0  0  0  0  0  0  0  0  0  0  0
    1.6160    0.6193   -0.6748 C   0  0  0  0  0  0  0  0  0  0  0  0
    2.7961   -0.0643   -1.0572 O   0  0  0  0  0  0  0  0  0  0  0  0
   -2.7785   -0.5464    0.9399 H   0  0  0  0  0  0  0  0  0  0  0  0
   -2.8329   -0.8622   -0.8296 H   0  0  0  0  0  0  0  0  0  0  0  0
   -3.7230    0.5635   -0.1076 H   0  0  0  0  0  0  0  0  0  0  0  0
   -1.7921    1.7712    0.1372 H   0  0  0  0  0  0  0  0  0  0  0  0
   -1.4642   -0.1233   -1.9501 H   0  0  0  0  0  0  0  0  0  0  0  0
    0.5818   -1.2208   -0.5958 H   0  0  0  0  0  0  0  0  0  0  0  0
    1.2538   -1.9740    1.4472 H   0  0  0  0  0  0  0  0  0  0  0  0
    1.3472   -0.3679    2.1997 H   0  0  0  0  0  0  0  0  0  0  0  0
    2.6788   -0.9690    1.0798 H   0  0  0  0  0  0  0  0  0  0  0  0
    1.9143    1.5020   -0.1108 H   0  0  0  0  0  0  0  0  0  0  0  0
    1.1214    0.8985   -1.6253 H   0  0  0  0  0  0  0  0  0  0  0  0
    3.5879    0.4747   -0.8567 H   0  0  0  0  0  0  0  0  0  0  0  0
  1  2  1  0
  2  3  1  0
  2  4  1  0
  4  5  2  0
  4  6  1  0
  6  7  1  0
  6  8  1  0
  8  9  1  0
  1 10  1  0
  1 11  1  0
  1 12  1  0
  2 13  1  0
  3 14  1  0
  6 15  1  0
  7 16  1  0
  7 17  1  0
  7 18  1  0
  8 19  1  0
  8 20  1  0
  9 21  1  0
M  END
