
     RDKit          3D

 21 22  0  0  0  0  0  0  0  0999 V2000
   -1.9780    1.3974   -0.1377 C   0  0  0  0  0  0  0  0  0  0  0  0
   -1.3271    0.1617    0.3870 C   0  0  0  0  0  0  0  0  0  0  0  0
   -2.1875   -0.9243    0.3353 O   0  0  0  0  0  0  0  0  0  0  0  0
   -0.0143   -0.1199   -0.3007 C   0  0  0  0  0  0  0  0  0  0  0  0
    1.0968    0.8692   -0.2397 C   0  0  0  0  0  0  0  0  0  0  0  0
    1.7959   -0.0461    0.7451 C   0  0  0  0  0  0  0  0  0  0  0  0
    3.1401   -0.2456    0.5303 O   0  0  0  0  0  0  0  0  0  0  0  0
    0.8674   -1.1611    0.4388 C   0  0  0  0  0  0  0  0  0  0  0  0
    0.2998   -1.4248   -0.8884 C   0  0  0  0  0  0  0  0  0  0  0  0
   -1.8280    1.5438   -1.2227 H   0  0  0  0  0  0  0  0  0  0  0  0
   -1.6667    2.3011    0.4370 H   0  0  0  0  0  0  0  0  0  0  0  0
   -3.0837    1.3073    0.0209 H   0  0  0  0  0  0  0  0  0  0  0  0
   -1.1303    0.3410    1.4858 H   0  0  0  0  0  0  0  0  0  0  0  0
   -2.3683   -1.1802   -0.5850 H   0  0  0  0  0  0  0  0  0  0  0  0
    0.8764    1.8700    0.1390 H   0  0  0  0  0  0  0  0  0  0  0  0
    1.6577    0.8866   -1.2008 H   0  0  0  0  0  0  0  0  0  0  0  0
    1.6494    0.3743    1.7813 H   0  0  0  0  0  0  0  0  0  0  0  0
    3.3711   -0.6859   -0.3022 H   0  0  0  0  0  0  0  0  0  0  0  0
    0.4187   -1.6602    1.3155 H   0  0  0  0  0  0  0  0  0  0  0  0
    0.9324   -1.4412   -1.8065 H   0  0  0  0  0  0  0  0  0  0  0  0
   -0.5221   -2.1631   -0.9323 H   0  0  0  0  0  0  0  0  0  0  0  0
  1  2  1  0
  2  3  1  0
  2  4  1  0
  4  5  1  0
  5  6  1  0
  6  7  1  0
  6  8  1  0
  8  9  1  0
  8  4  1  0
  9  4  1  0
  1 10  1  0
  1 11  1  0
  1 12  1  0
  2 13  1  0
  3 14  1  0
  5 15  1  0
  5 16  1  0
  6 17  1  0
  7 18  1  0
  8 19  1  0
  9 20  1  0
  9 21  1  0
M  END
