
     RDKit          3D

 19 18  0  0  0  0  0  0  0  0999 V2000
   -1.4250    0.6025    1.2303 C   0  0  0  0  0  0  0  0  0  0  0  0
   -1.0433    0.4943   -0.2151 C   0  0  0  0  0  0  0  0  0  0  0  0
   -2.2080    0.1540   -0.9311 O   0  0  0  0  0  0  0  0  0  0  0  0
   -0.0418   -0.5855   -0.4982 C   0  0  0  0  0  0  0  0  0  0  0  0
    0.1851   -0.6077   -1.8670 O   0  0  0  0  0  0  0  0  0  0  0  0
    1.2532   -0.4016    0.2522 C   0  0  0  0  0  0  0  0  0  0  0  0
    2.0741   -1.4757   -0.0796 O   0  0  0  0  0  0  0  0  0  0  0  0
    1.9499    0.8407   -0.1181 C   0  0  0  0  0  0  0  0  0  0  0  0
    3.0437    0.8042   -0.6177 O   0  0  0  0  0  0  0  0  0  0  0  0
   -2.1263    1.4554    1.3256 H   0  0  0  0  0  0  0  0  0  0  0  0
   -2.0330   -0.3148    1.4697 H   0  0  0  0  0  0  0  0  0  0  0  0
   -0.5584    0.6884    1.9117 H   0  0  0  0  0  0  0  0  0  0  0  0
   -0.7126    1.4714   -0.6507 H   0  0  0  0  0  0  0  0  0  0  0  0
   -2.3774   -0.8016   -0.7316 H   0  0  0  0  0  0  0  0  0  0  0  0
   -0.4843   -1.5485   -0.1688 H   0  0  0  0  0  0  0  0  0  0  0  0
   -0.6279   -0.3401   -2.3869 H   0  0  0  0  0  0  0  0  0  0  0  0
    1.0630   -0.4116    1.3453 H   0  0  0  0  0  0  0  0  0  0  0  0
    2.5950   -1.8092    0.6691 H   0  0  0  0  0  0  0  0  0  0  0  0
    1.4742    1.7853    0.0609 H   0  0  0  0  0  0  0  0  0  0  0  0
  1  2  1  0
  2  3  1  0
  2  4  1  0
  4  5  1  0
  4  6  1  0
  6  7  1  0
  6  8  1  0
  8  9  2  0
  1 10  1  0
  1 11  1  0
  1 12  1  0
  2 13  1  0
  3 14  1  0
  4 15  1  0
  5 16  1  0
  6 17  1  0
  7 18  1  0
  8 19  1  0
M  END
