
     RDKit          3D

 23 22  0  0  0  0  0  0  0  0999 V2000
   -0.0394   -1.6346   -0.0100 C   0  0  0  0  0  0  0  0  0  0  0  0
    0.1071   -0.3674    0.7840 C   0  0  0  0  0  0  0  0  0  0  0  0
    0.3487   -0.8432    2.1210 O   0  0  0  0  0  0  0  0  0  0  0  0
   -1.1258    0.4401    0.8867 C   0  0  0  0  0  0  0  0  0  0  0  0
   -1.7469    0.9309   -0.3704 C   0  0  0  0  0  0  0  0  0  0  0  0
   -2.1136   -0.1278   -1.2333 O   0  0  0  0  0  0  0  0  0  0  0  0
    1.3671    0.3108    0.4296 C   0  0  0  0  0  0  0  0  0  0  0  0
    1.5943    0.7319   -0.9669 C   0  0  0  0  0  0  0  0  0  0  0  0
    1.5682   -0.3226   -1.8907 O   0  0  0  0  0  0  0  0  0  0  0  0
   -0.8651   -2.2874    0.4023 H   0  0  0  0  0  0  0  0  0  0  0  0
   -0.2524   -1.5167   -1.0663 H   0  0  0  0  0  0  0  0  0  0  0  0
    0.8737   -2.2595    0.0805 H   0  0  0  0  0  0  0  0  0  0  0  0
    0.2671   -0.0473    2.7354 H   0  0  0  0  0  0  0  0  0  0  0  0
   -0.9906    1.3474    1.5495 H   0  0  0  0  0  0  0  0  0  0  0  0
   -1.9377   -0.1246    1.4404 H   0  0  0  0  0  0  0  0  0  0  0  0
   -2.7603    1.3631   -0.0838 H   0  0  0  0  0  0  0  0  0  0  0  0
   -1.2563    1.7459   -0.8926 H   0  0  0  0  0  0  0  0  0  0  0  0
   -2.8033   -0.6484   -0.7726 H   0  0  0  0  0  0  0  0  0  0  0  0
    1.5583    1.2103    1.0751 H   0  0  0  0  0  0  0  0  0  0  0  0
    2.2245   -0.3751    0.7053 H   0  0  0  0  0  0  0  0  0  0  0  0
    1.0575    1.6310   -1.3129 H   0  0  0  0  0  0  0  0  0  0  0  0
    2.6863    1.0583   -1.0022 H   0  0  0  0  0  0  0  0  0  0  0  0
    2.2385   -0.2153   -2.6077 H   0  0  0  0  0  0  0  0  0  0  0  0
  1  2  1  0
  2  3  1  0
  2  4  1  0
  4  5  1  0
  5  6  1  0
  2  7  1  0
  7  8  1  0
  8  9  1  0
  1 10  1  0
  1 11  1  0
  1 12  1  0
  3 13  1  0
  4 14  1  0
  4 15  1  0
  5 16  1  0
  5 17  1  0
  6 18  1  0
  7 19  1  0
  7 20  1  0
  8 21  1  0
  8 22  1  0
  9 23  1  0
M  END
