
     RDKit          3D

 21 22  0  0  0  0  0  0  0  0999 V2000
   -2.5014   -0.5009   -0.4250 C   0  0  0  0  0  0  0  0  0  0  0  0
   -1.6176    0.6516   -0.0063 C   0  0  0  0  0  0  0  0  0  0  0  0
   -2.0805    1.0402    1.2745 O   0  0  0  0  0  0  0  0  0  0  0  0
   -0.2730    0.3517   -0.0038 C   0  0  0  0  0  0  0  0  0  0  0  0
    0.4330   -0.6388    0.8583 C   0  0  0  0  0  0  0  0  0  0  0  0
    1.4791    0.1025    0.0728 C   0  0  0  0  0  0  0  0  0  0  0  0
    2.8427   -0.0667    0.1318 C   0  0  0  0  0  0  0  0  0  0  0  0
    0.5913   -0.0622   -1.1301 C   0  0  0  0  0  0  0  0  0  0  0  0
    0.7514    1.2546    0.3504 O   0  0  0  0  0  0  0  0  0  0  0  0
   -2.1986   -0.8760   -1.4349 H   0  0  0  0  0  0  0  0  0  0  0  0
   -2.4852   -1.3195    0.3164 H   0  0  0  0  0  0  0  0  0  0  0  0
   -3.5631   -0.1557   -0.5461 H   0  0  0  0  0  0  0  0  0  0  0  0
   -1.8923    1.5063   -0.6657 H   0  0  0  0  0  0  0  0  0  0  0  0
   -1.4084    1.6806    1.6594 H   0  0  0  0  0  0  0  0  0  0  0  0
    0.3221   -1.6819    0.4967 H   0  0  0  0  0  0  0  0  0  0  0  0
    0.4160   -0.4770    1.9348 H   0  0  0  0  0  0  0  0  0  0  0  0
    3.2142   -0.5877    1.0630 H   0  0  0  0  0  0  0  0  0  0  0  0
    3.4405    0.8912    0.1143 H   0  0  0  0  0  0  0  0  0  0  0  0
    3.2856   -0.6741   -0.7053 H   0  0  0  0  0  0  0  0  0  0  0  0
    0.7439    0.6701   -1.9361 H   0  0  0  0  0  0  0  0  0  0  0  0
    0.5003   -1.1081   -1.4188 H   0  0  0  0  0  0  0  0  0  0  0  0
  1  2  1  0
  2  3  1  0
  2  4  1  0
  4  5  1  0
  5  6  1  0
  6  7  1  0
  6  8  1  0
  6  9  1  0
  8  4  1  0
  9  4  1  0
  1 10  1  0
  1 11  1  0
  1 12  1  0
  2 13  1  0
  3 14  1  0
  5 15  1  0
  5 16  1  0
  7 17  1  0
  7 18  1  0
  7 19  1  0
  8 20  1  0
  8 21  1  0
M  END
