
     RDKit          3D

 21 21  0  0  0  0  0  0  0  0999 V2000
    2.6436    0.4353   -0.4234 C   0  0  0  0  0  0  0  0  0  0  0  0
    1.3823   -0.3927   -0.2964 C   0  0  0  0  0  0  0  0  0  0  0  0
    1.5602   -1.2798    0.7534 O   0  0  0  0  0  0  0  0  0  0  0  0
    0.2447    0.5399    0.0127 C   0  0  0  0  0  0  0  0  0  0  0  0
   -1.0610   -0.1512    0.1635 C   0  0  0  0  0  0  0  0  0  0  0  0
   -1.0711   -1.0825    1.1743 O   0  0  0  0  0  0  0  0  0  0  0  0
   -1.8515   -0.4390   -1.0575 C   0  0  0  0  0  0  0  0  0  0  0  0
   -2.5103    0.7831   -1.0238 O   0  0  0  0  0  0  0  0  0  0  0  0
   -2.1815    0.8812    0.3256 C   0  0  0  0  0  0  0  0  0  0  0  0
    2.7428    0.9109   -1.4204 H   0  0  0  0  0  0  0  0  0  0  0  0
    2.6412    1.2387    0.3545 H   0  0  0  0  0  0  0  0  0  0  0  0
    3.5615   -0.1923   -0.2961 H   0  0  0  0  0  0  0  0  0  0  0  0
    1.2127   -0.9900   -1.2057 H   0  0  0  0  0  0  0  0  0  0  0  0
    2.5090   -1.4180    1.0001 H   0  0  0  0  0  0  0  0  0  0  0  0
    0.4794    1.0227    0.9985 H   0  0  0  0  0  0  0  0  0  0  0  0
    0.2105    1.3727   -0.7181 H   0  0  0  0  0  0  0  0  0  0  0  0
   -1.7955   -1.7406    1.0331 H   0  0  0  0  0  0  0  0  0  0  0  0
   -1.3309   -0.6724   -1.9846 H   0  0  0  0  0  0  0  0  0  0  0  0
   -2.6003   -1.2539   -0.8417 H   0  0  0  0  0  0  0  0  0  0  0  0
   -1.8178    1.8963    0.5480 H   0  0  0  0  0  0  0  0  0  0  0  0
   -2.9679    0.5315    1.0284 H   0  0  0  0  0  0  0  0  0  0  0  0
  1  2  1  0
  2  3  1  0
  2  4  1  0
  4  5  1  0
  5  6  1  0
  5  7  1  0
  7  8  1  0
  8  9  1  0
  9  5  1  0
  1 10  1  0
  1 11  1  0
  1 12  1  0
  2 13  1  0
  3 14  1  0
  4 15  1  0
  4 16  1  0
  6 17  1  0
  7 18  1  0
  7 19  1  0
  9 20  1  0
  9 21  1  0
M  END
