
     RDKit          3D

 18 17  0  0  0  0  0  0  0  0999 V2000
   -2.3321   -0.6487   -0.8719 C   0  0  0  0  0  0  0  0  0  0  0  0
   -1.3737    0.2514   -0.1128 C   0  0  0  0  0  0  0  0  0  0  0  0
   -1.7294    0.2594    1.2218 O   0  0  0  0  0  0  0  0  0  0  0  0
    0.0151   -0.2919   -0.3406 C   0  0  0  0  0  0  0  0  0  0  0  0
    1.0515    0.4917    0.3441 C   0  0  0  0  0  0  0  0  0  0  0  0
    0.7276    1.4615    1.0034 O   0  0  0  0  0  0  0  0  0  0  0  0
    2.4729    0.0867    0.2193 C   0  0  0  0  0  0  0  0  0  0  0  0
    3.3093    0.9579    0.9432 O   0  0  0  0  0  0  0  0  0  0  0  0
   -3.1527   -0.0813   -1.3503 H   0  0  0  0  0  0  0  0  0  0  0  0
   -1.7965   -1.1938   -1.6779 H   0  0  0  0  0  0  0  0  0  0  0  0
   -2.7184   -1.4325   -0.1832 H   0  0  0  0  0  0  0  0  0  0  0  0
   -1.4574    1.2987   -0.5013 H   0  0  0  0  0  0  0  0  0  0  0  0
   -2.4131    0.9653    1.3490 H   0  0  0  0  0  0  0  0  0  0  0  0
    0.2022   -0.3863   -1.4147 H   0  0  0  0  0  0  0  0  0  0  0  0
    0.0222   -1.3216    0.1141 H   0  0  0  0  0  0  0  0  0  0  0  0
    2.8223    0.1185   -0.8537 H   0  0  0  0  0  0  0  0  0  0  0  0
    2.6491   -0.9691    0.5351 H   0  0  0  0  0  0  0  0  0  0  0  0
    3.7013    0.4339    1.6893 H   0  0  0  0  0  0  0  0  0  0  0  0
  1  2  1  0
  2  3  1  0
  2  4  1  0
  4  5  1  0
  5  6  2  0
  5  7  1  0
  7  8  1  0
  1  9  1  0
  1 10  1  0
  1 11  1  0
  2 12  1  0
  3 13  1  0
  4 14  1  0
  4 15  1  0
  7 16  1  0
  7 17  1  0
  8 18  1  0
M  END
