
     RDKit          3D

 21 22  0  0  0  0  0  0  0  0999 V2000
   -2.0532   -0.7829    0.3427 C   0  0  0  0  0  0  0  0  0  0  0  0
   -0.6369   -0.7621   -0.2514 C   0  0  0  0  0  0  0  0  0  0  0  0
   -0.6959   -0.8355   -1.6432 O   0  0  0  0  0  0  0  0  0  0  0  0
    0.0058    0.5083    0.2326 C   0  0  0  0  0  0  0  0  0  0  0  0
   -0.7087    1.7634   -0.1816 C   0  0  0  0  0  0  0  0  0  0  0  0
    0.4744    2.4223   -0.4158 O   0  0  0  0  0  0  0  0  0  0  0  0
    1.0951    1.1688   -0.5229 C   0  0  0  0  0  0  0  0  0  0  0  0
    1.3679    0.4912    0.7510 C   0  0  0  0  0  0  0  0  0  0  0  0
    2.1487   -0.8168    0.6258 C   0  0  0  0  0  0  0  0  0  0  0  0
   -2.4010   -1.8092    0.4927 H   0  0  0  0  0  0  0  0  0  0  0  0
   -2.0205   -0.2518    1.3165 H   0  0  0  0  0  0  0  0  0  0  0  0
   -2.7457   -0.2126   -0.3095 H   0  0  0  0  0  0  0  0  0  0  0  0
   -0.1512   -1.6775    0.1890 H   0  0  0  0  0  0  0  0  0  0  0  0
   -1.3212   -1.5568   -1.8927 H   0  0  0  0  0  0  0  0  0  0  0  0
   -1.2437    1.6130   -1.1641 H   0  0  0  0  0  0  0  0  0  0  0  0
   -1.3790    2.1623    0.5829 H   0  0  0  0  0  0  0  0  0  0  0  0
    1.4164    0.7994   -1.5022 H   0  0  0  0  0  0  0  0  0  0  0  0
    1.6659    1.0674    1.6572 H   0  0  0  0  0  0  0  0  0  0  0  0
    3.2036   -0.5005    0.3868 H   0  0  0  0  0  0  0  0  0  0  0  0
    1.8214   -1.4053   -0.2532 H   0  0  0  0  0  0  0  0  0  0  0  0
    2.1578   -1.3851    1.5593 H   0  0  0  0  0  0  0  0  0  0  0  0
  1  2  1  0
  2  3  1  0
  2  4  1  0
  4  5  1  0
  5  6  1  0
  6  7  1  0
  7  8  1  0
  8  9  1  0
  7  4  1  0
  8  4  1  0
  1 10  1  0
  1 11  1  0
  1 12  1  0
  2 13  1  0
  3 14  1  0
  5 15  1  0
  5 16  1  0
  7 17  1  0
  8 18  1  0
  9 19  1  0
  9 20  1  0
  9 21  1  0
M  END
