
     RDKit          3D

 23 23  0  0  0  0  0  0  0  0999 V2000
    1.7286    0.1361    1.2764 C   0  0  0  0  0  0  0  0  0  0  0  0
    1.5707    0.0415   -0.1891 C   0  0  0  0  0  0  0  0  0  0  0  0
    1.8772    1.2920   -0.7412 O   0  0  0  0  0  0  0  0  0  0  0  0
    0.2909   -0.4161   -0.7232 C   0  0  0  0  0  0  0  0  0  0  0  0
   -0.2080   -1.7747   -0.3528 C   0  0  0  0  0  0  0  0  0  0  0  0
   -1.5121   -1.2837   -0.6047 O   0  0  0  0  0  0  0  0  0  0  0  0
   -1.0047   -0.0179   -0.2146 C   0  0  0  0  0  0  0  0  0  0  0  0
   -1.2876    0.1998    1.2104 C   0  0  0  0  0  0  0  0  0  0  0  0
   -1.7145    1.0321   -1.0708 C   0  0  0  0  0  0  0  0  0  0  0  0
    1.5900   -0.8444    1.8045 H   0  0  0  0  0  0  0  0  0  0  0  0
    2.8136    0.3904    1.4781 H   0  0  0  0  0  0  0  0  0  0  0  0
    1.1609    0.9571    1.7534 H   0  0  0  0  0  0  0  0  0  0  0  0
    2.3858   -0.6444   -0.5710 H   0  0  0  0  0  0  0  0  0  0  0  0
    2.0980    1.1543   -1.6970 H   0  0  0  0  0  0  0  0  0  0  0  0
    0.3060   -0.3325   -1.8531 H   0  0  0  0  0  0  0  0  0  0  0  0
    0.0076   -2.5582   -1.1116 H   0  0  0  0  0  0  0  0  0  0  0  0
   -0.0631   -2.0837    0.7011 H   0  0  0  0  0  0  0  0  0  0  0  0
   -2.3917   -0.0046    1.3660 H   0  0  0  0  0  0  0  0  0  0  0  0
   -1.1981    1.2938    1.4812 H   0  0  0  0  0  0  0  0  0  0  0  0
   -0.7733   -0.4532    1.9180 H   0  0  0  0  0  0  0  0  0  0  0  0
   -2.6768    0.6523   -1.4674 H   0  0  0  0  0  0  0  0  0  0  0  0
   -1.0893    1.3180   -1.9320 H   0  0  0  0  0  0  0  0  0  0  0  0
   -1.9097    1.9460   -0.4605 H   0  0  0  0  0  0  0  0  0  0  0  0
  1  2  1  0
  2  3  1  0
  2  4  1  0
  4  5  1  0
  5  6  1  0
  6  7  1  0
  7  8  1  0
  7  9  1  0
  7  4  1  0
  1 10  1  0
  1 11  1  0
  1 12  1  0
  2 13  1  0
  3 14  1  0
  4 15  1  0
  5 16  1  0
  5 17  1  0
  8 18  1  0
  8 19  1  0
  8 20  1  0
  9 21  1  0
  9 22  1  0
  9 23  1  0
M  END
