
     RDKit          3D

 18 18  0  0  0  0  0  0  0  0999 V2000
    1.9509    0.7494   -0.1097 C   0  0  0  0  0  0  0  0  0  0  0  0
    0.8397   -0.0961    0.4351 C   0  0  0  0  0  0  0  0  0  0  0  0
    1.4045   -1.2672    0.9341 O   0  0  0  0  0  0  0  0  0  0  0  0
   -0.1953   -0.4515   -0.5972 C   0  0  0  0  0  0  0  0  0  0  0  0
   -1.3477   -1.1508    0.0606 C   0  0  0  0  0  0  0  0  0  0  0  0
   -2.2260   -0.1427    0.3805 O   0  0  0  0  0  0  0  0  0  0  0  0
   -1.9120    0.9641   -0.3615 C   0  0  0  0  0  0  0  0  0  0  0  0
   -0.7977    0.6727   -1.1354 O   0  0  0  0  0  0  0  0  0  0  0  0
    1.6392    1.4343   -0.9196 H   0  0  0  0  0  0  0  0  0  0  0  0
    2.3398    1.3785    0.7253 H   0  0  0  0  0  0  0  0  0  0  0  0
    2.8076    0.1000   -0.4145 H   0  0  0  0  0  0  0  0  0  0  0  0
    0.3065    0.3923    1.2836 H   0  0  0  0  0  0  0  0  0  0  0  0
    2.2349   -1.0887    1.4479 H   0  0  0  0  0  0  0  0  0  0  0  0
    0.1978   -1.0492   -1.4304 H   0  0  0  0  0  0  0  0  0  0  0  0
   -1.8655   -1.8692   -0.5985 H   0  0  0  0  0  0  0  0  0  0  0  0
   -0.9714   -1.6034    0.9980 H   0  0  0  0  0  0  0  0  0  0  0  0
   -1.6317    1.7972    0.3090 H   0  0  0  0  0  0  0  0  0  0  0  0
   -2.7736    1.2305   -1.0073 H   0  0  0  0  0  0  0  0  0  0  0  0
  1  2  1  0
  2  3  1  0
  2  4  1  0
  4  5  1  0
  5  6  1  0
  6  7  1  0
  7  8  1  0
  8  4  1  0
  1  9  1  0
  1 10  1  0
  1 11  1  0
  2 12  1  0
  3 13  1  0
  4 14  1  0
  5 15  1  0
  5 16  1  0
  7 17  1  0
  7 18  1  0
M  END
