
     RDKit          3D

 19 18  0  0  0  0  0  0  0  0999 V2000
    2.4039    0.3331   -0.7715 C   0  0  0  0  0  0  0  0  0  0  0  0
    1.4533   -0.1536    0.3023 C   0  0  0  0  0  0  0  0  0  0  0  0
    1.3266   -1.5186    0.3218 O   0  0  0  0  0  0  0  0  0  0  0  0
    0.1517    0.5286    0.0512 C   0  0  0  0  0  0  0  0  0  0  0  0
    0.1823    1.7422    0.0196 O   0  0  0  0  0  0  0  0  0  0  0  0
   -1.1237   -0.1527   -0.1537 C   0  0  0  0  0  0  0  0  0  0  0  0
   -2.2145    0.8792   -0.3782 C   0  0  0  0  0  0  0  0  0  0  0  0
   -1.5122   -1.0698    0.9225 C   0  0  0  0  0  0  0  0  0  0  0  0
   -2.3306   -1.9320    0.6659 O   0  0  0  0  0  0  0  0  0  0  0  0
    2.2888    1.4307   -0.8279 H   0  0  0  0  0  0  0  0  0  0  0  0
    2.0380   -0.0753   -1.7324 H   0  0  0  0  0  0  0  0  0  0  0  0
    3.4516    0.0643   -0.5653 H   0  0  0  0  0  0  0  0  0  0  0  0
    1.8423    0.1992    1.2850 H   0  0  0  0  0  0  0  0  0  0  0  0
    1.5938   -1.8589    1.2060 H   0  0  0  0  0  0  0  0  0  0  0  0
   -0.9920   -0.7930   -1.0698 H   0  0  0  0  0  0  0  0  0  0  0  0
   -2.5208    0.8267   -1.4270 H   0  0  0  0  0  0  0  0  0  0  0  0
   -3.0555    0.6810    0.3280 H   0  0  0  0  0  0  0  0  0  0  0  0
   -1.8525    1.9131   -0.1075 H   0  0  0  0  0  0  0  0  0  0  0  0
   -1.1304   -1.0441    1.9309 H   0  0  0  0  0  0  0  0  0  0  0  0
  1  2  1  0
  2  3  1  0
  2  4  1  0
  4  5  2  0
  4  6  1  0
  6  7  1  0
  6  8  1  0
  8  9  2  0
  1 10  1  0
  1 11  1  0
  1 12  1  0
  2 13  1  0
  3 14  1  0
  6 15  1  0
  7 16  1  0
  7 17  1  0
  7 18  1  0
  8 19  1  0
M  END
