
     RDKit          3D

 23 23  0  0  0  0  0  0  0  0999 V2000
   -1.3178    1.5824   -0.0074 C   0  0  0  0  0  0  0  0  0  0  0  0
   -0.9115    0.3745    0.8105 C   0  0  0  0  0  0  0  0  0  0  0  0
   -0.1746    0.7626    1.8916 O   0  0  0  0  0  0  0  0  0  0  0  0
   -0.2662   -0.5999   -0.1266 C   0  0  0  0  0  0  0  0  0  0  0  0
    0.9294   -0.2245   -0.9124 C   0  0  0  0  0  0  0  0  0  0  0  0
    2.1035    0.1597   -0.0837 C   0  0  0  0  0  0  0  0  0  0  0  0
    1.9225    1.2762    0.7107 O   0  0  0  0  0  0  0  0  0  0  0  0
   -0.3370   -2.0749    0.2271 C   0  0  0  0  0  0  0  0  0  0  0  0
   -1.2959   -1.5259   -0.7803 C   0  0  0  0  0  0  0  0  0  0  0  0
   -0.4277    1.9233   -0.5714 H   0  0  0  0  0  0  0  0  0  0  0  0
   -1.6222    2.4180    0.6535 H   0  0  0  0  0  0  0  0  0  0  0  0
   -2.0863    1.3300   -0.7621 H   0  0  0  0  0  0  0  0  0  0  0  0
   -1.9124   -0.0536    1.1644 H   0  0  0  0  0  0  0  0  0  0  0  0
   -0.4106    1.6950    2.1194 H   0  0  0  0  0  0  0  0  0  0  0  0
    0.7386    0.6171   -1.6314 H   0  0  0  0  0  0  0  0  0  0  0  0
    1.2458   -1.1395   -1.5075 H   0  0  0  0  0  0  0  0  0  0  0  0
    2.4129   -0.6711    0.5951 H   0  0  0  0  0  0  0  0  0  0  0  0
    3.0011    0.3563   -0.7196 H   0  0  0  0  0  0  0  0  0  0  0  0
    2.1642    2.0733    0.1710 H   0  0  0  0  0  0  0  0  0  0  0  0
   -0.6816   -2.2976    1.2524 H   0  0  0  0  0  0  0  0  0  0  0  0
    0.4293   -2.7392   -0.1798 H   0  0  0  0  0  0  0  0  0  0  0  0
   -2.3379   -1.4907   -0.4592 H   0  0  0  0  0  0  0  0  0  0  0  0
   -1.1656   -1.7514   -1.8543 H   0  0  0  0  0  0  0  0  0  0  0  0
  1  2  1  0
  2  3  1  0
  2  4  1  0
  4  5  1  0
  5  6  1  0
  6  7  1  0
  4  8  1  0
  8  9  1  0
  9  4  1  0
  1 10  1  0
  1 11  1  0
  1 12  1  0
  2 13  1  0
  3 14  1  0
  5 15  1  0
  5 16  1  0
  6 17  1  0
  6 18  1  0
  7 19  1  0
  8 20  1  0
  8 21  1  0
  9 22  1  0
  9 23  1  0
M  END
