
     RDKit          3D

 21 23  0  0  0  0  0  0  0  0999 V2000
    2.1478   -0.7514   -0.7979 C   0  0  0  0  0  0  0  0  0  0  0  0
    1.3880   -0.0649    0.2856 C   0  0  0  0  0  0  0  0  0  0  0  0
    1.7950    1.2885    0.2801 O   0  0  0  0  0  0  0  0  0  0  0  0
   -0.0171   -0.1813    0.2176 C   0  0  0  0  0  0  0  0  0  0  0  0
   -1.0300    0.1813   -0.7347 C   0  0  0  0  0  0  0  0  0  0  0  0
   -1.8523   -1.0116   -0.2175 C   0  0  0  0  0  0  0  0  0  0  0  0
   -1.0020   -0.8335    1.0559 C   0  0  0  0  0  0  0  0  0  0  0  0
   -0.8255    0.6069    1.2934 C   0  0  0  0  0  0  0  0  0  0  0  0
   -1.3458    1.4216    0.0920 C   0  0  0  0  0  0  0  0  0  0  0  0
    3.2132   -0.8534   -0.4456 H   0  0  0  0  0  0  0  0  0  0  0  0
    2.1389   -0.1459   -1.7199 H   0  0  0  0  0  0  0  0  0  0  0  0
    1.7317   -1.7480   -1.0514 H   0  0  0  0  0  0  0  0  0  0  0  0
    1.7872   -0.4627    1.2646 H   0  0  0  0  0  0  0  0  0  0  0  0
    1.5409    1.6187   -0.6355 H   0  0  0  0  0  0  0  0  0  0  0  0
   -0.9075    0.2790   -1.7804 H   0  0  0  0  0  0  0  0  0  0  0  0
   -2.8855   -0.6699   -0.0714 H   0  0  0  0  0  0  0  0  0  0  0  0
   -1.6792   -1.9421   -0.7485 H   0  0  0  0  0  0  0  0  0  0  0  0
   -0.7374   -1.6500    1.6777 H   0  0  0  0  0  0  0  0  0  0  0  0
   -0.2630    1.0758    2.0735 H   0  0  0  0  0  0  0  0  0  0  0  0
   -0.7461    2.2955   -0.1441 H   0  0  0  0  0  0  0  0  0  0  0  0
   -2.4514    1.5473    0.1065 H   0  0  0  0  0  0  0  0  0  0  0  0
  1  2  1  0
  2  3  1  0
  2  4  1  0
  4  5  1  0
  5  6  1  0
  6  7  1  0
  7  8  1  0
  8  9  1  0
  7  4  1  0
  8  4  1  0
  9  5  1  0
  1 10  1  0
  1 11  1  0
  1 12  1  0
  2 13  1  0
  3 14  1  0
  5 15  1  0
  6 16  1  0
  6 17  1  0
  7 18  1  0
  8 19  1  0
  9 20  1  0
  9 21  1  0
M  END
