
     RDKit          3D

 23 24  0  0  0  0  0  0  0  0999 V2000
   -2.9007    0.9298    0.0597 C   0  0  0  0  0  0  0  0  0  0  0  0
   -1.6577    0.4892    0.7782 C   0  0  0  0  0  0  0  0  0  0  0  0
   -2.0277   -0.4257    1.7574 O   0  0  0  0  0  0  0  0  0  0  0  0
   -0.7205   -0.2054   -0.1810 C   0  0  0  0  0  0  0  0  0  0  0  0
    0.5481   -0.6666    0.5042 C   0  0  0  0  0  0  0  0  0  0  0  0
    1.4409   -1.3540   -0.5161 C   0  0  0  0  0  0  0  0  0  0  0  0
    2.2256   -0.0590   -0.5930 C   0  0  0  0  0  0  0  0  0  0  0  0
    2.9730    0.2816    0.6391 C   0  0  0  0  0  0  0  0  0  0  0  0
    1.5148    0.4489    0.6996 C   0  0  0  0  0  0  0  0  0  0  0  0
   -3.1984    0.2444   -0.7545 H   0  0  0  0  0  0  0  0  0  0  0  0
   -3.7439    1.0849    0.7650 H   0  0  0  0  0  0  0  0  0  0  0  0
   -2.6949    1.9089   -0.4135 H   0  0  0  0  0  0  0  0  0  0  0  0
   -1.2007    1.3623    1.2426 H   0  0  0  0  0  0  0  0  0  0  0  0
   -2.4694   -1.1948    1.3154 H   0  0  0  0  0  0  0  0  0  0  0  0
   -0.4777    0.5296   -0.9817 H   0  0  0  0  0  0  0  0  0  0  0  0
   -1.2394   -1.0582   -0.6542 H   0  0  0  0  0  0  0  0  0  0  0  0
    0.3395   -1.2664    1.4008 H   0  0  0  0  0  0  0  0  0  0  0  0
    0.9575   -1.6444   -1.4501 H   0  0  0  0  0  0  0  0  0  0  0  0
    2.0471   -2.1482   -0.0044 H   0  0  0  0  0  0  0  0  0  0  0  0
    2.1168    0.6103   -1.4425 H   0  0  0  0  0  0  0  0  0  0  0  0
    3.5097   -0.5426    1.1545 H   0  0  0  0  0  0  0  0  0  0  0  0
    3.5705    1.2096    0.5901 H   0  0  0  0  0  0  0  0  0  0  0  0
    1.0876    1.4660    0.6531 H   0  0  0  0  0  0  0  0  0  0  0  0
  1  2  1  0
  2  3  1  0
  2  4  1  0
  4  5  1  0
  5  6  1  0
  6  7  1  0
  7  8  1  0
  8  9  1  0
  9  5  1  0
  9  7  1  0
  1 10  1  0
  1 11  1  0
  1 12  1  0
  2 13  1  0
  3 14  1  0
  4 15  1  0
  4 16  1  0
  5 17  1  0
  6 18  1  0
  6 19  1  0
  7 20  1  0
  8 21  1  0
  8 22  1  0
  9 23  1  0
M  END
