
     RDKit          3D

 21 22  0  0  0  0  0  0  0  0999 V2000
    2.0128    0.6884   -0.7088 C   0  0  0  0  0  0  0  0  0  0  0  0
    1.3066    0.0009    0.4671 C   0  0  0  0  0  0  0  0  0  0  0  0
    2.1768   -1.0315    0.8591 O   0  0  0  0  0  0  0  0  0  0  0  0
    0.0630   -0.6353   -0.0470 C   0  0  0  0  0  0  0  0  0  0  0  0
   -0.9563    0.2703   -0.6823 C   0  0  0  0  0  0  0  0  0  0  0  0
   -1.2163    1.2750    0.3853 C   0  0  0  0  0  0  0  0  0  0  0  0
   -1.2843    0.4287    1.5241 O   0  0  0  0  0  0  0  0  0  0  0  0
   -1.0553   -0.8078    0.9917 C   0  0  0  0  0  0  0  0  0  0  0  0
   -1.9641   -0.8117   -0.2507 C   0  0  0  0  0  0  0  0  0  0  0  0
    1.7871    1.7648   -0.7381 H   0  0  0  0  0  0  0  0  0  0  0  0
    1.7134    0.2081   -1.6628 H   0  0  0  0  0  0  0  0  0  0  0  0
    3.1266    0.6088   -0.5793 H   0  0  0  0  0  0  0  0  0  0  0  0
    1.1543    0.7448    1.2543 H   0  0  0  0  0  0  0  0  0  0  0  0
    2.2881   -1.6073    0.0408 H   0  0  0  0  0  0  0  0  0  0  0  0
    0.2358   -1.5402   -0.6264 H   0  0  0  0  0  0  0  0  0  0  0  0
   -0.9053    0.5203   -1.7019 H   0  0  0  0  0  0  0  0  0  0  0  0
   -2.1887    1.7615    0.1942 H   0  0  0  0  0  0  0  0  0  0  0  0
   -0.4157    1.9951    0.5538 H   0  0  0  0  0  0  0  0  0  0  0  0
   -1.0417   -1.6855    1.5837 H   0  0  0  0  0  0  0  0  0  0  0  0
   -2.9560   -0.3954   -0.0676 H   0  0  0  0  0  0  0  0  0  0  0  0
   -1.8809   -1.7522   -0.7894 H   0  0  0  0  0  0  0  0  0  0  0  0
  1  2  1  0
  2  3  1  0
  2  4  1  0
  4  5  1  0
  5  6  1  0
  6  7  1  0
  7  8  1  0
  8  9  1  0
  8  4  1  0
  9  5  1  0
  1 10  1  0
  1 11  1  0
  1 12  1  0
  2 13  1  0
  3 14  1  0
  4 15  1  0
  5 16  1  0
  6 17  1  0
  6 18  1  0
  8 19  1  0
  9 20  1  0
  9 21  1  0
M  END
