
     RDKit          3D

 19 18  0  0  0  0  0  0  0  0999 V2000
    1.1075   -0.3032    1.2896 C   0  0  0  0  0  0  0  0  0  0  0  0
    0.4562    0.1221   -0.0095 C   0  0  0  0  0  0  0  0  0  0  0  0
    0.6955    1.4465   -0.2127 O   0  0  0  0  0  0  0  0  0  0  0  0
    1.0966   -0.6731   -1.1216 C   0  0  0  0  0  0  0  0  0  0  0  0
    2.4536   -0.4605   -1.1474 O   0  0  0  0  0  0  0  0  0  0  0  0
   -0.9675   -0.2519    0.0847 C   0  0  0  0  0  0  0  0  0  0  0  0
   -1.1959   -1.4330    0.2663 O   0  0  0  0  0  0  0  0  0  0  0  0
   -2.1017    0.6742   -0.0221 C   0  0  0  0  0  0  0  0  0  0  0  0
   -3.2886   -0.0287    0.1143 O   0  0  0  0  0  0  0  0  0  0  0  0
    0.9779    0.4743    2.0858 H   0  0  0  0  0  0  0  0  0  0  0  0
    0.6520   -1.2443    1.6420 H   0  0  0  0  0  0  0  0  0  0  0  0
    2.1876   -0.4072    1.1212 H   0  0  0  0  0  0  0  0  0  0  0  0
    1.4963    1.7199    0.3029 H   0  0  0  0  0  0  0  0  0  0  0  0
    0.6292   -0.3413   -2.0801 H   0  0  0  0  0  0  0  0  0  0  0  0
    0.8301   -1.7286   -0.9746 H   0  0  0  0  0  0  0  0  0  0  0  0
    2.7150   -0.1241   -2.0368 H   0  0  0  0  0  0  0  0  0  0  0  0
   -2.1453    1.1454   -1.0451 H   0  0  0  0  0  0  0  0  0  0  0  0
   -2.0337    1.5337    0.6764 H   0  0  0  0  0  0  0  0  0  0  0  0
   -3.5650   -0.1202    1.0666 H   0  0  0  0  0  0  0  0  0  0  0  0
  1  2  1  0
  2  3  1  0
  2  4  1  0
  4  5  1  0
  2  6  1  0
  6  7  2  0
  6  8  1  0
  8  9  1  0
  1 10  1  0
  1 11  1  0
  1 12  1  0
  3 13  1  0
  4 14  1  0
  4 15  1  0
  5 16  1  0
  8 17  1  0
  8 18  1  0
  9 19  1  0
M  END
