
     RDKit          3D

 21 22  0  0  0  0  0  0  0  0999 V2000
    2.4468    0.2173    0.3745 C   0  0  0  0  0  0  0  0  0  0  0  0
    1.1936    0.0050   -0.4138 C   0  0  0  0  0  0  0  0  0  0  0  0
    1.4824   -0.8048   -1.5072 O   0  0  0  0  0  0  0  0  0  0  0  0
    0.0599   -0.5661    0.3895 C   0  0  0  0  0  0  0  0  0  0  0  0
   -1.1532   -0.7308   -0.5370 C   0  0  0  0  0  0  0  0  0  0  0  0
   -1.2291    0.6168   -1.1290 C   0  0  0  0  0  0  0  0  0  0  0  0
   -1.0540    1.4218   -0.0499 C   0  0  0  0  0  0  0  0  0  0  0  0
   -0.8496    0.4565    1.0447 C   0  0  0  0  0  0  0  0  0  0  0  0
   -1.9701   -0.5506    0.7456 C   0  0  0  0  0  0  0  0  0  0  0  0
    3.3225    0.1907   -0.3221 H   0  0  0  0  0  0  0  0  0  0  0  0
    2.3974    1.2203    0.8381 H   0  0  0  0  0  0  0  0  0  0  0  0
    2.5921   -0.5279    1.1635 H   0  0  0  0  0  0  0  0  0  0  0  0
    0.8501    0.9824   -0.8305 H   0  0  0  0  0  0  0  0  0  0  0  0
    0.9127   -1.6143   -1.4687 H   0  0  0  0  0  0  0  0  0  0  0  0
    0.2853   -1.4528    0.9979 H   0  0  0  0  0  0  0  0  0  0  0  0
   -1.2545   -1.6043   -1.0961 H   0  0  0  0  0  0  0  0  0  0  0  0
   -1.3812    0.9693   -2.1429 H   0  0  0  0  0  0  0  0  0  0  0  0
   -1.0658    2.5042   -0.0242 H   0  0  0  0  0  0  0  0  0  0  0  0
   -0.6889    0.7537    2.0349 H   0  0  0  0  0  0  0  0  0  0  0  0
   -1.9638   -1.4144    1.4111 H   0  0  0  0  0  0  0  0  0  0  0  0
   -2.9325   -0.0719    0.5215 H   0  0  0  0  0  0  0  0  0  0  0  0
  1  2  1  0
  2  3  1  0
  2  4  1  0
  4  5  1  0
  5  6  1  0
  6  7  2  0
  7  8  1  0
  8  9  1  0
  8  4  1  0
  9  5  1  0
  1 10  1  0
  1 11  1  0
  1 12  1  0
  2 13  1  0
  3 14  1  0
  4 15  1  0
  5 16  1  0
  6 17  1  0
  7 18  1  0
  8 19  1  0
  9 20  1  0
  9 21  1  0
M  END
