
     RDKit          3D

 25 24  0  0  0  0  0  0  0  0999 V2000
    2.9498   -0.2997   -0.6351 C   0  0  0  0  0  0  0  0  0  0  0  0
    1.5729   -0.6920   -0.1438 C   0  0  0  0  0  0  0  0  0  0  0  0
    1.6792   -0.8508    1.2382 O   0  0  0  0  0  0  0  0  0  0  0  0
    0.6213    0.4191   -0.4118 C   0  0  0  0  0  0  0  0  0  0  0  0
   -0.7848    0.1438    0.0349 C   0  0  0  0  0  0  0  0  0  0  0  0
   -1.4124   -1.0446   -0.6115 C   0  0  0  0  0  0  0  0  0  0  0  0
   -0.9072    0.0074    1.5296 C   0  0  0  0  0  0  0  0  0  0  0  0
   -1.6182    1.3694   -0.3584 C   0  0  0  0  0  0  0  0  0  0  0  0
   -2.9524    1.2099    0.0173 O   0  0  0  0  0  0  0  0  0  0  0  0
    2.9797   -0.3603   -1.7605 H   0  0  0  0  0  0  0  0  0  0  0  0
    3.7405   -0.9956   -0.2852 H   0  0  0  0  0  0  0  0  0  0  0  0
    3.2086    0.7558   -0.3572 H   0  0  0  0  0  0  0  0  0  0  0  0
    1.3087   -1.6347   -0.6547 H   0  0  0  0  0  0  0  0  0  0  0  0
    1.9808   -1.7934    1.3811 H   0  0  0  0  0  0  0  0  0  0  0  0
    0.6609    0.7063   -1.4803 H   0  0  0  0  0  0  0  0  0  0  0  0
    0.9722    1.3134    0.1548 H   0  0  0  0  0  0  0  0  0  0  0  0
   -1.8183   -0.7451   -1.6017 H   0  0  0  0  0  0  0  0  0  0  0  0
   -2.2724   -1.3959   -0.0063 H   0  0  0  0  0  0  0  0  0  0  0  0
   -0.7279   -1.9112   -0.7132 H   0  0  0  0  0  0  0  0  0  0  0  0
   -1.9813    0.1638    1.7795 H   0  0  0  0  0  0  0  0  0  0  0  0
   -0.6727   -1.0370    1.8162 H   0  0  0  0  0  0  0  0  0  0  0  0
   -0.3355    0.7536    2.0904 H   0  0  0  0  0  0  0  0  0  0  0  0
   -1.5698    1.5578   -1.4498 H   0  0  0  0  0  0  0  0  0  0  0  0
   -1.2568    2.2795    0.1816 H   0  0  0  0  0  0  0  0  0  0  0  0
   -3.3649    2.0803    0.2461 H   0  0  0  0  0  0  0  0  0  0  0  0
  1  2  1  0
  2  3  1  0
  2  4  1  0
  4  5  1  0
  5  6  1  0
  5  7  1  0
  5  8  1  0
  8  9  1  0
  1 10  1  0
  1 11  1  0
  1 12  1  0
  2 13  1  0
  3 14  1  0
  4 15  1  0
  4 16  1  0
  6 17  1  0
  6 18  1  0
  6 19  1  0
  7 20  1  0
  7 21  1  0
  7 22  1  0
  8 23  1  0
  8 24  1  0
  9 25  1  0
M  END
