
     RDKit          3D

 18 17  0  0  0  0  0  0  0  0999 V2000
   -1.9389   -0.1984   -0.6174 C   0  0  0  0  0  0  0  0  0  0  0  0
   -0.7215   -0.4084    0.2814 C   0  0  0  0  0  0  0  0  0  0  0  0
   -0.9295    0.2248    1.4801 O   0  0  0  0  0  0  0  0  0  0  0  0
    0.5212    0.0683   -0.4389 C   0  0  0  0  0  0  0  0  0  0  0  0
    0.4457    1.5062   -0.7884 C   0  0  0  0  0  0  0  0  0  0  0  0
   -0.5788    2.1615   -0.8291 O   0  0  0  0  0  0  0  0  0  0  0  0
    1.6723   -0.0951    0.5612 C   0  0  0  0  0  0  0  0  0  0  0  0
    1.8100   -1.4209    0.9471 O   0  0  0  0  0  0  0  0  0  0  0  0
   -2.6730   -1.0469   -0.4851 H   0  0  0  0  0  0  0  0  0  0  0  0
   -1.5571   -0.1665   -1.6569 H   0  0  0  0  0  0  0  0  0  0  0  0
   -2.4007    0.7671   -0.3788 H   0  0  0  0  0  0  0  0  0  0  0  0
   -0.6739   -1.5004    0.4659 H   0  0  0  0  0  0  0  0  0  0  0  0
   -1.4638   -0.3377    2.0981 H   0  0  0  0  0  0  0  0  0  0  0  0
    0.6971   -0.5245   -1.3485 H   0  0  0  0  0  0  0  0  0  0  0  0
    1.3607    2.0354   -1.0301 H   0  0  0  0  0  0  0  0  0  0  0  0
    2.5779    0.2757    0.0198 H   0  0  0  0  0  0  0  0  0  0  0  0
    1.4645    0.5900    1.3846 H   0  0  0  0  0  0  0  0  0  0  0  0
    2.3878   -1.9303    0.3350 H   0  0  0  0  0  0  0  0  0  0  0  0
  1  2  1  0
  2  3  1  0
  2  4  1  0
  4  5  1  0
  5  6  2  0
  4  7  1  0
  7  8  1  0
  1  9  1  0
  1 10  1  0
  1 11  1  0
  2 12  1  0
  3 13  1  0
  4 14  1  0
  5 15  1  0
  7 16  1  0
  7 17  1  0
  8 18  1  0
M  END
