
     RDKit          3D

 21 22  0  0  0  0  0  0  0  0999 V2000
   -2.4692    0.0748    0.5876 C   0  0  0  0  0  0  0  0  0  0  0  0
   -1.3022    0.5821   -0.2690 C   0  0  0  0  0  0  0  0  0  0  0  0
   -1.8023    0.7925   -1.5445 O   0  0  0  0  0  0  0  0  0  0  0  0
   -0.2477   -0.4631   -0.3034 C   0  0  0  0  0  0  0  0  0  0  0  0
    0.3178   -0.8315    1.0789 C   0  0  0  0  0  0  0  0  0  0  0  0
    1.2355   -1.8439    1.1556 O   0  0  0  0  0  0  0  0  0  0  0  0
    2.0463   -1.4582    0.0652 C   0  0  0  0  0  0  0  0  0  0  0  0
    1.1637   -0.2304   -0.0534 C   0  0  0  0  0  0  0  0  0  0  0  0
    1.7734    1.0829    0.2772 C   0  0  0  0  0  0  0  0  0  0  0  0
   -3.3975    0.6131    0.3619 H   0  0  0  0  0  0  0  0  0  0  0  0
   -2.2178    0.0994    1.6551 H   0  0  0  0  0  0  0  0  0  0  0  0
   -2.6167   -0.9901    0.2980 H   0  0  0  0  0  0  0  0  0  0  0  0
   -0.9429    1.5106    0.2177 H   0  0  0  0  0  0  0  0  0  0  0  0
   -2.0852    1.7379   -1.6529 H   0  0  0  0  0  0  0  0  0  0  0  0
   -0.5071   -1.3891   -0.8786 H   0  0  0  0  0  0  0  0  0  0  0  0
    0.0672   -0.1893    1.9293 H   0  0  0  0  0  0  0  0  0  0  0  0
    3.0959   -1.2604    0.3252 H   0  0  0  0  0  0  0  0  0  0  0  0
    1.8731   -2.1134   -0.8163 H   0  0  0  0  0  0  0  0  0  0  0  0
    1.4148    1.9295   -0.3243 H   0  0  0  0  0  0  0  0  0  0  0  0
    2.8805    1.0023    0.0714 H   0  0  0  0  0  0  0  0  0  0  0  0
    1.7205    1.3444    1.3683 H   0  0  0  0  0  0  0  0  0  0  0  0
  1  2  1  0
  2  3  1  0
  2  4  1  0
  4  5  1  0
  5  6  1  0
  6  7  1  0
  7  8  1  0
  8  9  1  0
  8  4  1  0
  8  5  1  0
  1 10  1  0
  1 11  1  0
  1 12  1  0
  2 13  1  0
  3 14  1  0
  4 15  1  0
  5 16  1  0
  7 17  1  0
  7 18  1  0
  9 19  1  0
  9 20  1  0
  9 21  1  0
M  END
