
     RDKit          3D

 23 22  0  0  0  0  0  0  0  0999 V2000
    2.2778    0.1036    0.0281 C   0  0  0  0  0  0  0  0  0  0  0  0
    1.4225   -0.8146   -0.7647 C   0  0  0  0  0  0  0  0  0  0  0  0
    1.4322   -0.4731   -2.1395 O   0  0  0  0  0  0  0  0  0  0  0  0
    0.0558   -1.0607   -0.2574 C   0  0  0  0  0  0  0  0  0  0  0  0
   -0.8619    0.0759   -0.1134 C   0  0  0  0  0  0  0  0  0  0  0  0
   -0.4509    1.1754    0.8052 C   0  0  0  0  0  0  0  0  0  0  0  0
   -2.1732   -0.4919    0.4645 C   0  0  0  0  0  0  0  0  0  0  0  0
   -1.2356    0.6921   -1.4123 C   0  0  0  0  0  0  0  0  0  0  0  0
   -2.1687    1.4650   -1.4370 O   0  0  0  0  0  0  0  0  0  0  0  0
    1.9817    0.2919    1.0522 H   0  0  0  0  0  0  0  0  0  0  0  0
    2.3468    1.0833   -0.5182 H   0  0  0  0  0  0  0  0  0  0  0  0
    3.3534   -0.2422    0.0787 H   0  0  0  0  0  0  0  0  0  0  0  0
    1.9434   -1.8231   -0.7522 H   0  0  0  0  0  0  0  0  0  0  0  0
    1.8153    0.4222   -2.2420 H   0  0  0  0  0  0  0  0  0  0  0  0
    0.1345   -1.6147    0.7037 H   0  0  0  0  0  0  0  0  0  0  0  0
   -0.4294   -1.7920   -0.9628 H   0  0  0  0  0  0  0  0  0  0  0  0
   -0.2218    0.7912    1.8438 H   0  0  0  0  0  0  0  0  0  0  0  0
    0.2904    1.8701    0.4233 H   0  0  0  0  0  0  0  0  0  0  0  0
   -1.3815    1.7992    0.9796 H   0  0  0  0  0  0  0  0  0  0  0  0
   -2.6686    0.2559    1.1121 H   0  0  0  0  0  0  0  0  0  0  0  0
   -1.9430   -1.3621    1.1443 H   0  0  0  0  0  0  0  0  0  0  0  0
   -2.8098   -0.8252   -0.3532 H   0  0  0  0  0  0  0  0  0  0  0  0
   -0.7094    0.4735   -2.3115 H   0  0  0  0  0  0  0  0  0  0  0  0
  1  2  1  0
  2  3  1  0
  2  4  1  0
  4  5  1  0
  5  6  1  0
  5  7  1  0
  5  8  1  0
  8  9  2  0
  1 10  1  0
  1 11  1  0
  1 12  1  0
  2 13  1  0
  3 14  1  0
  4 15  1  0
  4 16  1  0
  6 17  1  0
  6 18  1  0
  6 19  1  0
  7 20  1  0
  7 21  1  0
  7 22  1  0
  8 23  1  0
M  END
