
     RDKit          3D

 21 21  0  0  0  0  0  0  0  0999 V2000
    0.9851    0.5499   -1.8378 C   0  0  0  0  0  0  0  0  0  0  0  0
    1.4374    0.3125   -0.4076 C   0  0  0  0  0  0  0  0  0  0  0  0
    2.8172    0.0803   -0.4528 O   0  0  0  0  0  0  0  0  0  0  0  0
    0.7953   -0.9181    0.1387 C   0  0  0  0  0  0  0  0  0  0  0  0
   -0.7021   -0.8664    0.1636 C   0  0  0  0  0  0  0  0  0  0  0  0
   -1.1602   -0.6935   -1.1413 O   0  0  0  0  0  0  0  0  0  0  0  0
   -1.2612    0.2019    1.0234 C   0  0  0  0  0  0  0  0  0  0  0  0
   -2.1048    1.2371    0.3523 C   0  0  0  0  0  0  0  0  0  0  0  0
   -2.7090    0.2756    1.1190 O   0  0  0  0  0  0  0  0  0  0  0  0
    0.8036   -0.3976   -2.3745 H   0  0  0  0  0  0  0  0  0  0  0  0
    0.1136    1.2316   -1.8276 H   0  0  0  0  0  0  0  0  0  0  0  0
    1.8029    1.0731   -2.4123 H   0  0  0  0  0  0  0  0  0  0  0  0
    1.2795    1.2139    0.2047 H   0  0  0  0  0  0  0  0  0  0  0  0
    3.0130   -0.8905   -0.4059 H   0  0  0  0  0  0  0  0  0  0  0  0
    1.1371   -1.7817   -0.4659 H   0  0  0  0  0  0  0  0  0  0  0  0
    1.1434   -1.1106    1.1736 H   0  0  0  0  0  0  0  0  0  0  0  0
   -1.1178   -1.8420    0.5181 H   0  0  0  0  0  0  0  0  0  0  0  0
   -1.1967   -1.5728   -1.6115 H   0  0  0  0  0  0  0  0  0  0  0  0
   -0.8312    0.4464    2.0099 H   0  0  0  0  0  0  0  0  0  0  0  0
   -1.9673    2.2688    0.7350 H   0  0  0  0  0  0  0  0  0  0  0  0
   -2.2778    1.1821   -0.7341 H   0  0  0  0  0  0  0  0  0  0  0  0
  1  2  1  0
  2  3  1  0
  2  4  1  0
  4  5  1  0
  5  6  1  0
  5  7  1  0
  7  8  1  0
  8  9  1  0
  9  7  1  0
  1 10  1  0
  1 11  1  0
  1 12  1  0
  2 13  1  0
  3 14  1  0
  4 15  1  0
  4 16  1  0
  5 17  1  0
  6 18  1  0
  7 19  1  0
  8 20  1  0
  8 21  1  0
M  END
