
     RDKit          3D

 23 24  0  0  0  0  0  0  0  0999 V2000
    2.3759   -0.0035    0.1326 C   0  0  0  0  0  0  0  0  0  0  0  0
    1.1089   -0.8331    0.0806 C   0  0  0  0  0  0  0  0  0  0  0  0
    1.0466   -1.6697   -1.0035 O   0  0  0  0  0  0  0  0  0  0  0  0
   -0.1208   -0.0185    0.2324 C   0  0  0  0  0  0  0  0  0  0  0  0
   -0.0651    0.6888    1.6178 C   0  0  0  0  0  0  0  0  0  0  0  0
   -0.5750    0.8837   -0.8382 C   0  0  0  0  0  0  0  0  0  0  0  0
   -1.9044    0.8851   -0.0804 C   0  0  0  0  0  0  0  0  0  0  0  0
   -1.4460   -0.5713   -0.0977 C   0  0  0  0  0  0  0  0  0  0  0  0
   -1.1747   -0.2793   -1.5379 C   0  0  0  0  0  0  0  0  0  0  0  0
    2.1827    1.0560   -0.1925 H   0  0  0  0  0  0  0  0  0  0  0  0
    2.7920    0.0759    1.1576 H   0  0  0  0  0  0  0  0  0  0  0  0
    3.1554   -0.4919   -0.4882 H   0  0  0  0  0  0  0  0  0  0  0  0
    1.2055   -1.5171    0.9907 H   0  0  0  0  0  0  0  0  0  0  0  0
    0.9262   -2.6252   -0.7890 H   0  0  0  0  0  0  0  0  0  0  0  0
    0.9422    0.4903    2.0884 H   0  0  0  0  0  0  0  0  0  0  0  0
   -0.0973    1.7831    1.5087 H   0  0  0  0  0  0  0  0  0  0  0  0
   -0.8622    0.2550    2.2413 H   0  0  0  0  0  0  0  0  0  0  0  0
   -0.1489    1.7017   -1.2248 H   0  0  0  0  0  0  0  0  0  0  0  0
   -1.9223    1.2882    0.9114 H   0  0  0  0  0  0  0  0  0  0  0  0
   -2.7448    1.0761   -0.7648 H   0  0  0  0  0  0  0  0  0  0  0  0
   -1.9515   -1.3353    0.2976 H   0  0  0  0  0  0  0  0  0  0  0  0
   -0.6090   -0.9376   -2.1565 H   0  0  0  0  0  0  0  0  0  0  0  0
   -2.1134    0.0985   -2.0856 H   0  0  0  0  0  0  0  0  0  0  0  0
  1  2  1  0
  2  3  1  0
  2  4  1  0
  4  5  1  0
  4  6  1  0
  6  7  1  0
  7  8  1  0
  8  9  1  0
  8  4  1  0
  9  6  1  0
  1 10  1  0
  1 11  1  0
  1 12  1  0
  2 13  1  0
  3 14  1  0
  5 15  1  0
  5 16  1  0
  5 17  1  0
  6 18  1  0
  7 19  1  0
  7 20  1  0
  8 21  1  0
  9 22  1  0
  9 23  1  0
M  END
