
     RDKit          3D

 23 23  0  0  0  0  0  0  0  0999 V2000
   -2.5057   -0.9108    0.3238 C   0  0  0  0  0  0  0  0  0  0  0  0
   -1.6543    0.0870   -0.4395 C   0  0  0  0  0  0  0  0  0  0  0  0
   -2.3499    1.2851   -0.5210 O   0  0  0  0  0  0  0  0  0  0  0  0
   -0.3548    0.2235    0.3083 C   0  0  0  0  0  0  0  0  0  0  0  0
    0.2816   -1.1166    0.3489 C   0  0  0  0  0  0  0  0  0  0  0  0
    1.5804   -1.3086    0.1384 C   0  0  0  0  0  0  0  0  0  0  0  0
    2.5359   -0.2114   -0.1592 C   0  0  0  0  0  0  0  0  0  0  0  0
    1.9040    1.0662    0.4149 C   0  0  0  0  0  0  0  0  0  0  0  0
    0.5887    1.2175   -0.3273 C   0  0  0  0  0  0  0  0  0  0  0  0
   -3.5755   -0.6186    0.2383 H   0  0  0  0  0  0  0  0  0  0  0  0
   -2.2203   -0.8953    1.3920 H   0  0  0  0  0  0  0  0  0  0  0  0
   -2.3366   -1.9576   -0.0417 H   0  0  0  0  0  0  0  0  0  0  0  0
   -1.5032   -0.3456   -1.4508 H   0  0  0  0  0  0  0  0  0  0  0  0
   -2.6594    1.5016   -1.4181 H   0  0  0  0  0  0  0  0  0  0  0  0
   -0.5701    0.6050    1.3279 H   0  0  0  0  0  0  0  0  0  0  0  0
   -0.3872   -1.9606    0.5659 H   0  0  0  0  0  0  0  0  0  0  0  0
    1.9378   -2.3204    0.1910 H   0  0  0  0  0  0  0  0  0  0  0  0
    3.5337   -0.3701    0.2550 H   0  0  0  0  0  0  0  0  0  0  0  0
    2.5466   -0.0335   -1.2749 H   0  0  0  0  0  0  0  0  0  0  0  0
    2.5726    1.9227    0.2690 H   0  0  0  0  0  0  0  0  0  0  0  0
    1.7184    0.9161    1.4992 H   0  0  0  0  0  0  0  0  0  0  0  0
    0.7306    0.9789   -1.4048 H   0  0  0  0  0  0  0  0  0  0  0  0
    0.1868    2.2456   -0.2353 H   0  0  0  0  0  0  0  0  0  0  0  0
  1  2  1  0
  2  3  1  0
  2  4  1  0
  4  5  1  0
  5  6  2  0
  6  7  1  0
  7  8  1  0
  8  9  1  0
  9  4  1  0
  1 10  1  0
  1 11  1  0
  1 12  1  0
  2 13  1  0
  3 14  1  0
  4 15  1  0
  5 16  1  0
  6 17  1  0
  7 18  1  0
  7 19  1  0
  8 20  1  0
  8 21  1  0
  9 22  1  0
  9 23  1  0
M  END
