
     RDKit          3D

 19 19  0  0  0  0  0  0  0  0999 V2000
    2.0505   -0.4220    0.1065 C   0  0  0  0  0  0  0  0  0  0  0  0
    0.8124    0.4491    0.2013 C   0  0  0  0  0  0  0  0  0  0  0  0
    1.2039    1.7732   -0.0322 O   0  0  0  0  0  0  0  0  0  0  0  0
   -0.2397    0.0236   -0.7911 C   0  0  0  0  0  0  0  0  0  0  0  0
   -1.4315    0.9433   -0.6258 C   0  0  0  0  0  0  0  0  0  0  0  0
   -1.7553    0.6863    0.7488 O   0  0  0  0  0  0  0  0  0  0  0  0
   -1.5306   -0.6729    0.9785 C   0  0  0  0  0  0  0  0  0  0  0  0
   -1.8295   -1.3108    2.0382 O   0  0  0  0  0  0  0  0  0  0  0  0
   -0.8733   -1.2620   -0.2404 C   0  0  0  0  0  0  0  0  0  0  0  0
    1.8155   -1.4638   -0.1835 H   0  0  0  0  0  0  0  0  0  0  0  0
    2.5166   -0.4102    1.1318 H   0  0  0  0  0  0  0  0  0  0  0  0
    2.7462    0.0721   -0.5934 H   0  0  0  0  0  0  0  0  0  0  0  0
    0.4226    0.4251    1.2382 H   0  0  0  0  0  0  0  0  0  0  0  0
    1.2711    2.2961    0.8115 H   0  0  0  0  0  0  0  0  0  0  0  0
    0.1146   -0.0802   -1.8034 H   0  0  0  0  0  0  0  0  0  0  0  0
   -1.2119    1.9888   -0.8189 H   0  0  0  0  0  0  0  0  0  0  0  0
   -2.3014    0.5444   -1.2061 H   0  0  0  0  0  0  0  0  0  0  0  0
   -1.6428   -1.5600   -0.9665 H   0  0  0  0  0  0  0  0  0  0  0  0
   -0.1373   -2.0200    0.0066 H   0  0  0  0  0  0  0  0  0  0  0  0
  1  2  1  0
  2  3  1  0
  2  4  1  0
  4  5  1  0
  5  6  1  0
  6  7  1  0
  7  8  2  0
  7  9  1  0
  9  4  1  0
  1 10  1  0
  1 11  1  0
  1 12  1  0
  2 13  1  0
  3 14  1  0
  4 15  1  0
  5 16  1  0
  5 17  1  0
  9 18  1  0
  9 19  1  0
M  END
