
     RDKit          3D

 21 22  0  0  0  0  0  0  0  0999 V2000
   -2.7107    0.5153   -0.6399 C   0  0  0  0  0  0  0  0  0  0  0  0
   -1.3862   -0.1858   -0.5720 C   0  0  0  0  0  0  0  0  0  0  0  0
   -1.6158   -1.4970   -0.1728 O   0  0  0  0  0  0  0  0  0  0  0  0
   -0.4713    0.5440    0.3778 C   0  0  0  0  0  0  0  0  0  0  0  0
    0.8722   -0.0708    0.5184 C   0  0  0  0  0  0  0  0  0  0  0  0
    1.8286    0.5914    1.4364 C   0  0  0  0  0  0  0  0  0  0  0  0
    2.1093    0.5391   -0.0075 C   0  0  0  0  0  0  0  0  0  0  0  0
    2.4582   -0.8383   -0.5478 C   0  0  0  0  0  0  0  0  0  0  0  0
    1.1693   -1.2309   -0.1459 O   0  0  0  0  0  0  0  0  0  0  0  0
   -2.7608    1.1665   -1.5481 H   0  0  0  0  0  0  0  0  0  0  0  0
   -3.5417   -0.2285   -0.7588 H   0  0  0  0  0  0  0  0  0  0  0  0
   -2.9330    1.0827    0.2711 H   0  0  0  0  0  0  0  0  0  0  0  0
   -0.9159   -0.1680   -1.5783 H   0  0  0  0  0  0  0  0  0  0  0  0
   -2.5723   -1.6614    0.0486 H   0  0  0  0  0  0  0  0  0  0  0  0
   -0.4585    1.6100    0.0760 H   0  0  0  0  0  0  0  0  0  0  0  0
   -0.9636    0.5196    1.3876 H   0  0  0  0  0  0  0  0  0  0  0  0
    1.5389    1.5567    1.8482 H   0  0  0  0  0  0  0  0  0  0  0  0
    2.3676   -0.0953    2.1306 H   0  0  0  0  0  0  0  0  0  0  0  0
    2.1290    1.4048   -0.6600 H   0  0  0  0  0  0  0  0  0  0  0  0
    2.6684   -0.9012   -1.6104 H   0  0  0  0  0  0  0  0  0  0  0  0
    3.1884   -1.3183    0.1469 H   0  0  0  0  0  0  0  0  0  0  0  0
  1  2  1  0
  2  3  1  0
  2  4  1  0
  4  5  1  0
  5  6  1  0
  6  7  1  0
  7  8  1  0
  8  9  1  0
  7  5  1  0
  9  5  1  0
  1 10  1  0
  1 11  1  0
  1 12  1  0
  2 13  1  0
  3 14  1  0
  4 15  1  0
  4 16  1  0
  6 17  1  0
  6 18  1  0
  7 19  1  0
  8 20  1  0
  8 21  1  0
M  END
