
     RDKit          3D

 21 21  0  0  0  0  0  0  0  0999 V2000
   -2.9393   -0.4011    0.4913 C   0  0  0  0  0  0  0  0  0  0  0  0
   -1.7439    0.3092   -0.1528 C   0  0  0  0  0  0  0  0  0  0  0  0
   -1.7274   -0.1763   -1.4762 O   0  0  0  0  0  0  0  0  0  0  0  0
   -0.5246   -0.1325    0.5857 C   0  0  0  0  0  0  0  0  0  0  0  0
    0.7516    0.4558    0.1015 C   0  0  0  0  0  0  0  0  0  0  0  0
    1.8471   -0.1173    0.9760 C   0  0  0  0  0  0  0  0  0  0  0  0
    2.9228   -0.3209    0.2282 C   0  0  0  0  0  0  0  0  0  0  0  0
    2.5521    0.1138   -1.1413 C   0  0  0  0  0  0  0  0  0  0  0  0
    1.1706   -0.0473   -1.1313 O   0  0  0  0  0  0  0  0  0  0  0  0
   -3.8596   -0.2627   -0.0972 H   0  0  0  0  0  0  0  0  0  0  0  0
   -3.0220    0.0505    1.5170 H   0  0  0  0  0  0  0  0  0  0  0  0
   -2.7359   -1.4942    0.5914 H   0  0  0  0  0  0  0  0  0  0  0  0
   -1.9378    1.3848   -0.1032 H   0  0  0  0  0  0  0  0  0  0  0  0
   -1.9159    0.5690   -2.0711 H   0  0  0  0  0  0  0  0  0  0  0  0
   -0.4520   -1.2418    0.4802 H   0  0  0  0  0  0  0  0  0  0  0  0
   -0.6516    0.1342    1.6504 H   0  0  0  0  0  0  0  0  0  0  0  0
    0.7785    1.5484    0.0825 H   0  0  0  0  0  0  0  0  0  0  0  0
    1.7485   -0.3174    2.0227 H   0  0  0  0  0  0  0  0  0  0  0  0
    3.8764   -0.7317    0.5931 H   0  0  0  0  0  0  0  0  0  0  0  0
    2.8467    1.1874   -1.2227 H   0  0  0  0  0  0  0  0  0  0  0  0
    3.0158   -0.5100   -1.9242 H   0  0  0  0  0  0  0  0  0  0  0  0
  1  2  1  0
  2  3  1  0
  2  4  1  0
  4  5  1  0
  5  6  1  0
  6  7  2  0
  7  8  1  0
  8  9  1  0
  9  5  1  0
  1 10  1  0
  1 11  1  0
  1 12  1  0
  2 13  1  0
  3 14  1  0
  4 15  1  0
  4 16  1  0
  5 17  1  0
  6 18  1  0
  7 19  1  0
  8 20  1  0
  8 21  1  0
M  END
