
     RDKit          3D

 23 24  0  0  0  0  0  0  0  0999 V2000
    2.4907    0.7745    0.4297 C   0  0  0  0  0  0  0  0  0  0  0  0
    1.6764    0.0677   -0.6431 C   0  0  0  0  0  0  0  0  0  0  0  0
    2.2966   -1.1485   -0.9140 O   0  0  0  0  0  0  0  0  0  0  0  0
    0.3548   -0.0434   -0.3090 C   0  0  0  0  0  0  0  0  0  0  0  0
   -0.7539   -0.6754   -1.1067 C   0  0  0  0  0  0  0  0  0  0  0  0
   -1.4548   -0.1592    0.1283 C   0  0  0  0  0  0  0  0  0  0  0  0
   -2.7678   -0.2281    0.4611 C   0  0  0  0  0  0  0  0  0  0  0  0
   -0.6119    1.0976   -0.0782 C   0  0  0  0  0  0  0  0  0  0  0  0
   -0.2542   -0.6800    0.8908 C   0  0  0  0  0  0  0  0  0  0  0  0
    3.2387    1.4663    0.0089 H   0  0  0  0  0  0  0  0  0  0  0  0
    1.7801    1.3972    1.0119 H   0  0  0  0  0  0  0  0  0  0  0  0
    2.9246    0.0351    1.1282 H   0  0  0  0  0  0  0  0  0  0  0  0
    1.8282    0.6957   -1.5713 H   0  0  0  0  0  0  0  0  0  0  0  0
    2.3144   -1.3200   -1.8902 H   0  0  0  0  0  0  0  0  0  0  0  0
   -0.7716   -1.7683   -1.1527 H   0  0  0  0  0  0  0  0  0  0  0  0
   -1.0261   -0.1736   -2.0502 H   0  0  0  0  0  0  0  0  0  0  0  0
   -3.0109   -0.8644    1.3660 H   0  0  0  0  0  0  0  0  0  0  0  0
   -3.4535   -0.6535   -0.3324 H   0  0  0  0  0  0  0  0  0  0  0  0
   -3.2619    0.7591    0.7130 H   0  0  0  0  0  0  0  0  0  0  0  0
   -0.8814    1.6916   -0.9541 H   0  0  0  0  0  0  0  0  0  0  0  0
   -0.4145    1.6187    0.8595 H   0  0  0  0  0  0  0  0  0  0  0  0
   -0.1859   -1.7680    0.9900 H   0  0  0  0  0  0  0  0  0  0  0  0
   -0.0560   -0.1212    1.8337 H   0  0  0  0  0  0  0  0  0  0  0  0
  1  2  1  0
  2  3  1  0
  2  4  1  0
  4  5  1  0
  5  6  1  0
  6  7  1  0
  6  8  1  0
  6  9  1  0
  8  4  1  0
  9  4  1  0
  1 10  1  0
  1 11  1  0
  1 12  1  0
  2 13  1  0
  3 14  1  0
  5 15  1  0
  5 16  1  0
  7 17  1  0
  7 18  1  0
  7 19  1  0
  8 20  1  0
  8 21  1  0
  9 22  1  0
  9 23  1  0
M  END
