
     RDKit          3D

 17 16  0  0  0  0  0  0  0  0999 V2000
    1.4476   -0.0684    0.9523 C   0  0  0  0  0  0  0  0  0  0  0  0
    0.9301    0.0529   -0.4662 C   0  0  0  0  0  0  0  0  0  0  0  0
    0.8001   -1.1865   -1.0793 O   0  0  0  0  0  0  0  0  0  0  0  0
   -0.4173    0.7432   -0.4029 C   0  0  0  0  0  0  0  0  0  0  0  0
   -0.9612    0.9477   -1.6655 O   0  0  0  0  0  0  0  0  0  0  0  0
   -1.3913   -0.0369    0.4567 C   0  0  0  0  0  0  0  0  0  0  0  0
   -1.6925   -1.2712   -0.0744 O   0  0  0  0  0  0  0  0  0  0  0  0
    0.8693    0.5598    1.6687 H   0  0  0  0  0  0  0  0  0  0  0  0
    2.5003    0.3391    1.0099 H   0  0  0  0  0  0  0  0  0  0  0  0
    1.4328   -1.1230    1.3000 H   0  0  0  0  0  0  0  0  0  0  0  0
    1.6282    0.6455   -1.0804 H   0  0  0  0  0  0  0  0  0  0  0  0
    1.5774   -1.4701   -1.5875 H   0  0  0  0  0  0  0  0  0  0  0  0
   -0.2908    1.7387    0.0702 H   0  0  0  0  0  0  0  0  0  0  0  0
   -1.5737    1.7232   -1.5997 H   0  0  0  0  0  0  0  0  0  0  0  0
   -2.3404    0.5470    0.4870 H   0  0  0  0  0  0  0  0  0  0  0  0
   -1.0506   -0.1103    1.5070 H   0  0  0  0  0  0  0  0  0  0  0  0
   -1.4681   -2.0307    0.5042 H   0  0  0  0  0  0  0  0  0  0  0  0
  1  2  1  0
  2  3  1  0
  2  4  1  0
  4  5  1  0
  4  6  1  0
  6  7  1  0
  1  8  1  0
  1  9  1  0
  1 10  1  0
  2 11  1  0
  3 12  1  0
  4 13  1  0
  5 14  1  0
  6 15  1  0
  6 16  1  0
  7 17  1  0
M  END
