
     RDKit          3D

 18 18  0  0  0  0  0  0  0  0999 V2000
    1.9775    1.0364   -0.2908 C   0  0  0  0  0  0  0  0  0  0  0  0
    1.2134   -0.2404   -0.6086 C   0  0  0  0  0  0  0  0  0  0  0  0
    1.9607   -1.3711   -0.3974 O   0  0  0  0  0  0  0  0  0  0  0  0
   -0.0613   -0.1974    0.2026 C   0  0  0  0  0  0  0  0  0  0  0  0
   -1.0077   -1.2490   -0.1334 C   0  0  0  0  0  0  0  0  0  0  0  0
   -2.2148   -0.7231   -0.2389 C   0  0  0  0  0  0  0  0  0  0  0  0
   -2.0641    0.7379    0.0378 C   0  0  0  0  0  0  0  0  0  0  0  0
   -0.7012    0.9964   -0.1183 O   0  0  0  0  0  0  0  0  0  0  0  0
    3.0401    0.7844   -0.0952 H   0  0  0  0  0  0  0  0  0  0  0  0
    1.6036    1.5184    0.6425 H   0  0  0  0  0  0  0  0  0  0  0  0
    1.8435    1.7730   -1.0938 H   0  0  0  0  0  0  0  0  0  0  0  0
    0.9128   -0.2250   -1.6835 H   0  0  0  0  0  0  0  0  0  0  0  0
    2.2383   -1.4807    0.5325 H   0  0  0  0  0  0  0  0  0  0  0  0
    0.2087   -0.1666    1.2927 H   0  0  0  0  0  0  0  0  0  0  0  0
   -0.8177   -2.3167   -0.2872 H   0  0  0  0  0  0  0  0  0  0  0  0
   -3.1686   -1.1671   -0.4708 H   0  0  0  0  0  0  0  0  0  0  0  0
   -2.3602    0.9784    1.0741 H   0  0  0  0  0  0  0  0  0  0  0  0
   -2.6028    1.3123   -0.7299 H   0  0  0  0  0  0  0  0  0  0  0  0
  1  2  1  0
  2  3  1  0
  2  4  1  0
  4  5  1  0
  5  6  2  0
  6  7  1  0
  7  8  1  0
  8  4  1  0
  1  9  1  0
  1 10  1  0
  1 11  1  0
  2 12  1  0
  3 13  1  0
  4 14  1  0
  5 15  1  0
  6 16  1  0
  7 17  1  0
  7 18  1  0
M  END
