
     RDKit          3D

 25 25  0  0  0  0  0  0  0  0999 V2000
   -2.1549    0.5806   -0.7339 C   0  0  0  0  0  0  0  0  0  0  0  0
   -1.3888    0.2649    0.5176 C   0  0  0  0  0  0  0  0  0  0  0  0
   -2.1284   -0.5961    1.3365 O   0  0  0  0  0  0  0  0  0  0  0  0
   -0.0277   -0.2874    0.3164 C   0  0  0  0  0  0  0  0  0  0  0  0
    0.7137   -0.5915    1.6014 C   0  0  0  0  0  0  0  0  0  0  0  0
    0.1348   -1.4149   -0.6784 C   0  0  0  0  0  0  0  0  0  0  0  0
    1.4214   -0.7051   -1.1276 C   0  0  0  0  0  0  0  0  0  0  0  0
    0.7836    0.5733   -0.6449 C   0  0  0  0  0  0  0  0  0  0  0  0
    1.6763    1.5557    0.0209 C   0  0  0  0  0  0  0  0  0  0  0  0
   -1.7887    1.5235   -1.1907 H   0  0  0  0  0  0  0  0  0  0  0  0
   -3.2082    0.8165   -0.3924 H   0  0  0  0  0  0  0  0  0  0  0  0
   -2.1942   -0.2473   -1.4662 H   0  0  0  0  0  0  0  0  0  0  0  0
   -1.2784    1.2242    1.0837 H   0  0  0  0  0  0  0  0  0  0  0  0
   -2.4154   -1.3873    0.8007 H   0  0  0  0  0  0  0  0  0  0  0  0
    0.1489   -1.4325    2.0859 H   0  0  0  0  0  0  0  0  0  0  0  0
    0.7015    0.2671    2.2951 H   0  0  0  0  0  0  0  0  0  0  0  0
    1.7492   -0.8570    1.4105 H   0  0  0  0  0  0  0  0  0  0  0  0
    0.3246   -2.4089   -0.2279 H   0  0  0  0  0  0  0  0  0  0  0  0
   -0.6025   -1.4990   -1.4757 H   0  0  0  0  0  0  0  0  0  0  0  0
    2.2760   -1.0736   -0.5482 H   0  0  0  0  0  0  0  0  0  0  0  0
    1.5185   -0.8270   -2.2125 H   0  0  0  0  0  0  0  0  0  0  0  0
    0.1642    1.0084   -1.4203 H   0  0  0  0  0  0  0  0  0  0  0  0
    1.0317    2.2384    0.6358 H   0  0  0  0  0  0  0  0  0  0  0  0
    2.3776    1.0921    0.7446 H   0  0  0  0  0  0  0  0  0  0  0  0
    2.1652    2.1827   -0.7303 H   0  0  0  0  0  0  0  0  0  0  0  0
  1  2  1  0
  2  3  1  0
  2  4  1  0
  4  5  1  0
  4  6  1  0
  6  7  1  0
  7  8  1  0
  8  9  1  0
  8  4  1  0
  1 10  1  0
  1 11  1  0
  1 12  1  0
  2 13  1  0
  3 14  1  0
  5 15  1  0
  5 16  1  0
  5 17  1  0
  6 18  1  0
  6 19  1  0
  7 20  1  0
  7 21  1  0
  8 22  1  0
  9 23  1  0
  9 24  1  0
  9 25  1  0
M  END
