
     RDKit          3D

 23 23  0  0  0  0  0  0  0  0999 V2000
   -2.1687    1.2448    0.2020 C   0  0  0  0  0  0  0  0  0  0  0  0
   -1.1418    0.2795    0.7563 C   0  0  0  0  0  0  0  0  0  0  0  0
   -1.8088   -0.6648    1.5178 O   0  0  0  0  0  0  0  0  0  0  0  0
   -0.3941   -0.3854   -0.3986 C   0  0  0  0  0  0  0  0  0  0  0  0
    0.2990    0.6520   -1.2228 C   0  0  0  0  0  0  0  0  0  0  0  0
    1.6552    0.9123   -0.5840 C   0  0  0  0  0  0  0  0  0  0  0  0
    2.3846   -0.2688   -0.7505 O   0  0  0  0  0  0  0  0  0  0  0  0
    1.9243   -1.1929    0.1483 C   0  0  0  0  0  0  0  0  0  0  0  0
    0.4689   -1.5052    0.0485 C   0  0  0  0  0  0  0  0  0  0  0  0
   -2.5363    0.8003   -0.7645 H   0  0  0  0  0  0  0  0  0  0  0  0
   -1.7243    2.2484   -0.0204 H   0  0  0  0  0  0  0  0  0  0  0  0
   -3.0167    1.3655    0.8995 H   0  0  0  0  0  0  0  0  0  0  0  0
   -0.4445    0.8810    1.3847 H   0  0  0  0  0  0  0  0  0  0  0  0
   -1.3772   -0.8002    2.3984 H   0  0  0  0  0  0  0  0  0  0  0  0
   -1.2046   -0.8218   -1.0514 H   0  0  0  0  0  0  0  0  0  0  0  0
   -0.3112    1.5533   -1.3171 H   0  0  0  0  0  0  0  0  0  0  0  0
    0.5065    0.1872   -2.2310 H   0  0  0  0  0  0  0  0  0  0  0  0
    1.5082    1.1019    0.4918 H   0  0  0  0  0  0  0  0  0  0  0  0
    2.1999    1.7056   -1.1166 H   0  0  0  0  0  0  0  0  0  0  0  0
    2.1698   -0.8702    1.1771 H   0  0  0  0  0  0  0  0  0  0  0  0
    2.5143   -2.1421   -0.0098 H   0  0  0  0  0  0  0  0  0  0  0  0
    0.3577   -2.3982   -0.6197 H   0  0  0  0  0  0  0  0  0  0  0  0
    0.1395   -1.8822    1.0616 H   0  0  0  0  0  0  0  0  0  0  0  0
  1  2  1  0
  2  3  1  0
  2  4  1  0
  4  5  1  0
  5  6  1  0
  6  7  1  0
  7  8  1  0
  8  9  1  0
  9  4  1  0
  1 10  1  0
  1 11  1  0
  1 12  1  0
  2 13  1  0
  3 14  1  0
  4 15  1  0
  5 16  1  0
  5 17  1  0
  6 18  1  0
  6 19  1  0
  8 20  1  0
  8 21  1  0
  9 22  1  0
  9 23  1  0
M  END
