
     RDKit          3D

 19 19  0  0  0  0  0  0  0  0999 V2000
    2.4789    0.2866    0.1276 C   0  0  0  0  0  0  0  0  0  0  0  0
    1.1084   -0.3721    0.1692 C   0  0  0  0  0  0  0  0  0  0  0  0
    0.9955   -1.2972   -0.8663 O   0  0  0  0  0  0  0  0  0  0  0  0
    0.0671    0.7048    0.0634 C   0  0  0  0  0  0  0  0  0  0  0  0
   -1.3297    0.1963    0.0917 C   0  0  0  0  0  0  0  0  0  0  0  0
   -2.3835    1.2284   -0.0103 C   0  0  0  0  0  0  0  0  0  0  0  0
   -3.5644    0.9177    0.0032 O   0  0  0  0  0  0  0  0  0  0  0  0
   -1.7010   -1.1269    0.4969 C   0  0  0  0  0  0  0  0  0  0  0  0
   -1.5052   -0.8496   -0.9366 O   0  0  0  0  0  0  0  0  0  0  0  0
    3.1030    0.0018    1.0045 H   0  0  0  0  0  0  0  0  0  0  0  0
    3.0549   -0.0552   -0.7768 H   0  0  0  0  0  0  0  0  0  0  0  0
    2.3977    1.3976    0.0177 H   0  0  0  0  0  0  0  0  0  0  0  0
    0.9596   -0.8616    1.1711 H   0  0  0  0  0  0  0  0  0  0  0  0
    1.8381   -1.8448   -0.8260 H   0  0  0  0  0  0  0  0  0  0  0  0
    0.2251    1.3929    0.9306 H   0  0  0  0  0  0  0  0  0  0  0  0
    0.2167    1.2714   -0.8899 H   0  0  0  0  0  0  0  0  0  0  0  0
   -2.1546    2.2929   -0.1005 H   0  0  0  0  0  0  0  0  0  0  0  0
   -1.0330   -1.9381    0.7823 H   0  0  0  0  0  0  0  0  0  0  0  0
   -2.7736   -1.3449    0.6836 H   0  0  0  0  0  0  0  0  0  0  0  0
  1  2  1  0
  2  3  1  0
  2  4  1  0
  4  5  1  0
  5  6  1  0
  6  7  2  0
  5  8  1  0
  8  9  1  0
  9  5  1  0
  1 10  1  0
  1 11  1  0
  1 12  1  0
  2 13  1  0
  3 14  1  0
  4 15  1  0
  4 16  1  0
  6 17  1  0
  8 18  1  0
  8 19  1  0
M  END
