
     RDKit          3D

 19 19  0  0  0  0  0  0  0  0999 V2000
   -2.1068   -0.1005   -0.4766 C   0  0  0  0  0  0  0  0  0  0  0  0
   -0.8868   -0.2736    0.3786 C   0  0  0  0  0  0  0  0  0  0  0  0
   -0.4467   -1.5925    0.2744 O   0  0  0  0  0  0  0  0  0  0  0  0
    0.2482    0.6226   -0.0201 C   0  0  0  0  0  0  0  0  0  0  0  0
    0.0171    1.9762    0.0146 O   0  0  0  0  0  0  0  0  0  0  0  0
    1.0838    0.1277   -1.1779 C   0  0  0  0  0  0  0  0  0  0  0  0
    1.8546   -0.6905   -0.2111 C   0  0  0  0  0  0  0  0  0  0  0  0
    2.5131   -1.7035   -0.2184 O   0  0  0  0  0  0  0  0  0  0  0  0
    1.4749    0.2871    0.8370 C   0  0  0  0  0  0  0  0  0  0  0  0
   -2.1850   -0.8921   -1.2739 H   0  0  0  0  0  0  0  0  0  0  0  0
   -3.0141   -0.2403    0.1674 H   0  0  0  0  0  0  0  0  0  0  0  0
   -2.1960    0.8715   -0.9581 H   0  0  0  0  0  0  0  0  0  0  0  0
   -1.1265   -0.0618    1.4423 H   0  0  0  0  0  0  0  0  0  0  0  0
   -0.7478   -2.0975    1.0797 H   0  0  0  0  0  0  0  0  0  0  0  0
   -0.2030    2.2874    0.9182 H   0  0  0  0  0  0  0  0  0  0  0  0
    1.7449    0.9720   -1.5295 H   0  0  0  0  0  0  0  0  0  0  0  0
    0.5548   -0.4157   -1.9649 H   0  0  0  0  0  0  0  0  0  0  0  0
    2.1844    1.1454    0.9358 H   0  0  0  0  0  0  0  0  0  0  0  0
    1.2368   -0.2223    1.7825 H   0  0  0  0  0  0  0  0  0  0  0  0
  1  2  1  0
  2  3  1  0
  2  4  1  0
  4  5  1  0
  4  6  1  0
  6  7  1  0
  7  8  2  0
  7  9  1  0
  9  4  1  0
  1 10  1  0
  1 11  1  0
  1 12  1  0
  2 13  1  0
  3 14  1  0
  5 15  1  0
  6 16  1  0
  6 17  1  0
  9 18  1  0
  9 19  1  0
M  END
