
     RDKit          3D

 23 23  0  0  0  0  0  0  0  0999 V2000
    2.4627    0.4309    0.5120 C   0  0  0  0  0  0  0  0  0  0  0  0
    1.1164   -0.0083    0.9731 C   0  0  0  0  0  0  0  0  0  0  0  0
    1.1772   -1.3602    1.3076 O   0  0  0  0  0  0  0  0  0  0  0  0
    0.0591    0.1102   -0.1265 C   0  0  0  0  0  0  0  0  0  0  0  0
   -0.1257    1.4962   -0.6399 C   0  0  0  0  0  0  0  0  0  0  0  0
   -0.1896   -1.0855   -0.9384 C   0  0  0  0  0  0  0  0  0  0  0  0
   -1.2080   -0.6982    0.0346 C   0  0  0  0  0  0  0  0  0  0  0  0
   -2.5041   -0.1191   -0.4953 C   0  0  0  0  0  0  0  0  0  0  0  0
   -1.3408   -1.2956    1.2788 O   0  0  0  0  0  0  0  0  0  0  0  0
    2.6842    1.4970    0.7641 H   0  0  0  0  0  0  0  0  0  0  0  0
    2.6528    0.2168   -0.5505 H   0  0  0  0  0  0  0  0  0  0  0  0
    3.2310   -0.1569    1.0875 H   0  0  0  0  0  0  0  0  0  0  0  0
    0.7871    0.5960    1.8497 H   0  0  0  0  0  0  0  0  0  0  0  0
    1.8635   -1.7655    0.6917 H   0  0  0  0  0  0  0  0  0  0  0  0
    0.7576    1.8953   -1.1923 H   0  0  0  0  0  0  0  0  0  0  0  0
   -1.0314    1.6386   -1.2538 H   0  0  0  0  0  0  0  0  0  0  0  0
   -0.2214    2.1714    0.2609 H   0  0  0  0  0  0  0  0  0  0  0  0
    0.4383   -1.9910   -0.7580 H   0  0  0  0  0  0  0  0  0  0  0  0
   -0.4782   -1.0125   -2.0206 H   0  0  0  0  0  0  0  0  0  0  0  0
   -2.5150   -0.0737   -1.6039 H   0  0  0  0  0  0  0  0  0  0  0  0
   -3.3127   -0.8176   -0.1933 H   0  0  0  0  0  0  0  0  0  0  0  0
   -2.7126    0.8750   -0.0469 H   0  0  0  0  0  0  0  0  0  0  0  0
   -1.5905   -0.5432    1.9068 H   0  0  0  0  0  0  0  0  0  0  0  0
  1  2  1  0
  2  3  1  0
  2  4  1  0
  4  5  1  0
  4  6  1  0
  6  7  1  0
  7  8  1  0
  7  9  1  0
  7  4  1  0
  1 10  1  0
  1 11  1  0
  1 12  1  0
  2 13  1  0
  3 14  1  0
  5 15  1  0
  5 16  1  0
  5 17  1  0
  6 18  1  0
  6 19  1  0
  8 20  1  0
  8 21  1  0
  8 22  1  0
  9 23  1  0
M  END
