
     RDKit          3D

 16 15  0  0  0  0  0  0  0  0999 V2000
    1.4978   -0.5527   -0.1281 C   0  0  0  0  0  0  0  0  0  0  0  0
    0.5858    0.5572    0.3050 C   0  0  0  0  0  0  0  0  0  0  0  0
    0.8847    1.6903   -0.4202 O   0  0  0  0  0  0  0  0  0  0  0  0
   -0.8726    0.2259    0.0916 C   0  0  0  0  0  0  0  0  0  0  0  0
   -1.1896   -0.0395   -1.3220 C   0  0  0  0  0  0  0  0  0  0  0  0
   -2.3239    0.0560   -1.7177 O   0  0  0  0  0  0  0  0  0  0  0  0
   -1.2351   -0.8642    0.9931 C   0  0  0  0  0  0  0  0  0  0  0  0
   -1.4891   -0.6243    2.1555 O   0  0  0  0  0  0  0  0  0  0  0  0
    2.5095   -0.3546    0.3128 H   0  0  0  0  0  0  0  0  0  0  0  0
    1.6194   -0.5873   -1.2286 H   0  0  0  0  0  0  0  0  0  0  0  0
    1.1070   -1.4927    0.3001 H   0  0  0  0  0  0  0  0  0  0  0  0
    0.7316    0.6862    1.4075 H   0  0  0  0  0  0  0  0  0  0  0  0
    1.3079    2.3550    0.1741 H   0  0  0  0  0  0  0  0  0  0  0  0
   -1.4402    1.1421    0.4312 H   0  0  0  0  0  0  0  0  0  0  0  0
   -0.4114   -0.3182   -2.0010 H   0  0  0  0  0  0  0  0  0  0  0  0
   -1.2817   -1.8789    0.6467 H   0  0  0  0  0  0  0  0  0  0  0  0
  1  2  1  0
  2  3  1  0
  2  4  1  0
  4  5  1  0
  5  6  2  0
  4  7  1  0
  7  8  2  0
  1  9  1  0
  1 10  1  0
  1 11  1  0
  2 12  1  0
  3 13  1  0
  4 14  1  0
  5 15  1  0
  7 16  1  0
M  END
