
     RDKit          3D

 17 17  0  0  0  0  0  0  0  0999 V2000
   -1.8994   -0.6623   -0.2089 C   0  0  0  0  0  0  0  0  0  0  0  0
   -0.7448    0.2265   -0.6160 C   0  0  0  0  0  0  0  0  0  0  0  0
   -1.1907    1.5478   -0.4870 O   0  0  0  0  0  0  0  0  0  0  0  0
    0.4385    0.0831    0.3071 C   0  0  0  0  0  0  0  0  0  0  0  0
    0.1455    0.3300    1.6429 O   0  0  0  0  0  0  0  0  0  0  0  0
    1.5923   -0.7621   -0.0213 C   0  0  0  0  0  0  0  0  0  0  0  0
    1.7193    0.7132   -0.2665 C   0  0  0  0  0  0  0  0  0  0  0  0
   -1.9788   -0.6514    0.8932 H   0  0  0  0  0  0  0  0  0  0  0  0
   -2.8561   -0.2371   -0.6214 H   0  0  0  0  0  0  0  0  0  0  0  0
   -1.7609   -1.6624   -0.6323 H   0  0  0  0  0  0  0  0  0  0  0  0
   -0.4505    0.0654   -1.6734 H   0  0  0  0  0  0  0  0  0  0  0  0
   -1.1369    1.7591    0.4822 H   0  0  0  0  0  0  0  0  0  0  0  0
    0.2373   -0.5551    2.1132 H   0  0  0  0  0  0  0  0  0  0  0  0
    1.6575   -1.4250   -0.8818 H   0  0  0  0  0  0  0  0  0  0  0  0
    2.1810   -1.1312    0.8637 H   0  0  0  0  0  0  0  0  0  0  0  0
    1.7236    1.0226   -1.3209 H   0  0  0  0  0  0  0  0  0  0  0  0
    2.3230    1.3389    0.4274 H   0  0  0  0  0  0  0  0  0  0  0  0
  1  2  1  0
  2  3  1  0
  2  4  1  0
  4  5  1  0
  4  6  1  0
  6  7  1  0
  7  4  1  0
  1  8  1  0
  1  9  1  0
  1 10  1  0
  2 11  1  0
  3 12  1  0
  5 13  1  0
  6 14  1  0
  6 15  1  0
  7 16  1  0
  7 17  1  0
M  END
