
     RDKit          3D

 21 20  0  0  0  0  0  0  0  0999 V2000
    0.2961    1.7646   -0.4769 C   0  0  0  0  0  0  0  0  0  0  0  0
   -0.1890    0.4643    0.0824 C   0  0  0  0  0  0  0  0  0  0  0  0
   -0.2531    0.5311    1.4582 O   0  0  0  0  0  0  0  0  0  0  0  0
   -1.6275    0.2928   -0.4356 C   0  0  0  0  0  0  0  0  0  0  0  0
   -2.2341   -0.9611    0.0440 C   0  0  0  0  0  0  0  0  0  0  0  0
   -2.7100   -1.0121    1.1488 O   0  0  0  0  0  0  0  0  0  0  0  0
    0.5540   -0.7378   -0.3360 C   0  0  0  0  0  0  0  0  0  0  0  0
    1.9867   -0.8243   -0.0196 C   0  0  0  0  0  0  0  0  0  0  0  0
    2.3536   -0.7788    1.2930 O   0  0  0  0  0  0  0  0  0  0  0  0
    0.2277    1.7004   -1.5848 H   0  0  0  0  0  0  0  0  0  0  0  0
    1.2816    2.0817   -0.1249 H   0  0  0  0  0  0  0  0  0  0  0  0
   -0.4288    2.5454   -0.1496 H   0  0  0  0  0  0  0  0  0  0  0  0
   -0.4901   -0.3104    1.8847 H   0  0  0  0  0  0  0  0  0  0  0  0
   -1.6257    0.2815   -1.5593 H   0  0  0  0  0  0  0  0  0  0  0  0
   -2.2638    1.1281   -0.1324 H   0  0  0  0  0  0  0  0  0  0  0  0
   -2.2547   -1.8289   -0.5830 H   0  0  0  0  0  0  0  0  0  0  0  0
    0.0208   -1.6246    0.1081 H   0  0  0  0  0  0  0  0  0  0  0  0
    0.4296   -0.8717   -1.4324 H   0  0  0  0  0  0  0  0  0  0  0  0
    2.3914   -1.7708   -0.4456 H   0  0  0  0  0  0  0  0  0  0  0  0
    2.5603   -0.0118   -0.5554 H   0  0  0  0  0  0  0  0  0  0  0  0
    1.9750   -0.0575    1.8162 H   0  0  0  0  0  0  0  0  0  0  0  0
  1  2  1  0
  2  3  1  0
  2  4  1  0
  4  5  1  0
  5  6  2  0
  2  7  1  0
  7  8  1  0
  8  9  1  0
  1 10  1  0
  1 11  1  0
  1 12  1  0
  3 13  1  0
  4 14  1  0
  4 15  1  0
  5 16  1  0
  7 17  1  0
  7 18  1  0
  8 19  1  0
  8 20  1  0
  9 21  1  0
M  END
