
     RDKit          3D

 19 19  0  0  0  0  0  0  0  0999 V2000
    2.3908   -0.4500    0.4044 C   0  0  0  0  0  0  0  0  0  0  0  0
    1.2081    0.5276    0.2307 C   0  0  0  0  0  0  0  0  0  0  0  0
    1.6904    1.5341   -0.5815 O   0  0  0  0  0  0  0  0  0  0  0  0
    0.1077   -0.2595   -0.3724 C   0  0  0  0  0  0  0  0  0  0  0  0
   -0.4262   -1.1849    0.6845 O   0  0  0  0  0  0  0  0  0  0  0  0
   -1.2796   -0.2947    0.0413 C   0  0  0  0  0  0  0  0  0  0  0  0
   -1.8621    0.9033    0.7044 C   0  0  0  0  0  0  0  0  0  0  0  0
   -2.1624   -0.9396   -1.0035 C   0  0  0  0  0  0  0  0  0  0  0  0
   -2.4467   -2.1649   -0.8222 O   0  0  0  0  0  0  0  0  0  0  0  0
    2.0435   -1.4913    0.5524 H   0  0  0  0  0  0  0  0  0  0  0  0
    2.9521   -0.4787   -0.5747 H   0  0  0  0  0  0  0  0  0  0  0  0
    3.0905   -0.1374    1.1756 H   0  0  0  0  0  0  0  0  0  0  0  0
    0.9497    0.9627    1.2056 H   0  0  0  0  0  0  0  0  0  0  0  0
    2.0346    1.2791   -1.4520 H   0  0  0  0  0  0  0  0  0  0  0  0
    0.4315   -0.8747   -1.2630 H   0  0  0  0  0  0  0  0  0  0  0  0
   -1.7943    1.8555    0.2366 H   0  0  0  0  0  0  0  0  0  0  0  0
   -2.9725    0.6854    0.8982 H   0  0  0  0  0  0  0  0  0  0  0  0
   -1.4548    1.0011    1.7673 H   0  0  0  0  0  0  0  0  0  0  0  0
   -2.5002   -0.4731   -1.8318 H   0  0  0  0  0  0  0  0  0  0  0  0
  1  2  1  0
  2  3  1  0
  2  4  1  0
  4  5  1  0
  5  6  1  0
  6  7  1  0
  6  8  1  0
  8  9  2  0
  6  4  1  0
  1 10  1  0
  1 11  1  0
  1 12  1  0
  2 13  1  0
  3 14  1  0
  4 15  1  0
  7 16  1  0
  7 17  1  0
  7 18  1  0
  8 19  1  0
M  END
