
     RDKit          3D

 21 20  0  0  0  0  0  0  0  0999 V2000
    2.5583   -0.2622   -0.7458 C   0  0  0  0  0  0  0  0  0  0  0  0
    1.8499   -0.2426    0.5601 C   0  0  0  0  0  0  0  0  0  0  0  0
    2.6051    0.4980    1.4890 O   0  0  0  0  0  0  0  0  0  0  0  0
    0.4824    0.3520    0.5314 C   0  0  0  0  0  0  0  0  0  0  0  0
   -0.4503   -0.3529   -0.3759 C   0  0  0  0  0  0  0  0  0  0  0  0
   -0.0147   -1.3102   -0.9804 O   0  0  0  0  0  0  0  0  0  0  0  0
   -1.8621    0.0329   -0.5880 C   0  0  0  0  0  0  0  0  0  0  0  0
   -2.6326    0.1491    0.7052 C   0  0  0  0  0  0  0  0  0  0  0  0
   -2.5151   -0.7889   -1.4857 O   0  0  0  0  0  0  0  0  0  0  0  0
    2.9747   -1.2778   -0.9139 H   0  0  0  0  0  0  0  0  0  0  0  0
    1.9228   -0.0240   -1.6184 H   0  0  0  0  0  0  0  0  0  0  0  0
    3.4608    0.4154   -0.7138 H   0  0  0  0  0  0  0  0  0  0  0  0
    1.7428   -1.2873    0.9740 H   0  0  0  0  0  0  0  0  0  0  0  0
    3.0311    1.2780    1.0719 H   0  0  0  0  0  0  0  0  0  0  0  0
    0.0612    0.2201    1.5711 H   0  0  0  0  0  0  0  0  0  0  0  0
    0.4813    1.4487    0.3653 H   0  0  0  0  0  0  0  0  0  0  0  0
   -1.8419    1.0572   -1.0515 H   0  0  0  0  0  0  0  0  0  0  0  0
   -3.2933    1.0361    0.6740 H   0  0  0  0  0  0  0  0  0  0  0  0
   -3.2602   -0.7833    0.7742 H   0  0  0  0  0  0  0  0  0  0  0  0
   -1.9790    0.1568    1.5912 H   0  0  0  0  0  0  0  0  0  0  0  0
   -3.3212   -0.3152   -1.8340 H   0  0  0  0  0  0  0  0  0  0  0  0
  1  2  1  0
  2  3  1  0
  2  4  1  0
  4  5  1  0
  5  6  2  0
  5  7  1  0
  7  8  1  0
  7  9  1  0
  1 10  1  0
  1 11  1  0
  1 12  1  0
  2 13  1  0
  3 14  1  0
  4 15  1  0
  4 16  1  0
  7 17  1  0
  8 18  1  0
  8 19  1  0
  8 20  1  0
  9 21  1  0
M  END
