
     RDKit          3D

 19 19  0  0  0  0  0  0  0  0999 V2000
   -1.4627    0.3227   -0.8719 C   0  0  0  0  0  0  0  0  0  0  0  0
   -0.8305   -0.1046    0.4224 C   0  0  0  0  0  0  0  0  0  0  0  0
   -1.3977   -1.3103    0.7989 O   0  0  0  0  0  0  0  0  0  0  0  0
   -1.0744    0.9781    1.4194 C   0  0  0  0  0  0  0  0  0  0  0  0
   -0.5974    2.0687    1.1427 O   0  0  0  0  0  0  0  0  0  0  0  0
    0.6570   -0.2884    0.3359 C   0  0  0  0  0  0  0  0  0  0  0  0
    1.2867   -1.2511   -0.5767 C   0  0  0  0  0  0  0  0  0  0  0  0
    1.3671    0.2840   -0.8453 C   0  0  0  0  0  0  0  0  0  0  0  0
    2.6316    0.8223   -0.6591 O   0  0  0  0  0  0  0  0  0  0  0  0
   -1.4084   -0.4716   -1.6561 H   0  0  0  0  0  0  0  0  0  0  0  0
   -1.0872    1.2965   -1.2339 H   0  0  0  0  0  0  0  0  0  0  0  0
   -2.5464    0.4612   -0.6736 H   0  0  0  0  0  0  0  0  0  0  0  0
   -1.6793   -1.3010    1.7568 H   0  0  0  0  0  0  0  0  0  0  0  0
   -1.6434    0.7919    2.3310 H   0  0  0  0  0  0  0  0  0  0  0  0
    1.1650   -0.1346    1.3129 H   0  0  0  0  0  0  0  0  0  0  0  0
    2.2250   -1.7356   -0.2423 H   0  0  0  0  0  0  0  0  0  0  0  0
    0.7413   -1.8168   -1.3393 H   0  0  0  0  0  0  0  0  0  0  0  0
    0.7895    0.6489   -1.7037 H   0  0  0  0  0  0  0  0  0  0  0  0
    2.8644    0.7396    0.2818 H   0  0  0  0  0  0  0  0  0  0  0  0
  1  2  1  0
  2  3  1  0
  2  4  1  0
  4  5  2  0
  2  6  1  0
  6  7  1  0
  7  8  1  0
  8  9  1  0
  8  6  1  0
  1 10  1  0
  1 11  1  0
  1 12  1  0
  3 13  1  0
  4 14  1  0
  6 15  1  0
  7 16  1  0
  7 17  1  0
  8 18  1  0
  9 19  1  0
M  END
