
     RDKit          3D

 19 19  0  0  0  0  0  0  0  0999 V2000
   -1.4271   -0.9657    0.6843 C   0  0  0  0  0  0  0  0  0  0  0  0
   -0.8036    0.1452   -0.1350 C   0  0  0  0  0  0  0  0  0  0  0  0
   -1.3141   -0.0272   -1.4487 O   0  0  0  0  0  0  0  0  0  0  0  0
   -1.2217    1.4656    0.3363 C   0  0  0  0  0  0  0  0  0  0  0  0
   -0.9754    1.8618    1.4730 O   0  0  0  0  0  0  0  0  0  0  0  0
    0.6689    0.0268   -0.2620 C   0  0  0  0  0  0  0  0  0  0  0  0
    1.3136   -1.3484   -0.3062 C   0  0  0  0  0  0  0  0  0  0  0  0
    1.6152    1.1201    0.1664 C   0  0  0  0  0  0  0  0  0  0  0  0
    1.2130    0.9994   -1.1389 O   0  0  0  0  0  0  0  0  0  0  0  0
   -1.7700   -1.8131    0.0367 H   0  0  0  0  0  0  0  0  0  0  0  0
   -0.6944   -1.3866    1.4146 H   0  0  0  0  0  0  0  0  0  0  0  0
   -2.3492   -0.6074    1.1987 H   0  0  0  0  0  0  0  0  0  0  0  0
   -0.9079    0.6473   -2.0607 H   0  0  0  0  0  0  0  0  0  0  0  0
   -1.7705    2.1597   -0.2966 H   0  0  0  0  0  0  0  0  0  0  0  0
    2.3140   -1.2178   -0.7679 H   0  0  0  0  0  0  0  0  0  0  0  0
    0.6859   -2.1001   -0.8006 H   0  0  0  0  0  0  0  0  0  0  0  0
    1.5189   -1.6949    0.7498 H   0  0  0  0  0  0  0  0  0  0  0  0
    2.6842    0.8609    0.3212 H   0  0  0  0  0  0  0  0  0  0  0  0
    1.2202    1.8745    0.8356 H   0  0  0  0  0  0  0  0  0  0  0  0
  1  2  1  0
  2  3  1  0
  2  4  1  0
  4  5  2  0
  2  6  1  0
  6  7  1  0
  6  8  1  0
  8  9  1  0
  9  6  1  0
  1 10  1  0
  1 11  1  0
  1 12  1  0
  3 13  1  0
  4 14  1  0
  7 15  1  0
  7 16  1  0
  7 17  1  0
  8 18  1  0
  8 19  1  0
M  END
