
     RDKit          3D

 23 24  0  0  0  0  0  0  0  0999 V2000
    1.8317    0.0135    1.2612 C   0  0  0  0  0  0  0  0  0  0  0  0
    1.6504    0.2448   -0.1787 C   0  0  0  0  0  0  0  0  0  0  0  0
    1.8634    1.6264   -0.4176 O   0  0  0  0  0  0  0  0  0  0  0  0
    0.3784   -0.1158   -0.8125 C   0  0  0  0  0  0  0  0  0  0  0  0
   -0.0999   -1.5262   -0.7755 C   0  0  0  0  0  0  0  0  0  0  0  0
   -1.4946   -1.0763   -0.3952 C   0  0  0  0  0  0  0  0  0  0  0  0
   -2.1085    0.0936   -1.0665 C   0  0  0  0  0  0  0  0  0  0  0  0
   -0.9098    0.3326   -0.2242 C   0  0  0  0  0  0  0  0  0  0  0  0
   -1.0312    0.8808    1.1633 C   0  0  0  0  0  0  0  0  0  0  0  0
    1.3603   -0.8920    1.6783 H   0  0  0  0  0  0  0  0  0  0  0  0
    1.5368    0.8615    1.9099 H   0  0  0  0  0  0  0  0  0  0  0  0
    2.9345   -0.1328    1.4718 H   0  0  0  0  0  0  0  0  0  0  0  0
    2.4799   -0.2497   -0.7589 H   0  0  0  0  0  0  0  0  0  0  0  0
    1.5223    1.7921   -1.3346 H   0  0  0  0  0  0  0  0  0  0  0  0
    0.4073    0.2139   -1.8983 H   0  0  0  0  0  0  0  0  0  0  0  0
   -0.1441   -2.0569   -1.7493 H   0  0  0  0  0  0  0  0  0  0  0  0
    0.3348   -2.1944   -0.0203 H   0  0  0  0  0  0  0  0  0  0  0  0
   -2.0251   -1.5276    0.4410 H   0  0  0  0  0  0  0  0  0  0  0  0
   -3.0769    0.4208   -0.6904 H   0  0  0  0  0  0  0  0  0  0  0  0
   -1.9765    0.1913   -2.1668 H   0  0  0  0  0  0  0  0  0  0  0  0
   -2.1391    1.0616    1.3181 H   0  0  0  0  0  0  0  0  0  0  0  0
   -0.5359    1.8651    1.2760 H   0  0  0  0  0  0  0  0  0  0  0  0
   -0.7581    0.1737    1.9691 H   0  0  0  0  0  0  0  0  0  0  0  0
  1  2  1  0
  2  3  1  0
  2  4  1  0
  4  5  1  0
  5  6  1  0
  6  7  1  0
  7  8  1  0
  8  9  1  0
  8  4  1  0
  8  6  1  0
  1 10  1  0
  1 11  1  0
  1 12  1  0
  2 13  1  0
  3 14  1  0
  4 15  1  0
  5 16  1  0
  5 17  1  0
  6 18  1  0
  7 19  1  0
  7 20  1  0
  9 21  1  0
  9 22  1  0
  9 23  1  0
M  END
