
     RDKit          3D

 17 16  0  0  0  0  0  0  0  0999 V2000
   -0.9369    1.3691   -0.4747 C   0  0  0  0  0  0  0  0  0  0  0  0
   -1.4368    0.0731    0.1427 C   0  0  0  0  0  0  0  0  0  0  0  0
   -2.7707   -0.1465   -0.1601 O   0  0  0  0  0  0  0  0  0  0  0  0
   -0.5759   -1.0500   -0.2924 C   0  0  0  0  0  0  0  0  0  0  0  0
   -1.0763   -2.0077   -0.8423 O   0  0  0  0  0  0  0  0  0  0  0  0
    0.8895   -1.0442   -0.0771 C   0  0  0  0  0  0  0  0  0  0  0  0
    1.2282    0.1616    0.5730 O   0  0  0  0  0  0  0  0  0  0  0  0
    2.5546    0.4668    0.9175 C   0  0  0  0  0  0  0  0  0  0  0  0
    3.4072   -0.4144    0.6020 O   0  0  0  0  0  0  0  0  0  0  0  0
   -1.7928    2.0070   -0.7964 H   0  0  0  0  0  0  0  0  0  0  0  0
   -0.3565    1.9119    0.2950 H   0  0  0  0  0  0  0  0  0  0  0  0
   -0.2476    1.1877   -1.3259 H   0  0  0  0  0  0  0  0  0  0  0  0
   -1.3629    0.1377    1.2610 H   0  0  0  0  0  0  0  0  0  0  0  0
   -2.9224   -0.9655   -0.7014 H   0  0  0  0  0  0  0  0  0  0  0  0
    1.3790   -1.1375   -1.0754 H   0  0  0  0  0  0  0  0  0  0  0  0
    1.1941   -1.9376    0.5382 H   0  0  0  0  0  0  0  0  0  0  0  0
    2.8261    1.3884    1.4162 H   0  0  0  0  0  0  0  0  0  0  0  0
  1  2  1  0
  2  3  1  0
  2  4  1  0
  4  5  2  0
  4  6  1  0
  6  7  1  0
  7  8  1  0
  8  9  2  0
  1 10  1  0
  1 11  1  0
  1 12  1  0
  2 13  1  0
  3 14  1  0
  6 15  1  0
  6 16  1  0
  8 17  1  0
M  END
