
     RDKit          3D

 17 17  0  0  0  0  0  0  0  0999 V2000
   -1.7773    0.2900   -0.9210 C   0  0  0  0  0  0  0  0  0  0  0  0
   -1.2833   -0.1885    0.4230 C   0  0  0  0  0  0  0  0  0  0  0  0
   -1.6708   -1.5010    0.6721 O   0  0  0  0  0  0  0  0  0  0  0  0
    0.2071   -0.0226    0.5710 C   0  0  0  0  0  0  0  0  0  0  0  0
    0.6138    1.3199    0.3173 O   0  0  0  0  0  0  0  0  0  0  0  0
    1.0810    0.2184   -0.5533 C   0  0  0  0  0  0  0  0  0  0  0  0
    2.5678    0.0538   -0.3523 C   0  0  0  0  0  0  0  0  0  0  0  0
   -1.8601   -0.5564   -1.6454 H   0  0  0  0  0  0  0  0  0  0  0  0
   -1.1701    1.1180   -1.3236 H   0  0  0  0  0  0  0  0  0  0  0  0
   -2.8250    0.6956   -0.8448 H   0  0  0  0  0  0  0  0  0  0  0  0
   -1.7537    0.4491    1.2134 H   0  0  0  0  0  0  0  0  0  0  0  0
   -2.2830   -1.8177   -0.0113 H   0  0  0  0  0  0  0  0  0  0  0  0
    0.6350   -0.5182    1.4656 H   0  0  0  0  0  0  0  0  0  0  0  0
    0.6891    0.3218   -1.5877 H   0  0  0  0  0  0  0  0  0  0  0  0
    2.8156    0.1906    0.7022 H   0  0  0  0  0  0  0  0  0  0  0  0
    3.0933    0.8691   -0.9272 H   0  0  0  0  0  0  0  0  0  0  0  0
    2.9205   -0.9219   -0.7578 H   0  0  0  0  0  0  0  0  0  0  0  0
  1  2  1  0
  2  3  1  0
  2  4  1  0
  4  5  1  0
  5  6  1  0
  6  7  1  0
  6  4  1  0
  1  8  1  0
  1  9  1  0
  1 10  1  0
  2 11  1  0
  3 12  1  0
  4 13  1  0
  6 14  1  0
  7 15  1  0
  7 16  1  0
  7 17  1  0
M  END
