
     RDKit          3D

 19 19  0  0  0  0  0  0  0  0999 V2000
    2.0620    0.7646   -0.3484 C   0  0  0  0  0  0  0  0  0  0  0  0
    1.2025   -0.0974    0.5354 C   0  0  0  0  0  0  0  0  0  0  0  0
    1.1836    0.4931    1.7996 O   0  0  0  0  0  0  0  0  0  0  0  0
   -0.2084   -0.1101   -0.0551 C   0  0  0  0  0  0  0  0  0  0  0  0
   -0.7565    1.1668   -0.2009 O   0  0  0  0  0  0  0  0  0  0  0  0
   -1.9927    1.4690   -0.6980 C   0  0  0  0  0  0  0  0  0  0  0  0
   -2.7180    0.5280   -1.0627 O   0  0  0  0  0  0  0  0  0  0  0  0
   -0.6045   -1.2788   -0.8125 C   0  0  0  0  0  0  0  0  0  0  0  0
   -1.1127   -1.1186    0.6415 C   0  0  0  0  0  0  0  0  0  0  0  0
    2.6100    1.5518    0.2069 H   0  0  0  0  0  0  0  0  0  0  0  0
    1.4506    1.2967   -1.1160 H   0  0  0  0  0  0  0  0  0  0  0  0
    2.7605    0.1091   -0.8994 H   0  0  0  0  0  0  0  0  0  0  0  0
    1.5941   -1.1400    0.5921 H   0  0  0  0  0  0  0  0  0  0  0  0
    0.9114   -0.1096    2.5149 H   0  0  0  0  0  0  0  0  0  0  0  0
   -2.2748    2.5175   -0.7476 H   0  0  0  0  0  0  0  0  0  0  0  0
    0.1513   -2.0979   -0.9225 H   0  0  0  0  0  0  0  0  0  0  0  0
   -1.3802   -1.3170   -1.5833 H   0  0  0  0  0  0  0  0  0  0  0  0
   -2.1807   -0.8332    0.7605 H   0  0  0  0  0  0  0  0  0  0  0  0
   -0.6972   -1.7940    1.3954 H   0  0  0  0  0  0  0  0  0  0  0  0
  1  2  1  0
  2  3  1  0
  2  4  1  0
  4  5  1  0
  5  6  1  0
  6  7  2  0
  4  8  1  0
  8  9  1  0
  9  4  1  0
  1 10  1  0
  1 11  1  0
  1 12  1  0
  2 13  1  0
  3 14  1  0
  6 15  1  0
  8 16  1  0
  8 17  1  0
  9 18  1  0
  9 19  1  0
M  END
