
     RDKit          3D

 19 18  0  0  0  0  0  0  0  0999 V2000
   -2.3901   -0.5592    0.2011 C   0  0  0  0  0  0  0  0  0  0  0  0
   -1.5366    0.6798    0.2689 C   0  0  0  0  0  0  0  0  0  0  0  0
   -2.1478    1.7847   -0.3210 O   0  0  0  0  0  0  0  0  0  0  0  0
   -0.1725    0.4611   -0.2783 C   0  0  0  0  0  0  0  0  0  0  0  0
    0.2839    1.1791   -1.1175 O   0  0  0  0  0  0  0  0  0  0  0  0
    0.6018   -0.6712    0.2471 C   0  0  0  0  0  0  0  0  0  0  0  0
    1.9665   -0.8134   -0.3604 C   0  0  0  0  0  0  0  0  0  0  0  0
    2.7793    0.3817   -0.1205 C   0  0  0  0  0  0  0  0  0  0  0  0
    2.3546    1.3401    0.5004 O   0  0  0  0  0  0  0  0  0  0  0  0
   -1.9670   -1.3421   -0.4568 H   0  0  0  0  0  0  0  0  0  0  0  0
   -2.4773   -1.0137    1.2305 H   0  0  0  0  0  0  0  0  0  0  0  0
   -3.4046   -0.2659   -0.1110 H   0  0  0  0  0  0  0  0  0  0  0  0
   -1.3895    0.9590    1.3518 H   0  0  0  0  0  0  0  0  0  0  0  0
   -1.4000    2.3376   -0.7032 H   0  0  0  0  0  0  0  0  0  0  0  0
    0.7641   -0.5478    1.3582 H   0  0  0  0  0  0  0  0  0  0  0  0
   -0.0088   -1.5816    0.1455 H   0  0  0  0  0  0  0  0  0  0  0  0
    2.4419   -1.7033    0.1203 H   0  0  0  0  0  0  0  0  0  0  0  0
    1.9066   -1.0497   -1.4502 H   0  0  0  0  0  0  0  0  0  0  0  0
    3.7954    0.4248   -0.5048 H   0  0  0  0  0  0  0  0  0  0  0  0
  1  2  1  0
  2  3  1  0
  2  4  1  0
  4  5  2  0
  4  6  1  0
  6  7  1  0
  7  8  1  0
  8  9  2  0
  1 10  1  0
  1 11  1  0
  1 12  1  0
  2 13  1  0
  3 14  1  0
  6 15  1  0
  6 16  1  0
  7 17  1  0
  7 18  1  0
  8 19  1  0
M  END
