
     RDKit          3D

 21 20  0  0  0  0  0  0  0  0999 V2000
    1.9702    0.4550    0.8275 C   0  0  0  0  0  0  0  0  0  0  0  0
    1.2340   -0.1170   -0.3907 C   0  0  0  0  0  0  0  0  0  0  0  0
    1.5312    0.7037   -1.4801 O   0  0  0  0  0  0  0  0  0  0  0  0
   -0.2519   -0.0852   -0.0866 C   0  0  0  0  0  0  0  0  0  0  0  0
   -0.9599   -0.5438   -1.3574 C   0  0  0  0  0  0  0  0  0  0  0  0
   -0.5723   -1.0731    0.9871 C   0  0  0  0  0  0  0  0  0  0  0  0
   -0.6508    1.2240    0.2174 O   0  0  0  0  0  0  0  0  0  0  0  0
   -1.9527    1.5304    0.5315 C   0  0  0  0  0  0  0  0  0  0  0  0
   -2.7788    0.5749    0.5341 O   0  0  0  0  0  0  0  0  0  0  0  0
    1.5834    1.4945    0.9379 H   0  0  0  0  0  0  0  0  0  0  0  0
    3.0525    0.5028    0.6541 H   0  0  0  0  0  0  0  0  0  0  0  0
    1.6849   -0.1556    1.6937 H   0  0  0  0  0  0  0  0  0  0  0  0
    1.6029   -1.1402   -0.5269 H   0  0  0  0  0  0  0  0  0  0  0  0
    2.0520    0.1516   -2.1187 H   0  0  0  0  0  0  0  0  0  0  0  0
   -1.9564   -0.9416   -1.0933 H   0  0  0  0  0  0  0  0  0  0  0  0
   -1.0563    0.2916   -2.0589 H   0  0  0  0  0  0  0  0  0  0  0  0
   -0.4061   -1.3610   -1.8576 H   0  0  0  0  0  0  0  0  0  0  0  0
   -1.2996   -1.8584    0.6459 H   0  0  0  0  0  0  0  0  0  0  0  0
   -0.9412   -0.5692    1.9078 H   0  0  0  0  0  0  0  0  0  0  0  0
    0.3423   -1.6323    1.2725 H   0  0  0  0  0  0  0  0  0  0  0  0
   -2.2274    2.5490    0.7608 H   0  0  0  0  0  0  0  0  0  0  0  0
  1  2  1  0
  2  3  1  0
  2  4  1  0
  4  5  1  0
  4  6  1  0
  4  7  1  0
  7  8  1  0
  8  9  2  0
  1 10  1  0
  1 11  1  0
  1 12  1  0
  2 13  1  0
  3 14  1  0
  5 15  1  0
  5 16  1  0
  5 17  1  0
  6 18  1  0
  6 19  1  0
  6 20  1  0
  8 21  1  0
M  END
