
     RDKit          3D

 17 16  0  0  0  0  0  0  0  0999 V2000
    1.9550   -0.5720    0.2187 C   0  0  0  0  0  0  0  0  0  0  0  0
    0.8539    0.0682   -0.6005 C   0  0  0  0  0  0  0  0  0  0  0  0
    1.1542    1.4281   -0.6727 O   0  0  0  0  0  0  0  0  0  0  0  0
   -0.4980   -0.1329    0.0416 C   0  0  0  0  0  0  0  0  0  0  0  0
   -0.4194    0.4096    1.4202 C   0  0  0  0  0  0  0  0  0  0  0  0
   -1.2220    1.2590    1.7557 O   0  0  0  0  0  0  0  0  0  0  0  0
   -1.5385    0.4725   -0.6427 O   0  0  0  0  0  0  0  0  0  0  0  0
   -2.6652   -0.1638   -1.1347 C   0  0  0  0  0  0  0  0  0  0  0  0
   -2.7560   -1.3874   -0.9485 O   0  0  0  0  0  0  0  0  0  0  0  0
    2.3571    0.1648    0.9527 H   0  0  0  0  0  0  0  0  0  0  0  0
    2.7778   -0.8400   -0.4487 H   0  0  0  0  0  0  0  0  0  0  0  0
    1.5988   -1.4372    0.7980 H   0  0  0  0  0  0  0  0  0  0  0  0
    0.8782   -0.3074   -1.6502 H   0  0  0  0  0  0  0  0  0  0  0  0
    1.3347    1.7113    0.2737 H   0  0  0  0  0  0  0  0  0  0  0  0
   -0.7285   -1.2243    0.1263 H   0  0  0  0  0  0  0  0  0  0  0  0
    0.3101    0.1007    2.1606 H   0  0  0  0  0  0  0  0  0  0  0  0
   -3.3921    0.4508   -1.6497 H   0  0  0  0  0  0  0  0  0  0  0  0
  1  2  1  0
  2  3  1  0
  2  4  1  0
  4  5  1  0
  5  6  2  0
  4  7  1  0
  7  8  1  0
  8  9  2  0
  1 10  1  0
  1 11  1  0
  1 12  1  0
  2 13  1  0
  3 14  1  0
  4 15  1  0
  5 16  1  0
  8 17  1  0
M  END
