
     RDKit          3D

 19 18  0  0  0  0  0  0  0  0999 V2000
    0.3225    1.6228    0.0792 C   0  0  0  0  0  0  0  0  0  0  0  0
    0.5472    0.1209    0.2478 C   0  0  0  0  0  0  0  0  0  0  0  0
    1.7671   -0.1944   -0.3702 O   0  0  0  0  0  0  0  0  0  0  0  0
    2.8282   -0.7988    0.2848 C   0  0  0  0  0  0  0  0  0  0  0  0
    2.6728   -1.0732    1.4999 O   0  0  0  0  0  0  0  0  0  0  0  0
   -0.5435   -0.5734   -0.5627 C   0  0  0  0  0  0  0  0  0  0  0  0
   -0.3677   -1.9497   -0.5856 O   0  0  0  0  0  0  0  0  0  0  0  0
   -1.9113   -0.3053    0.0185 C   0  0  0  0  0  0  0  0  0  0  0  0
   -2.2050    1.0523    0.0929 O   0  0  0  0  0  0  0  0  0  0  0  0
   -0.2261    1.8505   -0.8609 H   0  0  0  0  0  0  0  0  0  0  0  0
    1.3086    2.1308   -0.0213 H   0  0  0  0  0  0  0  0  0  0  0  0
   -0.2508    2.0183    0.9356 H   0  0  0  0  0  0  0  0  0  0  0  0
    0.4848   -0.1468    1.3051 H   0  0  0  0  0  0  0  0  0  0  0  0
    3.7487   -1.0226   -0.2327 H   0  0  0  0  0  0  0  0  0  0  0  0
   -0.5538   -0.1892   -1.6032 H   0  0  0  0  0  0  0  0  0  0  0  0
   -0.3608   -2.3005   -1.5266 H   0  0  0  0  0  0  0  0  0  0  0  0
   -2.0652   -0.8179    0.9973 H   0  0  0  0  0  0  0  0  0  0  0  0
   -2.6475   -0.7488   -0.6837 H   0  0  0  0  0  0  0  0  0  0  0  0
   -2.5483    1.3251    0.9858 H   0  0  0  0  0  0  0  0  0  0  0  0
  1  2  1  0
  2  3  1  0
  3  4  1  0
  4  5  2  0
  2  6  1  0
  6  7  1  0
  6  8  1  0
  8  9  1  0
  1 10  1  0
  1 11  1  0
  1 12  1  0
  2 13  1  0
  4 14  1  0
  6 15  1  0
  7 16  1  0
  8 17  1  0
  8 18  1  0
  9 19  1  0
M  END
