
     RDKit          3D

 19 19  0  0  0  0  0  0  0  0999 V2000
    2.1685   -0.9298   -0.1746 C   0  0  0  0  0  0  0  0  0  0  0  0
    1.4622    0.4074   -0.1073 C   0  0  0  0  0  0  0  0  0  0  0  0
    1.8738    1.1443    0.9942 O   0  0  0  0  0  0  0  0  0  0  0  0
   -0.0134    0.1591   -0.0045 C   0  0  0  0  0  0  0  0  0  0  0  0
   -0.6178   -1.0249    0.0243 C   0  0  0  0  0  0  0  0  0  0  0  0
   -2.0980   -0.8535    0.1325 C   0  0  0  0  0  0  0  0  0  0  0  0
   -2.2694    0.5401   -0.3235 C   0  0  0  0  0  0  0  0  0  0  0  0
   -3.2119    1.0022   -0.9040 O   0  0  0  0  0  0  0  0  0  0  0  0
   -1.0401    1.2489    0.0828 C   0  0  0  0  0  0  0  0  0  0  0  0
    1.6559   -1.5001   -1.0004 H   0  0  0  0  0  0  0  0  0  0  0  0
    2.0262   -1.5088    0.7562 H   0  0  0  0  0  0  0  0  0  0  0  0
    3.2321   -0.8181   -0.4412 H   0  0  0  0  0  0  0  0  0  0  0  0
    1.6936    0.9352   -1.0768 H   0  0  0  0  0  0  0  0  0  0  0  0
    2.1853    2.0514    0.7668 H   0  0  0  0  0  0  0  0  0  0  0  0
   -0.1350   -1.9794   -0.0220 H   0  0  0  0  0  0  0  0  0  0  0  0
   -2.6480   -1.5881   -0.4802 H   0  0  0  0  0  0  0  0  0  0  0  0
   -2.3386   -0.9113    1.2154 H   0  0  0  0  0  0  0  0  0  0  0  0
   -0.7931    2.0973   -0.5803 H   0  0  0  0  0  0  0  0  0  0  0  0
   -1.1323    1.5281    1.1426 H   0  0  0  0  0  0  0  0  0  0  0  0
  1  2  1  0
  2  3  1  0
  2  4  1  0
  4  5  2  0
  5  6  1  0
  6  7  1  0
  7  8  2  0
  7  9  1  0
  9  4  1  0
  1 10  1  0
  1 11  1  0
  1 12  1  0
  2 13  1  0
  3 14  1  0
  5 15  1  0
  6 16  1  0
  6 17  1  0
  9 18  1  0
  9 19  1  0
M  END
