
     RDKit          3D

 23 23  0  0  0  0  0  0  0  0999 V2000
    2.4850   -0.5035    0.2163 C   0  0  0  0  0  0  0  0  0  0  0  0
    1.4085    0.5218    0.0689 C   0  0  0  0  0  0  0  0  0  0  0  0
    1.1582    1.0810    1.3138 O   0  0  0  0  0  0  0  0  0  0  0  0
    0.1470   -0.0299   -0.5519 C   0  0  0  0  0  0  0  0  0  0  0  0
   -0.8788    1.0722   -0.6604 C   0  0  0  0  0  0  0  0  0  0  0  0
   -1.7522    0.9793    0.5686 C   0  0  0  0  0  0  0  0  0  0  0  0
   -1.8453   -0.5450    0.7318 C   0  0  0  0  0  0  0  0  0  0  0  0
   -0.5069   -1.0787    0.3020 C   0  0  0  0  0  0  0  0  0  0  0  0
   -0.7517   -2.1853   -0.5141 O   0  0  0  0  0  0  0  0  0  0  0  0
    2.7031   -1.0478   -0.7285 H   0  0  0  0  0  0  0  0  0  0  0  0
    3.4339    0.0514    0.4560 H   0  0  0  0  0  0  0  0  0  0  0  0
    2.3308   -1.2069    1.0578 H   0  0  0  0  0  0  0  0  0  0  0  0
    1.7845    1.3200   -0.6048 H   0  0  0  0  0  0  0  0  0  0  0  0
    2.0134    1.0647    1.8241 H   0  0  0  0  0  0  0  0  0  0  0  0
    0.3786   -0.3745   -1.5742 H   0  0  0  0  0  0  0  0  0  0  0  0
   -0.3444    2.0201   -0.7504 H   0  0  0  0  0  0  0  0  0  0  0  0
   -1.5647    0.9122   -1.5365 H   0  0  0  0  0  0  0  0  0  0  0  0
   -1.3395    1.4670    1.4474 H   0  0  0  0  0  0  0  0  0  0  0  0
   -2.7710    1.3718    0.3170 H   0  0  0  0  0  0  0  0  0  0  0  0
   -2.0993   -0.7833    1.7803 H   0  0  0  0  0  0  0  0  0  0  0  0
   -2.6782   -0.8919    0.0995 H   0  0  0  0  0  0  0  0  0  0  0  0
    0.0887   -1.3400    1.1919 H   0  0  0  0  0  0  0  0  0  0  0  0
   -1.3998   -1.8745   -1.2012 H   0  0  0  0  0  0  0  0  0  0  0  0
  1  2  1  0
  2  3  1  0
  2  4  1  0
  4  5  1  0
  5  6  1  0
  6  7  1  0
  7  8  1  0
  8  9  1  0
  8  4  1  0
  1 10  1  0
  1 11  1  0
  1 12  1  0
  2 13  1  0
  3 14  1  0
  4 15  1  0
  5 16  1  0
  5 17  1  0
  6 18  1  0
  6 19  1  0
  7 20  1  0
  7 21  1  0
  8 22  1  0
  9 23  1  0
M  END
