
     RDKit          3D

 24 23  0  0  0  0  0  0  0  0999 V2000
    2.7257   -0.0132    0.8826 C   0  0  0  0  0  0  0  0  0  0  0  0
    1.3526    0.5689    0.5432 C   0  0  0  0  0  0  0  0  0  0  0  0
    1.4637    1.4884   -0.4820 O   0  0  0  0  0  0  0  0  0  0  0  0
    0.4671   -0.5942    0.1920 C   0  0  0  0  0  0  0  0  0  0  0  0
   -0.9319   -0.1906   -0.1701 C   0  0  0  0  0  0  0  0  0  0  0  0
   -1.6637   -1.5022   -0.4904 C   0  0  0  0  0  0  0  0  0  0  0  0
   -1.6816    0.4772    0.9299 C   0  0  0  0  0  0  0  0  0  0  0  0
   -0.9957    0.6321   -1.4320 C   0  0  0  0  0  0  0  0  0  0  0  0
    3.0379   -0.7222    0.0687 H   0  0  0  0  0  0  0  0  0  0  0  0
    3.4627    0.7631    1.0736 H   0  0  0  0  0  0  0  0  0  0  0  0
    2.5889   -0.6435    1.7910 H   0  0  0  0  0  0  0  0  0  0  0  0
    0.9857    1.0266    1.4907 H   0  0  0  0  0  0  0  0  0  0  0  0
    2.2385    2.0808   -0.3101 H   0  0  0  0  0  0  0  0  0  0  0  0
    0.8795   -1.1763   -0.6519 H   0  0  0  0  0  0  0  0  0  0  0  0
    0.4007   -1.2381    1.0937 H   0  0  0  0  0  0  0  0  0  0  0  0
   -1.7258   -2.1059    0.4397 H   0  0  0  0  0  0  0  0  0  0  0  0
   -2.6438   -1.2644   -0.9127 H   0  0  0  0  0  0  0  0  0  0  0  0
   -0.9926   -2.0245   -1.2223 H   0  0  0  0  0  0  0  0  0  0  0  0
   -1.6207   -0.0538    1.8792 H   0  0  0  0  0  0  0  0  0  0  0  0
   -2.7622    0.5026    0.6320 H   0  0  0  0  0  0  0  0  0  0  0  0
   -1.3824    1.5373    1.0400 H   0  0  0  0  0  0  0  0  0  0  0  0
   -0.8434    1.6977   -1.2800 H   0  0  0  0  0  0  0  0  0  0  0  0
   -2.0382    0.5106   -1.8309 H   0  0  0  0  0  0  0  0  0  0  0  0
   -0.3211    0.2437   -2.2198 H   0  0  0  0  0  0  0  0  0  0  0  0
  1  2  1  0
  2  3  1  0
  2  4  1  0
  4  5  1  0
  5  6  1  0
  5  7  1  0
  5  8  1  0
  1  9  1  0
  1 10  1  0
  1 11  1  0
  2 12  1  0
  3 13  1  0
  4 14  1  0
  4 15  1  0
  6 16  1  0
  6 17  1  0
  6 18  1  0
  7 19  1  0
  7 20  1  0
  7 21  1  0
  8 22  1  0
  8 23  1  0
  8 24  1  0
M  END
