
     RDKit          3D

 17 18  0  0  0  0  0  0  0  0999 V2000
   -1.9259   -0.9133   -0.3492 C   0  0  0  0  0  0  0  0  0  0  0  0
   -0.9882    0.2066   -0.0559 C   0  0  0  0  0  0  0  0  0  0  0  0
   -1.3223    1.2506   -0.9597 O   0  0  0  0  0  0  0  0  0  0  0  0
    0.3734   -0.0357   -0.0656 C   0  0  0  0  0  0  0  0  0  0  0  0
    1.4193    1.0195    0.2032 C   0  0  0  0  0  0  0  0  0  0  0  0
    2.1104   -0.2751   -0.0861 C   0  0  0  0  0  0  0  0  0  0  0  0
    1.1747   -0.4241   -1.1110 O   0  0  0  0  0  0  0  0  0  0  0  0
    1.1519   -0.9184    0.7788 C   0  0  0  0  0  0  0  0  0  0  0  0
    0.9900   -1.6990    1.6647 O   0  0  0  0  0  0  0  0  0  0  0  0
   -2.9117   -0.5415   -0.7453 H   0  0  0  0  0  0  0  0  0  0  0  0
   -1.5314   -1.6645   -1.0576 H   0  0  0  0  0  0  0  0  0  0  0  0
   -2.2063   -1.4816    0.5717 H   0  0  0  0  0  0  0  0  0  0  0  0
   -1.3102    0.6318    0.9440 H   0  0  0  0  0  0  0  0  0  0  0  0
   -1.1627    2.1344   -0.5131 H   0  0  0  0  0  0  0  0  0  0  0  0
    1.4421    1.3857    1.2378 H   0  0  0  0  0  0  0  0  0  0  0  0
    1.5942    1.7479   -0.6004 H   0  0  0  0  0  0  0  0  0  0  0  0
    3.1028   -0.4233   -0.1772 H   0  0  0  0  0  0  0  0  0  0  0  0
  1  2  1  0
  2  3  1  0
  2  4  1  0
  4  5  1  0
  5  6  1  0
  6  7  1  0
  6  8  1  0
  8  9  2  0
  7  4  1  0
  8  4  1  0
  1 10  1  0
  1 11  1  0
  1 12  1  0
  2 13  1  0
  3 14  1  0
  5 15  1  0
  5 16  1  0
  6 17  1  0
M  END
