
     RDKit          3D

 21 20  0  0  0  0  0  0  0  0999 V2000
    1.9340   -0.7612   -0.1784 C   0  0  0  0  0  0  0  0  0  0  0  0
    1.3774    0.4956   -0.7547 C   0  0  0  0  0  0  0  0  0  0  0  0
    2.3284    1.5054   -0.4562 O   0  0  0  0  0  0  0  0  0  0  0  0
    0.0759    0.9654   -0.2478 C   0  0  0  0  0  0  0  0  0  0  0  0
   -1.1219    0.1175   -0.4010 C   0  0  0  0  0  0  0  0  0  0  0  0
   -1.0051   -1.2098    0.3003 C   0  0  0  0  0  0  0  0  0  0  0  0
   -1.4919   -0.0719   -1.7387 O   0  0  0  0  0  0  0  0  0  0  0  0
   -2.3232    0.7852    0.2385 C   0  0  0  0  0  0  0  0  0  0  0  0
   -2.3035    1.0813    1.4213 O   0  0  0  0  0  0  0  0  0  0  0  0
    1.8531   -1.6481   -0.8471 H   0  0  0  0  0  0  0  0  0  0  0  0
    1.5500   -0.9699    0.8305 H   0  0  0  0  0  0  0  0  0  0  0  0
    3.0601   -0.6803   -0.0132 H   0  0  0  0  0  0  0  0  0  0  0  0
    1.4078    0.3820   -1.8729 H   0  0  0  0  0  0  0  0  0  0  0  0
    2.5734    1.3311    0.4958 H   0  0  0  0  0  0  0  0  0  0  0  0
    0.2275    1.2104    0.8380 H   0  0  0  0  0  0  0  0  0  0  0  0
   -0.1598    1.9619   -0.7461 H   0  0  0  0  0  0  0  0  0  0  0  0
   -0.7353   -0.9697    1.3692 H   0  0  0  0  0  0  0  0  0  0  0  0
   -0.3658   -1.9426   -0.1791 H   0  0  0  0  0  0  0  0  0  0  0  0
   -2.0609   -1.5841    0.3983 H   0  0  0  0  0  0  0  0  0  0  0  0
   -1.5950   -1.0199   -1.9176 H   0  0  0  0  0  0  0  0  0  0  0  0
   -3.2253    1.0216   -0.3107 H   0  0  0  0  0  0  0  0  0  0  0  0
  1  2  1  0
  2  3  1  0
  2  4  1  0
  4  5  1  0
  5  6  1  0
  5  7  1  0
  5  8  1  0
  8  9  2  0
  1 10  1  0
  1 11  1  0
  1 12  1  0
  2 13  1  0
  3 14  1  0
  4 15  1  0
  4 16  1  0
  6 17  1  0
  6 18  1  0
  6 19  1  0
  7 20  1  0
  8 21  1  0
M  END
