
     RDKit          3D

 25 24  0  0  0  0  0  0  0  0999 V2000
    3.3900    0.3369    0.1906 C   0  0  0  0  0  0  0  0  0  0  0  0
    2.1441   -0.4240   -0.1321 C   0  0  0  0  0  0  0  0  0  0  0  0
    1.9912   -1.5059    0.7325 O   0  0  0  0  0  0  0  0  0  0  0  0
    0.8895    0.4382   -0.0238 C   0  0  0  0  0  0  0  0  0  0  0  0
   -0.2751   -0.4373   -0.3691 C   0  0  0  0  0  0  0  0  0  0  0  0
   -1.5997    0.2665   -0.3096 C   0  0  0  0  0  0  0  0  0  0  0  0
   -2.6648   -0.7656   -0.6869 C   0  0  0  0  0  0  0  0  0  0  0  0
   -1.9308    0.7860    1.0580 C   0  0  0  0  0  0  0  0  0  0  0  0
   -1.6981    1.2919   -1.2412 O   0  0  0  0  0  0  0  0  0  0  0  0
    3.1460    1.2131    0.8064 H   0  0  0  0  0  0  0  0  0  0  0  0
    4.0702   -0.3678    0.7519 H   0  0  0  0  0  0  0  0  0  0  0  0
    3.9699    0.6062   -0.7339 H   0  0  0  0  0  0  0  0  0  0  0  0
    2.2440   -0.8283   -1.1512 H   0  0  0  0  0  0  0  0  0  0  0  0
    1.7740   -1.1296    1.6174 H   0  0  0  0  0  0  0  0  0  0  0  0
    1.0090    1.2508   -0.7882 H   0  0  0  0  0  0  0  0  0  0  0  0
    0.8169    0.8377    1.0067 H   0  0  0  0  0  0  0  0  0  0  0  0
   -0.3124   -1.2713    0.3710 H   0  0  0  0  0  0  0  0  0  0  0  0
   -0.1409   -0.8368   -1.3886 H   0  0  0  0  0  0  0  0  0  0  0  0
   -2.3865   -1.0949   -1.7241 H   0  0  0  0  0  0  0  0  0  0  0  0
   -3.6732   -0.3252   -0.6704 H   0  0  0  0  0  0  0  0  0  0  0  0
   -2.5829   -1.6541   -0.0337 H   0  0  0  0  0  0  0  0  0  0  0  0
   -1.5298    1.8037    1.2472 H   0  0  0  0  0  0  0  0  0  0  0  0
   -1.6453    0.0812    1.8603 H   0  0  0  0  0  0  0  0  0  0  0  0
   -3.0546    0.8520    1.1118 H   0  0  0  0  0  0  0  0  0  0  0  0
   -1.9507    0.8768   -2.1041 H   0  0  0  0  0  0  0  0  0  0  0  0
  1  2  1  0
  2  3  1  0
  2  4  1  0
  4  5  1  0
  5  6  1  0
  6  7  1  0
  6  8  1  0
  6  9  1  0
  1 10  1  0
  1 11  1  0
  1 12  1  0
  2 13  1  0
  3 14  1  0
  4 15  1  0
  4 16  1  0
  5 17  1  0
  5 18  1  0
  7 19  1  0
  7 20  1  0
  7 21  1  0
  8 22  1  0
  8 23  1  0
  8 24  1  0
  9 25  1  0
M  END
