
     RDKit          3D

 21 21  0  0  0  0  0  0  0  0999 V2000
    2.1776    0.7325   -0.3856 C   0  0  0  0  0  0  0  0  0  0  0  0
    1.1697   -0.3065   -0.0207 C   0  0  0  0  0  0  0  0  0  0  0  0
    1.1280   -0.4857    1.3502 O   0  0  0  0  0  0  0  0  0  0  0  0
   -0.1932   -0.0634   -0.6127 C   0  0  0  0  0  0  0  0  0  0  0  0
   -1.1393   -1.1798   -0.1772 C   0  0  0  0  0  0  0  0  0  0  0  0
   -2.1673   -1.3413   -1.1098 O   0  0  0  0  0  0  0  0  0  0  0  0
   -1.6155   -0.2467    0.9222 C   0  0  0  0  0  0  0  0  0  0  0  0
   -1.0695    0.9006    0.1053 C   0  0  0  0  0  0  0  0  0  0  0  0
   -0.4752    1.8525    0.8858 O   0  0  0  0  0  0  0  0  0  0  0  0
    2.5913    1.2082    0.5444 H   0  0  0  0  0  0  0  0  0  0  0  0
    1.7706    1.5215   -1.0766 H   0  0  0  0  0  0  0  0  0  0  0  0
    3.0555    0.3068   -0.9253 H   0  0  0  0  0  0  0  0  0  0  0  0
    1.5295   -1.2866   -0.4506 H   0  0  0  0  0  0  0  0  0  0  0  0
    1.8559   -1.1107    1.6403 H   0  0  0  0  0  0  0  0  0  0  0  0
   -0.1732    0.0361   -1.6945 H   0  0  0  0  0  0  0  0  0  0  0  0
   -0.6236   -2.0809    0.1422 H   0  0  0  0  0  0  0  0  0  0  0  0
   -1.8187   -1.8328   -1.8804 H   0  0  0  0  0  0  0  0  0  0  0  0
   -2.7238   -0.2213    1.0397 H   0  0  0  0  0  0  0  0  0  0  0  0
   -1.1511   -0.3969    1.9033 H   0  0  0  0  0  0  0  0  0  0  0  0
   -1.8535    1.3018   -0.5981 H   0  0  0  0  0  0  0  0  0  0  0  0
   -0.2741    2.6926    0.3980 H   0  0  0  0  0  0  0  0  0  0  0  0
  1  2  1  0
  2  3  1  0
  2  4  1  0
  4  5  1  0
  5  6  1  0
  5  7  1  0
  7  8  1  0
  8  9  1  0
  8  4  1  0
  1 10  1  0
  1 11  1  0
  1 12  1  0
  2 13  1  0
  3 14  1  0
  4 15  1  0
  5 16  1  0
  6 17  1  0
  7 18  1  0
  7 19  1  0
  8 20  1  0
  9 21  1  0
M  END
