
     RDKit          3D

 21 21  0  0  0  0  0  0  0  0999 V2000
    1.0130   -1.9337    0.0109 C   0  0  0  0  0  0  0  0  0  0  0  0
    0.6985   -0.4543   -0.0710 C   0  0  0  0  0  0  0  0  0  0  0  0
   -0.5979   -0.1775    0.3513 O   0  0  0  0  0  0  0  0  0  0  0  0
   -1.2824    0.3667   -0.7320 C   0  0  0  0  0  0  0  0  0  0  0  0
   -2.7144    0.7070   -0.3789 C   0  0  0  0  0  0  0  0  0  0  0  0
   -3.4301   -0.4205    0.0327 O   0  0  0  0  0  0  0  0  0  0  0  0
    1.6302    0.3684    0.7693 C   0  0  0  0  0  0  0  0  0  0  0  0
    2.4055    1.4253    0.0175 C   0  0  0  0  0  0  0  0  0  0  0  0
    3.0007    0.2906    0.5612 O   0  0  0  0  0  0  0  0  0  0  0  0
    0.7705   -2.2845    1.0213 H   0  0  0  0  0  0  0  0  0  0  0  0
    2.0946   -2.0653   -0.1458 H   0  0  0  0  0  0  0  0  0  0  0  0
    0.4796   -2.4619   -0.7972 H   0  0  0  0  0  0  0  0  0  0  0  0
    0.8456   -0.1768   -1.1322 H   0  0  0  0  0  0  0  0  0  0  0  0
   -0.7765    1.3093   -0.9949 H   0  0  0  0  0  0  0  0  0  0  0  0
   -1.2068   -0.3211   -1.5846 H   0  0  0  0  0  0  0  0  0  0  0  0
   -3.1980    1.0921   -1.3008 H   0  0  0  0  0  0  0  0  0  0  0  0
   -2.7176    1.4947    0.3833 H   0  0  0  0  0  0  0  0  0  0  0  0
   -3.1295   -1.2371   -0.4371 H   0  0  0  0  0  0  0  0  0  0  0  0
    1.2611    0.6262    1.7914 H   0  0  0  0  0  0  0  0  0  0  0  0
    2.5214    2.3960    0.5126 H   0  0  0  0  0  0  0  0  0  0  0  0
    2.3326    1.4563   -1.0935 H   0  0  0  0  0  0  0  0  0  0  0  0
  1  2  1  0
  2  3  1  0
  3  4  1  0
  4  5  1  0
  5  6  1  0
  2  7  1  0
  7  8  1  0
  8  9  1  0
  9  7  1  0
  1 10  1  0
  1 11  1  0
  1 12  1  0
  2 13  1  0
  4 14  1  0
  4 15  1  0
  5 16  1  0
  5 17  1  0
  6 18  1  0
  7 19  1  0
  8 20  1  0
  8 21  1  0
M  END
