
     RDKit          3D

 19 19  0  0  0  0  0  0  0  0999 V2000
   -2.3114    0.0326   -0.3543 C   0  0  0  0  0  0  0  0  0  0  0  0
   -1.1858   -0.0439    0.6751 C   0  0  0  0  0  0  0  0  0  0  0  0
   -1.2421   -1.2535    1.3368 O   0  0  0  0  0  0  0  0  0  0  0  0
    0.1077    0.1466   -0.0833 C   0  0  0  0  0  0  0  0  0  0  0  0
    0.4344    1.5524   -0.4145 C   0  0  0  0  0  0  0  0  0  0  0  0
    1.4499    1.8555   -1.0298 O   0  0  0  0  0  0  0  0  0  0  0  0
    0.3163   -0.8325   -1.0558 O   0  0  0  0  0  0  0  0  0  0  0  0
    1.1977   -0.8239    0.0152 C   0  0  0  0  0  0  0  0  0  0  0  0
    2.5961   -0.3322   -0.2317 C   0  0  0  0  0  0  0  0  0  0  0  0
   -2.0002   -0.5145   -1.2427 H   0  0  0  0  0  0  0  0  0  0  0  0
   -2.3933    1.1027   -0.6333 H   0  0  0  0  0  0  0  0  0  0  0  0
   -3.2163   -0.3710    0.1063 H   0  0  0  0  0  0  0  0  0  0  0  0
   -1.3743    0.7629    1.4115 H   0  0  0  0  0  0  0  0  0  0  0  0
   -2.1238   -1.3087    1.7743 H   0  0  0  0  0  0  0  0  0  0  0  0
   -0.2475    2.3303   -0.1011 H   0  0  0  0  0  0  0  0  0  0  0  0
    1.1416   -1.7072    0.7149 H   0  0  0  0  0  0  0  0  0  0  0  0
    2.7421    0.5725    0.4259 H   0  0  0  0  0  0  0  0  0  0  0  0
    3.3640   -1.1045   -0.0149 H   0  0  0  0  0  0  0  0  0  0  0  0
    2.7450   -0.0636   -1.2987 H   0  0  0  0  0  0  0  0  0  0  0  0
  1  2  1  0
  2  3  1  0
  2  4  1  0
  4  5  1  0
  5  6  2  0
  4  7  1  0
  7  8  1  0
  8  9  1  0
  8  4  1  0
  1 10  1  0
  1 11  1  0
  1 12  1  0
  2 13  1  0
  3 14  1  0
  5 15  1  0
  8 16  1  0
  9 17  1  0
  9 18  1  0
  9 19  1  0
M  END
