
     RDKit          3D

 18 17  0  0  0  0  0  0  0  0999 V2000
   -0.6265   -1.1446    2.3313 C   0  0  0  0  0  0  0  0  0  0  0  0
   -1.5407   -0.8800    1.1490 C   0  0  0  0  0  0  0  0  0  0  0  0
   -2.5308   -0.0025    1.4853 O   0  0  0  0  0  0  0  0  0  0  0  0
   -0.7193   -0.3641    0.0867 C   0  0  0  0  0  0  0  0  0  0  0  0
   -0.0210    0.0808   -0.8511 C   0  0  0  0  0  0  0  0  0  0  0  0
    0.7897    0.5715   -1.9419 C   0  0  0  0  0  0  0  0  0  0  0  0
    1.6999    1.6473   -1.4266 C   0  0  0  0  0  0  0  0  0  0  0  0
    1.5559   -0.4905   -2.4749 O   0  0  0  0  0  0  0  0  0  0  0  0
    0.4155   -0.7640    2.1588 H   0  0  0  0  0  0  0  0  0  0  0  0
   -1.0616   -0.7099    3.2448 H   0  0  0  0  0  0  0  0  0  0  0  0
   -0.5632   -2.2522    2.5152 H   0  0  0  0  0  0  0  0  0  0  0  0
   -2.0378   -1.8521    0.8709 H   0  0  0  0  0  0  0  0  0  0  0  0
   -2.2787    0.6708    2.1578 H   0  0  0  0  0  0  0  0  0  0  0  0
    0.1468    0.9841   -2.7707 H   0  0  0  0  0  0  0  0  0  0  0  0
    2.5018    1.1993   -0.8117 H   0  0  0  0  0  0  0  0  0  0  0  0
    1.1429    2.4100   -0.8366 H   0  0  0  0  0  0  0  0  0  0  0  0
    2.1147    2.2082   -2.3154 H   0  0  0  0  0  0  0  0  0  0  0  0
    1.0124   -1.3120   -2.5708 H   0  0  0  0  0  0  0  0  0  0  0  0
  1  2  1  0
  2  3  1  0
  2  4  1  0
  4  5  3  0
  5  6  1  0
  6  7  1  0
  6  8  1  0
  1  9  1  0
  1 10  1  0
  1 11  1  0
  2 12  1  0
  3 13  1  0
  6 14  1  0
  7 15  1  0
  7 16  1  0
  7 17  1  0
  8 18  1  0
M  END
