
     RDKit          3D

 20 20  0  0  0  0  0  0  0  0999 V2000
    2.5179    0.5945    0.0906 C   0  0  0  0  0  0  0  0  0  0  0  0
    1.1858   -0.0985    0.1546 C   0  0  0  0  0  0  0  0  0  0  0  0
    1.3517   -1.3868   -0.3202 O   0  0  0  0  0  0  0  0  0  0  0  0
    0.1286    0.6432   -0.6482 C   0  0  0  0  0  0  0  0  0  0  0  0
   -1.1310   -0.1811   -0.4760 C   0  0  0  0  0  0  0  0  0  0  0  0
   -1.0019   -1.4873   -0.9432 O   0  0  0  0  0  0  0  0  0  0  0  0
   -2.4532    0.4114   -0.3544 C   0  0  0  0  0  0  0  0  0  0  0  0
   -1.7742    0.0176    0.8966 C   0  0  0  0  0  0  0  0  0  0  0  0
    2.3919    1.6600    0.3905 H   0  0  0  0  0  0  0  0  0  0  0  0
    2.9248    0.4684   -0.9161 H   0  0  0  0  0  0  0  0  0  0  0  0
    3.1826    0.0715    0.8233 H   0  0  0  0  0  0  0  0  0  0  0  0
    0.8637   -0.1564    1.2085 H   0  0  0  0  0  0  0  0  0  0  0  0
    1.7195   -1.9495    0.4220 H   0  0  0  0  0  0  0  0  0  0  0  0
    0.0183    1.6617   -0.2063 H   0  0  0  0  0  0  0  0  0  0  0  0
    0.4392    0.7148   -1.7095 H   0  0  0  0  0  0  0  0  0  0  0  0
   -0.9461   -2.1440   -0.2044 H   0  0  0  0  0  0  0  0  0  0  0  0
   -2.6774    1.4818   -0.5244 H   0  0  0  0  0  0  0  0  0  0  0  0
   -3.3178   -0.2414   -0.6526 H   0  0  0  0  0  0  0  0  0  0  0  0
   -1.9984   -0.9130    1.4303 H   0  0  0  0  0  0  0  0  0  0  0  0
   -1.4240    0.8332    1.5387 H   0  0  0  0  0  0  0  0  0  0  0  0
  1  2  1  0
  2  3  1  0
  2  4  1  0
  4  5  1  0
  5  6  1  0
  5  7  1  0
  7  8  1  0
  8  5  1  0
  1  9  1  0
  1 10  1  0
  1 11  1  0
  2 12  1  0
  3 13  1  0
  4 14  1  0
  4 15  1  0
  6 16  1  0
  7 17  1  0
  7 18  1  0
  8 19  1  0
  8 20  1  0
M  END
