
     RDKit          3D

 23 23  0  0  0  0  0  0  0  0999 V2000
    2.1446   -0.4115    0.5371 C   0  0  0  0  0  0  0  0  0  0  0  0
    1.0297   -0.8619   -0.3278 C   0  0  0  0  0  0  0  0  0  0  0  0
    0.7996   -2.2174   -0.1176 O   0  0  0  0  0  0  0  0  0  0  0  0
   -0.2542   -0.1174   -0.1328 C   0  0  0  0  0  0  0  0  0  0  0  0
   -1.2974   -0.6817   -1.0766 C   0  0  0  0  0  0  0  0  0  0  0  0
   -0.1165    1.3622   -0.4102 C   0  0  0  0  0  0  0  0  0  0  0  0
   -1.2802    1.8867    0.3871 C   0  0  0  0  0  0  0  0  0  0  0  0
   -1.5395    1.0086    1.4020 O   0  0  0  0  0  0  0  0  0  0  0  0
   -0.7619   -0.1076    1.2653 C   0  0  0  0  0  0  0  0  0  0  0  0
    3.0158   -0.1134   -0.0796 H   0  0  0  0  0  0  0  0  0  0  0  0
    1.9037    0.4778    1.1749 H   0  0  0  0  0  0  0  0  0  0  0  0
    2.5300   -1.2263    1.2093 H   0  0  0  0  0  0  0  0  0  0  0  0
    1.3204   -0.7526   -1.3910 H   0  0  0  0  0  0  0  0  0  0  0  0
    1.0225   -2.7738   -0.9146 H   0  0  0  0  0  0  0  0  0  0  0  0
   -0.7964   -1.0847   -1.9860 H   0  0  0  0  0  0  0  0  0  0  0  0
   -1.7709   -1.5247   -0.5728 H   0  0  0  0  0  0  0  0  0  0  0  0
   -2.0573    0.0737   -1.3614 H   0  0  0  0  0  0  0  0  0  0  0  0
   -0.1925    1.5868   -1.4910 H   0  0  0  0  0  0  0  0  0  0  0  0
    0.8478    1.7192   -0.0509 H   0  0  0  0  0  0  0  0  0  0  0  0
   -1.0017    2.8704    0.7994 H   0  0  0  0  0  0  0  0  0  0  0  0
   -2.1673    2.0786   -0.2807 H   0  0  0  0  0  0  0  0  0  0  0  0
   -1.4271   -1.0023    1.3884 H   0  0  0  0  0  0  0  0  0  0  0  0
    0.0490   -0.1887    2.0295 H   0  0  0  0  0  0  0  0  0  0  0  0
  1  2  1  0
  2  3  1  0
  2  4  1  0
  4  5  1  0
  4  6  1  0
  6  7  1  0
  7  8  1  0
  8  9  1  0
  9  4  1  0
  1 10  1  0
  1 11  1  0
  1 12  1  0
  2 13  1  0
  3 14  1  0
  5 15  1  0
  5 16  1  0
  5 17  1  0
  6 18  1  0
  6 19  1  0
  7 20  1  0
  7 21  1  0
  9 22  1  0
  9 23  1  0
M  END
