
     RDKit          3D

 23 23  0  0  0  0  0  0  0  0999 V2000
    2.3602    0.0979    0.9010 C   0  0  0  0  0  0  0  0  0  0  0  0
    1.4075    0.2427   -0.2571 C   0  0  0  0  0  0  0  0  0  0  0  0
    2.0188   -0.3402   -1.3652 O   0  0  0  0  0  0  0  0  0  0  0  0
    0.0700   -0.3950    0.0178 C   0  0  0  0  0  0  0  0  0  0  0  0
    0.2752   -1.7662    0.2675 O   0  0  0  0  0  0  0  0  0  0  0  0
   -0.6698    0.2098    1.1497 C   0  0  0  0  0  0  0  0  0  0  0  0
   -1.8456    0.9387    0.5031 C   0  0  0  0  0  0  0  0  0  0  0  0
   -2.2199   -0.0739   -0.5705 C   0  0  0  0  0  0  0  0  0  0  0  0
   -0.8471   -0.3239   -1.1851 C   0  0  0  0  0  0  0  0  0  0  0  0
    2.2923   -0.9403    1.2774 H   0  0  0  0  0  0  0  0  0  0  0  0
    2.1906    0.8581    1.6849 H   0  0  0  0  0  0  0  0  0  0  0  0
    3.3899    0.2223    0.5037 H   0  0  0  0  0  0  0  0  0  0  0  0
    1.2140    1.3307   -0.4210 H   0  0  0  0  0  0  0  0  0  0  0  0
    1.6373   -0.0383   -2.2219 H   0  0  0  0  0  0  0  0  0  0  0  0
    1.1129   -2.0221   -0.1978 H   0  0  0  0  0  0  0  0  0  0  0  0
   -1.1133   -0.5497    1.8264 H   0  0  0  0  0  0  0  0  0  0  0  0
   -0.1247    0.9222    1.7601 H   0  0  0  0  0  0  0  0  0  0  0  0
   -2.6659    1.1068    1.2179 H   0  0  0  0  0  0  0  0  0  0  0  0
   -1.5113    1.8466   -0.0172 H   0  0  0  0  0  0  0  0  0  0  0  0
   -2.5811   -0.9801   -0.0303 H   0  0  0  0  0  0  0  0  0  0  0  0
   -2.9409    0.3292   -1.2801 H   0  0  0  0  0  0  0  0  0  0  0  0
   -0.8352   -1.2563   -1.7796 H   0  0  0  0  0  0  0  0  0  0  0  0
   -0.6136    0.5810   -1.7837 H   0  0  0  0  0  0  0  0  0  0  0  0
  1  2  1  0
  2  3  1  0
  2  4  1  0
  4  5  1  0
  4  6  1  0
  6  7  1  0
  7  8  1  0
  8  9  1  0
  9  4  1  0
  1 10  1  0
  1 11  1  0
  1 12  1  0
  2 13  1  0
  3 14  1  0
  5 15  1  0
  6 16  1  0
  6 17  1  0
  7 18  1  0
  7 19  1  0
  8 20  1  0
  8 21  1  0
  9 22  1  0
  9 23  1  0
M  END
