
     RDKit          3D

 18 17  0  0  0  0  0  0  0  0999 V2000
   -1.9275   -0.7403   -0.5858 C   0  0  0  0  0  0  0  0  0  0  0  0
   -0.9463    0.3126   -0.2093 C   0  0  0  0  0  0  0  0  0  0  0  0
   -0.9232    0.4009    1.1973 O   0  0  0  0  0  0  0  0  0  0  0  0
    0.4640    0.0072   -0.6637 C   0  0  0  0  0  0  0  0  0  0  0  0
    0.9838   -1.2834   -0.1271 C   0  0  0  0  0  0  0  0  0  0  0  0
    1.3455    1.0371   -0.2535 O   0  0  0  0  0  0  0  0  0  0  0  0
    2.0611    1.8128   -1.1669 C   0  0  0  0  0  0  0  0  0  0  0  0
    1.8776    1.5434   -2.3841 O   0  0  0  0  0  0  0  0  0  0  0  0
   -1.4828   -1.7474   -0.7142 H   0  0  0  0  0  0  0  0  0  0  0  0
   -2.4218   -0.4400   -1.5555 H   0  0  0  0  0  0  0  0  0  0  0  0
   -2.7301   -0.8650    0.1993 H   0  0  0  0  0  0  0  0  0  0  0  0
   -1.2632    1.3168   -0.5590 H   0  0  0  0  0  0  0  0  0  0  0  0
   -1.7316    0.9185    1.4695 H   0  0  0  0  0  0  0  0  0  0  0  0
    0.4531   -0.0597   -1.7833 H   0  0  0  0  0  0  0  0  0  0  0  0
    2.0727   -1.3283   -0.3435 H   0  0  0  0  0  0  0  0  0  0  0  0
    0.5385   -2.1717   -0.6218 H   0  0  0  0  0  0  0  0  0  0  0  0
    0.8940   -1.3159    0.9799 H   0  0  0  0  0  0  0  0  0  0  0  0
    2.7361    2.6024   -0.8336 H   0  0  0  0  0  0  0  0  0  0  0  0
  1  2  1  0
  2  3  1  0
  2  4  1  0
  4  5  1  0
  4  6  1  0
  6  7  1  0
  7  8  2  0
  1  9  1  0
  1 10  1  0
  1 11  1  0
  2 12  1  0
  3 13  1  0
  4 14  1  0
  5 15  1  0
  5 16  1  0
  5 17  1  0
  7 18  1  0
M  END
