
     RDKit          3D

 17 17  0  0  0  0  0  0  0  0999 V2000
    1.7427   -0.1140   -0.9613 C   0  0  0  0  0  0  0  0  0  0  0  0
    0.8693    0.0066    0.2677 C   0  0  0  0  0  0  0  0  0  0  0  0
    1.2288    1.2112    0.8942 O   0  0  0  0  0  0  0  0  0  0  0  0
   -0.5687   -0.0051   -0.1413 C   0  0  0  0  0  0  0  0  0  0  0  0
   -1.2866   -1.3528   -0.0236 C   0  0  0  0  0  0  0  0  0  0  0  0
   -1.3472    1.2271    0.2948 C   0  0  0  0  0  0  0  0  0  0  0  0
   -1.0778    0.9194   -1.0206 O   0  0  0  0  0  0  0  0  0  0  0  0
    1.6153   -1.1364   -1.3460 H   0  0  0  0  0  0  0  0  0  0  0  0
    2.7984    0.1182   -0.6717 H   0  0  0  0  0  0  0  0  0  0  0  0
    1.3481    0.6433   -1.6958 H   0  0  0  0  0  0  0  0  0  0  0  0
    1.0315   -0.7882    1.0030 H   0  0  0  0  0  0  0  0  0  0  0  0
    1.0591    1.2092    1.8540 H   0  0  0  0  0  0  0  0  0  0  0  0
   -1.0465   -2.0187   -0.8651 H   0  0  0  0  0  0  0  0  0  0  0  0
   -0.8821   -1.8269    0.9084 H   0  0  0  0  0  0  0  0  0  0  0  0
   -2.3861   -1.1980    0.0602 H   0  0  0  0  0  0  0  0  0  0  0  0
   -2.3098    1.0074    0.7616 H   0  0  0  0  0  0  0  0  0  0  0  0
   -0.7882    2.0978    0.6816 H   0  0  0  0  0  0  0  0  0  0  0  0
  1  2  1  0
  2  3  1  0
  2  4  1  0
  4  5  1  0
  4  6  1  0
  6  7  1  0
  7  4  1  0
  1  8  1  0
  1  9  1  0
  1 10  1  0
  2 11  1  0
  3 12  1  0
  5 13  1  0
  5 14  1  0
  5 15  1  0
  6 16  1  0
  6 17  1  0
M  END
