
     RDKit          3D

 19 20  0  0  0  0  0  0  0  0999 V2000
    2.2485    0.6548    0.3102 C   0  0  0  0  0  0  0  0  0  0  0  0
    1.3077   -0.4754   -0.0248 C   0  0  0  0  0  0  0  0  0  0  0  0
    1.6493   -1.5831    0.7853 O   0  0  0  0  0  0  0  0  0  0  0  0
   -0.1257   -0.1547    0.2712 C   0  0  0  0  0  0  0  0  0  0  0  0
   -0.7184    1.0147   -0.4453 C   0  0  0  0  0  0  0  0  0  0  0  0
   -2.1436    0.9792    0.0361 C   0  0  0  0  0  0  0  0  0  0  0  0
   -2.4112   -0.3415   -0.1156 C   0  0  0  0  0  0  0  0  0  0  0  0
   -1.1043   -0.8219   -0.6563 C   0  0  0  0  0  0  0  0  0  0  0  0
   -0.8061    0.1940   -1.5689 O   0  0  0  0  0  0  0  0  0  0  0  0
    2.0952    1.4599   -0.4507 H   0  0  0  0  0  0  0  0  0  0  0  0
    3.2799    0.2555    0.2224 H   0  0  0  0  0  0  0  0  0  0  0  0
    2.1077    1.0160    1.3411 H   0  0  0  0  0  0  0  0  0  0  0  0
    1.4469   -0.7729   -1.0660 H   0  0  0  0  0  0  0  0  0  0  0  0
    0.8686   -2.1688    0.9460 H   0  0  0  0  0  0  0  0  0  0  0  0
   -0.3825   -0.2591    1.3469 H   0  0  0  0  0  0  0  0  0  0  0  0
   -0.2216    1.9427   -0.5000 H   0  0  0  0  0  0  0  0  0  0  0  0
   -2.7753    1.7718    0.3984 H   0  0  0  0  0  0  0  0  0  0  0  0
   -3.3273   -0.8789    0.1018 H   0  0  0  0  0  0  0  0  0  0  0  0
   -0.9878   -1.8322   -0.9318 H   0  0  0  0  0  0  0  0  0  0  0  0
  1  2  1  0
  2  3  1  0
  2  4  1  0
  4  5  1  0
  5  6  1  0
  6  7  2  0
  7  8  1  0
  8  9  1  0
  8  4  1  0
  9  5  1  0
  1 10  1  0
  1 11  1  0
  1 12  1  0
  2 13  1  0
  3 14  1  0
  4 15  1  0
  5 16  1  0
  6 17  1  0
  7 18  1  0
  8 19  1  0
M  END
