
     RDKit          3D

 23 23  0  0  0  0  0  0  0  0999 V2000
   -2.0524   -1.0372   -0.7235 C   0  0  0  0  0  0  0  0  0  0  0  0
   -0.6996   -1.1395   -0.1029 C   0  0  0  0  0  0  0  0  0  0  0  0
   -0.8145   -2.0444    0.9700 O   0  0  0  0  0  0  0  0  0  0  0  0
   -0.1547    0.1489    0.4065 C   0  0  0  0  0  0  0  0  0  0  0  0
    1.1810    0.1422    1.0375 C   0  0  0  0  0  0  0  0  0  0  0  0
    2.2022   -0.8189    0.5680 C   0  0  0  0  0  0  0  0  0  0  0  0
    1.4276    1.4129    0.4722 O   0  0  0  0  0  0  0  0  0  0  0  0
    0.4927    1.0855   -0.5402 C   0  0  0  0  0  0  0  0  0  0  0  0
   -0.2846    2.3535   -0.8318 C   0  0  0  0  0  0  0  0  0  0  0  0
   -2.0533   -0.7913   -1.7927 H   0  0  0  0  0  0  0  0  0  0  0  0
   -2.7054   -0.3149   -0.1591 H   0  0  0  0  0  0  0  0  0  0  0  0
   -2.5748   -2.0205   -0.6209 H   0  0  0  0  0  0  0  0  0  0  0  0
   -0.0191   -1.6600   -0.8108 H   0  0  0  0  0  0  0  0  0  0  0  0
   -1.4661   -1.6389    1.5963 H   0  0  0  0  0  0  0  0  0  0  0  0
   -0.9150    0.6752    1.0202 H   0  0  0  0  0  0  0  0  0  0  0  0
    1.1076    0.1785    2.1570 H   0  0  0  0  0  0  0  0  0  0  0  0
    2.8116   -1.1965    1.4317 H   0  0  0  0  0  0  0  0  0  0  0  0
    2.9705   -0.3547   -0.1197 H   0  0  0  0  0  0  0  0  0  0  0  0
    1.8323   -1.7042    0.0449 H   0  0  0  0  0  0  0  0  0  0  0  0
    1.0473    0.6655   -1.3893 H   0  0  0  0  0  0  0  0  0  0  0  0
   -0.6361    2.7459    0.1499 H   0  0  0  0  0  0  0  0  0  0  0  0
   -1.1145    2.1812   -1.5417 H   0  0  0  0  0  0  0  0  0  0  0  0
    0.4174    3.1317   -1.2217 H   0  0  0  0  0  0  0  0  0  0  0  0
  1  2  1  0
  2  3  1  0
  2  4  1  0
  4  5  1  0
  5  6  1  0
  5  7  1  0
  7  8  1  0
  8  9  1  0
  8  4  1  0
  1 10  1  0
  1 11  1  0
  1 12  1  0
  2 13  1  0
  3 14  1  0
  4 15  1  0
  5 16  1  0
  6 17  1  0
  6 18  1  0
  6 19  1  0
  8 20  1  0
  9 21  1  0
  9 22  1  0
  9 23  1  0
M  END
