
     RDKit          3D

 19 19  0  0  0  0  0  0  0  0999 V2000
    1.8305   -0.8114    0.4220 C   0  0  0  0  0  0  0  0  0  0  0  0
    1.0306    0.4642    0.4842 C   0  0  0  0  0  0  0  0  0  0  0  0
    1.4877    1.3603   -0.4805 O   0  0  0  0  0  0  0  0  0  0  0  0
   -0.4473    0.2250    0.1928 C   0  0  0  0  0  0  0  0  0  0  0  0
   -1.1346    1.5597    0.0208 C   0  0  0  0  0  0  0  0  0  0  0  0
   -1.0650   -0.6514    1.0671 O   0  0  0  0  0  0  0  0  0  0  0  0
   -1.6729   -1.3204    0.0150 C   0  0  0  0  0  0  0  0  0  0  0  0
   -0.7146   -0.7065   -0.9155 C   0  0  0  0  0  0  0  0  0  0  0  0
   -0.2697   -0.8093   -2.0453 O   0  0  0  0  0  0  0  0  0  0  0  0
    2.7756   -0.6365    0.9968 H   0  0  0  0  0  0  0  0  0  0  0  0
    2.1461   -1.0362   -0.6215 H   0  0  0  0  0  0  0  0  0  0  0  0
    1.2827   -1.6915    0.8050 H   0  0  0  0  0  0  0  0  0  0  0  0
    1.1223    0.9228    1.4973 H   0  0  0  0  0  0  0  0  0  0  0  0
    1.7510    0.8629   -1.2810 H   0  0  0  0  0  0  0  0  0  0  0  0
   -0.6163    2.0837   -0.8024 H   0  0  0  0  0  0  0  0  0  0  0  0
   -2.1968    1.4696   -0.2444 H   0  0  0  0  0  0  0  0  0  0  0  0
   -0.9990    2.1310    0.9790 H   0  0  0  0  0  0  0  0  0  0  0  0
   -2.7368   -0.9929   -0.1148 H   0  0  0  0  0  0  0  0  0  0  0  0
   -1.5735   -2.4231    0.0254 H   0  0  0  0  0  0  0  0  0  0  0  0
  1  2  1  0
  2  3  1  0
  2  4  1  0
  4  5  1  0
  4  6  1  0
  6  7  1  0
  7  8  1  0
  8  9  2  0
  8  4  1  0
  1 10  1  0
  1 11  1  0
  1 12  1  0
  2 13  1  0
  3 14  1  0
  5 15  1  0
  5 16  1  0
  5 17  1  0
  7 18  1  0
  7 19  1  0
M  END
