
     RDKit          3D

 21 21  0  0  0  0  0  0  0  0999 V2000
    2.1851    0.4009    0.5442 C   0  0  0  0  0  0  0  0  0  0  0  0
    1.6482   -0.5565   -0.4855 C   0  0  0  0  0  0  0  0  0  0  0  0
    2.2501   -0.2511   -1.7073 O   0  0  0  0  0  0  0  0  0  0  0  0
    0.1601   -0.5068   -0.6165 C   0  0  0  0  0  0  0  0  0  0  0  0
   -0.5740   -0.8547    0.6958 C   0  0  0  0  0  0  0  0  0  0  0  0
   -1.6243   -1.7504    0.5394 O   0  0  0  0  0  0  0  0  0  0  0  0
   -0.6591    0.5075    0.0912 C   0  0  0  0  0  0  0  0  0  0  0  0
   -2.0023    0.8990   -0.4266 C   0  0  0  0  0  0  0  0  0  0  0  0
   -2.5296    1.8715    0.4508 O   0  0  0  0  0  0  0  0  0  0  0  0
    1.9368    1.4591    0.2765 H   0  0  0  0  0  0  0  0  0  0  0  0
    3.2913    0.2807    0.5657 H   0  0  0  0  0  0  0  0  0  0  0  0
    1.8213    0.1464    1.5624 H   0  0  0  0  0  0  0  0  0  0  0  0
    1.9979   -1.5838   -0.1665 H   0  0  0  0  0  0  0  0  0  0  0  0
    2.2068   -1.0105   -2.3386 H   0  0  0  0  0  0  0  0  0  0  0  0
   -0.2796   -0.8969   -1.5529 H   0  0  0  0  0  0  0  0  0  0  0  0
    0.0111   -0.9223    1.6155 H   0  0  0  0  0  0  0  0  0  0  0  0
   -2.4725   -1.4475    0.8990 H   0  0  0  0  0  0  0  0  0  0  0  0
   -0.0866    1.3330    0.5634 H   0  0  0  0  0  0  0  0  0  0  0  0
   -1.9767    1.3867   -1.4223 H   0  0  0  0  0  0  0  0  0  0  0  0
   -2.7457    0.0753   -0.4331 H   0  0  0  0  0  0  0  0  0  0  0  0
   -2.5582    1.4205    1.3455 H   0  0  0  0  0  0  0  0  0  0  0  0
  1  2  1  0
  2  3  1  0
  2  4  1  0
  4  5  1  0
  5  6  1  0
  5  7  1  0
  7  8  1  0
  8  9  1  0
  7  4  1  0
  1 10  1  0
  1 11  1  0
  1 12  1  0
  2 13  1  0
  3 14  1  0
  4 15  1  0
  5 16  1  0
  6 17  1  0
  7 18  1  0
  8 19  1  0
  8 20  1  0
  9 21  1  0
M  END
