
     RDKit          3D

 21 21  0  0  0  0  0  0  0  0999 V2000
   -1.3240   -0.5048    1.2409 C   0  0  0  0  0  0  0  0  0  0  0  0
   -0.7107   -0.2801   -0.1473 C   0  0  0  0  0  0  0  0  0  0  0  0
   -0.6205   -1.5445   -0.7348 O   0  0  0  0  0  0  0  0  0  0  0  0
   -1.6097    0.5563   -0.9917 C   0  0  0  0  0  0  0  0  0  0  0  0
   -1.7284    1.8333   -0.4394 O   0  0  0  0  0  0  0  0  0  0  0  0
    0.6422    0.3114    0.0854 C   0  0  0  0  0  0  0  0  0  0  0  0
    1.5547   -0.6169    0.9143 C   0  0  0  0  0  0  0  0  0  0  0  0
    1.8689   -0.1835   -0.5183 C   0  0  0  0  0  0  0  0  0  0  0  0
    2.9517    0.7218   -0.5848 O   0  0  0  0  0  0  0  0  0  0  0  0
   -0.9593   -1.4694    1.6261 H   0  0  0  0  0  0  0  0  0  0  0  0
   -2.4092   -0.3871    1.2379 H   0  0  0  0  0  0  0  0  0  0  0  0
   -0.9266    0.2804    1.9470 H   0  0  0  0  0  0  0  0  0  0  0  0
   -0.1443   -1.5527   -1.5829 H   0  0  0  0  0  0  0  0  0  0  0  0
   -2.6153    0.0580   -0.9966 H   0  0  0  0  0  0  0  0  0  0  0  0
   -1.2605    0.5633   -2.0263 H   0  0  0  0  0  0  0  0  0  0  0  0
   -1.7343    2.4674   -1.1990 H   0  0  0  0  0  0  0  0  0  0  0  0
    0.6122    1.3693    0.4511 H   0  0  0  0  0  0  0  0  0  0  0  0
    2.1177   -0.1569    1.7430 H   0  0  0  0  0  0  0  0  0  0  0  0
    1.2889   -1.6750    0.9872 H   0  0  0  0  0  0  0  0  0  0  0  0
    1.8967   -0.9396   -1.3094 H   0  0  0  0  0  0  0  0  0  0  0  0
    3.1098    1.1494    0.2977 H   0  0  0  0  0  0  0  0  0  0  0  0
  1  2  1  0
  2  3  1  0
  2  4  1  0
  4  5  1  0
  2  6  1  0
  6  7  1  0
  7  8  1  0
  8  9  1  0
  8  6  1  0
  1 10  1  0
  1 11  1  0
  1 12  1  0
  3 13  1  0
  4 14  1  0
  4 15  1  0
  5 16  1  0
  6 17  1  0
  7 18  1  0
  7 19  1  0
  8 20  1  0
  9 21  1  0
M  END
