
     RDKit          3D

 19 19  0  0  0  0  0  0  0  0999 V2000
    2.1792    0.3460    0.5357 C   0  0  0  0  0  0  0  0  0  0  0  0
    1.1083   -0.2334   -0.3256 C   0  0  0  0  0  0  0  0  0  0  0  0
    0.8134    0.5810   -1.4263 O   0  0  0  0  0  0  0  0  0  0  0  0
   -0.1566   -0.5844    0.3925 C   0  0  0  0  0  0  0  0  0  0  0  0
   -0.8335    0.5577    1.0683 C   0  0  0  0  0  0  0  0  0  0  0  0
   -1.4831    1.1991    0.0127 O   0  0  0  0  0  0  0  0  0  0  0  0
   -2.2180    0.1199   -0.5319 C   0  0  0  0  0  0  0  0  0  0  0  0
   -1.1707   -0.9522   -0.6638 C   0  0  0  0  0  0  0  0  0  0  0  0
   -1.1334   -1.8928   -1.4285 O   0  0  0  0  0  0  0  0  0  0  0  0
    1.8244    0.8142    1.4634 H   0  0  0  0  0  0  0  0  0  0  0  0
    2.9981   -0.3813    0.7536 H   0  0  0  0  0  0  0  0  0  0  0  0
    2.6788    1.1628   -0.0571 H   0  0  0  0  0  0  0  0  0  0  0  0
    1.5015   -1.1884   -0.7583 H   0  0  0  0  0  0  0  0  0  0  0  0
    1.3130    0.3037   -2.2379 H   0  0  0  0  0  0  0  0  0  0  0  0
   -0.0112   -1.4280    1.0909 H   0  0  0  0  0  0  0  0  0  0  0  0
   -0.1693    1.2260    1.6297 H   0  0  0  0  0  0  0  0  0  0  0  0
   -1.6273    0.1449    1.7252 H   0  0  0  0  0  0  0  0  0  0  0  0
   -2.9403   -0.1774    0.2458 H   0  0  0  0  0  0  0  0  0  0  0  0
   -2.6731    0.3825   -1.4883 H   0  0  0  0  0  0  0  0  0  0  0  0
  1  2  1  0
  2  3  1  0
  2  4  1  0
  4  5  1  0
  5  6  1  0
  6  7  1  0
  7  8  1  0
  8  9  2  0
  8  4  1  0
  1 10  1  0
  1 11  1  0
  1 12  1  0
  2 13  1  0
  3 14  1  0
  4 15  1  0
  5 16  1  0
  5 17  1  0
  7 18  1  0
  7 19  1  0
M  END
