
     RDKit          3D

 19 18  0  0  0  0  0  0  0  0999 V2000
   -1.8997    0.5702   -0.5580 C   0  0  0  0  0  0  0  0  0  0  0  0
   -1.2707   -0.1929    0.6017 C   0  0  0  0  0  0  0  0  0  0  0  0
   -0.8587    0.7495    1.5248 O   0  0  0  0  0  0  0  0  0  0  0  0
   -0.2256   -1.1526    0.1529 C   0  0  0  0  0  0  0  0  0  0  0  0
    0.9325   -0.5921   -0.5749 C   0  0  0  0  0  0  0  0  0  0  0  0
    1.7563    0.4165    0.1694 C   0  0  0  0  0  0  0  0  0  0  0  0
    2.8210    0.8623   -0.6169 O   0  0  0  0  0  0  0  0  0  0  0  0
   -1.1676    1.2440   -1.0402 H   0  0  0  0  0  0  0  0  0  0  0  0
   -2.3688   -0.1068   -1.2845 H   0  0  0  0  0  0  0  0  0  0  0  0
   -2.6657    1.2453   -0.0778 H   0  0  0  0  0  0  0  0  0  0  0  0
   -2.1192   -0.7712    1.0536 H   0  0  0  0  0  0  0  0  0  0  0  0
   -1.5402    1.4779    1.5291 H   0  0  0  0  0  0  0  0  0  0  0  0
    0.1506   -1.7047    1.0458 H   0  0  0  0  0  0  0  0  0  0  0  0
   -0.6967   -1.9282   -0.4855 H   0  0  0  0  0  0  0  0  0  0  0  0
    1.6262   -1.4550   -0.7973 H   0  0  0  0  0  0  0  0  0  0  0  0
    0.6907   -0.1704   -1.5701 H   0  0  0  0  0  0  0  0  0  0  0  0
    1.1187    1.2953    0.4815 H   0  0  0  0  0  0  0  0  0  0  0  0
    2.1899    0.0138    1.1077 H   0  0  0  0  0  0  0  0  0  0  0  0
    3.5268    0.1991   -0.6613 H   0  0  0  0  0  0  0  0  0  0  0  0
  1  2  1  0
  2  3  1  0
  2  4  1  0
  4  5  1  0
  5  6  1  0
  6  7  1  0
  1  8  1  0
  1  9  1  0
  1 10  1  0
  2 11  1  0
  3 12  1  0
  4 13  1  0
  4 14  1  0
  5 15  1  0
  5 16  1  0
  6 17  1  0
  6 18  1  0
  7 19  1  0
M  END
