
     RDKit          3D

 19 18  0  0  0  0  0  0  0  0999 V2000
    2.9673    1.2947    0.9321 C   0  0  0  0  0  0  0  0  0  0  0  0
    2.4676   -0.0736    0.5772 C   0  0  0  0  0  0  0  0  0  0  0  0
    3.2552   -0.5512   -0.5169 O   0  0  0  0  0  0  0  0  0  0  0  0
    1.0874   -0.0814    0.2144 C   0  0  0  0  0  0  0  0  0  0  0  0
   -0.0775   -0.0928   -0.1115 C   0  0  0  0  0  0  0  0  0  0  0  0
   -1.4661   -0.0926   -0.5220 C   0  0  0  0  0  0  0  0  0  0  0  0
   -2.4332   -0.5523    0.5536 C   0  0  0  0  0  0  0  0  0  0  0  0
   -3.8171   -0.5230   -0.0293 C   0  0  0  0  0  0  0  0  0  0  0  0
   -4.0136   -0.0915   -1.1270 O   0  0  0  0  0  0  0  0  0  0  0  0
    2.1456    2.0215    1.0881 H   0  0  0  0  0  0  0  0  0  0  0  0
    3.5260    1.1972    1.9227 H   0  0  0  0  0  0  0  0  0  0  0  0
    3.7451    1.6832    0.2151 H   0  0  0  0  0  0  0  0  0  0  0  0
    2.7068   -0.8549    1.3639 H   0  0  0  0  0  0  0  0  0  0  0  0
    2.6263   -1.0987   -1.0671 H   0  0  0  0  0  0  0  0  0  0  0  0
   -1.6338   -0.8043   -1.4041 H   0  0  0  0  0  0  0  0  0  0  0  0
   -1.7503    0.9173   -0.9280 H   0  0  0  0  0  0  0  0  0  0  0  0
   -2.4606    0.1760    1.3987 H   0  0  0  0  0  0  0  0  0  0  0  0
   -2.2204   -1.5592    0.8801 H   0  0  0  0  0  0  0  0  0  0  0  0
   -4.6548   -0.9145    0.5958 H   0  0  0  0  0  0  0  0  0  0  0  0
  1  2  1  0
  2  3  1  0
  2  4  1  0
  4  5  3  0
  5  6  1  0
  6  7  1  0
  7  8  1  0
  8  9  2  0
  1 10  1  0
  1 11  1  0
  1 12  1  0
  2 13  1  0
  3 14  1  0
  6 15  1  0
  6 16  1  0
  7 17  1  0
  7 18  1  0
  8 19  1  0
M  END
