
     RDKit          3D

 19 20  0  0  0  0  0  0  0  0999 V2000
   -2.0642    0.3537   -0.4500 C   0  0  0  0  0  0  0  0  0  0  0  0
   -1.2571   -0.6426    0.3202 C   0  0  0  0  0  0  0  0  0  0  0  0
   -1.8126   -0.7540    1.5899 O   0  0  0  0  0  0  0  0  0  0  0  0
    0.1923   -0.3961    0.3633 C   0  0  0  0  0  0  0  0  0  0  0  0
    0.8850   -0.3709   -0.9503 C   0  0  0  0  0  0  0  0  0  0  0  0
    0.3021    0.8727   -1.1638 O   0  0  0  0  0  0  0  0  0  0  0  0
    0.7052    0.9828    0.1522 C   0  0  0  0  0  0  0  0  0  0  0  0
    2.0047    0.3644   -0.2865 C   0  0  0  0  0  0  0  0  0  0  0  0
    2.7002   -0.3318    0.6790 O   0  0  0  0  0  0  0  0  0  0  0  0
   -1.9263    0.2858   -1.5533 H   0  0  0  0  0  0  0  0  0  0  0  0
   -1.9682    1.3809   -0.0603 H   0  0  0  0  0  0  0  0  0  0  0  0
   -3.1495    0.0792   -0.2885 H   0  0  0  0  0  0  0  0  0  0  0  0
   -1.4295   -1.6448   -0.1726 H   0  0  0  0  0  0  0  0  0  0  0  0
   -1.4832   -0.0681    2.2157 H   0  0  0  0  0  0  0  0  0  0  0  0
    0.6881   -0.8892    1.2050 H   0  0  0  0  0  0  0  0  0  0  0  0
    0.9641   -1.1154   -1.6268 H   0  0  0  0  0  0  0  0  0  0  0  0
    0.6038    1.7842    0.7574 H   0  0  0  0  0  0  0  0  0  0  0  0
    2.6454    0.9825   -0.9352 H   0  0  0  0  0  0  0  0  0  0  0  0
    3.3995   -0.8734    0.2044 H   0  0  0  0  0  0  0  0  0  0  0  0
  1  2  1  0
  2  3  1  0
  2  4  1  0
  4  5  1  0
  5  6  1  0
  6  7  1  0
  7  8  1  0
  8  9  1  0
  7  4  1  0
  8  5  1  0
  1 10  1  0
  1 11  1  0
  1 12  1  0
  2 13  1  0
  3 14  1  0
  4 15  1  0
  5 16  1  0
  7 17  1  0
  8 18  1  0
  9 19  1  0
M  END
