
     RDKit          3D

 23 22  0  0  0  0  0  0  0  0999 V2000
    3.0888   -0.7592   -0.8643 C   0  0  0  0  0  0  0  0  0  0  0  0
    2.1968    0.1408   -0.0366 C   0  0  0  0  0  0  0  0  0  0  0  0
    2.6560    0.2847    1.2582 O   0  0  0  0  0  0  0  0  0  0  0  0
    0.7855   -0.4524    0.0693 C   0  0  0  0  0  0  0  0  0  0  0  0
   -0.0080    0.5094    0.9018 C   0  0  0  0  0  0  0  0  0  0  0  0
   -1.3194    0.1571    1.1350 O   0  0  0  0  0  0  0  0  0  0  0  0
   -2.0058    0.0434   -0.0425 C   0  0  0  0  0  0  0  0  0  0  0  0
   -3.4645   -0.3210    0.1607 C   0  0  0  0  0  0  0  0  0  0  0  0
   -4.0807    0.6712    0.9252 O   0  0  0  0  0  0  0  0  0  0  0  0
    2.6245   -0.9098   -1.8463 H   0  0  0  0  0  0  0  0  0  0  0  0
    3.2273   -1.7548   -0.4088 H   0  0  0  0  0  0  0  0  0  0  0  0
    4.0417   -0.2162   -1.0071 H   0  0  0  0  0  0  0  0  0  0  0  0
    2.0840    1.0935   -0.5611 H   0  0  0  0  0  0  0  0  0  0  0  0
    3.2671    1.0732    1.3637 H   0  0  0  0  0  0  0  0  0  0  0  0
    0.3998   -0.4433   -0.9762 H   0  0  0  0  0  0  0  0  0  0  0  0
    0.8998   -1.4481    0.4976 H   0  0  0  0  0  0  0  0  0  0  0  0
    0.0676    1.5043    0.3692 H   0  0  0  0  0  0  0  0  0  0  0  0
    0.5218    0.7125    1.8797 H   0  0  0  0  0  0  0  0  0  0  0  0
   -1.9480    0.9697   -0.6344 H   0  0  0  0  0  0  0  0  0  0  0  0
   -1.5393   -0.7715   -0.6473 H   0  0  0  0  0  0  0  0  0  0  0  0
   -3.6096   -1.3302    0.5459 H   0  0  0  0  0  0  0  0  0  0  0  0
   -3.9371   -0.2825   -0.8490 H   0  0  0  0  0  0  0  0  0  0  0  0
   -3.9485    1.5292    0.4401 H   0  0  0  0  0  0  0  0  0  0  0  0
  1  2  1  0
  2  3  1  0
  2  4  1  0
  4  5  1  0
  5  6  1  0
  6  7  1  0
  7  8  1  0
  8  9  1  0
  1 10  1  0
  1 11  1  0
  1 12  1  0
  2 13  1  0
  3 14  1  0
  4 15  1  0
  4 16  1  0
  5 17  1  0
  5 18  1  0
  7 19  1  0
  7 20  1  0
  8 21  1  0
  8 22  1  0
  9 23  1  0
M  END
