
     RDKit          3D

 21 21  0  0  0  0  0  0  0  0999 V2000
    1.1103   -1.0267   -1.0978 C   0  0  0  0  0  0  0  0  0  0  0  0
    0.3595    0.1259   -0.4666 C   0  0  0  0  0  0  0  0  0  0  0  0
    0.6738    1.2657   -1.1973 O   0  0  0  0  0  0  0  0  0  0  0  0
    0.7950    0.2459    0.9597 C   0  0  0  0  0  0  0  0  0  0  0  0
    2.2358    0.5013    1.1151 C   0  0  0  0  0  0  0  0  0  0  0  0
    2.9289    0.5916    0.1391 O   0  0  0  0  0  0  0  0  0  0  0  0
   -1.1073   -0.1835   -0.4962 C   0  0  0  0  0  0  0  0  0  0  0  0
   -2.0968    0.7927    0.0681 C   0  0  0  0  0  0  0  0  0  0  0  0
   -1.8606   -0.5747    0.7029 C   0  0  0  0  0  0  0  0  0  0  0  0
    0.4130   -1.4786   -1.8628 H   0  0  0  0  0  0  0  0  0  0  0  0
    1.2691   -1.8481   -0.3560 H   0  0  0  0  0  0  0  0  0  0  0  0
    2.0486   -0.7227   -1.5819 H   0  0  0  0  0  0  0  0  0  0  0  0
    0.1276    1.2283   -2.0292 H   0  0  0  0  0  0  0  0  0  0  0  0
    0.5672   -0.7120    1.4799 H   0  0  0  0  0  0  0  0  0  0  0  0
    0.2615    1.1042    1.4638 H   0  0  0  0  0  0  0  0  0  0  0  0
    2.6567    0.6046    2.0884 H   0  0  0  0  0  0  0  0  0  0  0  0
   -1.4664   -0.6602   -1.4559 H   0  0  0  0  0  0  0  0  0  0  0  0
   -1.6869    1.6817    0.5626 H   0  0  0  0  0  0  0  0  0  0  0  0
   -3.1007    0.9079   -0.3827 H   0  0  0  0  0  0  0  0  0  0  0  0
   -2.6757   -1.3362    0.6237 H   0  0  0  0  0  0  0  0  0  0  0  0
   -1.4524   -0.5072    1.7233 H   0  0  0  0  0  0  0  0  0  0  0  0
  1  2  1  0
  2  3  1  0
  2  4  1  0
  4  5  1  0
  5  6  2  0
  2  7  1  0
  7  8  1  0
  8  9  1  0
  9  7  1  0
  1 10  1  0
  1 11  1  0
  1 12  1  0
  3 13  1  0
  4 14  1  0
  4 15  1  0
  5 16  1  0
  7 17  1  0
  8 18  1  0
  8 19  1  0
  9 20  1  0
  9 21  1  0
M  END
