
     RDKit          3D

 23 23  0  0  0  0  0  0  0  0999 V2000
    2.3119   -1.0121   -0.1630 C   0  0  0  0  0  0  0  0  0  0  0  0
    1.8412    0.3759   -0.3148 C   0  0  0  0  0  0  0  0  0  0  0  0
    2.4455    1.1887    0.6888 O   0  0  0  0  0  0  0  0  0  0  0  0
    0.4202    0.6857   -0.4434 C   0  0  0  0  0  0  0  0  0  0  0  0
   -0.5436    0.3455    0.6091 C   0  0  0  0  0  0  0  0  0  0  0  0
   -1.9548    0.8240    0.1986 C   0  0  0  0  0  0  0  0  0  0  0  0
   -2.5136   -0.3798   -0.5102 C   0  0  0  0  0  0  0  0  0  0  0  0
   -1.7167   -1.4722   -0.2378 O   0  0  0  0  0  0  0  0  0  0  0  0
   -0.8213   -1.1100    0.7549 C   0  0  0  0  0  0  0  0  0  0  0  0
    3.4106   -1.0022   -0.4907 H   0  0  0  0  0  0  0  0  0  0  0  0
    1.8534   -1.6994   -0.8841 H   0  0  0  0  0  0  0  0  0  0  0  0
    2.4011   -1.3973    0.8752 H   0  0  0  0  0  0  0  0  0  0  0  0
    2.3438    0.7782   -1.2582 H   0  0  0  0  0  0  0  0  0  0  0  0
    2.2636    2.1239    0.3860 H   0  0  0  0  0  0  0  0  0  0  0  0
    0.3428    1.8127   -0.5963 H   0  0  0  0  0  0  0  0  0  0  0  0
    0.0056    0.3091   -1.4353 H   0  0  0  0  0  0  0  0  0  0  0  0
   -0.3706    0.7761    1.5949 H   0  0  0  0  0  0  0  0  0  0  0  0
   -1.8550    1.6430   -0.5359 H   0  0  0  0  0  0  0  0  0  0  0  0
   -2.5544    1.0965    1.0715 H   0  0  0  0  0  0  0  0  0  0  0  0
   -3.5485   -0.5952   -0.1255 H   0  0  0  0  0  0  0  0  0  0  0  0
   -2.6127   -0.2325   -1.6068 H   0  0  0  0  0  0  0  0  0  0  0  0
   -1.2502   -1.3711    1.7526 H   0  0  0  0  0  0  0  0  0  0  0  0
    0.1018   -1.6872    0.6703 H   0  0  0  0  0  0  0  0  0  0  0  0
  1  2  1  0
  2  3  1  0
  2  4  1  0
  4  5  1  0
  5  6  1  0
  6  7  1  0
  7  8  1  0
  8  9  1  0
  9  5  1  0
  1 10  1  0
  1 11  1  0
  1 12  1  0
  2 13  1  0
  3 14  1  0
  4 15  1  0
  4 16  1  0
  5 17  1  0
  6 18  1  0
  6 19  1  0
  7 20  1  0
  7 21  1  0
  9 22  1  0
  9 23  1  0
M  END
