
     RDKit          3D

 18 17  0  0  0  0  0  0  0  0999 V2000
   -1.9372    1.0962    0.4358 C   0  0  0  0  0  0  0  0  0  0  0  0
   -0.8384    0.3233   -0.2718 C   0  0  0  0  0  0  0  0  0  0  0  0
   -1.4239   -0.8376   -0.7733 O   0  0  0  0  0  0  0  0  0  0  0  0
    0.2307    0.0362    0.7502 C   0  0  0  0  0  0  0  0  0  0  0  0
    1.3890   -0.7337    0.1695 C   0  0  0  0  0  0  0  0  0  0  0  0
    1.0235   -1.9528   -0.3470 O   0  0  0  0  0  0  0  0  0  0  0  0
    2.0982    0.0809   -0.8550 C   0  0  0  0  0  0  0  0  0  0  0  0
    2.5138    1.2012   -0.6151 O   0  0  0  0  0  0  0  0  0  0  0  0
   -2.8867    1.0982   -0.1356 H   0  0  0  0  0  0  0  0  0  0  0  0
   -1.6225    2.1571    0.5266 H   0  0  0  0  0  0  0  0  0  0  0  0
   -2.0227    0.6874    1.4486 H   0  0  0  0  0  0  0  0  0  0  0  0
   -0.4500    0.8882   -1.1483 H   0  0  0  0  0  0  0  0  0  0  0  0
   -2.3412   -0.5734   -1.0728 H   0  0  0  0  0  0  0  0  0  0  0  0
    0.6046    0.9998    1.1235 H   0  0  0  0  0  0  0  0  0  0  0  0
   -0.2265   -0.5287    1.5673 H   0  0  0  0  0  0  0  0  0  0  0  0
    2.1014   -0.9169    1.0110 H   0  0  0  0  0  0  0  0  0  0  0  0
    1.5242   -2.7157    0.0392 H   0  0  0  0  0  0  0  0  0  0  0  0
    2.2637   -0.3097   -1.8529 H   0  0  0  0  0  0  0  0  0  0  0  0
  1  2  1  0
  2  3  1  0
  2  4  1  0
  4  5  1  0
  5  6  1  0
  5  7  1  0
  7  8  2  0
  1  9  1  0
  1 10  1  0
  1 11  1  0
  2 12  1  0
  3 13  1  0
  4 14  1  0
  4 15  1  0
  5 16  1  0
  6 17  1  0
  7 18  1  0
M  END
