
     RDKit          3D

 17 17  0  0  0  0  0  0  0  0999 V2000
   -1.6290    1.0914   -0.5087 C   0  0  0  0  0  0  0  0  0  0  0  0
   -1.2766   -0.1584    0.2586 C   0  0  0  0  0  0  0  0  0  0  0  0
   -1.6201   -1.3137   -0.4131 O   0  0  0  0  0  0  0  0  0  0  0  0
    0.1604   -0.1685    0.7045 C   0  0  0  0  0  0  0  0  0  0  0  0
    1.1369   -0.0950   -0.4289 C   0  0  0  0  0  0  0  0  0  0  0  0
    2.5819   -0.1024   -0.0273 C   0  0  0  0  0  0  0  0  0  0  0  0
    2.0384   -1.2829   -0.5232 O   0  0  0  0  0  0  0  0  0  0  0  0
   -2.7053    1.3004   -0.3449 H   0  0  0  0  0  0  0  0  0  0  0  0
   -0.9877    1.9055   -0.1377 H   0  0  0  0  0  0  0  0  0  0  0  0
   -1.4998    0.9055   -1.6009 H   0  0  0  0  0  0  0  0  0  0  0  0
   -1.8937   -0.1320    1.1960 H   0  0  0  0  0  0  0  0  0  0  0  0
   -1.9254   -1.9974    0.2364 H   0  0  0  0  0  0  0  0  0  0  0  0
    0.2967   -1.1003    1.3124 H   0  0  0  0  0  0  0  0  0  0  0  0
    0.3167    0.7173    1.3573 H   0  0  0  0  0  0  0  0  0  0  0  0
    0.8328    0.1943   -1.4303 H   0  0  0  0  0  0  0  0  0  0  0  0
    3.3460    0.3464   -0.6876 H   0  0  0  0  0  0  0  0  0  0  0  0
    2.8276   -0.1103    1.0374 H   0  0  0  0  0  0  0  0  0  0  0  0
  1  2  1  0
  2  3  1  0
  2  4  1  0
  4  5  1  0
  5  6  1  0
  6  7  1  0
  7  5  1  0
  1  8  1  0
  1  9  1  0
  1 10  1  0
  2 11  1  0
  3 12  1  0
  4 13  1  0
  4 14  1  0
  5 15  1  0
  6 16  1  0
  6 17  1  0
M  END
