
     RDKit          3D

 21 21  0  0  0  0  0  0  0  0999 V2000
    1.4882   -0.6516    1.1401 C   0  0  0  0  0  0  0  0  0  0  0  0
    0.9094   -0.1043   -0.1730 C   0  0  0  0  0  0  0  0  0  0  0  0
    1.2290   -0.9585   -1.2178 O   0  0  0  0  0  0  0  0  0  0  0  0
    1.4806    1.2231   -0.4755 C   0  0  0  0  0  0  0  0  0  0  0  0
    2.0988    1.3906   -1.4989 O   0  0  0  0  0  0  0  0  0  0  0  0
   -0.5895    0.0711   -0.0534 C   0  0  0  0  0  0  0  0  0  0  0  0
   -1.1059    1.0099    1.0135 C   0  0  0  0  0  0  0  0  0  0  0  0
   -1.3146    0.0324   -1.3907 C   0  0  0  0  0  0  0  0  0  0  0  0
   -1.4862   -1.0521   -0.3977 C   0  0  0  0  0  0  0  0  0  0  0  0
    2.2431    0.0846    1.5360 H   0  0  0  0  0  0  0  0  0  0  0  0
    0.6685   -0.8249    1.8689 H   0  0  0  0  0  0  0  0  0  0  0  0
    2.0583   -1.5835    0.9440 H   0  0  0  0  0  0  0  0  0  0  0  0
    1.0101   -1.8984   -1.0354 H   0  0  0  0  0  0  0  0  0  0  0  0
    1.3632    2.0595    0.1949 H   0  0  0  0  0  0  0  0  0  0  0  0
   -1.4384    0.4259    1.9096 H   0  0  0  0  0  0  0  0  0  0  0  0
   -0.3542    1.7524    1.3301 H   0  0  0  0  0  0  0  0  0  0  0  0
   -1.9758    1.5948    0.6334 H   0  0  0  0  0  0  0  0  0  0  0  0
   -2.0710    0.8217   -1.5071 H   0  0  0  0  0  0  0  0  0  0  0  0
   -0.7516   -0.2225   -2.2998 H   0  0  0  0  0  0  0  0  0  0  0  0
   -0.9829   -2.0228   -0.5813 H   0  0  0  0  0  0  0  0  0  0  0  0
   -2.4789   -1.1473    0.0600 H   0  0  0  0  0  0  0  0  0  0  0  0
  1  2  1  0
  2  3  1  0
  2  4  1  0
  4  5  2  0
  2  6  1  0
  6  7  1  0
  6  8  1  0
  8  9  1  0
  9  6  1  0
  1 10  1  0
  1 11  1  0
  1 12  1  0
  3 13  1  0
  4 14  1  0
  7 15  1  0
  7 16  1  0
  7 17  1  0
  8 18  1  0
  8 19  1  0
  9 20  1  0
  9 21  1  0
M  END
