
     RDKit          3D

 23 22  0  0  0  0  0  0  0  0999 V2000
   -1.7630   -1.0529   -0.1117 C   0  0  0  0  0  0  0  0  0  0  0  0
   -0.9627   -0.1514    0.7624 C   0  0  0  0  0  0  0  0  0  0  0  0
   -1.8401    0.8045    1.2877 O   0  0  0  0  0  0  0  0  0  0  0  0
    0.1520    0.5827    0.1125 C   0  0  0  0  0  0  0  0  0  0  0  0
   -0.3589    1.5555   -0.9290 C   0  0  0  0  0  0  0  0  0  0  0  0
    0.7678    1.3610    1.1073 O   0  0  0  0  0  0  0  0  0  0  0  0
    1.2309   -0.2558   -0.4824 C   0  0  0  0  0  0  0  0  0  0  0  0
    1.9516   -0.9714    0.6450 C   0  0  0  0  0  0  0  0  0  0  0  0
    0.8255   -1.0977   -1.4873 O   0  0  0  0  0  0  0  0  0  0  0  0
   -1.1969   -1.8620   -0.5932 H   0  0  0  0  0  0  0  0  0  0  0  0
   -2.5257   -1.5479    0.5296 H   0  0  0  0  0  0  0  0  0  0  0  0
   -2.3586   -0.4427   -0.8470 H   0  0  0  0  0  0  0  0  0  0  0  0
   -0.5943   -0.7370    1.6308 H   0  0  0  0  0  0  0  0  0  0  0  0
   -2.6793    0.8589    0.7677 H   0  0  0  0  0  0  0  0  0  0  0  0
   -1.4563    1.7521   -0.8141 H   0  0  0  0  0  0  0  0  0  0  0  0
   -0.1276    1.2266   -1.9635 H   0  0  0  0  0  0  0  0  0  0  0  0
    0.1190    2.5650   -0.8263 H   0  0  0  0  0  0  0  0  0  0  0  0
    0.9767    2.2636    0.8158 H   0  0  0  0  0  0  0  0  0  0  0  0
    1.9829    0.4435   -0.9118 H   0  0  0  0  0  0  0  0  0  0  0  0
    2.3906   -0.1680    1.2819 H   0  0  0  0  0  0  0  0  0  0  0  0
    2.7858   -1.5665    0.2339 H   0  0  0  0  0  0  0  0  0  0  0  0
    1.2853   -1.6298    1.2231 H   0  0  0  0  0  0  0  0  0  0  0  0
    1.3953   -1.9305   -1.4316 H   0  0  0  0  0  0  0  0  0  0  0  0
  1  2  1  0
  2  3  1  0
  2  4  1  0
  4  5  1  0
  4  6  1  0
  4  7  1  0
  7  8  1  0
  7  9  1  0
  1 10  1  0
  1 11  1  0
  1 12  1  0
  2 13  1  0
  3 14  1  0
  5 15  1  0
  5 16  1  0
  5 17  1  0
  6 18  1  0
  7 19  1  0
  8 20  1  0
  8 21  1  0
  8 22  1  0
  9 23  1  0
M  END
