
     RDKit          3D

 17 16  0  0  0  0  0  0  0  0999 V2000
   -1.7901   -0.1822    0.9646 C   0  0  0  0  0  0  0  0  0  0  0  0
   -0.9716    0.8813    0.3052 C   0  0  0  0  0  0  0  0  0  0  0  0
   -1.4226    1.0276   -0.9979 O   0  0  0  0  0  0  0  0  0  0  0  0
    0.5001    0.6646    0.4073 C   0  0  0  0  0  0  0  0  0  0  0  0
    0.9561   -0.6292   -0.2243 C   0  0  0  0  0  0  0  0  0  0  0  0
    2.4264   -0.7945   -0.0950 C   0  0  0  0  0  0  0  0  0  0  0  0
    3.1372    0.0307    0.4564 O   0  0  0  0  0  0  0  0  0  0  0  0
   -2.8563    0.1909    0.9660 H   0  0  0  0  0  0  0  0  0  0  0  0
   -1.5344   -0.3222    2.0434 H   0  0  0  0  0  0  0  0  0  0  0  0
   -1.7997   -1.1435    0.4335 H   0  0  0  0  0  0  0  0  0  0  0  0
   -1.1997    1.8433    0.8254 H   0  0  0  0  0  0  0  0  0  0  0  0
   -1.2134    0.1799   -1.4688 H   0  0  0  0  0  0  0  0  0  0  0  0
    1.0239    1.4882   -0.1153 H   0  0  0  0  0  0  0  0  0  0  0  0
    0.7786    0.7001    1.4775 H   0  0  0  0  0  0  0  0  0  0  0  0
    0.5000   -1.4894    0.3389 H   0  0  0  0  0  0  0  0  0  0  0  0
    0.6149   -0.7371   -1.2611 H   0  0  0  0  0  0  0  0  0  0  0  0
    2.8507   -1.7086   -0.5256 H   0  0  0  0  0  0  0  0  0  0  0  0
  1  2  1  0
  2  3  1  0
  2  4  1  0
  4  5  1  0
  5  6  1  0
  6  7  2  0
  1  8  1  0
  1  9  1  0
  1 10  1  0
  2 11  1  0
  3 12  1  0
  4 13  1  0
  4 14  1  0
  5 15  1  0
  5 16  1  0
  6 17  1  0
M  END
