
     RDKit          3D

 25 25  0  0  0  0  0  0  0  0999 V2000
   -1.4251    1.2590    0.7975 C   0  0  0  0  0  0  0  0  0  0  0  0
   -1.6394    0.0043    0.0260 C   0  0  0  0  0  0  0  0  0  0  0  0
   -2.6490    0.2769   -0.9271 O   0  0  0  0  0  0  0  0  0  0  0  0
   -0.4767   -0.5297   -0.7216 C   0  0  0  0  0  0  0  0  0  0  0  0
   -0.9701   -1.8082   -1.4214 C   0  0  0  0  0  0  0  0  0  0  0  0
    0.7179   -0.9193    0.0643 C   0  0  0  0  0  0  0  0  0  0  0  0
    1.3701    0.1600    0.8700 C   0  0  0  0  0  0  0  0  0  0  0  0
    1.9222    1.3821    0.2624 C   0  0  0  0  0  0  0  0  0  0  0  0
    2.8950    0.3628    0.6585 C   0  0  0  0  0  0  0  0  0  0  0  0
   -2.4544    1.7049    0.9563 H   0  0  0  0  0  0  0  0  0  0  0  0
   -0.8889    2.0483    0.2328 H   0  0  0  0  0  0  0  0  0  0  0  0
   -1.0483    1.1043    1.8252 H   0  0  0  0  0  0  0  0  0  0  0  0
   -2.1071   -0.7355    0.7187 H   0  0  0  0  0  0  0  0  0  0  0  0
   -3.4251    0.6873   -0.4741 H   0  0  0  0  0  0  0  0  0  0  0  0
   -0.1910    0.1779   -1.5156 H   0  0  0  0  0  0  0  0  0  0  0  0
   -0.1988   -2.5933   -1.4218 H   0  0  0  0  0  0  0  0  0  0  0  0
   -1.3022   -1.5597   -2.4634 H   0  0  0  0  0  0  0  0  0  0  0  0
   -1.8608   -2.2237   -0.9073 H   0  0  0  0  0  0  0  0  0  0  0  0
    0.5286   -1.8014    0.7147 H   0  0  0  0  0  0  0  0  0  0  0  0
    1.4805   -1.2880   -0.6813 H   0  0  0  0  0  0  0  0  0  0  0  0
    1.1405    0.1605    1.9625 H   0  0  0  0  0  0  0  0  0  0  0  0
    1.8079    1.5555   -0.8283 H   0  0  0  0  0  0  0  0  0  0  0  0
    1.8957    2.3476    0.8311 H   0  0  0  0  0  0  0  0  0  0  0  0
    3.3458   -0.3470   -0.0703 H   0  0  0  0  0  0  0  0  0  0  0  0
    3.5329    0.5743    1.5121 H   0  0  0  0  0  0  0  0  0  0  0  0
  1  2  1  0
  2  3  1  0
  2  4  1  0
  4  5  1  0
  4  6  1  0
  6  7  1  0
  7  8  1  0
  8  9  1  0
  9  7  1  0
  1 10  1  0
  1 11  1  0
  1 12  1  0
  2 13  1  0
  3 14  1  0
  4 15  1  0
  5 16  1  0
  5 17  1  0
  5 18  1  0
  6 19  1  0
  6 20  1  0
  7 21  1  0
  8 22  1  0
  8 23  1  0
  9 24  1  0
  9 25  1  0
M  END
