
     RDKit          3D

 19 18  0  0  0  0  0  0  0  0999 V2000
   -2.8200    0.8003    0.5536 C   0  0  0  0  0  0  0  0  0  0  0  0
   -2.1316    0.0643   -0.5383 C   0  0  0  0  0  0  0  0  0  0  0  0
   -2.8318   -1.1077   -0.8078 O   0  0  0  0  0  0  0  0  0  0  0  0
   -0.7499   -0.2024   -0.1391 C   0  0  0  0  0  0  0  0  0  0  0  0
    0.3985   -0.4455    0.1958 C   0  0  0  0  0  0  0  0  0  0  0  0
    1.7826   -0.7174    0.5827 C   0  0  0  0  0  0  0  0  0  0  0  0
    1.9260   -0.7378    1.9844 O   0  0  0  0  0  0  0  0  0  0  0  0
    2.6394    0.3990    0.0821 C   0  0  0  0  0  0  0  0  0  0  0  0
    2.6060    0.5506   -1.2957 O   0  0  0  0  0  0  0  0  0  0  0  0
   -3.6163    1.4500    0.1254 H   0  0  0  0  0  0  0  0  0  0  0  0
   -2.1503    1.4610    1.1329 H   0  0  0  0  0  0  0  0  0  0  0  0
   -3.2974    0.1155    1.2967 H   0  0  0  0  0  0  0  0  0  0  0  0
   -2.1706    0.6723   -1.4710 H   0  0  0  0  0  0  0  0  0  0  0  0
   -2.6201   -1.8396   -0.1742 H   0  0  0  0  0  0  0  0  0  0  0  0
    2.1537   -1.6596    0.1315 H   0  0  0  0  0  0  0  0  0  0  0  0
    1.6245   -1.6563    2.2531 H   0  0  0  0  0  0  0  0  0  0  0  0
    2.4336    1.3240    0.6325 H   0  0  0  0  0  0  0  0  0  0  0  0
    3.7071    0.1276    0.3330 H   0  0  0  0  0  0  0  0  0  0  0  0
    3.1166    1.4016   -1.4850 H   0  0  0  0  0  0  0  0  0  0  0  0
  1  2  1  0
  2  3  1  0
  2  4  1  0
  4  5  3  0
  5  6  1  0
  6  7  1  0
  6  8  1  0
  8  9  1  0
  1 10  1  0
  1 11  1  0
  1 12  1  0
  2 13  1  0
  3 14  1  0
  6 15  1  0
  7 16  1  0
  8 17  1  0
  8 18  1  0
  9 19  1  0
M  END
