
     RDKit          3D

 15 14  0  0  0  0  0  0  0  0999 V2000
   -0.9642    1.1675   -0.1586 C   0  0  0  0  0  0  0  0  0  0  0  0
   -0.9552   -0.1541    0.5636 C   0  0  0  0  0  0  0  0  0  0  0  0
   -2.0362   -0.8862    0.0804 O   0  0  0  0  0  0  0  0  0  0  0  0
    0.2650   -0.9312    0.3879 C   0  0  0  0  0  0  0  0  0  0  0  0
    0.2017   -2.0338   -0.1169 O   0  0  0  0  0  0  0  0  0  0  0  0
    1.6091   -0.4473    0.7969 C   0  0  0  0  0  0  0  0  0  0  0  0
    1.5749    0.8161    1.3602 O   0  0  0  0  0  0  0  0  0  0  0  0
   -0.8136    1.0276   -1.2392 H   0  0  0  0  0  0  0  0  0  0  0  0
   -2.0071    1.5688   -0.0391 H   0  0  0  0  0  0  0  0  0  0  0  0
   -0.2602    1.8990    0.2381 H   0  0  0  0  0  0  0  0  0  0  0  0
   -1.1950    0.0372    1.6474 H   0  0  0  0  0  0  0  0  0  0  0  0
   -1.8113   -1.8532   -0.0508 H   0  0  0  0  0  0  0  0  0  0  0  0
    1.9950   -1.2046    1.5393 H   0  0  0  0  0  0  0  0  0  0  0  0
    2.2999   -0.4564   -0.0518 H   0  0  0  0  0  0  0  0  0  0  0  0
    2.0972    1.4505    0.8042 H   0  0  0  0  0  0  0  0  0  0  0  0
  1  2  1  0
  2  3  1  0
  2  4  1  0
  4  5  2  0
  4  6  1  0
  6  7  1  0
  1  8  1  0
  1  9  1  0
  1 10  1  0
  2 11  1  0
  3 12  1  0
  6 13  1  0
  6 14  1  0
  7 15  1  0
M  END
