
     RDKit          3D

 23 23  0  0  0  0  0  0  0  0999 V2000
   -1.8425    1.1102    0.3996 C   0  0  0  0  0  0  0  0  0  0  0  0
   -1.8964   -0.3677    0.1174 C   0  0  0  0  0  0  0  0  0  0  0  0
   -1.4893   -1.0863    1.2141 O   0  0  0  0  0  0  0  0  0  0  0  0
   -1.2057   -0.7373   -1.1597 C   0  0  0  0  0  0  0  0  0  0  0  0
    0.2390   -0.3907   -1.2095 C   0  0  0  0  0  0  0  0  0  0  0  0
    1.1455   -0.9874   -0.2022 C   0  0  0  0  0  0  0  0  0  0  0  0
    1.8764    0.3298   -0.5014 C   0  0  0  0  0  0  0  0  0  0  0  0
    2.5635    0.9260    0.6951 C   0  0  0  0  0  0  0  0  0  0  0  0
    0.5938    0.8726   -0.7548 O   0  0  0  0  0  0  0  0  0  0  0  0
   -1.7349    1.6502   -0.5749 H   0  0  0  0  0  0  0  0  0  0  0  0
   -1.0105    1.3633    1.0974 H   0  0  0  0  0  0  0  0  0  0  0  0
   -2.8159    1.4776    0.8284 H   0  0  0  0  0  0  0  0  0  0  0  0
   -2.9898   -0.6114   -0.0363 H   0  0  0  0  0  0  0  0  0  0  0  0
   -2.2224   -1.5847    1.6598 H   0  0  0  0  0  0  0  0  0  0  0  0
   -1.3280   -1.8105   -1.3480 H   0  0  0  0  0  0  0  0  0  0  0  0
   -1.7201   -0.2016   -1.9841 H   0  0  0  0  0  0  0  0  0  0  0  0
    0.6365   -0.5299   -2.2364 H   0  0  0  0  0  0  0  0  0  0  0  0
    1.6927   -1.8874   -0.5275 H   0  0  0  0  0  0  0  0  0  0  0  0
    0.8155   -1.0865    0.8261 H   0  0  0  0  0  0  0  0  0  0  0  0
    2.4942    0.2777   -1.4023 H   0  0  0  0  0  0  0  0  0  0  0  0
    2.8404    1.9662    0.4338 H   0  0  0  0  0  0  0  0  0  0  0  0
    1.8792    0.9453    1.5583 H   0  0  0  0  0  0  0  0  0  0  0  0
    3.4788    0.3626    0.8789 H   0  0  0  0  0  0  0  0  0  0  0  0
  1  2  1  0
  2  3  1  0
  2  4  1  0
  4  5  1  0
  5  6  1  0
  6  7  1  0
  7  8  1  0
  7  9  1  0
  9  5  1  0
  1 10  1  0
  1 11  1  0
  1 12  1  0
  2 13  1  0
  3 14  1  0
  4 15  1  0
  4 16  1  0
  5 17  1  0
  6 18  1  0
  6 19  1  0
  7 20  1  0
  8 21  1  0
  8 22  1  0
  8 23  1  0
M  END
