
     RDKit          3D

 19 20  0  0  0  0  0  0  0  0999 V2000
    1.8541    0.6532    0.6450 C   0  0  0  0  0  0  0  0  0  0  0  0
    1.3017   -0.1645   -0.4933 C   0  0  0  0  0  0  0  0  0  0  0  0
    1.4438   -1.5299   -0.2865 O   0  0  0  0  0  0  0  0  0  0  0  0
   -0.1346    0.1180   -0.7898 C   0  0  0  0  0  0  0  0  0  0  0  0
   -1.0543   -1.0712   -1.0475 C   0  0  0  0  0  0  0  0  0  0  0  0
   -1.2310   -0.1862    0.1266 C   0  0  0  0  0  0  0  0  0  0  0  0
   -1.0823   -0.7514    1.3614 O   0  0  0  0  0  0  0  0  0  0  0  0
   -1.5420    1.2647   -0.0437 C   0  0  0  0  0  0  0  0  0  0  0  0
   -0.5875    1.3864   -1.0398 O   0  0  0  0  0  0  0  0  0  0  0  0
    2.2534   -0.0043    1.4450 H   0  0  0  0  0  0  0  0  0  0  0  0
    1.0980    1.3658    1.0348 H   0  0  0  0  0  0  0  0  0  0  0  0
    2.7242    1.2838    0.3199 H   0  0  0  0  0  0  0  0  0  0  0  0
    1.8889    0.0775   -1.4042 H   0  0  0  0  0  0  0  0  0  0  0  0
    1.3535   -1.8127    0.6333 H   0  0  0  0  0  0  0  0  0  0  0  0
   -1.8017   -1.0085   -1.8384 H   0  0  0  0  0  0  0  0  0  0  0  0
   -0.5726   -2.0490   -0.9003 H   0  0  0  0  0  0  0  0  0  0  0  0
   -1.9960   -0.8082    1.7754 H   0  0  0  0  0  0  0  0  0  0  0  0
   -2.5813    1.4141   -0.3821 H   0  0  0  0  0  0  0  0  0  0  0  0
   -1.3344    1.8224    0.8842 H   0  0  0  0  0  0  0  0  0  0  0  0
  1  2  1  0
  2  3  1  0
  2  4  1  0
  4  5  1  0
  5  6  1  0
  6  7  1  0
  6  8  1  0
  8  9  1  0
  6  4  1  0
  9  4  1  0
  1 10  1  0
  1 11  1  0
  1 12  1  0
  2 13  1  0
  3 14  1  0
  5 15  1  0
  5 16  1  0
  7 17  1  0
  8 18  1  0
  8 19  1  0
M  END
