
     RDKit          3D

 20 20  0  0  0  0  0  0  0  0999 V2000
    2.8671    0.2904    0.0805 C   0  0  0  0  0  0  0  0  0  0  0  0
    1.3762    0.1698    0.3131 C   0  0  0  0  0  0  0  0  0  0  0  0
    0.7397    1.3754    0.3725 O   0  0  0  0  0  0  0  0  0  0  0  0
    0.7193   -0.7167   -0.7082 C   0  0  0  0  0  0  0  0  0  0  0  0
   -0.5634   -0.9461   -0.3764 O   0  0  0  0  0  0  0  0  0  0  0  0
   -1.4773    0.0455   -0.3469 C   0  0  0  0  0  0  0  0  0  0  0  0
   -2.3413    0.0359    0.9546 C   0  0  0  0  0  0  0  0  0  0  0  0
   -2.9439   -0.2591   -0.3518 C   0  0  0  0  0  0  0  0  0  0  0  0
    3.1019    1.3674    0.0547 H   0  0  0  0  0  0  0  0  0  0  0  0
    3.1848   -0.2452   -0.8347 H   0  0  0  0  0  0  0  0  0  0  0  0
    3.3945   -0.1246    0.9671 H   0  0  0  0  0  0  0  0  0  0  0  0
    1.1761   -0.3442    1.3043 H   0  0  0  0  0  0  0  0  0  0  0  0
    1.3236    2.0677   -0.0281 H   0  0  0  0  0  0  0  0  0  0  0  0
    0.8610   -0.3163   -1.7465 H   0  0  0  0  0  0  0  0  0  0  0  0
    1.3202   -1.6831   -0.7217 H   0  0  0  0  0  0  0  0  0  0  0  0
   -1.1886    1.0822   -0.6420 H   0  0  0  0  0  0  0  0  0  0  0  0
   -2.2058   -0.8112    1.6463 H   0  0  0  0  0  0  0  0  0  0  0  0
   -2.4991    0.9998    1.4517 H   0  0  0  0  0  0  0  0  0  0  0  0
   -3.2121   -1.3062   -0.6163 H   0  0  0  0  0  0  0  0  0  0  0  0
   -3.6331    0.4914   -0.7723 H   0  0  0  0  0  0  0  0  0  0  0  0
  1  2  1  0
  2  3  1  0
  2  4  1  0
  4  5  1  0
  5  6  1  0
  6  7  1  0
  7  8  1  0
  8  6  1  0
  1  9  1  0
  1 10  1  0
  1 11  1  0
  2 12  1  0
  3 13  1  0
  4 14  1  0
  4 15  1  0
  6 16  1  0
  7 17  1  0
  7 18  1  0
  8 19  1  0
  8 20  1  0
M  END
