
     RDKit          3D

 21 21  0  0  0  0  0  0  0  0999 V2000
   -2.5328   -0.3273   -0.0418 C   0  0  0  0  0  0  0  0  0  0  0  0
   -1.1834    0.1007    0.4288 C   0  0  0  0  0  0  0  0  0  0  0  0
   -1.1639    1.3714    0.9960 O   0  0  0  0  0  0  0  0  0  0  0  0
   -0.1508    0.1264   -0.7003 C   0  0  0  0  0  0  0  0  0  0  0  0
   -0.1218   -1.1180   -1.3086 O   0  0  0  0  0  0  0  0  0  0  0  0
    1.1795    0.4278   -0.0117 C   0  0  0  0  0  0  0  0  0  0  0  0
    1.2009    1.6630    0.6126 O   0  0  0  0  0  0  0  0  0  0  0  0
    2.4198   -0.2382   -0.4554 C   0  0  0  0  0  0  0  0  0  0  0  0
    1.7341   -0.7749    0.7383 C   0  0  0  0  0  0  0  0  0  0  0  0
   -3.2596    0.4784    0.1854 H   0  0  0  0  0  0  0  0  0  0  0  0
   -2.8604   -1.2478    0.5253 H   0  0  0  0  0  0  0  0  0  0  0  0
   -2.5555   -0.6307   -1.1203 H   0  0  0  0  0  0  0  0  0  0  0  0
   -0.7994   -0.6103    1.2072 H   0  0  0  0  0  0  0  0  0  0  0  0
   -1.5264    2.0387    0.3598 H   0  0  0  0  0  0  0  0  0  0  0  0
   -0.3823    0.9391   -1.4169 H   0  0  0  0  0  0  0  0  0  0  0  0
   -0.5727   -1.7859   -0.7314 H   0  0  0  0  0  0  0  0  0  0  0  0
    1.5587    2.3870    0.0729 H   0  0  0  0  0  0  0  0  0  0  0  0
    2.3492   -0.8579   -1.3856 H   0  0  0  0  0  0  0  0  0  0  0  0
    3.3439    0.3586   -0.3782 H   0  0  0  0  0  0  0  0  0  0  0  0
    2.0964   -0.5516    1.7751 H   0  0  0  0  0  0  0  0  0  0  0  0
    1.2263   -1.7484    0.6486 H   0  0  0  0  0  0  0  0  0  0  0  0
  1  2  1  0
  2  3  1  0
  2  4  1  0
  4  5  1  0
  4  6  1  0
  6  7  1  0
  6  8  1  0
  8  9  1  0
  9  6  1  0
  1 10  1  0
  1 11  1  0
  1 12  1  0
  2 13  1  0
  3 14  1  0
  4 15  1  0
  5 16  1  0
  7 17  1  0
  8 18  1  0
  8 19  1  0
  9 20  1  0
  9 21  1  0
M  END
