
     RDKit          3D

 23 23  0  0  0  0  0  0  0  0999 V2000
   -2.6301   -0.1502    0.6457 C   0  0  0  0  0  0  0  0  0  0  0  0
   -1.7990   -0.7224   -0.4758 C   0  0  0  0  0  0  0  0  0  0  0  0
   -2.6587   -1.1269   -1.4901 O   0  0  0  0  0  0  0  0  0  0  0  0
   -0.7520    0.2255   -0.9704 C   0  0  0  0  0  0  0  0  0  0  0  0
    0.1858    0.5821    0.1461 C   0  0  0  0  0  0  0  0  0  0  0  0
    1.2201    1.5248   -0.3622 O   0  0  0  0  0  0  0  0  0  0  0  0
    1.5540    0.2381    0.2492 C   0  0  0  0  0  0  0  0  0  0  0  0
    2.3213   -0.6243   -0.6920 C   0  0  0  0  0  0  0  0  0  0  0  0
    2.2182    0.3825    1.6191 C   0  0  0  0  0  0  0  0  0  0  0  0
   -2.0475   -0.1125    1.5799 H   0  0  0  0  0  0  0  0  0  0  0  0
   -3.0782    0.8274    0.3707 H   0  0  0  0  0  0  0  0  0  0  0  0
   -3.4793   -0.8434    0.8247 H   0  0  0  0  0  0  0  0  0  0  0  0
   -1.3374   -1.6670   -0.0738 H   0  0  0  0  0  0  0  0  0  0  0  0
   -2.6555   -0.4324   -2.1941 H   0  0  0  0  0  0  0  0  0  0  0  0
   -0.2436   -0.2434   -1.8277 H   0  0  0  0  0  0  0  0  0  0  0  0
   -1.2743    1.1235   -1.3652 H   0  0  0  0  0  0  0  0  0  0  0  0
   -0.3073    1.0992    0.9944 H   0  0  0  0  0  0  0  0  0  0  0  0
    1.9269   -0.6280   -1.7246 H   0  0  0  0  0  0  0  0  0  0  0  0
    3.3811   -0.2687   -0.7637 H   0  0  0  0  0  0  0  0  0  0  0  0
    2.3584   -1.6502   -0.2619 H   0  0  0  0  0  0  0  0  0  0  0  0
    3.3057    0.5913    1.5108 H   0  0  0  0  0  0  0  0  0  0  0  0
    1.6758    1.1631    2.1544 H   0  0  0  0  0  0  0  0  0  0  0  0
    2.1156   -0.6163    2.1063 H   0  0  0  0  0  0  0  0  0  0  0  0
  1  2  1  0
  2  3  1  0
  2  4  1  0
  4  5  1  0
  5  6  1  0
  6  7  1  0
  7  8  1  0
  7  9  1  0
  7  5  1  0
  1 10  1  0
  1 11  1  0
  1 12  1  0
  2 13  1  0
  3 14  1  0
  4 15  1  0
  4 16  1  0
  5 17  1  0
  8 18  1  0
  8 19  1  0
  8 20  1  0
  9 21  1  0
  9 22  1  0
  9 23  1  0
M  END
