
     RDKit          3D

 17 17  0  0  0  0  0  0  0  0999 V2000
    1.4042    0.7231   -0.5277 C   0  0  0  0  0  0  0  0  0  0  0  0
    1.1238   -0.6195    0.1111 C   0  0  0  0  0  0  0  0  0  0  0  0
    2.0775   -0.8724    1.1027 O   0  0  0  0  0  0  0  0  0  0  0  0
   -0.2339   -0.6249    0.7705 C   0  0  0  0  0  0  0  0  0  0  0  0
   -0.4054    0.3270    1.7773 O   0  0  0  0  0  0  0  0  0  0  0  0
   -1.3669    1.0857    1.1366 C   0  0  0  0  0  0  0  0  0  0  0  0
   -2.0470    2.1250    1.3198 O   0  0  0  0  0  0  0  0  0  0  0  0
   -1.3143    0.1249    0.0079 C   0  0  0  0  0  0  0  0  0  0  0  0
   -2.5053   -0.5913   -0.0829 O   0  0  0  0  0  0  0  0  0  0  0  0
    2.5008    0.9736   -0.4662 H   0  0  0  0  0  0  0  0  0  0  0  0
    1.0532    0.7535   -1.5930 H   0  0  0  0  0  0  0  0  0  0  0  0
    0.8988    1.5190    0.0790 H   0  0  0  0  0  0  0  0  0  0  0  0
    1.2334   -1.4164   -0.6422 H   0  0  0  0  0  0  0  0  0  0  0  0
    2.0106   -1.8379    1.3474 H   0  0  0  0  0  0  0  0  0  0  0  0
   -0.5859   -1.6216    1.1017 H   0  0  0  0  0  0  0  0  0  0  0  0
   -0.9621    0.5545   -0.9579 H   0  0  0  0  0  0  0  0  0  0  0  0
   -2.8816   -0.6024   -0.9972 H   0  0  0  0  0  0  0  0  0  0  0  0
  1  2  1  0
  2  3  1  0
  2  4  1  0
  4  5  1  0
  5  6  1  0
  6  7  2  0
  6  8  1  0
  8  9  1  0
  8  4  1  0
  1 10  1  0
  1 11  1  0
  1 12  1  0
  2 13  1  0
  3 14  1  0
  4 15  1  0
  8 16  1  0
  9 17  1  0
M  END
