
     RDKit          3D

 23 23  0  0  0  0  0  0  0  0999 V2000
   -2.7101    0.2795    0.0158 C   0  0  0  0  0  0  0  0  0  0  0  0
   -1.5391   -0.5795    0.3854 C   0  0  0  0  0  0  0  0  0  0  0  0
   -1.7786   -1.8540   -0.1793 O   0  0  0  0  0  0  0  0  0  0  0  0
   -0.2343   -0.1026   -0.1835 C   0  0  0  0  0  0  0  0  0  0  0  0
   -0.1057    0.0514   -1.5593 O   0  0  0  0  0  0  0  0  0  0  0  0
    0.6491    0.8147    0.6223 C   0  0  0  0  0  0  0  0  0  0  0  0
    1.5398    1.7887   -0.1126 C   0  0  0  0  0  0  0  0  0  0  0  0
    1.0082   -0.6113    0.5732 C   0  0  0  0  0  0  0  0  0  0  0  0
    2.1540   -1.1178   -0.2725 C   0  0  0  0  0  0  0  0  0  0  0  0
   -3.3842   -0.2120   -0.7441 H   0  0  0  0  0  0  0  0  0  0  0  0
   -3.3493    0.4079    0.9156 H   0  0  0  0  0  0  0  0  0  0  0  0
   -2.4449    1.2526   -0.4087 H   0  0  0  0  0  0  0  0  0  0  0  0
   -1.4112   -0.7434    1.4589 H   0  0  0  0  0  0  0  0  0  0  0  0
   -1.5370   -2.5774    0.4366 H   0  0  0  0  0  0  0  0  0  0  0  0
   -0.5368    0.9292   -1.7998 H   0  0  0  0  0  0  0  0  0  0  0  0
    0.2486    1.1810    1.5976 H   0  0  0  0  0  0  0  0  0  0  0  0
    1.2793    2.8058    0.2117 H   0  0  0  0  0  0  0  0  0  0  0  0
    1.3682    1.7449   -1.2054 H   0  0  0  0  0  0  0  0  0  0  0  0
    2.6089    1.6130    0.1448 H   0  0  0  0  0  0  0  0  0  0  0  0
    0.8306   -1.2334    1.4751 H   0  0  0  0  0  0  0  0  0  0  0  0
    1.8392   -2.0327   -0.8412 H   0  0  0  0  0  0  0  0  0  0  0  0
    2.9504   -1.4326    0.4311 H   0  0  0  0  0  0  0  0  0  0  0  0
    2.5549   -0.3719   -0.9615 H   0  0  0  0  0  0  0  0  0  0  0  0
  1  2  1  0
  2  3  1  0
  2  4  1  0
  4  5  1  0
  4  6  1  0
  6  7  1  0
  6  8  1  0
  8  9  1  0
  8  4  1  0
  1 10  1  0
  1 11  1  0
  1 12  1  0
  2 13  1  0
  3 14  1  0
  5 15  1  0
  6 16  1  0
  7 17  1  0
  7 18  1  0
  7 19  1  0
  8 20  1  0
  9 21  1  0
  9 22  1  0
  9 23  1  0
M  END
