
     RDKit          3D

 19 19  0  0  0  0  0  0  0  0999 V2000
    2.2792   -0.2462    0.5030 C   0  0  0  0  0  0  0  0  0  0  0  0
    1.1712   -0.1522   -0.5438 C   0  0  0  0  0  0  0  0  0  0  0  0
    1.3125   -1.1862   -1.4507 O   0  0  0  0  0  0  0  0  0  0  0  0
   -0.1642   -0.1473    0.1468 C   0  0  0  0  0  0  0  0  0  0  0  0
   -0.4571   -1.2761    0.8742 O   0  0  0  0  0  0  0  0  0  0  0  0
   -0.6712    1.1903    0.5322 C   0  0  0  0  0  0  0  0  0  0  0  0
   -1.3653    0.4436   -0.5764 C   0  0  0  0  0  0  0  0  0  0  0  0
   -2.7128   -0.0597   -0.2001 C   0  0  0  0  0  0  0  0  0  0  0  0
   -3.6260   -0.1381   -0.9874 O   0  0  0  0  0  0  0  0  0  0  0  0
    2.1020   -1.2203    1.0331 H   0  0  0  0  0  0  0  0  0  0  0  0
    2.1311    0.5400    1.2707 H   0  0  0  0  0  0  0  0  0  0  0  0
    3.2736   -0.1806    0.0645 H   0  0  0  0  0  0  0  0  0  0  0  0
    1.3225    0.8262   -1.0455 H   0  0  0  0  0  0  0  0  0  0  0  0
    0.9719   -0.9039   -2.3351 H   0  0  0  0  0  0  0  0  0  0  0  0
   -0.2138   -1.2531    1.8109 H   0  0  0  0  0  0  0  0  0  0  0  0
   -1.1346    1.2908    1.5135 H   0  0  0  0  0  0  0  0  0  0  0  0
   -0.1262    2.0865    0.1929 H   0  0  0  0  0  0  0  0  0  0  0  0
   -1.2017    0.7571   -1.6233 H   0  0  0  0  0  0  0  0  0  0  0  0
   -2.8910   -0.3710    0.8205 H   0  0  0  0  0  0  0  0  0  0  0  0
  1  2  1  0
  2  3  1  0
  2  4  1  0
  4  5  1  0
  4  6  1  0
  6  7  1  0
  7  8  1  0
  8  9  2  0
  7  4  1  0
  1 10  1  0
  1 11  1  0
  1 12  1  0
  2 13  1  0
  3 14  1  0
  5 15  1  0
  6 16  1  0
  6 17  1  0
  7 18  1  0
  8 19  1  0
M  END
