
     RDKit          3D

 23 23  0  0  0  0  0  0  0  0999 V2000
    2.1835    0.2790   -0.6897 C   0  0  0  0  0  0  0  0  0  0  0  0
    1.6911   -0.4596    0.5108 C   0  0  0  0  0  0  0  0  0  0  0  0
    1.6750   -1.8165    0.2049 O   0  0  0  0  0  0  0  0  0  0  0  0
    0.3864    0.0493    1.0370 C   0  0  0  0  0  0  0  0  0  0  0  0
   -0.7374   -0.0245    0.0667 C   0  0  0  0  0  0  0  0  0  0  0  0
   -1.0479   -1.4431   -0.4151 C   0  0  0  0  0  0  0  0  0  0  0  0
   -1.9891    0.7442    0.5309 C   0  0  0  0  0  0  0  0  0  0  0  0
   -1.2232    1.0608   -0.7525 C   0  0  0  0  0  0  0  0  0  0  0  0
   -0.6885    2.3465   -0.7465 O   0  0  0  0  0  0  0  0  0  0  0  0
    2.4844    1.3225   -0.4815 H   0  0  0  0  0  0  0  0  0  0  0  0
    1.3891    0.2769   -1.4559 H   0  0  0  0  0  0  0  0  0  0  0  0
    3.0846   -0.2751   -1.0699 H   0  0  0  0  0  0  0  0  0  0  0  0
    2.4534   -0.3387    1.3147 H   0  0  0  0  0  0  0  0  0  0  0  0
    1.3028   -2.2952    0.9871 H   0  0  0  0  0  0  0  0  0  0  0  0
    0.1161   -0.5954    1.9157 H   0  0  0  0  0  0  0  0  0  0  0  0
    0.5297    1.0660    1.4087 H   0  0  0  0  0  0  0  0  0  0  0  0
   -0.3938   -1.7416   -1.2508 H   0  0  0  0  0  0  0  0  0  0  0  0
   -1.0373   -2.1478    0.4365 H   0  0  0  0  0  0  0  0  0  0  0  0
   -2.0797   -1.4334   -0.8261 H   0  0  0  0  0  0  0  0  0  0  0  0
   -2.9648    0.2350    0.4475 H   0  0  0  0  0  0  0  0  0  0  0  0
   -1.9045    1.4144    1.3846 H   0  0  0  0  0  0  0  0  0  0  0  0
   -1.7521    0.8135   -1.6977 H   0  0  0  0  0  0  0  0  0  0  0  0
   -1.4778    2.9629   -0.8591 H   0  0  0  0  0  0  0  0  0  0  0  0
  1  2  1  0
  2  3  1  0
  2  4  1  0
  4  5  1  0
  5  6  1  0
  5  7  1  0
  7  8  1  0
  8  9  1  0
  8  5  1  0
  1 10  1  0
  1 11  1  0
  1 12  1  0
  2 13  1  0
  3 14  1  0
  4 15  1  0
  4 16  1  0
  6 17  1  0
  6 18  1  0
  6 19  1  0
  7 20  1  0
  7 21  1  0
  8 22  1  0
  9 23  1  0
M  END
