
     RDKit          3D

 19 19  0  0  0  0  0  0  0  0999 V2000
    1.7987   -0.6042   -0.5906 C   0  0  0  0  0  0  0  0  0  0  0  0
    0.7510    0.0594    0.2828 C   0  0  0  0  0  0  0  0  0  0  0  0
    1.0302   -0.3738    1.6024 O   0  0  0  0  0  0  0  0  0  0  0  0
    0.9026    1.5321    0.3042 C   0  0  0  0  0  0  0  0  0  0  0  0
    0.7470    2.1766   -0.7115 O   0  0  0  0  0  0  0  0  0  0  0  0
   -0.6422   -0.3795   -0.0914 C   0  0  0  0  0  0  0  0  0  0  0  0
   -0.8044   -1.7817   -0.0420 O   0  0  0  0  0  0  0  0  0  0  0  0
   -1.8210    0.3805    0.4459 C   0  0  0  0  0  0  0  0  0  0  0  0
   -1.4999    0.3422   -1.0350 C   0  0  0  0  0  0  0  0  0  0  0  0
    1.7694   -1.6962   -0.3967 H   0  0  0  0  0  0  0  0  0  0  0  0
    2.7789   -0.2022   -0.2733 H   0  0  0  0  0  0  0  0  0  0  0  0
    1.5958   -0.4334   -1.6668 H   0  0  0  0  0  0  0  0  0  0  0  0
    1.2081   -1.3457    1.5125 H   0  0  0  0  0  0  0  0  0  0  0  0
    1.1523    2.1026    1.1940 H   0  0  0  0  0  0  0  0  0  0  0  0
   -1.1916   -2.0113    0.8231 H   0  0  0  0  0  0  0  0  0  0  0  0
   -2.7306   -0.1512    0.7521 H   0  0  0  0  0  0  0  0  0  0  0  0
   -1.5720    1.2917    1.0162 H   0  0  0  0  0  0  0  0  0  0  0  0
   -2.2004   -0.2358   -1.6739 H   0  0  0  0  0  0  0  0  0  0  0  0
   -1.2718    1.3298   -1.4519 H   0  0  0  0  0  0  0  0  0  0  0  0
  1  2  1  0
  2  3  1  0
  2  4  1  0
  4  5  2  0
  2  6  1  0
  6  7  1  0
  6  8  1  0
  8  9  1  0
  9  6  1  0
  1 10  1  0
  1 11  1  0
  1 12  1  0
  3 13  1  0
  4 14  1  0
  7 15  1  0
  8 16  1  0
  8 17  1  0
  9 18  1  0
  9 19  1  0
M  END
