
     RDKit          3D

 23 23  0  0  0  0  0  0  0  0999 V2000
   -2.2225   -0.9490    0.3561 C   0  0  0  0  0  0  0  0  0  0  0  0
   -1.7654    0.4930    0.2944 C   0  0  0  0  0  0  0  0  0  0  0  0
   -2.8021    1.3740    0.0424 O   0  0  0  0  0  0  0  0  0  0  0  0
   -0.6807    0.6078   -0.7811 C   0  0  0  0  0  0  0  0  0  0  0  0
    0.4379   -0.3083   -0.3583 C   0  0  0  0  0  0  0  0  0  0  0  0
    0.9508    0.1307    0.9727 C   0  0  0  0  0  0  0  0  0  0  0  0
    2.3994   -0.1695    0.9026 C   0  0  0  0  0  0  0  0  0  0  0  0
    2.7670   -0.3618   -0.3526 C   0  0  0  0  0  0  0  0  0  0  0  0
    1.6268   -0.2190   -1.2903 C   0  0  0  0  0  0  0  0  0  0  0  0
   -1.9716   -1.4691   -0.6001 H   0  0  0  0  0  0  0  0  0  0  0  0
   -3.3169   -0.9222    0.5489 H   0  0  0  0  0  0  0  0  0  0  0  0
   -1.7093   -1.5026    1.1753 H   0  0  0  0  0  0  0  0  0  0  0  0
   -1.3270    0.7350    1.2836 H   0  0  0  0  0  0  0  0  0  0  0  0
   -2.5568    2.2463    0.4403 H   0  0  0  0  0  0  0  0  0  0  0  0
   -1.0907    0.3911   -1.7680 H   0  0  0  0  0  0  0  0  0  0  0  0
   -0.3398    1.6634   -0.7441 H   0  0  0  0  0  0  0  0  0  0  0  0
    0.0829   -1.3451   -0.2877 H   0  0  0  0  0  0  0  0  0  0  0  0
    0.8565    1.2473    1.0371 H   0  0  0  0  0  0  0  0  0  0  0  0
    0.4595   -0.3796    1.8256 H   0  0  0  0  0  0  0  0  0  0  0  0
    3.0893   -0.2270    1.7786 H   0  0  0  0  0  0  0  0  0  0  0  0
    3.8187   -0.6008   -0.6303 H   0  0  0  0  0  0  0  0  0  0  0  0
    1.6515    0.6921   -1.8899 H   0  0  0  0  0  0  0  0  0  0  0  0
    1.6426   -1.1267   -1.9556 H   0  0  0  0  0  0  0  0  0  0  0  0
  1  2  1  0
  2  3  1  0
  2  4  1  0
  4  5  1  0
  5  6  1  0
  6  7  1  0
  7  8  2  0
  8  9  1  0
  9  5  1  0
  1 10  1  0
  1 11  1  0
  1 12  1  0
  2 13  1  0
  3 14  1  0
  4 15  1  0
  4 16  1  0
  5 17  1  0
  6 18  1  0
  6 19  1  0
  7 20  1  0
  8 21  1  0
  9 22  1  0
  9 23  1  0
M  END
