
     RDKit          3D

 23 24  0  0  0  0  0  0  0  0999 V2000
    2.5109    0.1658   -0.7198 C   0  0  0  0  0  0  0  0  0  0  0  0
    1.5765    0.2884    0.4784 C   0  0  0  0  0  0  0  0  0  0  0  0
    1.8105   -0.7276    1.3633 O   0  0  0  0  0  0  0  0  0  0  0  0
    0.1949    0.4771    0.0240 C   0  0  0  0  0  0  0  0  0  0  0  0
   -0.4619   -0.5469   -0.8192 C   0  0  0  0  0  0  0  0  0  0  0  0
   -1.7980    0.0845   -1.1396 C   0  0  0  0  0  0  0  0  0  0  0  0
   -2.0869    0.7264    0.2322 C   0  0  0  0  0  0  0  0  0  0  0  0
   -0.9169    0.1591    1.0106 C   0  0  0  0  0  0  0  0  0  0  0  0
   -0.8632   -1.2466    0.4922 C   0  0  0  0  0  0  0  0  0  0  0  0
    2.7974    1.1799   -1.0772 H   0  0  0  0  0  0  0  0  0  0  0  0
    3.3971   -0.4443   -0.4234 H   0  0  0  0  0  0  0  0  0  0  0  0
    2.0167   -0.3675   -1.5392 H   0  0  0  0  0  0  0  0  0  0  0  0
    1.9010    1.2433    0.9911 H   0  0  0  0  0  0  0  0  0  0  0  0
    1.9266   -0.4535    2.2989 H   0  0  0  0  0  0  0  0  0  0  0  0
    0.0449    1.4999   -0.4113 H   0  0  0  0  0  0  0  0  0  0  0  0
    0.0485   -1.1124   -1.5430 H   0  0  0  0  0  0  0  0  0  0  0  0
   -1.7684    0.8170   -1.9362 H   0  0  0  0  0  0  0  0  0  0  0  0
   -2.5523   -0.7125   -1.2477 H   0  0  0  0  0  0  0  0  0  0  0  0
   -1.9420    1.8170    0.0780 H   0  0  0  0  0  0  0  0  0  0  0  0
   -3.0579    0.4429    0.6216 H   0  0  0  0  0  0  0  0  0  0  0  0
   -0.7936    0.3804    2.0293 H   0  0  0  0  0  0  0  0  0  0  0  0
   -1.8479   -1.7416    0.3367 H   0  0  0  0  0  0  0  0  0  0  0  0
   -0.1359   -1.9289    0.9003 H   0  0  0  0  0  0  0  0  0  0  0  0
  1  2  1  0
  2  3  1  0
  2  4  1  0
  4  5  1  0
  5  6  1  0
  6  7  1  0
  7  8  1  0
  8  9  1  0
  8  4  1  0
  9  5  1  0
  1 10  1  0
  1 11  1  0
  1 12  1  0
  2 13  1  0
  3 14  1  0
  4 15  1  0
  5 16  1  0
  6 17  1  0
  6 18  1  0
  7 19  1  0
  7 20  1  0
  8 21  1  0
  9 22  1  0
  9 23  1  0
M  END
