
     RDKit          3D

 23 24  0  0  0  0  0  0  0  0999 V2000
   -1.8476   -1.0775   -0.4024 C   0  0  0  0  0  0  0  0  0  0  0  0
   -1.2641    0.1502    0.2614 C   0  0  0  0  0  0  0  0  0  0  0  0
   -1.7125    0.0744    1.6108 O   0  0  0  0  0  0  0  0  0  0  0  0
    0.1028    0.4134    0.2319 C   0  0  0  0  0  0  0  0  0  0  0  0
    0.4755    1.6756    0.9432 C   0  0  0  0  0  0  0  0  0  0  0  0
    1.5807    1.8911   -0.0688 C   0  0  0  0  0  0  0  0  0  0  0  0
    1.4822    0.3865    0.0544 C   0  0  0  0  0  0  0  0  0  0  0  0
    0.7681   -0.3776   -0.8019 C   0  0  0  0  0  0  0  0  0  0  0  0
    0.9306   -1.9034   -0.6730 C   0  0  0  0  0  0  0  0  0  0  0  0
   -1.6268   -1.0986   -1.4898 H   0  0  0  0  0  0  0  0  0  0  0  0
   -1.5445   -2.0229    0.0265 H   0  0  0  0  0  0  0  0  0  0  0  0
   -2.9767   -1.0277   -0.3459 H   0  0  0  0  0  0  0  0  0  0  0  0
   -1.9076    0.9902   -0.1554 H   0  0  0  0  0  0  0  0  0  0  0  0
   -2.6954    0.1787    1.6435 H   0  0  0  0  0  0  0  0  0  0  0  0
   -0.2326    2.5102    0.8992 H   0  0  0  0  0  0  0  0  0  0  0  0
    0.8597    1.4292    1.9650 H   0  0  0  0  0  0  0  0  0  0  0  0
    2.5038    2.3477    0.3174 H   0  0  0  0  0  0  0  0  0  0  0  0
    1.1806    2.2902   -1.0163 H   0  0  0  0  0  0  0  0  0  0  0  0
    2.1533   -0.0099    0.8667 H   0  0  0  0  0  0  0  0  0  0  0  0
    0.6079   -0.1021   -1.8852 H   0  0  0  0  0  0  0  0  0  0  0  0
    0.8169   -2.1715    0.3804 H   0  0  0  0  0  0  0  0  0  0  0  0
    2.0080   -2.0864   -0.9695 H   0  0  0  0  0  0  0  0  0  0  0  0
    0.3375   -2.4595   -1.3920 H   0  0  0  0  0  0  0  0  0  0  0  0
  1  2  1  0
  2  3  1  0
  2  4  1  0
  4  5  1  0
  5  6  1  0
  6  7  1  0
  7  8  1  0
  8  9  1  0
  7  4  1  0
  8  4  1  0
  1 10  1  0
  1 11  1  0
  1 12  1  0
  2 13  1  0
  3 14  1  0
  5 15  1  0
  5 16  1  0
  6 17  1  0
  6 18  1  0
  7 19  1  0
  8 20  1  0
  9 21  1  0
  9 22  1  0
  9 23  1  0
M  END
