
     RDKit          3D

 21 20  0  0  0  0  0  0  0  0999 V2000
   -1.6324    0.5509    1.1346 C   0  0  0  0  0  0  0  0  0  0  0  0
   -1.5665   -0.3795   -0.0280 C   0  0  0  0  0  0  0  0  0  0  0  0
   -2.8893   -0.4690   -0.5298 O   0  0  0  0  0  0  0  0  0  0  0  0
   -0.7232    0.1044   -1.1680 C   0  0  0  0  0  0  0  0  0  0  0  0
    0.7159    0.3440   -0.8007 C   0  0  0  0  0  0  0  0  0  0  0  0
    1.3273   -0.9246   -0.3100 C   0  0  0  0  0  0  0  0  0  0  0  0
    2.6756   -0.7599    0.0489 O   0  0  0  0  0  0  0  0  0  0  0  0
    3.0146    0.1215    1.0438 C   0  0  0  0  0  0  0  0  0  0  0  0
    2.2008    0.8250    1.6935 O   0  0  0  0  0  0  0  0  0  0  0  0
   -2.3345    1.3987    0.9580 H   0  0  0  0  0  0  0  0  0  0  0  0
   -0.6548    0.9248    1.4833 H   0  0  0  0  0  0  0  0  0  0  0  0
   -2.0608   -0.0280    1.9951 H   0  0  0  0  0  0  0  0  0  0  0  0
   -1.2894   -1.4095    0.2649 H   0  0  0  0  0  0  0  0  0  0  0  0
   -3.1144    0.3425   -1.0448 H   0  0  0  0  0  0  0  0  0  0  0  0
   -1.1163    1.0343   -1.6184 H   0  0  0  0  0  0  0  0  0  0  0  0
   -0.7458   -0.6766   -1.9539 H   0  0  0  0  0  0  0  0  0  0  0  0
    1.2330    0.6074   -1.7726 H   0  0  0  0  0  0  0  0  0  0  0  0
    0.8519    1.2140   -0.1559 H   0  0  0  0  0  0  0  0  0  0  0  0
    0.7315   -1.3720    0.5349 H   0  0  0  0  0  0  0  0  0  0  0  0
    1.3070   -1.7054   -1.1050 H   0  0  0  0  0  0  0  0  0  0  0  0
    4.0698    0.2569    1.3303 H   0  0  0  0  0  0  0  0  0  0  0  0
  1  2  1  0
  2  3  1  0
  2  4  1  0
  4  5  1  0
  5  6  1  0
  6  7  1  0
  7  8  1  0
  8  9  2  0
  1 10  1  0
  1 11  1  0
  1 12  1  0
  2 13  1  0
  3 14  1  0
  4 15  1  0
  4 16  1  0
  5 17  1  0
  5 18  1  0
  6 19  1  0
  6 20  1  0
  8 21  1  0
M  END
