
     RDKit          3D

 16 16  0  0  0  0  0  0  0  0999 V2000
    1.8835   -0.0628    0.7752 C   0  0  0  0  0  0  0  0  0  0  0  0
    1.1314   -0.2584   -0.5154 C   0  0  0  0  0  0  0  0  0  0  0  0
    1.8556    0.2871   -1.5741 O   0  0  0  0  0  0  0  0  0  0  0  0
   -0.2347    0.2702   -0.4816 C   0  0  0  0  0  0  0  0  0  0  0  0
   -0.5704    1.0815   -1.3323 O   0  0  0  0  0  0  0  0  0  0  0  0
   -1.2643   -0.1024    0.5159 C   0  0  0  0  0  0  0  0  0  0  0  0
   -2.6677   -0.2114   -0.0443 C   0  0  0  0  0  0  0  0  0  0  0  0
   -2.2719    0.8091    0.8204 O   0  0  0  0  0  0  0  0  0  0  0  0
    2.2529    1.0033    0.8156 H   0  0  0  0  0  0  0  0  0  0  0  0
    1.2774   -0.2308    1.6649 H   0  0  0  0  0  0  0  0  0  0  0  0
    2.7755   -0.7271    0.7730 H   0  0  0  0  0  0  0  0  0  0  0  0
    1.0575   -1.3572   -0.7345 H   0  0  0  0  0  0  0  0  0  0  0  0
    1.8519    1.2734   -1.5703 H   0  0  0  0  0  0  0  0  0  0  0  0
   -0.9395   -0.8310    1.2678 H   0  0  0  0  0  0  0  0  0  0  0  0
   -3.2993   -1.0291    0.3406 H   0  0  0  0  0  0  0  0  0  0  0  0
   -2.8377    0.0857   -1.1058 H   0  0  0  0  0  0  0  0  0  0  0  0
  1  2  1  0
  2  3  1  0
  2  4  1  0
  4  5  2  0
  4  6  1  0
  6  7  1  0
  7  8  1  0
  8  6  1  0
  1  9  1  0
  1 10  1  0
  1 11  1  0
  2 12  1  0
  3 13  1  0
  6 14  1  0
  7 15  1  0
  7 16  1  0
M  END
