
     RDKit          3D

 20 20  0  0  0  0  0  0  0  0999 V2000
    1.8839   -0.3553    0.5591 C   0  0  0  0  0  0  0  0  0  0  0  0
    0.9475    0.6685   -0.0512 C   0  0  0  0  0  0  0  0  0  0  0  0
    0.8858    1.8211    0.7015 O   0  0  0  0  0  0  0  0  0  0  0  0
   -0.4036    0.0741   -0.3205 C   0  0  0  0  0  0  0  0  0  0  0  0
   -1.3762    1.0253   -0.9216 C   0  0  0  0  0  0  0  0  0  0  0  0
   -0.4291   -1.3380   -0.7938 C   0  0  0  0  0  0  0  0  0  0  0  0
   -0.3108   -1.7403    0.5358 O   0  0  0  0  0  0  0  0  0  0  0  0
   -1.0385   -0.6263    0.8842 C   0  0  0  0  0  0  0  0  0  0  0  0
    1.5456   -0.7290    1.5329 H   0  0  0  0  0  0  0  0  0  0  0  0
    2.8698    0.1299    0.7222 H   0  0  0  0  0  0  0  0  0  0  0  0
    2.0443   -1.1360   -0.2039 H   0  0  0  0  0  0  0  0  0  0  0  0
    1.3759    0.9391   -1.0384 H   0  0  0  0  0  0  0  0  0  0  0  0
    0.7945    1.6666    1.6641 H   0  0  0  0  0  0  0  0  0  0  0  0
   -1.5843    1.8224   -0.1632 H   0  0  0  0  0  0  0  0  0  0  0  0
   -2.3224    0.4819   -1.1161 H   0  0  0  0  0  0  0  0  0  0  0  0
   -0.9369    1.4490   -1.8458 H   0  0  0  0  0  0  0  0  0  0  0  0
    0.3946   -1.6567   -1.4586 H   0  0  0  0  0  0  0  0  0  0  0  0
   -1.4487   -1.5759   -1.2167 H   0  0  0  0  0  0  0  0  0  0  0  0
   -2.1113   -0.7817    0.6909 H   0  0  0  0  0  0  0  0  0  0  0  0
   -0.7802   -0.1385    1.8390 H   0  0  0  0  0  0  0  0  0  0  0  0
  1  2  1  0
  2  3  1  0
  2  4  1  0
  4  5  1  0
  4  6  1  0
  6  7  1  0
  7  8  1  0
  8  4  1  0
  1  9  1  0
  1 10  1  0
  1 11  1  0
  2 12  1  0
  3 13  1  0
  5 14  1  0
  5 15  1  0
  5 16  1  0
  6 17  1  0
  6 18  1  0
  8 19  1  0
  8 20  1  0
M  END
