
     RDKit          3D

 21 21  0  0  0  0  0  0  0  0999 V2000
    0.9737    1.6575    0.5044 C   0  0  0  0  0  0  0  0  0  0  0  0
    0.3893    0.2720    0.3873 C   0  0  0  0  0  0  0  0  0  0  0  0
    0.1721   -0.2030    1.6810 O   0  0  0  0  0  0  0  0  0  0  0  0
    1.3534   -0.6873   -0.3153 C   0  0  0  0  0  0  0  0  0  0  0  0
    2.5608   -0.7841    0.3223 O   0  0  0  0  0  0  0  0  0  0  0  0
   -0.8917    0.2360   -0.3868 C   0  0  0  0  0  0  0  0  0  0  0  0
   -0.7553    0.7021   -1.7093 O   0  0  0  0  0  0  0  0  0  0  0  0
   -1.6508   -1.0927   -0.2173 C   0  0  0  0  0  0  0  0  0  0  0  0
   -2.2134    0.2451    0.2237 C   0  0  0  0  0  0  0  0  0  0  0  0
    1.9506    1.6679   -0.0081 H   0  0  0  0  0  0  0  0  0  0  0  0
    1.1345    1.9561    1.5817 H   0  0  0  0  0  0  0  0  0  0  0  0
    0.2607    2.4122    0.1091 H   0  0  0  0  0  0  0  0  0  0  0  0
    0.5415   -1.0964    1.8302 H   0  0  0  0  0  0  0  0  0  0  0  0
    1.4300   -0.4276   -1.3913 H   0  0  0  0  0  0  0  0  0  0  0  0
    0.8245   -1.6833   -0.2916 H   0  0  0  0  0  0  0  0  0  0  0  0
    3.2795   -0.7534   -0.3841 H   0  0  0  0  0  0  0  0  0  0  0  0
   -0.5522   -0.1306   -2.2419 H   0  0  0  0  0  0  0  0  0  0  0  0
   -1.9995   -1.5458   -1.1623 H   0  0  0  0  0  0  0  0  0  0  0  0
   -1.3564   -1.7623    0.5961 H   0  0  0  0  0  0  0  0  0  0  0  0
   -3.0596    0.5785   -0.4192 H   0  0  0  0  0  0  0  0  0  0  0  0
   -2.3920    0.4391    1.2915 H   0  0  0  0  0  0  0  0  0  0  0  0
  1  2  1  0
  2  3  1  0
  2  4  1  0
  4  5  1  0
  2  6  1  0
  6  7  1  0
  6  8  1  0
  8  9  1  0
  9  6  1  0
  1 10  1  0
  1 11  1  0
  1 12  1  0
  3 13  1  0
  4 14  1  0
  4 15  1  0
  5 16  1  0
  7 17  1  0
  8 18  1  0
  8 19  1  0
  9 20  1  0
  9 21  1  0
M  END
