
     RDKit          3D

 17 16  0  0  0  0  0  0  0  0999 V2000
   -1.6116    0.6346   -0.7310 C   0  0  0  0  0  0  0  0  0  0  0  0
   -1.1785   -0.4046    0.2840 C   0  0  0  0  0  0  0  0  0  0  0  0
   -2.0286   -1.5349    0.1705 O   0  0  0  0  0  0  0  0  0  0  0  0
    0.2340   -0.8066    0.1672 C   0  0  0  0  0  0  0  0  0  0  0  0
    0.4531   -1.9743   -0.1829 O   0  0  0  0  0  0  0  0  0  0  0  0
    1.4028    0.0478    0.4308 C   0  0  0  0  0  0  0  0  0  0  0  0
    2.5984   -0.6330    0.1902 O   0  0  0  0  0  0  0  0  0  0  0  0
    1.3540    1.3599   -0.2192 C   0  0  0  0  0  0  0  0  0  0  0  0
    2.2603    1.6804   -0.9532 O   0  0  0  0  0  0  0  0  0  0  0  0
   -0.8212    0.7450   -1.4764 H   0  0  0  0  0  0  0  0  0  0  0  0
   -1.7546    1.5901   -0.2052 H   0  0  0  0  0  0  0  0  0  0  0  0
   -2.5834    0.3573   -1.2032 H   0  0  0  0  0  0  0  0  0  0  0  0
   -1.4055    0.0125    1.2806 H   0  0  0  0  0  0  0  0  0  0  0  0
   -1.5191   -2.3381   -0.1019 H   0  0  0  0  0  0  0  0  0  0  0  0
    1.4038    0.2613    1.5448 H   0  0  0  0  0  0  0  0  0  0  0  0
    2.6534   -1.0260   -0.7003 H   0  0  0  0  0  0  0  0  0  0  0  0
    0.5426    2.0287   -0.0554 H   0  0  0  0  0  0  0  0  0  0  0  0
  1  2  1  0
  2  3  1  0
  2  4  1  0
  4  5  2  0
  4  6  1  0
  6  7  1  0
  6  8  1  0
  8  9  2  0
  1 10  1  0
  1 11  1  0
  1 12  1  0
  2 13  1  0
  3 14  1  0
  6 15  1  0
  7 16  1  0
  8 17  1  0
M  END
