
     RDKit          3D

 20 20  0  0  0  0  0  0  0  0999 V2000
    0.7652   -1.4298   -1.0354 C   0  0  0  0  0  0  0  0  0  0  0  0
    0.4128   -0.1034   -0.3959 C   0  0  0  0  0  0  0  0  0  0  0  0
    0.0808    0.7515   -1.4456 O   0  0  0  0  0  0  0  0  0  0  0  0
    1.7020    0.4134    0.2493 C   0  0  0  0  0  0  0  0  0  0  0  0
    1.4787    1.7029    0.7228 O   0  0  0  0  0  0  0  0  0  0  0  0
   -0.6392   -0.1918    0.6443 C   0  0  0  0  0  0  0  0  0  0  0  0
   -1.9953   -0.6776    0.4163 C   0  0  0  0  0  0  0  0  0  0  0  0
   -1.8123    0.7893    0.4197 C   0  0  0  0  0  0  0  0  0  0  0  0
    0.8941   -2.2391   -0.3199 H   0  0  0  0  0  0  0  0  0  0  0  0
    1.7335   -1.2502   -1.5694 H   0  0  0  0  0  0  0  0  0  0  0  0
    0.0323   -1.6690   -1.8561 H   0  0  0  0  0  0  0  0  0  0  0  0
    0.2566    1.6930   -1.2615 H   0  0  0  0  0  0  0  0  0  0  0  0
    2.0203   -0.2255    1.0805 H   0  0  0  0  0  0  0  0  0  0  0  0
    2.5049    0.4299   -0.5033 H   0  0  0  0  0  0  0  0  0  0  0  0
    1.6928    1.7591    1.6756 H   0  0  0  0  0  0  0  0  0  0  0  0
   -0.2829   -0.1946    1.7168 H   0  0  0  0  0  0  0  0  0  0  0  0
   -2.2765   -1.1705   -0.5319 H   0  0  0  0  0  0  0  0  0  0  0  0
   -2.5623   -1.0915    1.2867 H   0  0  0  0  0  0  0  0  0  0  0  0
   -1.8833    1.2856   -0.5582 H   0  0  0  0  0  0  0  0  0  0  0  0
   -2.1220    1.4183    1.2649 H   0  0  0  0  0  0  0  0  0  0  0  0
  1  2  1  0
  2  3  1  0
  2  4  1  0
  4  5  1  0
  2  6  1  0
  6  7  1  0
  7  8  1  0
  8  6  1  0
  1  9  1  0
  1 10  1  0
  1 11  1  0
  3 12  1  0
  4 13  1  0
  4 14  1  0
  5 15  1  0
  6 16  1  0
  7 17  1  0
  7 18  1  0
  8 19  1  0
  8 20  1  0
M  END
