
     RDKit          3D

 21 21  0  0  0  0  0  0  0  0999 V2000
    2.0985   -0.2418    0.6604 C   0  0  0  0  0  0  0  0  0  0  0  0
    1.0422   -0.5297   -0.3517 C   0  0  0  0  0  0  0  0  0  0  0  0
    1.5901   -0.3379   -1.6189 O   0  0  0  0  0  0  0  0  0  0  0  0
   -0.2140    0.2735   -0.2023 C   0  0  0  0  0  0  0  0  0  0  0  0
   -0.0833    1.7574   -0.2379 C   0  0  0  0  0  0  0  0  0  0  0  0
   -1.1447   -0.1265   -1.1657 O   0  0  0  0  0  0  0  0  0  0  0  0
   -1.6589   -1.0874   -0.3216 C   0  0  0  0  0  0  0  0  0  0  0  0
   -1.1624   -0.2711    0.8455 C   0  0  0  0  0  0  0  0  0  0  0  0
   -2.0863    0.6412    1.3279 O   0  0  0  0  0  0  0  0  0  0  0  0
    2.9877    0.2656    0.1937 H   0  0  0  0  0  0  0  0  0  0  0  0
    2.5103   -1.1651    1.1284 H   0  0  0  0  0  0  0  0  0  0  0  0
    1.7775    0.4083    1.4916 H   0  0  0  0  0  0  0  0  0  0  0  0
    0.7677   -1.6020   -0.2629 H   0  0  0  0  0  0  0  0  0  0  0  0
    1.3806   -1.0693   -2.2245 H   0  0  0  0  0  0  0  0  0  0  0  0
   -0.1122    2.1481   -1.2776 H   0  0  0  0  0  0  0  0  0  0  0  0
   -0.9808    2.1878    0.2782 H   0  0  0  0  0  0  0  0  0  0  0  0
    0.8272    2.1510    0.2379 H   0  0  0  0  0  0  0  0  0  0  0  0
   -1.2065   -2.0837   -0.4414 H   0  0  0  0  0  0  0  0  0  0  0  0
   -2.7621   -1.1800   -0.3823 H   0  0  0  0  0  0  0  0  0  0  0  0
   -0.7269   -0.9023    1.6165 H   0  0  0  0  0  0  0  0  0  0  0  0
   -2.8436    0.7639    0.7068 H   0  0  0  0  0  0  0  0  0  0  0  0
  1  2  1  0
  2  3  1  0
  2  4  1  0
  4  5  1  0
  4  6  1  0
  6  7  1  0
  7  8  1  0
  8  9  1  0
  8  4  1  0
  1 10  1  0
  1 11  1  0
  1 12  1  0
  2 13  1  0
  3 14  1  0
  5 15  1  0
  5 16  1  0
  5 17  1  0
  7 18  1  0
  7 19  1  0
  8 20  1  0
  9 21  1  0
M  END
