
     RDKit          3D

 19 20  0  0  0  0  0  0  0  0999 V2000
   -2.0609    0.7927    0.5497 C   0  0  0  0  0  0  0  0  0  0  0  0
   -1.1999   -0.1243   -0.2547 C   0  0  0  0  0  0  0  0  0  0  0  0
   -1.8351   -1.3526   -0.3787 O   0  0  0  0  0  0  0  0  0  0  0  0
    0.1537   -0.3354    0.3869 C   0  0  0  0  0  0  0  0  0  0  0  0
    0.8183    0.9914    0.4912 C   0  0  0  0  0  0  0  0  0  0  0  0
    2.0378    0.9399   -0.0047 C   0  0  0  0  0  0  0  0  0  0  0  0
    2.3250   -0.4215   -0.4946 C   0  0  0  0  0  0  0  0  0  0  0  0
    1.6157   -0.8173   -1.5950 O   0  0  0  0  0  0  0  0  0  0  0  0
    1.0504   -1.2113   -0.4044 C   0  0  0  0  0  0  0  0  0  0  0  0
   -3.0503    0.8573    0.0380 H   0  0  0  0  0  0  0  0  0  0  0  0
   -2.2772    0.2992    1.5330 H   0  0  0  0  0  0  0  0  0  0  0  0
   -1.6547    1.8053    0.6625 H   0  0  0  0  0  0  0  0  0  0  0  0
   -1.0286    0.3453   -1.2422 H   0  0  0  0  0  0  0  0  0  0  0  0
   -2.3911   -1.3661   -1.1957 H   0  0  0  0  0  0  0  0  0  0  0  0
    0.0602   -0.7615    1.4092 H   0  0  0  0  0  0  0  0  0  0  0  0
    0.3686    1.8755    0.9134 H   0  0  0  0  0  0  0  0  0  0  0  0
    2.7516    1.7544   -0.0616 H   0  0  0  0  0  0  0  0  0  0  0  0
    3.2160   -0.9701   -0.1431 H   0  0  0  0  0  0  0  0  0  0  0  0
    1.1004   -2.3007   -0.2090 H   0  0  0  0  0  0  0  0  0  0  0  0
  1  2  1  0
  2  3  1  0
  2  4  1  0
  4  5  1  0
  5  6  2  0
  6  7  1  0
  7  8  1  0
  8  9  1  0
  9  4  1  0
  9  7  1  0
  1 10  1  0
  1 11  1  0
  1 12  1  0
  2 13  1  0
  3 14  1  0
  4 15  1  0
  5 16  1  0
  6 17  1  0
  7 18  1  0
  9 19  1  0
M  END
