
     RDKit          3D

 20 19  0  0  0  0  0  0  0  0999 V2000
    1.5322   -0.2656   -0.9638 C   0  0  0  0  0  0  0  0  0  0  0  0
    0.7667   -0.6188    0.2763 C   0  0  0  0  0  0  0  0  0  0  0  0
    1.5220   -0.3587    1.4182 O   0  0  0  0  0  0  0  0  0  0  0  0
   -0.5280    0.1377    0.4151 C   0  0  0  0  0  0  0  0  0  0  0  0
   -0.3368    1.6178    0.5678 C   0  0  0  0  0  0  0  0  0  0  0  0
   -1.1446   -0.3451    1.5705 O   0  0  0  0  0  0  0  0  0  0  0  0
   -1.4400   -0.0998   -0.7833 C   0  0  0  0  0  0  0  0  0  0  0  0
   -1.6570   -1.4664   -0.8892 O   0  0  0  0  0  0  0  0  0  0  0  0
    2.6183   -0.4909   -0.7499 H   0  0  0  0  0  0  0  0  0  0  0  0
    1.4538    0.7870   -1.2551 H   0  0  0  0  0  0  0  0  0  0  0  0
    1.2683   -0.9130   -1.8205 H   0  0  0  0  0  0  0  0  0  0  0  0
    0.5116   -1.6967    0.2318 H   0  0  0  0  0  0  0  0  0  0  0  0
    1.7822   -1.1969    1.8675 H   0  0  0  0  0  0  0  0  0  0  0  0
   -0.7518    2.1976   -0.3020 H   0  0  0  0  0  0  0  0  0  0  0  0
    0.7354    1.9020    0.6426 H   0  0  0  0  0  0  0  0  0  0  0  0
   -0.8263    2.0296    1.4718 H   0  0  0  0  0  0  0  0  0  0  0  0
   -0.5152   -0.1121    2.3201 H   0  0  0  0  0  0  0  0  0  0  0  0
   -2.4284    0.3586   -0.5452 H   0  0  0  0  0  0  0  0  0  0  0  0
   -1.0618    0.3655   -1.6934 H   0  0  0  0  0  0  0  0  0  0  0  0
   -1.5008   -1.8319   -1.7793 H   0  0  0  0  0  0  0  0  0  0  0  0
  1  2  1  0
  2  3  1  0
  2  4  1  0
  4  5  1  0
  4  6  1  0
  4  7  1  0
  7  8  1  0
  1  9  1  0
  1 10  1  0
  1 11  1  0
  2 12  1  0
  3 13  1  0
  5 14  1  0
  5 15  1  0
  5 16  1  0
  6 17  1  0
  7 18  1  0
  7 19  1  0
  8 20  1  0
M  END
