
     RDKit          3D

 27 26  0  0  0  0  0  0  0  0999 V2000
    2.7199    0.2605   -0.3872 C   0  0  0  0  0  0  0  0  0  0  0  0
    1.2556    0.6266   -0.6266 C   0  0  0  0  0  0  0  0  0  0  0  0
    1.0430    1.9751   -0.5302 O   0  0  0  0  0  0  0  0  0  0  0  0
    0.4287   -0.2178    0.2728 C   0  0  0  0  0  0  0  0  0  0  0  0
    0.6634   -1.6691   -0.0427 C   0  0  0  0  0  0  0  0  0  0  0  0
   -1.0365    0.0761    0.2342 C   0  0  0  0  0  0  0  0  0  0  0  0
   -1.6946   -0.8969    1.2243 C   0  0  0  0  0  0  0  0  0  0  0  0
   -1.3745    1.4603    0.7136 C   0  0  0  0  0  0  0  0  0  0  0  0
   -1.6696   -0.1687   -1.0953 C   0  0  0  0  0  0  0  0  0  0  0  0
    3.1628   -0.2577   -1.2550 H   0  0  0  0  0  0  0  0  0  0  0  0
    2.8307   -0.4239    0.4824 H   0  0  0  0  0  0  0  0  0  0  0  0
    3.3330    1.1792   -0.2139 H   0  0  0  0  0  0  0  0  0  0  0  0
    1.0273    0.3345   -1.6939 H   0  0  0  0  0  0  0  0  0  0  0  0
    1.8904    2.4886   -0.7150 H   0  0  0  0  0  0  0  0  0  0  0  0
    0.7609   -0.0653    1.3376 H   0  0  0  0  0  0  0  0  0  0  0  0
    1.4926   -1.7754   -0.8010 H   0  0  0  0  0  0  0  0  0  0  0  0
    1.0337   -2.2491    0.8440 H   0  0  0  0  0  0  0  0  0  0  0  0
   -0.2188   -2.1954   -0.4078 H   0  0  0  0  0  0  0  0  0  0  0  0
   -2.5750   -0.4375    1.7065 H   0  0  0  0  0  0  0  0  0  0  0  0
   -1.9673   -1.8298    0.6970 H   0  0  0  0  0  0  0  0  0  0  0  0
   -0.9644   -1.1170    2.0350 H   0  0  0  0  0  0  0  0  0  0  0  0
   -1.7773    2.0816   -0.1353 H   0  0  0  0  0  0  0  0  0  0  0  0
   -0.5346    1.9853    1.1942 H   0  0  0  0  0  0  0  0  0  0  0  0
   -2.2000    1.4550    1.4855 H   0  0  0  0  0  0  0  0  0  0  0  0
   -2.7532   -0.4422   -0.9415 H   0  0  0  0  0  0  0  0  0  0  0  0
   -1.6728    0.7776   -1.6872 H   0  0  0  0  0  0  0  0  0  0  0  0
   -1.2035   -0.9546   -1.6947 H   0  0  0  0  0  0  0  0  0  0  0  0
  1  2  1  0
  2  3  1  0
  2  4  1  0
  4  5  1  0
  4  6  1  0
  6  7  1  0
  6  8  1  0
  6  9  1  0
  1 10  1  0
  1 11  1  0
  1 12  1  0
  2 13  1  0
  3 14  1  0
  4 15  1  0
  5 16  1  0
  5 17  1  0
  5 18  1  0
  7 19  1  0
  7 20  1  0
  7 21  1  0
  8 22  1  0
  8 23  1  0
  8 24  1  0
  9 25  1  0
  9 26  1  0
  9 27  1  0
M  END
