
     RDKit          3D

 17 17  0  0  0  0  0  0  0  0999 V2000
   -1.7621   -0.6355    0.2492 C   0  0  0  0  0  0  0  0  0  0  0  0
   -0.6484    0.4090    0.3890 C   0  0  0  0  0  0  0  0  0  0  0  0
   -1.0990    1.5832   -0.2063 O   0  0  0  0  0  0  0  0  0  0  0  0
    0.5527   -0.1709   -0.3248 C   0  0  0  0  0  0  0  0  0  0  0  0
    0.2465   -0.4649   -1.6324 O   0  0  0  0  0  0  0  0  0  0  0  0
    1.8407    0.5873   -0.1126 C   0  0  0  0  0  0  0  0  0  0  0  0
    2.3910   -0.5354    0.5069 O   0  0  0  0  0  0  0  0  0  0  0  0
    1.1783   -1.2385    0.4725 C   0  0  0  0  0  0  0  0  0  0  0  0
    0.7748   -2.3339    0.9305 O   0  0  0  0  0  0  0  0  0  0  0  0
   -2.5043   -0.5575    1.0496 H   0  0  0  0  0  0  0  0  0  0  0  0
   -2.1861   -0.4629   -0.7721 H   0  0  0  0  0  0  0  0  0  0  0  0
   -1.3521   -1.6634    0.2297 H   0  0  0  0  0  0  0  0  0  0  0  0
   -0.4684    0.5546    1.4651 H   0  0  0  0  0  0  0  0  0  0  0  0
   -1.1371    2.2944    0.4997 H   0  0  0  0  0  0  0  0  0  0  0  0
    0.0565    0.3898   -2.0959 H   0  0  0  0  0  0  0  0  0  0  0  0
    2.3360    0.7369   -1.1137 H   0  0  0  0  0  0  0  0  0  0  0  0
    1.7810    1.5077    0.4656 H   0  0  0  0  0  0  0  0  0  0  0  0
  1  2  1  0
  2  3  1  0
  2  4  1  0
  4  5  1  0
  4  6  1  0
  6  7  1  0
  7  8  1  0
  8  9  2  0
  8  4  1  0
  1 10  1  0
  1 11  1  0
  1 12  1  0
  2 13  1  0
  3 14  1  0
  5 15  1  0
  6 16  1  0
  6 17  1  0
M  END
