
     RDKit          3D

 19 19  0  0  0  0  0  0  0  0999 V2000
    1.9759    0.5397    0.5110 C   0  0  0  0  0  0  0  0  0  0  0  0
    1.1604   -0.7318    0.3902 C   0  0  0  0  0  0  0  0  0  0  0  0
    1.9776   -1.8192    0.0870 O   0  0  0  0  0  0  0  0  0  0  0  0
    0.0652   -0.5629   -0.6704 C   0  0  0  0  0  0  0  0  0  0  0  0
   -0.7998    0.5857   -0.2016 C   0  0  0  0  0  0  0  0  0  0  0  0
   -1.9438    0.8857   -1.1511 C   0  0  0  0  0  0  0  0  0  0  0  0
   -2.6729    1.1872    0.0437 O   0  0  0  0  0  0  0  0  0  0  0  0
   -1.9370    0.1951    0.6567 C   0  0  0  0  0  0  0  0  0  0  0  0
   -2.1769   -0.6400    1.5440 O   0  0  0  0  0  0  0  0  0  0  0  0
    2.9876    0.2172    0.8899 H   0  0  0  0  0  0  0  0  0  0  0  0
    1.4793    1.2341    1.2196 H   0  0  0  0  0  0  0  0  0  0  0  0
    2.0631    1.0414   -0.4665 H   0  0  0  0  0  0  0  0  0  0  0  0
    0.6740   -0.9075    1.3638 H   0  0  0  0  0  0  0  0  0  0  0  0
    1.4242   -2.6410    0.1638 H   0  0  0  0  0  0  0  0  0  0  0  0
   -0.4983   -1.4967   -0.7720 H   0  0  0  0  0  0  0  0  0  0  0  0
    0.5897   -0.2365   -1.5911 H   0  0  0  0  0  0  0  0  0  0  0  0
   -0.2448    1.4702    0.1533 H   0  0  0  0  0  0  0  0  0  0  0  0
   -1.7921    1.7301   -1.8283 H   0  0  0  0  0  0  0  0  0  0  0  0
   -2.3315   -0.0508   -1.5727 H   0  0  0  0  0  0  0  0  0  0  0  0
  1  2  1  0
  2  3  1  0
  2  4  1  0
  4  5  1  0
  5  6  1  0
  6  7  1  0
  7  8  1  0
  8  9  2  0
  8  5  1  0
  1 10  1  0
  1 11  1  0
  1 12  1  0
  2 13  1  0
  3 14  1  0
  4 15  1  0
  4 16  1  0
  5 17  1  0
  6 18  1  0
  6 19  1  0
M  END
