
     RDKit          3D

 21 22  0  0  0  0  0  0  0  0999 V2000
   -1.8694    0.8615   -0.5358 C   0  0  0  0  0  0  0  0  0  0  0  0
   -1.8310   -0.5320    0.0195 C   0  0  0  0  0  0  0  0  0  0  0  0
   -2.2743   -0.5069    1.3467 O   0  0  0  0  0  0  0  0  0  0  0  0
   -0.5496   -1.2480   -0.1655 C   0  0  0  0  0  0  0  0  0  0  0  0
    0.6677   -0.6685    0.4335 C   0  0  0  0  0  0  0  0  0  0  0  0
    1.2357    0.6483    0.1275 C   0  0  0  0  0  0  0  0  0  0  0  0
    2.6801    0.9326    0.4706 C   0  0  0  0  0  0  0  0  0  0  0  0
    3.1039   -0.3147    0.0538 O   0  0  0  0  0  0  0  0  0  0  0  0
    1.8648   -0.5436   -0.4940 C   0  0  0  0  0  0  0  0  0  0  0  0
   -1.3164    0.9228   -1.4985 H   0  0  0  0  0  0  0  0  0  0  0  0
   -1.4586    1.6079    0.1674 H   0  0  0  0  0  0  0  0  0  0  0  0
   -2.9252    1.1681   -0.8054 H   0  0  0  0  0  0  0  0  0  0  0  0
   -2.6195   -1.1164   -0.5355 H   0  0  0  0  0  0  0  0  0  0  0  0
   -3.1493   -0.0023    1.3167 H   0  0  0  0  0  0  0  0  0  0  0  0
   -0.3927   -1.3539   -1.2806 H   0  0  0  0  0  0  0  0  0  0  0  0
   -0.6078   -2.3241    0.1752 H   0  0  0  0  0  0  0  0  0  0  0  0
    0.9911   -1.1095    1.4185 H   0  0  0  0  0  0  0  0  0  0  0  0
    0.8036    1.4009   -0.5361 H   0  0  0  0  0  0  0  0  0  0  0  0
    2.7562    1.1096    1.5717 H   0  0  0  0  0  0  0  0  0  0  0  0
    3.1657    1.7259   -0.1267 H   0  0  0  0  0  0  0  0  0  0  0  0
    1.7252   -0.6577   -1.5741 H   0  0  0  0  0  0  0  0  0  0  0  0
  1  2  1  0
  2  3  1  0
  2  4  1  0
  4  5  1  0
  5  6  1  0
  6  7  1  0
  7  8  1  0
  8  9  1  0
  9  5  1  0
  9  6  1  0
  1 10  1  0
  1 11  1  0
  1 12  1  0
  2 13  1  0
  3 14  1  0
  4 15  1  0
  4 16  1  0
  5 17  1  0
  6 18  1  0
  7 19  1  0
  7 20  1  0
  9 21  1  0
M  END
