
     RDKit          3D

 19 19  0  0  0  0  0  0  0  0999 V2000
    2.0470    0.3211   -0.4995 C   0  0  0  0  0  0  0  0  0  0  0  0
    1.4883   -0.4212    0.6720 C   0  0  0  0  0  0  0  0  0  0  0  0
    1.7932   -1.7898    0.4996 O   0  0  0  0  0  0  0  0  0  0  0  0
   -0.0045   -0.3301    0.7326 C   0  0  0  0  0  0  0  0  0  0  0  0
   -0.6198   -0.7992   -0.4141 O   0  0  0  0  0  0  0  0  0  0  0  0
   -1.9282   -0.3551   -0.3781 C   0  0  0  0  0  0  0  0  0  0  0  0
   -1.9456    0.9007    0.4777 C   0  0  0  0  0  0  0  0  0  0  0  0
   -0.5239    1.0383    0.8215 C   0  0  0  0  0  0  0  0  0  0  0  0
    0.0609    2.0335    1.1049 O   0  0  0  0  0  0  0  0  0  0  0  0
    2.7079   -0.3102   -1.1409 H   0  0  0  0  0  0  0  0  0  0  0  0
    1.2611    0.8310   -1.0984 H   0  0  0  0  0  0  0  0  0  0  0  0
    2.7056    1.1306   -0.1093 H   0  0  0  0  0  0  0  0  0  0  0  0
    1.9391   -0.1430    1.6440 H   0  0  0  0  0  0  0  0  0  0  0  0
    1.1335   -2.3644    0.9793 H   0  0  0  0  0  0  0  0  0  0  0  0
   -0.3639   -0.9784    1.5768 H   0  0  0  0  0  0  0  0  0  0  0  0
   -2.2804   -0.1120   -1.4187 H   0  0  0  0  0  0  0  0  0  0  0  0
   -2.6025   -1.1396    0.0051 H   0  0  0  0  0  0  0  0  0  0  0  0
   -2.3600    1.7679   -0.0645 H   0  0  0  0  0  0  0  0  0  0  0  0
   -2.5077    0.7199    1.4356 H   0  0  0  0  0  0  0  0  0  0  0  0
  1  2  1  0
  2  3  1  0
  2  4  1  0
  4  5  1  0
  5  6  1  0
  6  7  1  0
  7  8  1  0
  8  9  2  0
  8  4  1  0
  1 10  1  0
  1 11  1  0
  1 12  1  0
  2 13  1  0
  3 14  1  0
  4 15  1  0
  6 16  1  0
  6 17  1  0
  7 18  1  0
  7 19  1  0
M  END
