
     RDKit          3D

 17 16  0  0  0  0  0  0  0  0999 V2000
   -1.5134   -0.9526    0.0899 C   0  0  0  0  0  0  0  0  0  0  0  0
   -0.7603    0.3494   -0.1665 C   0  0  0  0  0  0  0  0  0  0  0  0
   -1.4677    1.0112   -1.1662 O   0  0  0  0  0  0  0  0  0  0  0  0
   -0.8229    1.1602    1.0711 C   0  0  0  0  0  0  0  0  0  0  0  0
   -1.4042    2.2223    1.1637 O   0  0  0  0  0  0  0  0  0  0  0  0
    0.6387    0.0870   -0.5918 C   0  0  0  0  0  0  0  0  0  0  0  0
    0.9773    0.4630   -1.7040 O   0  0  0  0  0  0  0  0  0  0  0  0
    1.6466   -0.5933    0.2298 C   0  0  0  0  0  0  0  0  0  0  0  0
    2.8652   -0.6959   -0.4303 O   0  0  0  0  0  0  0  0  0  0  0  0
   -2.5649   -0.8988   -0.2203 H   0  0  0  0  0  0  0  0  0  0  0  0
   -1.4837   -1.2127    1.1717 H   0  0  0  0  0  0  0  0  0  0  0  0
   -1.0343   -1.7318   -0.5401 H   0  0  0  0  0  0  0  0  0  0  0  0
   -0.9052    1.6430   -1.6712 H   0  0  0  0  0  0  0  0  0  0  0  0
   -0.3258    0.7997    1.9574 H   0  0  0  0  0  0  0  0  0  0  0  0
    1.7629   -0.1719    1.2420 H   0  0  0  0  0  0  0  0  0  0  0  0
    1.2882   -1.6549    0.3751 H   0  0  0  0  0  0  0  0  0  0  0  0
    3.1036    0.1762   -0.8103 H   0  0  0  0  0  0  0  0  0  0  0  0
  1  2  1  0
  2  3  1  0
  2  4  1  0
  4  5  2  0
  2  6  1  0
  6  7  2  0
  6  8  1  0
  8  9  1  0
  1 10  1  0
  1 11  1  0
  1 12  1  0
  3 13  1  0
  4 14  1  0
  8 15  1  0
  8 16  1  0
  9 17  1  0
M  END
