
     RDKit          3D

 20 20  0  0  0  0  0  0  0  0999 V2000
   -2.7399    0.3454   -0.1919 C   0  0  0  0  0  0  0  0  0  0  0  0
   -1.4312    0.0841    0.5617 C   0  0  0  0  0  0  0  0  0  0  0  0
   -1.2778   -1.2269    0.9154 O   0  0  0  0  0  0  0  0  0  0  0  0
   -0.3330    0.6442   -0.2734 C   0  0  0  0  0  0  0  0  0  0  0  0
    1.0320    0.4936    0.2830 C   0  0  0  0  0  0  0  0  0  0  0  0
    1.5603   -0.8594    0.5495 C   0  0  0  0  0  0  0  0  0  0  0  0
    2.8210   -0.1963   -0.0123 C   0  0  0  0  0  0  0  0  0  0  0  0
    1.9892    0.6571   -0.7301 O   0  0  0  0  0  0  0  0  0  0  0  0
   -2.9048    1.4579   -0.1651 H   0  0  0  0  0  0  0  0  0  0  0  0
   -2.5409    0.0278   -1.2494 H   0  0  0  0  0  0  0  0  0  0  0  0
   -3.5834   -0.1880    0.2657 H   0  0  0  0  0  0  0  0  0  0  0  0
   -1.4879    0.6808    1.5144 H   0  0  0  0  0  0  0  0  0  0  0  0
   -1.1167   -1.8547    0.1959 H   0  0  0  0  0  0  0  0  0  0  0  0
   -0.5216    1.7535   -0.3641 H   0  0  0  0  0  0  0  0  0  0  0  0
   -0.4206    0.2741   -1.3356 H   0  0  0  0  0  0  0  0  0  0  0  0
    1.2485    1.2107    1.0916 H   0  0  0  0  0  0  0  0  0  0  0  0
    1.6316   -1.1205    1.6260 H   0  0  0  0  0  0  0  0  0  0  0  0
    1.2531   -1.6600   -0.1303 H   0  0  0  0  0  0  0  0  0  0  0  0
    3.4044    0.3764    0.7116 H   0  0  0  0  0  0  0  0  0  0  0  0
    3.4177   -0.8998   -0.6202 H   0  0  0  0  0  0  0  0  0  0  0  0
  1  2  1  0
  2  3  1  0
  2  4  1  0
  4  5  1  0
  5  6  1  0
  6  7  1  0
  7  8  1  0
  8  5  1  0
  1  9  1  0
  1 10  1  0
  1 11  1  0
  2 12  1  0
  3 13  1  0
  4 14  1  0
  4 15  1  0
  5 16  1  0
  6 17  1  0
  6 18  1  0
  7 19  1  0
  7 20  1  0
M  END
