
     RDKit          3D

 21 22  0  0  0  0  0  0  0  0999 V2000
   -2.6487   -0.3800   -0.3597 C   0  0  0  0  0  0  0  0  0  0  0  0
   -1.2629    0.2123   -0.5249 C   0  0  0  0  0  0  0  0  0  0  0  0
   -1.4321    1.5602   -0.8473 O   0  0  0  0  0  0  0  0  0  0  0  0
   -0.5466    0.0045    0.7718 C   0  0  0  0  0  0  0  0  0  0  0  0
    0.8347    0.4452    1.0050 C   0  0  0  0  0  0  0  0  0  0  0  0
    1.7995    0.7326   -0.0947 C   0  0  0  0  0  0  0  0  0  0  0  0
    2.1930   -0.6409   -0.6464 C   0  0  0  0  0  0  0  0  0  0  0  0
    1.0419   -1.3635   -0.4532 O   0  0  0  0  0  0  0  0  0  0  0  0
    0.5310   -1.0393    0.7762 C   0  0  0  0  0  0  0  0  0  0  0  0
   -3.0698   -0.1647    0.6485 H   0  0  0  0  0  0  0  0  0  0  0  0
   -3.2922    0.1072   -1.1182 H   0  0  0  0  0  0  0  0  0  0  0  0
   -2.6347   -1.4747   -0.5644 H   0  0  0  0  0  0  0  0  0  0  0  0
   -0.7900   -0.3411   -1.3740 H   0  0  0  0  0  0  0  0  0  0  0  0
   -0.9498    2.1415   -0.1816 H   0  0  0  0  0  0  0  0  0  0  0  0
   -1.2247    0.0896    1.6647 H   0  0  0  0  0  0  0  0  0  0  0  0
    1.1307    0.7489    2.0281 H   0  0  0  0  0  0  0  0  0  0  0  0
    2.7311    1.1629    0.3271 H   0  0  0  0  0  0  0  0  0  0  0  0
    1.4439    1.4097   -0.8694 H   0  0  0  0  0  0  0  0  0  0  0  0
    2.4261   -0.4577   -1.7213 H   0  0  0  0  0  0  0  0  0  0  0  0
    3.0747   -1.0434   -0.1052 H   0  0  0  0  0  0  0  0  0  0  0  0
    0.6451   -1.7095    1.6392 H   0  0  0  0  0  0  0  0  0  0  0  0
  1  2  1  0
  2  3  1  0
  2  4  1  0
  4  5  1  0
  5  6  1  0
  6  7  1  0
  7  8  1  0
  8  9  1  0
  9  4  1  0
  9  5  1  0
  1 10  1  0
  1 11  1  0
  1 12  1  0
  2 13  1  0
  3 14  1  0
  4 15  1  0
  5 16  1  0
  6 17  1  0
  6 18  1  0
  7 19  1  0
  7 20  1  0
  9 21  1  0
M  END
