
     RDKit          3D

 25 25  0  0  0  0  0  0  0  0999 V2000
    2.4660   -0.7148   -0.7952 C   0  0  0  0  0  0  0  0  0  0  0  0
    1.5829    0.4421   -0.3944 C   0  0  0  0  0  0  0  0  0  0  0  0
    2.1562    1.0599    0.7182 O   0  0  0  0  0  0  0  0  0  0  0  0
    0.1798    0.0390   -0.0793 C   0  0  0  0  0  0  0  0  0  0  0  0
    0.0436   -0.9464    1.0529 C   0  0  0  0  0  0  0  0  0  0  0  0
   -0.8491    1.1615   -0.1967 C   0  0  0  0  0  0  0  0  0  0  0  0
   -1.8246    1.3330    0.9287 C   0  0  0  0  0  0  0  0  0  0  0  0
   -0.8808    0.0226   -1.1197 C   0  0  0  0  0  0  0  0  0  0  0  0
   -1.9591   -1.0378   -1.0531 C   0  0  0  0  0  0  0  0  0  0  0  0
    2.1869   -1.6631   -0.3361 H   0  0  0  0  0  0  0  0  0  0  0  0
    2.4851   -0.8332   -1.9130 H   0  0  0  0  0  0  0  0  0  0  0  0
    3.5090   -0.4371   -0.5160 H   0  0  0  0  0  0  0  0  0  0  0  0
    1.6272    1.1811   -1.2251 H   0  0  0  0  0  0  0  0  0  0  0  0
    3.0585    1.4274    0.4538 H   0  0  0  0  0  0  0  0  0  0  0  0
   -0.9595   -1.0023    1.4790 H   0  0  0  0  0  0  0  0  0  0  0  0
    0.4375   -1.9286    0.7059 H   0  0  0  0  0  0  0  0  0  0  0  0
    0.7373   -0.5921    1.8684 H   0  0  0  0  0  0  0  0  0  0  0  0
   -0.4918    2.1403   -0.6328 H   0  0  0  0  0  0  0  0  0  0  0  0
   -1.3231    1.5051    1.9153 H   0  0  0  0  0  0  0  0  0  0  0  0
   -2.4984    0.4744    1.0787 H   0  0  0  0  0  0  0  0  0  0  0  0
   -2.4798    2.1988    0.6613 H   0  0  0  0  0  0  0  0  0  0  0  0
   -0.5064    0.1776   -2.1622 H   0  0  0  0  0  0  0  0  0  0  0  0
   -2.3342   -1.2212   -0.0432 H   0  0  0  0  0  0  0  0  0  0  0  0
   -1.5451   -2.0142   -1.4169 H   0  0  0  0  0  0  0  0  0  0  0  0
   -2.8182   -0.7718   -1.7033 H   0  0  0  0  0  0  0  0  0  0  0  0
  1  2  1  0
  2  3  1  0
  2  4  1  0
  4  5  1  0
  4  6  1  0
  6  7  1  0
  6  8  1  0
  8  9  1  0
  8  4  1  0
  1 10  1  0
  1 11  1  0
  1 12  1  0
  2 13  1  0
  3 14  1  0
  5 15  1  0
  5 16  1  0
  5 17  1  0
  6 18  1  0
  7 19  1  0
  7 20  1  0
  7 21  1  0
  8 22  1  0
  9 23  1  0
  9 24  1  0
  9 25  1  0
M  END
