
     RDKit          3D

 17 18  0  0  0  0  0  0  0  0999 V2000
   -1.6439    0.4322    0.5120 C   0  0  0  0  0  0  0  0  0  0  0  0
   -0.9328   -0.3007   -0.5712 C   0  0  0  0  0  0  0  0  0  0  0  0
   -1.2669   -1.6565   -0.4625 O   0  0  0  0  0  0  0  0  0  0  0  0
    0.5497   -0.1430   -0.5563 C   0  0  0  0  0  0  0  0  0  0  0  0
    1.2010   -0.6343    0.7268 C   0  0  0  0  0  0  0  0  0  0  0  0
    0.9345   -1.3910    1.6270 O   0  0  0  0  0  0  0  0  0  0  0  0
    2.2650    0.2923    0.2496 C   0  0  0  0  0  0  0  0  0  0  0  0
    2.2414    1.6103    0.1947 O   0  0  0  0  0  0  0  0  0  0  0  0
    1.0016    1.1825    0.0244 C   0  0  0  0  0  0  0  0  0  0  0  0
   -1.5707    1.5356    0.3666 H   0  0  0  0  0  0  0  0  0  0  0  0
   -2.7263    0.1850    0.4388 H   0  0  0  0  0  0  0  0  0  0  0  0
   -1.3241    0.1623    1.5295 H   0  0  0  0  0  0  0  0  0  0  0  0
   -1.3160    0.0401   -1.5401 H   0  0  0  0  0  0  0  0  0  0  0  0
   -1.5442   -2.0409   -1.3377 H   0  0  0  0  0  0  0  0  0  0  0  0
    1.0572   -0.4815   -1.4580 H   0  0  0  0  0  0  0  0  0  0  0  0
    2.6945   -0.1547   -0.7036 H   0  0  0  0  0  0  0  0  0  0  0  0
    0.3802    1.3623    0.9600 H   0  0  0  0  0  0  0  0  0  0  0  0
  1  2  1  0
  2  3  1  0
  2  4  1  0
  4  5  1  0
  5  6  2  0
  5  7  1  0
  7  8  1  0
  8  9  1  0
  9  4  1  0
  9  7  1  0
  1 10  1  0
  1 11  1  0
  1 12  1  0
  2 13  1  0
  3 14  1  0
  4 15  1  0
  7 16  1  0
  9 17  1  0
M  END
