
     RDKit          3D

 18 19  0  0  0  0  0  0  0  0999 V2000
    2.0590    0.7696   -0.4839 C   0  0  0  0  0  0  0  0  0  0  0  0
    1.3033   -0.4602   -0.0158 C   0  0  0  0  0  0  0  0  0  0  0  0
    1.2704   -1.4282   -1.0071 O   0  0  0  0  0  0  0  0  0  0  0  0
   -0.0803   -0.0188    0.3945 C   0  0  0  0  0  0  0  0  0  0  0  0
   -0.9001   -1.0041    0.8984 O   0  0  0  0  0  0  0  0  0  0  0  0
   -1.9912   -0.7501    0.1072 C   0  0  0  0  0  0  0  0  0  0  0  0
   -2.4407    0.5907   -0.2694 C   0  0  0  0  0  0  0  0  0  0  0  0
   -1.0557    0.1912   -0.7165 C   0  0  0  0  0  0  0  0  0  0  0  0
    1.7424    1.6325    0.1517 H   0  0  0  0  0  0  0  0  0  0  0  0
    1.8267    1.0405   -1.5296 H   0  0  0  0  0  0  0  0  0  0  0  0
    3.1607    0.6009   -0.4022 H   0  0  0  0  0  0  0  0  0  0  0  0
    1.8459   -0.9032    0.8452 H   0  0  0  0  0  0  0  0  0  0  0  0
    2.2053   -1.5264   -1.3347 H   0  0  0  0  0  0  0  0  0  0  0  0
   -0.0472    0.8514    1.0738 H   0  0  0  0  0  0  0  0  0  0  0  0
   -2.4196   -1.6075   -0.4320 H   0  0  0  0  0  0  0  0  0  0  0  0
   -2.4306    1.4579    0.4346 H   0  0  0  0  0  0  0  0  0  0  0  0
   -3.1928    0.6732   -1.0541 H   0  0  0  0  0  0  0  0  0  0  0  0
   -0.8554   -0.1095   -1.7394 H   0  0  0  0  0  0  0  0  0  0  0  0
  1  2  1  0
  2  3  1  0
  2  4  1  0
  4  5  1  0
  5  6  1  0
  6  7  1  0
  7  8  1  0
  8  4  1  0
  8  6  1  0
  1  9  1  0
  1 10  1  0
  1 11  1  0
  2 12  1  0
  3 13  1  0
  4 14  1  0
  6 15  1  0
  7 16  1  0
  7 17  1  0
  8 18  1  0
M  END
