
     RDKit          3D

 21 21  0  0  0  0  0  0  0  0999 V2000
    1.5791    0.7803   -1.0686 C   0  0  0  0  0  0  0  0  0  0  0  0
    1.1451    0.1482    0.2174 C   0  0  0  0  0  0  0  0  0  0  0  0
    1.3478    1.0835    1.2356 O   0  0  0  0  0  0  0  0  0  0  0  0
   -0.3405   -0.1577    0.2029 C   0  0  0  0  0  0  0  0  0  0  0  0
   -1.2376    1.0333    0.0166 C   0  0  0  0  0  0  0  0  0  0  0  0
   -1.0834    1.9824    1.0205 O   0  0  0  0  0  0  0  0  0  0  0  0
   -0.8893   -1.2716    1.0162 C   0  0  0  0  0  0  0  0  0  0  0  0
   -0.7001   -1.4588   -0.4284 C   0  0  0  0  0  0  0  0  0  0  0  0
    0.2773   -2.3312   -0.8384 O   0  0  0  0  0  0  0  0  0  0  0  0
    0.7842    1.2974   -1.6154 H   0  0  0  0  0  0  0  0  0  0  0  0
    2.4270    1.4836   -0.8804 H   0  0  0  0  0  0  0  0  0  0  0  0
    2.0019    0.0218   -1.7890 H   0  0  0  0  0  0  0  0  0  0  0  0
    1.7457   -0.7663    0.3721 H   0  0  0  0  0  0  0  0  0  0  0  0
    1.6047    0.5899    2.0386 H   0  0  0  0  0  0  0  0  0  0  0  0
   -2.3055    0.6760    0.0936 H   0  0  0  0  0  0  0  0  0  0  0  0
   -1.1541    1.4620   -1.0003 H   0  0  0  0  0  0  0  0  0  0  0  0
   -1.2573    2.8699    0.6189 H   0  0  0  0  0  0  0  0  0  0  0  0
   -0.2284   -1.7044    1.7769 H   0  0  0  0  0  0  0  0  0  0  0  0
   -1.9470   -1.1788    1.3733 H   0  0  0  0  0  0  0  0  0  0  0  0
   -1.6164   -1.4566   -1.0819 H   0  0  0  0  0  0  0  0  0  0  0  0
   -0.1533   -3.1030   -1.2800 H   0  0  0  0  0  0  0  0  0  0  0  0
  1  2  1  0
  2  3  1  0
  2  4  1  0
  4  5  1  0
  5  6  1  0
  4  7  1  0
  7  8  1  0
  8  9  1  0
  8  4  1  0
  1 10  1  0
  1 11  1  0
  1 12  1  0
  2 13  1  0
  3 14  1  0
  5 15  1  0
  5 16  1  0
  6 17  1  0
  7 18  1  0
  7 19  1  0
  8 20  1  0
  9 21  1  0
M  END
