
     RDKit          3D

 23 22  0  0  0  0  0  0  0  0999 V2000
   -1.9879   -1.5123   -0.5692 C   0  0  0  0  0  0  0  0  0  0  0  0
   -1.0668   -0.5864    0.2525 C   0  0  0  0  0  0  0  0  0  0  0  0
   -0.9467   -1.2147    1.4904 O   0  0  0  0  0  0  0  0  0  0  0  0
   -1.7848    0.7134    0.3474 C   0  0  0  0  0  0  0  0  0  0  0  0
   -1.2298    1.6575    1.1693 O   0  0  0  0  0  0  0  0  0  0  0  0
    0.2512   -0.4370   -0.4189 C   0  0  0  0  0  0  0  0  0  0  0  0
    1.2446    0.4421    0.2855 C   0  0  0  0  0  0  0  0  0  0  0  0
    2.5019    0.4206   -0.5825 C   0  0  0  0  0  0  0  0  0  0  0  0
    3.5041    1.2088   -0.0250 O   0  0  0  0  0  0  0  0  0  0  0  0
   -2.1484   -1.0562   -1.5651 H   0  0  0  0  0  0  0  0  0  0  0  0
   -2.9842   -1.5152   -0.0619 H   0  0  0  0  0  0  0  0  0  0  0  0
   -1.5123   -2.4938   -0.5861 H   0  0  0  0  0  0  0  0  0  0  0  0
   -0.0646   -1.6883    1.4879 H   0  0  0  0  0  0  0  0  0  0  0  0
   -2.8100    0.5059    0.7221 H   0  0  0  0  0  0  0  0  0  0  0  0
   -1.8624    1.1181   -0.7031 H   0  0  0  0  0  0  0  0  0  0  0  0
   -1.4968    2.5643    0.8299 H   0  0  0  0  0  0  0  0  0  0  0  0
    0.0999    0.0151   -1.4338 H   0  0  0  0  0  0  0  0  0  0  0  0
    0.6894   -1.4518   -0.6337 H   0  0  0  0  0  0  0  0  0  0  0  0
    1.5020    0.0912    1.2950 H   0  0  0  0  0  0  0  0  0  0  0  0
    0.8855    1.5016    0.3036 H   0  0  0  0  0  0  0  0  0  0  0  0
    2.2016    0.8055   -1.5702 H   0  0  0  0  0  0  0  0  0  0  0  0
    2.8679   -0.6052   -0.6672 H   0  0  0  0  0  0  0  0  0  0  0  0
    4.1467    1.5169   -0.6917 H   0  0  0  0  0  0  0  0  0  0  0  0
  1  2  1  0
  2  3  1  0
  2  4  1  0
  4  5  1  0
  2  6  1  0
  6  7  1  0
  7  8  1  0
  8  9  1  0
  1 10  1  0
  1 11  1  0
  1 12  1  0
  3 13  1  0
  4 14  1  0
  4 15  1  0
  5 16  1  0
  6 17  1  0
  6 18  1  0
  7 19  1  0
  7 20  1  0
  8 21  1  0
  8 22  1  0
  9 23  1  0
M  END
