
     RDKit          3D

 23 23  0  0  0  0  0  0  0  0999 V2000
    1.5278    1.4882   -0.3219 C   0  0  0  0  0  0  0  0  0  0  0  0
    1.0863    0.1174   -0.7188 C   0  0  0  0  0  0  0  0  0  0  0  0
    2.2144   -0.5414   -1.2278 O   0  0  0  0  0  0  0  0  0  0  0  0
    0.5629   -0.7137    0.4106 C   0  0  0  0  0  0  0  0  0  0  0  0
    0.1628   -2.0604   -0.1588 C   0  0  0  0  0  0  0  0  0  0  0  0
   -0.6672   -0.1180    1.0571 C   0  0  0  0  0  0  0  0  0  0  0  0
   -1.8433    0.0578    0.1265 C   0  0  0  0  0  0  0  0  0  0  0  0
   -1.8645    1.4421    0.7134 C   0  0  0  0  0  0  0  0  0  0  0  0
   -0.6136    1.2282    1.3329 O   0  0  0  0  0  0  0  0  0  0  0  0
    2.1010    1.3974    0.6470 H   0  0  0  0  0  0  0  0  0  0  0  0
    2.3045    1.8160   -1.0725 H   0  0  0  0  0  0  0  0  0  0  0  0
    0.7398    2.2386   -0.2827 H   0  0  0  0  0  0  0  0  0  0  0  0
    0.3663    0.1750   -1.5639 H   0  0  0  0  0  0  0  0  0  0  0  0
    1.9823   -1.1407   -1.9722 H   0  0  0  0  0  0  0  0  0  0  0  0
    1.3493   -0.8608    1.1544 H   0  0  0  0  0  0  0  0  0  0  0  0
   -0.2467   -1.9864   -1.1773 H   0  0  0  0  0  0  0  0  0  0  0  0
    1.0928   -2.6679   -0.2201 H   0  0  0  0  0  0  0  0  0  0  0  0
   -0.5176   -2.5365    0.5581 H   0  0  0  0  0  0  0  0  0  0  0  0
   -0.9815   -0.7701    1.9096 H   0  0  0  0  0  0  0  0  0  0  0  0
   -1.6108    0.0637   -0.9504 H   0  0  0  0  0  0  0  0  0  0  0  0
   -2.7320   -0.5680    0.3623 H   0  0  0  0  0  0  0  0  0  0  0  0
   -1.7431    2.2729   -0.0256 H   0  0  0  0  0  0  0  0  0  0  0  0
   -2.6700    1.6666    1.4199 H   0  0  0  0  0  0  0  0  0  0  0  0
  1  2  1  0
  2  3  1  0
  2  4  1  0
  4  5  1  0
  4  6  1  0
  6  7  1  0
  7  8  1  0
  8  9  1  0
  9  6  1  0
  1 10  1  0
  1 11  1  0
  1 12  1  0
  2 13  1  0
  3 14  1  0
  4 15  1  0
  5 16  1  0
  5 17  1  0
  5 18  1  0
  6 19  1  0
  7 20  1  0
  7 21  1  0
  8 22  1  0
  8 23  1  0
M  END
