
     RDKit          3D

 16 15  0  0  0  0  0  0  0  0999 V2000
    1.6830   -0.4040    0.6861 C   0  0  0  0  0  0  0  0  0  0  0  0
    1.3841    0.3508   -0.5602 C   0  0  0  0  0  0  0  0  0  0  0  0
    1.3358   -0.5254   -1.6286 O   0  0  0  0  0  0  0  0  0  0  0  0
    0.1743    1.2317   -0.4670 C   0  0  0  0  0  0  0  0  0  0  0  0
   -1.0074    0.4429   -0.1683 C   0  0  0  0  0  0  0  0  0  0  0  0
   -1.9802   -0.2121    0.0991 C   0  0  0  0  0  0  0  0  0  0  0  0
   -3.1436   -1.0244    0.4144 C   0  0  0  0  0  0  0  0  0  0  0  0
   -4.3188   -0.5699    0.2923 O   0  0  0  0  0  0  0  0  0  0  0  0
    0.8333   -0.9060    1.1467 H   0  0  0  0  0  0  0  0  0  0  0  0
    2.4552   -1.1839    0.4242 H   0  0  0  0  0  0  0  0  0  0  0  0
    2.1988    0.2519    1.4405 H   0  0  0  0  0  0  0  0  0  0  0  0
    2.2617    1.0339   -0.7572 H   0  0  0  0  0  0  0  0  0  0  0  0
    0.7400   -0.2059   -2.3630 H   0  0  0  0  0  0  0  0  0  0  0  0
    0.0763    1.7446   -1.4654 H   0  0  0  0  0  0  0  0  0  0  0  0
    0.3573    2.0230    0.2787 H   0  0  0  0  0  0  0  0  0  0  0  0
   -3.0498   -2.0471    0.7650 H   0  0  0  0  0  0  0  0  0  0  0  0
  1  2  1  0
  2  3  1  0
  2  4  1  0
  4  5  1  0
  5  6  3  0
  6  7  1  0
  7  8  2  0
  1  9  1  0
  1 10  1  0
  1 11  1  0
  2 12  1  0
  3 13  1  0
  4 14  1  0
  4 15  1  0
  7 16  1  0
M  END
