
     RDKit          3D

 21 21  0  0  0  0  0  0  0  0999 V2000
    1.8008    0.7449   -0.4011 C   0  0  0  0  0  0  0  0  0  0  0  0
    1.0700   -0.5114    0.0210 C   0  0  0  0  0  0  0  0  0  0  0  0
    1.3951   -0.7274    1.3824 O   0  0  0  0  0  0  0  0  0  0  0  0
   -0.4242   -0.3046   -0.0020 C   0  0  0  0  0  0  0  0  0  0  0  0
   -0.9260    0.7848    0.9069 C   0  0  0  0  0  0  0  0  0  0  0  0
   -0.3969    2.0320    0.6088 O   0  0  0  0  0  0  0  0  0  0  0  0
   -1.2596   -1.5451    0.0747 C   0  0  0  0  0  0  0  0  0  0  0  0
   -2.1059   -0.9672   -0.8753 O   0  0  0  0  0  0  0  0  0  0  0  0
   -0.9961   -0.3283   -1.3880 C   0  0  0  0  0  0  0  0  0  0  0  0
    2.7496    0.4646   -0.8986 H   0  0  0  0  0  0  0  0  0  0  0  0
    1.1555    1.3190   -1.0957 H   0  0  0  0  0  0  0  0  0  0  0  0
    1.9741    1.3833    0.4888 H   0  0  0  0  0  0  0  0  0  0  0  0
    1.3897   -1.4029   -0.5151 H   0  0  0  0  0  0  0  0  0  0  0  0
    2.3282   -0.3756    1.5197 H   0  0  0  0  0  0  0  0  0  0  0  0
   -2.0316    0.7836    0.9929 H   0  0  0  0  0  0  0  0  0  0  0  0
   -0.5628    0.5122    1.9420 H   0  0  0  0  0  0  0  0  0  0  0  0
   -1.1837    2.5951    0.3189 H   0  0  0  0  0  0  0  0  0  0  0  0
   -1.7266   -1.6447    1.0927 H   0  0  0  0  0  0  0  0  0  0  0  0
   -0.7558   -2.4682   -0.2567 H   0  0  0  0  0  0  0  0  0  0  0  0
   -0.3441   -0.9820   -2.0394 H   0  0  0  0  0  0  0  0  0  0  0  0
   -1.1497    0.6378   -1.8771 H   0  0  0  0  0  0  0  0  0  0  0  0
  1  2  1  0
  2  3  1  0
  2  4  1  0
  4  5  1  0
  5  6  1  0
  4  7  1  0
  7  8  1  0
  8  9  1  0
  9  4  1  0
  1 10  1  0
  1 11  1  0
  1 12  1  0
  2 13  1  0
  3 14  1  0
  5 15  1  0
  5 16  1  0
  6 17  1  0
  7 18  1  0
  7 19  1  0
  9 20  1  0
  9 21  1  0
M  END
