
     RDKit          3D

 23 22  0  0  0  0  0  0  0  0999 V2000
    3.1367    1.9475    0.8976 C   0  0  0  0  0  0  0  0  0  0  0  0
    1.9703    2.1222   -0.0313 C   0  0  0  0  0  0  0  0  0  0  0  0
    2.3115    2.2307   -1.3715 O   0  0  0  0  0  0  0  0  0  0  0  0
    1.0857    0.8987    0.1410 C   0  0  0  0  0  0  0  0  0  0  0  0
    0.3448   -0.1089    0.2805 C   0  0  0  0  0  0  0  0  0  0  0  0
   -0.4860   -1.2015    0.4235 C   0  0  0  0  0  0  0  0  0  0  0  0
   -1.4569   -1.3562   -0.7601 C   0  0  0  0  0  0  0  0  0  0  0  0
   -2.2846   -2.5856   -0.3849 C   0  0  0  0  0  0  0  0  0  0  0  0
   -2.3547   -0.1915   -0.8997 C   0  0  0  0  0  0  0  0  0  0  0  0
    3.0438    1.0404    1.5327 H   0  0  0  0  0  0  0  0  0  0  0  0
    3.1094    2.8143    1.6043 H   0  0  0  0  0  0  0  0  0  0  0  0
    4.0684    1.9730    0.3089 H   0  0  0  0  0  0  0  0  0  0  0  0
    1.3427    2.9639    0.2880 H   0  0  0  0  0  0  0  0  0  0  0  0
    3.2801    2.4706   -1.3829 H   0  0  0  0  0  0  0  0  0  0  0  0
    0.0627   -2.2088    0.4154 H   0  0  0  0  0  0  0  0  0  0  0  0
   -1.0906   -1.1928    1.3837 H   0  0  0  0  0  0  0  0  0  0  0  0
   -0.8877   -1.5345   -1.6763 H   0  0  0  0  0  0  0  0  0  0  0  0
   -2.9757   -2.2037    0.4411 H   0  0  0  0  0  0  0  0  0  0  0  0
   -2.8814   -2.9629   -1.1975 H   0  0  0  0  0  0  0  0  0  0  0  0
   -1.6197   -3.3157    0.1265 H   0  0  0  0  0  0  0  0  0  0  0  0
   -2.8516   -0.1854   -1.8998 H   0  0  0  0  0  0  0  0  0  0  0  0
   -1.7373    0.7468   -0.8023 H   0  0  0  0  0  0  0  0  0  0  0  0
   -3.1299   -0.1606   -0.1062 H   0  0  0  0  0  0  0  0  0  0  0  0
  1  2  1  0
  2  3  1  0
  2  4  1  0
  4  5  3  0
  5  6  1  0
  6  7  1  0
  7  8  1  0
  7  9  1  0
  1 10  1  0
  1 11  1  0
  1 12  1  0
  2 13  1  0
  3 14  1  0
  6 15  1  0
  6 16  1  0
  7 17  1  0
  8 18  1  0
  8 19  1  0
  8 20  1  0
  9 21  1  0
  9 22  1  0
  9 23  1  0
M  END
