
     RDKit          3D

 21 22  0  0  0  0  0  0  0  0999 V2000
   -2.1745    0.6367    0.0629 C   0  0  0  0  0  0  0  0  0  0  0  0
   -1.2949   -0.6245    0.0950 C   0  0  0  0  0  0  0  0  0  0  0  0
   -1.7277   -1.4058   -0.9831 O   0  0  0  0  0  0  0  0  0  0  0  0
    0.0329   -0.3188    0.0570 C   0  0  0  0  0  0  0  0  0  0  0  0
    0.8205    0.5081    1.0414 C   0  0  0  0  0  0  0  0  0  0  0  0
    1.8307    0.1724   -0.0333 C   0  0  0  0  0  0  0  0  0  0  0  0
    3.0317    0.5089   -0.0974 O   0  0  0  0  0  0  0  0  0  0  0  0
    0.7196    0.5343   -1.0093 C   0  0  0  0  0  0  0  0  0  0  0  0
    1.2240   -1.2013   -0.0302 C   0  0  0  0  0  0  0  0  0  0  0  0
   -2.3949    0.9577    1.0965 H   0  0  0  0  0  0  0  0  0  0  0  0
   -3.0521    0.5095   -0.5710 H   0  0  0  0  0  0  0  0  0  0  0  0
   -1.5530    1.4700   -0.3776 H   0  0  0  0  0  0  0  0  0  0  0  0
   -1.6289   -1.1671    1.0051 H   0  0  0  0  0  0  0  0  0  0  0  0
   -2.6797   -1.2276   -1.2002 H   0  0  0  0  0  0  0  0  0  0  0  0
    0.9842    0.0103    2.0177 H   0  0  0  0  0  0  0  0  0  0  0  0
    0.5095    1.5674    1.0898 H   0  0  0  0  0  0  0  0  0  0  0  0
    3.3947    1.0524    0.6371 H   0  0  0  0  0  0  0  0  0  0  0  0
    0.8370    0.0193   -1.9664 H   0  0  0  0  0  0  0  0  0  0  0  0
    0.4272    1.5885   -1.0227 H   0  0  0  0  0  0  0  0  0  0  0  0
    1.4504   -1.8456    0.8211 H   0  0  0  0  0  0  0  0  0  0  0  0
    1.2434   -1.7448   -1.0020 H   0  0  0  0  0  0  0  0  0  0  0  0
  1  2  1  0
  2  3  1  0
  2  4  1  0
  4  5  1  0
  5  6  1  0
  6  7  1  0
  6  8  1  0
  6  9  1  0
  8  4  1  0
  9  4  1  0
  1 10  1  0
  1 11  1  0
  1 12  1  0
  2 13  1  0
  3 14  1  0
  5 15  1  0
  5 16  1  0
  7 17  1  0
  8 18  1  0
  8 19  1  0
  9 20  1  0
  9 21  1  0
M  END
