
     RDKit          3D

 23 23  0  0  0  0  0  0  0  0999 V2000
    2.0164    0.5073    1.1171 C   0  0  0  0  0  0  0  0  0  0  0  0
    1.4432    0.4050   -0.2838 C   0  0  0  0  0  0  0  0  0  0  0  0
    2.3919   -0.2930   -1.0685 O   0  0  0  0  0  0  0  0  0  0  0  0
    0.2181   -0.4352   -0.2260 C   0  0  0  0  0  0  0  0  0  0  0  0
    0.2328   -1.4843    0.8578 C   0  0  0  0  0  0  0  0  0  0  0  0
   -0.3741   -0.7182   -1.4478 O   0  0  0  0  0  0  0  0  0  0  0  0
   -1.1141    0.0935   -0.5899 C   0  0  0  0  0  0  0  0  0  0  0  0
   -1.1970    1.5656   -0.8342 C   0  0  0  0  0  0  0  0  0  0  0  0
   -2.3702   -0.5426   -0.0761 C   0  0  0  0  0  0  0  0  0  0  0  0
    2.3113   -0.5310    1.3998 H   0  0  0  0  0  0  0  0  0  0  0  0
    2.9473    1.1127    1.0647 H   0  0  0  0  0  0  0  0  0  0  0  0
    1.3002    0.8594    1.8587 H   0  0  0  0  0  0  0  0  0  0  0  0
    1.3280    1.3790   -0.7663 H   0  0  0  0  0  0  0  0  0  0  0  0
    1.9440   -0.6507   -1.8795 H   0  0  0  0  0  0  0  0  0  0  0  0
    1.1722   -2.0815    0.7194 H   0  0  0  0  0  0  0  0  0  0  0  0
    0.3602   -0.9508    1.8229 H   0  0  0  0  0  0  0  0  0  0  0  0
   -0.6729   -2.1081    0.8640 H   0  0  0  0  0  0  0  0  0  0  0  0
   -1.0567    2.1340    0.1291 H   0  0  0  0  0  0  0  0  0  0  0  0
   -0.4675    1.9651   -1.5373 H   0  0  0  0  0  0  0  0  0  0  0  0
   -2.2152    1.8540   -1.2157 H   0  0  0  0  0  0  0  0  0  0  0  0
   -2.3897   -1.6373   -0.1771 H   0  0  0  0  0  0  0  0  0  0  0  0
   -3.2139   -0.1541   -0.7059 H   0  0  0  0  0  0  0  0  0  0  0  0
   -2.5942   -0.2887    0.9746 H   0  0  0  0  0  0  0  0  0  0  0  0
  1  2  1  0
  2  3  1  0
  2  4  1  0
  4  5  1  0
  4  6  1  0
  6  7  1  0
  7  8  1  0
  7  9  1  0
  7  4  1  0
  1 10  1  0
  1 11  1  0
  1 12  1  0
  2 13  1  0
  3 14  1  0
  5 15  1  0
  5 16  1  0
  5 17  1  0
  8 18  1  0
  8 19  1  0
  8 20  1  0
  9 21  1  0
  9 22  1  0
  9 23  1  0
M  END
