
     RDKit          3D

 21 21  0  0  0  0  0  0  0  0999 V2000
    2.0373   -0.8617    0.3296 C   0  0  0  0  0  0  0  0  0  0  0  0
    1.6110    0.2357   -0.5706 C   0  0  0  0  0  0  0  0  0  0  0  0
    1.7990    1.4752    0.1197 O   0  0  0  0  0  0  0  0  0  0  0  0
    0.1951    0.2160   -0.9910 C   0  0  0  0  0  0  0  0  0  0  0  0
   -0.0423    0.4620   -2.1893 O   0  0  0  0  0  0  0  0  0  0  0  0
   -0.9957   -0.0688   -0.1536 C   0  0  0  0  0  0  0  0  0  0  0  0
   -1.1665   -1.4972    0.2468 C   0  0  0  0  0  0  0  0  0  0  0  0
   -1.2593    0.9300    0.9682 C   0  0  0  0  0  0  0  0  0  0  0  0
   -2.1154    0.9393   -0.2530 C   0  0  0  0  0  0  0  0  0  0  0  0
    2.0617   -1.8343   -0.1294 H   0  0  0  0  0  0  0  0  0  0  0  0
    3.1437   -0.6138    0.5494 H   0  0  0  0  0  0  0  0  0  0  0  0
    1.5395   -0.8241    1.3401 H   0  0  0  0  0  0  0  0  0  0  0  0
    2.2773    0.2596   -1.4261 H   0  0  0  0  0  0  0  0  0  0  0  0
    1.9406    2.1861   -0.5855 H   0  0  0  0  0  0  0  0  0  0  0  0
   -0.1979   -1.9828    0.3633 H   0  0  0  0  0  0  0  0  0  0  0  0
   -1.6954   -2.0254   -0.6381 H   0  0  0  0  0  0  0  0  0  0  0  0
   -1.8474   -1.6295    1.1258 H   0  0  0  0  0  0  0  0  0  0  0  0
   -1.7134    0.5092    1.8693 H   0  0  0  0  0  0  0  0  0  0  0  0
   -0.4486    1.6361    1.1529 H   0  0  0  0  0  0  0  0  0  0  0  0
   -3.1810    0.6434   -0.2036 H   0  0  0  0  0  0  0  0  0  0  0  0
   -1.9421    1.8449   -0.9248 H   0  0  0  0  0  0  0  0  0  0  0  0
  1  2  1  0
  2  3  1  0
  2  4  1  0
  4  5  2  0
  4  6  1  0
  6  7  1  0
  6  8  1  0
  8  9  1  0
  9  6  1  0
  1 10  1  0
  1 11  1  0
  1 12  1  0
  2 13  1  0
  3 14  1  0
  7 15  1  0
  7 16  1  0
  7 17  1  0
  8 18  1  0
  8 19  1  0
  9 20  1  0
  9 21  1  0
M  END
