
     RDKit          3D

 18 17  0  0  0  0  0  0  0  0999 V2000
    0.7003    2.2962    1.3532 C   0  0  0  0  0  0  0  0  0  0  0  0
    1.5097    1.2960    0.4576 C   0  0  0  0  0  0  0  0  0  0  0  0
    2.6909    0.9738    1.2370 O   0  0  0  0  0  0  0  0  0  0  0  0
    0.8404    0.2582    0.0082 C   0  0  0  0  0  0  0  0  0  0  0  0
    0.1928   -0.7800   -0.4515 C   0  0  0  0  0  0  0  0  0  0  0  0
   -0.5279   -1.9610   -0.9951 C   0  0  0  0  0  0  0  0  0  0  0  0
   -2.0007   -1.7369   -0.9508 C   0  0  0  0  0  0  0  0  0  0  0  0
   -2.5024   -1.5076    0.3377 O   0  0  0  0  0  0  0  0  0  0  0  0
   -0.3505    2.0738    1.1156 H   0  0  0  0  0  0  0  0  0  0  0  0
    0.8903    1.9940    2.4084 H   0  0  0  0  0  0  0  0  0  0  0  0
    0.9968    3.3339    1.1202 H   0  0  0  0  0  0  0  0  0  0  0  0
    1.9537    1.9399   -0.3614 H   0  0  0  0  0  0  0  0  0  0  0  0
    2.5250    1.2524    2.1932 H   0  0  0  0  0  0  0  0  0  0  0  0
   -0.1678   -2.0166   -2.0707 H   0  0  0  0  0  0  0  0  0  0  0  0
   -0.2278   -2.8751   -0.4888 H   0  0  0  0  0  0  0  0  0  0  0  0
   -2.5283   -2.6071   -1.3440 H   0  0  0  0  0  0  0  0  0  0  0  0
   -2.2619   -0.8488   -1.5963 H   0  0  0  0  0  0  0  0  0  0  0  0
   -1.7324   -1.0850    0.8474 H   0  0  0  0  0  0  0  0  0  0  0  0
  1  2  1  0
  2  3  1  0
  2  4  1  0
  4  5  3  0
  5  6  1  0
  6  7  1  0
  7  8  1  0
  1  9  1  0
  1 10  1  0
  1 11  1  0
  2 12  1  0
  3 13  1  0
  6 14  1  0
  6 15  1  0
  7 16  1  0
  7 17  1  0
  8 18  1  0
M  END
