
     RDKit          3D

 23 23  0  0  0  0  0  0  0  0999 V2000
    1.8688    0.0466   -1.1960 C   0  0  0  0  0  0  0  0  0  0  0  0
    1.4413   -0.2954    0.1912 C   0  0  0  0  0  0  0  0  0  0  0  0
    1.9047    0.7372    1.0375 O   0  0  0  0  0  0  0  0  0  0  0  0
   -0.0641   -0.3213    0.3677 C   0  0  0  0  0  0  0  0  0  0  0  0
   -0.3488   -0.6842    1.8317 C   0  0  0  0  0  0  0  0  0  0  0  0
   -0.8212   -1.1603   -0.6086 C   0  0  0  0  0  0  0  0  0  0  0  0
   -1.6209    0.0561   -1.0574 C   0  0  0  0  0  0  0  0  0  0  0  0
   -0.7883    0.8925   -0.1007 C   0  0  0  0  0  0  0  0  0  0  0  0
   -1.6125    1.5000    0.8536 O   0  0  0  0  0  0  0  0  0  0  0  0
    1.2177   -0.3092   -1.9925 H   0  0  0  0  0  0  0  0  0  0  0  0
    1.9731    1.1647   -1.3023 H   0  0  0  0  0  0  0  0  0  0  0  0
    2.9281   -0.3276   -1.3133 H   0  0  0  0  0  0  0  0  0  0  0  0
    1.8813   -1.2207    0.5596 H   0  0  0  0  0  0  0  0  0  0  0  0
    1.2900    1.4913    0.8791 H   0  0  0  0  0  0  0  0  0  0  0  0
   -0.0374    0.1310    2.4858 H   0  0  0  0  0  0  0  0  0  0  0  0
    0.3026   -1.5675    2.0429 H   0  0  0  0  0  0  0  0  0  0  0  0
   -1.4239   -0.9042    1.9781 H   0  0  0  0  0  0  0  0  0  0  0  0
   -1.4917   -1.8888   -0.0798 H   0  0  0  0  0  0  0  0  0  0  0  0
   -0.2520   -1.6054   -1.4263 H   0  0  0  0  0  0  0  0  0  0  0  0
   -2.6929   -0.0027   -0.7927 H   0  0  0  0  0  0  0  0  0  0  0  0
   -1.5135    0.2962   -2.1196 H   0  0  0  0  0  0  0  0  0  0  0  0
   -0.2030    1.6284   -0.6870 H   0  0  0  0  0  0  0  0  0  0  0  0
   -1.9373    2.3433    0.4489 H   0  0  0  0  0  0  0  0  0  0  0  0
  1  2  1  0
  2  3  1  0
  2  4  1  0
  4  5  1  0
  4  6  1  0
  6  7  1  0
  7  8  1  0
  8  9  1  0
  8  4  1  0
  1 10  1  0
  1 11  1  0
  1 12  1  0
  2 13  1  0
  3 14  1  0
  5 15  1  0
  5 16  1  0
  5 17  1  0
  6 18  1  0
  6 19  1  0
  7 20  1  0
  7 21  1  0
  8 22  1  0
  9 23  1  0
M  END
