
     RDKit          3D

 25 25  0  0  0  0  0  0  0  0999 V2000
    1.8938   -1.4756    0.9043 C   0  0  0  0  0  0  0  0  0  0  0  0
    1.6104   -0.1469    0.3415 C   0  0  0  0  0  0  0  0  0  0  0  0
    1.9854   -0.1900   -1.0275 O   0  0  0  0  0  0  0  0  0  0  0  0
    0.3262    0.4912    0.4938 C   0  0  0  0  0  0  0  0  0  0  0  0
    0.4145    1.8585   -0.2239 C   0  0  0  0  0  0  0  0  0  0  0  0
   -0.9402   -0.0818    0.0550 C   0  0  0  0  0  0  0  0  0  0  0  0
   -2.1223    0.8654    0.3690 C   0  0  0  0  0  0  0  0  0  0  0  0
   -1.3280   -1.4742   -0.0440 C   0  0  0  0  0  0  0  0  0  0  0  0
   -1.1067   -0.7107   -1.3143 C   0  0  0  0  0  0  0  0  0  0  0  0
    2.9937   -1.5440    1.0768 H   0  0  0  0  0  0  0  0  0  0  0  0
    1.4467   -1.6302    1.9098 H   0  0  0  0  0  0  0  0  0  0  0  0
    1.6960   -2.3315    0.2199 H   0  0  0  0  0  0  0  0  0  0  0  0
    2.3897    0.5448    0.7738 H   0  0  0  0  0  0  0  0  0  0  0  0
    1.8018    0.6415   -1.4875 H   0  0  0  0  0  0  0  0  0  0  0  0
    0.1800    0.7927    1.5777 H   0  0  0  0  0  0  0  0  0  0  0  0
    1.4516    2.2237   -0.2482 H   0  0  0  0  0  0  0  0  0  0  0  0
    0.0891    1.7300   -1.2794 H   0  0  0  0  0  0  0  0  0  0  0  0
   -0.1918    2.6116    0.2971 H   0  0  0  0  0  0  0  0  0  0  0  0
   -3.0132    0.2934    0.6991 H   0  0  0  0  0  0  0  0  0  0  0  0
   -2.4232    1.3998   -0.5594 H   0  0  0  0  0  0  0  0  0  0  0  0
   -1.8920    1.5868    1.1422 H   0  0  0  0  0  0  0  0  0  0  0  0
   -2.4091   -1.7733    0.1129 H   0  0  0  0  0  0  0  0  0  0  0  0
   -0.6825   -2.3498    0.0792 H   0  0  0  0  0  0  0  0  0  0  0  0
   -1.9790   -0.4585   -1.9519 H   0  0  0  0  0  0  0  0  0  0  0  0
   -0.1907   -0.8728   -1.9160 H   0  0  0  0  0  0  0  0  0  0  0  0
  1  2  1  0
  2  3  1  0
  2  4  1  0
  4  5  1  0
  4  6  1  0
  6  7  1  0
  6  8  1  0
  8  9  1  0
  9  6  1  0
  1 10  1  0
  1 11  1  0
  1 12  1  0
  2 13  1  0
  3 14  1  0
  4 15  1  0
  5 16  1  0
  5 17  1  0
  5 18  1  0
  7 19  1  0
  7 20  1  0
  7 21  1  0
  8 22  1  0
  8 23  1  0
  9 24  1  0
  9 25  1  0
M  END
