
     RDKit          3D

 23 23  0  0  0  0  0  0  0  0999 V2000
    2.6657   -0.5105   -0.0638 C   0  0  0  0  0  0  0  0  0  0  0  0
    1.5323    0.4581   -0.0697 C   0  0  0  0  0  0  0  0  0  0  0  0
    1.1624    0.6836   -1.3937 O   0  0  0  0  0  0  0  0  0  0  0  0
    0.3435   -0.0524    0.7444 C   0  0  0  0  0  0  0  0  0  0  0  0
   -0.8667    0.7796    0.8469 C   0  0  0  0  0  0  0  0  0  0  0  0
   -1.0148    2.0654    0.0830 C   0  0  0  0  0  0  0  0  0  0  0  0
   -0.8459   -0.5055   -0.0063 C   0  0  0  0  0  0  0  0  0  0  0  0
   -1.7070   -1.6401    0.4920 C   0  0  0  0  0  0  0  0  0  0  0  0
   -2.7400   -1.8038   -0.4569 O   0  0  0  0  0  0  0  0  0  0  0  0
    3.0270   -0.7805   -1.0933 H   0  0  0  0  0  0  0  0  0  0  0  0
    3.5805   -0.0857    0.4457 H   0  0  0  0  0  0  0  0  0  0  0  0
    2.4570   -1.4609    0.4605 H   0  0  0  0  0  0  0  0  0  0  0  0
    1.8525    1.3987    0.3836 H   0  0  0  0  0  0  0  0  0  0  0  0
    1.9434    1.0927   -1.8390 H   0  0  0  0  0  0  0  0  0  0  0  0
    0.6658   -0.5558    1.6862 H   0  0  0  0  0  0  0  0  0  0  0  0
   -1.4779    0.7084    1.7906 H   0  0  0  0  0  0  0  0  0  0  0  0
   -1.8606    2.6601    0.4996 H   0  0  0  0  0  0  0  0  0  0  0  0
   -1.2361    1.9124   -0.9935 H   0  0  0  0  0  0  0  0  0  0  0  0
   -0.1013    2.6972    0.1622 H   0  0  0  0  0  0  0  0  0  0  0  0
   -0.8132   -0.3674   -1.1060 H   0  0  0  0  0  0  0  0  0  0  0  0
   -1.1682   -2.6109    0.5199 H   0  0  0  0  0  0  0  0  0  0  0  0
   -2.2034   -1.4171    1.4460 H   0  0  0  0  0  0  0  0  0  0  0  0
   -3.1950   -2.6656   -0.3253 H   0  0  0  0  0  0  0  0  0  0  0  0
  1  2  1  0
  2  3  1  0
  2  4  1  0
  4  5  1  0
  5  6  1  0
  5  7  1  0
  7  8  1  0
  8  9  1  0
  7  4  1  0
  1 10  1  0
  1 11  1  0
  1 12  1  0
  2 13  1  0
  3 14  1  0
  4 15  1  0
  5 16  1  0
  6 17  1  0
  6 18  1  0
  6 19  1  0
  7 20  1  0
  8 21  1  0
  8 22  1  0
  9 23  1  0
M  END
