
     RDKit          3D

 21 20  0  0  0  0  0  0  0  0999 V2000
   -2.9107    0.6678   -0.3043 C   0  0  0  0  0  0  0  0  0  0  0  0
   -1.7580    0.1543    0.5614 C   0  0  0  0  0  0  0  0  0  0  0  0
   -2.1776   -1.0871    1.0697 O   0  0  0  0  0  0  0  0  0  0  0  0
   -0.5978   -0.0135   -0.3742 C   0  0  0  0  0  0  0  0  0  0  0  0
    0.6405   -0.4716    0.2810 C   0  0  0  0  0  0  0  0  0  0  0  0
    0.7233   -0.6849    1.4717 O   0  0  0  0  0  0  0  0  0  0  0  0
    1.8624   -0.6852   -0.5423 C   0  0  0  0  0  0  0  0  0  0  0  0
    3.0900   -0.0356    0.1322 C   0  0  0  0  0  0  0  0  0  0  0  0
    2.8594    1.3392    0.2501 O   0  0  0  0  0  0  0  0  0  0  0  0
   -2.4977    1.6161   -0.7659 H   0  0  0  0  0  0  0  0  0  0  0  0
   -3.7629    0.9905    0.3078 H   0  0  0  0  0  0  0  0  0  0  0  0
   -3.0996   -0.0295   -1.1081 H   0  0  0  0  0  0  0  0  0  0  0  0
   -1.5704    0.8511    1.3821 H   0  0  0  0  0  0  0  0  0  0  0  0
   -2.7479   -1.5622    0.3875 H   0  0  0  0  0  0  0  0  0  0  0  0
   -0.3613    0.9729   -0.8230 H   0  0  0  0  0  0  0  0  0  0  0  0
   -0.8875   -0.7422   -1.1677 H   0  0  0  0  0  0  0  0  0  0  0  0
    1.8095   -0.2884   -1.5606 H   0  0  0  0  0  0  0  0  0  0  0  0
    2.0910   -1.7847   -0.6187 H   0  0  0  0  0  0  0  0  0  0  0  0
    3.2798   -0.4540    1.1332 H   0  0  0  0  0  0  0  0  0  0  0  0
    3.9118   -0.2175   -0.5817 H   0  0  0  0  0  0  0  0  0  0  0  0
    2.1037    1.4645    0.8700 H   0  0  0  0  0  0  0  0  0  0  0  0
  1  2  1  0
  2  3  1  0
  2  4  1  0
  4  5  1  0
  5  6  2  0
  5  7  1  0
  7  8  1  0
  8  9  1  0
  1 10  1  0
  1 11  1  0
  1 12  1  0
  2 13  1  0
  3 14  1  0
  4 15  1  0
  4 16  1  0
  7 17  1  0
  7 18  1  0
  8 19  1  0
  8 20  1  0
  9 21  1  0
M  END
