
     RDKit          3D

 23 23  0  0  0  0  0  0  0  0999 V2000
    2.3067    0.3301   -0.6520 C   0  0  0  0  0  0  0  0  0  0  0  0
    1.4554    0.3945    0.6001 C   0  0  0  0  0  0  0  0  0  0  0  0
    0.8646    1.6068    0.7629 O   0  0  0  0  0  0  0  0  0  0  0  0
    0.6527   -0.8204    0.8687 C   0  0  0  0  0  0  0  0  0  0  0  0
   -0.3146   -1.3085   -0.1069 C   0  0  0  0  0  0  0  0  0  0  0  0
   -1.4656   -0.5917   -0.5886 C   0  0  0  0  0  0  0  0  0  0  0  0
   -1.5057    0.6710   -1.3127 C   0  0  0  0  0  0  0  0  0  0  0  0
   -2.7921    0.9002   -0.7390 O   0  0  0  0  0  0  0  0  0  0  0  0
   -2.2766    0.2269    0.3890 C   0  0  0  0  0  0  0  0  0  0  0  0
    2.8458   -0.6374   -0.6350 H   0  0  0  0  0  0  0  0  0  0  0  0
    3.0819    1.1187   -0.5411 H   0  0  0  0  0  0  0  0  0  0  0  0
    1.7432    0.5052   -1.5692 H   0  0  0  0  0  0  0  0  0  0  0  0
    2.2750    0.3802    1.4331 H   0  0  0  0  0  0  0  0  0  0  0  0
    1.5749    2.2935    0.8912 H   0  0  0  0  0  0  0  0  0  0  0  0
    1.4243   -1.6437    1.0858 H   0  0  0  0  0  0  0  0  0  0  0  0
    0.1854   -0.6981    1.8879 H   0  0  0  0  0  0  0  0  0  0  0  0
   -0.6990   -2.3140    0.3142 H   0  0  0  0  0  0  0  0  0  0  0  0
    0.2447   -1.7159   -1.0337 H   0  0  0  0  0  0  0  0  0  0  0  0
   -2.2002   -1.3192   -1.0812 H   0  0  0  0  0  0  0  0  0  0  0  0
   -0.9148    1.5383   -1.0865 H   0  0  0  0  0  0  0  0  0  0  0  0
   -1.7114    0.6035   -2.4301 H   0  0  0  0  0  0  0  0  0  0  0  0
   -1.7473    0.9051    1.0495 H   0  0  0  0  0  0  0  0  0  0  0  0
   -3.0273   -0.4250    0.8993 H   0  0  0  0  0  0  0  0  0  0  0  0
  1  2  1  0
  2  3  1  0
  2  4  1  0
  4  5  1  0
  5  6  1  0
  6  7  1  0
  7  8  1  0
  8  9  1  0
  9  6  1  0
  1 10  1  0
  1 11  1  0
  1 12  1  0
  2 13  1  0
  3 14  1  0
  4 15  1  0
  4 16  1  0
  5 17  1  0
  5 18  1  0
  6 19  1  0
  7 20  1  0
  7 21  1  0
  9 22  1  0
  9 23  1  0
M  END
