
     RDKit          3D

 21 20  0  0  0  0  0  0  0  0999 V2000
    2.0131    0.4669    0.4924 C   0  0  0  0  0  0  0  0  0  0  0  0
    0.9385    0.4811   -0.5940 C   0  0  0  0  0  0  0  0  0  0  0  0
    1.3298   -0.4047   -1.5879 O   0  0  0  0  0  0  0  0  0  0  0  0
   -0.3520    0.0506    0.0769 C   0  0  0  0  0  0  0  0  0  0  0  0
   -0.6685    0.9925    1.0554 O   0  0  0  0  0  0  0  0  0  0  0  0
   -1.5101    0.0486   -0.8988 C   0  0  0  0  0  0  0  0  0  0  0  0
   -1.6974    1.3009   -1.4857 O   0  0  0  0  0  0  0  0  0  0  0  0
   -0.2390   -1.3143    0.6874 C   0  0  0  0  0  0  0  0  0  0  0  0
   -1.4499   -1.6676    1.2797 O   0  0  0  0  0  0  0  0  0  0  0  0
    2.9544    0.9315    0.1132 H   0  0  0  0  0  0  0  0  0  0  0  0
    1.6364    0.9927    1.4056 H   0  0  0  0  0  0  0  0  0  0  0  0
    2.2635   -0.5934    0.7031 H   0  0  0  0  0  0  0  0  0  0  0  0
    0.8752    1.5322   -0.9367 H   0  0  0  0  0  0  0  0  0  0  0  0
    1.8926   -1.1278   -1.2275 H   0  0  0  0  0  0  0  0  0  0  0  0
   -0.6432    1.8783    0.6021 H   0  0  0  0  0  0  0  0  0  0  0  0
   -1.3771   -0.7507   -1.6768 H   0  0  0  0  0  0  0  0  0  0  0  0
   -2.4070   -0.2667   -0.3056 H   0  0  0  0  0  0  0  0  0  0  0  0
   -2.3030    1.7984   -0.8668 H   0  0  0  0  0  0  0  0  0  0  0  0
    0.0137   -2.0479   -0.1131 H   0  0  0  0  0  0  0  0  0  0  0  0
    0.5419   -1.3798    1.4637 H   0  0  0  0  0  0  0  0  0  0  0  0
   -1.8119   -0.9209    1.8133 H   0  0  0  0  0  0  0  0  0  0  0  0
  1  2  1  0
  2  3  1  0
  2  4  1  0
  4  5  1  0
  4  6  1  0
  6  7  1  0
  4  8  1  0
  8  9  1  0
  1 10  1  0
  1 11  1  0
  1 12  1  0
  2 13  1  0
  3 14  1  0
  5 15  1  0
  6 16  1  0
  6 17  1  0
  7 18  1  0
  8 19  1  0
  8 20  1  0
  9 21  1  0
M  END
