
     RDKit          3D

 17 17  0  0  0  0  0  0  0  0999 V2000
   -2.0559    0.2908    0.5887 C   0  0  0  0  0  0  0  0  0  0  0  0
   -1.2059   -0.0942   -0.6022 C   0  0  0  0  0  0  0  0  0  0  0  0
   -1.4239   -1.4449   -0.9316 O   0  0  0  0  0  0  0  0  0  0  0  0
    0.2377    0.1141   -0.2804 C   0  0  0  0  0  0  0  0  0  0  0  0
    1.1853   -0.8056   -0.2783 C   0  0  0  0  0  0  0  0  0  0  0  0
    2.4585   -0.1724    0.0945 C   0  0  0  0  0  0  0  0  0  0  0  0
    2.1522    1.1907    0.3049 O   0  0  0  0  0  0  0  0  0  0  0  0
    0.8006    1.4077    0.0852 C   0  0  0  0  0  0  0  0  0  0  0  0
    0.2038    2.5143    0.1883 O   0  0  0  0  0  0  0  0  0  0  0  0
   -2.0759   -0.5583    1.3009 H   0  0  0  0  0  0  0  0  0  0  0  0
   -3.0619    0.6187    0.2653 H   0  0  0  0  0  0  0  0  0  0  0  0
   -1.5224    1.1232    1.1305 H   0  0  0  0  0  0  0  0  0  0  0  0
   -1.4678    0.4870   -1.5164 H   0  0  0  0  0  0  0  0  0  0  0  0
   -1.4158   -2.0241   -0.1291 H   0  0  0  0  0  0  0  0  0  0  0  0
    1.0936   -1.8640   -0.5057 H   0  0  0  0  0  0  0  0  0  0  0  0
    2.8948   -0.5596    1.0364 H   0  0  0  0  0  0  0  0  0  0  0  0
    3.2030   -0.2235   -0.7508 H   0  0  0  0  0  0  0  0  0  0  0  0
  1  2  1  0
  2  3  1  0
  2  4  1  0
  4  5  2  0
  5  6  1  0
  6  7  1  0
  7  8  1  0
  8  9  2  0
  8  4  1  0
  1 10  1  0
  1 11  1  0
  1 12  1  0
  2 13  1  0
  3 14  1  0
  5 15  1  0
  6 16  1  0
  6 17  1  0
M  END
