
     RDKit          3D

 21 21  0  0  0  0  0  0  0  0999 V2000
   -2.6235    0.3023   -0.5394 C   0  0  0  0  0  0  0  0  0  0  0  0
   -1.4721   -0.6671   -0.6294 C   0  0  0  0  0  0  0  0  0  0  0  0
   -1.7962   -1.9131   -0.1152 O   0  0  0  0  0  0  0  0  0  0  0  0
   -0.2584   -0.1686    0.1651 C   0  0  0  0  0  0  0  0  0  0  0  0
    0.8095   -1.1870   -0.0515 C   0  0  0  0  0  0  0  0  0  0  0  0
    2.0590   -0.7898   -0.1166 C   0  0  0  0  0  0  0  0  0  0  0  0
    2.4244    0.6269    0.0185 C   0  0  0  0  0  0  0  0  0  0  0  0
    1.2720    1.5682    0.0638 C   0  0  0  0  0  0  0  0  0  0  0  0
    0.0734    1.0582   -0.3293 O   0  0  0  0  0  0  0  0  0  0  0  0
   -3.3882   -0.1474    0.1241 H   0  0  0  0  0  0  0  0  0  0  0  0
   -3.0394    0.4446   -1.5636 H   0  0  0  0  0  0  0  0  0  0  0  0
   -2.2831    1.2795   -0.1918 H   0  0  0  0  0  0  0  0  0  0  0  0
   -1.1070   -0.7856   -1.6746 H   0  0  0  0  0  0  0  0  0  0  0  0
   -2.4355   -1.7715    0.6132 H   0  0  0  0  0  0  0  0  0  0  0  0
   -0.5303   -0.1816    1.2403 H   0  0  0  0  0  0  0  0  0  0  0  0
    0.5276   -2.2302   -0.1497 H   0  0  0  0  0  0  0  0  0  0  0  0
    2.8252   -1.5147   -0.2713 H   0  0  0  0  0  0  0  0  0  0  0  0
    3.1461    0.8593   -0.8191 H   0  0  0  0  0  0  0  0  0  0  0  0
    3.0422    0.7281    0.9453 H   0  0  0  0  0  0  0  0  0  0  0  0
    1.5205    2.4183   -0.6397 H   0  0  0  0  0  0  0  0  0  0  0  0
    1.2336    2.0712    1.0741 H   0  0  0  0  0  0  0  0  0  0  0  0
  1  2  1  0
  2  3  1  0
  2  4  1  0
  4  5  1  0
  5  6  2  0
  6  7  1  0
  7  8  1  0
  8  9  1  0
  9  4  1  0
  1 10  1  0
  1 11  1  0
  1 12  1  0
  2 13  1  0
  3 14  1  0
  4 15  1  0
  5 16  1  0
  6 17  1  0
  7 18  1  0
  7 19  1  0
  8 20  1  0
  8 21  1  0
M  END
