
     RDKit          3D

 19 19  0  0  0  0  0  0  0  0999 V2000
    2.2787    0.8824    0.2800 C   0  0  0  0  0  0  0  0  0  0  0  0
    1.2968   -0.2661    0.4890 C   0  0  0  0  0  0  0  0  0  0  0  0
    1.8436   -1.3487   -0.2294 O   0  0  0  0  0  0  0  0  0  0  0  0
   -0.0263    0.0465   -0.1257 C   0  0  0  0  0  0  0  0  0  0  0  0
   -0.9595   -1.1220    0.1840 C   0  0  0  0  0  0  0  0  0  0  0  0
   -2.2383   -0.4866   -0.2144 C   0  0  0  0  0  0  0  0  0  0  0  0
   -3.2160   -0.9567   -0.7286 O   0  0  0  0  0  0  0  0  0  0  0  0
   -2.0511    0.9315    0.1754 C   0  0  0  0  0  0  0  0  0  0  0  0
   -0.6991    1.0884    0.4623 O   0  0  0  0  0  0  0  0  0  0  0  0
    2.3091    1.0575   -0.8136 H   0  0  0  0  0  0  0  0  0  0  0  0
    1.9786    1.7858    0.8294 H   0  0  0  0  0  0  0  0  0  0  0  0
    3.2968    0.5345    0.5614 H   0  0  0  0  0  0  0  0  0  0  0  0
    1.2175   -0.5155    1.5477 H   0  0  0  0  0  0  0  0  0  0  0  0
    1.5899   -1.1912   -1.1761 H   0  0  0  0  0  0  0  0  0  0  0  0
    0.0841    0.1535   -1.2020 H   0  0  0  0  0  0  0  0  0  0  0  0
   -0.7127   -2.0167   -0.3987 H   0  0  0  0  0  0  0  0  0  0  0  0
   -1.0015   -1.3060    1.2749 H   0  0  0  0  0  0  0  0  0  0  0  0
   -2.6839    1.0882    1.0947 H   0  0  0  0  0  0  0  0  0  0  0  0
   -2.3065    1.6411   -0.6289 H   0  0  0  0  0  0  0  0  0  0  0  0
  1  2  1  0
  2  3  1  0
  2  4  1  0
  4  5  1  0
  5  6  1  0
  6  7  2  0
  6  8  1  0
  8  9  1  0
  9  4  1  0
  1 10  1  0
  1 11  1  0
  1 12  1  0
  2 13  1  0
  3 14  1  0
  4 15  1  0
  5 16  1  0
  5 17  1  0
  8 18  1  0
  8 19  1  0
M  END
