
     RDKit          3D

 19 19  0  0  0  0  0  0  0  0999 V2000
   -0.8395   -1.4525    0.4391 C   0  0  0  0  0  0  0  0  0  0  0  0
   -0.7125    0.0374    0.2500 C   0  0  0  0  0  0  0  0  0  0  0  0
   -1.5776    0.4194   -0.7991 O   0  0  0  0  0  0  0  0  0  0  0  0
   -2.6360    1.2770   -0.5479 C   0  0  0  0  0  0  0  0  0  0  0  0
   -2.7678    1.6772    0.6363 O   0  0  0  0  0  0  0  0  0  0  0  0
    0.6679    0.4839   -0.0832 C   0  0  0  0  0  0  0  0  0  0  0  0
    1.3995    0.0296   -1.2795 C   0  0  0  0  0  0  0  0  0  0  0  0
    1.8562   -0.3974    0.1428 C   0  0  0  0  0  0  0  0  0  0  0  0
    3.0682    0.1844    0.5699 O   0  0  0  0  0  0  0  0  0  0  0  0
   -1.8316   -1.6714    0.8884 H   0  0  0  0  0  0  0  0  0  0  0  0
   -0.8155   -1.9906   -0.5465 H   0  0  0  0  0  0  0  0  0  0  0  0
   -0.0914   -1.8714    1.1356 H   0  0  0  0  0  0  0  0  0  0  0  0
   -1.0026    0.5036    1.2266 H   0  0  0  0  0  0  0  0  0  0  0  0
   -3.3336    1.6011   -1.3306 H   0  0  0  0  0  0  0  0  0  0  0  0
    0.8655    1.5614    0.1978 H   0  0  0  0  0  0  0  0  0  0  0  0
    1.0653   -0.8014   -1.9171 H   0  0  0  0  0  0  0  0  0  0  0  0
    2.0808    0.7310   -1.8064 H   0  0  0  0  0  0  0  0  0  0  0  0
    1.7621   -1.4540    0.3903 H   0  0  0  0  0  0  0  0  0  0  0  0
    2.8425    1.1326    0.8003 H   0  0  0  0  0  0  0  0  0  0  0  0
  1  2  1  0
  2  3  1  0
  3  4  1  0
  4  5  2  0
  2  6  1  0
  6  7  1  0
  7  8  1  0
  8  9  1  0
  8  6  1  0
  1 10  1  0
  1 11  1  0
  1 12  1  0
  2 13  1  0
  4 14  1  0
  6 15  1  0
  7 16  1  0
  7 17  1  0
  8 18  1  0
  9 19  1  0
M  END
