
     RDKit          3D

 21 20  0  0  0  0  0  0  0  0999 V2000
   -1.3128    1.7545    0.2505 C   0  0  0  0  0  0  0  0  0  0  0  0
   -1.4780    0.2736    0.1719 C   0  0  0  0  0  0  0  0  0  0  0  0
   -1.7687   -0.2267    1.4387 O   0  0  0  0  0  0  0  0  0  0  0  0
   -0.2832   -0.4446   -0.3928 C   0  0  0  0  0  0  0  0  0  0  0  0
   -0.6818   -1.9166   -0.4969 C   0  0  0  0  0  0  0  0  0  0  0  0
    0.8557   -0.3212    0.3523 O   0  0  0  0  0  0  0  0  0  0  0  0
    1.9319    0.1935   -0.3674 C   0  0  0  0  0  0  0  0  0  0  0  0
    3.1513    0.3145    0.4694 C   0  0  0  0  0  0  0  0  0  0  0  0
    3.2114    0.0040    1.6419 O   0  0  0  0  0  0  0  0  0  0  0  0
   -1.0642    2.0425    1.2704 H   0  0  0  0  0  0  0  0  0  0  0  0
   -2.2989    2.2291   -0.0196 H   0  0  0  0  0  0  0  0  0  0  0  0
   -0.5698    2.1621   -0.4542 H   0  0  0  0  0  0  0  0  0  0  0  0
   -2.3506    0.0214   -0.4746 H   0  0  0  0  0  0  0  0  0  0  0  0
   -2.6405   -0.6840    1.4845 H   0  0  0  0  0  0  0  0  0  0  0  0
   -0.1211   -0.1010   -1.4522 H   0  0  0  0  0  0  0  0  0  0  0  0
    0.1809   -2.5686   -0.6341 H   0  0  0  0  0  0  0  0  0  0  0  0
   -1.4718   -2.0454   -1.2674 H   0  0  0  0  0  0  0  0  0  0  0  0
   -1.1822   -2.1798    0.4760 H   0  0  0  0  0  0  0  0  0  0  0  0
    2.1430   -0.4486   -1.2525 H   0  0  0  0  0  0  0  0  0  0  0  0
    1.7088    1.2345   -0.7365 H   0  0  0  0  0  0  0  0  0  0  0  0
    4.0406    0.7068   -0.0071 H   0  0  0  0  0  0  0  0  0  0  0  0
  1  2  1  0
  2  3  1  0
  2  4  1  0
  4  5  1  0
  4  6  1  0
  6  7  1  0
  7  8  1  0
  8  9  2  0
  1 10  1  0
  1 11  1  0
  1 12  1  0
  2 13  1  0
  3 14  1  0
  4 15  1  0
  5 16  1  0
  5 17  1  0
  5 18  1  0
  7 19  1  0
  7 20  1  0
  8 21  1  0
M  END
