
     RDKit          3D

 23 23  0  0  0  0  0  0  0  0999 V2000
    3.0807    0.9550   -0.1496 C   0  0  0  0  0  0  0  0  0  0  0  0
    2.1033   -0.1047    0.2352 C   0  0  0  0  0  0  0  0  0  0  0  0
    2.4062   -1.2745   -0.4525 O   0  0  0  0  0  0  0  0  0  0  0  0
    0.6656    0.2961   -0.1227 C   0  0  0  0  0  0  0  0  0  0  0  0
   -0.2029   -0.8425    0.3121 C   0  0  0  0  0  0  0  0  0  0  0  0
   -1.6510   -0.6613    0.0566 C   0  0  0  0  0  0  0  0  0  0  0  0
   -2.3294    0.5079    0.7053 C   0  0  0  0  0  0  0  0  0  0  0  0
   -3.1999    0.2791   -0.5404 C   0  0  0  0  0  0  0  0  0  0  0  0
   -1.9921   -0.0782   -1.1809 O   0  0  0  0  0  0  0  0  0  0  0  0
    4.0830    0.4605   -0.2614 H   0  0  0  0  0  0  0  0  0  0  0  0
    2.7447    1.4054   -1.1064 H   0  0  0  0  0  0  0  0  0  0  0  0
    3.1469    1.7683    0.6039 H   0  0  0  0  0  0  0  0  0  0  0  0
    2.1150   -0.3489    1.3264 H   0  0  0  0  0  0  0  0  0  0  0  0
    2.2204   -2.0915    0.0769 H   0  0  0  0  0  0  0  0  0  0  0  0
    0.6130    0.5168   -1.1920 H   0  0  0  0  0  0  0  0  0  0  0  0
    0.4569    1.2446    0.4245 H   0  0  0  0  0  0  0  0  0  0  0  0
    0.1462   -1.7535   -0.1694 H   0  0  0  0  0  0  0  0  0  0  0  0
   -0.0634   -0.9494    1.4234 H   0  0  0  0  0  0  0  0  0  0  0  0
   -2.2140   -1.5865    0.2039 H   0  0  0  0  0  0  0  0  0  0  0  0
   -2.8574    0.2853    1.6509 H   0  0  0  0  0  0  0  0  0  0  0  0
   -1.7690    1.4495    0.6675 H   0  0  0  0  0  0  0  0  0  0  0  0
   -3.6929    1.1640   -0.9279 H   0  0  0  0  0  0  0  0  0  0  0  0
   -3.8099   -0.6415   -0.4192 H   0  0  0  0  0  0  0  0  0  0  0  0
  1  2  1  0
  2  3  1  0
  2  4  1  0
  4  5  1  0
  5  6  1  0
  6  7  1  0
  7  8  1  0
  8  9  1  0
  9  6  1  0
  1 10  1  0
  1 11  1  0
  1 12  1  0
  2 13  1  0
  3 14  1  0
  4 15  1  0
  4 16  1  0
  5 17  1  0
  5 18  1  0
  6 19  1  0
  7 20  1  0
  7 21  1  0
  8 22  1  0
  8 23  1  0
M  END
