
     RDKit          3D

 17 17  0  0  0  0  0  0  0  0999 V2000
    2.0387    0.8287    0.1178 C   0  0  0  0  0  0  0  0  0  0  0  0
    1.0944   -0.2394   -0.3980 C   0  0  0  0  0  0  0  0  0  0  0  0
    1.2859   -1.4474    0.2423 O   0  0  0  0  0  0  0  0  0  0  0  0
   -0.3116    0.2620   -0.2792 C   0  0  0  0  0  0  0  0  0  0  0  0
   -1.3932   -0.7858   -0.4138 C   0  0  0  0  0  0  0  0  0  0  0  0
   -2.0607    0.2284    0.5256 C   0  0  0  0  0  0  0  0  0  0  0  0
   -0.7609    0.4813    1.0231 O   0  0  0  0  0  0  0  0  0  0  0  0
    3.0121    0.3166    0.3211 H   0  0  0  0  0  0  0  0  0  0  0  0
    1.6348    1.3190    1.0254 H   0  0  0  0  0  0  0  0  0  0  0  0
    2.2458    1.5634   -0.6867 H   0  0  0  0  0  0  0  0  0  0  0  0
    1.3055   -0.3835   -1.4750 H   0  0  0  0  0  0  0  0  0  0  0  0
    0.6476   -1.5783    0.9770 H   0  0  0  0  0  0  0  0  0  0  0  0
   -0.5170    1.1227   -0.9157 H   0  0  0  0  0  0  0  0  0  0  0  0
   -1.8638   -0.8792   -1.3958 H   0  0  0  0  0  0  0  0  0  0  0  0
   -1.2234   -1.7161    0.1602 H   0  0  0  0  0  0  0  0  0  0  0  0
   -2.3735    1.0999   -0.0684 H   0  0  0  0  0  0  0  0  0  0  0  0
   -2.7608   -0.1922    1.2400 H   0  0  0  0  0  0  0  0  0  0  0  0
  1  2  1  0
  2  3  1  0
  2  4  1  0
  4  5  1  0
  5  6  1  0
  6  7  1  0
  7  4  1  0
  1  8  1  0
  1  9  1  0
  1 10  1  0
  2 11  1  0
  3 12  1  0
  4 13  1  0
  5 14  1  0
  5 15  1  0
  6 16  1  0
  6 17  1  0
M  END
