
     RDKit          3D

 23 23  0  0  0  0  0  0  0  0999 V2000
    2.3545   -0.4577   -0.1786 C   0  0  0  0  0  0  0  0  0  0  0  0
    0.8974   -0.7905   -0.4361 C   0  0  0  0  0  0  0  0  0  0  0  0
    0.5574   -0.3116   -1.6798 O   0  0  0  0  0  0  0  0  0  0  0  0
    0.1072   -0.0833    0.6379 C   0  0  0  0  0  0  0  0  0  0  0  0
    0.4378   -0.5540    1.8967 O   0  0  0  0  0  0  0  0  0  0  0  0
    0.0934    1.3950    0.4494 C   0  0  0  0  0  0  0  0  0  0  0  0
   -1.3772    1.3411    0.0198 C   0  0  0  0  0  0  0  0  0  0  0  0
   -1.3867   -0.0976    0.4515 C   0  0  0  0  0  0  0  0  0  0  0  0
   -1.8975   -1.0876   -0.5572 C   0  0  0  0  0  0  0  0  0  0  0  0
    2.5890   -0.7006    0.8812 H   0  0  0  0  0  0  0  0  0  0  0  0
    3.0157   -0.9813   -0.8960 H   0  0  0  0  0  0  0  0  0  0  0  0
    2.4871    0.6442   -0.3219 H   0  0  0  0  0  0  0  0  0  0  0  0
    0.8121   -1.8971   -0.3614 H   0  0  0  0  0  0  0  0  0  0  0  0
    1.1801    0.3857   -2.0180 H   0  0  0  0  0  0  0  0  0  0  0  0
    0.6957    0.1626    2.5277 H   0  0  0  0  0  0  0  0  0  0  0  0
    0.2694    2.0204    1.3497 H   0  0  0  0  0  0  0  0  0  0  0  0
    0.7154    1.7888   -0.4030 H   0  0  0  0  0  0  0  0  0  0  0  0
   -1.9784    2.0387    0.6610 H   0  0  0  0  0  0  0  0  0  0  0  0
   -1.5122    1.4381   -1.0556 H   0  0  0  0  0  0  0  0  0  0  0  0
   -1.9543   -0.2113    1.4046 H   0  0  0  0  0  0  0  0  0  0  0  0
   -1.3191   -2.0365   -0.4531 H   0  0  0  0  0  0  0  0  0  0  0  0
   -2.9525   -1.3447   -0.3413 H   0  0  0  0  0  0  0  0  0  0  0  0
   -1.8344   -0.6608   -1.5775 H   0  0  0  0  0  0  0  0  0  0  0  0
  1  2  1  0
  2  3  1  0
  2  4  1  0
  4  5  1  0
  4  6  1  0
  6  7  1  0
  7  8  1  0
  8  9  1  0
  8  4  1  0
  1 10  1  0
  1 11  1  0
  1 12  1  0
  2 13  1  0
  3 14  1  0
  5 15  1  0
  6 16  1  0
  6 17  1  0
  7 18  1  0
  7 19  1  0
  8 20  1  0
  9 21  1  0
  9 22  1  0
  9 23  1  0
M  END
