
     RDKit          3D

 23 24  0  0  0  0  0  0  0  0999 V2000
    2.2421   -0.3711   -0.5644 C   0  0  0  0  0  0  0  0  0  0  0  0
    1.7077    0.2372    0.6686 C   0  0  0  0  0  0  0  0  0  0  0  0
    2.3157   -0.3933    1.7798 O   0  0  0  0  0  0  0  0  0  0  0  0
    0.2452    0.2921    0.8153 C   0  0  0  0  0  0  0  0  0  0  0  0
   -0.4565    1.0836   -0.2789 C   0  0  0  0  0  0  0  0  0  0  0  0
   -1.8312    1.5582    0.0389 C   0  0  0  0  0  0  0  0  0  0  0  0
   -2.2114    0.1001    0.2777 C   0  0  0  0  0  0  0  0  0  0  0  0
   -0.7705   -0.3167   -0.0100 C   0  0  0  0  0  0  0  0  0  0  0  0
   -0.6430   -1.4329   -0.9443 C   0  0  0  0  0  0  0  0  0  0  0  0
    1.6377   -0.2394   -1.4701 H   0  0  0  0  0  0  0  0  0  0  0  0
    3.2427    0.1017   -0.7965 H   0  0  0  0  0  0  0  0  0  0  0  0
    2.5066   -1.4520   -0.3721 H   0  0  0  0  0  0  0  0  0  0  0  0
    2.0888    1.3016    0.7235 H   0  0  0  0  0  0  0  0  0  0  0  0
    1.7398   -1.0650    2.1814 H   0  0  0  0  0  0  0  0  0  0  0  0
   -0.0824    0.6030    1.8484 H   0  0  0  0  0  0  0  0  0  0  0  0
    0.0775    1.3665   -1.1829 H   0  0  0  0  0  0  0  0  0  0  0  0
   -2.3339    2.0277   -0.8296 H   0  0  0  0  0  0  0  0  0  0  0  0
   -1.9400    2.1620    0.9730 H   0  0  0  0  0  0  0  0  0  0  0  0
   -2.5541   -0.0920    1.3000 H   0  0  0  0  0  0  0  0  0  0  0  0
   -2.9344   -0.2164   -0.5045 H   0  0  0  0  0  0  0  0  0  0  0  0
   -1.5323   -2.1190   -0.8166 H   0  0  0  0  0  0  0  0  0  0  0  0
   -0.7524   -1.0534   -2.0014 H   0  0  0  0  0  0  0  0  0  0  0  0
    0.2381   -2.0825   -0.8353 H   0  0  0  0  0  0  0  0  0  0  0  0
  1  2  1  0
  2  3  1  0
  2  4  1  0
  4  5  1  0
  5  6  1  0
  6  7  1  0
  7  8  1  0
  8  9  1  0
  8  4  1  0
  8  5  1  0
  1 10  1  0
  1 11  1  0
  1 12  1  0
  2 13  1  0
  3 14  1  0
  4 15  1  0
  5 16  1  0
  6 17  1  0
  6 18  1  0
  7 19  1  0
  7 20  1  0
  9 21  1  0
  9 22  1  0
  9 23  1  0
M  END
