
     RDKit          3D

 22 22  0  0  0  0  0  0  0  0999 V2000
    2.3720   -0.6653   -0.6808 C   0  0  0  0  0  0  0  0  0  0  0  0
    1.5236   -0.0651    0.3950 C   0  0  0  0  0  0  0  0  0  0  0  0
    2.1264    1.1189    0.8291 O   0  0  0  0  0  0  0  0  0  0  0  0
    0.1643    0.2849   -0.1257 C   0  0  0  0  0  0  0  0  0  0  0  0
   -0.6027   -0.8845   -0.6621 C   0  0  0  0  0  0  0  0  0  0  0  0
   -2.0519   -0.4934   -0.5136 C   0  0  0  0  0  0  0  0  0  0  0  0
   -2.0949    0.8061    0.2334 C   0  0  0  0  0  0  0  0  0  0  0  0
   -0.7380    0.8138    0.9504 C   0  0  0  0  0  0  0  0  0  0  0  0
    1.8327   -0.6332   -1.6692 H   0  0  0  0  0  0  0  0  0  0  0  0
    3.3219   -0.1088   -0.8383 H   0  0  0  0  0  0  0  0  0  0  0  0
    2.6376   -1.7084   -0.4131 H   0  0  0  0  0  0  0  0  0  0  0  0
    1.4601   -0.7397    1.2682 H   0  0  0  0  0  0  0  0  0  0  0  0
    1.9565    1.2237    1.8147 H   0  0  0  0  0  0  0  0  0  0  0  0
    0.2528    1.0655   -0.9055 H   0  0  0  0  0  0  0  0  0  0  0  0
   -0.3067   -1.0635   -1.7152 H   0  0  0  0  0  0  0  0  0  0  0  0
   -0.3817   -1.8189   -0.0990 H   0  0  0  0  0  0  0  0  0  0  0  0
   -2.6192   -1.2629    0.0762 H   0  0  0  0  0  0  0  0  0  0  0  0
   -2.5626   -0.4145   -1.4987 H   0  0  0  0  0  0  0  0  0  0  0  0
   -2.0493    1.6945   -0.4562 H   0  0  0  0  0  0  0  0  0  0  0  0
   -2.9304    0.9154    0.9221 H   0  0  0  0  0  0  0  0  0  0  0  0
   -0.4764    1.8381    1.2844 H   0  0  0  0  0  0  0  0  0  0  0  0
   -0.8341    0.0973    1.8037 H   0  0  0  0  0  0  0  0  0  0  0  0
  1  2  1  0
  2  3  1  0
  2  4  1  0
  4  5  1  0
  5  6  1  0
  6  7  1  0
  7  8  1  0
  8  4  1  0
  1  9  1  0
  1 10  1  0
  1 11  1  0
  2 12  1  0
  3 13  1  0
  4 14  1  0
  5 15  1  0
  5 16  1  0
  6 17  1  0
  6 18  1  0
  7 19  1  0
  7 20  1  0
  8 21  1  0
  8 22  1  0
M  END
