
     RDKit          3D

 21 22  0  0  0  0  0  0  0  0999 V2000
    2.2982   -0.3130    0.5456 C   0  0  0  0  0  0  0  0  0  0  0  0
    1.2862    0.4085   -0.3448 C   0  0  0  0  0  0  0  0  0  0  0  0
    1.3221    1.7500    0.0121 O   0  0  0  0  0  0  0  0  0  0  0  0
   -0.0540   -0.1844   -0.0608 C   0  0  0  0  0  0  0  0  0  0  0  0
   -0.3290   -1.6156   -0.2743 C   0  0  0  0  0  0  0  0  0  0  0  0
   -1.0039   -0.5904   -1.0926 C   0  0  0  0  0  0  0  0  0  0  0  0
   -2.1260    0.1592   -0.3755 C   0  0  0  0  0  0  0  0  0  0  0  0
   -1.0770    0.7367    0.5322 C   0  0  0  0  0  0  0  0  0  0  0  0
   -1.2948    0.6139    1.8857 O   0  0  0  0  0  0  0  0  0  0  0  0
    1.7862   -0.9261    1.3245 H   0  0  0  0  0  0  0  0  0  0  0  0
    2.9003   -1.0191   -0.0623 H   0  0  0  0  0  0  0  0  0  0  0  0
    3.0126    0.4079    0.9968 H   0  0  0  0  0  0  0  0  0  0  0  0
    1.6038    0.2540   -1.4033 H   0  0  0  0  0  0  0  0  0  0  0  0
    1.6536    2.3363   -0.7166 H   0  0  0  0  0  0  0  0  0  0  0  0
   -0.9834   -2.2029    0.3986 H   0  0  0  0  0  0  0  0  0  0  0  0
    0.4528   -2.2030   -0.7619 H   0  0  0  0  0  0  0  0  0  0  0  0
   -0.8454   -0.4458   -2.1567 H   0  0  0  0  0  0  0  0  0  0  0  0
   -2.6867    0.8573   -0.9966 H   0  0  0  0  0  0  0  0  0  0  0  0
   -2.7952   -0.6113    0.1007 H   0  0  0  0  0  0  0  0  0  0  0  0
   -0.9087    1.8111    0.2709 H   0  0  0  0  0  0  0  0  0  0  0  0
   -2.2118    0.7766    2.1785 H   0  0  0  0  0  0  0  0  0  0  0  0
  1  2  1  0
  2  3  1  0
  2  4  1  0
  4  5  1  0
  5  6  1  0
  6  7  1  0
  7  8  1  0
  8  9  1  0
  6  4  1  0
  8  4  1  0
  1 10  1  0
  1 11  1  0
  1 12  1  0
  2 13  1  0
  3 14  1  0
  5 15  1  0
  5 16  1  0
  6 17  1  0
  7 18  1  0
  7 19  1  0
  8 20  1  0
  9 21  1  0
M  END
