
     RDKit          3D

 23 23  0  0  0  0  0  0  0  0999 V2000
   -1.5203   -1.5007   -0.1915 C   0  0  0  0  0  0  0  0  0  0  0  0
   -0.9269   -0.1808    0.3390 C   0  0  0  0  0  0  0  0  0  0  0  0
   -1.4408   -0.0681    1.6545 O   0  0  0  0  0  0  0  0  0  0  0  0
   -1.4522    0.9727   -0.4393 C   0  0  0  0  0  0  0  0  0  0  0  0
   -1.0579    2.1682    0.1462 O   0  0  0  0  0  0  0  0  0  0  0  0
    0.5390   -0.3123    0.4480 C   0  0  0  0  0  0  0  0  0  0  0  0
    1.2800   -0.6289   -0.8607 C   0  0  0  0  0  0  0  0  0  0  0  0
    2.4791    0.0210   -0.1473 C   0  0  0  0  0  0  0  0  0  0  0  0
    1.3961    0.9166    0.4903 C   0  0  0  0  0  0  0  0  0  0  0  0
   -2.4341   -1.2635   -0.7748 H   0  0  0  0  0  0  0  0  0  0  0  0
   -1.7125   -2.1857    0.6365 H   0  0  0  0  0  0  0  0  0  0  0  0
   -0.8110   -1.9714   -0.9139 H   0  0  0  0  0  0  0  0  0  0  0  0
   -1.0671   -0.8481    2.1423 H   0  0  0  0  0  0  0  0  0  0  0  0
   -2.5689    0.8803   -0.4658 H   0  0  0  0  0  0  0  0  0  0  0  0
   -1.1475    0.9237   -1.5194 H   0  0  0  0  0  0  0  0  0  0  0  0
   -1.6272    2.9299   -0.0639 H   0  0  0  0  0  0  0  0  0  0  0  0
    0.8346   -1.0593    1.2162 H   0  0  0  0  0  0  0  0  0  0  0  0
    1.4010   -1.6921   -1.0680 H   0  0  0  0  0  0  0  0  0  0  0  0
    0.9605    0.0338   -1.6674 H   0  0  0  0  0  0  0  0  0  0  0  0
    3.1685    0.5457   -0.8051 H   0  0  0  0  0  0  0  0  0  0  0  0
    2.8763   -0.6725    0.5959 H   0  0  0  0  0  0  0  0  0  0  0  0
    1.1627    1.6932   -0.2359 H   0  0  0  0  0  0  0  0  0  0  0  0
    1.6685    1.2983    1.4841 H   0  0  0  0  0  0  0  0  0  0  0  0
  1  2  1  0
  2  3  1  0
  2  4  1  0
  4  5  1  0
  2  6  1  0
  6  7  1  0
  7  8  1  0
  8  9  1  0
  9  6  1  0
  1 10  1  0
  1 11  1  0
  1 12  1  0
  3 13  1  0
  4 14  1  0
  4 15  1  0
  5 16  1  0
  6 17  1  0
  7 18  1  0
  7 19  1  0
  8 20  1  0
  8 21  1  0
  9 22  1  0
  9 23  1  0
M  END
