
     RDKit          3D

 21 21  0  0  0  0  0  0  0  0999 V2000
   -1.6921    1.1101   -0.8919 C   0  0  0  0  0  0  0  0  0  0  0  0
   -1.4456    0.0814    0.1428 C   0  0  0  0  0  0  0  0  0  0  0  0
   -2.3540   -0.9669   -0.0521 O   0  0  0  0  0  0  0  0  0  0  0  0
   -0.0716   -0.4950    0.1666 C   0  0  0  0  0  0  0  0  0  0  0  0
    0.3817   -1.1960   -1.0985 C   0  0  0  0  0  0  0  0  0  0  0  0
    1.7846   -0.6866   -0.7415 C   0  0  0  0  0  0  0  0  0  0  0  0
    1.0635    0.4890   -0.0821 C   0  0  0  0  0  0  0  0  0  0  0  0
    1.7229    0.9910    1.1403 C   0  0  0  0  0  0  0  0  0  0  0  0
    1.0477    1.2819    2.1055 O   0  0  0  0  0  0  0  0  0  0  0  0
   -1.5390    2.1533   -0.4830 H   0  0  0  0  0  0  0  0  0  0  0  0
   -2.7975    1.0897   -1.1320 H   0  0  0  0  0  0  0  0  0  0  0  0
   -1.1823    0.9754   -1.8465 H   0  0  0  0  0  0  0  0  0  0  0  0
   -1.6526    0.5144    1.1424 H   0  0  0  0  0  0  0  0  0  0  0  0
   -1.9447   -1.7974    0.2871 H   0  0  0  0  0  0  0  0  0  0  0  0
    0.1842   -1.1110    1.0495 H   0  0  0  0  0  0  0  0  0  0  0  0
   -0.0633   -0.7227   -1.9794 H   0  0  0  0  0  0  0  0  0  0  0  0
    0.2780   -2.2951   -1.0256 H   0  0  0  0  0  0  0  0  0  0  0  0
    2.2105   -1.3271    0.0345 H   0  0  0  0  0  0  0  0  0  0  0  0
    2.4075   -0.4336   -1.5975 H   0  0  0  0  0  0  0  0  0  0  0  0
    0.8571    1.2415   -0.8633 H   0  0  0  0  0  0  0  0  0  0  0  0
    2.8050    1.1038    1.1879 H   0  0  0  0  0  0  0  0  0  0  0  0
  1  2  1  0
  2  3  1  0
  2  4  1  0
  4  5  1  0
  5  6  1  0
  6  7  1  0
  7  8  1  0
  8  9  2  0
  7  4  1  0
  1 10  1  0
  1 11  1  0
  1 12  1  0
  2 13  1  0
  3 14  1  0
  4 15  1  0
  5 16  1  0
  5 17  1  0
  6 18  1  0
  6 19  1  0
  7 20  1  0
  8 21  1  0
M  END
