
     RDKit          3D

 25 25  0  0  0  0  0  0  0  0999 V2000
    3.2220    0.3580    0.5005 C   0  0  0  0  0  0  0  0  0  0  0  0
    1.9135   -0.4302    0.5591 C   0  0  0  0  0  0  0  0  0  0  0  0
    2.1747   -1.7258    0.2177 O   0  0  0  0  0  0  0  0  0  0  0  0
    0.9374    0.2750   -0.3309 C   0  0  0  0  0  0  0  0  0  0  0  0
   -0.4111   -0.3715   -0.3902 C   0  0  0  0  0  0  0  0  0  0  0  0
   -1.2843    0.4460   -1.3211 C   0  0  0  0  0  0  0  0  0  0  0  0
   -2.7076    0.2391   -0.7883 C   0  0  0  0  0  0  0  0  0  0  0  0
   -2.4661    0.3155    0.7013 C   0  0  0  0  0  0  0  0  0  0  0  0
   -1.1438   -0.3392    0.9209 C   0  0  0  0  0  0  0  0  0  0  0  0
    2.9535    1.4283    0.3627 H   0  0  0  0  0  0  0  0  0  0  0  0
    3.8211    0.0643   -0.3824 H   0  0  0  0  0  0  0  0  0  0  0  0
    3.7879    0.2888    1.4396 H   0  0  0  0  0  0  0  0  0  0  0  0
    1.5881   -0.3866    1.6172 H   0  0  0  0  0  0  0  0  0  0  0  0
    2.2156   -2.3167    1.0207 H   0  0  0  0  0  0  0  0  0  0  0  0
    1.3335    0.3566   -1.3608 H   0  0  0  0  0  0  0  0  0  0  0  0
    0.8032    1.3038    0.0518 H   0  0  0  0  0  0  0  0  0  0  0  0
   -0.3767   -1.4061   -0.7980 H   0  0  0  0  0  0  0  0  0  0  0  0
   -1.0919    1.5338   -1.2195 H   0  0  0  0  0  0  0  0  0  0  0  0
   -1.1886    0.1516   -2.3697 H   0  0  0  0  0  0  0  0  0  0  0  0
   -3.3884    1.0088   -1.1652 H   0  0  0  0  0  0  0  0  0  0  0  0
   -3.0115   -0.7744   -1.1078 H   0  0  0  0  0  0  0  0  0  0  0  0
   -2.4977    1.3803    1.0168 H   0  0  0  0  0  0  0  0  0  0  0  0
   -3.2788   -0.2671    1.1847 H   0  0  0  0  0  0  0  0  0  0  0  0
   -0.5909    0.2512    1.6918 H   0  0  0  0  0  0  0  0  0  0  0  0
   -1.3130   -1.3834    1.2577 H   0  0  0  0  0  0  0  0  0  0  0  0
  1  2  1  0
  2  3  1  0
  2  4  1  0
  4  5  1  0
  5  6  1  0
  6  7  1  0
  7  8  1  0
  8  9  1  0
  9  5  1  0
  1 10  1  0
  1 11  1  0
  1 12  1  0
  2 13  1  0
  3 14  1  0
  4 15  1  0
  4 16  1  0
  5 17  1  0
  6 18  1  0
  6 19  1  0
  7 20  1  0
  7 21  1  0
  8 22  1  0
  8 23  1  0
  9 24  1  0
  9 25  1  0
M  END
