
     RDKit          3D

 21 20  0  0  0  0  0  0  0  0999 V2000
    1.7806   -1.2609    0.3273 C   0  0  0  0  0  0  0  0  0  0  0  0
    0.9998    0.0289    0.5817 C   0  0  0  0  0  0  0  0  0  0  0  0
    0.4749    0.0694    1.8537 O   0  0  0  0  0  0  0  0  0  0  0  0
    0.0360    0.3390   -0.5102 C   0  0  0  0  0  0  0  0  0  0  0  0
   -0.4804    1.7387   -0.3052 C   0  0  0  0  0  0  0  0  0  0  0  0
    0.7641    0.2492   -1.7231 O   0  0  0  0  0  0  0  0  0  0  0  0
   -1.0961   -0.6301   -0.6473 C   0  0  0  0  0  0  0  0  0  0  0  0
   -1.9575   -0.7604    0.5361 C   0  0  0  0  0  0  0  0  0  0  0  0
   -1.6174   -1.4714    1.4604 O   0  0  0  0  0  0  0  0  0  0  0  0
    2.7179   -1.2177    0.9440 H   0  0  0  0  0  0  0  0  0  0  0  0
    1.1940   -2.1363    0.6146 H   0  0  0  0  0  0  0  0  0  0  0  0
    2.0474   -1.2434   -0.7574 H   0  0  0  0  0  0  0  0  0  0  0  0
    1.7862    0.8413    0.5436 H   0  0  0  0  0  0  0  0  0  0  0  0
    0.4344    1.0121    2.1887 H   0  0  0  0  0  0  0  0  0  0  0  0
   -0.0461    2.2167    0.6100 H   0  0  0  0  0  0  0  0  0  0  0  0
   -1.5859    1.7700   -0.1741 H   0  0  0  0  0  0  0  0  0  0  0  0
   -0.1865    2.3458   -1.1871 H   0  0  0  0  0  0  0  0  0  0  0  0
    0.1110    0.2036   -2.4744 H   0  0  0  0  0  0  0  0  0  0  0  0
   -1.7407   -0.2363   -1.4883 H   0  0  0  0  0  0  0  0  0  0  0  0
   -0.7351   -1.6153   -1.0207 H   0  0  0  0  0  0  0  0  0  0  0  0
   -2.9009   -0.2430    0.6276 H   0  0  0  0  0  0  0  0  0  0  0  0
  1  2  1  0
  2  3  1  0
  2  4  1  0
  4  5  1  0
  4  6  1  0
  4  7  1  0
  7  8  1  0
  8  9  2  0
  1 10  1  0
  1 11  1  0
  1 12  1  0
  2 13  1  0
  3 14  1  0
  5 15  1  0
  5 16  1  0
  5 17  1  0
  6 18  1  0
  7 19  1  0
  7 20  1  0
  8 21  1  0
M  END
