
     RDKit          3D

 17 16  0  0  0  0  0  0  0  0999 V2000
    1.8371    0.6164   -0.0932 C   0  0  0  0  0  0  0  0  0  0  0  0
    0.6780   -0.0504    0.5776 C   0  0  0  0  0  0  0  0  0  0  0  0
    1.0742   -1.3840    0.8345 O   0  0  0  0  0  0  0  0  0  0  0  0
   -0.5135   -0.1264   -0.3177 C   0  0  0  0  0  0  0  0  0  0  0  0
   -1.6604   -0.8108    0.4102 C   0  0  0  0  0  0  0  0  0  0  0  0
   -1.0191    1.1744   -0.7754 C   0  0  0  0  0  0  0  0  0  0  0  0
   -2.0567    1.1676   -1.4141 O   0  0  0  0  0  0  0  0  0  0  0  0
    1.6943    1.6692   -0.3321 H   0  0  0  0  0  0  0  0  0  0  0  0
    2.1413   -0.0120   -0.9668 H   0  0  0  0  0  0  0  0  0  0  0  0
    2.7011    0.5722    0.6313 H   0  0  0  0  0  0  0  0  0  0  0  0
    0.4601    0.4510    1.5362 H   0  0  0  0  0  0  0  0  0  0  0  0
    1.1839   -1.8359   -0.0568 H   0  0  0  0  0  0  0  0  0  0  0  0
   -0.2352   -0.7205   -1.2104 H   0  0  0  0  0  0  0  0  0  0  0  0
   -1.2151   -1.6573    0.9531 H   0  0  0  0  0  0  0  0  0  0  0  0
   -2.4329   -1.1019   -0.3243 H   0  0  0  0  0  0  0  0  0  0  0  0
   -2.0834   -0.0664    1.1421 H   0  0  0  0  0  0  0  0  0  0  0  0
   -0.5536    2.1148   -0.5942 H   0  0  0  0  0  0  0  0  0  0  0  0
  1  2  1  0
  2  3  1  0
  2  4  1  0
  4  5  1  0
  4  6  1  0
  6  7  2  0
  1  8  1  0
  1  9  1  0
  1 10  1  0
  2 11  1  0
  3 12  1  0
  4 13  1  0
  5 14  1  0
  5 15  1  0
  5 16  1  0
  6 17  1  0
M  END
