
     RDKit          3D

 18 18  0  0  0  0  0  0  0  0999 V2000
    2.3978   -0.9453    0.7734 C   0  0  0  0  0  0  0  0  0  0  0  0
    2.1833   -0.0593   -0.4161 C   0  0  0  0  0  0  0  0  0  0  0  0
    2.9135    1.1361   -0.3140 O   0  0  0  0  0  0  0  0  0  0  0  0
    0.7447    0.2053   -0.5150 C   0  0  0  0  0  0  0  0  0  0  0  0
   -0.4446    0.4454   -0.5962 C   0  0  0  0  0  0  0  0  0  0  0  0
   -1.8793    0.7605   -0.6880 C   0  0  0  0  0  0  0  0  0  0  0  0
   -2.8041   -0.4149   -0.4873 C   0  0  0  0  0  0  0  0  0  0  0  0
   -2.6358    0.6693    0.5551 C   0  0  0  0  0  0  0  0  0  0  0  0
    1.8157   -0.6550    1.6647 H   0  0  0  0  0  0  0  0  0  0  0  0
    2.2100   -1.9909    0.4537 H   0  0  0  0  0  0  0  0  0  0  0  0
    3.4958   -0.9015    1.0137 H   0  0  0  0  0  0  0  0  0  0  0  0
    2.5790   -0.5794   -1.3129 H   0  0  0  0  0  0  0  0  0  0  0  0
    3.5108    1.0251    0.4665 H   0  0  0  0  0  0  0  0  0  0  0  0
   -2.2067    1.5179   -1.4258 H   0  0  0  0  0  0  0  0  0  0  0  0
   -3.7145   -0.4379   -1.1144 H   0  0  0  0  0  0  0  0  0  0  0  0
   -2.3958   -1.4100   -0.2471 H   0  0  0  0  0  0  0  0  0  0  0  0
   -3.5534    1.2895    0.6675 H   0  0  0  0  0  0  0  0  0  0  0  0
   -2.2165    0.3450    1.5221 H   0  0  0  0  0  0  0  0  0  0  0  0
  1  2  1  0
  2  3  1  0
  2  4  1  0
  4  5  3  0
  5  6  1  0
  6  7  1  0
  7  8  1  0
  8  6  1  0
  1  9  1  0
  1 10  1  0
  1 11  1  0
  2 12  1  0
  3 13  1  0
  6 14  1  0
  7 15  1  0
  7 16  1  0
  8 17  1  0
  8 18  1  0
M  END
