
     RDKit          3D

 19 19  0  0  0  0  0  0  0  0999 V2000
   -0.9322   -1.1741   -0.9551 C   0  0  0  0  0  0  0  0  0  0  0  0
   -0.3207   -0.3015    0.1083 C   0  0  0  0  0  0  0  0  0  0  0  0
    0.8881    0.2253   -0.3403 O   0  0  0  0  0  0  0  0  0  0  0  0
    1.9338   -0.2301    0.4287 C   0  0  0  0  0  0  0  0  0  0  0  0
    3.2458    0.3163   -0.0257 C   0  0  0  0  0  0  0  0  0  0  0  0
    3.3266    1.0770   -0.9769 O   0  0  0  0  0  0  0  0  0  0  0  0
   -1.2671    0.7738    0.5840 C   0  0  0  0  0  0  0  0  0  0  0  0
   -2.5854    0.9597    0.0533 C   0  0  0  0  0  0  0  0  0  0  0  0
   -1.5686    1.7184   -0.5175 O   0  0  0  0  0  0  0  0  0  0  0  0
   -1.5106   -0.5691   -1.7101 H   0  0  0  0  0  0  0  0  0  0  0  0
   -0.1469   -1.6880   -1.5413 H   0  0  0  0  0  0  0  0  0  0  0  0
   -1.5861   -1.9612   -0.5160 H   0  0  0  0  0  0  0  0  0  0  0  0
   -0.1072   -0.9559    0.9785 H   0  0  0  0  0  0  0  0  0  0  0  0
    2.0284   -1.3480    0.4293 H   0  0  0  0  0  0  0  0  0  0  0  0
    1.8022    0.0716    1.4948 H   0  0  0  0  0  0  0  0  0  0  0  0
    4.1742    0.0593    0.4701 H   0  0  0  0  0  0  0  0  0  0  0  0
   -0.9794    1.2860    1.5247 H   0  0  0  0  0  0  0  0  0  0  0  0
   -3.0803    0.1858   -0.5780 H   0  0  0  0  0  0  0  0  0  0  0  0
   -3.3147    1.5550    0.6308 H   0  0  0  0  0  0  0  0  0  0  0  0
  1  2  1  0
  2  3  1  0
  3  4  1  0
  4  5  1  0
  5  6  2  0
  2  7  1  0
  7  8  1  0
  8  9  1  0
  9  7  1  0
  1 10  1  0
  1 11  1  0
  1 12  1  0
  2 13  1  0
  4 14  1  0
  4 15  1  0
  5 16  1  0
  7 17  1  0
  8 18  1  0
  8 19  1  0
M  END
