
     RDKit          3D

 22 22  0  0  0  0  0  0  0  0999 V2000
    1.8844   -0.9938   -0.3791 C   0  0  0  0  0  0  0  0  0  0  0  0
    1.2724    0.3709   -0.3624 C   0  0  0  0  0  0  0  0  0  0  0  0
    1.9424    1.1221    0.6054 O   0  0  0  0  0  0  0  0  0  0  0  0
   -0.1990    0.3798   -0.0552 C   0  0  0  0  0  0  0  0  0  0  0  0
   -0.7420    1.7920   -0.0568 C   0  0  0  0  0  0  0  0  0  0  0  0
   -1.0324   -0.5002   -0.9462 C   0  0  0  0  0  0  0  0  0  0  0  0
   -1.8164   -0.9209    0.2732 C   0  0  0  0  0  0  0  0  0  0  0  0
   -0.6399   -0.4184    1.1161 C   0  0  0  0  0  0  0  0  0  0  0  0
    1.4970   -1.6371   -1.2050 H   0  0  0  0  0  0  0  0  0  0  0  0
    2.9670   -0.8455   -0.6123 H   0  0  0  0  0  0  0  0  0  0  0  0
    1.8585   -1.5032    0.6000 H   0  0  0  0  0  0  0  0  0  0  0  0
    1.4568    0.8270   -1.3566 H   0  0  0  0  0  0  0  0  0  0  0  0
    2.1272    0.5086    1.3613 H   0  0  0  0  0  0  0  0  0  0  0  0
   -0.3119    2.3633   -0.8967 H   0  0  0  0  0  0  0  0  0  0  0  0
   -1.8690    1.7947   -0.1100 H   0  0  0  0  0  0  0  0  0  0  0  0
   -0.5240    2.3070    0.9224 H   0  0  0  0  0  0  0  0  0  0  0  0
   -1.6725    0.0528   -1.6546 H   0  0  0  0  0  0  0  0  0  0  0  0
   -0.5016   -1.3029   -1.4627 H   0  0  0  0  0  0  0  0  0  0  0  0
   -2.0167   -1.9823    0.3921 H   0  0  0  0  0  0  0  0  0  0  0  0
   -2.7357   -0.3205    0.4516 H   0  0  0  0  0  0  0  0  0  0  0  0
   -0.9349    0.1989    1.9839 H   0  0  0  0  0  0  0  0  0  0  0  0
   -0.0096   -1.2923    1.3916 H   0  0  0  0  0  0  0  0  0  0  0  0
  1  2  1  0
  2  3  1  0
  2  4  1  0
  4  5  1  0
  4  6  1  0
  6  7  1  0
  7  8  1  0
  8  4  1  0
  1  9  1  0
  1 10  1  0
  1 11  1  0
  2 12  1  0
  3 13  1  0
  5 14  1  0
  5 15  1  0
  5 16  1  0
  6 17  1  0
  6 18  1  0
  7 19  1  0
  7 20  1  0
  8 21  1  0
  8 22  1  0
M  END
