
     RDKit          3D

 19 18  0  0  0  0  0  0  0  0999 V2000
    3.0250   -0.2213   -0.7100 C   0  0  0  0  0  0  0  0  0  0  0  0
    1.9676   -0.9769    0.0319 C   0  0  0  0  0  0  0  0  0  0  0  0
    2.3617   -1.0492    1.3736 O   0  0  0  0  0  0  0  0  0  0  0  0
    0.6700   -0.3291   -0.0291 C   0  0  0  0  0  0  0  0  0  0  0  0
   -0.4046    0.1977   -0.0983 C   0  0  0  0  0  0  0  0  0  0  0  0
   -1.7242    0.8180   -0.1876 C   0  0  0  0  0  0  0  0  0  0  0  0
   -2.5971   -0.0589   -1.0611 C   0  0  0  0  0  0  0  0  0  0  0  0
   -2.3564    0.8897    1.1492 C   0  0  0  0  0  0  0  0  0  0  0  0
   -3.5061    1.2654    1.2686 O   0  0  0  0  0  0  0  0  0  0  0  0
    2.8959    0.8860   -0.5524 H   0  0  0  0  0  0  0  0  0  0  0  0
    4.0102   -0.4590   -0.2180 H   0  0  0  0  0  0  0  0  0  0  0  0
    3.0894   -0.4793   -1.7881 H   0  0  0  0  0  0  0  0  0  0  0  0
    1.8925   -2.0077   -0.3569 H   0  0  0  0  0  0  0  0  0  0  0  0
    2.7236   -0.1801    1.6951 H   0  0  0  0  0  0  0  0  0  0  0  0
   -1.6807    1.8186   -0.6587 H   0  0  0  0  0  0  0  0  0  0  0  0
   -3.3825    0.5968   -1.4913 H   0  0  0  0  0  0  0  0  0  0  0  0
   -2.0520   -0.5134   -1.9009 H   0  0  0  0  0  0  0  0  0  0  0  0
   -3.1297   -0.8054   -0.4327 H   0  0  0  0  0  0  0  0  0  0  0  0
   -1.8027    0.6082    2.0378 H   0  0  0  0  0  0  0  0  0  0  0  0
  1  2  1  0
  2  3  1  0
  2  4  1  0
  4  5  3  0
  5  6  1  0
  6  7  1  0
  6  8  1  0
  8  9  2  0
  1 10  1  0
  1 11  1  0
  1 12  1  0
  2 13  1  0
  3 14  1  0
  6 15  1  0
  7 16  1  0
  7 17  1  0
  7 18  1  0
  8 19  1  0
M  END
