
     RDKit          3D

 23 23  0  0  0  0  0  0  0  0999 V2000
   -2.8675    0.2037    0.1447 C   0  0  0  0  0  0  0  0  0  0  0  0
   -1.4844   -0.3990   -0.0141 C   0  0  0  0  0  0  0  0  0  0  0  0
   -1.3757   -1.4417    0.8576 O   0  0  0  0  0  0  0  0  0  0  0  0
   -0.4324    0.6465    0.0772 C   0  0  0  0  0  0  0  0  0  0  0  0
    0.9610    0.2403   -0.0548 C   0  0  0  0  0  0  0  0  0  0  0  0
    1.8834    1.4625    0.0682 C   0  0  0  0  0  0  0  0  0  0  0  0
    1.4003   -0.6135   -1.1775 C   0  0  0  0  0  0  0  0  0  0  0  0
    2.4336   -1.0820   -0.3299 O   0  0  0  0  0  0  0  0  0  0  0  0
    1.5131   -0.8859    0.7291 C   0  0  0  0  0  0  0  0  0  0  0  0
   -3.0532    0.2908    1.2329 H   0  0  0  0  0  0  0  0  0  0  0  0
   -3.5757   -0.4657   -0.3596 H   0  0  0  0  0  0  0  0  0  0  0  0
   -2.8591    1.1946   -0.3376 H   0  0  0  0  0  0  0  0  0  0  0  0
   -1.4608   -0.8322   -1.0561 H   0  0  0  0  0  0  0  0  0  0  0  0
   -1.6398   -2.3028    0.4360 H   0  0  0  0  0  0  0  0  0  0  0  0
   -0.5626    1.1629    1.0712 H   0  0  0  0  0  0  0  0  0  0  0  0
   -0.6456    1.4347   -0.6770 H   0  0  0  0  0  0  0  0  0  0  0  0
    1.5156    2.2810   -0.6076 H   0  0  0  0  0  0  0  0  0  0  0  0
    2.9318    1.1996   -0.1064 H   0  0  0  0  0  0  0  0  0  0  0  0
    1.7950    1.8386    1.1110 H   0  0  0  0  0  0  0  0  0  0  0  0
    1.7619   -0.0909   -2.0739 H   0  0  0  0  0  0  0  0  0  0  0  0
    0.7808   -1.4696   -1.4627 H   0  0  0  0  0  0  0  0  0  0  0  0
    0.9335   -1.7941    0.8549 H   0  0  0  0  0  0  0  0  0  0  0  0
    2.0468   -0.5778    1.6745 H   0  0  0  0  0  0  0  0  0  0  0  0
  1  2  1  0
  2  3  1  0
  2  4  1  0
  4  5  1  0
  5  6  1  0
  5  7  1  0
  7  8  1  0
  8  9  1  0
  9  5  1  0
  1 10  1  0
  1 11  1  0
  1 12  1  0
  2 13  1  0
  3 14  1  0
  4 15  1  0
  4 16  1  0
  6 17  1  0
  6 18  1  0
  6 19  1  0
  7 20  1  0
  7 21  1  0
  9 22  1  0
  9 23  1  0
M  END
