
     RDKit          3D

 19 20  0  0  0  0  0  0  0  0999 V2000
   -2.0095    0.1689    0.3400 C   0  0  0  0  0  0  0  0  0  0  0  0
   -0.9333   -0.7588   -0.2397 C   0  0  0  0  0  0  0  0  0  0  0  0
   -0.8171   -1.9154    0.4876 O   0  0  0  0  0  0  0  0  0  0  0  0
    0.3084    0.0373   -0.3861 C   0  0  0  0  0  0  0  0  0  0  0  0
    1.5683   -0.5856   -0.9348 C   0  0  0  0  0  0  0  0  0  0  0  0
    2.2992    0.0183    0.2142 C   0  0  0  0  0  0  0  0  0  0  0  0
    3.4752   -0.0068    0.5320 O   0  0  0  0  0  0  0  0  0  0  0  0
    1.0475    0.6174    0.7550 C   0  0  0  0  0  0  0  0  0  0  0  0
    0.3328    1.5228   -0.1785 C   0  0  0  0  0  0  0  0  0  0  0  0
   -2.2894    0.9473   -0.3994 H   0  0  0  0  0  0  0  0  0  0  0  0
   -2.9489   -0.4136    0.5289 H   0  0  0  0  0  0  0  0  0  0  0  0
   -1.6335    0.6719    1.2356 H   0  0  0  0  0  0  0  0  0  0  0  0
   -1.2952   -1.0329   -1.2623 H   0  0  0  0  0  0  0  0  0  0  0  0
   -1.5384   -2.0060    1.1620 H   0  0  0  0  0  0  0  0  0  0  0  0
    1.4911   -1.6863   -0.9170 H   0  0  0  0  0  0  0  0  0  0  0  0
    1.7949   -0.1340   -1.9259 H   0  0  0  0  0  0  0  0  0  0  0  0
    0.7607    0.4669    1.7907 H   0  0  0  0  0  0  0  0  0  0  0  0
   -0.5808    2.0372    0.1467 H   0  0  0  0  0  0  0  0  0  0  0  0
    0.9679    2.0514   -0.9491 H   0  0  0  0  0  0  0  0  0  0  0  0
  1  2  1  0
  2  3  1  0
  2  4  1  0
  4  5  1  0
  5  6  1  0
  6  7  2  0
  6  8  1  0
  8  9  1  0
  8  4  1  0
  9  4  1  0
  1 10  1  0
  1 11  1  0
  1 12  1  0
  2 13  1  0
  3 14  1  0
  5 15  1  0
  5 16  1  0
  8 17  1  0
  9 18  1  0
  9 19  1  0
M  END
