
     RDKit          3D

 19 21  0  0  0  0  0  0  0  0999 V2000
   -2.1934   -0.0137   -0.4897 C   0  0  0  0  0  0  0  0  0  0  0  0
   -0.9617   -0.4206    0.2840 C   0  0  0  0  0  0  0  0  0  0  0  0
   -1.0722    0.1783    1.5561 O   0  0  0  0  0  0  0  0  0  0  0  0
    0.3130   -0.0626   -0.3974 C   0  0  0  0  0  0  0  0  0  0  0  0
    0.6908    1.3080   -0.7382 C   0  0  0  0  0  0  0  0  0  0  0  0
    1.2920    0.7296    0.4941 C   0  0  0  0  0  0  0  0  0  0  0  0
    2.2068   -0.4584    0.4037 C   0  0  0  0  0  0  0  0  0  0  0  0
    1.7226   -1.7216    0.7175 O   0  0  0  0  0  0  0  0  0  0  0  0
    1.3731   -1.1342   -0.4715 C   0  0  0  0  0  0  0  0  0  0  0  0
   -2.3674    1.0764   -0.3942 H   0  0  0  0  0  0  0  0  0  0  0  0
   -3.0613   -0.5008    0.0421 H   0  0  0  0  0  0  0  0  0  0  0  0
   -2.1405   -0.3575   -1.5416 H   0  0  0  0  0  0  0  0  0  0  0  0
   -1.0244   -1.5118    0.4475 H   0  0  0  0  0  0  0  0  0  0  0  0
   -2.0298    0.1178    1.7985 H   0  0  0  0  0  0  0  0  0  0  0  0
    1.4006    1.4615   -1.5751 H   0  0  0  0  0  0  0  0  0  0  0  0
   -0.0671    2.0800   -0.6162 H   0  0  0  0  0  0  0  0  0  0  0  0
    0.9398    1.1159    1.4442 H   0  0  0  0  0  0  0  0  0  0  0  0
    3.2882   -0.3554    0.4783 H   0  0  0  0  0  0  0  0  0  0  0  0
    1.6908   -1.5308   -1.4421 H   0  0  0  0  0  0  0  0  0  0  0  0
  1  2  1  0
  2  3  1  0
  2  4  1  0
  4  5  1  0
  5  6  1  0
  6  7  1  0
  7  8  1  0
  8  9  1  0
  6  4  1  0
  9  7  1  0
  9  4  1  0
  1 10  1  0
  1 11  1  0
  1 12  1  0
  2 13  1  0
  3 14  1  0
  5 15  1  0
  5 16  1  0
  6 17  1  0
  7 18  1  0
  9 19  1  0
M  END
