
     RDKit          3D

 21 20  0  0  0  0  0  0  0  0999 V2000
   -1.8081    0.2051   -0.4850 C   0  0  0  0  0  0  0  0  0  0  0  0
   -0.9493   -0.2847    0.6570 C   0  0  0  0  0  0  0  0  0  0  0  0
   -1.4301    0.3056    1.8111 O   0  0  0  0  0  0  0  0  0  0  0  0
    0.5042   -0.0701    0.4465 C   0  0  0  0  0  0  0  0  0  0  0  0
    0.8871    1.3824    0.2689 C   0  0  0  0  0  0  0  0  0  0  0  0
    0.2799    1.9843   -0.8092 O   0  0  0  0  0  0  0  0  0  0  0  0
    1.1341   -0.8503   -0.6365 C   0  0  0  0  0  0  0  0  0  0  0  0
    1.0499   -2.3201   -0.4679 C   0  0  0  0  0  0  0  0  0  0  0  0
    0.5468   -2.8906    0.4623 O   0  0  0  0  0  0  0  0  0  0  0  0
   -1.4876   -0.2227   -1.4695 H   0  0  0  0  0  0  0  0  0  0  0  0
   -1.9304    1.2912   -0.4963 H   0  0  0  0  0  0  0  0  0  0  0  0
   -2.8288   -0.2472   -0.3107 H   0  0  0  0  0  0  0  0  0  0  0  0
   -1.1472   -1.3678    0.7537 H   0  0  0  0  0  0  0  0  0  0  0  0
   -1.3572    1.2879    1.8258 H   0  0  0  0  0  0  0  0  0  0  0  0
    1.0106   -0.3841    1.4087 H   0  0  0  0  0  0  0  0  0  0  0  0
    0.7172    1.9531    1.2276 H   0  0  0  0  0  0  0  0  0  0  0  0
    1.9846    1.4232    0.1043 H   0  0  0  0  0  0  0  0  0  0  0  0
    0.3334    2.9705   -0.6607 H   0  0  0  0  0  0  0  0  0  0  0  0
    0.7585   -0.6321   -1.6537 H   0  0  0  0  0  0  0  0  0  0  0  0
    2.2395   -0.6218   -0.6999 H   0  0  0  0  0  0  0  0  0  0  0  0
    1.4929   -2.9118   -1.2766 H   0  0  0  0  0  0  0  0  0  0  0  0
  1  2  1  0
  2  3  1  0
  2  4  1  0
  4  5  1  0
  5  6  1  0
  4  7  1  0
  7  8  1  0
  8  9  2  0
  1 10  1  0
  1 11  1  0
  1 12  1  0
  2 13  1  0
  3 14  1  0
  4 15  1  0
  5 16  1  0
  5 17  1  0
  6 18  1  0
  7 19  1  0
  7 20  1  0
  8 21  1  0
M  END
