
     RDKit          3D

 23 23  0  0  0  0  0  0  0  0999 V2000
    2.3830    0.9929    0.6533 C   0  0  0  0  0  0  0  0  0  0  0  0
    1.5320    0.2210   -0.3302 C   0  0  0  0  0  0  0  0  0  0  0  0
    2.3454   -0.7079   -1.0059 O   0  0  0  0  0  0  0  0  0  0  0  0
    0.4365   -0.5598    0.3307 C   0  0  0  0  0  0  0  0  0  0  0  0
   -0.5639    0.2043    1.1224 C   0  0  0  0  0  0  0  0  0  0  0  0
   -1.6742   -0.3737    0.2698 C   0  0  0  0  0  0  0  0  0  0  0  0
   -2.5777    0.6928   -0.2825 C   0  0  0  0  0  0  0  0  0  0  0  0
   -0.6358   -0.9111   -0.6799 C   0  0  0  0  0  0  0  0  0  0  0  0
   -0.6700   -2.2989   -0.8548 O   0  0  0  0  0  0  0  0  0  0  0  0
    3.1976    1.4723    0.0722 H   0  0  0  0  0  0  0  0  0  0  0  0
    1.7843    1.8155    1.0875 H   0  0  0  0  0  0  0  0  0  0  0  0
    2.7879    0.2970    1.4136 H   0  0  0  0  0  0  0  0  0  0  0  0
    1.0684    0.9426   -1.0395 H   0  0  0  0  0  0  0  0  0  0  0  0
    3.1796   -0.2415   -1.2297 H   0  0  0  0  0  0  0  0  0  0  0  0
    0.8517   -1.4185    0.8929 H   0  0  0  0  0  0  0  0  0  0  0  0
   -0.4984    1.3165    1.0669 H   0  0  0  0  0  0  0  0  0  0  0  0
   -0.6957   -0.1251    2.1817 H   0  0  0  0  0  0  0  0  0  0  0  0
   -2.2363   -1.2074    0.7193 H   0  0  0  0  0  0  0  0  0  0  0  0
   -2.4698    0.8291   -1.3679 H   0  0  0  0  0  0  0  0  0  0  0  0
   -2.3264    1.6824    0.1791 H   0  0  0  0  0  0  0  0  0  0  0  0
   -3.6348    0.4940    0.0310 H   0  0  0  0  0  0  0  0  0  0  0  0
   -0.5585   -0.4140   -1.6510 H   0  0  0  0  0  0  0  0  0  0  0  0
   -1.0249   -2.7024   -0.0224 H   0  0  0  0  0  0  0  0  0  0  0  0
  1  2  1  0
  2  3  1  0
  2  4  1  0
  4  5  1  0
  5  6  1  0
  6  7  1  0
  6  8  1  0
  8  9  1  0
  8  4  1  0
  1 10  1  0
  1 11  1  0
  1 12  1  0
  2 13  1  0
  3 14  1  0
  4 15  1  0
  5 16  1  0
  5 17  1  0
  6 18  1  0
  7 19  1  0
  7 20  1  0
  7 21  1  0
  8 22  1  0
  9 23  1  0
M  END
