
     RDKit          3D

 19 18  0  0  0  0  0  0  0  0999 V2000
   -0.4325    0.7449    1.4439 C   0  0  0  0  0  0  0  0  0  0  0  0
   -0.3662    0.3780   -0.0406 C   0  0  0  0  0  0  0  0  0  0  0  0
   -0.6383    1.4306   -0.8608 O   0  0  0  0  0  0  0  0  0  0  0  0
   -1.4454   -0.6752   -0.2415 C   0  0  0  0  0  0  0  0  0  0  0  0
   -1.4344   -1.0766   -1.5515 O   0  0  0  0  0  0  0  0  0  0  0  0
    0.9526   -0.3018   -0.3183 C   0  0  0  0  0  0  0  0  0  0  0  0
    1.0624   -1.3405    0.6031 O   0  0  0  0  0  0  0  0  0  0  0  0
    2.1075    0.5810   -0.1839 C   0  0  0  0  0  0  0  0  0  0  0  0
    2.2650    1.5816   -0.8781 O   0  0  0  0  0  0  0  0  0  0  0  0
   -1.4370    1.1841    1.6581 H   0  0  0  0  0  0  0  0  0  0  0  0
   -0.4119   -0.2220    1.9925 H   0  0  0  0  0  0  0  0  0  0  0  0
    0.3891    1.3977    1.7499 H   0  0  0  0  0  0  0  0  0  0  0  0
    0.0252    1.6379   -1.5450 H   0  0  0  0  0  0  0  0  0  0  0  0
   -1.1773   -1.5130    0.4596 H   0  0  0  0  0  0  0  0  0  0  0  0
   -2.4280   -0.2989    0.1107 H   0  0  0  0  0  0  0  0  0  0  0  0
   -2.3563   -1.0167   -1.9042 H   0  0  0  0  0  0  0  0  0  0  0  0
    0.8853   -0.7564   -1.3290 H   0  0  0  0  0  0  0  0  0  0  0  0
    1.5720   -2.1044    0.2888 H   0  0  0  0  0  0  0  0  0  0  0  0
    2.8680    0.3696    0.5462 H   0  0  0  0  0  0  0  0  0  0  0  0
  1  2  1  0
  2  3  1  0
  2  4  1  0
  4  5  1  0
  2  6  1  0
  6  7  1  0
  6  8  1  0
  8  9  2  0
  1 10  1  0
  1 11  1  0
  1 12  1  0
  3 13  1  0
  4 14  1  0
  4 15  1  0
  5 16  1  0
  6 17  1  0
  7 18  1  0
  8 19  1  0
M  END
