
     RDKit          3D

 25 25  0  0  0  0  0  0  0  0999 V2000
    3.1802   -0.7369   -0.5681 C   0  0  0  0  0  0  0  0  0  0  0  0
    1.9375   -0.2509    0.1906 C   0  0  0  0  0  0  0  0  0  0  0  0
    2.3713    0.5552    1.2256 O   0  0  0  0  0  0  0  0  0  0  0  0
    1.1152    0.5199   -0.7848 C   0  0  0  0  0  0  0  0  0  0  0  0
   -0.1492    1.0817   -0.2342 C   0  0  0  0  0  0  0  0  0  0  0  0
   -1.0910    0.0386    0.3007 C   0  0  0  0  0  0  0  0  0  0  0  0
   -2.3620    0.6531    0.8499 C   0  0  0  0  0  0  0  0  0  0  0  0
   -3.1023   -0.5508    0.2731 C   0  0  0  0  0  0  0  0  0  0  0  0
   -1.9701   -0.6133   -0.7615 C   0  0  0  0  0  0  0  0  0  0  0  0
    2.9125   -1.0047   -1.5978 H   0  0  0  0  0  0  0  0  0  0  0  0
    3.9510    0.0665   -0.6066 H   0  0  0  0  0  0  0  0  0  0  0  0
    3.6367   -1.6019   -0.0825 H   0  0  0  0  0  0  0  0  0  0  0  0
    1.4316   -1.1815    0.5400 H   0  0  0  0  0  0  0  0  0  0  0  0
    2.8837   -0.0216    1.8537 H   0  0  0  0  0  0  0  0  0  0  0  0
    1.7301    1.3656   -1.1571 H   0  0  0  0  0  0  0  0  0  0  0  0
    0.9158   -0.1251   -1.6606 H   0  0  0  0  0  0  0  0  0  0  0  0
    0.0346    1.8287    0.5466 H   0  0  0  0  0  0  0  0  0  0  0  0
   -0.6781    1.5945   -1.0712 H   0  0  0  0  0  0  0  0  0  0  0  0
   -0.6757   -0.6778    1.0213 H   0  0  0  0  0  0  0  0  0  0  0  0
   -2.7029    1.5576    0.2715 H   0  0  0  0  0  0  0  0  0  0  0  0
   -2.4045    0.7548    1.9359 H   0  0  0  0  0  0  0  0  0  0  0  0
   -3.0652   -1.4365    0.9182 H   0  0  0  0  0  0  0  0  0  0  0  0
   -4.0871   -0.3004   -0.1691 H   0  0  0  0  0  0  0  0  0  0  0  0
   -2.1265    0.1129   -1.5838 H   0  0  0  0  0  0  0  0  0  0  0  0
   -1.6858   -1.6278   -1.0494 H   0  0  0  0  0  0  0  0  0  0  0  0
  1  2  1  0
  2  3  1  0
  2  4  1  0
  4  5  1  0
  5  6  1  0
  6  7  1  0
  7  8  1  0
  8  9  1  0
  9  6  1  0
  1 10  1  0
  1 11  1  0
  1 12  1  0
  2 13  1  0
  3 14  1  0
  4 15  1  0
  4 16  1  0
  5 17  1  0
  5 18  1  0
  6 19  1  0
  7 20  1  0
  7 21  1  0
  8 22  1  0
  8 23  1  0
  9 24  1  0
  9 25  1  0
M  END
