
     RDKit          3D

 19 20  0  0  0  0  0  0  0  0999 V2000
   -2.4712   -0.4453   -0.1140 C   0  0  0  0  0  0  0  0  0  0  0  0
   -1.2678    0.3611   -0.6160 C   0  0  0  0  0  0  0  0  0  0  0  0
   -1.4537    1.6594   -0.1546 O   0  0  0  0  0  0  0  0  0  0  0  0
   -0.0486   -0.2446    0.0367 C   0  0  0  0  0  0  0  0  0  0  0  0
    0.9583   -0.9392   -0.7561 C   0  0  0  0  0  0  0  0  0  0  0  0
    2.1960   -0.7644   -0.3380 C   0  0  0  0  0  0  0  0  0  0  0  0
    2.1774    0.1090    0.8424 C   0  0  0  0  0  0  0  0  0  0  0  0
    0.7999    0.6183    0.9329 C   0  0  0  0  0  0  0  0  0  0  0  0
   -0.1254   -0.3122    1.4032 O   0  0  0  0  0  0  0  0  0  0  0  0
   -2.1894   -1.4923    0.1123 H   0  0  0  0  0  0  0  0  0  0  0  0
   -2.8186   -0.0166    0.8680 H   0  0  0  0  0  0  0  0  0  0  0  0
   -3.3333   -0.3554   -0.7968 H   0  0  0  0  0  0  0  0  0  0  0  0
   -1.2651    0.3036   -1.7006 H   0  0  0  0  0  0  0  0  0  0  0  0
   -0.9495    2.2484   -0.7891 H   0  0  0  0  0  0  0  0  0  0  0  0
    0.7202   -1.5610   -1.6326 H   0  0  0  0  0  0  0  0  0  0  0  0
    3.1251   -1.1748   -0.7579 H   0  0  0  0  0  0  0  0  0  0  0  0
    2.9747    0.8718    0.8382 H   0  0  0  0  0  0  0  0  0  0  0  0
    2.4268   -0.5521    1.7223 H   0  0  0  0  0  0  0  0  0  0  0  0
    0.5442    1.6861    0.8995 H   0  0  0  0  0  0  0  0  0  0  0  0
  1  2  1  0
  2  3  1  0
  2  4  1  0
  4  5  1  0
  5  6  2  0
  6  7  1  0
  7  8  1  0
  8  9  1  0
  8  4  1  0
  9  4  1  0
  1 10  1  0
  1 11  1  0
  1 12  1  0
  2 13  1  0
  3 14  1  0
  5 15  1  0
  6 16  1  0
  7 17  1  0
  7 18  1  0
  8 19  1  0
M  END
