
     RDKit          3D

 19 20  0  0  0  0  0  0  0  0999 V2000
   -2.3482   -0.6657   -0.2002 C   0  0  0  0  0  0  0  0  0  0  0  0
   -1.4089    0.5024   -0.2367 C   0  0  0  0  0  0  0  0  0  0  0  0
   -1.6866    1.3750    0.8354 O   0  0  0  0  0  0  0  0  0  0  0  0
   -0.0216    0.0199   -0.2267 C   0  0  0  0  0  0  0  0  0  0  0  0
    0.5358   -1.1907   -0.1932 C   0  0  0  0  0  0  0  0  0  0  0  0
    1.9991   -0.7969   -0.2480 C   0  0  0  0  0  0  0  0  0  0  0  0
    2.0313    0.2582    0.8157 C   0  0  0  0  0  0  0  0  0  0  0  0
    1.1778    0.8998   -0.2554 C   0  0  0  0  0  0  0  0  0  0  0  0
    1.9765    0.2355   -1.1811 O   0  0  0  0  0  0  0  0  0  0  0  0
   -1.8671   -1.4781    0.4040 H   0  0  0  0  0  0  0  0  0  0  0  0
   -2.4564   -1.0636   -1.2208 H   0  0  0  0  0  0  0  0  0  0  0  0
   -3.2906   -0.3721    0.2783 H   0  0  0  0  0  0  0  0  0  0  0  0
   -1.5529    1.0643   -1.2024 H   0  0  0  0  0  0  0  0  0  0  0  0
   -1.3671    2.2884    0.6320 H   0  0  0  0  0  0  0  0  0  0  0  0
    0.1043   -2.1789   -0.1423 H   0  0  0  0  0  0  0  0  0  0  0  0
    2.7209   -1.5582   -0.2968 H   0  0  0  0  0  0  0  0  0  0  0  0
    1.3985   -0.0190    1.6972 H   0  0  0  0  0  0  0  0  0  0  0  0
    2.9849    0.7331    1.0322 H   0  0  0  0  0  0  0  0  0  0  0  0
    1.0703    1.9466   -0.2911 H   0  0  0  0  0  0  0  0  0  0  0  0
  1  2  1  0
  2  3  1  0
  2  4  1  0
  4  5  2  0
  5  6  1  0
  6  7  1  0
  7  8  1  0
  8  9  1  0
  8  4  1  0
  9  6  1  0
  1 10  1  0
  1 11  1  0
  1 12  1  0
  2 13  1  0
  3 14  1  0
  5 15  1  0
  6 16  1  0
  7 17  1  0
  7 18  1  0
  8 19  1  0
M  END
