
     RDKit          3D

 21 21  0  0  0  0  0  0  0  0999 V2000
    2.2537    0.2606   -0.4389 C   0  0  0  0  0  0  0  0  0  0  0  0
    1.0603   -0.6038   -0.2379 C   0  0  0  0  0  0  0  0  0  0  0  0
    1.3883   -1.6067    0.6734 O   0  0  0  0  0  0  0  0  0  0  0  0
   -0.1276    0.1369    0.3232 C   0  0  0  0  0  0  0  0  0  0  0  0
    0.2247    0.6728    1.5422 O   0  0  0  0  0  0  0  0  0  0  0  0
   -1.3354   -0.7731    0.3947 C   0  0  0  0  0  0  0  0  0  0  0  0
   -2.3631    0.0370   -0.3871 C   0  0  0  0  0  0  0  0  0  0  0  0
   -1.5302    0.6042   -1.3768 O   0  0  0  0  0  0  0  0  0  0  0  0
   -0.5970    1.2507   -0.5690 C   0  0  0  0  0  0  0  0  0  0  0  0
    2.4250    0.8908    0.4419 H   0  0  0  0  0  0  0  0  0  0  0  0
    2.2183    0.8319   -1.3883 H   0  0  0  0  0  0  0  0  0  0  0  0
    3.1500   -0.4204   -0.5232 H   0  0  0  0  0  0  0  0  0  0  0  0
    0.7735   -1.1213   -1.1871 H   0  0  0  0  0  0  0  0  0  0  0  0
    2.3526   -1.6607    0.8623 H   0  0  0  0  0  0  0  0  0  0  0  0
   -0.1843    0.1394    2.2842 H   0  0  0  0  0  0  0  0  0  0  0  0
   -1.1735   -1.7069   -0.1765 H   0  0  0  0  0  0  0  0  0  0  0  0
   -1.6662   -0.9770    1.4235 H   0  0  0  0  0  0  0  0  0  0  0  0
   -2.7270    0.8835    0.2147 H   0  0  0  0  0  0  0  0  0  0  0  0
   -3.1581   -0.5732   -0.8093 H   0  0  0  0  0  0  0  0  0  0  0  0
    0.1900    1.7601   -1.1168 H   0  0  0  0  0  0  0  0  0  0  0  0
   -1.1739    1.9752    0.0507 H   0  0  0  0  0  0  0  0  0  0  0  0
  1  2  1  0
  2  3  1  0
  2  4  1  0
  4  5  1  0
  4  6  1  0
  6  7  1  0
  7  8  1  0
  8  9  1  0
  9  4  1  0
  1 10  1  0
  1 11  1  0
  1 12  1  0
  2 13  1  0
  3 14  1  0
  5 15  1  0
  6 16  1  0
  6 17  1  0
  7 18  1  0
  7 19  1  0
  9 20  1  0
  9 21  1  0
M  END
