
     RDKit          3D

 22 21  0  0  0  0  0  0  0  0999 V2000
    1.6409    1.0677    0.6821 C   0  0  0  0  0  0  0  0  0  0  0  0
    1.2853   -0.1643   -0.0559 C   0  0  0  0  0  0  0  0  0  0  0  0
    1.4283    0.1264   -1.4347 O   0  0  0  0  0  0  0  0  0  0  0  0
   -0.0612   -0.7363    0.1548 C   0  0  0  0  0  0  0  0  0  0  0  0
   -0.1368   -1.9991   -0.7255 C   0  0  0  0  0  0  0  0  0  0  0  0
   -1.2197    0.1112   -0.2186 C   0  0  0  0  0  0  0  0  0  0  0  0
   -1.3528    1.4133    0.4915 C   0  0  0  0  0  0  0  0  0  0  0  0
   -2.4169   -0.6057   -0.0131 O   0  0  0  0  0  0  0  0  0  0  0  0
    1.0012    1.1797    1.5766 H   0  0  0  0  0  0  0  0  0  0  0  0
    2.6728    0.9033    1.1257 H   0  0  0  0  0  0  0  0  0  0  0  0
    1.7300    1.9732    0.0533 H   0  0  0  0  0  0  0  0  0  0  0  0
    2.0273   -0.9920    0.1225 H   0  0  0  0  0  0  0  0  0  0  0  0
    2.3839    0.3819   -1.5285 H   0  0  0  0  0  0  0  0  0  0  0  0
   -0.1128   -1.1309    1.2004 H   0  0  0  0  0  0  0  0  0  0  0  0
   -0.6245   -1.7498   -1.6953 H   0  0  0  0  0  0  0  0  0  0  0  0
    0.8788   -2.4036   -0.9023 H   0  0  0  0  0  0  0  0  0  0  0  0
   -0.7265   -2.7885   -0.2382 H   0  0  0  0  0  0  0  0  0  0  0  0
   -1.1284    0.3280   -1.3237 H   0  0  0  0  0  0  0  0  0  0  0  0
   -0.6366    2.1822    0.1462 H   0  0  0  0  0  0  0  0  0  0  0  0
   -1.3739    1.2972    1.6100 H   0  0  0  0  0  0  0  0  0  0  0  0
   -2.3603    1.8507    0.2029 H   0  0  0  0  0  0  0  0  0  0  0  0
   -2.8980   -0.2446    0.7696 H   0  0  0  0  0  0  0  0  0  0  0  0
  1  2  1  0
  2  3  1  0
  2  4  1  0
  4  5  1  0
  4  6  1  0
  6  7  1  0
  6  8  1  0
  1  9  1  0
  1 10  1  0
  1 11  1  0
  2 12  1  0
  3 13  1  0
  4 14  1  0
  5 15  1  0
  5 16  1  0
  5 17  1  0
  6 18  1  0
  7 19  1  0
  7 20  1  0
  7 21  1  0
  8 22  1  0
M  END
