
     RDKit          3D

 23 24  0  0  0  0  0  0  0  0999 V2000
   -2.5487    0.7421    0.0259 C   0  0  0  0  0  0  0  0  0  0  0  0
   -1.6925   -0.3472   -0.5850 C   0  0  0  0  0  0  0  0  0  0  0  0
   -1.5559   -0.0652   -1.9295 O   0  0  0  0  0  0  0  0  0  0  0  0
   -0.3510   -0.3676    0.1240 C   0  0  0  0  0  0  0  0  0  0  0  0
    0.3310    0.9553   -0.0347 C   0  0  0  0  0  0  0  0  0  0  0  0
    1.7616    0.6565   -0.4103 C   0  0  0  0  0  0  0  0  0  0  0  0
    2.5220   -0.1140    0.6398 C   0  0  0  0  0  0  0  0  0  0  0  0
    1.9357   -0.7961   -0.5342 C   0  0  0  0  0  0  0  0  0  0  0  0
    0.5595   -1.4127   -0.4593 C   0  0  0  0  0  0  0  0  0  0  0  0
   -3.3923    0.9688   -0.6577 H   0  0  0  0  0  0  0  0  0  0  0  0
   -2.9906    0.2887    0.9587 H   0  0  0  0  0  0  0  0  0  0  0  0
   -1.9368    1.6322    0.2535 H   0  0  0  0  0  0  0  0  0  0  0  0
   -2.2265   -1.3002   -0.4897 H   0  0  0  0  0  0  0  0  0  0  0  0
   -1.5312    0.9148   -2.1165 H   0  0  0  0  0  0  0  0  0  0  0  0
   -0.5287   -0.6358    1.1858 H   0  0  0  0  0  0  0  0  0  0  0  0
   -0.1657    1.6313   -0.7581 H   0  0  0  0  0  0  0  0  0  0  0  0
    0.3487    1.4725    0.9465 H   0  0  0  0  0  0  0  0  0  0  0  0
    2.2957    1.2952   -1.1219 H   0  0  0  0  0  0  0  0  0  0  0  0
    2.1131   -0.2215    1.6519 H   0  0  0  0  0  0  0  0  0  0  0  0
    3.6345    0.0009    0.6223 H   0  0  0  0  0  0  0  0  0  0  0  0
    2.6098   -1.2524   -1.2697 H   0  0  0  0  0  0  0  0  0  0  0  0
    0.2264   -1.6925   -1.4789 H   0  0  0  0  0  0  0  0  0  0  0  0
    0.5818   -2.3533    0.1569 H   0  0  0  0  0  0  0  0  0  0  0  0
  1  2  1  0
  2  3  1  0
  2  4  1  0
  4  5  1  0
  5  6  1  0
  6  7  1  0
  7  8  1  0
  8  9  1  0
  9  4  1  0
  8  6  1  0
  1 10  1  0
  1 11  1  0
  1 12  1  0
  2 13  1  0
  3 14  1  0
  4 15  1  0
  5 16  1  0
  5 17  1  0
  6 18  1  0
  7 19  1  0
  7 20  1  0
  8 21  1  0
  9 22  1  0
  9 23  1  0
M  END
