
     RDKit          3D

 15 14  0  0  0  0  0  0  0  0999 V2000
   -1.0256   -0.9707    0.3632 C   0  0  0  0  0  0  0  0  0  0  0  0
   -0.3246    0.2596   -0.1990 C   0  0  0  0  0  0  0  0  0  0  0  0
   -0.5319    0.3127   -1.5730 O   0  0  0  0  0  0  0  0  0  0  0  0
   -0.7963    1.4780    0.4852 C   0  0  0  0  0  0  0  0  0  0  0  0
   -1.2938    2.3728   -0.1494 O   0  0  0  0  0  0  0  0  0  0  0  0
    1.1735    0.1669    0.0159 C   0  0  0  0  0  0  0  0  0  0  0  0
    1.7212   -0.9518   -0.5722 O   0  0  0  0  0  0  0  0  0  0  0  0
   -1.5464   -1.5357   -0.4404 H   0  0  0  0  0  0  0  0  0  0  0  0
   -0.3168   -1.6527    0.8789 H   0  0  0  0  0  0  0  0  0  0  0  0
   -1.7677   -0.6402    1.1136 H   0  0  0  0  0  0  0  0  0  0  0  0
   -0.2383   -0.5773   -1.9340 H   0  0  0  0  0  0  0  0  0  0  0  0
   -0.6928    1.5596    1.5467 H   0  0  0  0  0  0  0  0  0  0  0  0
    1.3938    0.1684    1.0935 H   0  0  0  0  0  0  0  0  0  0  0  0
    1.6084    1.0819   -0.4459 H   0  0  0  0  0  0  0  0  0  0  0  0
    2.6374   -1.0714   -0.1831 H   0  0  0  0  0  0  0  0  0  0  0  0
  1  2  1  0
  2  3  1  0
  2  4  1  0
  4  5  2  0
  2  6  1  0
  6  7  1  0
  1  8  1  0
  1  9  1  0
  1 10  1  0
  3 11  1  0
  4 12  1  0
  6 13  1  0
  6 14  1  0
  7 15  1  0
M  END
