
     RDKit          3D

 20 20  0  0  0  0  0  0  0  0999 V2000
    1.7464   -0.6023    0.7610 C   0  0  0  0  0  0  0  0  0  0  0  0
    1.0694   -0.0194   -0.4874 C   0  0  0  0  0  0  0  0  0  0  0  0
    1.3925    1.3323   -0.5783 O   0  0  0  0  0  0  0  0  0  0  0  0
   -0.4289   -0.2118   -0.2555 C   0  0  0  0  0  0  0  0  0  0  0  0
   -0.8165   -1.6539   -0.0861 C   0  0  0  0  0  0  0  0  0  0  0  0
   -1.4145    0.6904   -0.8440 C   0  0  0  0  0  0  0  0  0  0  0  0
   -1.0370    0.8533    0.5888 C   0  0  0  0  0  0  0  0  0  0  0  0
   -0.2932    2.0142    0.8527 O   0  0  0  0  0  0  0  0  0  0  0  0
    2.0527   -1.6629    0.5680 H   0  0  0  0  0  0  0  0  0  0  0  0
    2.6030    0.0109    1.0831 H   0  0  0  0  0  0  0  0  0  0  0  0
    1.0421   -0.6509    1.6149 H   0  0  0  0  0  0  0  0  0  0  0  0
    1.3736   -0.5950   -1.3592 H   0  0  0  0  0  0  0  0  0  0  0  0
    1.6667    1.5343   -1.5046 H   0  0  0  0  0  0  0  0  0  0  0  0
   -0.1129   -2.2920   -0.6520 H   0  0  0  0  0  0  0  0  0  0  0  0
   -1.8196   -1.8274   -0.5474 H   0  0  0  0  0  0  0  0  0  0  0  0
   -0.8279   -1.8915    0.9880 H   0  0  0  0  0  0  0  0  0  0  0  0
   -1.0694    1.3838   -1.6235 H   0  0  0  0  0  0  0  0  0  0  0  0
   -2.4384    0.2849   -1.0018 H   0  0  0  0  0  0  0  0  0  0  0  0
   -1.7261    0.5947    1.3929 H   0  0  0  0  0  0  0  0  0  0  0  0
   -0.9618    2.7084    1.0903 H   0  0  0  0  0  0  0  0  0  0  0  0
  1  2  1  0
  2  3  1  0
  2  4  1  0
  4  5  1  0
  4  6  1  0
  6  7  1  0
  7  8  1  0
  7  4  1  0
  1  9  1  0
  1 10  1  0
  1 11  1  0
  2 12  1  0
  3 13  1  0
  5 14  1  0
  5 15  1  0
  5 16  1  0
  6 17  1  0
  6 18  1  0
  7 19  1  0
  8 20  1  0
M  END
