
     RDKit          3D

 17 16  0  0  0  0  0  0  0  0999 V2000
   -1.1567    1.7975    0.1625 C   0  0  0  0  0  0  0  0  0  0  0  0
   -1.2555    0.3725    0.6611 C   0  0  0  0  0  0  0  0  0  0  0  0
   -1.6614   -0.4934   -0.3330 O   0  0  0  0  0  0  0  0  0  0  0  0
   -0.0302   -0.1092    1.3351 C   0  0  0  0  0  0  0  0  0  0  0  0
    1.1130   -0.2762    0.5832 O   0  0  0  0  0  0  0  0  0  0  0  0
    1.3684   -1.0982   -0.4735 C   0  0  0  0  0  0  0  0  0  0  0  0
    0.4476   -1.8522   -0.8670 O   0  0  0  0  0  0  0  0  0  0  0  0
    2.6357   -1.1671   -1.1829 C   0  0  0  0  0  0  0  0  0  0  0  0
    3.5751   -0.4242   -0.8113 O   0  0  0  0  0  0  0  0  0  0  0  0
   -1.8492    1.8513   -0.7292 H   0  0  0  0  0  0  0  0  0  0  0  0
   -0.1466    2.0710   -0.1772 H   0  0  0  0  0  0  0  0  0  0  0  0
   -1.5375    2.5361    0.9011 H   0  0  0  0  0  0  0  0  0  0  0  0
   -2.0854    0.3920    1.4289 H   0  0  0  0  0  0  0  0  0  0  0  0
   -2.1709   -1.2724    0.0193 H   0  0  0  0  0  0  0  0  0  0  0  0
    0.2392    0.5934    2.1801 H   0  0  0  0  0  0  0  0  0  0  0  0
   -0.2954   -1.0953    1.8264 H   0  0  0  0  0  0  0  0  0  0  0  0
    2.8097   -1.8255   -2.0140 H   0  0  0  0  0  0  0  0  0  0  0  0
  1  2  1  0
  2  3  1  0
  2  4  1  0
  4  5  1  0
  5  6  1  0
  6  7  2  0
  6  8  1  0
  8  9  2  0
  1 10  1  0
  1 11  1  0
  1 12  1  0
  2 13  1  0
  3 14  1  0
  4 15  1  0
  4 16  1  0
  8 17  1  0
M  END
