
     RDKit          3D

 21 20  0  0  0  0  0  0  0  0999 V2000
    0.6875    1.6582    0.1185 C   0  0  0  0  0  0  0  0  0  0  0  0
    0.6786    0.2133   -0.3139 C   0  0  0  0  0  0  0  0  0  0  0  0
    1.6889   -0.4697    0.3940 O   0  0  0  0  0  0  0  0  0  0  0  0
    2.7183   -1.0625   -0.3112 C   0  0  0  0  0  0  0  0  0  0  0  0
    2.6936   -0.9568   -1.5599 O   0  0  0  0  0  0  0  0  0  0  0  0
   -0.6706   -0.4127   -0.0282 C   0  0  0  0  0  0  0  0  0  0  0  0
   -0.9584   -0.3722    1.4514 C   0  0  0  0  0  0  0  0  0  0  0  0
   -1.7807    0.2810   -0.7550 C   0  0  0  0  0  0  0  0  0  0  0  0
   -0.6359   -1.7521   -0.4341 O   0  0  0  0  0  0  0  0  0  0  0  0
    1.4196    1.8474    0.9478 H   0  0  0  0  0  0  0  0  0  0  0  0
   -0.2850    2.0296    0.4552 H   0  0  0  0  0  0  0  0  0  0  0  0
    1.0537    2.3201   -0.7207 H   0  0  0  0  0  0  0  0  0  0  0  0
    0.8486    0.1867   -1.4202 H   0  0  0  0  0  0  0  0  0  0  0  0
    3.4914   -1.5849    0.2281 H   0  0  0  0  0  0  0  0  0  0  0  0
   -0.7161    0.6176    1.8629 H   0  0  0  0  0  0  0  0  0  0  0  0
   -2.0541   -0.6126    1.5603 H   0  0  0  0  0  0  0  0  0  0  0  0
   -0.3479   -1.1736    1.9187 H   0  0  0  0  0  0  0  0  0  0  0  0
   -2.5381   -0.4811   -1.0347 H   0  0  0  0  0  0  0  0  0  0  0  0
   -2.3224    1.0159   -0.0972 H   0  0  0  0  0  0  0  0  0  0  0  0
   -1.4003    0.7751   -1.6845 H   0  0  0  0  0  0  0  0  0  0  0  0
   -1.5705   -2.0667   -0.5774 H   0  0  0  0  0  0  0  0  0  0  0  0
  1  2  1  0
  2  3  1  0
  3  4  1  0
  4  5  2  0
  2  6  1  0
  6  7  1  0
  6  8  1  0
  6  9  1  0
  1 10  1  0
  1 11  1  0
  1 12  1  0
  2 13  1  0
  4 14  1  0
  7 15  1  0
  7 16  1  0
  7 17  1  0
  8 18  1  0
  8 19  1  0
  8 20  1  0
  9 21  1  0
M  END
