
     RDKit          3D

 21 22  0  0  0  0  0  0  0  0999 V2000
    2.5981    0.4854   -0.1150 C   0  0  0  0  0  0  0  0  0  0  0  0
    1.5575   -0.5803   -0.2210 C   0  0  0  0  0  0  0  0  0  0  0  0
    1.8150   -1.5049    0.8170 O   0  0  0  0  0  0  0  0  0  0  0  0
    0.1774   -0.0711   -0.1653 C   0  0  0  0  0  0  0  0  0  0  0  0
   -0.2054    1.1793   -0.0358 C   0  0  0  0  0  0  0  0  0  0  0  0
   -1.6703    1.3202   -0.0177 C   0  0  0  0  0  0  0  0  0  0  0  0
   -2.2098   -0.0669   -0.0042 C   0  0  0  0  0  0  0  0  0  0  0  0
   -1.7898   -1.0467    1.0376 C   0  0  0  0  0  0  0  0  0  0  0  0
   -1.0346   -0.9219   -0.2489 C   0  0  0  0  0  0  0  0  0  0  0  0
    2.2640    1.2477    0.5893 H   0  0  0  0  0  0  0  0  0  0  0  0
    2.7786    0.9027   -1.1424 H   0  0  0  0  0  0  0  0  0  0  0  0
    3.5471    0.0120    0.2698 H   0  0  0  0  0  0  0  0  0  0  0  0
    1.7656   -1.1593   -1.1630 H   0  0  0  0  0  0  0  0  0  0  0  0
    2.0265   -0.9306    1.6185 H   0  0  0  0  0  0  0  0  0  0  0  0
    0.4674    2.0510    0.0521 H   0  0  0  0  0  0  0  0  0  0  0  0
   -2.0449    1.9083    0.8512 H   0  0  0  0  0  0  0  0  0  0  0  0
   -2.0573    1.8302   -0.9260 H   0  0  0  0  0  0  0  0  0  0  0  0
   -3.1218   -0.3068   -0.6003 H   0  0  0  0  0  0  0  0  0  0  0  0
   -1.3325   -0.7066    1.9954 H   0  0  0  0  0  0  0  0  0  0  0  0
   -2.4223   -1.9392    1.1558 H   0  0  0  0  0  0  0  0  0  0  0  0
   -1.1085   -1.7028   -1.0237 H   0  0  0  0  0  0  0  0  0  0  0  0
  1  2  1  0
  2  3  1  0
  2  4  1  0
  4  5  2  0
  5  6  1  0
  6  7  1  0
  7  8  1  0
  8  9  1  0
  9  4  1  0
  9  7  1  0
  1 10  1  0
  1 11  1  0
  1 12  1  0
  2 13  1  0
  3 14  1  0
  5 15  1  0
  6 16  1  0
  6 17  1  0
  7 18  1  0
  8 19  1  0
  8 20  1  0
  9 21  1  0
M  END
