
     RDKit          3D

 21 21  0  0  0  0  0  0  0  0999 V2000
    2.1073   -0.4814    0.6155 C   0  0  0  0  0  0  0  0  0  0  0  0
    1.5777    0.7314   -0.1498 C   0  0  0  0  0  0  0  0  0  0  0  0
    1.7772    1.8645    0.5953 O   0  0  0  0  0  0  0  0  0  0  0  0
    0.1591    0.5012   -0.5609 C   0  0  0  0  0  0  0  0  0  0  0  0
    0.0390   -0.6685   -1.3135 O   0  0  0  0  0  0  0  0  0  0  0  0
   -0.7035   -1.3679   -0.3611 C   0  0  0  0  0  0  0  0  0  0  0  0
   -0.7818   -0.0603    0.4240 C   0  0  0  0  0  0  0  0  0  0  0  0
   -2.2143    0.4783    0.3292 C   0  0  0  0  0  0  0  0  0  0  0  0
   -2.9980   -0.1282    1.3085 O   0  0  0  0  0  0  0  0  0  0  0  0
    3.1478   -0.3310    0.9277 H   0  0  0  0  0  0  0  0  0  0  0  0
    1.4768   -0.6229    1.4880 H   0  0  0  0  0  0  0  0  0  0  0  0
    2.0767   -1.3361   -0.1127 H   0  0  0  0  0  0  0  0  0  0  0  0
    2.2353    0.8057   -1.0519 H   0  0  0  0  0  0  0  0  0  0  0  0
    2.4968    2.4559    0.2416 H   0  0  0  0  0  0  0  0  0  0  0  0
   -0.2530    1.3895   -1.0709 H   0  0  0  0  0  0  0  0  0  0  0  0
   -1.6528   -1.7052   -0.8033 H   0  0  0  0  0  0  0  0  0  0  0  0
   -0.1627   -2.1386    0.2029 H   0  0  0  0  0  0  0  0  0  0  0  0
   -0.5010   -0.1263    1.4712 H   0  0  0  0  0  0  0  0  0  0  0  0
   -2.6404    0.2838   -0.6707 H   0  0  0  0  0  0  0  0  0  0  0  0
   -2.2446    1.5715    0.5212 H   0  0  0  0  0  0  0  0  0  0  0  0
   -2.9415   -1.1153    1.2935 H   0  0  0  0  0  0  0  0  0  0  0  0
  1  2  1  0
  2  3  1  0
  2  4  1  0
  4  5  1  0
  5  6  1  0
  6  7  1  0
  7  8  1  0
  8  9  1  0
  7  4  1  0
  1 10  1  0
  1 11  1  0
  1 12  1  0
  2 13  1  0
  3 14  1  0
  4 15  1  0
  6 16  1  0
  6 17  1  0
  7 18  1  0
  8 19  1  0
  8 20  1  0
  9 21  1  0
M  END
