
     RDKit          3D

 20 20  0  0  0  0  0  0  0  0999 V2000
   -2.3119    0.0041   -0.0528 C   0  0  0  0  0  0  0  0  0  0  0  0
   -0.9106    0.5207   -0.2625 C   0  0  0  0  0  0  0  0  0  0  0  0
   -0.5713    1.3005    0.8228 O   0  0  0  0  0  0  0  0  0  0  0  0
    0.0804   -0.5844   -0.5115 C   0  0  0  0  0  0  0  0  0  0  0  0
   -0.2657   -1.3858   -1.6244 O   0  0  0  0  0  0  0  0  0  0  0  0
    0.7682   -1.2601    0.5895 C   0  0  0  0  0  0  0  0  0  0  0  0
    1.5206   -0.3209   -0.3780 C   0  0  0  0  0  0  0  0  0  0  0  0
    2.0487    0.9739    0.1737 C   0  0  0  0  0  0  0  0  0  0  0  0
   -3.0019    0.8851   -0.1979 H   0  0  0  0  0  0  0  0  0  0  0  0
   -2.4495   -0.3190    0.9969 H   0  0  0  0  0  0  0  0  0  0  0  0
   -2.5976   -0.7805   -0.7787 H   0  0  0  0  0  0  0  0  0  0  0  0
   -0.9423    1.1503   -1.1972 H   0  0  0  0  0  0  0  0  0  0  0  0
   -1.1069    2.1454    0.7474 H   0  0  0  0  0  0  0  0  0  0  0  0
   -0.8765   -2.1243   -1.3544 H   0  0  0  0  0  0  0  0  0  0  0  0
    0.9955   -2.3517    0.4995 H   0  0  0  0  0  0  0  0  0  0  0  0
    0.7220   -0.9257    1.6405 H   0  0  0  0  0  0  0  0  0  0  0  0
    2.2478   -0.8557   -1.0560 H   0  0  0  0  0  0  0  0  0  0  0  0
    3.0986    1.1606   -0.1429 H   0  0  0  0  0  0  0  0  0  0  0  0
    2.0842    0.9139    1.2935 H   0  0  0  0  0  0  0  0  0  0  0  0
    1.4683    1.8535   -0.1762 H   0  0  0  0  0  0  0  0  0  0  0  0
  1  2  1  0
  2  3  1  0
  2  4  1  0
  4  5  1  0
  4  6  1  0
  6  7  1  0
  7  8  1  0
  7  4  1  0
  1  9  1  0
  1 10  1  0
  1 11  1  0
  2 12  1  0
  3 13  1  0
  5 14  1  0
  6 15  1  0
  6 16  1  0
  7 17  1  0
  8 18  1  0
  8 19  1  0
  8 20  1  0
M  END
