
     RDKit          3D

 18 17  0  0  0  0  0  0  0  0999 V2000
   -1.6552    1.0152    1.1050 C   0  0  0  0  0  0  0  0  0  0  0  0
   -1.7972   -0.3250    0.4349 C   0  0  0  0  0  0  0  0  0  0  0  0
   -1.5199   -1.3699    1.3121 O   0  0  0  0  0  0  0  0  0  0  0  0
   -1.0192   -0.4318   -0.8451 C   0  0  0  0  0  0  0  0  0  0  0  0
    0.4060   -0.2312   -0.6212 C   0  0  0  0  0  0  0  0  0  0  0  0
    1.5966   -0.0536   -0.4504 C   0  0  0  0  0  0  0  0  0  0  0  0
    3.0376    0.1794   -0.2601 C   0  0  0  0  0  0  0  0  0  0  0  0
    3.1924    0.6514    1.0400 O   0  0  0  0  0  0  0  0  0  0  0  0
   -1.4364    0.9259    2.1910 H   0  0  0  0  0  0  0  0  0  0  0  0
   -2.5970    1.6219    1.0457 H   0  0  0  0  0  0  0  0  0  0  0  0
   -0.8407    1.5631    0.6246 H   0  0  0  0  0  0  0  0  0  0  0  0
   -2.8850   -0.4405    0.1646 H   0  0  0  0  0  0  0  0  0  0  0  0
   -1.4994   -2.2183    0.8370 H   0  0  0  0  0  0  0  0  0  0  0  0
   -1.2432   -1.4224   -1.2861 H   0  0  0  0  0  0  0  0  0  0  0  0
   -1.4485    0.3251   -1.5500 H   0  0  0  0  0  0  0  0  0  0  0  0
    3.6268   -0.7527   -0.3562 H   0  0  0  0  0  0  0  0  0  0  0  0
    3.4326    0.8989   -1.0025 H   0  0  0  0  0  0  0  0  0  0  0  0
    2.6496    0.0642    1.6378 H   0  0  0  0  0  0  0  0  0  0  0  0
  1  2  1  0
  2  3  1  0
  2  4  1  0
  4  5  1  0
  5  6  3  0
  6  7  1  0
  7  8  1  0
  1  9  1  0
  1 10  1  0
  1 11  1  0
  2 12  1  0
  3 13  1  0
  4 14  1  0
  4 15  1  0
  7 16  1  0
  7 17  1  0
  8 18  1  0
M  END
