
     RDKit          3D

 21 20  0  0  0  0  0  0  0  0999 V2000
    3.2808    0.3132    0.7793 C   0  0  0  0  0  0  0  0  0  0  0  0
    2.5799   -0.1394   -0.4609 C   0  0  0  0  0  0  0  0  0  0  0  0
    2.5831    0.9293   -1.3678 O   0  0  0  0  0  0  0  0  0  0  0  0
    1.2110   -0.5077   -0.2041 C   0  0  0  0  0  0  0  0  0  0  0  0
    0.0507   -0.8013    0.0012 C   0  0  0  0  0  0  0  0  0  0  0  0
   -1.3328   -1.1633    0.2625 C   0  0  0  0  0  0  0  0  0  0  0  0
   -2.3134   -0.2627   -0.4340 C   0  0  0  0  0  0  0  0  0  0  0  0
   -2.1742    1.1778   -0.0157 C   0  0  0  0  0  0  0  0  0  0  0  0
   -3.5968   -0.6838   -0.0927 O   0  0  0  0  0  0  0  0  0  0  0  0
    2.6184    0.6267    1.5880 H   0  0  0  0  0  0  0  0  0  0  0  0
    3.9683    1.1772    0.5672 H   0  0  0  0  0  0  0  0  0  0  0  0
    3.9457   -0.5148    1.1139 H   0  0  0  0  0  0  0  0  0  0  0  0
    3.1565   -0.9692   -0.9614 H   0  0  0  0  0  0  0  0  0  0  0  0
    1.7655    1.4710   -1.1434 H   0  0  0  0  0  0  0  0  0  0  0  0
   -1.5774   -2.2063   -0.0376 H   0  0  0  0  0  0  0  0  0  0  0  0
   -1.5285   -1.0880    1.3481 H   0  0  0  0  0  0  0  0  0  0  0  0
   -2.2106   -0.3761   -1.5453 H   0  0  0  0  0  0  0  0  0  0  0  0
   -2.6760    1.2677    0.9811 H   0  0  0  0  0  0  0  0  0  0  0  0
   -2.7840    1.7806   -0.7449 H   0  0  0  0  0  0  0  0  0  0  0  0
   -1.1423    1.5288   -0.0132 H   0  0  0  0  0  0  0  0  0  0  0  0
   -3.8240   -1.5598   -0.4561 H   0  0  0  0  0  0  0  0  0  0  0  0
  1  2  1  0
  2  3  1  0
  2  4  1  0
  4  5  3  0
  5  6  1  0
  6  7  1  0
  7  8  1  0
  7  9  1  0
  1 10  1  0
  1 11  1  0
  1 12  1  0
  2 13  1  0
  3 14  1  0
  6 15  1  0
  6 16  1  0
  7 17  1  0
  8 18  1  0
  8 19  1  0
  8 20  1  0
  9 21  1  0
M  END
