
     RDKit          3D

 17 18  0  0  0  0  0  0  0  0999 V2000
   -1.9157    0.0785   -0.1254 C   0  0  0  0  0  0  0  0  0  0  0  0
   -0.7839    0.6174    0.7231 C   0  0  0  0  0  0  0  0  0  0  0  0
   -1.2988    1.0852    1.9527 O   0  0  0  0  0  0  0  0  0  0  0  0
    0.2501   -0.4119    1.0358 C   0  0  0  0  0  0  0  0  0  0  0  0
    1.0110   -1.1038   -0.0281 C   0  0  0  0  0  0  0  0  0  0  0  0
    1.1176   -0.4166   -1.2548 O   0  0  0  0  0  0  0  0  0  0  0  0
    1.9967    0.4601   -0.6205 C   0  0  0  0  0  0  0  0  0  0  0  0
    2.7736    1.3192   -1.1009 O   0  0  0  0  0  0  0  0  0  0  0  0
    1.6734    0.0094    0.7334 C   0  0  0  0  0  0  0  0  0  0  0  0
   -2.8389    0.0244    0.4968 H   0  0  0  0  0  0  0  0  0  0  0  0
   -1.6481   -0.9145   -0.5068 H   0  0  0  0  0  0  0  0  0  0  0  0
   -2.1604    0.7413   -0.9812 H   0  0  0  0  0  0  0  0  0  0  0  0
   -0.3751    1.5004    0.1813 H   0  0  0  0  0  0  0  0  0  0  0  0
   -1.7676    0.3227    2.3497 H   0  0  0  0  0  0  0  0  0  0  0  0
    0.0719   -1.0076    1.9514 H   0  0  0  0  0  0  0  0  0  0  0  0
    1.4385   -2.0892    0.1175 H   0  0  0  0  0  0  0  0  0  0  0  0
    2.4557   -0.2151    1.4755 H   0  0  0  0  0  0  0  0  0  0  0  0
  1  2  1  0
  2  3  1  0
  2  4  1  0
  4  5  1  0
  5  6  1  0
  6  7  1  0
  7  8  2  0
  7  9  1  0
  9  4  1  0
  9  5  1  0
  1 10  1  0
  1 11  1  0
  1 12  1  0
  2 13  1  0
  3 14  1  0
  4 15  1  0
  5 16  1  0
  9 17  1  0
M  END
