
     RDKit          3D

 19 19  0  0  0  0  0  0  0  0999 V2000
    2.4147   -0.6930    0.2931 C   0  0  0  0  0  0  0  0  0  0  0  0
    1.8168    0.6776    0.0521 C   0  0  0  0  0  0  0  0  0  0  0  0
    2.5319    1.2571   -0.9904 O   0  0  0  0  0  0  0  0  0  0  0  0
    0.3872    0.5641   -0.3860 C   0  0  0  0  0  0  0  0  0  0  0  0
    0.0343    0.9451   -1.4814 O   0  0  0  0  0  0  0  0  0  0  0  0
   -0.6502   -0.0249    0.5189 C   0  0  0  0  0  0  0  0  0  0  0  0
   -1.9685   -0.0207   -0.1475 C   0  0  0  0  0  0  0  0  0  0  0  0
   -3.1855   -0.5154    0.4397 C   0  0  0  0  0  0  0  0  0  0  0  0
   -2.4491   -1.3954   -0.4357 O   0  0  0  0  0  0  0  0  0  0  0  0
    1.7192   -1.3739    0.8208 H   0  0  0  0  0  0  0  0  0  0  0  0
    2.5818   -1.1387   -0.7221 H   0  0  0  0  0  0  0  0  0  0  0  0
    3.3476   -0.5613    0.8604 H   0  0  0  0  0  0  0  0  0  0  0  0
    1.8174    1.2773    0.9705 H   0  0  0  0  0  0  0  0  0  0  0  0
    2.0640    2.0191   -1.4079 H   0  0  0  0  0  0  0  0  0  0  0  0
   -0.6649    0.5006    1.5006 H   0  0  0  0  0  0  0  0  0  0  0  0
   -0.3220   -1.0674    0.6932 H   0  0  0  0  0  0  0  0  0  0  0  0
   -2.0508    0.6225   -1.0534 H   0  0  0  0  0  0  0  0  0  0  0  0
   -3.2739   -0.8596    1.4828 H   0  0  0  0  0  0  0  0  0  0  0  0
   -4.1501   -0.2134   -0.0172 H   0  0  0  0  0  0  0  0  0  0  0  0
  1  2  1  0
  2  3  1  0
  2  4  1  0
  4  5  2  0
  4  6  1  0
  6  7  1  0
  7  8  1  0
  8  9  1  0
  9  7  1  0
  1 10  1  0
  1 11  1  0
  1 12  1  0
  2 13  1  0
  3 14  1  0
  6 15  1  0
  6 16  1  0
  7 17  1  0
  8 18  1  0
  8 19  1  0
M  END
