
     RDKit          3D

 22 21  0  0  0  0  0  0  0  0999 V2000
   -3.1068   -0.4133   -0.3685 C   0  0  0  0  0  0  0  0  0  0  0  0
   -1.9768   -0.1408    0.6103 C   0  0  0  0  0  0  0  0  0  0  0  0
   -2.1601    1.1343    1.1125 O   0  0  0  0  0  0  0  0  0  0  0  0
   -0.6906   -0.1840   -0.1679 C   0  0  0  0  0  0  0  0  0  0  0  0
    0.4230    0.1318    0.5903 O   0  0  0  0  0  0  0  0  0  0  0  0
    1.5333    0.0523   -0.2511 C   0  0  0  0  0  0  0  0  0  0  0  0
    2.4678   -1.0606    0.2376 C   0  0  0  0  0  0  0  0  0  0  0  0
    2.2442    1.3718   -0.3138 C   0  0  0  0  0  0  0  0  0  0  0  0
   -2.7354   -1.1502   -1.1367 H   0  0  0  0  0  0  0  0  0  0  0  0
   -3.3168    0.5246   -0.9247 H   0  0  0  0  0  0  0  0  0  0  0  0
   -4.0192   -0.7824    0.1353 H   0  0  0  0  0  0  0  0  0  0  0  0
   -1.9893   -0.8561    1.4577 H   0  0  0  0  0  0  0  0  0  0  0  0
   -1.8618    1.2587    2.0358 H   0  0  0  0  0  0  0  0  0  0  0  0
   -0.7989    0.4650   -1.0427 H   0  0  0  0  0  0  0  0  0  0  0  0
   -0.5134   -1.2243   -0.5610 H   0  0  0  0  0  0  0  0  0  0  0  0
    1.2576   -0.2357   -1.2877 H   0  0  0  0  0  0  0  0  0  0  0  0
    2.6158   -1.0349    1.3191 H   0  0  0  0  0  0  0  0  0  0  0  0
    1.9387   -2.0134   -0.0454 H   0  0  0  0  0  0  0  0  0  0  0  0
    3.3877   -1.0446   -0.3640 H   0  0  0  0  0  0  0  0  0  0  0  0
    2.7562    1.5375   -1.2963 H   0  0  0  0  0  0  0  0  0  0  0  0
    1.5087    2.1915   -0.1936 H   0  0  0  0  0  0  0  0  0  0  0  0
    3.0361    1.4727    0.4547 H   0  0  0  0  0  0  0  0  0  0  0  0
  1  2  1  0
  2  3  1  0
  2  4  1  0
  4  5  1  0
  5  6  1  0
  6  7  1  0
  6  8  1  0
  1  9  1  0
  1 10  1  0
  1 11  1  0
  2 12  1  0
  3 13  1  0
  4 14  1  0
  4 15  1  0
  6 16  1  0
  7 17  1  0
  7 18  1  0
  7 19  1  0
  8 20  1  0
  8 21  1  0
  8 22  1  0
M  END
