
     RDKit          3D

 17 16  0  0  0  0  0  0  0  0999 V2000
   -0.3555    1.7262    0.0790 C   0  0  0  0  0  0  0  0  0  0  0  0
   -0.0226    0.3272   -0.4285 C   0  0  0  0  0  0  0  0  0  0  0  0
    0.1994    0.4291   -1.7810 O   0  0  0  0  0  0  0  0  0  0  0  0
   -1.2268   -0.5379   -0.0942 C   0  0  0  0  0  0  0  0  0  0  0  0
   -0.9846   -1.7984   -0.6053 O   0  0  0  0  0  0  0  0  0  0  0  0
    1.2173   -0.1209    0.2546 C   0  0  0  0  0  0  0  0  0  0  0  0
    1.6014   -1.3598   -0.2379 O   0  0  0  0  0  0  0  0  0  0  0  0
   -0.9358    1.6277    1.0180 H   0  0  0  0  0  0  0  0  0  0  0  0
    0.5535    2.3086    0.3057 H   0  0  0  0  0  0  0  0  0  0  0  0
   -0.9784    2.1915   -0.7167 H   0  0  0  0  0  0  0  0  0  0  0  0
    0.4098   -0.4254   -2.2210 H   0  0  0  0  0  0  0  0  0  0  0  0
   -2.1572   -0.1062   -0.5151 H   0  0  0  0  0  0  0  0  0  0  0  0
   -1.3186   -0.5307    1.0108 H   0  0  0  0  0  0  0  0  0  0  0  0
   -1.5687   -2.4914   -0.2170 H   0  0  0  0  0  0  0  0  0  0  0  0
    2.0201    0.6086    0.0228 H   0  0  0  0  0  0  0  0  0  0  0  0
    1.1344   -0.1438    1.3604 H   0  0  0  0  0  0  0  0  0  0  0  0
    2.4123   -1.7044    0.2228 H   0  0  0  0  0  0  0  0  0  0  0  0
  1  2  1  0
  2  3  1  0
  2  4  1  0
  4  5  1  0
  2  6  1  0
  6  7  1  0
  1  8  1  0
  1  9  1  0
  1 10  1  0
  3 11  1  0
  4 12  1  0
  4 13  1  0
  5 14  1  0
  6 15  1  0
  6 16  1  0
  7 17  1  0
M  END
