
     RDKit          3D

 21 22  0  0  0  0  0  0  0  0999 V2000
    2.5957    0.4213    0.2592 C   0  0  0  0  0  0  0  0  0  0  0  0
    1.3410   -0.4422    0.0796 C   0  0  0  0  0  0  0  0  0  0  0  0
    1.8028   -1.6891   -0.3402 O   0  0  0  0  0  0  0  0  0  0  0  0
    0.3998    0.1925   -0.9137 C   0  0  0  0  0  0  0  0  0  0  0  0
   -0.8624   -0.4902   -1.2189 C   0  0  0  0  0  0  0  0  0  0  0  0
   -1.7292   -1.0557   -0.1459 C   0  0  0  0  0  0  0  0  0  0  0  0
   -1.8287    0.3350    0.4452 C   0  0  0  0  0  0  0  0  0  0  0  0
   -0.8263    0.8883   -0.5008 C   0  0  0  0  0  0  0  0  0  0  0  0
   -1.2747    1.9829   -1.2484 O   0  0  0  0  0  0  0  0  0  0  0  0
    2.3924    1.3419    0.8077 H   0  0  0  0  0  0  0  0  0  0  0  0
    2.9494    0.6825   -0.7688 H   0  0  0  0  0  0  0  0  0  0  0  0
    3.4057   -0.1813    0.7139 H   0  0  0  0  0  0  0  0  0  0  0  0
    0.8399   -0.6050    1.0612 H   0  0  0  0  0  0  0  0  0  0  0  0
    1.2889   -2.0445   -1.1002 H   0  0  0  0  0  0  0  0  0  0  0  0
    0.9298    0.6430   -1.7831 H   0  0  0  0  0  0  0  0  0  0  0  0
   -1.2802   -0.4443   -2.2440 H   0  0  0  0  0  0  0  0  0  0  0  0
   -1.2706   -1.7354    0.5793 H   0  0  0  0  0  0  0  0  0  0  0  0
   -2.6576   -1.4775   -0.5436 H   0  0  0  0  0  0  0  0  0  0  0  0
   -1.5565    0.4124    1.5079 H   0  0  0  0  0  0  0  0  0  0  0  0
   -2.8752    0.7039    0.2930 H   0  0  0  0  0  0  0  0  0  0  0  0
   -1.7839    2.5616   -0.6543 H   0  0  0  0  0  0  0  0  0  0  0  0
  1  2  1  0
  2  3  1  0
  2  4  1  0
  4  5  1  0
  5  6  1  0
  6  7  1  0
  7  8  1  0
  8  9  1  0
  8  4  1  0
  8  5  1  0
  1 10  1  0
  1 11  1  0
  1 12  1  0
  2 13  1  0
  3 14  1  0
  4 15  1  0
  5 16  1  0
  6 17  1  0
  6 18  1  0
  7 19  1  0
  7 20  1  0
  9 21  1  0
M  END
