
     RDKit          3D

 21 21  0  0  0  0  0  0  0  0999 V2000
    2.4676   -0.6282    0.3844 C   0  0  0  0  0  0  0  0  0  0  0  0
    1.6949    0.3523   -0.4549 C   0  0  0  0  0  0  0  0  0  0  0  0
    2.0706    1.6689   -0.1899 O   0  0  0  0  0  0  0  0  0  0  0  0
    0.2101    0.2585   -0.2567 C   0  0  0  0  0  0  0  0  0  0  0  0
   -0.2896   -1.0158   -0.4930 O   0  0  0  0  0  0  0  0  0  0  0  0
   -1.6397   -0.8916   -0.8482 C   0  0  0  0  0  0  0  0  0  0  0  0
   -2.3151    0.1522    0.0492 C   0  0  0  0  0  0  0  0  0  0  0  0
   -1.4642    0.2434    1.3081 C   0  0  0  0  0  0  0  0  0  0  0  0
   -0.1668    0.6354    1.0224 O   0  0  0  0  0  0  0  0  0  0  0  0
    3.3437   -0.0600    0.8135 H   0  0  0  0  0  0  0  0  0  0  0  0
    2.9315   -1.4418   -0.2205 H   0  0  0  0  0  0  0  0  0  0  0  0
    1.8981   -1.0586    1.2134 H   0  0  0  0  0  0  0  0  0  0  0  0
    1.9124    0.1357   -1.5239 H   0  0  0  0  0  0  0  0  0  0  0  0
    2.5544    2.0579   -0.9706 H   0  0  0  0  0  0  0  0  0  0  0  0
   -0.2622    0.9693   -0.9661 H   0  0  0  0  0  0  0  0  0  0  0  0
   -2.1151   -1.8696   -0.6606 H   0  0  0  0  0  0  0  0  0  0  0  0
   -1.7094   -0.6069   -1.9139 H   0  0  0  0  0  0  0  0  0  0  0  0
   -3.2984   -0.2266    0.3311 H   0  0  0  0  0  0  0  0  0  0  0  0
   -2.4083    1.1244   -0.4556 H   0  0  0  0  0  0  0  0  0  0  0  0
   -1.4960   -0.7539    1.8027 H   0  0  0  0  0  0  0  0  0  0  0  0
   -1.9184    0.9553    2.0289 H   0  0  0  0  0  0  0  0  0  0  0  0
  1  2  1  0
  2  3  1  0
  2  4  1  0
  4  5  1  0
  5  6  1  0
  6  7  1  0
  7  8  1  0
  8  9  1  0
  9  4  1  0
  1 10  1  0
  1 11  1  0
  1 12  1  0
  2 13  1  0
  3 14  1  0
  4 15  1  0
  6 16  1  0
  6 17  1  0
  7 18  1  0
  7 19  1  0
  8 20  1  0
  8 21  1  0
M  END
