
     RDKit          3D

 21 22  0  0  0  0  0  0  0  0999 V2000
    2.6138    0.4422   -0.1681 C   0  0  0  0  0  0  0  0  0  0  0  0
    1.3781    0.1201    0.6262 C   0  0  0  0  0  0  0  0  0  0  0  0
    1.6947   -0.9726    1.4452 O   0  0  0  0  0  0  0  0  0  0  0  0
    0.2462   -0.3250   -0.2565 C   0  0  0  0  0  0  0  0  0  0  0  0
   -0.1654    0.7059   -1.1390 O   0  0  0  0  0  0  0  0  0  0  0  0
   -1.5209    0.7426   -0.9374 C   0  0  0  0  0  0  0  0  0  0  0  0
   -1.5942    0.8084    0.5987 C   0  0  0  0  0  0  0  0  0  0  0  0
   -1.0206   -0.5899    0.4616 C   0  0  0  0  0  0  0  0  0  0  0  0
   -1.9784   -0.7106   -0.7351 C   0  0  0  0  0  0  0  0  0  0  0  0
    3.5135    0.0242    0.3097 H   0  0  0  0  0  0  0  0  0  0  0  0
    2.7421    1.5443   -0.2451 H   0  0  0  0  0  0  0  0  0  0  0  0
    2.5095   -0.0451   -1.1611 H   0  0  0  0  0  0  0  0  0  0  0  0
    1.0716    0.9591    1.2841 H   0  0  0  0  0  0  0  0  0  0  0  0
    1.4506   -1.8320    1.0002 H   0  0  0  0  0  0  0  0  0  0  0  0
    0.5022   -1.1847   -0.8956 H   0  0  0  0  0  0  0  0  0  0  0  0
   -2.1558    1.3867   -1.4839 H   0  0  0  0  0  0  0  0  0  0  0  0
   -2.6616    0.8508    0.8874 H   0  0  0  0  0  0  0  0  0  0  0  0
   -0.9264    1.5523    1.0434 H   0  0  0  0  0  0  0  0  0  0  0  0
   -1.1131   -1.2768    1.2461 H   0  0  0  0  0  0  0  0  0  0  0  0
   -1.5704   -1.4236   -1.4467 H   0  0  0  0  0  0  0  0  0  0  0  0
   -3.0155   -0.7762   -0.4342 H   0  0  0  0  0  0  0  0  0  0  0  0
  1  2  1  0
  2  3  1  0
  2  4  1  0
  4  5  1  0
  5  6  1  0
  6  7  1  0
  7  8  1  0
  8  9  1  0
  8  4  1  0
  9  6  1  0
  1 10  1  0
  1 11  1  0
  1 12  1  0
  2 13  1  0
  3 14  1  0
  4 15  1  0
  6 16  1  0
  7 17  1  0
  7 18  1  0
  8 19  1  0
  9 20  1  0
  9 21  1  0
M  END
