
     RDKit          3D

 21 22  0  0  0  0  0  0  0  0999 V2000
    2.4459   -0.6502    0.1193 C   0  0  0  0  0  0  0  0  0  0  0  0
    1.3005    0.1196   -0.5287 C   0  0  0  0  0  0  0  0  0  0  0  0
    1.7822    1.3439   -0.9844 O   0  0  0  0  0  0  0  0  0  0  0  0
    0.2400    0.4370    0.5219 C   0  0  0  0  0  0  0  0  0  0  0  0
   -0.3542   -0.8080    1.1730 C   0  0  0  0  0  0  0  0  0  0  0  0
   -1.1200    0.0646    0.3230 C   0  0  0  0  0  0  0  0  0  0  0  0
   -1.8103   -0.2860   -0.9269 C   0  0  0  0  0  0  0  0  0  0  0  0
   -3.0364   -0.0801   -0.2528 O   0  0  0  0  0  0  0  0  0  0  0  0
   -2.3510    0.7824    0.6366 C   0  0  0  0  0  0  0  0  0  0  0  0
    2.5977   -0.3656    1.1741 H   0  0  0  0  0  0  0  0  0  0  0  0
    2.2632   -1.7393   -0.0109 H   0  0  0  0  0  0  0  0  0  0  0  0
    3.3689   -0.4024   -0.4265 H   0  0  0  0  0  0  0  0  0  0  0  0
    0.9031   -0.4623   -1.3671 H   0  0  0  0  0  0  0  0  0  0  0  0
    2.3468    1.7053   -0.2439 H   0  0  0  0  0  0  0  0  0  0  0  0
    0.5563    1.2697    1.1868 H   0  0  0  0  0  0  0  0  0  0  0  0
   -0.5145   -0.7834    2.2605 H   0  0  0  0  0  0  0  0  0  0  0  0
   -0.0583   -1.8052    0.7666 H   0  0  0  0  0  0  0  0  0  0  0  0
   -1.7536    0.4593   -1.7512 H   0  0  0  0  0  0  0  0  0  0  0  0
   -1.6269   -1.3308   -1.2272 H   0  0  0  0  0  0  0  0  0  0  0  0
   -2.6903    0.7130    1.6818 H   0  0  0  0  0  0  0  0  0  0  0  0
   -2.4893    1.8183    0.2608 H   0  0  0  0  0  0  0  0  0  0  0  0
  1  2  1  0
  2  3  1  0
  2  4  1  0
  4  5  1  0
  5  6  1  0
  6  7  1  0
  7  8  1  0
  8  9  1  0
  6  4  1  0
  9  6  1  0
  1 10  1  0
  1 11  1  0
  1 12  1  0
  2 13  1  0
  3 14  1  0
  4 15  1  0
  5 16  1  0
  5 17  1  0
  7 18  1  0
  7 19  1  0
  9 20  1  0
  9 21  1  0
M  END
