
     RDKit          3D

 19 19  0  0  0  0  0  0  0  0999 V2000
   -2.5842    0.8350   -0.0573 C   0  0  0  0  0  0  0  0  0  0  0  0
   -1.7312   -0.3653    0.2800 C   0  0  0  0  0  0  0  0  0  0  0  0
   -2.3581   -1.4932   -0.1862 O   0  0  0  0  0  0  0  0  0  0  0  0
   -0.3711   -0.1484   -0.3517 C   0  0  0  0  0  0  0  0  0  0  0  0
    0.1534    1.1467    0.2286 O   0  0  0  0  0  0  0  0  0  0  0  0
    0.8545   -0.1104    0.3364 C   0  0  0  0  0  0  0  0  0  0  0  0
    2.1265   -0.1438   -0.4550 C   0  0  0  0  0  0  0  0  0  0  0  0
    3.2841   -0.0778    0.4628 C   0  0  0  0  0  0  0  0  0  0  0  0
    3.9245    0.9506    0.5752 O   0  0  0  0  0  0  0  0  0  0  0  0
   -3.2235    1.1425    0.8051 H   0  0  0  0  0  0  0  0  0  0  0  0
   -3.2351    0.6900   -0.9115 H   0  0  0  0  0  0  0  0  0  0  0  0
   -1.9298    1.7389   -0.2345 H   0  0  0  0  0  0  0  0  0  0  0  0
   -1.5685   -0.4166    1.4095 H   0  0  0  0  0  0  0  0  0  0  0  0
   -1.7719   -2.1198   -0.6715 H   0  0  0  0  0  0  0  0  0  0  0  0
   -0.4278    0.0643   -1.4486 H   0  0  0  0  0  0  0  0  0  0  0  0
    0.9229   -0.4124    1.3979 H   0  0  0  0  0  0  0  0  0  0  0  0
    2.1757    0.7121   -1.1869 H   0  0  0  0  0  0  0  0  0  0  0  0
    2.1678   -1.0663   -1.1045 H   0  0  0  0  0  0  0  0  0  0  0  0
    3.5920   -0.9260    1.0551 H   0  0  0  0  0  0  0  0  0  0  0  0
  1  2  1  0
  2  3  1  0
  2  4  1  0
  4  5  1  0
  5  6  1  0
  6  7  1  0
  7  8  1  0
  8  9  2  0
  6  4  1  0
  1 10  1  0
  1 11  1  0
  1 12  1  0
  2 13  1  0
  3 14  1  0
  4 15  1  0
  6 16  1  0
  7 17  1  0
  7 18  1  0
  8 19  1  0
M  END
