
     RDKit          3D

 19 20  0  0  0  0  0  0  0  0999 V2000
    2.3402    0.3361    0.2390 C   0  0  0  0  0  0  0  0  0  0  0  0
    1.2005   -0.2874   -0.5689 C   0  0  0  0  0  0  0  0  0  0  0  0
    1.4782   -1.6072   -0.8589 O   0  0  0  0  0  0  0  0  0  0  0  0
   -0.0870   -0.0509    0.1148 C   0  0  0  0  0  0  0  0  0  0  0  0
   -0.4098   -0.5833    1.3263 O   0  0  0  0  0  0  0  0  0  0  0  0
   -1.6902   -0.9259    0.8934 C   0  0  0  0  0  0  0  0  0  0  0  0
   -1.4044   -0.2864   -0.4436 C   0  0  0  0  0  0  0  0  0  0  0  0
   -0.9795    1.1172   -0.4194 C   0  0  0  0  0  0  0  0  0  0  0  0
   -1.2899    1.9826    0.6160 O   0  0  0  0  0  0  0  0  0  0  0  0
    2.4386   -0.1023    1.2328 H   0  0  0  0  0  0  0  0  0  0  0  0
    3.2965    0.3110   -0.3429 H   0  0  0  0  0  0  0  0  0  0  0  0
    2.1132    1.4194    0.3764 H   0  0  0  0  0  0  0  0  0  0  0  0
    1.1812    0.2740   -1.5456 H   0  0  0  0  0  0  0  0  0  0  0  0
    0.6282   -2.1380   -0.7645 H   0  0  0  0  0  0  0  0  0  0  0  0
   -1.8333   -2.0210    0.7899 H   0  0  0  0  0  0  0  0  0  0  0  0
   -2.5035   -0.3869    1.3980 H   0  0  0  0  0  0  0  0  0  0  0  0
   -1.6262   -0.8018   -1.3737 H   0  0  0  0  0  0  0  0  0  0  0  0
   -0.6253    1.5395   -1.3668 H   0  0  0  0  0  0  0  0  0  0  0  0
   -2.2276    2.2115    0.6976 H   0  0  0  0  0  0  0  0  0  0  0  0
  1  2  1  0
  2  3  1  0
  2  4  1  0
  4  5  1  0
  5  6  1  0
  6  7  1  0
  7  8  1  0
  8  9  1  0
  7  4  1  0
  8  4  1  0
  1 10  1  0
  1 11  1  0
  1 12  1  0
  2 13  1  0
  3 14  1  0
  6 15  1  0
  6 16  1  0
  7 17  1  0
  8 18  1  0
  9 19  1  0
M  END
