
     RDKit          3D

 21 20  0  0  0  0  0  0  0  0999 V2000
   -2.3113    1.0169   -0.2420 C   0  0  0  0  0  0  0  0  0  0  0  0
   -1.1562    0.3163   -0.8714 C   0  0  0  0  0  0  0  0  0  0  0  0
   -0.6935    1.1088   -1.9317 O   0  0  0  0  0  0  0  0  0  0  0  0
    0.0135    0.1558    0.0885 C   0  0  0  0  0  0  0  0  0  0  0  0
   -0.4097   -0.6390    1.2758 C   0  0  0  0  0  0  0  0  0  0  0  0
    1.1571   -0.5153   -0.5723 C   0  0  0  0  0  0  0  0  0  0  0  0
    1.0710   -0.8599   -1.7320 O   0  0  0  0  0  0  0  0  0  0  0  0
    2.4066   -0.7658    0.1836 C   0  0  0  0  0  0  0  0  0  0  0  0
    2.3289   -0.3016    1.4887 O   0  0  0  0  0  0  0  0  0  0  0  0
   -2.9333    1.4787   -1.0516 H   0  0  0  0  0  0  0  0  0  0  0  0
   -1.9601    1.8529    0.3942 H   0  0  0  0  0  0  0  0  0  0  0  0
   -2.9693    0.3519    0.3529 H   0  0  0  0  0  0  0  0  0  0  0  0
   -1.4512   -0.6642   -1.2971 H   0  0  0  0  0  0  0  0  0  0  0  0
   -0.4803    1.9918   -1.5372 H   0  0  0  0  0  0  0  0  0  0  0  0
    0.2904    1.1823    0.4488 H   0  0  0  0  0  0  0  0  0  0  0  0
   -0.4896   -0.0088    2.1929 H   0  0  0  0  0  0  0  0  0  0  0  0
    0.3080   -1.4678    1.4397 H   0  0  0  0  0  0  0  0  0  0  0  0
   -1.3793   -1.1370    1.0405 H   0  0  0  0  0  0  0  0  0  0  0  0
    3.2974   -0.3214   -0.3040 H   0  0  0  0  0  0  0  0  0  0  0  0
    2.5798   -1.8696    0.1729 H   0  0  0  0  0  0  0  0  0  0  0  0
    2.7808   -0.9050    2.1158 H   0  0  0  0  0  0  0  0  0  0  0  0
  1  2  1  0
  2  3  1  0
  2  4  1  0
  4  5  1  0
  4  6  1  0
  6  7  2  0
  6  8  1  0
  8  9  1  0
  1 10  1  0
  1 11  1  0
  1 12  1  0
  2 13  1  0
  3 14  1  0
  4 15  1  0
  5 16  1  0
  5 17  1  0
  5 18  1  0
  8 19  1  0
  8 20  1  0
  9 21  1  0
M  END
