
     RDKit          3D

 19 18  0  0  0  0  0  0  0  0999 V2000
   -1.3768   -0.5607   -1.0319 C   0  0  0  0  0  0  0  0  0  0  0  0
   -0.6401    0.3852   -0.1115 C   0  0  0  0  0  0  0  0  0  0  0  0
   -0.3027    1.5708   -0.7385 O   0  0  0  0  0  0  0  0  0  0  0  0
   -1.6244    0.7181    0.9890 C   0  0  0  0  0  0  0  0  0  0  0  0
   -2.0217   -0.2305    1.6412 O   0  0  0  0  0  0  0  0  0  0  0  0
    0.5271   -0.2667    0.5801 C   0  0  0  0  0  0  0  0  0  0  0  0
    1.0669    0.5568    1.5695 O   0  0  0  0  0  0  0  0  0  0  0  0
    1.6262   -0.6717   -0.3685 C   0  0  0  0  0  0  0  0  0  0  0  0
    2.2337    0.3799   -0.9968 O   0  0  0  0  0  0  0  0  0  0  0  0
   -0.6956   -1.3457   -1.3757 H   0  0  0  0  0  0  0  0  0  0  0  0
   -2.1981   -1.0970   -0.4765 H   0  0  0  0  0  0  0  0  0  0  0  0
   -1.8463   -0.0102   -1.8916 H   0  0  0  0  0  0  0  0  0  0  0  0
   -1.1051    2.1627   -0.7414 H   0  0  0  0  0  0  0  0  0  0  0  0
   -1.9418    1.7144    1.1730 H   0  0  0  0  0  0  0  0  0  0  0  0
    0.1570   -1.1712    1.0992 H   0  0  0  0  0  0  0  0  0  0  0  0
    1.2150    0.0873    2.4187 H   0  0  0  0  0  0  0  0  0  0  0  0
    1.3129   -1.4337   -1.1079 H   0  0  0  0  0  0  0  0  0  0  0  0
    2.4189   -1.1879    0.2494 H   0  0  0  0  0  0  0  0  0  0  0  0
    3.1952    0.4002   -0.8800 H   0  0  0  0  0  0  0  0  0  0  0  0
  1  2  1  0
  2  3  1  0
  2  4  1  0
  4  5  2  0
  2  6  1  0
  6  7  1  0
  6  8  1  0
  8  9  1  0
  1 10  1  0
  1 11  1  0
  1 12  1  0
  3 13  1  0
  4 14  1  0
  6 15  1  0
  7 16  1  0
  8 17  1  0
  8 18  1  0
  9 19  1  0
M  END
