
     RDKit          3D

 25 24  0  0  0  0  0  0  0  0999 V2000
    2.8601   -0.5723   -0.1661 C   0  0  0  0  0  0  0  0  0  0  0  0
    2.1790    0.0781    1.0124 C   0  0  0  0  0  0  0  0  0  0  0  0
    2.3763    1.4645    0.8670 O   0  0  0  0  0  0  0  0  0  0  0  0
    0.6945   -0.2337    1.0466 C   0  0  0  0  0  0  0  0  0  0  0  0
    0.1141    0.2919   -0.2230 C   0  0  0  0  0  0  0  0  0  0  0  0
   -1.3481    0.0813   -0.3806 C   0  0  0  0  0  0  0  0  0  0  0  0
   -1.7196   -1.3636   -0.3572 C   0  0  0  0  0  0  0  0  0  0  0  0
   -2.1694    0.8748    0.6148 C   0  0  0  0  0  0  0  0  0  0  0  0
   -3.5249    0.6321    0.4123 O   0  0  0  0  0  0  0  0  0  0  0  0
    2.6647   -0.0592   -1.1165 H   0  0  0  0  0  0  0  0  0  0  0  0
    2.6766   -1.6701   -0.2082 H   0  0  0  0  0  0  0  0  0  0  0  0
    3.9676   -0.4775    0.0231 H   0  0  0  0  0  0  0  0  0  0  0  0
    2.7015   -0.2693    1.9255 H   0  0  0  0  0  0  0  0  0  0  0  0
    1.7739    1.9396    1.5009 H   0  0  0  0  0  0  0  0  0  0  0  0
    0.5925   -1.3240    1.1747 H   0  0  0  0  0  0  0  0  0  0  0  0
    0.2828    0.2360    1.9562 H   0  0  0  0  0  0  0  0  0  0  0  0
    0.3618    1.3713   -0.2895 H   0  0  0  0  0  0  0  0  0  0  0  0
    0.6303   -0.2051   -1.0672 H   0  0  0  0  0  0  0  0  0  0  0  0
   -1.6256    0.4737   -1.3984 H   0  0  0  0  0  0  0  0  0  0  0  0
   -1.4224   -1.9056   -1.2645 H   0  0  0  0  0  0  0  0  0  0  0  0
   -2.8480   -1.4097   -0.3357 H   0  0  0  0  0  0  0  0  0  0  0  0
   -1.3342   -1.8371    0.5748 H   0  0  0  0  0  0  0  0  0  0  0  0
   -1.9213    0.5043    1.6393 H   0  0  0  0  0  0  0  0  0  0  0  0
   -1.9473    1.9407    0.5917 H   0  0  0  0  0  0  0  0  0  0  0  0
   -4.0148    1.4389    0.0936 H   0  0  0  0  0  0  0  0  0  0  0  0
  1  2  1  0
  2  3  1  0
  2  4  1  0
  4  5  1  0
  5  6  1  0
  6  7  1  0
  6  8  1  0
  8  9  1  0
  1 10  1  0
  1 11  1  0
  1 12  1  0
  2 13  1  0
  3 14  1  0
  4 15  1  0
  4 16  1  0
  5 17  1  0
  5 18  1  0
  6 19  1  0
  7 20  1  0
  7 21  1  0
  7 22  1  0
  8 23  1  0
  8 24  1  0
  9 25  1  0
M  END
