
     RDKit          3D

 17 16  0  0  0  0  0  0  0  0999 V2000
   -1.1982    0.7835    1.2943 C   0  0  0  0  0  0  0  0  0  0  0  0
   -1.0673    0.3494   -0.1042 C   0  0  0  0  0  0  0  0  0  0  0  0
   -1.5224   -0.9609   -0.2468 O   0  0  0  0  0  0  0  0  0  0  0  0
    0.2436    0.5671   -0.7921 C   0  0  0  0  0  0  0  0  0  0  0  0
   -0.0434    0.2858   -2.1584 O   0  0  0  0  0  0  0  0  0  0  0  0
    1.3539   -0.2847   -0.3665 C   0  0  0  0  0  0  0  0  0  0  0  0
    1.7956   -1.1411   -1.1793 O   0  0  0  0  0  0  0  0  0  0  0  0
    2.0213   -0.2536    0.9166 C   0  0  0  0  0  0  0  0  0  0  0  0
    1.7583    0.5210    1.8638 O   0  0  0  0  0  0  0  0  0  0  0  0
   -2.2751    1.0536    1.5341 H   0  0  0  0  0  0  0  0  0  0  0  0
   -0.9224    0.0772    2.0749 H   0  0  0  0  0  0  0  0  0  0  0  0
   -0.6487    1.7409    1.5022 H   0  0  0  0  0  0  0  0  0  0  0  0
   -1.8245    0.9530   -0.7018 H   0  0  0  0  0  0  0  0  0  0  0  0
   -1.6210   -1.1030   -1.2329 H   0  0  0  0  0  0  0  0  0  0  0  0
    0.5415    1.6305   -0.7587 H   0  0  0  0  0  0  0  0  0  0  0  0
    0.5819    0.7622   -2.7455 H   0  0  0  0  0  0  0  0  0  0  0  0
    2.8269   -0.9555    1.1003 H   0  0  0  0  0  0  0  0  0  0  0  0
  1  2  1  0
  2  3  1  0
  2  4  1  0
  4  5  1  0
  4  6  1  0
  6  7  2  0
  6  8  1  0
  8  9  2  0
  1 10  1  0
  1 11  1  0
  1 12  1  0
  2 13  1  0
  3 14  1  0
  4 15  1  0
  5 16  1  0
  8 17  1  0
M  END
