
     RDKit          3D

 22 22  0  0  0  0  0  0  0  0999 V2000
   -2.3638   -0.2679    0.7392 C   0  0  0  0  0  0  0  0  0  0  0  0
   -1.6931    0.7767   -0.1007 C   0  0  0  0  0  0  0  0  0  0  0  0
   -0.9273    1.6285    0.7088 O   0  0  0  0  0  0  0  0  0  0  0  0
   -0.7174    0.1325   -1.0748 C   0  0  0  0  0  0  0  0  0  0  0  0
    0.3322   -0.6238   -0.3346 C   0  0  0  0  0  0  0  0  0  0  0  0
    1.4202   -1.3584   -0.9594 C   0  0  0  0  0  0  0  0  0  0  0  0
    1.7318   -0.0220   -0.4341 C   0  0  0  0  0  0  0  0  0  0  0  0
    2.4079    0.1916    0.8875 C   0  0  0  0  0  0  0  0  0  0  0  0
   -2.5392   -1.1521    0.0942 H   0  0  0  0  0  0  0  0  0  0  0  0
   -3.3486    0.1333    1.0636 H   0  0  0  0  0  0  0  0  0  0  0  0
   -1.7427   -0.4977    1.6122 H   0  0  0  0  0  0  0  0  0  0  0  0
   -2.4158    1.3937   -0.6730 H   0  0  0  0  0  0  0  0  0  0  0  0
   -1.5269    2.2487    1.2242 H   0  0  0  0  0  0  0  0  0  0  0  0
   -0.2895    0.9686   -1.6666 H   0  0  0  0  0  0  0  0  0  0  0  0
   -1.2691   -0.5004   -1.8210 H   0  0  0  0  0  0  0  0  0  0  0  0
    0.0001   -0.9857    0.6717 H   0  0  0  0  0  0  0  0  0  0  0  0
    1.5062   -1.4894   -2.0714 H   0  0  0  0  0  0  0  0  0  0  0  0
    1.8615   -2.2287   -0.4177 H   0  0  0  0  0  0  0  0  0  0  0  0
    1.8996    0.7919   -1.1624 H   0  0  0  0  0  0  0  0  0  0  0  0
    2.2604    1.2758    1.1441 H   0  0  0  0  0  0  0  0  0  0  0  0
    3.4924   -0.0490    0.8524 H   0  0  0  0  0  0  0  0  0  0  0  0
    1.9213   -0.3662    1.7179 H   0  0  0  0  0  0  0  0  0  0  0  0
  1  2  1  0
  2  3  1  0
  2  4  1  0
  4  5  1  0
  5  6  1  0
  6  7  1  0
  7  8  1  0
  7  5  1  0
  1  9  1  0
  1 10  1  0
  1 11  1  0
  2 12  1  0
  3 13  1  0
  4 14  1  0
  4 15  1  0
  5 16  1  0
  6 17  1  0
  6 18  1  0
  7 19  1  0
  8 20  1  0
  8 21  1  0
  8 22  1  0
M  END
