
     RDKit          3D

 23 23  0  0  0  0  0  0  0  0999 V2000
    2.4257    1.0942    0.2531 C   0  0  0  0  0  0  0  0  0  0  0  0
    2.1185   -0.2882   -0.2574 C   0  0  0  0  0  0  0  0  0  0  0  0
    2.3330   -1.2552    0.7107 O   0  0  0  0  0  0  0  0  0  0  0  0
    0.7636   -0.3909   -0.8861 C   0  0  0  0  0  0  0  0  0  0  0  0
   -0.3566   -0.0545    0.0431 C   0  0  0  0  0  0  0  0  0  0  0  0
   -1.7399   -0.1690   -0.6319 C   0  0  0  0  0  0  0  0  0  0  0  0
   -2.6532    1.0111   -0.4066 C   0  0  0  0  0  0  0  0  0  0  0  0
   -1.3461   -1.0527    0.4937 C   0  0  0  0  0  0  0  0  0  0  0  0
   -1.9963   -0.8359    1.7160 O   0  0  0  0  0  0  0  0  0  0  0  0
    2.5516    1.7769   -0.6261 H   0  0  0  0  0  0  0  0  0  0  0  0
    1.7195    1.4738    0.9880 H   0  0  0  0  0  0  0  0  0  0  0  0
    3.4201    1.0287    0.7648 H   0  0  0  0  0  0  0  0  0  0  0  0
    2.8674   -0.4940   -1.0722 H   0  0  0  0  0  0  0  0  0  0  0  0
    3.2887   -1.5722    0.6830 H   0  0  0  0  0  0  0  0  0  0  0  0
    0.6079   -1.4062   -1.2716 H   0  0  0  0  0  0  0  0  0  0  0  0
    0.7373    0.3746   -1.7158 H   0  0  0  0  0  0  0  0  0  0  0  0
   -0.1934    0.8288    0.6902 H   0  0  0  0  0  0  0  0  0  0  0  0
   -1.8098   -0.6171   -1.6210 H   0  0  0  0  0  0  0  0  0  0  0  0
   -3.6964    0.7086   -0.6289 H   0  0  0  0  0  0  0  0  0  0  0  0
   -2.5571    1.4660    0.5791 H   0  0  0  0  0  0  0  0  0  0  0  0
   -2.4038    1.7860   -1.1840 H   0  0  0  0  0  0  0  0  0  0  0  0
   -1.1964   -2.1225    0.2619 H   0  0  0  0  0  0  0  0  0  0  0  0
   -2.8843   -1.2906    1.7140 H   0  0  0  0  0  0  0  0  0  0  0  0
  1  2  1  0
  2  3  1  0
  2  4  1  0
  4  5  1  0
  5  6  1  0
  6  7  1  0
  6  8  1  0
  8  9  1  0
  8  5  1  0
  1 10  1  0
  1 11  1  0
  1 12  1  0
  2 13  1  0
  3 14  1  0
  4 15  1  0
  4 16  1  0
  5 17  1  0
  6 18  1  0
  7 19  1  0
  7 20  1  0
  7 21  1  0
  8 22  1  0
  9 23  1  0
M  END
