
     RDKit          3D

 23 22  0  0  0  0  0  0  0  0999 V2000
    2.0647    0.0307   -0.3846 C   0  0  0  0  0  0  0  0  0  0  0  0
    0.8003   -0.7735   -0.2977 C   0  0  0  0  0  0  0  0  0  0  0  0
    0.9329   -1.7070    0.7278 O   0  0  0  0  0  0  0  0  0  0  0  0
   -0.4468    0.0133   -0.1913 C   0  0  0  0  0  0  0  0  0  0  0  0
   -0.5801    0.9057   -1.4225 C   0  0  0  0  0  0  0  0  0  0  0  0
   -1.6246   -0.9372   -0.2299 C   0  0  0  0  0  0  0  0  0  0  0  0
   -1.6329   -1.8626    0.7807 O   0  0  0  0  0  0  0  0  0  0  0  0
   -0.5811    0.8748    1.0167 C   0  0  0  0  0  0  0  0  0  0  0  0
    0.4080    1.8365    1.1455 O   0  0  0  0  0  0  0  0  0  0  0  0
    2.8053   -0.5009   -1.0205 H   0  0  0  0  0  0  0  0  0  0  0  0
    2.5771    0.1211    0.6182 H   0  0  0  0  0  0  0  0  0  0  0  0
    1.9209    1.0233   -0.8602 H   0  0  0  0  0  0  0  0  0  0  0  0
    0.7387   -1.3744   -1.2414 H   0  0  0  0  0  0  0  0  0  0  0  0
    1.7434   -1.5747    1.2692 H   0  0  0  0  0  0  0  0  0  0  0  0
    0.0416    1.7929   -1.2467 H   0  0  0  0  0  0  0  0  0  0  0  0
   -1.6464    1.1976   -1.5483 H   0  0  0  0  0  0  0  0  0  0  0  0
   -0.1943    0.3936   -2.3330 H   0  0  0  0  0  0  0  0  0  0  0  0
   -1.6621   -1.4812   -1.2033 H   0  0  0  0  0  0  0  0  0  0  0  0
   -2.5798   -0.3599   -0.1707 H   0  0  0  0  0  0  0  0  0  0  0  0
   -1.2256   -1.6043    1.6183 H   0  0  0  0  0  0  0  0  0  0  0  0
   -1.5504    1.4141    0.9847 H   0  0  0  0  0  0  0  0  0  0  0  0
   -0.5871    0.2981    1.9658 H   0  0  0  0  0  0  0  0  0  0  0  0
    0.2783    2.2740    2.0233 H   0  0  0  0  0  0  0  0  0  0  0  0
  1  2  1  0
  2  3  1  0
  2  4  1  0
  4  5  1  0
  4  6  1  0
  6  7  1  0
  4  8  1  0
  8  9  1  0
  1 10  1  0
  1 11  1  0
  1 12  1  0
  2 13  1  0
  3 14  1  0
  5 15  1  0
  5 16  1  0
  5 17  1  0
  6 18  1  0
  6 19  1  0
  7 20  1  0
  8 21  1  0
  8 22  1  0
  9 23  1  0
M  END
