
     RDKit          3D

 21 22  0  0  0  0  0  0  0  0999 V2000
    2.6240    0.5248    0.4363 C   0  0  0  0  0  0  0  0  0  0  0  0
    1.3795   -0.2702    0.0550 C   0  0  0  0  0  0  0  0  0  0  0  0
    1.6472   -0.8441   -1.1901 O   0  0  0  0  0  0  0  0  0  0  0  0
    0.2401    0.7060   -0.0131 C   0  0  0  0  0  0  0  0  0  0  0  0
   -1.0685    0.0622   -0.3823 C   0  0  0  0  0  0  0  0  0  0  0  0
   -2.2314    0.9911   -0.4630 C   0  0  0  0  0  0  0  0  0  0  0  0
   -3.0639    0.1295    0.2540 O   0  0  0  0  0  0  0  0  0  0  0  0
   -1.9210   -0.5227    0.6952 C   0  0  0  0  0  0  0  0  0  0  0  0
   -1.2640   -1.3983   -0.3173 C   0  0  0  0  0  0  0  0  0  0  0  0
    3.2060   -0.0038    1.2337 H   0  0  0  0  0  0  0  0  0  0  0  0
    3.3018    0.6636   -0.4161 H   0  0  0  0  0  0  0  0  0  0  0  0
    2.3645    1.5106    0.8555 H   0  0  0  0  0  0  0  0  0  0  0  0
    1.2385   -1.0519    0.8142 H   0  0  0  0  0  0  0  0  0  0  0  0
    1.5518   -1.8282   -1.1339 H   0  0  0  0  0  0  0  0  0  0  0  0
    0.2077    1.2605    0.9423 H   0  0  0  0  0  0  0  0  0  0  0  0
    0.4840    1.4423   -0.8069 H   0  0  0  0  0  0  0  0  0  0  0  0
   -2.0755    1.9187    0.1569 H   0  0  0  0  0  0  0  0  0  0  0  0
   -2.5279    1.1796   -1.5096 H   0  0  0  0  0  0  0  0  0  0  0  0
   -1.6185   -0.5063    1.7391 H   0  0  0  0  0  0  0  0  0  0  0  0
   -1.9696   -1.8905   -1.0292 H   0  0  0  0  0  0  0  0  0  0  0  0
   -0.5048   -2.0729    0.0792 H   0  0  0  0  0  0  0  0  0  0  0  0
  1  2  1  0
  2  3  1  0
  2  4  1  0
  4  5  1  0
  5  6  1  0
  6  7  1  0
  7  8  1  0
  8  9  1  0
  8  5  1  0
  9  5  1  0
  1 10  1  0
  1 11  1  0
  1 12  1  0
  2 13  1  0
  3 14  1  0
  4 15  1  0
  4 16  1  0
  6 17  1  0
  6 18  1  0
  8 19  1  0
  9 20  1  0
  9 21  1  0
M  END
