
     RDKit          3D

 23 23  0  0  0  0  0  0  0  0999 V2000
    1.9637   -0.2658    0.6859 C   0  0  0  0  0  0  0  0  0  0  0  0
    1.4768   -0.2414   -0.7474 C   0  0  0  0  0  0  0  0  0  0  0  0
    1.6449   -1.5036   -1.2605 O   0  0  0  0  0  0  0  0  0  0  0  0
    0.1048    0.3178   -0.9141 C   0  0  0  0  0  0  0  0  0  0  0  0
   -0.0384    1.7069   -0.4488 C   0  0  0  0  0  0  0  0  0  0  0  0
   -1.2651    1.8955   -0.0212 C   0  0  0  0  0  0  0  0  0  0  0  0
   -2.0500    0.6685   -0.1571 C   0  0  0  0  0  0  0  0  0  0  0  0
   -1.0201   -0.4513   -0.3777 C   0  0  0  0  0  0  0  0  0  0  0  0
   -0.8711   -1.1766    0.9005 C   0  0  0  0  0  0  0  0  0  0  0  0
    1.7754   -1.2377    1.1424 H   0  0  0  0  0  0  0  0  0  0  0  0
    3.0815   -0.1002    0.6994 H   0  0  0  0  0  0  0  0  0  0  0  0
    1.5671    0.6022    1.2682 H   0  0  0  0  0  0  0  0  0  0  0  0
    2.2069    0.4193   -1.3052 H   0  0  0  0  0  0  0  0  0  0  0  0
    2.1047   -2.1358   -0.6430 H   0  0  0  0  0  0  0  0  0  0  0  0
   -0.0613    0.3845   -2.0370 H   0  0  0  0  0  0  0  0  0  0  0  0
    0.7078    2.5005   -0.4329 H   0  0  0  0  0  0  0  0  0  0  0  0
   -1.6958    2.8214    0.3902 H   0  0  0  0  0  0  0  0  0  0  0  0
   -2.6039    0.5090    0.8016 H   0  0  0  0  0  0  0  0  0  0  0  0
   -2.8038    0.6814   -0.9579 H   0  0  0  0  0  0  0  0  0  0  0  0
   -1.4565   -1.1696   -1.1287 H   0  0  0  0  0  0  0  0  0  0  0  0
   -1.9196   -1.4430    1.2428 H   0  0  0  0  0  0  0  0  0  0  0  0
   -0.4572   -0.5907    1.7253 H   0  0  0  0  0  0  0  0  0  0  0  0
   -0.3906   -2.1914    0.7895 H   0  0  0  0  0  0  0  0  0  0  0  0
  1  2  1  0
  2  3  1  0
  2  4  1  0
  4  5  1  0
  5  6  2  0
  6  7  1  0
  7  8  1  0
  8  9  1  0
  8  4  1  0
  1 10  1  0
  1 11  1  0
  1 12  1  0
  2 13  1  0
  3 14  1  0
  4 15  1  0
  5 16  1  0
  6 17  1  0
  7 18  1  0
  7 19  1  0
  8 20  1  0
  9 21  1  0
  9 22  1  0
  9 23  1  0
M  END
