
     RDKit          3D

 21 21  0  0  0  0  0  0  0  0999 V2000
   -1.9107    0.9245    0.0940 C   0  0  0  0  0  0  0  0  0  0  0  0
   -1.5935   -0.1379   -0.9374 C   0  0  0  0  0  0  0  0  0  0  0  0
   -2.8054   -0.8291   -1.1687 O   0  0  0  0  0  0  0  0  0  0  0  0
   -0.6402   -1.1684   -0.3802 C   0  0  0  0  0  0  0  0  0  0  0  0
    0.6654   -0.5964    0.0544 C   0  0  0  0  0  0  0  0  0  0  0  0
    1.3813    0.0298   -0.9390 O   0  0  0  0  0  0  0  0  0  0  0  0
    2.4991    0.4880   -0.2074 C   0  0  0  0  0  0  0  0  0  0  0  0
    1.9337    0.7387    1.1783 C   0  0  0  0  0  0  0  0  0  0  0  0
    0.5808    0.3540    1.0411 O   0  0  0  0  0  0  0  0  0  0  0  0
   -1.1344    1.6904    0.1838 H   0  0  0  0  0  0  0  0  0  0  0  0
   -2.8985    1.3733   -0.2208 H   0  0  0  0  0  0  0  0  0  0  0  0
   -2.1348    0.3915    1.0455 H   0  0  0  0  0  0  0  0  0  0  0  0
   -1.2880    0.2716   -1.8972 H   0  0  0  0  0  0  0  0  0  0  0  0
   -2.9599   -1.3514   -0.3216 H   0  0  0  0  0  0  0  0  0  0  0  0
   -1.1331   -1.6068    0.5132 H   0  0  0  0  0  0  0  0  0  0  0  0
   -0.4599   -1.9930   -1.0801 H   0  0  0  0  0  0  0  0  0  0  0  0
    1.2872   -1.4297    0.4401 H   0  0  0  0  0  0  0  0  0  0  0  0
    2.9385    1.3915   -0.6474 H   0  0  0  0  0  0  0  0  0  0  0  0
    3.2401   -0.3319   -0.1616 H   0  0  0  0  0  0  0  0  0  0  0  0
    2.0361    1.7754    1.5094 H   0  0  0  0  0  0  0  0  0  0  0  0
    2.3960    0.0159    1.9017 H   0  0  0  0  0  0  0  0  0  0  0  0
  1  2  1  0
  2  3  1  0
  2  4  1  0
  4  5  1  0
  5  6  1  0
  6  7  1  0
  7  8  1  0
  8  9  1  0
  9  5  1  0
  1 10  1  0
  1 11  1  0
  1 12  1  0
  2 13  1  0
  3 14  1  0
  4 15  1  0
  4 16  1  0
  5 17  1  0
  7 18  1  0
  7 19  1  0
  8 20  1  0
  8 21  1  0
M  END
