
     RDKit          3D

 19 19  0  0  0  0  0  0  0  0999 V2000
   -2.2223    0.4700    0.1239 C   0  0  0  0  0  0  0  0  0  0  0  0
   -1.1380   -0.5907    0.1734 C   0  0  0  0  0  0  0  0  0  0  0  0
   -0.8205   -0.8322    1.4937 O   0  0  0  0  0  0  0  0  0  0  0  0
    0.0316   -0.0657   -0.6247 C   0  0  0  0  0  0  0  0  0  0  0  0
    0.4768    1.2028    0.0151 C   0  0  0  0  0  0  0  0  0  0  0  0
    1.7219    1.0837    0.4550 C   0  0  0  0  0  0  0  0  0  0  0  0
    2.2567   -0.2888    0.1576 C   0  0  0  0  0  0  0  0  0  0  0  0
    1.1883   -0.9688   -0.6096 C   0  0  0  0  0  0  0  0  0  0  0  0
    1.2449   -2.0611   -1.1302 O   0  0  0  0  0  0  0  0  0  0  0  0
   -2.3881    0.7218   -0.9368 H   0  0  0  0  0  0  0  0  0  0  0  0
   -3.1270    0.0169    0.5844 H   0  0  0  0  0  0  0  0  0  0  0  0
   -1.9076    1.3572    0.7278 H   0  0  0  0  0  0  0  0  0  0  0  0
   -1.5058   -1.5044   -0.3075 H   0  0  0  0  0  0  0  0  0  0  0  0
   -1.3113   -1.6446    1.7770 H   0  0  0  0  0  0  0  0  0  0  0  0
   -0.3176    0.1619   -1.6334 H   0  0  0  0  0  0  0  0  0  0  0  0
   -0.1080    2.1050    0.1198 H   0  0  0  0  0  0  0  0  0  0  0  0
    2.3153    1.8293    0.9598 H   0  0  0  0  0  0  0  0  0  0  0  0
    2.4330   -0.8321    1.1280 H   0  0  0  0  0  0  0  0  0  0  0  0
    3.1778   -0.1604   -0.4172 H   0  0  0  0  0  0  0  0  0  0  0  0
  1  2  1  0
  2  3  1  0
  2  4  1  0
  4  5  1  0
  5  6  2  0
  6  7  1  0
  7  8  1  0
  8  9  2  0
  8  4  1  0
  1 10  1  0
  1 11  1  0
  1 12  1  0
  2 13  1  0
  3 14  1  0
  4 15  1  0
  5 16  1  0
  6 17  1  0
  7 18  1  0
  7 19  1  0
M  END
