
     RDKit          3D

 15 14  0  0  0  0  0  0  0  0999 V2000
   -1.1904    1.0287   -0.3566 C   0  0  0  0  0  0  0  0  0  0  0  0
   -0.6562   -0.2373    0.2036 C   0  0  0  0  0  0  0  0  0  0  0  0
   -0.7224   -0.2315    1.5956 O   0  0  0  0  0  0  0  0  0  0  0  0
    0.7554   -0.5546   -0.2071 C   0  0  0  0  0  0  0  0  0  0  0  0
    0.8980   -0.5778   -1.5920 O   0  0  0  0  0  0  0  0  0  0  0  0
    1.7648    0.3021    0.4288 C   0  0  0  0  0  0  0  0  0  0  0  0
    1.8575    0.4913    1.6180 O   0  0  0  0  0  0  0  0  0  0  0  0
   -2.0193    0.8628   -1.1027 H   0  0  0  0  0  0  0  0  0  0  0  0
   -0.4640    1.6843   -0.8367 H   0  0  0  0  0  0  0  0  0  0  0  0
   -1.6886    1.6191    0.4678 H   0  0  0  0  0  0  0  0  0  0  0  0
   -1.3020   -1.0760   -0.1609 H   0  0  0  0  0  0  0  0  0  0  0  0
   -1.1539   -1.0711    1.9348 H   0  0  0  0  0  0  0  0  0  0  0  0
    0.9533   -1.6103    0.1371 H   0  0  0  0  0  0  0  0  0  0  0  0
    0.4861   -1.4337   -1.9203 H   0  0  0  0  0  0  0  0  0  0  0  0
    2.4817    0.8040   -0.2093 H   0  0  0  0  0  0  0  0  0  0  0  0
  1  2  1  0
  2  3  1  0
  2  4  1  0
  4  5  1  0
  4  6  1  0
  6  7  2  0
  1  8  1  0
  1  9  1  0
  1 10  1  0
  2 11  1  0
  3 12  1  0
  4 13  1  0
  5 14  1  0
  6 15  1  0
M  END
