
     RDKit          3D

 18 18  0  0  0  0  0  0  0  0999 V2000
   -1.2457    0.6948    0.7949 C   0  0  0  0  0  0  0  0  0  0  0  0
   -0.6781    0.1768   -0.5044 C   0  0  0  0  0  0  0  0  0  0  0  0
   -1.0366    1.0632   -1.5021 O   0  0  0  0  0  0  0  0  0  0  0  0
   -1.2698   -1.1448   -0.8108 C   0  0  0  0  0  0  0  0  0  0  0  0
   -1.0625   -2.0626   -0.0390 O   0  0  0  0  0  0  0  0  0  0  0  0
    0.8173    0.0681   -0.4755 C   0  0  0  0  0  0  0  0  0  0  0  0
    1.4087   -0.8538    0.5798 C   0  0  0  0  0  0  0  0  0  0  0  0
    1.6268    0.6337    0.6269 C   0  0  0  0  0  0  0  0  0  0  0  0
   -0.8596    1.6929    1.0050 H   0  0  0  0  0  0  0  0  0  0  0  0
   -1.0632    0.0393    1.6493 H   0  0  0  0  0  0  0  0  0  0  0  0
   -2.3452    0.7877    0.6489 H   0  0  0  0  0  0  0  0  0  0  0  0
   -0.4636    0.8601   -2.3073 H   0  0  0  0  0  0  0  0  0  0  0  0
   -1.8797   -1.3626   -1.6770 H   0  0  0  0  0  0  0  0  0  0  0  0
    1.2898   -0.0217   -1.4742 H   0  0  0  0  0  0  0  0  0  0  0  0
    0.7055   -1.2615    1.3512 H   0  0  0  0  0  0  0  0  0  0  0  0
    2.2416   -1.5229    0.3068 H   0  0  0  0  0  0  0  0  0  0  0  0
    2.6318    1.0370    0.3499 H   0  0  0  0  0  0  0  0  0  0  0  0
    1.1824    1.1765    1.4775 H   0  0  0  0  0  0  0  0  0  0  0  0
  1  2  1  0
  2  3  1  0
  2  4  1  0
  4  5  2  0
  2  6  1  0
  6  7  1  0
  7  8  1  0
  8  6  1  0
  1  9  1  0
  1 10  1  0
  1 11  1  0
  3 12  1  0
  4 13  1  0
  6 14  1  0
  7 15  1  0
  7 16  1  0
  8 17  1  0
  8 18  1  0
M  END
