
     RDKit          3D

 21 21  0  0  0  0  0  0  0  0999 V2000
    2.0744    0.9818    0.1182 C   0  0  0  0  0  0  0  0  0  0  0  0
    1.2544   -0.2442   -0.3065 C   0  0  0  0  0  0  0  0  0  0  0  0
    2.0816   -1.3498   -0.0208 O   0  0  0  0  0  0  0  0  0  0  0  0
    0.0250   -0.3500    0.5488 C   0  0  0  0  0  0  0  0  0  0  0  0
    0.3213   -0.3471    1.9307 O   0  0  0  0  0  0  0  0  0  0  0  0
   -1.0494   -1.2803    0.1505 C   0  0  0  0  0  0  0  0  0  0  0  0
   -1.2625    0.2286    0.1846 C   0  0  0  0  0  0  0  0  0  0  0  0
   -1.5600    0.8318   -1.1501 C   0  0  0  0  0  0  0  0  0  0  0  0
   -2.1326    0.6712    1.2029 O   0  0  0  0  0  0  0  0  0  0  0  0
    3.0882    0.9280   -0.3520 H   0  0  0  0  0  0  0  0  0  0  0  0
    1.5456    1.9168   -0.0836 H   0  0  0  0  0  0  0  0  0  0  0  0
    2.1520    0.8882    1.2381 H   0  0  0  0  0  0  0  0  0  0  0  0
    1.0605   -0.1502   -1.3754 H   0  0  0  0  0  0  0  0  0  0  0  0
    1.9521   -2.0844   -0.6354 H   0  0  0  0  0  0  0  0  0  0  0  0
    1.0703   -0.9864    2.1232 H   0  0  0  0  0  0  0  0  0  0  0  0
   -1.5445   -1.8952    0.9259 H   0  0  0  0  0  0  0  0  0  0  0  0
   -1.0388   -1.7885   -0.8419 H   0  0  0  0  0  0  0  0  0  0  0  0
   -1.6443    1.9338   -1.1142 H   0  0  0  0  0  0  0  0  0  0  0  0
   -0.8534    0.5689   -1.9374 H   0  0  0  0  0  0  0  0  0  0  0  0
   -2.5844    0.4642   -1.4516 H   0  0  0  0  0  0  0  0  0  0  0  0
   -2.9555    1.0627    0.8459 H   0  0  0  0  0  0  0  0  0  0  0  0
  1  2  1  0
  2  3  1  0
  2  4  1  0
  4  5  1  0
  4  6  1  0
  6  7  1  0
  7  8  1  0
  7  9  1  0
  7  4  1  0
  1 10  1  0
  1 11  1  0
  1 12  1  0
  2 13  1  0
  3 14  1  0
  5 15  1  0
  6 16  1  0
  6 17  1  0
  8 18  1  0
  8 19  1  0
  8 20  1  0
  9 21  1  0
M  END
