
     RDKit          3D

 23 23  0  0  0  0  0  0  0  0999 V2000
   -3.1173   -0.8037   -0.1711 C   0  0  0  0  0  0  0  0  0  0  0  0
   -1.7302   -0.3368    0.2768 C   0  0  0  0  0  0  0  0  0  0  0  0
   -1.8464    0.5097    1.3746 O   0  0  0  0  0  0  0  0  0  0  0  0
   -1.1304    0.4140   -0.8784 C   0  0  0  0  0  0  0  0  0  0  0  0
    0.2550    0.9312   -0.5562 C   0  0  0  0  0  0  0  0  0  0  0  0
    1.1933   -0.1999   -0.2189 C   0  0  0  0  0  0  0  0  0  0  0  0
    2.5435    0.4097    0.0866 C   0  0  0  0  0  0  0  0  0  0  0  0
    3.6378   -0.5482    0.4509 C   0  0  0  0  0  0  0  0  0  0  0  0
    3.6165    0.1753   -0.7384 O   0  0  0  0  0  0  0  0  0  0  0  0
   -3.1587   -0.9278   -1.2666 H   0  0  0  0  0  0  0  0  0  0  0  0
   -3.3793   -1.7372    0.3806 H   0  0  0  0  0  0  0  0  0  0  0  0
   -3.8710   -0.0366    0.1466 H   0  0  0  0  0  0  0  0  0  0  0  0
   -1.1137   -1.2035    0.5810 H   0  0  0  0  0  0  0  0  0  0  0  0
   -2.2805    1.3688    1.1454 H   0  0  0  0  0  0  0  0  0  0  0  0
   -1.7691    1.3057   -1.0569 H   0  0  0  0  0  0  0  0  0  0  0  0
   -1.0409   -0.2378   -1.7668 H   0  0  0  0  0  0  0  0  0  0  0  0
    0.6885    1.4614   -1.4270 H   0  0  0  0  0  0  0  0  0  0  0  0
    0.2304    1.5974    0.3457 H   0  0  0  0  0  0  0  0  0  0  0  0
    0.8606   -0.7047    0.7217 H   0  0  0  0  0  0  0  0  0  0  0  0
    1.2392   -0.9710   -1.0112 H   0  0  0  0  0  0  0  0  0  0  0  0
    2.4866    1.3938    0.6103 H   0  0  0  0  0  0  0  0  0  0  0  0
    3.4193   -1.6306    0.3018 H   0  0  0  0  0  0  0  0  0  0  0  0
    4.2668   -0.2292    1.2891 H   0  0  0  0  0  0  0  0  0  0  0  0
  1  2  1  0
  2  3  1  0
  2  4  1  0
  4  5  1  0
  5  6  1  0
  6  7  1  0
  7  8  1  0
  8  9  1  0
  9  7  1  0
  1 10  1  0
  1 11  1  0
  1 12  1  0
  2 13  1  0
  3 14  1  0
  4 15  1  0
  4 16  1  0
  5 17  1  0
  5 18  1  0
  6 19  1  0
  6 20  1  0
  7 21  1  0
  8 22  1  0
  8 23  1  0
M  END
