
     RDKit          3D

 21 22  0  0  0  0  0  0  0  0999 V2000
   -2.4407   -0.0844   -0.2022 C   0  0  0  0  0  0  0  0  0  0  0  0
   -1.0413   -0.5731    0.0894 C   0  0  0  0  0  0  0  0  0  0  0  0
   -1.0642   -1.3606    1.2219 O   0  0  0  0  0  0  0  0  0  0  0  0
   -0.1490    0.5985    0.3280 C   0  0  0  0  0  0  0  0  0  0  0  0
    1.2829    0.3098    0.6338 C   0  0  0  0  0  0  0  0  0  0  0  0
    1.7471   -1.0373    0.0905 C   0  0  0  0  0  0  0  0  0  0  0  0
    1.7619    1.3928   -0.2837 C   0  0  0  0  0  0  0  0  0  0  0  0
    1.0006    2.4496   -0.6717 O   0  0  0  0  0  0  0  0  0  0  0  0
    0.3846    1.2754   -0.9387 C   0  0  0  0  0  0  0  0  0  0  0  0
   -3.1074   -0.1571    0.6819 H   0  0  0  0  0  0  0  0  0  0  0  0
   -2.3916    0.9827   -0.5040 H   0  0  0  0  0  0  0  0  0  0  0  0
   -2.9224   -0.7108   -0.9985 H   0  0  0  0  0  0  0  0  0  0  0  0
   -0.7090   -1.1306   -0.8174 H   0  0  0  0  0  0  0  0  0  0  0  0
   -2.0009   -1.6194    1.4508 H   0  0  0  0  0  0  0  0  0  0  0  0
   -0.6354    1.3173    1.0224 H   0  0  0  0  0  0  0  0  0  0  0  0
    1.5346    0.4293    1.7026 H   0  0  0  0  0  0  0  0  0  0  0  0
    1.3266   -1.2305   -0.9049 H   0  0  0  0  0  0  0  0  0  0  0  0
    2.8556   -1.0150    0.0226 H   0  0  0  0  0  0  0  0  0  0  0  0
    1.4940   -1.7876    0.8527 H   0  0  0  0  0  0  0  0  0  0  0  0
    2.6569    1.2153   -0.9039 H   0  0  0  0  0  0  0  0  0  0  0  0
    0.4170    0.7358   -1.8717 H   0  0  0  0  0  0  0  0  0  0  0  0
  1  2  1  0
  2  3  1  0
  2  4  1  0
  4  5  1  0
  5  6  1  0
  5  7  1  0
  7  8  1  0
  8  9  1  0
  9  4  1  0
  9  7  1  0
  1 10  1  0
  1 11  1  0
  1 12  1  0
  2 13  1  0
  3 14  1  0
  4 15  1  0
  5 16  1  0
  6 17  1  0
  6 18  1  0
  6 19  1  0
  7 20  1  0
  9 21  1  0
M  END
