
     RDKit          3D

 21 22  0  0  0  0  0  0  0  0999 V2000
    1.9392    0.0962    0.8633 C   0  0  0  0  0  0  0  0  0  0  0  0
    1.4836   -0.0019   -0.5616 C   0  0  0  0  0  0  0  0  0  0  0  0
    2.0494   -1.1428   -1.1129 O   0  0  0  0  0  0  0  0  0  0  0  0
   -0.0103   -0.1223   -0.6978 C   0  0  0  0  0  0  0  0  0  0  0  0
   -0.5516   -1.3398   -0.0059 C   0  0  0  0  0  0  0  0  0  0  0  0
   -1.0952   -0.5221    1.1289 C   0  0  0  0  0  0  0  0  0  0  0  0
   -0.4636    0.6127    1.5725 O   0  0  0  0  0  0  0  0  0  0  0  0
   -0.8163    0.7045    0.2574 C   0  0  0  0  0  0  0  0  0  0  0  0
   -2.0613    1.3946   -0.1940 C   0  0  0  0  0  0  0  0  0  0  0  0
    1.8036    1.1265    1.2881 H   0  0  0  0  0  0  0  0  0  0  0  0
    3.0572   -0.0552    0.8517 H   0  0  0  0  0  0  0  0  0  0  0  0
    1.4910   -0.6827    1.4960 H   0  0  0  0  0  0  0  0  0  0  0  0
    1.8392    0.8853   -1.1251 H   0  0  0  0  0  0  0  0  0  0  0  0
    2.2045   -1.0780   -2.0861 H   0  0  0  0  0  0  0  0  0  0  0  0
   -0.3313   -0.0349   -1.7469 H   0  0  0  0  0  0  0  0  0  0  0  0
   -1.4135   -1.7657   -0.5848 H   0  0  0  0  0  0  0  0  0  0  0  0
    0.1493   -2.1328    0.2360 H   0  0  0  0  0  0  0  0  0  0  0  0
   -2.0989   -0.6880    1.5174 H   0  0  0  0  0  0  0  0  0  0  0  0
   -1.9043    1.7005   -1.2677 H   0  0  0  0  0  0  0  0  0  0  0  0
   -2.3091    2.2971    0.3710 H   0  0  0  0  0  0  0  0  0  0  0  0
   -2.9616    0.7486   -0.1996 H   0  0  0  0  0  0  0  0  0  0  0  0
  1  2  1  0
  2  3  1  0
  2  4  1  0
  4  5  1  0
  5  6  1  0
  6  7  1  0
  7  8  1  0
  8  9  1  0
  8  4  1  0
  8  6  1  0
  1 10  1  0
  1 11  1  0
  1 12  1  0
  2 13  1  0
  3 14  1  0
  4 15  1  0
  5 16  1  0
  5 17  1  0
  6 18  1  0
  9 19  1  0
  9 20  1  0
  9 21  1  0
M  END
