
     RDKit          3D

 16 15  0  0  0  0  0  0  0  0999 V2000
   -2.3730    0.4656    0.5980 C   0  0  0  0  0  0  0  0  0  0  0  0
   -1.7672   -0.3754   -0.5023 C   0  0  0  0  0  0  0  0  0  0  0  0
   -2.1887   -1.6998   -0.4007 O   0  0  0  0  0  0  0  0  0  0  0  0
   -0.3029   -0.3444   -0.4831 C   0  0  0  0  0  0  0  0  0  0  0  0
    0.9131   -0.2979   -0.4626 C   0  0  0  0  0  0  0  0  0  0  0  0
    2.3733   -0.2250   -0.4243 C   0  0  0  0  0  0  0  0  0  0  0  0
    2.8184    1.0222   -1.0606 C   0  0  0  0  0  0  0  0  0  0  0  0
    4.0227    1.2534   -1.1196 O   0  0  0  0  0  0  0  0  0  0  0  0
   -3.3828    0.0855    0.8070 H   0  0  0  0  0  0  0  0  0  0  0  0
   -1.7859    0.4033    1.5381 H   0  0  0  0  0  0  0  0  0  0  0  0
   -2.3385    1.5152    0.2637 H   0  0  0  0  0  0  0  0  0  0  0  0
   -2.0791    0.0133   -1.4981 H   0  0  0  0  0  0  0  0  0  0  0  0
   -1.5322   -2.1425    0.2130 H   0  0  0  0  0  0  0  0  0  0  0  0
    2.7705   -0.2318    0.6199 H   0  0  0  0  0  0  0  0  0  0  0  0
    2.7737   -1.1415   -0.9016 H   0  0  0  0  0  0  0  0  0  0  0  0
    2.0785    1.6997   -1.4579 H   0  0  0  0  0  0  0  0  0  0  0  0
  1  2  1  0
  2  3  1  0
  2  4  1  0
  4  5  3  0
  5  6  1  0
  6  7  1  0
  7  8  2  0
  1  9  1  0
  1 10  1  0
  1 11  1  0
  2 12  1  0
  3 13  1  0
  6 14  1  0
  6 15  1  0
  7 16  1  0
M  END
