
     RDKit          3D

 25 24  0  0  0  0  0  0  0  0999 V2000
    2.2233   -0.6526    0.6789 C   0  0  0  0  0  0  0  0  0  0  0  0
    1.5495    0.5539    0.0125 C   0  0  0  0  0  0  0  0  0  0  0  0
    2.5293    0.9723   -0.9287 O   0  0  0  0  0  0  0  0  0  0  0  0
    0.3501    0.2092   -0.7890 C   0  0  0  0  0  0  0  0  0  0  0  0
    0.0094    1.3989   -1.4858 O   0  0  0  0  0  0  0  0  0  0  0  0
   -0.8706   -0.2173   -0.0344 C   0  0  0  0  0  0  0  0  0  0  0  0
   -1.9806   -0.5189   -1.0529 C   0  0  0  0  0  0  0  0  0  0  0  0
   -1.3827    0.9273    0.8176 C   0  0  0  0  0  0  0  0  0  0  0  0
   -0.7410   -1.4186    0.8220 C   0  0  0  0  0  0  0  0  0  0  0  0
    1.9027   -0.7830    1.7323 H   0  0  0  0  0  0  0  0  0  0  0  0
    3.3349   -0.4462    0.7764 H   0  0  0  0  0  0  0  0  0  0  0  0
    2.0859   -1.5680    0.0846 H   0  0  0  0  0  0  0  0  0  0  0  0
    1.4355    1.3800    0.7138 H   0  0  0  0  0  0  0  0  0  0  0  0
    2.3811    1.9157   -1.1847 H   0  0  0  0  0  0  0  0  0  0  0  0
    0.6297   -0.5339   -1.5584 H   0  0  0  0  0  0  0  0  0  0  0  0
    0.1245    2.1686   -0.8745 H   0  0  0  0  0  0  0  0  0  0  0  0
   -1.9765   -1.5715   -1.3399 H   0  0  0  0  0  0  0  0  0  0  0  0
   -2.9494   -0.2183   -0.6571 H   0  0  0  0  0  0  0  0  0  0  0  0
   -1.7783    0.0927   -1.9645 H   0  0  0  0  0  0  0  0  0  0  0  0
   -0.5559    1.2981    1.4422 H   0  0  0  0  0  0  0  0  0  0  0  0
   -2.2239    0.5750    1.4524 H   0  0  0  0  0  0  0  0  0  0  0  0
   -1.6996    1.7384    0.1308 H   0  0  0  0  0  0  0  0  0  0  0  0
   -0.1750   -2.2639    0.3817 H   0  0  0  0  0  0  0  0  0  0  0  0
   -0.4386   -1.1912    1.8781 H   0  0  0  0  0  0  0  0  0  0  0  0
   -1.7840   -1.8467    0.9465 H   0  0  0  0  0  0  0  0  0  0  0  0
  1  2  1  0
  2  3  1  0
  2  4  1  0
  4  5  1  0
  4  6  1  0
  6  7  1  0
  6  8  1  0
  6  9  1  0
  1 10  1  0
  1 11  1  0
  1 12  1  0
  2 13  1  0
  3 14  1  0
  4 15  1  0
  5 16  1  0
  7 17  1  0
  7 18  1  0
  7 19  1  0
  8 20  1  0
  8 21  1  0
  8 22  1  0
  9 23  1  0
  9 24  1  0
  9 25  1  0
M  END
