
     RDKit          3D

 19 19  0  0  0  0  0  0  0  0999 V2000
   -2.0649   -1.1091   -2.0130 C   0  0  0  0  0  0  0  0  0  0  0  0
   -0.8447   -0.1495   -1.9352 C   0  0  0  0  0  0  0  0  0  0  0  0
    0.0762   -0.8226   -2.9382 O   0  0  0  0  0  0  0  0  0  0  0  0
   -0.2056   -0.1961   -0.7569 C   0  0  0  0  0  0  0  0  0  0  0  0
    0.3558   -0.2282    0.2415 C   0  0  0  0  0  0  0  0  0  0  0  0
    1.1778   -0.2687    1.6475 C   0  0  0  0  0  0  0  0  0  0  0  0
    1.9270    1.0126    1.6979 C   0  0  0  0  0  0  0  0  0  0  0  0
    0.6834    0.7402    2.5507 C   0  0  0  0  0  0  0  0  0  0  0  0
   -0.4209    1.5343    2.3733 O   0  0  0  0  0  0  0  0  0  0  0  0
   -2.9866   -0.6827   -1.6470 H   0  0  0  0  0  0  0  0  0  0  0  0
   -2.1076   -1.4069   -3.1190 H   0  0  0  0  0  0  0  0  0  0  0  0
   -1.7153   -2.0353   -1.4727 H   0  0  0  0  0  0  0  0  0  0  0  0
   -1.0235    0.7931   -2.4445 H   0  0  0  0  0  0  0  0  0  0  0  0
    0.0633   -1.7483   -2.6291 H   0  0  0  0  0  0  0  0  0  0  0  0
    1.6176   -1.2080    1.8432 H   0  0  0  0  0  0  0  0  0  0  0  0
    1.7746    1.8300    0.9519 H   0  0  0  0  0  0  0  0  0  0  0  0
    2.9126    1.0061    2.1761 H   0  0  0  0  0  0  0  0  0  0  0  0
    0.9388    0.6063    3.6366 H   0  0  0  0  0  0  0  0  0  0  0  0
   -0.1580    2.3328    1.8370 H   0  0  0  0  0  0  0  0  0  0  0  0
  1  2  1  0
  2  3  1  0
  2  4  1  0
  4  5  3  0
  5  6  1  0
  6  7  1  0
  7  8  1  0
  8  9  1  0
  8  6  1  0
  1 10  1  0
  1 11  1  0
  1 12  1  0
  2 13  1  0
  3 14  1  0
  6 15  1  0
  7 16  1  0
  7 17  1  0
  8 18  1  0
  9 19  1  0
M  END
