
     RDKit          3D

 19 20  0  0  0  0  0  0  0  0999 V2000
   -2.5506   -0.3839   -0.0375 C   0  0  0  0  0  0  0  0  0  0  0  0
   -1.3168    0.3875    0.4038 C   0  0  0  0  0  0  0  0  0  0  0  0
   -1.5480    1.7394    0.2414 O   0  0  0  0  0  0  0  0  0  0  0  0
   -0.1143   -0.0228   -0.4659 C   0  0  0  0  0  0  0  0  0  0  0  0
    1.1193    0.6210   -0.1673 C   0  0  0  0  0  0  0  0  0  0  0  0
    2.1795    0.2033    0.8455 C   0  0  0  0  0  0  0  0  0  0  0  0
    2.3475   -0.9113   -0.1454 C   0  0  0  0  0  0  0  0  0  0  0  0
    3.1948   -1.4995   -0.7598 O   0  0  0  0  0  0  0  0  0  0  0  0
    0.8583   -0.9339    0.0145 C   0  0  0  0  0  0  0  0  0  0  0  0
   -2.5081   -0.3755   -1.1668 H   0  0  0  0  0  0  0  0  0  0  0  0
   -2.5086   -1.4453    0.2469 H   0  0  0  0  0  0  0  0  0  0  0  0
   -3.4794    0.1293    0.2271 H   0  0  0  0  0  0  0  0  0  0  0  0
   -1.1323    0.1073    1.4683 H   0  0  0  0  0  0  0  0  0  0  0  0
   -1.2759    2.2628    1.0589 H   0  0  0  0  0  0  0  0  0  0  0  0
   -0.4820   -0.1921   -1.5248 H   0  0  0  0  0  0  0  0  0  0  0  0
    1.6951    0.8822   -1.1156 H   0  0  0  0  0  0  0  0  0  0  0  0
    3.0411    0.8562    0.8760 H   0  0  0  0  0  0  0  0  0  0  0  0
    1.7939   -0.1907    1.7967 H   0  0  0  0  0  0  0  0  0  0  0  0
    0.6866   -1.2339    1.0998 H   0  0  0  0  0  0  0  0  0  0  0  0
  1  2  1  0
  2  3  1  0
  2  4  1  0
  4  5  1  0
  5  6  1  0
  6  7  1  0
  7  8  2  0
  7  9  1  0
  9  4  1  0
  9  5  1  0
  1 10  1  0
  1 11  1  0
  1 12  1  0
  2 13  1  0
  3 14  1  0
  4 15  1  0
  5 16  1  0
  6 17  1  0
  6 18  1  0
  9 19  1  0
M  END
