
     RDKit          3D

 19 20  0  0  0  0  0  0  0  0999 V2000
   -2.0596    0.5426    0.4876 C   0  0  0  0  0  0  0  0  0  0  0  0
   -1.1383   -0.0191   -0.5743 C   0  0  0  0  0  0  0  0  0  0  0  0
   -1.7153   -1.2562   -0.9534 O   0  0  0  0  0  0  0  0  0  0  0  0
    0.1549   -0.2052   -0.1184 C   0  0  0  0  0  0  0  0  0  0  0  0
    1.2801   -0.8397   -0.8661 C   0  0  0  0  0  0  0  0  0  0  0  0
    1.7645   -0.5230    0.5183 C   0  0  0  0  0  0  0  0  0  0  0  0
    0.5300   -0.9872    0.9641 O   0  0  0  0  0  0  0  0  0  0  0  0
    1.1067    0.8080    0.3851 C   0  0  0  0  0  0  0  0  0  0  0  0
    0.8493    1.3726    1.6234 O   0  0  0  0  0  0  0  0  0  0  0  0
   -1.6966    0.2932    1.5190 H   0  0  0  0  0  0  0  0  0  0  0  0
   -2.1349    1.6475    0.4092 H   0  0  0  0  0  0  0  0  0  0  0  0
   -3.1059    0.1628    0.3503 H   0  0  0  0  0  0  0  0  0  0  0  0
   -1.1910    0.6896   -1.4303 H   0  0  0  0  0  0  0  0  0  0  0  0
   -1.4033   -1.9011   -0.2607 H   0  0  0  0  0  0  0  0  0  0  0  0
    1.7631   -0.2589   -1.6570 H   0  0  0  0  0  0  0  0  0  0  0  0
    1.0651   -1.8957   -1.0833 H   0  0  0  0  0  0  0  0  0  0  0  0
    2.6658   -0.7375    0.9123 H   0  0  0  0  0  0  0  0  0  0  0  0
    1.5140    1.4865   -0.3882 H   0  0  0  0  0  0  0  0  0  0  0  0
    1.7515    1.6211    2.0015 H   0  0  0  0  0  0  0  0  0  0  0  0
  1  2  1  0
  2  3  1  0
  2  4  1  0
  4  5  1  0
  5  6  1  0
  6  7  1  0
  6  8  1  0
  8  9  1  0
  7  4  1  0
  8  4  1  0
  1 10  1  0
  1 11  1  0
  1 12  1  0
  2 13  1  0
  3 14  1  0
  5 15  1  0
  5 16  1  0
  6 17  1  0
  8 18  1  0
  9 19  1  0
M  END
