
     RDKit          3D

 21 21  0  0  0  0  0  0  0  0999 V2000
    2.3968   -0.6057    0.0841 C   0  0  0  0  0  0  0  0  0  0  0  0
    1.1578    0.2355    0.1621 C   0  0  0  0  0  0  0  0  0  0  0  0
    1.4177    1.4354   -0.4845 O   0  0  0  0  0  0  0  0  0  0  0  0
   -0.0269   -0.3989   -0.5087 C   0  0  0  0  0  0  0  0  0  0  0  0
   -0.3616   -1.6315    0.0881 O   0  0  0  0  0  0  0  0  0  0  0  0
   -1.7281   -1.7304   -0.2496 C   0  0  0  0  0  0  0  0  0  0  0  0
   -2.2069   -0.5163    0.2376 O   0  0  0  0  0  0  0  0  0  0  0  0
   -1.2816    0.3768   -0.3318 C   0  0  0  0  0  0  0  0  0  0  0  0
   -1.1816    1.5452    0.6089 C   0  0  0  0  0  0  0  0  0  0  0  0
    2.9132   -0.5614   -0.8805 H   0  0  0  0  0  0  0  0  0  0  0  0
    3.1201   -0.1661    0.8342 H   0  0  0  0  0  0  0  0  0  0  0  0
    2.2402   -1.6531    0.4325 H   0  0  0  0  0  0  0  0  0  0  0  0
    0.9254    0.3759    1.2382 H   0  0  0  0  0  0  0  0  0  0  0  0
    1.9541    2.0029    0.1147 H   0  0  0  0  0  0  0  0  0  0  0  0
    0.1824   -0.6303   -1.5726 H   0  0  0  0  0  0  0  0  0  0  0  0
   -2.2367   -2.5328    0.2961 H   0  0  0  0  0  0  0  0  0  0  0  0
   -1.8805   -1.7363   -1.3363 H   0  0  0  0  0  0  0  0  0  0  0  0
   -1.6715    0.6928   -1.3210 H   0  0  0  0  0  0  0  0  0  0  0  0
   -0.5895    2.3815    0.2401 H   0  0  0  0  0  0  0  0  0  0  0  0
   -0.9045    1.1865    1.6202 H   0  0  0  0  0  0  0  0  0  0  0  0
   -2.2381    1.9302    0.7282 H   0  0  0  0  0  0  0  0  0  0  0  0
  1  2  1  0
  2  3  1  0
  2  4  1  0
  4  5  1  0
  5  6  1  0
  6  7  1  0
  7  8  1  0
  8  9  1  0
  8  4  1  0
  1 10  1  0
  1 11  1  0
  1 12  1  0
  2 13  1  0
  3 14  1  0
  4 15  1  0
  6 16  1  0
  6 17  1  0
  8 18  1  0
  9 19  1  0
  9 20  1  0
  9 21  1  0
M  END
