
     RDKit          3D

 23 23  0  0  0  0  0  0  0  0999 V2000
    2.6212    0.6763    0.5875 C   0  0  0  0  0  0  0  0  0  0  0  0
    1.6470   -0.4074    0.1143 C   0  0  0  0  0  0  0  0  0  0  0  0
    2.3250   -1.3190   -0.6620 O   0  0  0  0  0  0  0  0  0  0  0  0
    0.5340    0.2853   -0.6109 C   0  0  0  0  0  0  0  0  0  0  0  0
   -0.1767    1.2169    0.1433 O   0  0  0  0  0  0  0  0  0  0  0  0
   -1.2755    0.9306   -0.6688 C   0  0  0  0  0  0  0  0  0  0  0  0
   -2.6092    1.0316    0.0212 C   0  0  0  0  0  0  0  0  0  0  0  0
   -0.7285   -0.4709   -0.8081 C   0  0  0  0  0  0  0  0  0  0  0  0
   -1.1317   -1.4405    0.2564 C   0  0  0  0  0  0  0  0  0  0  0  0
    3.6506    0.4584    0.2469 H   0  0  0  0  0  0  0  0  0  0  0  0
    2.3452    1.6724    0.1961 H   0  0  0  0  0  0  0  0  0  0  0  0
    2.5939    0.7650    1.7102 H   0  0  0  0  0  0  0  0  0  0  0  0
    1.2673   -0.9211    1.0079 H   0  0  0  0  0  0  0  0  0  0  0  0
    2.7422   -1.9772   -0.0480 H   0  0  0  0  0  0  0  0  0  0  0  0
    0.8613    0.7621   -1.5598 H   0  0  0  0  0  0  0  0  0  0  0  0
   -1.1865    1.4653   -1.6136 H   0  0  0  0  0  0  0  0  0  0  0  0
   -3.3141    0.3508   -0.4690 H   0  0  0  0  0  0  0  0  0  0  0  0
   -2.9941    2.0618   -0.1297 H   0  0  0  0  0  0  0  0  0  0  0  0
   -2.5172    0.8756    1.1131 H   0  0  0  0  0  0  0  0  0  0  0  0
   -0.9147   -0.8898   -1.8159 H   0  0  0  0  0  0  0  0  0  0  0  0
   -0.4881   -2.3360    0.1604 H   0  0  0  0  0  0  0  0  0  0  0  0
   -2.1777   -1.7606    0.0648 H   0  0  0  0  0  0  0  0  0  0  0  0
   -1.0737   -1.0296    1.2740 H   0  0  0  0  0  0  0  0  0  0  0  0
  1  2  1  0
  2  3  1  0
  2  4  1  0
  4  5  1  0
  5  6  1  0
  6  7  1  0
  6  8  1  0
  8  9  1  0
  8  4  1  0
  1 10  1  0
  1 11  1  0
  1 12  1  0
  2 13  1  0
  3 14  1  0
  4 15  1  0
  6 16  1  0
  7 17  1  0
  7 18  1  0
  7 19  1  0
  8 20  1  0
  9 21  1  0
  9 22  1  0
  9 23  1  0
M  END
