
     RDKit          3D

 18 18  0  0  0  0  0  0  0  0999 V2000
    0.1281   -1.7664    0.0017 C   0  0  0  0  0  0  0  0  0  0  0  0
    0.0098   -0.2880   -0.2973 C   0  0  0  0  0  0  0  0  0  0  0  0
   -0.6338   -0.1685   -1.5276 O   0  0  0  0  0  0  0  0  0  0  0  0
    1.4219    0.3002   -0.4242 C   0  0  0  0  0  0  0  0  0  0  0  0
    2.1033    0.2031    0.7816 O   0  0  0  0  0  0  0  0  0  0  0  0
   -0.7440    0.4141    0.8020 C   0  0  0  0  0  0  0  0  0  0  0  0
   -2.0526    0.9069    0.5433 C   0  0  0  0  0  0  0  0  0  0  0  0
   -0.8755    1.8393    0.5099 O   0  0  0  0  0  0  0  0  0  0  0  0
    0.6073   -1.9750    0.9701 H   0  0  0  0  0  0  0  0  0  0  0  0
    0.7107   -2.2304   -0.8294 H   0  0  0  0  0  0  0  0  0  0  0  0
   -0.9101   -2.1804   -0.0574 H   0  0  0  0  0  0  0  0  0  0  0  0
   -0.2569    0.5637   -2.0770 H   0  0  0  0  0  0  0  0  0  0  0  0
    1.9964   -0.2735   -1.1812 H   0  0  0  0  0  0  0  0  0  0  0  0
    1.3775    1.3417   -0.7964 H   0  0  0  0  0  0  0  0  0  0  0  0
    2.7621    0.9371    0.9003 H   0  0  0  0  0  0  0  0  0  0  0  0
   -0.4265    0.1899    1.8310 H   0  0  0  0  0  0  0  0  0  0  0  0
   -2.4835    0.9052   -0.4678 H   0  0  0  0  0  0  0  0  0  0  0  0
   -2.7341    1.2811    1.3181 H   0  0  0  0  0  0  0  0  0  0  0  0
  1  2  1  0
  2  3  1  0
  2  4  1  0
  4  5  1  0
  2  6  1  0
  6  7  1  0
  7  8  1  0
  8  6  1  0
  1  9  1  0
  1 10  1  0
  1 11  1  0
  3 12  1  0
  4 13  1  0
  4 14  1  0
  5 15  1  0
  6 16  1  0
  7 17  1  0
  7 18  1  0
M  END
