
     RDKit          3D

 23 23  0  0  0  0  0  0  0  0999 V2000
    2.7354    0.4774   -0.3845 C   0  0  0  0  0  0  0  0  0  0  0  0
    1.7431   -0.6207   -0.2391 C   0  0  0  0  0  0  0  0  0  0  0  0
    2.0821   -1.3868    0.8802 O   0  0  0  0  0  0  0  0  0  0  0  0
    0.3378   -0.1640   -0.1720 C   0  0  0  0  0  0  0  0  0  0  0  0
   -0.0556    1.0890   -0.2310 C   0  0  0  0  0  0  0  0  0  0  0  0
   -1.4508    1.5320   -0.1638 C   0  0  0  0  0  0  0  0  0  0  0  0
   -2.4238    0.5406    0.3531 C   0  0  0  0  0  0  0  0  0  0  0  0
   -1.9417   -0.8260    0.5966 C   0  0  0  0  0  0  0  0  0  0  0  0
   -0.6628   -1.2293   -0.0283 C   0  0  0  0  0  0  0  0  0  0  0  0
    3.6986   -0.0004   -0.7294 H   0  0  0  0  0  0  0  0  0  0  0  0
    2.4937    1.2344   -1.1308 H   0  0  0  0  0  0  0  0  0  0  0  0
    3.0042    0.9301    0.6097 H   0  0  0  0  0  0  0  0  0  0  0  0
    1.8266   -1.2984   -1.1200 H   0  0  0  0  0  0  0  0  0  0  0  0
    3.0060   -1.7120    0.7266 H   0  0  0  0  0  0  0  0  0  0  0  0
    0.7134    1.8615   -0.3382 H   0  0  0  0  0  0  0  0  0  0  0  0
   -1.4673    2.4748    0.4589 H   0  0  0  0  0  0  0  0  0  0  0  0
   -1.7241    1.9085   -1.1942 H   0  0  0  0  0  0  0  0  0  0  0  0
   -2.8653    0.9447    1.3113 H   0  0  0  0  0  0  0  0  0  0  0  0
   -3.3088    0.5472   -0.3512 H   0  0  0  0  0  0  0  0  0  0  0  0
   -2.7291   -1.5520    0.2317 H   0  0  0  0  0  0  0  0  0  0  0  0
   -1.8833   -1.0456    1.7035 H   0  0  0  0  0  0  0  0  0  0  0  0
   -0.2537   -2.0862    0.5447 H   0  0  0  0  0  0  0  0  0  0  0  0
   -0.8747   -1.6189   -1.0632 H   0  0  0  0  0  0  0  0  0  0  0  0
  1  2  1  0
  2  3  1  0
  2  4  1  0
  4  5  2  0
  5  6  1  0
  6  7  1  0
  7  8  1  0
  8  9  1  0
  9  4  1  0
  1 10  1  0
  1 11  1  0
  1 12  1  0
  2 13  1  0
  3 14  1  0
  5 15  1  0
  6 16  1  0
  6 17  1  0
  7 18  1  0
  7 19  1  0
  8 20  1  0
  8 21  1  0
  9 22  1  0
  9 23  1  0
M  END
