
     RDKit          3D

 19 20  0  0  0  0  0  0  0  0999 V2000
   -1.7215    0.6188    0.7318 C   0  0  0  0  0  0  0  0  0  0  0  0
   -1.2918    0.1271   -0.6099 C   0  0  0  0  0  0  0  0  0  0  0  0
   -2.1900   -0.8559   -1.0225 O   0  0  0  0  0  0  0  0  0  0  0  0
    0.0814   -0.4923   -0.5934 C   0  0  0  0  0  0  0  0  0  0  0  0
    0.0737   -1.5800    0.3110 O   0  0  0  0  0  0  0  0  0  0  0  0
    1.4211   -1.2620    0.5643 C   0  0  0  0  0  0  0  0  0  0  0  0
    1.1062    0.1502    0.2453 C   0  0  0  0  0  0  0  0  0  0  0  0
    1.8784    1.2572    0.1240 C   0  0  0  0  0  0  0  0  0  0  0  0
    0.8492    1.0990    1.1853 O   0  0  0  0  0  0  0  0  0  0  0  0
   -1.3987    1.6838    0.8213 H   0  0  0  0  0  0  0  0  0  0  0  0
   -2.8443    0.5939    0.8371 H   0  0  0  0  0  0  0  0  0  0  0  0
   -1.2912   -0.0092    1.5159 H   0  0  0  0  0  0  0  0  0  0  0  0
   -1.3551    0.9377   -1.3854 H   0  0  0  0  0  0  0  0  0  0  0  0
   -2.1041   -1.6673   -0.4391 H   0  0  0  0  0  0  0  0  0  0  0  0
    0.3940   -0.8557   -1.5727 H   0  0  0  0  0  0  0  0  0  0  0  0
    2.0729   -1.7983   -0.1448 H   0  0  0  0  0  0  0  0  0  0  0  0
    1.7541   -1.4026    1.5889 H   0  0  0  0  0  0  0  0  0  0  0  0
    2.9163    1.3222    0.5678 H   0  0  0  0  0  0  0  0  0  0  0  0
    1.6495    2.1334   -0.4930 H   0  0  0  0  0  0  0  0  0  0  0  0
  1  2  1  0
  2  3  1  0
  2  4  1  0
  4  5  1  0
  5  6  1  0
  6  7  1  0
  7  8  1  0
  8  9  1  0
  7  4  1  0
  9  7  1  0
  1 10  1  0
  1 11  1  0
  1 12  1  0
  2 13  1  0
  3 14  1  0
  4 15  1  0
  6 16  1  0
  6 17  1  0
  8 18  1  0
  8 19  1  0
M  END
