
     RDKit          3D

 23 23  0  0  0  0  0  0  0  0999 V2000
   -2.8967   -0.1289    0.1837 C   0  0  0  0  0  0  0  0  0  0  0  0
   -1.4973    0.3762    0.5565 C   0  0  0  0  0  0  0  0  0  0  0  0
   -1.5666    1.6987    0.9077 O   0  0  0  0  0  0  0  0  0  0  0  0
   -0.5544    0.1347   -0.6171 C   0  0  0  0  0  0  0  0  0  0  0  0
   -0.5450   -1.2273   -0.9047 O   0  0  0  0  0  0  0  0  0  0  0  0
    0.8141    0.5487   -0.1907 C   0  0  0  0  0  0  0  0  0  0  0  0
    1.9104    0.3946   -1.2025 C   0  0  0  0  0  0  0  0  0  0  0  0
    2.7555   -0.2696   -0.1081 C   0  0  0  0  0  0  0  0  0  0  0  0
    1.4655   -0.5610    0.6216 C   0  0  0  0  0  0  0  0  0  0  0  0
   -3.6151    0.1838    0.9487 H   0  0  0  0  0  0  0  0  0  0  0  0
   -2.8846   -1.2383    0.1567 H   0  0  0  0  0  0  0  0  0  0  0  0
   -3.1134    0.3134   -0.8085 H   0  0  0  0  0  0  0  0  0  0  0  0
   -1.1655   -0.2103    1.4385 H   0  0  0  0  0  0  0  0  0  0  0  0
   -1.2958    1.8451    1.8614 H   0  0  0  0  0  0  0  0  0  0  0  0
   -0.9346    0.6682   -1.4994 H   0  0  0  0  0  0  0  0  0  0  0  0
   -0.8842   -1.7296   -0.1277 H   0  0  0  0  0  0  0  0  0  0  0  0
    0.8212    1.5358    0.2837 H   0  0  0  0  0  0  0  0  0  0  0  0
    1.6301   -0.3222   -1.9972 H   0  0  0  0  0  0  0  0  0  0  0  0
    2.3402    1.3064   -1.6213 H   0  0  0  0  0  0  0  0  0  0  0  0
    3.2957   -1.1629   -0.4717 H   0  0  0  0  0  0  0  0  0  0  0  0
    3.3754    0.4638    0.4629 H   0  0  0  0  0  0  0  0  0  0  0  0
    1.0768   -1.5669    0.4229 H   0  0  0  0  0  0  0  0  0  0  0  0
    1.4680   -0.3029    1.7047 H   0  0  0  0  0  0  0  0  0  0  0  0
  1  2  1  0
  2  3  1  0
  2  4  1  0
  4  5  1  0
  4  6  1  0
  6  7  1  0
  7  8  1  0
  8  9  1  0
  9  6  1  0
  1 10  1  0
  1 11  1  0
  1 12  1  0
  2 13  1  0
  3 14  1  0
  4 15  1  0
  5 16  1  0
  6 17  1  0
  7 18  1  0
  7 19  1  0
  8 20  1  0
  8 21  1  0
  9 22  1  0
  9 23  1  0
M  END
