
     RDKit          3D

 19 20  0  0  0  0  0  0  0  0999 V2000
   -2.3097   -0.1248    0.0412 C   0  0  0  0  0  0  0  0  0  0  0  0
   -1.0545    0.3582    0.7699 C   0  0  0  0  0  0  0  0  0  0  0  0
   -0.7186    1.5853    0.2172 O   0  0  0  0  0  0  0  0  0  0  0  0
    0.0833   -0.6122    0.5590 C   0  0  0  0  0  0  0  0  0  0  0  0
    1.3654   -0.2483    1.2242 C   0  0  0  0  0  0  0  0  0  0  0  0
    1.7869    0.0687    2.3212 O   0  0  0  0  0  0  0  0  0  0  0  0
    2.0420   -0.4319   -0.0954 C   0  0  0  0  0  0  0  0  0  0  0  0
    1.6587    0.5588   -1.1102 C   0  0  0  0  0  0  0  0  0  0  0  0
    0.7300   -0.5526   -0.7817 C   0  0  0  0  0  0  0  0  0  0  0  0
   -2.9526    0.7822   -0.0619 H   0  0  0  0  0  0  0  0  0  0  0  0
   -2.0223   -0.4379   -0.9727 H   0  0  0  0  0  0  0  0  0  0  0  0
   -2.8369   -0.9116    0.6053 H   0  0  0  0  0  0  0  0  0  0  0  0
   -1.2681    0.4525    1.8571 H   0  0  0  0  0  0  0  0  0  0  0  0
   -1.0562    1.6114   -0.7067 H   0  0  0  0  0  0  0  0  0  0  0  0
   -0.2348   -1.6659    0.8203 H   0  0  0  0  0  0  0  0  0  0  0  0
    2.8474   -1.1608   -0.2118 H   0  0  0  0  0  0  0  0  0  0  0  0
    2.0694    0.5195   -2.1487 H   0  0  0  0  0  0  0  0  0  0  0  0
    1.3365    1.5675   -0.7984 H   0  0  0  0  0  0  0  0  0  0  0  0
    0.5340   -1.3580   -1.5278 H   0  0  0  0  0  0  0  0  0  0  0  0
  1  2  1  0
  2  3  1  0
  2  4  1  0
  4  5  1  0
  5  6  2  0
  5  7  1  0
  7  8  1  0
  8  9  1  0
  9  4  1  0
  9  7  1  0
  1 10  1  0
  1 11  1  0
  1 12  1  0
  2 13  1  0
  3 14  1  0
  4 15  1  0
  7 16  1  0
  8 17  1  0
  8 18  1  0
  9 19  1  0
M  END
