
     RDKit          3D

 25 25  0  0  0  0  0  0  0  0999 V2000
   -2.7291    1.0797    0.2847 C   0  0  0  0  0  0  0  0  0  0  0  0
   -1.5455    0.2707   -0.1988 C   0  0  0  0  0  0  0  0  0  0  0  0
   -2.0095   -1.0169   -0.4541 O   0  0  0  0  0  0  0  0  0  0  0  0
   -0.4399    0.2025    0.8039 C   0  0  0  0  0  0  0  0  0  0  0  0
    0.6835   -0.6269    0.2139 C   0  0  0  0  0  0  0  0  0  0  0  0
    0.3277   -2.0452   -0.1472 C   0  0  0  0  0  0  0  0  0  0  0  0
    2.0463   -0.4875    0.8577 C   0  0  0  0  0  0  0  0  0  0  0  0
    1.7650    0.0131   -0.5627 C   0  0  0  0  0  0  0  0  0  0  0  0
    1.8899    1.5009   -0.6919 C   0  0  0  0  0  0  0  0  0  0  0  0
   -2.5539    2.1654    0.2153 H   0  0  0  0  0  0  0  0  0  0  0  0
   -2.9470    0.8503    1.3508 H   0  0  0  0  0  0  0  0  0  0  0  0
   -3.6259    0.8437   -0.3210 H   0  0  0  0  0  0  0  0  0  0  0  0
   -1.1809    0.7295   -1.1144 H   0  0  0  0  0  0  0  0  0  0  0  0
   -2.4640   -1.0623   -1.3303 H   0  0  0  0  0  0  0  0  0  0  0  0
   -0.7603   -0.3200    1.7340 H   0  0  0  0  0  0  0  0  0  0  0  0
   -0.1268    1.2154    1.0554 H   0  0  0  0  0  0  0  0  0  0  0  0
   -0.0889   -2.1387   -1.1675 H   0  0  0  0  0  0  0  0  0  0  0  0
    1.2007   -2.7119   -0.0646 H   0  0  0  0  0  0  0  0  0  0  0  0
   -0.4337   -2.4624    0.5728 H   0  0  0  0  0  0  0  0  0  0  0  0
    2.1168    0.2418    1.6730 H   0  0  0  0  0  0  0  0  0  0  0  0
    2.7135   -1.3698    0.9100 H   0  0  0  0  0  0  0  0  0  0  0  0
    2.1896   -0.5592   -1.3937 H   0  0  0  0  0  0  0  0  0  0  0  0
    2.9672    1.7135   -0.9526 H   0  0  0  0  0  0  0  0  0  0  0  0
    1.3030    1.9278   -1.5228 H   0  0  0  0  0  0  0  0  0  0  0  0
    1.7020    2.0465    0.2501 H   0  0  0  0  0  0  0  0  0  0  0  0
  1  2  1  0
  2  3  1  0
  2  4  1  0
  4  5  1  0
  5  6  1  0
  5  7  1  0
  7  8  1  0
  8  9  1  0
  8  5  1  0
  1 10  1  0
  1 11  1  0
  1 12  1  0
  2 13  1  0
  3 14  1  0
  4 15  1  0
  4 16  1  0
  6 17  1  0
  6 18  1  0
  6 19  1  0
  7 20  1  0
  7 21  1  0
  8 22  1  0
  9 23  1  0
  9 24  1  0
  9 25  1  0
M  END
