
     RDKit          3D

 23 23  0  0  0  0  0  0  0  0999 V2000
   -3.4611   -0.4596    0.8923 C   0  0  0  0  0  0  0  0  0  0  0  0
   -2.3782   -0.4175   -0.1444 C   0  0  0  0  0  0  0  0  0  0  0  0
   -2.5532    0.7219   -0.9122 O   0  0  0  0  0  0  0  0  0  0  0  0
   -1.0507   -0.3422    0.5662 C   0  0  0  0  0  0  0  0  0  0  0  0
    0.1001   -0.2964   -0.4485 C   0  0  0  0  0  0  0  0  0  0  0  0
    1.2624   -0.2293    0.2707 O   0  0  0  0  0  0  0  0  0  0  0  0
    2.4130   -0.1803   -0.4761 C   0  0  0  0  0  0  0  0  0  0  0  0
    3.7433   -0.4970    0.0165 C   0  0  0  0  0  0  0  0  0  0  0  0
    3.3646    0.9517   -0.0400 C   0  0  0  0  0  0  0  0  0  0  0  0
   -3.4061    0.4329    1.5729 H   0  0  0  0  0  0  0  0  0  0  0  0
   -4.4843   -0.4941    0.4480 H   0  0  0  0  0  0  0  0  0  0  0  0
   -3.3878   -1.3393    1.5638 H   0  0  0  0  0  0  0  0  0  0  0  0
   -2.4552   -1.3000   -0.7825 H   0  0  0  0  0  0  0  0  0  0  0  0
   -3.3062    0.6663   -1.5337 H   0  0  0  0  0  0  0  0  0  0  0  0
   -1.0413    0.5576    1.2190 H   0  0  0  0  0  0  0  0  0  0  0  0
   -0.9725   -1.2453    1.2042 H   0  0  0  0  0  0  0  0  0  0  0  0
    0.0112   -1.2073   -1.0521 H   0  0  0  0  0  0  0  0  0  0  0  0
   -0.0518    0.5795   -1.0968 H   0  0  0  0  0  0  0  0  0  0  0  0
    2.2310   -0.2026   -1.5815 H   0  0  0  0  0  0  0  0  0  0  0  0
    3.9488   -0.9744    0.9883 H   0  0  0  0  0  0  0  0  0  0  0  0
    4.5051   -0.7862   -0.7571 H   0  0  0  0  0  0  0  0  0  0  0  0
    3.7725    1.6037   -0.8426 H   0  0  0  0  0  0  0  0  0  0  0  0
    3.1963    1.4248    0.9257 H   0  0  0  0  0  0  0  0  0  0  0  0
  1  2  1  0
  2  3  1  0
  2  4  1  0
  4  5  1  0
  5  6  1  0
  6  7  1  0
  7  8  1  0
  8  9  1  0
  9  7  1  0
  1 10  1  0
  1 11  1  0
  1 12  1  0
  2 13  1  0
  3 14  1  0
  4 15  1  0
  4 16  1  0
  5 17  1  0
  5 18  1  0
  7 19  1  0
  8 20  1  0
  8 21  1  0
  9 22  1  0
  9 23  1  0
M  END
