
     RDKit          3D

 23 22  0  0  0  0  0  0  0  0999 V2000
    2.7881    0.7911   -0.8218 C   0  0  0  0  0  0  0  0  0  0  0  0
    1.4150    0.6484   -0.1520 C   0  0  0  0  0  0  0  0  0  0  0  0
    1.5978    0.5189    1.2275 O   0  0  0  0  0  0  0  0  0  0  0  0
    0.7821   -0.5797   -0.7508 C   0  0  0  0  0  0  0  0  0  0  0  0
    1.6442   -1.6511   -0.4895 O   0  0  0  0  0  0  0  0  0  0  0  0
   -0.5566   -0.9006   -0.1775 C   0  0  0  0  0  0  0  0  0  0  0  0
   -1.5303    0.2520   -0.4072 C   0  0  0  0  0  0  0  0  0  0  0  0
   -2.8920   -0.1057    0.1904 C   0  0  0  0  0  0  0  0  0  0  0  0
   -3.7159    0.9995   -0.0644 O   0  0  0  0  0  0  0  0  0  0  0  0
    2.6121    1.3529   -1.7469 H   0  0  0  0  0  0  0  0  0  0  0  0
    3.5179    1.2467   -0.1353 H   0  0  0  0  0  0  0  0  0  0  0  0
    3.1495   -0.2185   -1.1228 H   0  0  0  0  0  0  0  0  0  0  0  0
    0.8380    1.5743   -0.3655 H   0  0  0  0  0  0  0  0  0  0  0  0
    2.4235    0.0139    1.4382 H   0  0  0  0  0  0  0  0  0  0  0  0
    0.6852   -0.4059   -1.8342 H   0  0  0  0  0  0  0  0  0  0  0  0
    1.3404   -2.1024    0.3205 H   0  0  0  0  0  0  0  0  0  0  0  0
   -0.5479   -1.1843    0.8755 H   0  0  0  0  0  0  0  0  0  0  0  0
   -0.9711   -1.7592   -0.7458 H   0  0  0  0  0  0  0  0  0  0  0  0
   -1.1662    1.1990    0.0287 H   0  0  0  0  0  0  0  0  0  0  0  0
   -1.7067    0.3976   -1.4931 H   0  0  0  0  0  0  0  0  0  0  0  0
   -2.7441   -0.2996    1.2519 H   0  0  0  0  0  0  0  0  0  0  0  0
   -3.3322   -0.9640   -0.3522 H   0  0  0  0  0  0  0  0  0  0  0  0
   -3.6309    1.1764   -1.0355 H   0  0  0  0  0  0  0  0  0  0  0  0
  1  2  1  0
  2  3  1  0
  2  4  1  0
  4  5  1  0
  4  6  1  0
  6  7  1  0
  7  8  1  0
  8  9  1  0
  1 10  1  0
  1 11  1  0
  1 12  1  0
  2 13  1  0
  3 14  1  0
  4 15  1  0
  5 16  1  0
  6 17  1  0
  6 18  1  0
  7 19  1  0
  7 20  1  0
  8 21  1  0
  8 22  1  0
  9 23  1  0
M  END
