
     RDKit          3D

 23 23  0  0  0  0  0  0  0  0999 V2000
   -1.9761   -0.9911   -0.3063 C   0  0  0  0  0  0  0  0  0  0  0  0
   -0.6417   -0.5244   -0.8569 C   0  0  0  0  0  0  0  0  0  0  0  0
   -0.8583    0.3925   -1.8984 O   0  0  0  0  0  0  0  0  0  0  0  0
    0.0954    0.1033    0.2943 C   0  0  0  0  0  0  0  0  0  0  0  0
   -0.5983    1.2863    0.9293 C   0  0  0  0  0  0  0  0  0  0  0  0
   -0.7573    2.2595   -0.0457 O   0  0  0  0  0  0  0  0  0  0  0  0
    0.7624   -0.9209    1.2093 C   0  0  0  0  0  0  0  0  0  0  0  0
    1.5641    0.0306    0.4170 C   0  0  0  0  0  0  0  0  0  0  0  0
    2.3636   -0.3948   -0.7815 C   0  0  0  0  0  0  0  0  0  0  0  0
   -1.9096   -1.1552    0.8087 H   0  0  0  0  0  0  0  0  0  0  0  0
   -2.2420   -1.9718   -0.7392 H   0  0  0  0  0  0  0  0  0  0  0  0
   -2.7615   -0.2243   -0.4452 H   0  0  0  0  0  0  0  0  0  0  0  0
   -0.1158   -1.4056   -1.2302 H   0  0  0  0  0  0  0  0  0  0  0  0
   -1.6829    0.8815   -1.6939 H   0  0  0  0  0  0  0  0  0  0  0  0
   -1.6057    0.9814    1.2713 H   0  0  0  0  0  0  0  0  0  0  0  0
   -0.0408    1.7032    1.7798 H   0  0  0  0  0  0  0  0  0  0  0  0
   -0.7312    3.1729    0.2900 H   0  0  0  0  0  0  0  0  0  0  0  0
    0.6827   -1.9902    0.9663 H   0  0  0  0  0  0  0  0  0  0  0  0
    0.6290   -0.7269    2.3048 H   0  0  0  0  0  0  0  0  0  0  0  0
    2.0552    0.8413    1.0020 H   0  0  0  0  0  0  0  0  0  0  0  0
    3.4315   -0.5776   -0.4798 H   0  0  0  0  0  0  0  0  0  0  0  0
    2.4021    0.4755   -1.4725 H   0  0  0  0  0  0  0  0  0  0  0  0
    1.9348   -1.2451   -1.3232 H   0  0  0  0  0  0  0  0  0  0  0  0
  1  2  1  0
  2  3  1  0
  2  4  1  0
  4  5  1  0
  5  6  1  0
  4  7  1  0
  7  8  1  0
  8  9  1  0
  8  4  1  0
  1 10  1  0
  1 11  1  0
  1 12  1  0
  2 13  1  0
  3 14  1  0
  5 15  1  0
  5 16  1  0
  6 17  1  0
  7 18  1  0
  7 19  1  0
  8 20  1  0
  9 21  1  0
  9 22  1  0
  9 23  1  0
M  END
