
     RDKit          3D

 23 22  0  0  0  0  0  0  0  0999 V2000
   -2.8057    0.2364    0.8645 C   0  0  0  0  0  0  0  0  0  0  0  0
   -1.5695    0.3718   -0.0412 C   0  0  0  0  0  0  0  0  0  0  0  0
   -2.0649    0.5476   -1.3320 O   0  0  0  0  0  0  0  0  0  0  0  0
   -0.7312   -0.8686    0.0591 C   0  0  0  0  0  0  0  0  0  0  0  0
    0.4984   -0.8784   -0.7734 C   0  0  0  0  0  0  0  0  0  0  0  0
    1.4977    0.1947   -0.4997 C   0  0  0  0  0  0  0  0  0  0  0  0
    1.0224    1.4684   -0.6801 O   0  0  0  0  0  0  0  0  0  0  0  0
    2.1969    0.0137    0.8331 C   0  0  0  0  0  0  0  0  0  0  0  0
    3.2615    0.8798    0.9006 O   0  0  0  0  0  0  0  0  0  0  0  0
   -3.4082    1.1661    0.8315 H   0  0  0  0  0  0  0  0  0  0  0  0
   -3.4166   -0.6290    0.5592 H   0  0  0  0  0  0  0  0  0  0  0  0
   -2.4389    0.0236    1.8943 H   0  0  0  0  0  0  0  0  0  0  0  0
   -1.0443    1.2943    0.2987 H   0  0  0  0  0  0  0  0  0  0  0  0
   -2.4985   -0.3264   -1.5853 H   0  0  0  0  0  0  0  0  0  0  0  0
   -0.5455   -1.0997    1.1324 H   0  0  0  0  0  0  0  0  0  0  0  0
   -1.3814   -1.7147   -0.3114 H   0  0  0  0  0  0  0  0  0  0  0  0
    0.2098   -0.7618   -1.8616 H   0  0  0  0  0  0  0  0  0  0  0  0
    1.0401   -1.8654   -0.7262 H   0  0  0  0  0  0  0  0  0  0  0  0
    2.3138    0.0569   -1.2711 H   0  0  0  0  0  0  0  0  0  0  0  0
    1.7235    2.0692   -1.0826 H   0  0  0  0  0  0  0  0  0  0  0  0
    2.6091   -1.0260    0.8305 H   0  0  0  0  0  0  0  0  0  0  0  0
    1.5322    0.1879    1.6867 H   0  0  0  0  0  0  0  0  0  0  0  0
    3.9991    0.6594    0.2739 H   0  0  0  0  0  0  0  0  0  0  0  0
  1  2  1  0
  2  3  1  0
  2  4  1  0
  4  5  1  0
  5  6  1  0
  6  7  1  0
  6  8  1  0
  8  9  1  0
  1 10  1  0
  1 11  1  0
  1 12  1  0
  2 13  1  0
  3 14  1  0
  4 15  1  0
  4 16  1  0
  5 17  1  0
  5 18  1  0
  6 19  1  0
  7 20  1  0
  8 21  1  0
  8 22  1  0
  9 23  1  0
M  END
