
     RDKit          3D

 16 16  0  0  0  0  0  0  0  0999 V2000
   -1.3280    1.0431    0.3476 C   0  0  0  0  0  0  0  0  0  0  0  0
   -0.3775   -0.0673   -0.0313 C   0  0  0  0  0  0  0  0  0  0  0  0
   -0.2663   -0.0795   -1.4027 O   0  0  0  0  0  0  0  0  0  0  0  0
   -0.9802   -1.3457    0.4129 C   0  0  0  0  0  0  0  0  0  0  0  0
   -1.1623   -1.5313    1.5875 O   0  0  0  0  0  0  0  0  0  0  0  0
    0.9566    0.0692    0.6652 C   0  0  0  0  0  0  0  0  0  0  0  0
    2.1497    0.4015   -0.0710 C   0  0  0  0  0  0  0  0  0  0  0  0
    1.8253   -1.0072    0.3348 O   0  0  0  0  0  0  0  0  0  0  0  0
   -0.8948    2.0493    0.1889 H   0  0  0  0  0  0  0  0  0  0  0  0
   -2.2300    0.9170   -0.3119 H   0  0  0  0  0  0  0  0  0  0  0  0
   -1.6431    0.8929    1.3952 H   0  0  0  0  0  0  0  0  0  0  0  0
   -0.8294   -0.8073   -1.8060 H   0  0  0  0  0  0  0  0  0  0  0  0
   -1.2484   -2.0931   -0.3154 H   0  0  0  0  0  0  0  0  0  0  0  0
    0.8854    0.3574    1.7295 H   0  0  0  0  0  0  0  0  0  0  0  0
    3.0681    0.6683    0.4589 H   0  0  0  0  0  0  0  0  0  0  0  0
    2.0748    0.5327   -1.1707 H   0  0  0  0  0  0  0  0  0  0  0  0
  1  2  1  0
  2  3  1  0
  2  4  1  0
  4  5  2  0
  2  6  1  0
  6  7  1  0
  7  8  1  0
  8  6  1  0
  1  9  1  0
  1 10  1  0
  1 11  1  0
  3 12  1  0
  4 13  1  0
  6 14  1  0
  7 15  1  0
  7 16  1  0
M  END
