
     RDKit          3D

 20 19  0  0  0  0  0  0  0  0999 V2000
   -2.0352    1.3404    0.4256 C   0  0  0  0  0  0  0  0  0  0  0  0
   -0.9803    0.2826    0.5926 C   0  0  0  0  0  0  0  0  0  0  0  0
   -1.6425   -0.9074    0.8936 O   0  0  0  0  0  0  0  0  0  0  0  0
   -0.1742    0.0640   -0.6603 C   0  0  0  0  0  0  0  0  0  0  0  0
    0.8823   -1.0031   -0.4812 C   0  0  0  0  0  0  0  0  0  0  0  0
    1.5690   -1.1302   -1.6893 O   0  0  0  0  0  0  0  0  0  0  0  0
    1.8407   -0.6941    0.6426 C   0  0  0  0  0  0  0  0  0  0  0  0
    2.5183    0.4985    0.4046 O   0  0  0  0  0  0  0  0  0  0  0  0
   -1.6340    2.3691    0.4669 H   0  0  0  0  0  0  0  0  0  0  0  0
   -2.7528    1.2202    1.2677 H   0  0  0  0  0  0  0  0  0  0  0  0
   -2.6102    1.2150   -0.5026 H   0  0  0  0  0  0  0  0  0  0  0  0
   -0.3262    0.5499    1.4342 H   0  0  0  0  0  0  0  0  0  0  0  0
   -2.2886   -1.0526    0.1456 H   0  0  0  0  0  0  0  0  0  0  0  0
    0.2476    1.0127   -1.0670 H   0  0  0  0  0  0  0  0  0  0  0  0
   -0.8517   -0.3167   -1.4705 H   0  0  0  0  0  0  0  0  0  0  0  0
    0.3642   -1.9531   -0.2655 H   0  0  0  0  0  0  0  0  0  0  0  0
    1.8667   -0.2521   -2.0415 H   0  0  0  0  0  0  0  0  0  0  0  0
    1.2852   -0.6729    1.5766 H   0  0  0  0  0  0  0  0  0  0  0  0
    2.5499   -1.5592    0.7130 H   0  0  0  0  0  0  0  0  0  0  0  0
    2.1718    0.9888   -0.3852 H   0  0  0  0  0  0  0  0  0  0  0  0
  1  2  1  0
  2  3  1  0
  2  4  1  0
  4  5  1  0
  5  6  1  0
  5  7  1  0
  7  8  1  0
  1  9  1  0
  1 10  1  0
  1 11  1  0
  2 12  1  0
  3 13  1  0
  4 14  1  0
  4 15  1  0
  5 16  1  0
  6 17  1  0
  7 18  1  0
  7 19  1  0
  8 20  1  0
M  END
