
     RDKit          3D

 16 15  0  0  0  0  0  0  0  0999 V2000
   -1.4368    1.0506    0.4541 C   0  0  0  0  0  0  0  0  0  0  0  0
   -0.8478   -0.3205    0.5238 C   0  0  0  0  0  0  0  0  0  0  0  0
   -1.8847   -1.2407    0.3646 O   0  0  0  0  0  0  0  0  0  0  0  0
    0.1663   -0.6009   -0.5572 C   0  0  0  0  0  0  0  0  0  0  0  0
    1.3165    0.2971   -0.5428 C   0  0  0  0  0  0  0  0  0  0  0  0
    1.2098    1.4564   -1.0010 O   0  0  0  0  0  0  0  0  0  0  0  0
    2.5907   -0.1297   -0.0038 C   0  0  0  0  0  0  0  0  0  0  0  0
    2.7754   -1.2900    0.4786 O   0  0  0  0  0  0  0  0  0  0  0  0
   -0.8118    1.7964    0.9744 H   0  0  0  0  0  0  0  0  0  0  0  0
   -1.6099    1.3329   -0.5996 H   0  0  0  0  0  0  0  0  0  0  0  0
   -2.4351    1.0158    0.9540 H   0  0  0  0  0  0  0  0  0  0  0  0
   -0.3630   -0.5078    1.5030 H   0  0  0  0  0  0  0  0  0  0  0  0
   -2.1987   -1.1509   -0.5702 H   0  0  0  0  0  0  0  0  0  0  0  0
   -0.3755   -0.5571   -1.5467 H   0  0  0  0  0  0  0  0  0  0  0  0
    0.4502   -1.6801   -0.4438 H   0  0  0  0  0  0  0  0  0  0  0  0
    3.4543    0.5286    0.0126 H   0  0  0  0  0  0  0  0  0  0  0  0
  1  2  1  0
  2  3  1  0
  2  4  1  0
  4  5  1  0
  5  6  2  0
  5  7  1  0
  7  8  2  0
  1  9  1  0
  1 10  1  0
  1 11  1  0
  2 12  1  0
  3 13  1  0
  4 14  1  0
  4 15  1  0
  7 16  1  0
M  END
