
     RDKit          3D

 21 21  0  0  0  0  0  0  0  0999 V2000
    1.9148   -0.2177    0.9259 C   0  0  0  0  0  0  0  0  0  0  0  0
    1.4618    0.1746   -0.4428 C   0  0  0  0  0  0  0  0  0  0  0  0
    2.3842    1.1311   -0.9419 O   0  0  0  0  0  0  0  0  0  0  0  0
    0.1450    0.8877   -0.4119 C   0  0  0  0  0  0  0  0  0  0  0  0
   -1.0185    0.1399    0.1255 C   0  0  0  0  0  0  0  0  0  0  0  0
   -2.3000    0.9623    0.1288 C   0  0  0  0  0  0  0  0  0  0  0  0
   -3.2797    0.3823    0.5605 O   0  0  0  0  0  0  0  0  0  0  0  0
   -1.2333   -1.2248   -0.6167 C   0  0  0  0  0  0  0  0  0  0  0  0
   -1.0136   -1.1269    0.8407 C   0  0  0  0  0  0  0  0  0  0  0  0
    2.9098    0.2951    1.1137 H   0  0  0  0  0  0  0  0  0  0  0  0
    2.1354   -1.3248    0.9816 H   0  0  0  0  0  0  0  0  0  0  0  0
    1.2796    0.1302    1.7554 H   0  0  0  0  0  0  0  0  0  0  0  0
    1.4258   -0.6995   -1.1482 H   0  0  0  0  0  0  0  0  0  0  0  0
    1.9778    1.4940   -1.7686 H   0  0  0  0  0  0  0  0  0  0  0  0
   -0.0592    1.1659   -1.4953 H   0  0  0  0  0  0  0  0  0  0  0  0
    0.3093    1.8579    0.1484 H   0  0  0  0  0  0  0  0  0  0  0  0
   -2.3150    1.9649   -0.2238 H   0  0  0  0  0  0  0  0  0  0  0  0
   -0.3763   -1.6146   -1.1984 H   0  0  0  0  0  0  0  0  0  0  0  0
   -2.2258   -1.3872   -1.0548 H   0  0  0  0  0  0  0  0  0  0  0  0
   -0.1698   -1.6530    1.2733 H   0  0  0  0  0  0  0  0  0  0  0  0
   -1.9522   -1.3374    1.4483 H   0  0  0  0  0  0  0  0  0  0  0  0
  1  2  1  0
  2  3  1  0
  2  4  1  0
  4  5  1  0
  5  6  1  0
  6  7  2  0
  5  8  1  0
  8  9  1  0
  9  5  1  0
  1 10  1  0
  1 11  1  0
  1 12  1  0
  2 13  1  0
  3 14  1  0
  4 15  1  0
  4 16  1  0
  6 17  1  0
  8 18  1  0
  8 19  1  0
  9 20  1  0
  9 21  1  0
M  END
