
     RDKit          3D

 25 25  0  0  0  0  0  0  0  0999 V2000
   -2.9230    0.5035   -0.5162 C   0  0  0  0  0  0  0  0  0  0  0  0
   -1.9620   -0.5344    0.0732 C   0  0  0  0  0  0  0  0  0  0  0  0
   -2.4582   -0.8354    1.3618 O   0  0  0  0  0  0  0  0  0  0  0  0
   -0.6476    0.1518    0.2654 C   0  0  0  0  0  0  0  0  0  0  0  0
    0.4478   -0.7201    0.8465 C   0  0  0  0  0  0  0  0  0  0  0  0
    1.4180    0.0653   -0.0249 C   0  0  0  0  0  0  0  0  0  0  0  0
    2.5580   -0.7424   -0.5722 C   0  0  0  0  0  0  0  0  0  0  0  0
    1.8525    1.3761    0.5656 C   0  0  0  0  0  0  0  0  0  0  0  0
    0.2318    0.2184   -0.9882 C   0  0  0  0  0  0  0  0  0  0  0  0
   -2.7384    1.4937   -0.0810 H   0  0  0  0  0  0  0  0  0  0  0  0
   -2.6482    0.5635   -1.5993 H   0  0  0  0  0  0  0  0  0  0  0  0
   -3.9458    0.1330   -0.4193 H   0  0  0  0  0  0  0  0  0  0  0  0
   -1.9175   -1.4246   -0.5545 H   0  0  0  0  0  0  0  0  0  0  0  0
   -2.2141   -1.7471    1.6237 H   0  0  0  0  0  0  0  0  0  0  0  0
   -0.7809    1.1271    0.7612 H   0  0  0  0  0  0  0  0  0  0  0  0
    0.3455   -1.7495    0.4428 H   0  0  0  0  0  0  0  0  0  0  0  0
    0.6024   -0.6396    1.9214 H   0  0  0  0  0  0  0  0  0  0  0  0
    3.1612   -0.0707   -1.2127 H   0  0  0  0  0  0  0  0  0  0  0  0
    2.1537   -1.5878   -1.1960 H   0  0  0  0  0  0  0  0  0  0  0  0
    3.1877   -1.1068    0.2441 H   0  0  0  0  0  0  0  0  0  0  0  0
    2.7532    1.1977    1.1783 H   0  0  0  0  0  0  0  0  0  0  0  0
    1.0877    1.8155    1.2419 H   0  0  0  0  0  0  0  0  0  0  0  0
    2.1166    2.0473   -0.2721 H   0  0  0  0  0  0  0  0  0  0  0  0
    0.2220    1.1687   -1.5145 H   0  0  0  0  0  0  0  0  0  0  0  0
    0.0973   -0.7031   -1.5754 H   0  0  0  0  0  0  0  0  0  0  0  0
  1  2  1  0
  2  3  1  0
  2  4  1  0
  4  5  1  0
  5  6  1  0
  6  7  1  0
  6  8  1  0
  6  9  1  0
  9  4  1  0
  1 10  1  0
  1 11  1  0
  1 12  1  0
  2 13  1  0
  3 14  1  0
  4 15  1  0
  5 16  1  0
  5 17  1  0
  7 18  1  0
  7 19  1  0
  7 20  1  0
  8 21  1  0
  8 22  1  0
  8 23  1  0
  9 24  1  0
  9 25  1  0
M  END
