
     RDKit          3D

 19 20  0  0  0  0  0  0  0  0999 V2000
   -1.6172    1.0788    0.2641 C   0  0  0  0  0  0  0  0  0  0  0  0
   -0.7924    0.0964   -0.5329 C   0  0  0  0  0  0  0  0  0  0  0  0
   -1.6608   -0.8323   -1.0952 O   0  0  0  0  0  0  0  0  0  0  0  0
    0.2339   -0.5990    0.2922 C   0  0  0  0  0  0  0  0  0  0  0  0
    1.5771    0.0217    0.5377 C   0  0  0  0  0  0  0  0  0  0  0  0
    1.7973    1.4353    0.6244 C   0  0  0  0  0  0  0  0  0  0  0  0
    1.9753    0.7729   -0.6806 O   0  0  0  0  0  0  0  0  0  0  0  0
    0.1905   -2.1016    0.2707 C   0  0  0  0  0  0  0  0  0  0  0  0
   -0.3003   -1.3595    1.3625 O   0  0  0  0  0  0  0  0  0  0  0  0
   -1.1399    1.3109    1.2379 H   0  0  0  0  0  0  0  0  0  0  0  0
   -2.6019    0.6122    0.5219 H   0  0  0  0  0  0  0  0  0  0  0  0
   -1.7880    1.9921   -0.3056 H   0  0  0  0  0  0  0  0  0  0  0  0
   -0.2553    0.6838   -1.3154 H   0  0  0  0  0  0  0  0  0  0  0  0
   -2.3247   -1.1113   -0.4250 H   0  0  0  0  0  0  0  0  0  0  0  0
    2.3865   -0.6740    0.8209 H   0  0  0  0  0  0  0  0  0  0  0  0
    0.9921    2.1811    0.5630 H   0  0  0  0  0  0  0  0  0  0  0  0
    2.7791    1.7980    0.9815 H   0  0  0  0  0  0  0  0  0  0  0  0
    1.1167   -2.6833    0.4621 H   0  0  0  0  0  0  0  0  0  0  0  0
   -0.5679   -2.6223   -0.3445 H   0  0  0  0  0  0  0  0  0  0  0  0
  1  2  1  0
  2  3  1  0
  2  4  1  0
  4  5  1  0
  5  6  1  0
  6  7  1  0
  4  8  1  0
  8  9  1  0
  9  4  1  0
  7  5  1  0
  1 10  1  0
  1 11  1  0
  1 12  1  0
  2 13  1  0
  3 14  1  0
  5 15  1  0
  6 16  1  0
  6 17  1  0
  8 18  1  0
  8 19  1  0
M  END
