
     RDKit          3D

 23 22  0  0  0  0  0  0  0  0999 V2000
   -2.3509    0.2734   -0.9302 C   0  0  0  0  0  0  0  0  0  0  0  0
   -1.6869   -0.0994    0.3777 C   0  0  0  0  0  0  0  0  0  0  0  0
   -1.7578   -1.4771    0.6035 O   0  0  0  0  0  0  0  0  0  0  0  0
   -0.2441    0.3996    0.3863 C   0  0  0  0  0  0  0  0  0  0  0  0
    0.3814    0.0077    1.7089 C   0  0  0  0  0  0  0  0  0  0  0  0
    0.5434   -0.1491   -0.7403 C   0  0  0  0  0  0  0  0  0  0  0  0
    1.9590    0.3005   -0.8412 C   0  0  0  0  0  0  0  0  0  0  0  0
    2.8743   -0.0565    0.2389 C   0  0  0  0  0  0  0  0  0  0  0  0
    3.9460    0.5017    0.3763 O   0  0  0  0  0  0  0  0  0  0  0  0
   -2.1521    1.3438   -1.1090 H   0  0  0  0  0  0  0  0  0  0  0  0
   -3.4405    0.0512   -0.7901 H   0  0  0  0  0  0  0  0  0  0  0  0
   -2.0138   -0.3417   -1.7835 H   0  0  0  0  0  0  0  0  0  0  0  0
   -2.2508    0.4293    1.1850 H   0  0  0  0  0  0  0  0  0  0  0  0
   -2.4423   -1.6553    1.2929 H   0  0  0  0  0  0  0  0  0  0  0  0
   -0.2747    1.5064    0.2868 H   0  0  0  0  0  0  0  0  0  0  0  0
   -0.4548    0.1832    2.4778 H   0  0  0  0  0  0  0  0  0  0  0  0
    0.5514   -1.0811    1.7751 H   0  0  0  0  0  0  0  0  0  0  0  0
    1.2170    0.6530    1.9777 H   0  0  0  0  0  0  0  0  0  0  0  0
    0.5488   -1.2861   -0.6534 H   0  0  0  0  0  0  0  0  0  0  0  0
    0.0086   -0.0096   -1.7262 H   0  0  0  0  0  0  0  0  0  0  0  0
    2.3807   -0.0935   -1.8113 H   0  0  0  0  0  0  0  0  0  0  0  0
    1.9746    1.4391   -0.8876 H   0  0  0  0  0  0  0  0  0  0  0  0
    2.6836   -0.8395    0.9936 H   0  0  0  0  0  0  0  0  0  0  0  0
  1  2  1  0
  2  3  1  0
  2  4  1  0
  4  5  1  0
  4  6  1  0
  6  7  1  0
  7  8  1  0
  8  9  2  0
  1 10  1  0
  1 11  1  0
  1 12  1  0
  2 13  1  0
  3 14  1  0
  4 15  1  0
  5 16  1  0
  5 17  1  0
  5 18  1  0
  6 19  1  0
  6 20  1  0
  7 21  1  0
  7 22  1  0
  8 23  1  0
M  END
