
     RDKit          3D

 25 25  0  0  0  0  0  0  0  0999 V2000
    2.6876    0.1274   -0.2079 C   0  0  0  0  0  0  0  0  0  0  0  0
    1.3042    0.7270   -0.2089 C   0  0  0  0  0  0  0  0  0  0  0  0
    1.2092    1.6966   -1.1938 O   0  0  0  0  0  0  0  0  0  0  0  0
    0.2967   -0.3639   -0.3512 C   0  0  0  0  0  0  0  0  0  0  0  0
    0.4046   -1.3481    0.7960 C   0  0  0  0  0  0  0  0  0  0  0  0
   -0.7478   -0.5813    1.4577 C   0  0  0  0  0  0  0  0  0  0  0  0
   -1.0971   -0.0685    0.0993 C   0  0  0  0  0  0  0  0  0  0  0  0
   -1.5530    1.3508    0.0059 C   0  0  0  0  0  0  0  0  0  0  0  0
   -2.0944   -0.9852   -0.6053 C   0  0  0  0  0  0  0  0  0  0  0  0
    3.3101    0.5121    0.6271 H   0  0  0  0  0  0  0  0  0  0  0  0
    2.6170   -0.9586   -0.1589 H   0  0  0  0  0  0  0  0  0  0  0  0
    3.1673    0.3809   -1.1901 H   0  0  0  0  0  0  0  0  0  0  0  0
    1.1576    1.2336    0.7677 H   0  0  0  0  0  0  0  0  0  0  0  0
    1.6482    2.5111   -0.8390 H   0  0  0  0  0  0  0  0  0  0  0  0
    0.3327   -0.9345   -1.3107 H   0  0  0  0  0  0  0  0  0  0  0  0
    0.0822   -2.3792    0.5679 H   0  0  0  0  0  0  0  0  0  0  0  0
    1.3243   -1.3104    1.3750 H   0  0  0  0  0  0  0  0  0  0  0  0
   -0.3238    0.1676    2.1574 H   0  0  0  0  0  0  0  0  0  0  0  0
   -1.5369   -1.2322    1.8478 H   0  0  0  0  0  0  0  0  0  0  0  0
   -2.6782    1.3359    0.1089 H   0  0  0  0  0  0  0  0  0  0  0  0
   -1.3781    1.7003   -1.0383 H   0  0  0  0  0  0  0  0  0  0  0  0
   -1.1604    2.0177    0.7717 H   0  0  0  0  0  0  0  0  0  0  0  0
   -3.0828   -0.5452   -0.4614 H   0  0  0  0  0  0  0  0  0  0  0  0
   -2.0168   -1.9924   -0.1509 H   0  0  0  0  0  0  0  0  0  0  0  0
   -1.8725   -1.0616   -1.6902 H   0  0  0  0  0  0  0  0  0  0  0  0
  1  2  1  0
  2  3  1  0
  2  4  1  0
  4  5  1  0
  5  6  1  0
  6  7  1  0
  7  8  1  0
  7  9  1  0
  7  4  1  0
  1 10  1  0
  1 11  1  0
  1 12  1  0
  2 13  1  0
  3 14  1  0
  4 15  1  0
  5 16  1  0
  5 17  1  0
  6 18  1  0
  6 19  1  0
  8 20  1  0
  8 21  1  0
  8 22  1  0
  9 23  1  0
  9 24  1  0
  9 25  1  0
M  END
