
     RDKit          3D

 21 21  0  0  0  0  0  0  0  0999 V2000
   -2.3074   -0.4649   -0.9544 C   0  0  0  0  0  0  0  0  0  0  0  0
   -1.2877    0.5682   -0.5948 C   0  0  0  0  0  0  0  0  0  0  0  0
   -1.6619    1.1666    0.5867 O   0  0  0  0  0  0  0  0  0  0  0  0
    0.1175    0.0275   -0.5446 C   0  0  0  0  0  0  0  0  0  0  0  0
    0.3068   -1.0627    0.4468 C   0  0  0  0  0  0  0  0  0  0  0  0
    1.4646   -0.9768    1.1889 O   0  0  0  0  0  0  0  0  0  0  0  0
    2.5639   -0.5216    0.5508 C   0  0  0  0  0  0  0  0  0  0  0  0
    2.3866    0.4902   -0.3508 O   0  0  0  0  0  0  0  0  0  0  0  0
    1.1376    1.1037   -0.2821 C   0  0  0  0  0  0  0  0  0  0  0  0
   -1.9440   -1.1935   -1.7247 H   0  0  0  0  0  0  0  0  0  0  0  0
   -3.1662    0.0601   -1.4312 H   0  0  0  0  0  0  0  0  0  0  0  0
   -2.7334   -0.9894   -0.0680 H   0  0  0  0  0  0  0  0  0  0  0  0
   -1.3207    1.3550   -1.3851 H   0  0  0  0  0  0  0  0  0  0  0  0
   -2.1427    2.0079    0.4829 H   0  0  0  0  0  0  0  0  0  0  0  0
    0.3574   -0.3884   -1.5614 H   0  0  0  0  0  0  0  0  0  0  0  0
    0.1914   -2.0547   -0.0517 H   0  0  0  0  0  0  0  0  0  0  0  0
   -0.5373   -1.0302    1.1987 H   0  0  0  0  0  0  0  0  0  0  0  0
    3.1420   -1.3397    0.0295 H   0  0  0  0  0  0  0  0  0  0  0  0
    3.2870   -0.1395    1.3313 H   0  0  0  0  0  0  0  0  0  0  0  0
    1.0098    1.4738    0.7527 H   0  0  0  0  0  0  0  0  0  0  0  0
    1.1366    1.9081   -1.0372 H   0  0  0  0  0  0  0  0  0  0  0  0
  1  2  1  0
  2  3  1  0
  2  4  1  0
  4  5  1  0
  5  6  1  0
  6  7  1  0
  7  8  1  0
  8  9  1  0
  9  4  1  0
  1 10  1  0
  1 11  1  0
  1 12  1  0
  2 13  1  0
  3 14  1  0
  4 15  1  0
  5 16  1  0
  5 17  1  0
  7 18  1  0
  7 19  1  0
  9 20  1  0
  9 21  1  0
M  END
