
     RDKit          3D

 21 21  0  0  0  0  0  0  0  0999 V2000
    2.3793   -0.0577   -0.8302 C   0  0  0  0  0  0  0  0  0  0  0  0
    1.5718   -0.6346    0.2917 C   0  0  0  0  0  0  0  0  0  0  0  0
    2.0779   -0.3870    1.5424 O   0  0  0  0  0  0  0  0  0  0  0  0
    0.1659   -0.1384    0.1375 C   0  0  0  0  0  0  0  0  0  0  0  0
   -0.5063    0.5822    1.0150 C   0  0  0  0  0  0  0  0  0  0  0  0
   -1.8709    0.8542    0.4527 C   0  0  0  0  0  0  0  0  0  0  0  0
   -2.7965    0.7515    1.4586 O   0  0  0  0  0  0  0  0  0  0  0  0
   -2.0431   -0.2031   -0.6183 C   0  0  0  0  0  0  0  0  0  0  0  0
   -0.6412   -0.4257   -1.0779 C   0  0  0  0  0  0  0  0  0  0  0  0
    2.7594   -0.8461   -1.5347 H   0  0  0  0  0  0  0  0  0  0  0  0
    1.7903    0.6398   -1.4770 H   0  0  0  0  0  0  0  0  0  0  0  0
    3.2610    0.4997   -0.4685 H   0  0  0  0  0  0  0  0  0  0  0  0
    1.5360   -1.7531    0.1688 H   0  0  0  0  0  0  0  0  0  0  0  0
    2.5775    0.4402    1.6389 H   0  0  0  0  0  0  0  0  0  0  0  0
   -0.1057    0.9037    1.9697 H   0  0  0  0  0  0  0  0  0  0  0  0
   -1.8234    1.8438   -0.0354 H   0  0  0  0  0  0  0  0  0  0  0  0
   -2.4174    0.1955    2.1858 H   0  0  0  0  0  0  0  0  0  0  0  0
   -2.3908   -1.1572   -0.1413 H   0  0  0  0  0  0  0  0  0  0  0  0
   -2.7265    0.1603   -1.3883 H   0  0  0  0  0  0  0  0  0  0  0  0
   -0.4505   -1.4755   -1.3542 H   0  0  0  0  0  0  0  0  0  0  0  0
   -0.3468    0.2075   -1.9353 H   0  0  0  0  0  0  0  0  0  0  0  0
  1  2  1  0
  2  3  1  0
  2  4  1  0
  4  5  2  0
  5  6  1  0
  6  7  1  0
  6  8  1  0
  8  9  1  0
  9  4  1  0
  1 10  1  0
  1 11  1  0
  1 12  1  0
  2 13  1  0
  3 14  1  0
  5 15  1  0
  6 16  1  0
  7 17  1  0
  8 18  1  0
  8 19  1  0
  9 20  1  0
  9 21  1  0
M  END
