
     RDKit          3D

 20 20  0  0  0  0  0  0  0  0999 V2000
    2.3499    0.6757    0.4222 C   0  0  0  0  0  0  0  0  0  0  0  0
    1.4921   -0.3673   -0.2616 C   0  0  0  0  0  0  0  0  0  0  0  0
    1.3425   -1.4340    0.5930 O   0  0  0  0  0  0  0  0  0  0  0  0
    0.2090    0.2693   -0.6920 C   0  0  0  0  0  0  0  0  0  0  0  0
   -0.6342   -0.7355   -1.4005 O   0  0  0  0  0  0  0  0  0  0  0  0
   -1.0753    0.0063   -0.1923 C   0  0  0  0  0  0  0  0  0  0  0  0
   -2.2068    0.9616   -0.5785 C   0  0  0  0  0  0  0  0  0  0  0  0
   -1.4485   -0.9693    0.8652 C   0  0  0  0  0  0  0  0  0  0  0  0
    3.0103    1.1888   -0.3298 H   0  0  0  0  0  0  0  0  0  0  0  0
    2.9835    0.2266    1.2132 H   0  0  0  0  0  0  0  0  0  0  0  0
    1.7043    1.4958    0.8292 H   0  0  0  0  0  0  0  0  0  0  0  0
    2.0770   -0.6862   -1.1726 H   0  0  0  0  0  0  0  0  0  0  0  0
    2.1920   -1.5584    1.0742 H   0  0  0  0  0  0  0  0  0  0  0  0
    0.3528    1.1141   -1.4017 H   0  0  0  0  0  0  0  0  0  0  0  0
   -3.1633    0.4054   -0.6865 H   0  0  0  0  0  0  0  0  0  0  0  0
   -2.3393    1.6392    0.2823 H   0  0  0  0  0  0  0  0  0  0  0  0
   -2.0034    1.4646   -1.5295 H   0  0  0  0  0  0  0  0  0  0  0  0
   -2.5372   -1.2137    0.7344 H   0  0  0  0  0  0  0  0  0  0  0  0
   -1.3790   -0.5339    1.8925 H   0  0  0  0  0  0  0  0  0  0  0  0
   -0.9264   -1.9492    0.7951 H   0  0  0  0  0  0  0  0  0  0  0  0
  1  2  1  0
  2  3  1  0
  2  4  1  0
  4  5  1  0
  5  6  1  0
  6  7  1  0
  6  8  1  0
  6  4  1  0
  1  9  1  0
  1 10  1  0
  1 11  1  0
  2 12  1  0
  3 13  1  0
  4 14  1  0
  7 15  1  0
  7 16  1  0
  7 17  1  0
  8 18  1  0
  8 19  1  0
  8 20  1  0
M  END
