
     RDKit          3D

 23 23  0  0  0  0  0  0  0  0999 V2000
   -1.8306    1.2190   -0.6703 C   0  0  0  0  0  0  0  0  0  0  0  0
   -1.8233   -0.2398   -0.2733 C   0  0  0  0  0  0  0  0  0  0  0  0
   -2.8678   -0.3675    0.6759 O   0  0  0  0  0  0  0  0  0  0  0  0
   -0.5715   -0.6395    0.4234 C   0  0  0  0  0  0  0  0  0  0  0  0
    0.7034   -0.4807   -0.3180 C   0  0  0  0  0  0  0  0  0  0  0  0
    0.8136   -1.1900   -1.5126 O   0  0  0  0  0  0  0  0  0  0  0  0
    1.8408   -0.9634    0.6061 C   0  0  0  0  0  0  0  0  0  0  0  0
    1.9866    0.4715    1.0422 C   0  0  0  0  0  0  0  0  0  0  0  0
    1.3849    0.8541   -0.3000 C   0  0  0  0  0  0  0  0  0  0  0  0
   -2.9005    1.4357   -0.9586 H   0  0  0  0  0  0  0  0  0  0  0  0
   -1.5500    1.8271    0.2019 H   0  0  0  0  0  0  0  0  0  0  0  0
   -1.2138    1.4067   -1.5652 H   0  0  0  0  0  0  0  0  0  0  0  0
   -2.0803   -0.8931   -1.1325 H   0  0  0  0  0  0  0  0  0  0  0  0
   -3.2240   -1.2749    0.7080 H   0  0  0  0  0  0  0  0  0  0  0  0
   -0.6236   -1.7077    0.7686 H   0  0  0  0  0  0  0  0  0  0  0  0
   -0.4794   -0.0556    1.3734 H   0  0  0  0  0  0  0  0  0  0  0  0
    0.7731   -0.5431   -2.2614 H   0  0  0  0  0  0  0  0  0  0  0  0
    2.7034   -1.3852    0.0589 H   0  0  0  0  0  0  0  0  0  0  0  0
    1.5276   -1.6134    1.4217 H   0  0  0  0  0  0  0  0  0  0  0  0
    3.0531    0.7484    1.1630 H   0  0  0  0  0  0  0  0  0  0  0  0
    1.3830    0.7553    1.9047 H   0  0  0  0  0  0  0  0  0  0  0  0
    0.7828    1.7562   -0.3034 H   0  0  0  0  0  0  0  0  0  0  0  0
    2.2127    0.8800   -1.0524 H   0  0  0  0  0  0  0  0  0  0  0  0
  1  2  1  0
  2  3  1  0
  2  4  1  0
  4  5  1  0
  5  6  1  0
  5  7  1  0
  7  8  1  0
  8  9  1  0
  9  5  1  0
  1 10  1  0
  1 11  1  0
  1 12  1  0
  2 13  1  0
  3 14  1  0
  4 15  1  0
  4 16  1  0
  6 17  1  0
  7 18  1  0
  7 19  1  0
  8 20  1  0
  8 21  1  0
  9 22  1  0
  9 23  1  0
M  END
