
     RDKit          3D

 23 24  0  0  0  0  0  0  0  0999 V2000
    2.7090   -0.6668    0.1672 C   0  0  0  0  0  0  0  0  0  0  0  0
    1.4638   -0.0581    0.7657 C   0  0  0  0  0  0  0  0  0  0  0  0
    1.7345    0.8060    1.8128 O   0  0  0  0  0  0  0  0  0  0  0  0
    0.7096    0.6147   -0.3466 C   0  0  0  0  0  0  0  0  0  0  0  0
    0.3196   -0.3717   -1.4269 C   0  0  0  0  0  0  0  0  0  0  0  0
   -1.1135   -0.3552   -1.0109 C   0  0  0  0  0  0  0  0  0  0  0  0
   -1.5423   -0.2754    0.3905 C   0  0  0  0  0  0  0  0  0  0  0  0
   -3.0320    0.0281    0.6036 C   0  0  0  0  0  0  0  0  0  0  0  0
   -0.7596    0.8506   -0.1111 C   0  0  0  0  0  0  0  0  0  0  0  0
    2.6285   -1.7739    0.0660 H   0  0  0  0  0  0  0  0  0  0  0  0
    3.6153   -0.4542    0.7639 H   0  0  0  0  0  0  0  0  0  0  0  0
    2.9065   -0.2719   -0.8616 H   0  0  0  0  0  0  0  0  0  0  0  0
    0.8739   -0.8961    1.1771 H   0  0  0  0  0  0  0  0  0  0  0  0
    1.3937    1.7090    1.6970 H   0  0  0  0  0  0  0  0  0  0  0  0
    1.2153    1.5273   -0.7305 H   0  0  0  0  0  0  0  0  0  0  0  0
    0.8367   -1.3483   -1.3737 H   0  0  0  0  0  0  0  0  0  0  0  0
    0.4537    0.0983   -2.4228 H   0  0  0  0  0  0  0  0  0  0  0  0
   -1.8547   -0.2235   -1.7930 H   0  0  0  0  0  0  0  0  0  0  0  0
   -1.1534   -0.9472    1.1755 H   0  0  0  0  0  0  0  0  0  0  0  0
   -3.5898   -0.9080    0.4013 H   0  0  0  0  0  0  0  0  0  0  0  0
   -3.2352    0.3239    1.6412 H   0  0  0  0  0  0  0  0  0  0  0  0
   -3.3609    0.7925   -0.1341 H   0  0  0  0  0  0  0  0  0  0  0  0
   -1.2189    1.7999   -0.4505 H   0  0  0  0  0  0  0  0  0  0  0  0
  1  2  1  0
  2  3  1  0
  2  4  1  0
  4  5  1  0
  5  6  1  0
  6  7  1  0
  7  8  1  0
  7  9  1  0
  9  4  1  0
  9  6  1  0
  1 10  1  0
  1 11  1  0
  1 12  1  0
  2 13  1  0
  3 14  1  0
  4 15  1  0
  5 16  1  0
  5 17  1  0
  6 18  1  0
  7 19  1  0
  8 20  1  0
  8 21  1  0
  8 22  1  0
  9 23  1  0
M  END
