
     RDKit          3D

 17 16  0  0  0  0  0  0  0  0999 V2000
   -0.5915   -0.8269    1.3600 C   0  0  0  0  0  0  0  0  0  0  0  0
   -0.4090   -0.3056   -0.0410 C   0  0  0  0  0  0  0  0  0  0  0  0
   -1.0358    0.9355   -0.1734 O   0  0  0  0  0  0  0  0  0  0  0  0
   -2.0674    1.1289   -1.0517 C   0  0  0  0  0  0  0  0  0  0  0  0
   -2.4692    0.1829   -1.7587 O   0  0  0  0  0  0  0  0  0  0  0  0
    1.0474   -0.1479   -0.4070 C   0  0  0  0  0  0  0  0  0  0  0  0
    1.7373   -1.3527   -0.2970 O   0  0  0  0  0  0  0  0  0  0  0  0
    1.7125    0.9358    0.3262 C   0  0  0  0  0  0  0  0  0  0  0  0
    2.7440    0.6863    0.9242 O   0  0  0  0  0  0  0  0  0  0  0  0
   -0.1614   -0.1568    2.1239 H   0  0  0  0  0  0  0  0  0  0  0  0
   -0.2227   -1.8801    1.4487 H   0  0  0  0  0  0  0  0  0  0  0  0
   -1.6834   -0.8662    1.5542 H   0  0  0  0  0  0  0  0  0  0  0  0
   -0.8646   -1.0505   -0.7255 H   0  0  0  0  0  0  0  0  0  0  0  0
   -2.5134    2.1284   -1.1044 H   0  0  0  0  0  0  0  0  0  0  0  0
    1.0693    0.1259   -1.4940 H   0  0  0  0  0  0  0  0  0  0  0  0
    2.3579   -1.4900   -1.0600 H   0  0  0  0  0  0  0  0  0  0  0  0
    1.3499    1.9529    0.3755 H   0  0  0  0  0  0  0  0  0  0  0  0
  1  2  1  0
  2  3  1  0
  3  4  1  0
  4  5  2  0
  2  6  1  0
  6  7  1  0
  6  8  1  0
  8  9  2  0
  1 10  1  0
  1 11  1  0
  1 12  1  0
  2 13  1  0
  4 14  1  0
  6 15  1  0
  7 16  1  0
  8 17  1  0
M  END
