
     RDKit          3D

 23 23  0  0  0  0  0  0  0  0999 V2000
    1.1821   -1.6195   -0.0760 C   0  0  0  0  0  0  0  0  0  0  0  0
    0.4167   -0.3703   -0.4471 C   0  0  0  0  0  0  0  0  0  0  0  0
   -0.7757   -0.2639    0.2476 O   0  0  0  0  0  0  0  0  0  0  0  0
   -1.8738   -0.2992   -0.6344 C   0  0  0  0  0  0  0  0  0  0  0  0
   -3.1754   -0.1844    0.1090 C   0  0  0  0  0  0  0  0  0  0  0  0
   -3.1890    1.0124    0.7937 O   0  0  0  0  0  0  0  0  0  0  0  0
    1.2587    0.8773   -0.2928 C   0  0  0  0  0  0  0  0  0  0  0  0
    1.8332    1.2556    1.0145 C   0  0  0  0  0  0  0  0  0  0  0  0
    2.7142    0.8169   -0.1435 C   0  0  0  0  0  0  0  0  0  0  0  0
    0.4092   -2.4410   -0.0122 H   0  0  0  0  0  0  0  0  0  0  0  0
    1.6139   -1.5357    0.9232 H   0  0  0  0  0  0  0  0  0  0  0  0
    1.8794   -1.9070   -0.8639 H   0  0  0  0  0  0  0  0  0  0  0  0
    0.1725   -0.4557   -1.5258 H   0  0  0  0  0  0  0  0  0  0  0  0
   -1.7928    0.5879   -1.2935 H   0  0  0  0  0  0  0  0  0  0  0  0
   -1.8728   -1.2475   -1.2032 H   0  0  0  0  0  0  0  0  0  0  0  0
   -3.3485   -1.0607    0.7811 H   0  0  0  0  0  0  0  0  0  0  0  0
   -3.9853   -0.1982   -0.6433 H   0  0  0  0  0  0  0  0  0  0  0  0
   -2.6380    0.9059    1.6052 H   0  0  0  0  0  0  0  0  0  0  0  0
    0.8501    1.7255   -0.8906 H   0  0  0  0  0  0  0  0  0  0  0  0
    1.9420    2.3318    1.2607 H   0  0  0  0  0  0  0  0  0  0  0  0
    1.7730    0.5931    1.9046 H   0  0  0  0  0  0  0  0  0  0  0  0
    3.3359    1.5908   -0.6606 H   0  0  0  0  0  0  0  0  0  0  0  0
    3.2704   -0.1139    0.0471 H   0  0  0  0  0  0  0  0  0  0  0  0
  1  2  1  0
  2  3  1  0
  3  4  1  0
  4  5  1  0
  5  6  1  0
  2  7  1  0
  7  8  1  0
  8  9  1  0
  9  7  1  0
  1 10  1  0
  1 11  1  0
  1 12  1  0
  2 13  1  0
  4 14  1  0
  4 15  1  0
  5 16  1  0
  5 17  1  0
  6 18  1  0
  7 19  1  0
  8 20  1  0
  8 21  1  0
  9 22  1  0
  9 23  1  0
M  END
