
     RDKit          3D

 21 21  0  0  0  0  0  0  0  0999 V2000
    2.7151   -0.4807    0.0278 C   0  0  0  0  0  0  0  0  0  0  0  0
    1.4672    0.4340    0.0800 C   0  0  0  0  0  0  0  0  0  0  0  0
    1.5651    1.2277   -1.0708 O   0  0  0  0  0  0  0  0  0  0  0  0
    0.3151   -0.5038    0.0860 C   0  0  0  0  0  0  0  0  0  0  0  0
   -1.0462    0.0478    0.1493 C   0  0  0  0  0  0  0  0  0  0  0  0
   -2.1322   -1.0342    0.1491 C   0  0  0  0  0  0  0  0  0  0  0  0
   -3.2955   -0.5649   -0.4519 O   0  0  0  0  0  0  0  0  0  0  0  0
   -1.3461    1.3204   -0.5834 C   0  0  0  0  0  0  0  0  0  0  0  0
   -1.3306    1.2347    0.8118 O   0  0  0  0  0  0  0  0  0  0  0  0
    3.5935    0.0413    0.4538 H   0  0  0  0  0  0  0  0  0  0  0  0
    2.5031   -1.3597    0.6677 H   0  0  0  0  0  0  0  0  0  0  0  0
    2.8716   -0.8237   -0.9936 H   0  0  0  0  0  0  0  0  0  0  0  0
    1.5665    1.0492    0.9964 H   0  0  0  0  0  0  0  0  0  0  0  0
    1.8713    2.1251   -0.7899 H   0  0  0  0  0  0  0  0  0  0  0  0
    0.5224   -1.2549    0.9000 H   0  0  0  0  0  0  0  0  0  0  0  0
    0.4017   -1.1141   -0.8606 H   0  0  0  0  0  0  0  0  0  0  0  0
   -1.7549   -1.9555   -0.3029 H   0  0  0  0  0  0  0  0  0  0  0  0
   -2.3547   -1.2357    1.2072 H   0  0  0  0  0  0  0  0  0  0  0  0
   -3.2351   -0.4938   -1.4195 H   0  0  0  0  0  0  0  0  0  0  0  0
   -0.5600    1.9789   -0.9772 H   0  0  0  0  0  0  0  0  0  0  0  0
   -2.3372    1.3619   -1.0934 H   0  0  0  0  0  0  0  0  0  0  0  0
  1  2  1  0
  2  3  1  0
  2  4  1  0
  4  5  1  0
  5  6  1  0
  6  7  1  0
  5  8  1  0
  8  9  1  0
  9  5  1  0
  1 10  1  0
  1 11  1  0
  1 12  1  0
  2 13  1  0
  3 14  1  0
  4 15  1  0
  4 16  1  0
  6 17  1  0
  6 18  1  0
  7 19  1  0
  8 20  1  0
  8 21  1  0
M  END
