
     RDKit          3D

 20 19  0  0  0  0  0  0  0  0999 V2000
    1.6804   -0.2025    0.9960 C   0  0  0  0  0  0  0  0  0  0  0  0
    1.0584   -0.7710   -0.2786 C   0  0  0  0  0  0  0  0  0  0  0  0
    2.1073   -0.9077   -1.2021 O   0  0  0  0  0  0  0  0  0  0  0  0
    0.1149    0.2604   -0.8346 C   0  0  0  0  0  0  0  0  0  0  0  0
    0.8450    1.4499   -0.9750 O   0  0  0  0  0  0  0  0  0  0  0  0
   -1.0282    0.5523    0.0929 C   0  0  0  0  0  0  0  0  0  0  0  0
   -1.9451   -0.6185    0.3001 C   0  0  0  0  0  0  0  0  0  0  0  0
   -1.7913    1.5718   -0.5162 O   0  0  0  0  0  0  0  0  0  0  0  0
    2.0542    0.8262    0.8454 H   0  0  0  0  0  0  0  0  0  0  0  0
    2.5280   -0.9099    1.2366 H   0  0  0  0  0  0  0  0  0  0  0  0
    0.9164   -0.1984    1.7916 H   0  0  0  0  0  0  0  0  0  0  0  0
    0.5923   -1.7175   -0.0103 H   0  0  0  0  0  0  0  0  0  0  0  0
    1.8597   -1.6273   -1.8159 H   0  0  0  0  0  0  0  0  0  0  0  0
   -0.2580   -0.0594   -1.8412 H   0  0  0  0  0  0  0  0  0  0  0  0
    0.7065    2.0695   -0.2178 H   0  0  0  0  0  0  0  0  0  0  0  0
   -0.6487    0.8840    1.0572 H   0  0  0  0  0  0  0  0  0  0  0  0
   -2.8954   -0.2303    0.7414 H   0  0  0  0  0  0  0  0  0  0  0  0
   -2.2047   -1.1501   -0.6387 H   0  0  0  0  0  0  0  0  0  0  0  0
   -1.5585   -1.3548    1.0395 H   0  0  0  0  0  0  0  0  0  0  0  0
   -2.1331    2.1334    0.2296 H   0  0  0  0  0  0  0  0  0  0  0  0
  1  2  1  0
  2  3  1  0
  2  4  1  0
  4  5  1  0
  4  6  1  0
  6  7  1  0
  6  8  1  0
  1  9  1  0
  1 10  1  0
  1 11  1  0
  2 12  1  0
  3 13  1  0
  4 14  1  0
  5 15  1  0
  6 16  1  0
  7 17  1  0
  7 18  1  0
  7 19  1  0
  8 20  1  0
M  END
