
     RDKit          3D

 19 20  0  0  0  0  0  0  0  0999 V2000
   -2.3569    0.3301   -0.4323 C   0  0  0  0  0  0  0  0  0  0  0  0
   -1.4449   -0.8518   -0.5444 C   0  0  0  0  0  0  0  0  0  0  0  0
   -1.9308   -1.8295    0.3557 O   0  0  0  0  0  0  0  0  0  0  0  0
   -0.0362   -0.5603   -0.1495 C   0  0  0  0  0  0  0  0  0  0  0  0
   -0.0356   -0.0537    1.2458 O   0  0  0  0  0  0  0  0  0  0  0  0
    0.5094    0.7358    0.1098 C   0  0  0  0  0  0  0  0  0  0  0  0
    2.0141    0.8380    0.2905 C   0  0  0  0  0  0  0  0  0  0  0  0
    2.9587    0.1106   -0.5330 C   0  0  0  0  0  0  0  0  0  0  0  0
    2.7392    1.5393   -0.6707 O   0  0  0  0  0  0  0  0  0  0  0  0
   -2.0325    1.1371   -1.1059 H   0  0  0  0  0  0  0  0  0  0  0  0
   -3.3826    0.0002   -0.6999 H   0  0  0  0  0  0  0  0  0  0  0  0
   -2.4113    0.6653    0.6345 H   0  0  0  0  0  0  0  0  0  0  0  0
   -1.5096   -1.3095   -1.5406 H   0  0  0  0  0  0  0  0  0  0  0  0
   -2.6137   -1.4667    0.9540 H   0  0  0  0  0  0  0  0  0  0  0  0
    0.6594   -1.4167   -0.2906 H   0  0  0  0  0  0  0  0  0  0  0  0
   -0.0320    1.6748    0.0548 H   0  0  0  0  0  0  0  0  0  0  0  0
    2.2966    1.0985    1.3441 H   0  0  0  0  0  0  0  0  0  0  0  0
    3.9504   -0.1416   -0.0946 H   0  0  0  0  0  0  0  0  0  0  0  0
    2.6581   -0.4997   -1.3903 H   0  0  0  0  0  0  0  0  0  0  0  0
  1  2  1  0
  2  3  1  0
  2  4  1  0
  4  5  1  0
  5  6  1  0
  6  7  1  0
  7  8  1  0
  8  9  1  0
  6  4  1  0
  9  7  1  0
  1 10  1  0
  1 11  1  0
  1 12  1  0
  2 13  1  0
  3 14  1  0
  4 15  1  0
  6 16  1  0
  7 17  1  0
  8 18  1  0
  8 19  1  0
M  END
