
     RDKit          3D

 23 23  0  0  0  0  0  0  0  0999 V2000
   -2.6863   -0.2356   -0.4004 C   0  0  0  0  0  0  0  0  0  0  0  0
   -1.8537    0.4742    0.6142 C   0  0  0  0  0  0  0  0  0  0  0  0
   -1.6354    1.8017    0.2342 O   0  0  0  0  0  0  0  0  0  0  0  0
   -0.5036   -0.1670    0.8362 C   0  0  0  0  0  0  0  0  0  0  0  0
   -0.6049   -1.4845    1.2164 O   0  0  0  0  0  0  0  0  0  0  0  0
    0.3996    0.0314   -0.3575 C   0  0  0  0  0  0  0  0  0  0  0  0
    1.7421   -0.5805   -0.1918 C   0  0  0  0  0  0  0  0  0  0  0  0
    2.6861   -0.2288    0.8604 C   0  0  0  0  0  0  0  0  0  0  0  0
    2.9342    0.3720   -0.4586 C   0  0  0  0  0  0  0  0  0  0  0  0
   -2.5521    0.2240   -1.4012 H   0  0  0  0  0  0  0  0  0  0  0  0
   -2.5659   -1.3284   -0.3939 H   0  0  0  0  0  0  0  0  0  0  0  0
   -3.7666   -0.0444   -0.1325 H   0  0  0  0  0  0  0  0  0  0  0  0
   -2.3905    0.4356    1.5887 H   0  0  0  0  0  0  0  0  0  0  0  0
   -2.1197    2.0300   -0.5994 H   0  0  0  0  0  0  0  0  0  0  0  0
   -0.0400    0.3884    1.7009 H   0  0  0  0  0  0  0  0  0  0  0  0
   -1.4866   -1.7442    1.5682 H   0  0  0  0  0  0  0  0  0  0  0  0
    0.4686    1.1162   -0.5790 H   0  0  0  0  0  0  0  0  0  0  0  0
   -0.1246   -0.4217   -1.2288 H   0  0  0  0  0  0  0  0  0  0  0  0
    1.8717   -1.5974   -0.6582 H   0  0  0  0  0  0  0  0  0  0  0  0
    2.4434    0.4945    1.6774 H   0  0  0  0  0  0  0  0  0  0  0  0
    3.4133   -0.9977    1.1986 H   0  0  0  0  0  0  0  0  0  0  0  0
    3.6977    0.0149   -1.1591 H   0  0  0  0  0  0  0  0  0  0  0  0
    2.6730    1.4474   -0.6180 H   0  0  0  0  0  0  0  0  0  0  0  0
  1  2  1  0
  2  3  1  0
  2  4  1  0
  4  5  1  0
  4  6  1  0
  6  7  1  0
  7  8  1  0
  8  9  1  0
  9  7  1  0
  1 10  1  0
  1 11  1  0
  1 12  1  0
  2 13  1  0
  3 14  1  0
  4 15  1  0
  5 16  1  0
  6 17  1  0
  6 18  1  0
  7 19  1  0
  8 20  1  0
  8 21  1  0
  9 22  1  0
  9 23  1  0
M  END
