
     RDKit          3D

 21 22  0  0  0  0  0  0  0  0999 V2000
    1.6493    0.8374    1.0739 C   0  0  0  0  0  0  0  0  0  0  0  0
    1.2378   -0.4740    0.5645 C   0  0  0  0  0  0  0  0  0  0  0  0
    2.3476   -0.9613   -0.1900 O   0  0  0  0  0  0  0  0  0  0  0  0
    0.0160   -0.7359   -0.1508 C   0  0  0  0  0  0  0  0  0  0  0  0
   -0.3667   -0.1002   -1.4473 C   0  0  0  0  0  0  0  0  0  0  0  0
   -0.9344    1.0116   -0.6273 C   0  0  0  0  0  0  0  0  0  0  0  0
   -1.8466    1.0372    0.4890 C   0  0  0  0  0  0  0  0  0  0  0  0
   -1.3007   -0.2407    0.2550 C   0  0  0  0  0  0  0  0  0  0  0  0
   -2.3294   -1.0411   -0.3502 O   0  0  0  0  0  0  0  0  0  0  0  0
    2.1336    1.5239    0.3365 H   0  0  0  0  0  0  0  0  0  0  0  0
    2.5026    0.6520    1.8061 H   0  0  0  0  0  0  0  0  0  0  0  0
    0.9084    1.3578    1.7322 H   0  0  0  0  0  0  0  0  0  0  0  0
    1.2456   -1.1788    1.4578 H   0  0  0  0  0  0  0  0  0  0  0  0
    2.2441   -1.9428   -0.2742 H   0  0  0  0  0  0  0  0  0  0  0  0
   -0.0061   -1.8641   -0.3334 H   0  0  0  0  0  0  0  0  0  0  0  0
    0.4205    0.1587   -2.1372 H   0  0  0  0  0  0  0  0  0  0  0  0
   -1.1730   -0.6518   -1.9580 H   0  0  0  0  0  0  0  0  0  0  0  0
   -0.1287    1.6837   -0.3868 H   0  0  0  0  0  0  0  0  0  0  0  0
   -2.8689    1.4214    0.1900 H   0  0  0  0  0  0  0  0  0  0  0  0
   -1.6303    1.4691    1.5166 H   0  0  0  0  0  0  0  0  0  0  0  0
   -2.1206   -1.9621    0.0027 H   0  0  0  0  0  0  0  0  0  0  0  0
  1  2  1  0
  2  3  1  0
  2  4  1  0
  4  5  1  0
  5  6  1  0
  6  7  1  0
  7  8  1  0
  8  9  1  0
  8  4  1  0
  8  6  1  0
  1 10  1  0
  1 11  1  0
  1 12  1  0
  2 13  1  0
  3 14  1  0
  4 15  1  0
  5 16  1  0
  5 17  1  0
  6 18  1  0
  7 19  1  0
  7 20  1  0
  9 21  1  0
M  END
