
     RDKit          3D

 23 23  0  0  0  0  0  0  0  0999 V2000
   -2.9745   -0.9807   -0.7124 C   0  0  0  0  0  0  0  0  0  0  0  0
   -2.3307    0.3589   -0.5411 C   0  0  0  0  0  0  0  0  0  0  0  0
   -3.2642    1.2141    0.0318 O   0  0  0  0  0  0  0  0  0  0  0  0
   -1.0699    0.2730    0.3208 C   0  0  0  0  0  0  0  0  0  0  0  0
   -0.2257   -0.5839   -0.3252 O   0  0  0  0  0  0  0  0  0  0  0  0
    0.9857   -0.8512    0.2564 C   0  0  0  0  0  0  0  0  0  0  0  0
    1.8241    0.3721    0.3803 C   0  0  0  0  0  0  0  0  0  0  0  0
    3.1855    0.3093    0.9871 C   0  0  0  0  0  0  0  0  0  0  0  0
    3.1201    0.3371   -0.4741 C   0  0  0  0  0  0  0  0  0  0  0  0
   -3.5891   -1.2416    0.1970 H   0  0  0  0  0  0  0  0  0  0  0  0
   -3.7141   -0.8901   -1.5431 H   0  0  0  0  0  0  0  0  0  0  0  0
   -2.2524   -1.7891   -0.9254 H   0  0  0  0  0  0  0  0  0  0  0  0
   -2.0989    0.7470   -1.5583 H   0  0  0  0  0  0  0  0  0  0  0  0
   -2.9144    2.1381   -0.0020 H   0  0  0  0  0  0  0  0  0  0  0  0
   -1.4317   -0.1516    1.2966 H   0  0  0  0  0  0  0  0  0  0  0  0
   -0.6157    1.2521    0.4542 H   0  0  0  0  0  0  0  0  0  0  0  0
    0.8805   -1.4061    1.2237 H   0  0  0  0  0  0  0  0  0  0  0  0
    1.4740   -1.6064   -0.4351 H   0  0  0  0  0  0  0  0  0  0  0  0
    1.3307    1.3459    0.4635 H   0  0  0  0  0  0  0  0  0  0  0  0
    3.5489    1.1842    1.5570 H   0  0  0  0  0  0  0  0  0  0  0  0
    3.5340   -0.6537    1.4528 H   0  0  0  0  0  0  0  0  0  0  0  0
    3.2663    1.2298   -1.0799 H   0  0  0  0  0  0  0  0  0  0  0  0
    3.3316   -0.6073   -1.0247 H   0  0  0  0  0  0  0  0  0  0  0  0
  1  2  1  0
  2  3  1  0
  2  4  1  0
  4  5  1  0
  5  6  1  0
  6  7  1  0
  7  8  1  0
  8  9  1  0
  9  7  1  0
  1 10  1  0
  1 11  1  0
  1 12  1  0
  2 13  1  0
  3 14  1  0
  4 15  1  0
  4 16  1  0
  6 17  1  0
  6 18  1  0
  7 19  1  0
  8 20  1  0
  8 21  1  0
  9 22  1  0
  9 23  1  0
M  END
