
     RDKit          3D

 21 21  0  0  0  0  0  0  0  0999 V2000
    2.0541   -0.1635    0.3146 C   0  0  0  0  0  0  0  0  0  0  0  0
    0.9616   -0.3094   -0.7260 C   0  0  0  0  0  0  0  0  0  0  0  0
    1.1442    0.6704   -1.6735 O   0  0  0  0  0  0  0  0  0  0  0  0
   -0.3543   -0.1952   -0.0329 C   0  0  0  0  0  0  0  0  0  0  0  0
   -0.6015   -1.2184    1.0214 C   0  0  0  0  0  0  0  0  0  0  0  0
   -0.5864    1.2418    0.4293 C   0  0  0  0  0  0  0  0  0  0  0  0
   -2.0325    0.9998    0.1579 C   0  0  0  0  0  0  0  0  0  0  0  0
   -3.1118    1.3934    0.5687 O   0  0  0  0  0  0  0  0  0  0  0  0
   -1.5666    0.0146   -0.8904 C   0  0  0  0  0  0  0  0  0  0  0  0
    2.7949    0.6153    0.0338 H   0  0  0  0  0  0  0  0  0  0  0  0
    1.6569    0.0886    1.3176 H   0  0  0  0  0  0  0  0  0  0  0  0
    2.6417   -1.1123    0.4123 H   0  0  0  0  0  0  0  0  0  0  0  0
    1.0401   -1.3269   -1.2096 H   0  0  0  0  0  0  0  0  0  0  0  0
    2.1079    0.6869   -1.9512 H   0  0  0  0  0  0  0  0  0  0  0  0
    0.3682   -1.4843    1.4841 H   0  0  0  0  0  0  0  0  0  0  0  0
   -1.2811   -0.7965    1.8182 H   0  0  0  0  0  0  0  0  0  0  0  0
   -1.1086   -2.1275    0.5980 H   0  0  0  0  0  0  0  0  0  0  0  0
   -0.1744    1.9261   -0.3297 H   0  0  0  0  0  0  0  0  0  0  0  0
   -0.3046    1.3990    1.4669 H   0  0  0  0  0  0  0  0  0  0  0  0
   -2.2408   -0.8545   -0.9743 H   0  0  0  0  0  0  0  0  0  0  0  0
   -1.4069    0.5525   -1.8351 H   0  0  0  0  0  0  0  0  0  0  0  0
  1  2  1  0
  2  3  1  0
  2  4  1  0
  4  5  1  0
  4  6  1  0
  6  7  1  0
  7  8  2  0
  7  9  1  0
  9  4  1  0
  1 10  1  0
  1 11  1  0
  1 12  1  0
  2 13  1  0
  3 14  1  0
  5 15  1  0
  5 16  1  0
  5 17  1  0
  6 18  1  0
  6 19  1  0
  9 20  1  0
  9 21  1  0
M  END
