
     RDKit          3D

 19 20  0  0  0  0  0  0  0  0999 V2000
   -2.2551    0.8467   -0.7197 C   0  0  0  0  0  0  0  0  0  0  0  0
   -1.2583    0.2399    0.2277 C   0  0  0  0  0  0  0  0  0  0  0  0
   -1.9054   -0.8058    0.9252 O   0  0  0  0  0  0  0  0  0  0  0  0
   -0.0820   -0.3892   -0.4737 C   0  0  0  0  0  0  0  0  0  0  0  0
    0.9292   -1.0036    0.4642 C   0  0  0  0  0  0  0  0  0  0  0  0
    1.2008   -0.2835    1.6105 O   0  0  0  0  0  0  0  0  0  0  0  0
    1.9416    0.5996    0.8341 C   0  0  0  0  0  0  0  0  0  0  0  0
    1.2640    0.1689   -0.4333 C   0  0  0  0  0  0  0  0  0  0  0  0
    2.1128   -0.0824   -1.5309 O   0  0  0  0  0  0  0  0  0  0  0  0
   -3.2821    0.6407   -0.3413 H   0  0  0  0  0  0  0  0  0  0  0  0
   -2.1827    1.9742   -0.7322 H   0  0  0  0  0  0  0  0  0  0  0  0
   -2.1938    0.4220   -1.7237 H   0  0  0  0  0  0  0  0  0  0  0  0
   -0.8672    0.9316    0.9789 H   0  0  0  0  0  0  0  0  0  0  0  0
   -1.3737   -1.0918    1.6925 H   0  0  0  0  0  0  0  0  0  0  0  0
   -0.3292   -1.0810   -1.3267 H   0  0  0  0  0  0  0  0  0  0  0  0
    1.3429   -1.9897    0.2804 H   0  0  0  0  0  0  0  0  0  0  0  0
    1.8373    1.6726    1.0924 H   0  0  0  0  0  0  0  0  0  0  0  0
    3.0059    0.2911    0.8433 H   0  0  0  0  0  0  0  0  0  0  0  0
    2.0952   -1.0604   -1.6677 H   0  0  0  0  0  0  0  0  0  0  0  0
  1  2  1  0
  2  3  1  0
  2  4  1  0
  4  5  1  0
  5  6  1  0
  6  7  1  0
  7  8  1  0
  8  9  1  0
  8  4  1  0
  8  5  1  0
  1 10  1  0
  1 11  1  0
  1 12  1  0
  2 13  1  0
  3 14  1  0
  4 15  1  0
  5 16  1  0
  7 17  1  0
  7 18  1  0
  9 19  1  0
M  END
