
     RDKit          3D

 23 23  0  0  0  0  0  0  0  0999 V2000
    2.3591   -0.1320   -0.7897 C   0  0  0  0  0  0  0  0  0  0  0  0
    1.1740   -0.7812   -0.1490 C   0  0  0  0  0  0  0  0  0  0  0  0
    1.5390   -1.1368    1.1584 O   0  0  0  0  0  0  0  0  0  0  0  0
   -0.0548    0.1106   -0.1391 C   0  0  0  0  0  0  0  0  0  0  0  0
    0.2014    1.3852    0.6167 C   0  0  0  0  0  0  0  0  0  0  0  0
    1.2502    2.0620   -0.0021 O   0  0  0  0  0  0  0  0  0  0  0  0
   -1.1928   -0.6879    0.4194 C   0  0  0  0  0  0  0  0  0  0  0  0
   -2.5453   -0.1350    0.5753 C   0  0  0  0  0  0  0  0  0  0  0  0
   -2.3055   -1.0090   -0.6029 C   0  0  0  0  0  0  0  0  0  0  0  0
    3.0213   -0.9498   -1.1808 H   0  0  0  0  0  0  0  0  0  0  0  0
    2.9311    0.4370   -0.0262 H   0  0  0  0  0  0  0  0  0  0  0  0
    2.1024    0.4851   -1.6693 H   0  0  0  0  0  0  0  0  0  0  0  0
    0.9642   -1.7347   -0.6740 H   0  0  0  0  0  0  0  0  0  0  0  0
    1.7994   -0.3469    1.7009 H   0  0  0  0  0  0  0  0  0  0  0  0
   -0.2391    0.3956   -1.2006 H   0  0  0  0  0  0  0  0  0  0  0  0
    0.4915    1.2187    1.6708 H   0  0  0  0  0  0  0  0  0  0  0  0
   -0.6758    2.0431    0.5796 H   0  0  0  0  0  0  0  0  0  0  0  0
    0.9818    2.4550   -0.8775 H   0  0  0  0  0  0  0  0  0  0  0  0
   -0.9412   -1.5713    1.0718 H   0  0  0  0  0  0  0  0  0  0  0  0
   -3.1887   -0.5403    1.3663 H   0  0  0  0  0  0  0  0  0  0  0  0
   -2.7486    0.9580    0.3833 H   0  0  0  0  0  0  0  0  0  0  0  0
   -2.6729   -2.0425   -0.6500 H   0  0  0  0  0  0  0  0  0  0  0  0
   -2.2508   -0.4828   -1.5813 H   0  0  0  0  0  0  0  0  0  0  0  0
  1  2  1  0
  2  3  1  0
  2  4  1  0
  4  5  1  0
  5  6  1  0
  4  7  1  0
  7  8  1  0
  8  9  1  0
  9  7  1  0
  1 10  1  0
  1 11  1  0
  1 12  1  0
  2 13  1  0
  3 14  1  0
  4 15  1  0
  5 16  1  0
  5 17  1  0
  6 18  1  0
  7 19  1  0
  8 20  1  0
  8 21  1  0
  9 22  1  0
  9 23  1  0
M  END
