
     RDKit          3D

 23 23  0  0  0  0  0  0  0  0999 V2000
    2.1114    1.2591    0.2713 C   0  0  0  0  0  0  0  0  0  0  0  0
    1.4654    0.1691   -0.5502 C   0  0  0  0  0  0  0  0  0  0  0  0
    1.2677    0.5688   -1.8708 O   0  0  0  0  0  0  0  0  0  0  0  0
    0.1410   -0.2764   -0.0017 C   0  0  0  0  0  0  0  0  0  0  0  0
    0.1711   -0.8394    1.4036 C   0  0  0  0  0  0  0  0  0  0  0  0
   -1.1232    0.3400   -0.4852 C   0  0  0  0  0  0  0  0  0  0  0  0
   -2.2678    0.4526    0.5048 C   0  0  0  0  0  0  0  0  0  0  0  0
   -0.7505   -0.9687   -1.0324 C   0  0  0  0  0  0  0  0  0  0  0  0
   -1.2724   -2.1600   -0.5873 O   0  0  0  0  0  0  0  0  0  0  0  0
    1.7919    2.2647    0.0021 H   0  0  0  0  0  0  0  0  0  0  0  0
    1.9461    1.0811    1.3489 H   0  0  0  0  0  0  0  0  0  0  0  0
    3.2209    1.1401    0.1196 H   0  0  0  0  0  0  0  0  0  0  0  0
    2.1304   -0.7230   -0.5885 H   0  0  0  0  0  0  0  0  0  0  0  0
    1.9203    1.2841   -2.1470 H   0  0  0  0  0  0  0  0  0  0  0  0
   -0.6282   -1.5654    1.5909 H   0  0  0  0  0  0  0  0  0  0  0  0
    1.1349   -1.3288    1.5921 H   0  0  0  0  0  0  0  0  0  0  0  0
    0.0811   -0.0205    2.1624 H   0  0  0  0  0  0  0  0  0  0  0  0
   -1.0527    1.2305   -1.1703 H   0  0  0  0  0  0  0  0  0  0  0  0
   -2.9269    1.2970    0.2804 H   0  0  0  0  0  0  0  0  0  0  0  0
   -1.8297    0.5002    1.5240 H   0  0  0  0  0  0  0  0  0  0  0  0
   -2.8840   -0.4741    0.3596 H   0  0  0  0  0  0  0  0  0  0  0  0
   -0.4087   -0.9869   -2.0926 H   0  0  0  0  0  0  0  0  0  0  0  0
   -2.2379   -2.2443   -0.6339 H   0  0  0  0  0  0  0  0  0  0  0  0
  1  2  1  0
  2  3  1  0
  2  4  1  0
  4  5  1  0
  4  6  1  0
  6  7  1  0
  6  8  1  0
  8  9  1  0
  8  4  1  0
  1 10  1  0
  1 11  1  0
  1 12  1  0
  2 13  1  0
  3 14  1  0
  5 15  1  0
  5 16  1  0
  5 17  1  0
  6 18  1  0
  7 19  1  0
  7 20  1  0
  7 21  1  0
  8 22  1  0
  9 23  1  0
M  END
