
     RDKit          3D

 23 23  0  0  0  0  0  0  0  0999 V2000
   -2.1161    0.0142   -1.0976 C   0  0  0  0  0  0  0  0  0  0  0  0
   -1.0297   -0.7343   -0.3497 C   0  0  0  0  0  0  0  0  0  0  0  0
   -1.5995   -1.3591    0.7524 O   0  0  0  0  0  0  0  0  0  0  0  0
   -0.0163    0.2648    0.0988 C   0  0  0  0  0  0  0  0  0  0  0  0
   -0.6234    1.1968    1.1329 C   0  0  0  0  0  0  0  0  0  0  0  0
    0.5744    0.9093   -0.9767 O   0  0  0  0  0  0  0  0  0  0  0  0
    1.7112    1.0641   -0.2236 C   0  0  0  0  0  0  0  0  0  0  0  0
    1.3233   -0.2176    0.5205 C   0  0  0  0  0  0  0  0  0  0  0  0
    1.9103   -1.3891   -0.1855 C   0  0  0  0  0  0  0  0  0  0  0  0
   -2.8049    0.5512   -0.4411 H   0  0  0  0  0  0  0  0  0  0  0  0
   -1.6200    0.7789   -1.7582 H   0  0  0  0  0  0  0  0  0  0  0  0
   -2.6706   -0.6752   -1.7838 H   0  0  0  0  0  0  0  0  0  0  0  0
   -0.6500   -1.5061   -1.0334 H   0  0  0  0  0  0  0  0  0  0  0  0
   -2.3974   -0.8364    1.0709 H   0  0  0  0  0  0  0  0  0  0  0  0
   -1.1543    0.5738    1.8719 H   0  0  0  0  0  0  0  0  0  0  0  0
   -1.2700    1.9278    0.6211 H   0  0  0  0  0  0  0  0  0  0  0  0
    0.1490    1.7619    1.6926 H   0  0  0  0  0  0  0  0  0  0  0  0
    1.7003    1.9677    0.3808 H   0  0  0  0  0  0  0  0  0  0  0  0
    2.6758    0.9549   -0.7623 H   0  0  0  0  0  0  0  0  0  0  0  0
    1.5505   -0.1120    1.5930 H   0  0  0  0  0  0  0  0  0  0  0  0
    2.4353   -1.1189   -1.1439 H   0  0  0  0  0  0  0  0  0  0  0  0
    2.7091   -1.8269    0.4584 H   0  0  0  0  0  0  0  0  0  0  0  0
    1.2131   -2.1899   -0.4374 H   0  0  0  0  0  0  0  0  0  0  0  0
  1  2  1  0
  2  3  1  0
  2  4  1  0
  4  5  1  0
  4  6  1  0
  6  7  1  0
  7  8  1  0
  8  9  1  0
  8  4  1  0
  1 10  1  0
  1 11  1  0
  1 12  1  0
  2 13  1  0
  3 14  1  0
  5 15  1  0
  5 16  1  0
  5 17  1  0
  7 18  1  0
  7 19  1  0
  8 20  1  0
  9 21  1  0
  9 22  1  0
  9 23  1  0
M  END
