
     RDKit          3D

 21 20  0  0  0  0  0  0  0  0999 V2000
    2.6829   -0.2498   -0.7680 C   0  0  0  0  0  0  0  0  0  0  0  0
    1.4006    0.3804   -0.2672 C   0  0  0  0  0  0  0  0  0  0  0  0
    1.5098    0.6598    1.0870 O   0  0  0  0  0  0  0  0  0  0  0  0
    0.2562   -0.5356   -0.5895 C   0  0  0  0  0  0  0  0  0  0  0  0
   -1.0728    0.0166   -0.1228 C   0  0  0  0  0  0  0  0  0  0  0  0
   -1.1005    0.2345    1.3749 C   0  0  0  0  0  0  0  0  0  0  0  0
   -2.1472   -0.8090   -0.4812 O   0  0  0  0  0  0  0  0  0  0  0  0
   -3.1438   -0.3169   -1.3006 C   0  0  0  0  0  0  0  0  0  0  0  0
   -3.0858    0.8579   -1.7187 O   0  0  0  0  0  0  0  0  0  0  0  0
    3.3950    0.5612   -1.0967 H   0  0  0  0  0  0  0  0  0  0  0  0
    3.1340   -0.8813    0.0248 H   0  0  0  0  0  0  0  0  0  0  0  0
    2.4403   -0.8720   -1.6482 H   0  0  0  0  0  0  0  0  0  0  0  0
    1.3076    1.3553   -0.7886 H   0  0  0  0  0  0  0  0  0  0  0  0
    2.4330    0.8905    1.3511 H   0  0  0  0  0  0  0  0  0  0  0  0
    0.4529   -1.5593   -0.2242 H   0  0  0  0  0  0  0  0  0  0  0  0
    0.1941   -0.6040   -1.6986 H   0  0  0  0  0  0  0  0  0  0  0  0
   -1.2116    1.0026   -0.5919 H   0  0  0  0  0  0  0  0  0  0  0  0
   -0.6847    1.2049    1.6793 H   0  0  0  0  0  0  0  0  0  0  0  0
   -2.1817    0.1761    1.6796 H   0  0  0  0  0  0  0  0  0  0  0  0
   -0.5961   -0.5855    1.9293 H   0  0  0  0  0  0  0  0  0  0  0  0
   -3.9822   -0.9265   -1.5936 H   0  0  0  0  0  0  0  0  0  0  0  0
  1  2  1  0
  2  3  1  0
  2  4  1  0
  4  5  1  0
  5  6  1  0
  5  7  1  0
  7  8  1  0
  8  9  2  0
  1 10  1  0
  1 11  1  0
  1 12  1  0
  2 13  1  0
  3 14  1  0
  4 15  1  0
  4 16  1  0
  5 17  1  0
  6 18  1  0
  6 19  1  0
  6 20  1  0
  8 21  1  0
M  END
