
     RDKit          3D

 17 16  0  0  0  0  0  0  0  0999 V2000
   -0.4649    1.7317   -0.0720 C   0  0  0  0  0  0  0  0  0  0  0  0
   -0.0923    0.2952    0.2819 C   0  0  0  0  0  0  0  0  0  0  0  0
    0.3854    0.2315    1.5743 O   0  0  0  0  0  0  0  0  0  0  0  0
   -1.3410   -0.5361    0.0861 C   0  0  0  0  0  0  0  0  0  0  0  0
   -1.1446   -1.8727    0.3541 O   0  0  0  0  0  0  0  0  0  0  0  0
    0.9084   -0.1443   -0.7052 C   0  0  0  0  0  0  0  0  0  0  0  0
    0.5944   -0.1331   -1.9245 O   0  0  0  0  0  0  0  0  0  0  0  0
    2.2501   -0.5932   -0.3347 C   0  0  0  0  0  0  0  0  0  0  0  0
    2.5955   -0.6160    0.8802 O   0  0  0  0  0  0  0  0  0  0  0  0
    0.1837    2.4241    0.5073 H   0  0  0  0  0  0  0  0  0  0  0  0
   -1.5375    1.8738    0.1749 H   0  0  0  0  0  0  0  0  0  0  0  0
   -0.2572    1.9140   -1.1475 H   0  0  0  0  0  0  0  0  0  0  0  0
    0.0930   -0.5955    2.0539 H   0  0  0  0  0  0  0  0  0  0  0  0
   -2.1406   -0.1628    0.7683 H   0  0  0  0  0  0  0  0  0  0  0  0
   -1.6618   -0.4453   -0.9717 H   0  0  0  0  0  0  0  0  0  0  0  0
   -1.3340   -2.4614   -0.4444 H   0  0  0  0  0  0  0  0  0  0  0  0
    2.9635   -0.9099   -1.0810 H   0  0  0  0  0  0  0  0  0  0  0  0
  1  2  1  0
  2  3  1  0
  2  4  1  0
  4  5  1  0
  2  6  1  0
  6  7  2  0
  6  8  1  0
  8  9  2  0
  1 10  1  0
  1 11  1  0
  1 12  1  0
  3 13  1  0
  4 14  1  0
  4 15  1  0
  5 16  1  0
  8 17  1  0
M  END
