
     RDKit          3D

 21 23  0  0  0  0  0  0  0  0999 V2000
   -2.0901    0.1595    0.8334 C   0  0  0  0  0  0  0  0  0  0  0  0
   -1.2416    0.3336   -0.3774 C   0  0  0  0  0  0  0  0  0  0  0  0
   -1.7986   -0.4891   -1.3871 O   0  0  0  0  0  0  0  0  0  0  0  0
    0.1665    0.0402   -0.2506 C   0  0  0  0  0  0  0  0  0  0  0  0
    0.5817   -1.3710    0.1566 C   0  0  0  0  0  0  0  0  0  0  0  0
    1.8102   -0.6575    0.7620 C   0  0  0  0  0  0  0  0  0  0  0  0
    2.2104    0.4282   -0.1651 C   0  0  0  0  0  0  0  0  0  0  0  0
    1.1368    0.6437   -1.2438 C   0  0  0  0  0  0  0  0  0  0  0  0
    1.0127    0.5260    0.8327 C   0  0  0  0  0  0  0  0  0  0  0  0
   -2.5268   -0.8715    0.8918 H   0  0  0  0  0  0  0  0  0  0  0  0
   -2.9617    0.8518    0.8099 H   0  0  0  0  0  0  0  0  0  0  0  0
   -1.5259    0.3064    1.7821 H   0  0  0  0  0  0  0  0  0  0  0  0
   -1.3845    1.3686   -0.7523 H   0  0  0  0  0  0  0  0  0  0  0  0
   -2.7741   -0.4132   -1.3825 H   0  0  0  0  0  0  0  0  0  0  0  0
    0.8829   -1.9319   -0.7409 H   0  0  0  0  0  0  0  0  0  0  0  0
   -0.0626   -1.8491    0.8810 H   0  0  0  0  0  0  0  0  0  0  0  0
    2.4283   -1.1396    1.4835 H   0  0  0  0  0  0  0  0  0  0  0  0
    2.9964    1.1380   -0.0118 H   0  0  0  0  0  0  0  0  0  0  0  0
    0.9652    1.6796   -1.5108 H   0  0  0  0  0  0  0  0  0  0  0  0
    1.2487   -0.0819   -2.0980 H   0  0  0  0  0  0  0  0  0  0  0  0
    0.9259    1.3293    1.4873 H   0  0  0  0  0  0  0  0  0  0  0  0
  1  2  1  0
  2  3  1  0
  2  4  1  0
  4  5  1  0
  5  6  1  0
  6  7  1  0
  7  8  1  0
  7  9  1  0
  8  4  1  0
  9  4  1  0
  9  6  1  0
  1 10  1  0
  1 11  1  0
  1 12  1  0
  2 13  1  0
  3 14  1  0
  5 15  1  0
  5 16  1  0
  6 17  1  0
  7 18  1  0
  8 19  1  0
  8 20  1  0
  9 21  1  0
M  END
