
     RDKit          3D

 25 25  0  0  0  0  0  0  0  0999 V2000
   -1.6557   -0.8409   -1.4828 C   0  0  0  0  0  0  0  0  0  0  0  0
   -1.3413   -0.8281   -0.0050 C   0  0  0  0  0  0  0  0  0  0  0  0
   -2.5432   -0.5244    0.6777 O   0  0  0  0  0  0  0  0  0  0  0  0
   -0.3500    0.2347    0.3585 C   0  0  0  0  0  0  0  0  0  0  0  0
   -0.8110    1.6331    0.0278 C   0  0  0  0  0  0  0  0  0  0  0  0
    0.4270   -0.0256    1.6045 C   0  0  0  0  0  0  0  0  0  0  0  0
    1.1018   -0.0099    0.2910 C   0  0  0  0  0  0  0  0  0  0  0  0
    1.5202   -1.2917   -0.3921 C   0  0  0  0  0  0  0  0  0  0  0  0
    2.0852    1.1046    0.0826 C   0  0  0  0  0  0  0  0  0  0  0  0
   -2.0362   -1.8696   -1.7390 H   0  0  0  0  0  0  0  0  0  0  0  0
   -2.4600   -0.0699   -1.6424 H   0  0  0  0  0  0  0  0  0  0  0  0
   -0.7852   -0.6686   -2.1225 H   0  0  0  0  0  0  0  0  0  0  0  0
   -1.0587   -1.8397    0.3540 H   0  0  0  0  0  0  0  0  0  0  0  0
   -2.3484    0.0568    1.4684 H   0  0  0  0  0  0  0  0  0  0  0  0
   -0.9684    1.6530   -1.0862 H   0  0  0  0  0  0  0  0  0  0  0  0
   -1.7951    1.7993    0.5182 H   0  0  0  0  0  0  0  0  0  0  0  0
   -0.0738    2.4037    0.2469 H   0  0  0  0  0  0  0  0  0  0  0  0
    0.5668    0.8226    2.3039 H   0  0  0  0  0  0  0  0  0  0  0  0
    0.3373   -1.0083    2.0981 H   0  0  0  0  0  0  0  0  0  0  0  0
    2.5819   -1.5569   -0.1540 H   0  0  0  0  0  0  0  0  0  0  0  0
    0.9155   -2.1609   -0.1072 H   0  0  0  0  0  0  0  0  0  0  0  0
    1.4912   -1.0850   -1.4866 H   0  0  0  0  0  0  0  0  0  0  0  0
    3.0829    0.7142    0.4390 H   0  0  0  0  0  0  0  0  0  0  0  0
    2.2417    1.3668   -0.9787 H   0  0  0  0  0  0  0  0  0  0  0  0
    1.8757    1.9906    0.7262 H   0  0  0  0  0  0  0  0  0  0  0  0
  1  2  1  0
  2  3  1  0
  2  4  1  0
  4  5  1  0
  4  6  1  0
  6  7  1  0
  7  8  1  0
  7  9  1  0
  7  4  1  0
  1 10  1  0
  1 11  1  0
  1 12  1  0
  2 13  1  0
  3 14  1  0
  5 15  1  0
  5 16  1  0
  5 17  1  0
  6 18  1  0
  6 19  1  0
  8 20  1  0
  8 21  1  0
  8 22  1  0
  9 23  1  0
  9 24  1  0
  9 25  1  0
M  END
