
     RDKit          3D

 19 19  0  0  0  0  0  0  0  0999 V2000
   -0.4093    1.4744   -0.2203 C   0  0  0  0  0  0  0  0  0  0  0  0
   -0.6662    0.0235   -0.4360 C   0  0  0  0  0  0  0  0  0  0  0  0
   -1.7649   -0.3338    0.4160 O   0  0  0  0  0  0  0  0  0  0  0  0
   -2.9007   -0.8169   -0.1714 C   0  0  0  0  0  0  0  0  0  0  0  0
   -2.9582   -0.9355   -1.4175 O   0  0  0  0  0  0  0  0  0  0  0  0
    0.4807   -0.8610   -0.0346 C   0  0  0  0  0  0  0  0  0  0  0  0
    1.8059   -0.3648   -0.5734 C   0  0  0  0  0  0  0  0  0  0  0  0
    1.9868    0.0366    0.8585 C   0  0  0  0  0  0  0  0  0  0  0  0
    0.8950   -0.7378    1.2805 O   0  0  0  0  0  0  0  0  0  0  0  0
   -1.2922    2.0257   -0.6610 H   0  0  0  0  0  0  0  0  0  0  0  0
   -0.4089    1.7739    0.8549 H   0  0  0  0  0  0  0  0  0  0  0  0
    0.4714    1.8826   -0.7280 H   0  0  0  0  0  0  0  0  0  0  0  0
   -0.8946   -0.1466   -1.4960 H   0  0  0  0  0  0  0  0  0  0  0  0
   -3.7345   -1.0872    0.4863 H   0  0  0  0  0  0  0  0  0  0  0  0
    0.3163   -1.9196   -0.3237 H   0  0  0  0  0  0  0  0  0  0  0  0
    2.4668   -1.1988   -0.9164 H   0  0  0  0  0  0  0  0  0  0  0  0
    1.7577    0.4206   -1.3251 H   0  0  0  0  0  0  0  0  0  0  0  0
    1.8894    1.1161    1.0598 H   0  0  0  0  0  0  0  0  0  0  0  0
    2.9593   -0.3515    1.2685 H   0  0  0  0  0  0  0  0  0  0  0  0
  1  2  1  0
  2  3  1  0
  3  4  1  0
  4  5  2  0
  2  6  1  0
  6  7  1  0
  7  8  1  0
  8  9  1  0
  9  6  1  0
  1 10  1  0
  1 11  1  0
  1 12  1  0
  2 13  1  0
  4 14  1  0
  6 15  1  0
  7 16  1  0
  7 17  1  0
  8 18  1  0
  8 19  1  0
M  END
