
     RDKit          3D

 17 17  0  0  0  0  0  0  0  0999 V2000
   -2.1668   -0.7382   -0.1114 C   0  0  0  0  0  0  0  0  0  0  0  0
   -1.2151    0.4049   -0.0797 C   0  0  0  0  0  0  0  0  0  0  0  0
   -1.2912    1.1727   -1.2217 O   0  0  0  0  0  0  0  0  0  0  0  0
    0.1836   -0.0383    0.2433 C   0  0  0  0  0  0  0  0  0  0  0  0
    1.0485    1.0336    0.4465 O   0  0  0  0  0  0  0  0  0  0  0  0
    2.2751    0.3421    0.5972 C   0  0  0  0  0  0  0  0  0  0  0  0
    2.1808   -0.5983   -0.5660 C   0  0  0  0  0  0  0  0  0  0  0  0
    3.1425   -1.1143   -1.1422 O   0  0  0  0  0  0  0  0  0  0  0  0
    0.8049   -0.7254   -0.8069 O   0  0  0  0  0  0  0  0  0  0  0  0
   -3.1536   -0.3602   -0.5058 H   0  0  0  0  0  0  0  0  0  0  0  0
   -1.8215   -1.5921   -0.7319 H   0  0  0  0  0  0  0  0  0  0  0  0
   -2.3658   -1.1604    0.8983 H   0  0  0  0  0  0  0  0  0  0  0  0
   -1.5342    1.0756    0.7711 H   0  0  0  0  0  0  0  0  0  0  0  0
   -1.5635    2.1073   -1.0710 H   0  0  0  0  0  0  0  0  0  0  0  0
    0.1562   -0.6053    1.1880 H   0  0  0  0  0  0  0  0  0  0  0  0
    2.1833   -0.2115    1.5543 H   0  0  0  0  0  0  0  0  0  0  0  0
    3.1370    1.0078    0.5377 H   0  0  0  0  0  0  0  0  0  0  0  0
  1  2  1  0
  2  3  1  0
  2  4  1  0
  4  5  1  0
  5  6  1  0
  6  7  1  0
  7  8  2  0
  7  9  1  0
  9  4  1  0
  1 10  1  0
  1 11  1  0
  1 12  1  0
  2 13  1  0
  3 14  1  0
  4 15  1  0
  6 16  1  0
  6 17  1  0
M  END
