
     RDKit          3D

 23 23  0  0  0  0  0  0  0  0999 V2000
    1.9825    0.6820    0.8543 C   0  0  0  0  0  0  0  0  0  0  0  0
    1.4764   -0.4952    0.0495 C   0  0  0  0  0  0  0  0  0  0  0  0
    2.3334   -0.6174   -1.0545 O   0  0  0  0  0  0  0  0  0  0  0  0
    0.0945   -0.2480   -0.4918 C   0  0  0  0  0  0  0  0  0  0  0  0
   -0.4092   -1.4232   -1.2954 C   0  0  0  0  0  0  0  0  0  0  0  0
   -0.9212    0.0463    0.5737 C   0  0  0  0  0  0  0  0  0  0  0  0
   -2.2811    0.2777   -0.1006 C   0  0  0  0  0  0  0  0  0  0  0  0
   -1.8061    1.5862   -0.3613 O   0  0  0  0  0  0  0  0  0  0  0  0
   -1.1658    1.4823    0.8970 C   0  0  0  0  0  0  0  0  0  0  0  0
    3.0650    0.5926    1.0786 H   0  0  0  0  0  0  0  0  0  0  0  0
    1.4715    0.7610    1.8323 H   0  0  0  0  0  0  0  0  0  0  0  0
    1.8813    1.5998    0.2318 H   0  0  0  0  0  0  0  0  0  0  0  0
    1.5405   -1.4432    0.5987 H   0  0  0  0  0  0  0  0  0  0  0  0
    3.0545   -1.2707   -0.8724 H   0  0  0  0  0  0  0  0  0  0  0  0
    0.1531    0.6539   -1.1481 H   0  0  0  0  0  0  0  0  0  0  0  0
    0.3945   -2.1713   -1.4604 H   0  0  0  0  0  0  0  0  0  0  0  0
   -1.2204   -1.9761   -0.7446 H   0  0  0  0  0  0  0  0  0  0  0  0
   -0.7641   -1.0872   -2.2823 H   0  0  0  0  0  0  0  0  0  0  0  0
   -1.0357   -0.6823    1.3722 H   0  0  0  0  0  0  0  0  0  0  0  0
   -3.1127    0.3616    0.6201 H   0  0  0  0  0  0  0  0  0  0  0  0
   -2.4482   -0.3287   -0.9931 H   0  0  0  0  0  0  0  0  0  0  0  0
   -1.9677    1.5570    1.6726 H   0  0  0  0  0  0  0  0  0  0  0  0
   -0.3152    2.1431    1.0238 H   0  0  0  0  0  0  0  0  0  0  0  0
  1  2  1  0
  2  3  1  0
  2  4  1  0
  4  5  1  0
  4  6  1  0
  6  7  1  0
  7  8  1  0
  8  9  1  0
  9  6  1  0
  1 10  1  0
  1 11  1  0
  1 12  1  0
  2 13  1  0
  3 14  1  0
  4 15  1  0
  5 16  1  0
  5 17  1  0
  5 18  1  0
  6 19  1  0
  7 20  1  0
  7 21  1  0
  9 22  1  0
  9 23  1  0
M  END
