
     RDKit          3D

 19 21  0  0  0  0  0  0  0  0999 V2000
   -1.8623    0.9964   -0.0023 C   0  0  0  0  0  0  0  0  0  0  0  0
   -1.4077   -0.2849   -0.6694 C   0  0  0  0  0  0  0  0  0  0  0  0
   -2.1621   -1.3698   -0.2435 O   0  0  0  0  0  0  0  0  0  0  0  0
    0.0634   -0.5005   -0.5459 C   0  0  0  0  0  0  0  0  0  0  0  0
    0.6636   -0.6077    0.8018 C   0  0  0  0  0  0  0  0  0  0  0  0
    2.1288   -0.6882    1.0067 C   0  0  0  0  0  0  0  0  0  0  0  0
    2.8924    0.4264    1.2991 O   0  0  0  0  0  0  0  0  0  0  0  0
    2.3285    0.4555    0.0431 C   0  0  0  0  0  0  0  0  0  0  0  0
    0.8366    0.6381    0.0145 C   0  0  0  0  0  0  0  0  0  0  0  0
   -1.5042    0.9792    1.0396 H   0  0  0  0  0  0  0  0  0  0  0  0
   -2.9631    1.0431   -0.0173 H   0  0  0  0  0  0  0  0  0  0  0  0
   -1.4278    1.8374   -0.5940 H   0  0  0  0  0  0  0  0  0  0  0  0
   -1.6484   -0.1562   -1.7639 H   0  0  0  0  0  0  0  0  0  0  0  0
   -2.4827   -1.2463    0.6666 H   0  0  0  0  0  0  0  0  0  0  0  0
    0.5448   -1.0042   -1.4211 H   0  0  0  0  0  0  0  0  0  0  0  0
    0.0448   -0.6627    1.7035 H   0  0  0  0  0  0  0  0  0  0  0  0
    2.6978   -1.6242    0.8717 H   0  0  0  0  0  0  0  0  0  0  0  0
    2.8818    0.1970   -0.8572 H   0  0  0  0  0  0  0  0  0  0  0  0
    0.3757    1.5716    0.3327 H   0  0  0  0  0  0  0  0  0  0  0  0
  1  2  1  0
  2  3  1  0
  2  4  1  0
  4  5  1  0
  5  6  1  0
  6  7  1  0
  7  8  1  0
  8  9  1  0
  9  4  1  0
  9  5  1  0
  8  6  1  0
  1 10  1  0
  1 11  1  0
  1 12  1  0
  2 13  1  0
  3 14  1  0
  4 15  1  0
  5 16  1  0
  6 17  1  0
  8 18  1  0
  9 19  1  0
M  END
