
     RDKit          3D

 19 19  0  0  0  0  0  0  0  0999 V2000
   -3.2398   -0.3192    0.9643 C   0  0  0  0  0  0  0  0  0  0  0  0
   -2.4803   -0.6884   -0.2916 C   0  0  0  0  0  0  0  0  0  0  0  0
   -2.7090   -2.0124   -0.6466 O   0  0  0  0  0  0  0  0  0  0  0  0
   -1.0334   -0.4815   -0.1164 C   0  0  0  0  0  0  0  0  0  0  0  0
    0.1621   -0.3008    0.0199 C   0  0  0  0  0  0  0  0  0  0  0  0
    1.6079   -0.0961    0.1779 C   0  0  0  0  0  0  0  0  0  0  0  0
    1.9462    0.9940    0.9446 O   0  0  0  0  0  0  0  0  0  0  0  0
    2.1714    1.1983   -0.3939 C   0  0  0  0  0  0  0  0  0  0  0  0
    3.5993    1.0754   -0.9251 C   0  0  0  0  0  0  0  0  0  0  0  0
   -3.7324    0.6607    0.8733 H   0  0  0  0  0  0  0  0  0  0  0  0
   -2.6068   -0.3736    1.8660 H   0  0  0  0  0  0  0  0  0  0  0  0
   -4.0555   -1.0761    1.0691 H   0  0  0  0  0  0  0  0  0  0  0  0
   -2.8916   -0.0592   -1.1081 H   0  0  0  0  0  0  0  0  0  0  0  0
   -2.2606   -2.6499   -0.0221 H   0  0  0  0  0  0  0  0  0  0  0  0
    2.2667   -0.9977    0.1495 H   0  0  0  0  0  0  0  0  0  0  0  0
    1.5018    1.9046   -0.8904 H   0  0  0  0  0  0  0  0  0  0  0  0
    4.0772    0.1523   -0.5885 H   0  0  0  0  0  0  0  0  0  0  0  0
    3.5462    1.0692   -2.0469 H   0  0  0  0  0  0  0  0  0  0  0  0
    4.1307    2.0002   -0.6571 H   0  0  0  0  0  0  0  0  0  0  0  0
  1  2  1  0
  2  3  1  0
  2  4  1  0
  4  5  3  0
  5  6  1  0
  6  7  1  0
  7  8  1  0
  8  9  1  0
  8  6  1  0
  1 10  1  0
  1 11  1  0
  1 12  1  0
  2 13  1  0
  3 14  1  0
  6 15  1  0
  8 16  1  0
  9 17  1  0
  9 18  1  0
  9 19  1  0
M  END
