
     RDKit          3D

 18 19  0  0  0  0  0  0  0  0999 V2000
    1.3897    1.0466   -0.5270 C   0  0  0  0  0  0  0  0  0  0  0  0
    0.8625   -0.3563   -0.6453 C   0  0  0  0  0  0  0  0  0  0  0  0
    1.6997   -1.1726    0.1194 O   0  0  0  0  0  0  0  0  0  0  0  0
   -0.5297   -0.5243   -0.1446 C   0  0  0  0  0  0  0  0  0  0  0  0
   -1.6021    0.2841   -0.8050 C   0  0  0  0  0  0  0  0  0  0  0  0
   -2.2708    0.5020    0.4118 O   0  0  0  0  0  0  0  0  0  0  0  0
   -1.0492    0.1862    1.0430 C   0  0  0  0  0  0  0  0  0  0  0  0
   -0.7441   -1.2440    1.1251 C   0  0  0  0  0  0  0  0  0  0  0  0
    2.3826    1.0592   -1.0334 H   0  0  0  0  0  0  0  0  0  0  0  0
    0.7623    1.7894   -1.0563 H   0  0  0  0  0  0  0  0  0  0  0  0
    1.5890    1.3243    0.5341 H   0  0  0  0  0  0  0  0  0  0  0  0
    0.9199   -0.6533   -1.7102 H   0  0  0  0  0  0  0  0  0  0  0  0
    1.9240   -0.7196    0.9662 H   0  0  0  0  0  0  0  0  0  0  0  0
   -1.2336    1.2875   -1.1603 H   0  0  0  0  0  0  0  0  0  0  0  0
   -2.2092   -0.2621   -1.5620 H   0  0  0  0  0  0  0  0  0  0  0  0
   -0.4804    0.9792    1.5228 H   0  0  0  0  0  0  0  0  0  0  0  0
   -1.5868   -1.9529    1.2680 H   0  0  0  0  0  0  0  0  0  0  0  0
    0.1760   -1.5732    1.6536 H   0  0  0  0  0  0  0  0  0  0  0  0
  1  2  1  0
  2  3  1  0
  2  4  1  0
  4  5  1  0
  5  6  1  0
  6  7  1  0
  7  8  1  0
  7  4  1  0
  8  4  1  0
  1  9  1  0
  1 10  1  0
  1 11  1  0
  2 12  1  0
  3 13  1  0
  5 14  1  0
  5 15  1  0
  7 16  1  0
  8 17  1  0
  8 18  1  0
M  END
