
     RDKit          3D

 25 25  0  0  0  0  0  0  0  0999 V2000
   -2.6330    0.2292   -0.5600 C   0  0  0  0  0  0  0  0  0  0  0  0
   -2.0941   -0.6290    0.5627 C   0  0  0  0  0  0  0  0  0  0  0  0
   -3.2283   -1.2377    1.1534 O   0  0  0  0  0  0  0  0  0  0  0  0
   -1.3234    0.1597    1.5644 C   0  0  0  0  0  0  0  0  0  0  0  0
   -0.1472    0.8459    0.9270 C   0  0  0  0  0  0  0  0  0  0  0  0
    0.7751   -0.1789    0.3193 C   0  0  0  0  0  0  0  0  0  0  0  0
    1.9601    0.5184   -0.3118 C   0  0  0  0  0  0  0  0  0  0  0  0
    2.9622   -0.3949   -0.9572 C   0  0  0  0  0  0  0  0  0  0  0  0
    3.3172    0.3713    0.2515 C   0  0  0  0  0  0  0  0  0  0  0  0
   -1.8274    0.6308   -1.2023 H   0  0  0  0  0  0  0  0  0  0  0  0
   -3.2028    1.0676   -0.1095 H   0  0  0  0  0  0  0  0  0  0  0  0
   -3.2591   -0.4274   -1.2001 H   0  0  0  0  0  0  0  0  0  0  0  0
   -1.4646   -1.4531    0.1786 H   0  0  0  0  0  0  0  0  0  0  0  0
   -3.4188   -2.0636    0.6398 H   0  0  0  0  0  0  0  0  0  0  0  0
   -1.9505    0.8736    2.1398 H   0  0  0  0  0  0  0  0  0  0  0  0
   -0.9403   -0.5730    2.3304 H   0  0  0  0  0  0  0  0  0  0  0  0
    0.4162    1.3462    1.7474 H   0  0  0  0  0  0  0  0  0  0  0  0
   -0.5140    1.5679    0.1774 H   0  0  0  0  0  0  0  0  0  0  0  0
    1.0367   -0.9696    1.0176 H   0  0  0  0  0  0  0  0  0  0  0  0
    0.2390   -0.6633   -0.5495 H   0  0  0  0  0  0  0  0  0  0  0  0
    1.7086    1.4809   -0.7723 H   0  0  0  0  0  0  0  0  0  0  0  0
    3.2637   -0.0803   -1.9755 H   0  0  0  0  0  0  0  0  0  0  0  0
    2.8590   -1.4848   -0.8280 H   0  0  0  0  0  0  0  0  0  0  0  0
    4.0294    1.2221    0.1212 H   0  0  0  0  0  0  0  0  0  0  0  0
    3.4363   -0.1580    1.2053 H   0  0  0  0  0  0  0  0  0  0  0  0
  1  2  1  0
  2  3  1  0
  2  4  1  0
  4  5  1  0
  5  6  1  0
  6  7  1  0
  7  8  1  0
  8  9  1  0
  9  7  1  0
  1 10  1  0
  1 11  1  0
  1 12  1  0
  2 13  1  0
  3 14  1  0
  4 15  1  0
  4 16  1  0
  5 17  1  0
  5 18  1  0
  6 19  1  0
  6 20  1  0
  7 21  1  0
  8 22  1  0
  8 23  1  0
  9 24  1  0
  9 25  1  0
M  END
