
     RDKit          3D

 25 25  0  0  0  0  0  0  0  0999 V2000
    2.4419    0.3395   -0.7132 C   0  0  0  0  0  0  0  0  0  0  0  0
    1.5574    0.1972    0.5118 C   0  0  0  0  0  0  0  0  0  0  0  0
    2.2004   -0.5507    1.5035 O   0  0  0  0  0  0  0  0  0  0  0  0
    0.2914   -0.5047    0.1530 C   0  0  0  0  0  0  0  0  0  0  0  0
   -0.6473   -0.6869    1.3215 C   0  0  0  0  0  0  0  0  0  0  0  0
   -1.8808   -1.2055    0.6154 C   0  0  0  0  0  0  0  0  0  0  0  0
   -1.9003   -0.4948   -0.6959 C   0  0  0  0  0  0  0  0  0  0  0  0
   -0.5316    0.1299   -0.8970 C   0  0  0  0  0  0  0  0  0  0  0  0
   -0.6861    1.6086   -0.8301 C   0  0  0  0  0  0  0  0  0  0  0  0
    1.8407    0.7562   -1.5374 H   0  0  0  0  0  0  0  0  0  0  0  0
    3.2088    1.1222   -0.4586 H   0  0  0  0  0  0  0  0  0  0  0  0
    2.9254   -0.6224   -0.9810 H   0  0  0  0  0  0  0  0  0  0  0  0
    1.4239    1.2083    0.9153 H   0  0  0  0  0  0  0  0  0  0  0  0
    2.0627   -0.1328    2.4021 H   0  0  0  0  0  0  0  0  0  0  0  0
    0.5598   -1.5265   -0.1936 H   0  0  0  0  0  0  0  0  0  0  0  0
   -0.8336    0.2457    1.8820 H   0  0  0  0  0  0  0  0  0  0  0  0
   -0.2641   -1.4796    2.0200 H   0  0  0  0  0  0  0  0  0  0  0  0
   -1.6959   -2.2978    0.4392 H   0  0  0  0  0  0  0  0  0  0  0  0
   -2.8004   -1.0691    1.2139 H   0  0  0  0  0  0  0  0  0  0  0  0
   -2.1022   -1.2345   -1.5066 H   0  0  0  0  0  0  0  0  0  0  0  0
   -2.7048    0.2790   -0.7187 H   0  0  0  0  0  0  0  0  0  0  0  0
   -0.1398   -0.1376   -1.9029 H   0  0  0  0  0  0  0  0  0  0  0  0
   -0.9681    1.9608   -1.8498 H   0  0  0  0  0  0  0  0  0  0  0  0
    0.1892    2.1693   -0.5205 H   0  0  0  0  0  0  0  0  0  0  0  0
   -1.5465    1.9261   -0.1724 H   0  0  0  0  0  0  0  0  0  0  0  0
  1  2  1  0
  2  3  1  0
  2  4  1  0
  4  5  1  0
  5  6  1  0
  6  7  1  0
  7  8  1  0
  8  9  1  0
  8  4  1  0
  1 10  1  0
  1 11  1  0
  1 12  1  0
  2 13  1  0
  3 14  1  0
  4 15  1  0
  5 16  1  0
  5 17  1  0
  6 18  1  0
  6 19  1  0
  7 20  1  0
  7 21  1  0
  8 22  1  0
  9 23  1  0
  9 24  1  0
  9 25  1  0
M  END
