
     RDKit          3D

 23 23  0  0  0  0  0  0  0  0999 V2000
    2.3249   -0.7415    0.0837 C   0  0  0  0  0  0  0  0  0  0  0  0
    1.4827    0.4981   -0.0485 C   0  0  0  0  0  0  0  0  0  0  0  0
    1.3694    0.7788   -1.4165 O   0  0  0  0  0  0  0  0  0  0  0  0
    0.1353    0.3493    0.5950 C   0  0  0  0  0  0  0  0  0  0  0  0
   -0.6430   -0.7651   -0.0132 C   0  0  0  0  0  0  0  0  0  0  0  0
   -1.6237   -1.4698    0.8862 C   0  0  0  0  0  0  0  0  0  0  0  0
   -1.3745    0.2699   -0.8570 C   0  0  0  0  0  0  0  0  0  0  0  0
   -0.9153    1.3140    0.1400 C   0  0  0  0  0  0  0  0  0  0  0  0
   -0.4426    2.4766   -0.4602 O   0  0  0  0  0  0  0  0  0  0  0  0
    1.8729   -1.6454   -0.3204 H   0  0  0  0  0  0  0  0  0  0  0  0
    2.6714   -0.9015    1.1319 H   0  0  0  0  0  0  0  0  0  0  0  0
    3.2604   -0.5475   -0.5185 H   0  0  0  0  0  0  0  0  0  0  0  0
    2.0671    1.3412    0.3865 H   0  0  0  0  0  0  0  0  0  0  0  0
    1.4358   -0.0403   -1.9694 H   0  0  0  0  0  0  0  0  0  0  0  0
    0.2365    0.3392    1.7001 H   0  0  0  0  0  0  0  0  0  0  0  0
   -0.1297   -1.4682   -0.6643 H   0  0  0  0  0  0  0  0  0  0  0  0
   -1.2895   -2.5185    1.0263 H   0  0  0  0  0  0  0  0  0  0  0  0
   -1.7304   -0.9769    1.8761 H   0  0  0  0  0  0  0  0  0  0  0  0
   -2.5982   -1.5219    0.3571 H   0  0  0  0  0  0  0  0  0  0  0  0
   -2.4615    0.1623   -0.8486 H   0  0  0  0  0  0  0  0  0  0  0  0
   -0.9303    0.3799   -1.8656 H   0  0  0  0  0  0  0  0  0  0  0  0
   -1.6766    1.4705    0.9325 H   0  0  0  0  0  0  0  0  0  0  0  0
   -1.0410    3.2167   -0.1333 H   0  0  0  0  0  0  0  0  0  0  0  0
  1  2  1  0
  2  3  1  0
  2  4  1  0
  4  5  1  0
  5  6  1  0
  5  7  1  0
  7  8  1  0
  8  9  1  0
  8  4  1  0
  1 10  1  0
  1 11  1  0
  1 12  1  0
  2 13  1  0
  3 14  1  0
  4 15  1  0
  5 16  1  0
  6 17  1  0
  6 18  1  0
  6 19  1  0
  7 20  1  0
  7 21  1  0
  8 22  1  0
  9 23  1  0
M  END
