
     RDKit          3D

 19 20  0  0  0  0  0  0  0  0999 V2000
   -1.6880   -0.5618   -0.8482 C   0  0  0  0  0  0  0  0  0  0  0  0
   -1.1826    0.2790    0.2844 C   0  0  0  0  0  0  0  0  0  0  0  0
   -1.5456    1.5928    0.0663 O   0  0  0  0  0  0  0  0  0  0  0  0
    0.2998    0.1392    0.5006 C   0  0  0  0  0  0  0  0  0  0  0  0
    0.6784    0.8960    1.6213 O   0  0  0  0  0  0  0  0  0  0  0  0
    1.1728    0.5107   -0.6656 C   0  0  0  0  0  0  0  0  0  0  0  0
    1.9562   -0.7540   -0.3993 C   0  0  0  0  0  0  0  0  0  0  0  0
    1.2529   -1.9101   -0.5982 O   0  0  0  0  0  0  0  0  0  0  0  0
    0.8360   -1.2419    0.5314 C   0  0  0  0  0  0  0  0  0  0  0  0
   -1.2992   -0.1370   -1.7952 H   0  0  0  0  0  0  0  0  0  0  0  0
   -2.7949   -0.5459   -0.8338 H   0  0  0  0  0  0  0  0  0  0  0  0
   -1.3939   -1.6237   -0.7107 H   0  0  0  0  0  0  0  0  0  0  0  0
   -1.6786   -0.0540    1.2217 H   0  0  0  0  0  0  0  0  0  0  0  0
   -1.6335    2.1302    0.8900 H   0  0  0  0  0  0  0  0  0  0  0  0
    0.4916    1.8620    1.4348 H   0  0  0  0  0  0  0  0  0  0  0  0
    0.6583    0.4170   -1.6446 H   0  0  0  0  0  0  0  0  0  0  0  0
    1.7598    1.4432   -0.5370 H   0  0  0  0  0  0  0  0  0  0  0  0
    2.9652   -0.7178   -0.0091 H   0  0  0  0  0  0  0  0  0  0  0  0
    1.1453   -1.7239    1.4911 H   0  0  0  0  0  0  0  0  0  0  0  0
  1  2  1  0
  2  3  1  0
  2  4  1  0
  4  5  1  0
  4  6  1  0
  6  7  1  0
  7  8  1  0
  8  9  1  0
  9  4  1  0
  9  7  1  0
  1 10  1  0
  1 11  1  0
  1 12  1  0
  2 13  1  0
  3 14  1  0
  5 15  1  0
  6 16  1  0
  6 17  1  0
  7 18  1  0
  9 19  1  0
M  END
