
     RDKit          3D

 19 19  0  0  0  0  0  0  0  0999 V2000
   -2.1257   -0.5024   -0.4556 C   0  0  0  0  0  0  0  0  0  0  0  0
   -1.5272    0.5547    0.4748 C   0  0  0  0  0  0  0  0  0  0  0  0
   -2.2259    1.7393    0.3115 O   0  0  0  0  0  0  0  0  0  0  0  0
   -0.0991    0.7528    0.1237 C   0  0  0  0  0  0  0  0  0  0  0  0
    0.2592    1.8562   -0.2404 O   0  0  0  0  0  0  0  0  0  0  0  0
    0.9061   -0.3277    0.1960 C   0  0  0  0  0  0  0  0  0  0  0  0
    0.4041   -1.5663    0.6256 O   0  0  0  0  0  0  0  0  0  0  0  0
    1.9284   -0.3407   -0.9259 C   0  0  0  0  0  0  0  0  0  0  0  0
    2.3352   -0.0293    0.4647 C   0  0  0  0  0  0  0  0  0  0  0  0
   -1.8100   -1.5035   -0.1209 H   0  0  0  0  0  0  0  0  0  0  0  0
   -1.7947   -0.2434   -1.4709 H   0  0  0  0  0  0  0  0  0  0  0  0
   -3.2301   -0.4643   -0.3318 H   0  0  0  0  0  0  0  0  0  0  0  0
   -1.6471    0.2359    1.5397 H   0  0  0  0  0  0  0  0  0  0  0  0
   -1.8239    2.3122   -0.3873 H   0  0  0  0  0  0  0  0  0  0  0  0
    0.8628   -1.8354    1.4775 H   0  0  0  0  0  0  0  0  0  0  0  0
    2.0905   -1.3316   -1.3719 H   0  0  0  0  0  0  0  0  0  0  0  0
    1.9422    0.5223   -1.6355 H   0  0  0  0  0  0  0  0  0  0  0  0
    2.6539    0.9948    0.7331 H   0  0  0  0  0  0  0  0  0  0  0  0
    2.9014   -0.8236    0.9934 H   0  0  0  0  0  0  0  0  0  0  0  0
  1  2  1  0
  2  3  1  0
  2  4  1  0
  4  5  2  0
  4  6  1  0
  6  7  1  0
  6  8  1  0
  8  9  1  0
  9  6  1  0
  1 10  1  0
  1 11  1  0
  1 12  1  0
  2 13  1  0
  3 14  1  0
  7 15  1  0
  8 16  1  0
  8 17  1  0
  9 18  1  0
  9 19  1  0
M  END
