
     RDKit          3D

 25 25  0  0  0  0  0  0  0  0999 V2000
    2.5409   -0.0032   -0.5121 C   0  0  0  0  0  0  0  0  0  0  0  0
    1.4978   -0.6776    0.3511 C   0  0  0  0  0  0  0  0  0  0  0  0
    1.6331   -0.3522    1.6892 O   0  0  0  0  0  0  0  0  0  0  0  0
    0.1159   -0.3039   -0.1730 C   0  0  0  0  0  0  0  0  0  0  0  0
   -1.0222   -0.9063    0.5931 C   0  0  0  0  0  0  0  0  0  0  0  0
   -1.9466   -1.7242   -0.2735 C   0  0  0  0  0  0  0  0  0  0  0  0
   -1.5155    0.4730    0.9297 C   0  0  0  0  0  0  0  0  0  0  0  0
   -0.3089    1.0946    0.2640 C   0  0  0  0  0  0  0  0  0  0  0  0
   -0.6318    1.9325   -0.9586 C   0  0  0  0  0  0  0  0  0  0  0  0
    3.5495   -0.1687   -0.0884 H   0  0  0  0  0  0  0  0  0  0  0  0
    2.2722    1.0675   -0.5590 H   0  0  0  0  0  0  0  0  0  0  0  0
    2.4361   -0.4268   -1.5278 H   0  0  0  0  0  0  0  0  0  0  0  0
    1.6048   -1.7832    0.2307 H   0  0  0  0  0  0  0  0  0  0  0  0
    2.5138    0.0939    1.7905 H   0  0  0  0  0  0  0  0  0  0  0  0
    0.0574   -0.4778   -1.2675 H   0  0  0  0  0  0  0  0  0  0  0  0
   -0.7177   -1.4839    1.5061 H   0  0  0  0  0  0  0  0  0  0  0  0
   -1.7167   -1.5431   -1.3531 H   0  0  0  0  0  0  0  0  0  0  0  0
   -1.7796   -2.8192   -0.1155 H   0  0  0  0  0  0  0  0  0  0  0  0
   -2.9984   -1.4314   -0.1155 H   0  0  0  0  0  0  0  0  0  0  0  0
   -1.5098    0.6713    2.0256 H   0  0  0  0  0  0  0  0  0  0  0  0
   -2.4875    0.7233    0.4487 H   0  0  0  0  0  0  0  0  0  0  0  0
    0.3973    1.6004    0.9278 H   0  0  0  0  0  0  0  0  0  0  0  0
   -1.4008    1.4691   -1.5843 H   0  0  0  0  0  0  0  0  0  0  0  0
   -0.8809    2.9777   -0.6608 H   0  0  0  0  0  0  0  0  0  0  0  0
    0.2974    1.9981   -1.5674 H   0  0  0  0  0  0  0  0  0  0  0  0
  1  2  1  0
  2  3  1  0
  2  4  1  0
  4  5  1  0
  5  6  1  0
  5  7  1  0
  7  8  1  0
  8  9  1  0
  8  4  1  0
  1 10  1  0
  1 11  1  0
  1 12  1  0
  2 13  1  0
  3 14  1  0
  4 15  1  0
  5 16  1  0
  6 17  1  0
  6 18  1  0
  6 19  1  0
  7 20  1  0
  7 21  1  0
  8 22  1  0
  9 23  1  0
  9 24  1  0
  9 25  1  0
M  END
