
     RDKit          3D

 21 21  0  0  0  0  0  0  0  0999 V2000
   -2.3576    0.1694    0.8971 C   0  0  0  0  0  0  0  0  0  0  0  0
   -1.4421    0.1414   -0.2820 C   0  0  0  0  0  0  0  0  0  0  0  0
   -2.1680   -0.3511   -1.3650 O   0  0  0  0  0  0  0  0  0  0  0  0
   -0.1892   -0.6398   -0.0813 C   0  0  0  0  0  0  0  0  0  0  0  0
    0.7521   -0.2652    0.9768 C   0  0  0  0  0  0  0  0  0  0  0  0
    1.8952   -0.3768   -0.0323 C   0  0  0  0  0  0  0  0  0  0  0  0
    2.7970    0.7971    0.0067 C   0  0  0  0  0  0  0  0  0  0  0  0
    3.8049    0.7575    0.6715 O   0  0  0  0  0  0  0  0  0  0  0  0
    0.8727   -0.2907   -1.1194 C   0  0  0  0  0  0  0  0  0  0  0  0
   -2.6960   -0.8600    1.1434 H   0  0  0  0  0  0  0  0  0  0  0  0
   -1.9342    0.6897    1.7796 H   0  0  0  0  0  0  0  0  0  0  0  0
   -3.2606    0.7505    0.5994 H   0  0  0  0  0  0  0  0  0  0  0  0
   -1.1640    1.2005   -0.5463 H   0  0  0  0  0  0  0  0  0  0  0  0
   -2.8523    0.2584   -1.6881 H   0  0  0  0  0  0  0  0  0  0  0  0
   -0.3608   -1.7374   -0.1202 H   0  0  0  0  0  0  0  0  0  0  0  0
    0.7167    0.7253    1.4261 H   0  0  0  0  0  0  0  0  0  0  0  0
    0.9028   -1.0548    1.7461 H   0  0  0  0  0  0  0  0  0  0  0  0
    2.4151   -1.3587   -0.0215 H   0  0  0  0  0  0  0  0  0  0  0  0
    2.5484    1.6867   -0.5615 H   0  0  0  0  0  0  0  0  0  0  0  0
    0.9530   -1.0045   -1.9372 H   0  0  0  0  0  0  0  0  0  0  0  0
    0.7667    0.7624   -1.4919 H   0  0  0  0  0  0  0  0  0  0  0  0
  1  2  1  0
  2  3  1  0
  2  4  1  0
  4  5  1  0
  5  6  1  0
  6  7  1  0
  7  8  2  0
  6  9  1  0
  9  4  1  0
  1 10  1  0
  1 11  1  0
  1 12  1  0
  2 13  1  0
  3 14  1  0
  4 15  1  0
  5 16  1  0
  5 17  1  0
  6 18  1  0
  7 19  1  0
  9 20  1  0
  9 21  1  0
M  END
