
     RDKit          3D

 19 19  0  0  0  0  0  0  0  0999 V2000
   -2.5560    0.0557    0.3239 C   0  0  0  0  0  0  0  0  0  0  0  0
   -1.1913   -0.2084   -0.2773 C   0  0  0  0  0  0  0  0  0  0  0  0
   -0.7475   -1.4393    0.1569 O   0  0  0  0  0  0  0  0  0  0  0  0
   -0.2570    0.8482    0.2571 C   0  0  0  0  0  0  0  0  0  0  0  0
    1.1002    0.6276   -0.3098 C   0  0  0  0  0  0  0  0  0  0  0  0
    1.7817   -0.6709   -0.0295 C   0  0  0  0  0  0  0  0  0  0  0  0
    2.9393    0.2358    0.1518 C   0  0  0  0  0  0  0  0  0  0  0  0
    4.1851    0.0964    0.1318 O   0  0  0  0  0  0  0  0  0  0  0  0
    2.1251    1.3382    0.3598 O   0  0  0  0  0  0  0  0  0  0  0  0
   -3.0980   -0.8904    0.4937 H   0  0  0  0  0  0  0  0  0  0  0  0
   -3.1542    0.6473   -0.4109 H   0  0  0  0  0  0  0  0  0  0  0  0
   -2.4807    0.5922    1.2695 H   0  0  0  0  0  0  0  0  0  0  0  0
   -1.1977   -0.1967   -1.3676 H   0  0  0  0  0  0  0  0  0  0  0  0
   -0.9473   -2.1473   -0.5140 H   0  0  0  0  0  0  0  0  0  0  0  0
   -0.2815    0.8870    1.3647 H   0  0  0  0  0  0  0  0  0  0  0  0
   -0.6291    1.8243   -0.1306 H   0  0  0  0  0  0  0  0  0  0  0  0
    1.1192    0.9412   -1.3949 H   0  0  0  0  0  0  0  0  0  0  0  0
    1.4625   -1.2214    0.8531 H   0  0  0  0  0  0  0  0  0  0  0  0
    1.8273   -1.3195   -0.9278 H   0  0  0  0  0  0  0  0  0  0  0  0
  1  2  1  0
  2  3  1  0
  2  4  1  0
  4  5  1  0
  5  6  1  0
  6  7  1  0
  7  8  2  0
  7  9  1  0
  9  5  1  0
  1 10  1  0
  1 11  1  0
  1 12  1  0
  2 13  1  0
  3 14  1  0
  4 15  1  0
  4 16  1  0
  5 17  1  0
  6 18  1  0
  6 19  1  0
M  END
