
     RDKit          3D

 23 23  0  0  0  0  0  0  0  0999 V2000
   -2.5053    0.7083    0.3419 C   0  0  0  0  0  0  0  0  0  0  0  0
   -1.3018    0.5946   -0.5796 C   0  0  0  0  0  0  0  0  0  0  0  0
   -1.4750   -0.5537   -1.3526 O   0  0  0  0  0  0  0  0  0  0  0  0
   -0.0794    0.4206    0.2891 C   0  0  0  0  0  0  0  0  0  0  0  0
   -0.1747   -0.8263    1.1490 C   0  0  0  0  0  0  0  0  0  0  0  0
    1.3026   -1.0210    0.8829 C   0  0  0  0  0  0  0  0  0  0  0  0
    1.1004   -0.2095   -0.3827 C   0  0  0  0  0  0  0  0  0  0  0  0
    2.2951    0.7143   -0.5670 C   0  0  0  0  0  0  0  0  0  0  0  0
    0.8345   -0.9546   -1.5220 O   0  0  0  0  0  0  0  0  0  0  0  0
   -3.1499   -0.1914    0.2971 H   0  0  0  0  0  0  0  0  0  0  0  0
   -3.0751    1.6098    0.0869 H   0  0  0  0  0  0  0  0  0  0  0  0
   -2.1860    0.8362    1.4105 H   0  0  0  0  0  0  0  0  0  0  0  0
   -1.2139    1.4644   -1.2536 H   0  0  0  0  0  0  0  0  0  0  0  0
   -2.0624   -1.1826   -0.8626 H   0  0  0  0  0  0  0  0  0  0  0  0
    0.1984    1.2739    0.9044 H   0  0  0  0  0  0  0  0  0  0  0  0
   -0.7788   -1.6373    0.7251 H   0  0  0  0  0  0  0  0  0  0  0  0
   -0.4154   -0.5783    2.2165 H   0  0  0  0  0  0  0  0  0  0  0  0
    1.6055   -2.0638    0.6769 H   0  0  0  0  0  0  0  0  0  0  0  0
    1.8972   -0.4783    1.6314 H   0  0  0  0  0  0  0  0  0  0  0  0
    2.2502    1.2846   -1.5041 H   0  0  0  0  0  0  0  0  0  0  0  0
    2.3440    1.3777    0.3190 H   0  0  0  0  0  0  0  0  0  0  0  0
    3.1894    0.0486   -0.6132 H   0  0  0  0  0  0  0  0  0  0  0  0
    1.4004   -0.6362   -2.2932 H   0  0  0  0  0  0  0  0  0  0  0  0
  1  2  1  0
  2  3  1  0
  2  4  1  0
  4  5  1  0
  5  6  1  0
  6  7  1  0
  7  8  1  0
  7  9  1  0
  7  4  1  0
  1 10  1  0
  1 11  1  0
  1 12  1  0
  2 13  1  0
  3 14  1  0
  4 15  1  0
  5 16  1  0
  5 17  1  0
  6 18  1  0
  6 19  1  0
  8 20  1  0
  8 21  1  0
  8 22  1  0
  9 23  1  0
M  END
