
     RDKit          3D

 23 23  0  0  0  0  0  0  0  0999 V2000
   -2.6385   -1.0962    0.1729 C   0  0  0  0  0  0  0  0  0  0  0  0
   -1.7796    0.0123    0.7116 C   0  0  0  0  0  0  0  0  0  0  0  0
   -2.4786    1.2180    0.5176 O   0  0  0  0  0  0  0  0  0  0  0  0
   -0.4439    0.1031    0.0429 C   0  0  0  0  0  0  0  0  0  0  0  0
    0.3675    1.2386    0.6333 C   0  0  0  0  0  0  0  0  0  0  0  0
    1.5554    0.2924    0.6577 C   0  0  0  0  0  0  0  0  0  0  0  0
    2.3603    0.2806   -0.6172 C   0  0  0  0  0  0  0  0  0  0  0  0
    3.4041   -0.6039   -0.4870 O   0  0  0  0  0  0  0  0  0  0  0  0
    0.5420   -0.8548    0.6732 C   0  0  0  0  0  0  0  0  0  0  0  0
   -3.2424   -1.5275    1.0097 H   0  0  0  0  0  0  0  0  0  0  0  0
   -2.0536   -1.9306   -0.2630 H   0  0  0  0  0  0  0  0  0  0  0  0
   -3.3749   -0.6958   -0.5503 H   0  0  0  0  0  0  0  0  0  0  0  0
   -1.6282   -0.1521    1.7965 H   0  0  0  0  0  0  0  0  0  0  0  0
   -2.2889    1.8006    1.2930 H   0  0  0  0  0  0  0  0  0  0  0  0
   -0.4649    0.0969   -1.0606 H   0  0  0  0  0  0  0  0  0  0  0  0
    0.4907    2.1227    0.0047 H   0  0  0  0  0  0  0  0  0  0  0  0
    0.0841    1.5199    1.6596 H   0  0  0  0  0  0  0  0  0  0  0  0
    2.1614    0.3402    1.5634 H   0  0  0  0  0  0  0  0  0  0  0  0
    2.7608    1.2828   -0.8700 H   0  0  0  0  0  0  0  0  0  0  0  0
    1.7032   -0.0507   -1.4374 H   0  0  0  0  0  0  0  0  0  0  0  0
    3.8398   -0.5988    0.3854 H   0  0  0  0  0  0  0  0  0  0  0  0
    0.8296   -1.7143    0.0538 H   0  0  0  0  0  0  0  0  0  0  0  0
    0.2949   -1.0834    1.7235 H   0  0  0  0  0  0  0  0  0  0  0  0
  1  2  1  0
  2  3  1  0
  2  4  1  0
  4  5  1  0
  5  6  1  0
  6  7  1  0
  7  8  1  0
  6  9  1  0
  9  4  1  0
  1 10  1  0
  1 11  1  0
  1 12  1  0
  2 13  1  0
  3 14  1  0
  4 15  1  0
  5 16  1  0
  5 17  1  0
  6 18  1  0
  7 19  1  0
  7 20  1  0
  8 21  1  0
  9 22  1  0
  9 23  1  0
M  END
