
     RDKit          3D

 17 16  0  0  0  0  0  0  0  0999 V2000
   -2.0992   -1.1193   -0.3546 C   0  0  0  0  0  0  0  0  0  0  0  0
   -1.4925   -0.2109    0.7018 C   0  0  0  0  0  0  0  0  0  0  0  0
   -1.8148   -0.7635    1.9364 O   0  0  0  0  0  0  0  0  0  0  0  0
   -0.0234   -0.1117    0.5664 C   0  0  0  0  0  0  0  0  0  0  0  0
    0.7244   -0.5081    1.5116 O   0  0  0  0  0  0  0  0  0  0  0  0
    0.6097    0.3945   -0.5437 O   0  0  0  0  0  0  0  0  0  0  0  0
    1.9812    0.5093   -0.7204 C   0  0  0  0  0  0  0  0  0  0  0  0
    2.6632    1.3489    0.2648 C   0  0  0  0  0  0  0  0  0  0  0  0
    2.0464    1.8899    1.1570 O   0  0  0  0  0  0  0  0  0  0  0  0
   -2.7315   -1.9099    0.0822 H   0  0  0  0  0  0  0  0  0  0  0  0
   -1.3102   -1.5663   -0.9857 H   0  0  0  0  0  0  0  0  0  0  0  0
   -2.7587   -0.5320   -1.0362 H   0  0  0  0  0  0  0  0  0  0  0  0
   -1.9946    0.7775    0.6444 H   0  0  0  0  0  0  0  0  0  0  0  0
   -2.1656   -0.0749    2.5559 H   0  0  0  0  0  0  0  0  0  0  0  0
    2.1487    0.8752   -1.7762 H   0  0  0  0  0  0  0  0  0  0  0  0
    2.4896   -0.4996   -0.7105 H   0  0  0  0  0  0  0  0  0  0  0  0
    3.7273    1.5007    0.2139 H   0  0  0  0  0  0  0  0  0  0  0  0
  1  2  1  0
  2  3  1  0
  2  4  1  0
  4  5  2  0
  4  6  1  0
  6  7  1  0
  7  8  1  0
  8  9  2  0
  1 10  1  0
  1 11  1  0
  1 12  1  0
  2 13  1  0
  3 14  1  0
  7 15  1  0
  7 16  1  0
  8 17  1  0
M  END
