
     RDKit          3D

 19 19  0  0  0  0  0  0  0  0999 V2000
   -1.6760    0.9453    0.1985 C   0  0  0  0  0  0  0  0  0  0  0  0
   -1.0308   -0.4104    0.1792 C   0  0  0  0  0  0  0  0  0  0  0  0
   -1.6519   -1.2553   -0.7335 O   0  0  0  0  0  0  0  0  0  0  0  0
    0.4280   -0.3880   -0.1042 C   0  0  0  0  0  0  0  0  0  0  0  0
    1.1177   -1.6514    0.3616 C   0  0  0  0  0  0  0  0  0  0  0  0
    1.0776    0.8905    0.4336 C   0  0  0  0  0  0  0  0  0  0  0  0
    1.3627    1.2482   -0.9548 C   0  0  0  0  0  0  0  0  0  0  0  0
    1.8916    2.2203   -1.5219 O   0  0  0  0  0  0  0  0  0  0  0  0
    0.8045    0.0639   -1.3877 O   0  0  0  0  0  0  0  0  0  0  0  0
   -2.7725    0.7811   -0.0189 H   0  0  0  0  0  0  0  0  0  0  0  0
   -1.3226    1.6210   -0.5950 H   0  0  0  0  0  0  0  0  0  0  0  0
   -1.6583    1.4060    1.2091 H   0  0  0  0  0  0  0  0  0  0  0  0
   -1.1820   -0.8619    1.1815 H   0  0  0  0  0  0  0  0  0  0  0  0
   -1.6160   -0.9214   -1.6648 H   0  0  0  0  0  0  0  0  0  0  0  0
    1.6430   -2.0803   -0.5153 H   0  0  0  0  0  0  0  0  0  0  0  0
    0.3784   -2.3808    0.7419 H   0  0  0  0  0  0  0  0  0  0  0  0
    1.8679   -1.4354    1.1568 H   0  0  0  0  0  0  0  0  0  0  0  0
    1.9777    0.6565    1.0750 H   0  0  0  0  0  0  0  0  0  0  0  0
    0.3610    1.5520    0.9588 H   0  0  0  0  0  0  0  0  0  0  0  0
  1  2  1  0
  2  3  1  0
  2  4  1  0
  4  5  1  0
  4  6  1  0
  6  7  1  0
  7  8  2  0
  7  9  1  0
  9  4  1  0
  1 10  1  0
  1 11  1  0
  1 12  1  0
  2 13  1  0
  3 14  1  0
  5 15  1  0
  5 16  1  0
  5 17  1  0
  6 18  1  0
  6 19  1  0
M  END
