
     RDKit          3D

 21 22  0  0  0  0  0  0  0  0999 V2000
    2.4870   -0.2763   -0.5930 C   0  0  0  0  0  0  0  0  0  0  0  0
    1.3576    0.0882    0.3412 C   0  0  0  0  0  0  0  0  0  0  0  0
    1.2561   -0.9666    1.2688 O   0  0  0  0  0  0  0  0  0  0  0  0
    0.0443    0.2408   -0.3269 C   0  0  0  0  0  0  0  0  0  0  0  0
   -0.1403    1.2173   -1.2977 O   0  0  0  0  0  0  0  0  0  0  0  0
   -0.4425   -0.1004   -1.5445 C   0  0  0  0  0  0  0  0  0  0  0  0
   -1.8031   -0.5116   -0.9574 C   0  0  0  0  0  0  0  0  0  0  0  0
   -1.1550   -0.3292    0.3945 C   0  0  0  0  0  0  0  0  0  0  0  0
   -1.8464    0.5720    1.3511 C   0  0  0  0  0  0  0  0  0  0  0  0
    3.4302   -0.2526    0.0154 H   0  0  0  0  0  0  0  0  0  0  0  0
    2.6207    0.4227   -1.4212 H   0  0  0  0  0  0  0  0  0  0  0  0
    2.3187   -1.2889   -0.9645 H   0  0  0  0  0  0  0  0  0  0  0  0
    1.5734    1.0523    0.8852 H   0  0  0  0  0  0  0  0  0  0  0  0
    1.9790   -0.9485    1.9274 H   0  0  0  0  0  0  0  0  0  0  0  0
   -0.0763   -0.6304   -2.4222 H   0  0  0  0  0  0  0  0  0  0  0  0
   -2.5312    0.2817   -1.2156 H   0  0  0  0  0  0  0  0  0  0  0  0
   -2.1011   -1.5465   -1.2070 H   0  0  0  0  0  0  0  0  0  0  0  0
   -0.8862   -1.3347    0.8118 H   0  0  0  0  0  0  0  0  0  0  0  0
   -2.5973    1.2214    0.8747 H   0  0  0  0  0  0  0  0  0  0  0  0
   -2.3792   -0.0697    2.1101 H   0  0  0  0  0  0  0  0  0  0  0  0
   -1.1084    1.1577    1.9698 H   0  0  0  0  0  0  0  0  0  0  0  0
  1  2  1  0
  2  3  1  0
  2  4  1  0
  4  5  1  0
  5  6  1  0
  6  7  1  0
  7  8  1  0
  8  9  1  0
  6  4  1  0
  8  4  1  0
  1 10  1  0
  1 11  1  0
  1 12  1  0
  2 13  1  0
  3 14  1  0
  6 15  1  0
  7 16  1  0
  7 17  1  0
  8 18  1  0
  9 19  1  0
  9 20  1  0
  9 21  1  0
M  END
