
     RDKit          3D

 21 21  0  0  0  0  0  0  0  0999 V2000
    1.8660   -1.0575   -0.5846 C   0  0  0  0  0  0  0  0  0  0  0  0
    1.7877    0.3647   -0.1320 C   0  0  0  0  0  0  0  0  0  0  0  0
    2.2102    1.2893   -1.1000 O   0  0  0  0  0  0  0  0  0  0  0  0
    0.5049    0.8047    0.4604 C   0  0  0  0  0  0  0  0  0  0  0  0
    0.0191   -0.1501    1.4381 O   0  0  0  0  0  0  0  0  0  0  0  0
   -0.8174    0.3318    0.3069 C   0  0  0  0  0  0  0  0  0  0  0  0
   -1.9249    1.1814    0.9740 C   0  0  0  0  0  0  0  0  0  0  0  0
   -1.3647   -0.7443   -0.5506 C   0  0  0  0  0  0  0  0  0  0  0  0
   -2.1542   -1.5802    0.2760 O   0  0  0  0  0  0  0  0  0  0  0  0
    2.9032   -1.4610   -0.4722 H   0  0  0  0  0  0  0  0  0  0  0  0
    1.6073   -1.2242   -1.6420 H   0  0  0  0  0  0  0  0  0  0  0  0
    1.2411   -1.6903    0.0519 H   0  0  0  0  0  0  0  0  0  0  0  0
    2.6098    0.4578    0.6632 H   0  0  0  0  0  0  0  0  0  0  0  0
    3.1522    1.1564   -1.3612 H   0  0  0  0  0  0  0  0  0  0  0  0
    0.6042    1.8531    0.9141 H   0  0  0  0  0  0  0  0  0  0  0  0
   -1.4674    1.8426    1.7365 H   0  0  0  0  0  0  0  0  0  0  0  0
   -2.5823    0.4651    1.4975 H   0  0  0  0  0  0  0  0  0  0  0  0
   -2.4989    1.7315    0.2170 H   0  0  0  0  0  0  0  0  0  0  0  0
   -0.7025   -1.2819   -1.2092 H   0  0  0  0  0  0  0  0  0  0  0  0
   -2.1300   -0.2623   -1.2422 H   0  0  0  0  0  0  0  0  0  0  0  0
   -2.8636   -2.0263   -0.2415 H   0  0  0  0  0  0  0  0  0  0  0  0
  1  2  1  0
  2  3  1  0
  2  4  1  0
  4  5  1  0
  5  6  1  0
  6  7  1  0
  6  8  1  0
  8  9  1  0
  6  4  1  0
  1 10  1  0
  1 11  1  0
  1 12  1  0
  2 13  1  0
  3 14  1  0
  4 15  1  0
  7 16  1  0
  7 17  1  0
  7 18  1  0
  8 19  1  0
  8 20  1  0
  9 21  1  0
M  END
