
     RDKit          3D

 23 22  0  0  0  0  0  0  0  0999 V2000
   -3.0758    0.1239    0.0525 C   0  0  0  0  0  0  0  0  0  0  0  0
   -1.6131    0.1615    0.5412 C   0  0  0  0  0  0  0  0  0  0  0  0
   -1.3057    1.5402    0.4506 O   0  0  0  0  0  0  0  0  0  0  0  0
   -0.7939   -0.6805   -0.3752 C   0  0  0  0  0  0  0  0  0  0  0  0
    0.6569   -0.7874   -0.0687 C   0  0  0  0  0  0  0  0  0  0  0  0
    0.9403   -1.3232    1.1853 O   0  0  0  0  0  0  0  0  0  0  0  0
    1.4532    0.4534   -0.3447 C   0  0  0  0  0  0  0  0  0  0  0  0
    2.9220    0.0413   -0.3391 C   0  0  0  0  0  0  0  0  0  0  0  0
    1.2700    1.4736    0.5487 O   0  0  0  0  0  0  0  0  0  0  0  0
   -3.6519    0.9092    0.5792 H   0  0  0  0  0  0  0  0  0  0  0  0
   -3.0076    0.3525   -1.0475 H   0  0  0  0  0  0  0  0  0  0  0  0
   -3.4583   -0.8851    0.1794 H   0  0  0  0  0  0  0  0  0  0  0  0
   -1.6054   -0.1460    1.5912 H   0  0  0  0  0  0  0  0  0  0  0  0
   -1.3406    1.8583   -0.4650 H   0  0  0  0  0  0  0  0  0  0  0  0
   -1.2782   -1.6909   -0.4772 H   0  0  0  0  0  0  0  0  0  0  0  0
   -0.9355   -0.2440   -1.4107 H   0  0  0  0  0  0  0  0  0  0  0  0
    1.0709   -1.5483   -0.8207 H   0  0  0  0  0  0  0  0  0  0  0  0
    0.6526   -2.2726    1.2240 H   0  0  0  0  0  0  0  0  0  0  0  0
    1.2190    0.7574   -1.4043 H   0  0  0  0  0  0  0  0  0  0  0  0
    3.5338    0.7187   -0.9766 H   0  0  0  0  0  0  0  0  0  0  0  0
    3.3483    0.0475    0.6754 H   0  0  0  0  0  0  0  0  0  0  0  0
    3.0139   -0.9830   -0.7461 H   0  0  0  0  0  0  0  0  0  0  0  0
    1.9849    2.1235    0.4900 H   0  0  0  0  0  0  0  0  0  0  0  0
  1  2  1  0
  2  3  1  0
  2  4  1  0
  4  5  1  0
  5  6  1  0
  5  7  1  0
  7  8  1  0
  7  9  1  0
  1 10  1  0
  1 11  1  0
  1 12  1  0
  2 13  1  0
  3 14  1  0
  4 15  1  0
  4 16  1  0
  5 17  1  0
  6 18  1  0
  7 19  1  0
  8 20  1  0
  8 21  1  0
  8 22  1  0
  9 23  1  0
M  END
