
     RDKit          3D

 23 23  0  0  0  0  0  0  0  0999 V2000
   -2.6042    0.8917    0.7581 C   0  0  0  0  0  0  0  0  0  0  0  0
   -2.4294    0.0323   -0.4698 C   0  0  0  0  0  0  0  0  0  0  0  0
   -3.4152   -0.9281   -0.4807 O   0  0  0  0  0  0  0  0  0  0  0  0
   -1.0552   -0.5865   -0.4448 C   0  0  0  0  0  0  0  0  0  0  0  0
   -0.0099    0.5174   -0.4349 C   0  0  0  0  0  0  0  0  0  0  0  0
    1.3400   -0.1635   -0.4098 C   0  0  0  0  0  0  0  0  0  0  0  0
    1.4644   -0.9932    0.7792 O   0  0  0  0  0  0  0  0  0  0  0  0
    2.3303    0.1540    0.6241 C   0  0  0  0  0  0  0  0  0  0  0  0
    3.7578   -0.2462    0.4049 C   0  0  0  0  0  0  0  0  0  0  0  0
   -2.1178    0.4091    1.6284 H   0  0  0  0  0  0  0  0  0  0  0  0
   -2.0959    1.8483    0.5810 H   0  0  0  0  0  0  0  0  0  0  0  0
   -3.6678    1.0491    1.0191 H   0  0  0  0  0  0  0  0  0  0  0  0
   -2.5393    0.6350   -1.4092 H   0  0  0  0  0  0  0  0  0  0  0  0
   -3.1389   -1.7995   -0.1009 H   0  0  0  0  0  0  0  0  0  0  0  0
   -0.9468   -1.1637    0.5101 H   0  0  0  0  0  0  0  0  0  0  0  0
   -0.8931   -1.2446   -1.3039 H   0  0  0  0  0  0  0  0  0  0  0  0
   -0.1441    1.1550   -1.3173 H   0  0  0  0  0  0  0  0  0  0  0  0
   -0.1741    1.1549    0.4535 H   0  0  0  0  0  0  0  0  0  0  0  0
    1.6805   -0.6359   -1.3512 H   0  0  0  0  0  0  0  0  0  0  0  0
    2.1537    0.9845    1.3428 H   0  0  0  0  0  0  0  0  0  0  0  0
    4.4568    0.5935    0.6037 H   0  0  0  0  0  0  0  0  0  0  0  0
    4.0863   -1.0718    1.0876 H   0  0  0  0  0  0  0  0  0  0  0  0
    3.9620   -0.5918   -0.6278 H   0  0  0  0  0  0  0  0  0  0  0  0
  1  2  1  0
  2  3  1  0
  2  4  1  0
  4  5  1  0
  5  6  1  0
  6  7  1  0
  7  8  1  0
  8  9  1  0
  8  6  1  0
  1 10  1  0
  1 11  1  0
  1 12  1  0
  2 13  1  0
  3 14  1  0
  4 15  1  0
  4 16  1  0
  5 17  1  0
  5 18  1  0
  6 19  1  0
  8 20  1  0
  9 21  1  0
  9 22  1  0
  9 23  1  0
M  END
