
     RDKit          3D

 23 23  0  0  0  0  0  0  0  0999 V2000
   -2.1970    0.8905   -0.1644 C   0  0  0  0  0  0  0  0  0  0  0  0
   -1.8727   -0.5721   -0.1010 C   0  0  0  0  0  0  0  0  0  0  0  0
   -2.1023   -1.1856   -1.3366 O   0  0  0  0  0  0  0  0  0  0  0  0
   -0.5531   -0.9212    0.4854 C   0  0  0  0  0  0  0  0  0  0  0  0
    0.6490   -0.3828   -0.1870 C   0  0  0  0  0  0  0  0  0  0  0  0
    0.8219    1.0948   -0.3020 C   0  0  0  0  0  0  0  0  0  0  0  0
    2.2493    0.9602    0.2473 C   0  0  0  0  0  0  0  0  0  0  0  0
    1.8596   -0.4115    0.7512 C   0  0  0  0  0  0  0  0  0  0  0  0
    2.7584   -1.4178    0.5131 O   0  0  0  0  0  0  0  0  0  0  0  0
   -3.3028    0.9434   -0.4069 H   0  0  0  0  0  0  0  0  0  0  0  0
   -1.7245    1.4204   -1.0152 H   0  0  0  0  0  0  0  0  0  0  0  0
   -2.0893    1.3627    0.8107 H   0  0  0  0  0  0  0  0  0  0  0  0
   -2.6494   -1.0272    0.5849 H   0  0  0  0  0  0  0  0  0  0  0  0
   -3.0852   -1.1690   -1.4708 H   0  0  0  0  0  0  0  0  0  0  0  0
   -0.5713   -0.6810    1.5652 H   0  0  0  0  0  0  0  0  0  0  0  0
   -0.4768   -2.0439    0.4406 H   0  0  0  0  0  0  0  0  0  0  0  0
    0.9270   -0.9425   -1.1025 H   0  0  0  0  0  0  0  0  0  0  0  0
    0.2182    1.7443    0.3337 H   0  0  0  0  0  0  0  0  0  0  0  0
    0.9072    1.4623   -1.3627 H   0  0  0  0  0  0  0  0  0  0  0  0
    2.4485    1.7200    1.0252 H   0  0  0  0  0  0  0  0  0  0  0  0
    3.0318    0.9416   -0.5122 H   0  0  0  0  0  0  0  0  0  0  0  0
    1.5949   -0.3641    1.8219 H   0  0  0  0  0  0  0  0  0  0  0  0
    3.1585   -1.4216   -0.3834 H   0  0  0  0  0  0  0  0  0  0  0  0
  1  2  1  0
  2  3  1  0
  2  4  1  0
  4  5  1  0
  5  6  1  0
  6  7  1  0
  7  8  1  0
  8  9  1  0
  8  5  1  0
  1 10  1  0
  1 11  1  0
  1 12  1  0
  2 13  1  0
  3 14  1  0
  4 15  1  0
  4 16  1  0
  5 17  1  0
  6 18  1  0
  6 19  1  0
  7 20  1  0
  7 21  1  0
  8 22  1  0
  9 23  1  0
M  END
