
     RDKit          3D

 18 17  0  0  0  0  0  0  0  0999 V2000
    2.3733    0.4423    0.0327 C   0  0  0  0  0  0  0  0  0  0  0  0
    1.3422   -0.4707   -0.5877 C   0  0  0  0  0  0  0  0  0  0  0  0
    1.7570   -1.7850   -0.2642 O   0  0  0  0  0  0  0  0  0  0  0  0
   -0.0191   -0.3233    0.0733 C   0  0  0  0  0  0  0  0  0  0  0  0
   -0.5848    0.8942   -0.1302 O   0  0  0  0  0  0  0  0  0  0  0  0
   -1.8131    0.9902    0.4890 C   0  0  0  0  0  0  0  0  0  0  0  0
   -2.8417    0.0578   -0.0005 C   0  0  0  0  0  0  0  0  0  0  0  0
   -2.7421   -0.7440   -0.8946 O   0  0  0  0  0  0  0  0  0  0  0  0
    3.3767   -0.0658   -0.0697 H   0  0  0  0  0  0  0  0  0  0  0  0
    2.4083    1.4374   -0.4019 H   0  0  0  0  0  0  0  0  0  0  0  0
    2.1389    0.5391    1.1152 H   0  0  0  0  0  0  0  0  0  0  0  0
    1.2931   -0.3982   -1.6792 H   0  0  0  0  0  0  0  0  0  0  0  0
    1.5240   -1.8852    0.7029 H   0  0  0  0  0  0  0  0  0  0  0  0
   -0.6172   -1.1771   -0.2595 H   0  0  0  0  0  0  0  0  0  0  0  0
    0.1926   -0.4479    1.1772 H   0  0  0  0  0  0  0  0  0  0  0  0
   -1.7350    0.8250    1.5997 H   0  0  0  0  0  0  0  0  0  0  0  0
   -2.2451    2.0133    0.3954 H   0  0  0  0  0  0  0  0  0  0  0  0
   -3.8081    0.0979    0.5065 H   0  0  0  0  0  0  0  0  0  0  0  0
  1  2  1  0
  2  3  1  0
  2  4  1  0
  4  5  1  0
  5  6  1  0
  6  7  1  0
  7  8  2  0
  1  9  1  0
  1 10  1  0
  1 11  1  0
  2 12  1  0
  3 13  1  0
  4 14  1  0
  4 15  1  0
  6 16  1  0
  6 17  1  0
  7 18  1  0
M  END
