
     RDKit          3D

 21 20  0  0  0  0  0  0  0  0999 V2000
   -2.6473    0.8032    0.3170 C   0  0  0  0  0  0  0  0  0  0  0  0
   -1.5036   -0.1485    0.2072 C   0  0  0  0  0  0  0  0  0  0  0  0
   -1.3144   -0.7519    1.4488 O   0  0  0  0  0  0  0  0  0  0  0  0
   -0.1994    0.5425   -0.2219 C   0  0  0  0  0  0  0  0  0  0  0  0
    0.8134   -0.5714   -0.2702 C   0  0  0  0  0  0  0  0  0  0  0  0
    0.3575   -1.5064   -1.2110 O   0  0  0  0  0  0  0  0  0  0  0  0
    2.1976   -0.1564   -0.6260 C   0  0  0  0  0  0  0  0  0  0  0  0
    2.8005    0.8190    0.2961 C   0  0  0  0  0  0  0  0  0  0  0  0
    2.2673    1.8916    0.5825 O   0  0  0  0  0  0  0  0  0  0  0  0
   -3.5272    0.1730    0.6198 H   0  0  0  0  0  0  0  0  0  0  0  0
   -2.9070    1.1767   -0.7025 H   0  0  0  0  0  0  0  0  0  0  0  0
   -2.5207    1.6341    1.0099 H   0  0  0  0  0  0  0  0  0  0  0  0
   -1.7809   -0.9123   -0.5505 H   0  0  0  0  0  0  0  0  0  0  0  0
   -1.8976   -1.5379    1.5465 H   0  0  0  0  0  0  0  0  0  0  0  0
    0.0705    1.2816    0.5618 H   0  0  0  0  0  0  0  0  0  0  0  0
   -0.3002    1.0315   -1.1988 H   0  0  0  0  0  0  0  0  0  0  0  0
    0.7513   -1.1098    0.7091 H   0  0  0  0  0  0  0  0  0  0  0  0
    0.5600   -2.4354   -0.9839 H   0  0  0  0  0  0  0  0  0  0  0  0
    2.1935    0.2272   -1.6703 H   0  0  0  0  0  0  0  0  0  0  0  0
    2.8292   -1.0781   -0.6324 H   0  0  0  0  0  0  0  0  0  0  0  0
    3.7577    0.6276    0.7687 H   0  0  0  0  0  0  0  0  0  0  0  0
  1  2  1  0
  2  3  1  0
  2  4  1  0
  4  5  1  0
  5  6  1  0
  5  7  1  0
  7  8  1  0
  8  9  2  0
  1 10  1  0
  1 11  1  0
  1 12  1  0
  2 13  1  0
  3 14  1  0
  4 15  1  0
  4 16  1  0
  5 17  1  0
  6 18  1  0
  7 19  1  0
  7 20  1  0
  8 21  1  0
M  END
