
     RDKit          3D

 25 25  0  0  0  0  0  0  0  0999 V2000
    2.2682   -1.1872   -0.1171 C   0  0  0  0  0  0  0  0  0  0  0  0
    2.3044    0.3092   -0.1807 C   0  0  0  0  0  0  0  0  0  0  0  0
    3.4693    0.6914    0.5336 O   0  0  0  0  0  0  0  0  0  0  0  0
    1.1186    1.0305    0.3464 C   0  0  0  0  0  0  0  0  0  0  0  0
   -0.1144    0.6938   -0.3744 C   0  0  0  0  0  0  0  0  0  0  0  0
   -0.6265   -0.7210   -0.3939 C   0  0  0  0  0  0  0  0  0  0  0  0
   -1.9995   -0.0268   -0.6081 C   0  0  0  0  0  0  0  0  0  0  0  0
   -3.1587   -0.7969   -0.0965 C   0  0  0  0  0  0  0  0  0  0  0  0
   -1.4275    1.0184    0.3661 C   0  0  0  0  0  0  0  0  0  0  0  0
    3.3279   -1.6036   -0.0145 H   0  0  0  0  0  0  0  0  0  0  0  0
    1.9440   -1.6147   -1.1012 H   0  0  0  0  0  0  0  0  0  0  0  0
    1.6300   -1.6126    0.6588 H   0  0  0  0  0  0  0  0  0  0  0  0
    2.5351    0.6571   -1.2307 H   0  0  0  0  0  0  0  0  0  0  0  0
    3.3069    1.5604    0.9574 H   0  0  0  0  0  0  0  0  0  0  0  0
    1.0020    0.9226    1.4499 H   0  0  0  0  0  0  0  0  0  0  0  0
    1.3142    2.1326    0.1705 H   0  0  0  0  0  0  0  0  0  0  0  0
   -0.1457    1.1278   -1.4065 H   0  0  0  0  0  0  0  0  0  0  0  0
   -0.6696   -1.2065    0.6127 H   0  0  0  0  0  0  0  0  0  0  0  0
   -0.3923   -1.3505   -1.2479 H   0  0  0  0  0  0  0  0  0  0  0  0
   -2.0774    0.4358   -1.5996 H   0  0  0  0  0  0  0  0  0  0  0  0
   -3.8385   -1.0040   -0.9752 H   0  0  0  0  0  0  0  0  0  0  0  0
   -2.8683   -1.8274    0.2584 H   0  0  0  0  0  0  0  0  0  0  0  0
   -3.7060   -0.2592    0.6917 H   0  0  0  0  0  0  0  0  0  0  0  0
   -1.4026    0.6008    1.3757 H   0  0  0  0  0  0  0  0  0  0  0  0
   -1.7934    2.0302    0.2193 H   0  0  0  0  0  0  0  0  0  0  0  0
  1  2  1  0
  2  3  1  0
  2  4  1  0
  4  5  1  0
  5  6  1  0
  6  7  1  0
  7  8  1  0
  7  9  1  0
  9  5  1  0
  1 10  1  0
  1 11  1  0
  1 12  1  0
  2 13  1  0
  3 14  1  0
  4 15  1  0
  4 16  1  0
  5 17  1  0
  6 18  1  0
  6 19  1  0
  7 20  1  0
  8 21  1  0
  8 22  1  0
  8 23  1  0
  9 24  1  0
  9 25  1  0
M  END
