
     RDKit          3D

 23 23  0  0  0  0  0  0  0  0999 V2000
    0.7779    1.6260   -0.5183 C   0  0  0  0  0  0  0  0  0  0  0  0
    0.5841    0.3638    0.2646 C   0  0  0  0  0  0  0  0  0  0  0  0
    0.8880    0.6373    1.5998 O   0  0  0  0  0  0  0  0  0  0  0  0
    1.5902   -0.6856   -0.1792 C   0  0  0  0  0  0  0  0  0  0  0  0
    2.9068   -0.1966   -0.0558 O   0  0  0  0  0  0  0  0  0  0  0  0
   -0.7847   -0.2428    0.1171 C   0  0  0  0  0  0  0  0  0  0  0  0
   -0.9645   -1.5214    0.9169 C   0  0  0  0  0  0  0  0  0  0  0  0
   -1.4062   -0.1343   -1.2263 C   0  0  0  0  0  0  0  0  0  0  0  0
   -1.9921    0.5846   -0.0339 C   0  0  0  0  0  0  0  0  0  0  0  0
    1.2982    1.3464   -1.4797 H   0  0  0  0  0  0  0  0  0  0  0  0
   -0.1465    2.1338   -0.8084 H   0  0  0  0  0  0  0  0  0  0  0  0
    1.3984    2.3684    0.0271 H   0  0  0  0  0  0  0  0  0  0  0  0
    0.1959    1.1802    2.0460 H   0  0  0  0  0  0  0  0  0  0  0  0
    1.4798   -0.9530   -1.2461 H   0  0  0  0  0  0  0  0  0  0  0  0
    1.5017   -1.5668    0.5007 H   0  0  0  0  0  0  0  0  0  0  0  0
    3.5192   -0.9799   -0.0380 H   0  0  0  0  0  0  0  0  0  0  0  0
   -2.0340   -1.7598    1.0088 H   0  0  0  0  0  0  0  0  0  0  0  0
   -0.3763   -2.3622    0.4770 H   0  0  0  0  0  0  0  0  0  0  0  0
   -0.5641   -1.2684    1.9432 H   0  0  0  0  0  0  0  0  0  0  0  0
   -0.9394    0.5441   -1.9642 H   0  0  0  0  0  0  0  0  0  0  0  0
   -1.9851   -0.9710   -1.6637 H   0  0  0  0  0  0  0  0  0  0  0  0
   -2.9677    0.1700    0.3205 H   0  0  0  0  0  0  0  0  0  0  0  0
   -1.9795    1.6874   -0.0080 H   0  0  0  0  0  0  0  0  0  0  0  0
  1  2  1  0
  2  3  1  0
  2  4  1  0
  4  5  1  0
  2  6  1  0
  6  7  1  0
  6  8  1  0
  8  9  1  0
  9  6  1  0
  1 10  1  0
  1 11  1  0
  1 12  1  0
  3 13  1  0
  4 14  1  0
  4 15  1  0
  5 16  1  0
  7 17  1  0
  7 18  1  0
  7 19  1  0
  8 20  1  0
  8 21  1  0
  9 22  1  0
  9 23  1  0
M  END
