
     RDKit          3D

 21 21  0  0  0  0  0  0  0  0999 V2000
    2.5268   -0.2954   -0.2350 C   0  0  0  0  0  0  0  0  0  0  0  0
    1.2754   -0.0525    0.5345 C   0  0  0  0  0  0  0  0  0  0  0  0
    0.8556   -1.2310    1.1501 O   0  0  0  0  0  0  0  0  0  0  0  0
    0.1972    0.6534   -0.1802 C   0  0  0  0  0  0  0  0  0  0  0  0
   -0.3592    0.0455   -1.4118 C   0  0  0  0  0  0  0  0  0  0  0  0
   -0.1185   -0.7486   -2.2919 O   0  0  0  0  0  0  0  0  0  0  0  0
   -1.5282    0.9208   -1.1227 C   0  0  0  0  0  0  0  0  0  0  0  0
   -1.1926    0.6179    0.3533 C   0  0  0  0  0  0  0  0  0  0  0  0
   -1.7763   -0.7281    0.6783 C   0  0  0  0  0  0  0  0  0  0  0  0
    3.3929   -0.3554    0.4744 H   0  0  0  0  0  0  0  0  0  0  0  0
    2.7654    0.5547   -0.9131 H   0  0  0  0  0  0  0  0  0  0  0  0
    2.5476   -1.2658   -0.7779 H   0  0  0  0  0  0  0  0  0  0  0  0
    1.5732    0.6160    1.3982 H   0  0  0  0  0  0  0  0  0  0  0  0
    0.6011   -1.1190    2.0866 H   0  0  0  0  0  0  0  0  0  0  0  0
    0.4540    1.7191   -0.4180 H   0  0  0  0  0  0  0  0  0  0  0  0
   -2.5092    0.5331   -1.4279 H   0  0  0  0  0  0  0  0  0  0  0  0
   -1.3575    2.0011   -1.3319 H   0  0  0  0  0  0  0  0  0  0  0  0
   -1.4636    1.4191    1.0487 H   0  0  0  0  0  0  0  0  0  0  0  0
   -1.7704   -0.9085    1.7833 H   0  0  0  0  0  0  0  0  0  0  0  0
   -2.8525   -0.8098    0.3838 H   0  0  0  0  0  0  0  0  0  0  0  0
   -1.2610   -1.5663    0.2191 H   0  0  0  0  0  0  0  0  0  0  0  0
  1  2  1  0
  2  3  1  0
  2  4  1  0
  4  5  1  0
  5  6  2  0
  5  7  1  0
  7  8  1  0
  8  9  1  0
  8  4  1  0
  1 10  1  0
  1 11  1  0
  1 12  1  0
  2 13  1  0
  3 14  1  0
  4 15  1  0
  7 16  1  0
  7 17  1  0
  8 18  1  0
  9 19  1  0
  9 20  1  0
  9 21  1  0
M  END
