
     RDKit          3D

 22 21  0  0  0  0  0  0  0  0999 V2000
   -2.0564   -1.1094   -0.7073 C   0  0  0  0  0  0  0  0  0  0  0  0
   -1.6724    0.2117   -0.1019 C   0  0  0  0  0  0  0  0  0  0  0  0
   -2.0278    0.3247    1.2339 O   0  0  0  0  0  0  0  0  0  0  0  0
   -0.2038    0.4490   -0.3394 C   0  0  0  0  0  0  0  0  0  0  0  0
    0.2516    1.7688    0.2476 C   0  0  0  0  0  0  0  0  0  0  0  0
    0.6677   -0.6281    0.2286 C   0  0  0  0  0  0  0  0  0  0  0  0
    2.1096   -0.2579   -0.0845 C   0  0  0  0  0  0  0  0  0  0  0  0
    2.9973   -1.2326    0.4230 O   0  0  0  0  0  0  0  0  0  0  0  0
   -1.7718   -1.9784   -0.1097 H   0  0  0  0  0  0  0  0  0  0  0  0
   -1.5659   -1.1575   -1.7108 H   0  0  0  0  0  0  0  0  0  0  0  0
   -3.1633   -1.1067   -0.9162 H   0  0  0  0  0  0  0  0  0  0  0  0
   -2.2276    0.9981   -0.6591 H   0  0  0  0  0  0  0  0  0  0  0  0
   -1.8390   -0.4965    1.7573 H   0  0  0  0  0  0  0  0  0  0  0  0
   -0.0582    0.4938   -1.4391 H   0  0  0  0  0  0  0  0  0  0  0  0
    1.0859    2.1268   -0.3788 H   0  0  0  0  0  0  0  0  0  0  0  0
   -0.5457    2.5378    0.1965 H   0  0  0  0  0  0  0  0  0  0  0  0
    0.6407    1.6166    1.2628 H   0  0  0  0  0  0  0  0  0  0  0  0
    0.5300   -0.6333    1.3270 H   0  0  0  0  0  0  0  0  0  0  0  0
    0.4577   -1.5879   -0.2583 H   0  0  0  0  0  0  0  0  0  0  0  0
    2.3942    0.7236    0.3333 H   0  0  0  0  0  0  0  0  0  0  0  0
    2.2367   -0.2649   -1.2050 H   0  0  0  0  0  0  0  0  0  0  0  0
    3.7606   -0.7975    0.9002 H   0  0  0  0  0  0  0  0  0  0  0  0
  1  2  1  0
  2  3  1  0
  2  4  1  0
  4  5  1  0
  4  6  1  0
  6  7  1  0
  7  8  1  0
  1  9  1  0
  1 10  1  0
  1 11  1  0
  2 12  1  0
  3 13  1  0
  4 14  1  0
  5 15  1  0
  5 16  1  0
  5 17  1  0
  6 18  1  0
  6 19  1  0
  7 20  1  0
  7 21  1  0
  8 22  1  0
M  END
