
     RDKit          3D

 20 20  0  0  0  0  0  0  0  0999 V2000
   -2.0232    0.2642    0.8264 C   0  0  0  0  0  0  0  0  0  0  0  0
   -0.7863    0.6203    0.0228 C   0  0  0  0  0  0  0  0  0  0  0  0
   -1.0587    0.5219   -1.3304 O   0  0  0  0  0  0  0  0  0  0  0  0
    0.3028   -0.3485    0.4273 C   0  0  0  0  0  0  0  0  0  0  0  0
   -0.1763   -1.7420    0.1091 C   0  0  0  0  0  0  0  0  0  0  0  0
    1.5986   -0.0883   -0.2629 C   0  0  0  0  0  0  0  0  0  0  0  0
    2.3614    1.1134   -0.1944 C   0  0  0  0  0  0  0  0  0  0  0  0
    1.5695    0.8434   -1.3359 O   0  0  0  0  0  0  0  0  0  0  0  0
   -2.5348    1.1556    1.2166 H   0  0  0  0  0  0  0  0  0  0  0  0
   -2.7153   -0.3833    0.2199 H   0  0  0  0  0  0  0  0  0  0  0  0
   -1.7514   -0.3810    1.7116 H   0  0  0  0  0  0  0  0  0  0  0  0
   -0.4395    1.6509    0.2870 H   0  0  0  0  0  0  0  0  0  0  0  0
   -1.5903    1.2740   -1.6352 H   0  0  0  0  0  0  0  0  0  0  0  0
    0.4459   -0.2256    1.5194 H   0  0  0  0  0  0  0  0  0  0  0  0
   -1.1895   -1.9506    0.4892 H   0  0  0  0  0  0  0  0  0  0  0  0
    0.5121   -2.5195    0.5277 H   0  0  0  0  0  0  0  0  0  0  0  0
   -0.1683   -1.8733   -1.0037 H   0  0  0  0  0  0  0  0  0  0  0  0
    2.1445   -1.0236   -0.5756 H   0  0  0  0  0  0  0  0  0  0  0  0
    2.0348    2.0243    0.3395 H   0  0  0  0  0  0  0  0  0  0  0  0
    3.4641    1.0677   -0.3186 H   0  0  0  0  0  0  0  0  0  0  0  0
  1  2  1  0
  2  3  1  0
  2  4  1  0
  4  5  1  0
  4  6  1  0
  6  7  1  0
  7  8  1  0
  8  6  1  0
  1  9  1  0
  1 10  1  0
  1 11  1  0
  2 12  1  0
  3 13  1  0
  4 14  1  0
  5 15  1  0
  5 16  1  0
  5 17  1  0
  6 18  1  0
  7 19  1  0
  7 20  1  0
M  END
