
     RDKit          3D

 18 17  0  0  0  0  0  0  0  0999 V2000
   -1.8686   -0.5591    0.3867 C   0  0  0  0  0  0  0  0  0  0  0  0
   -0.6660   -0.0091   -0.3950 C   0  0  0  0  0  0  0  0  0  0  0  0
   -0.5226   -0.6972   -1.5879 O   0  0  0  0  0  0  0  0  0  0  0  0
   -0.8490    1.4248   -0.6632 C   0  0  0  0  0  0  0  0  0  0  0  0
   -0.9983    2.2488    0.2312 O   0  0  0  0  0  0  0  0  0  0  0  0
    0.5342   -0.2131    0.5223 C   0  0  0  0  0  0  0  0  0  0  0  0
    1.8091    0.2812   -0.1061 C   0  0  0  0  0  0  0  0  0  0  0  0
    2.8360    0.0494    0.8069 O   0  0  0  0  0  0  0  0  0  0  0  0
   -2.7892   -0.0236    0.1416 H   0  0  0  0  0  0  0  0  0  0  0  0
   -1.8901   -1.6389    0.1900 H   0  0  0  0  0  0  0  0  0  0  0  0
   -1.7028   -0.4364    1.4896 H   0  0  0  0  0  0  0  0  0  0  0  0
   -0.3353   -1.6516   -1.4753 H   0  0  0  0  0  0  0  0  0  0  0  0
   -0.8563    1.7885   -1.6640 H   0  0  0  0  0  0  0  0  0  0  0  0
    0.2947    0.3335    1.4565 H   0  0  0  0  0  0  0  0  0  0  0  0
    0.5757   -1.3000    0.7391 H   0  0  0  0  0  0  0  0  0  0  0  0
    1.6838    1.3802   -0.2701 H   0  0  0  0  0  0  0  0  0  0  0  0
    2.0083   -0.1635   -1.0767 H   0  0  0  0  0  0  0  0  0  0  0  0
    2.7363   -0.8139    1.2744 H   0  0  0  0  0  0  0  0  0  0  0  0
  1  2  1  0
  2  3  1  0
  2  4  1  0
  4  5  2  0
  2  6  1  0
  6  7  1  0
  7  8  1  0
  1  9  1  0
  1 10  1  0
  1 11  1  0
  3 12  1  0
  4 13  1  0
  6 14  1  0
  6 15  1  0
  7 16  1  0
  7 17  1  0
  8 18  1  0
M  END
