
     RDKit          3D

 19 19  0  0  0  0  0  0  0  0999 V2000
    2.7476    1.1870    0.9725 C   0  0  0  0  0  0  0  0  0  0  0  0
    2.2143   -0.0991    0.4388 C   0  0  0  0  0  0  0  0  0  0  0  0
    2.7751   -0.4816   -0.7745 O   0  0  0  0  0  0  0  0  0  0  0  0
    0.7424    0.0160    0.3068 C   0  0  0  0  0  0  0  0  0  0  0  0
   -0.4350    0.0980    0.2186 C   0  0  0  0  0  0  0  0  0  0  0  0
   -1.8846    0.2180    0.0927 C   0  0  0  0  0  0  0  0  0  0  0  0
   -2.6401   -1.0950    0.0707 C   0  0  0  0  0  0  0  0  0  0  0  0
   -3.4949   -0.4933   -0.8835 O   0  0  0  0  0  0  0  0  0  0  0  0
   -2.3336    0.1746   -1.3416 C   0  0  0  0  0  0  0  0  0  0  0  0
    2.9877    1.1329    2.0690 H   0  0  0  0  0  0  0  0  0  0  0  0
    3.7050    1.5122    0.4886 H   0  0  0  0  0  0  0  0  0  0  0  0
    2.0206    1.9896    0.7652 H   0  0  0  0  0  0  0  0  0  0  0  0
    2.4537   -0.9395    1.1566 H   0  0  0  0  0  0  0  0  0  0  0  0
    2.9900   -1.4521   -0.8142 H   0  0  0  0  0  0  0  0  0  0  0  0
   -2.3829    0.9547    0.7169 H   0  0  0  0  0  0  0  0  0  0  0  0
   -3.1223   -1.3982    0.9978 H   0  0  0  0  0  0  0  0  0  0  0  0
   -2.0616   -1.9003   -0.4451 H   0  0  0  0  0  0  0  0  0  0  0  0
   -2.5383    1.1405   -1.8295 H   0  0  0  0  0  0  0  0  0  0  0  0
   -1.7430   -0.5642   -1.9248 H   0  0  0  0  0  0  0  0  0  0  0  0
  1  2  1  0
  2  3  1  0
  2  4  1  0
  4  5  3  0
  5  6  1  0
  6  7  1  0
  7  8  1  0
  8  9  1  0
  9  6  1  0
  1 10  1  0
  1 11  1  0
  1 12  1  0
  2 13  1  0
  3 14  1  0
  6 15  1  0
  7 16  1  0
  7 17  1  0
  9 18  1  0
  9 19  1  0
M  END
