
     RDKit          3D

 15 14  0  0  0  0  0  0  0  0999 V2000
   -1.4350   -1.2315    0.3661 C   0  0  0  0  0  0  0  0  0  0  0  0
   -1.4272    0.2633    0.2117 C   0  0  0  0  0  0  0  0  0  0  0  0
   -2.7202    0.6257   -0.2422 O   0  0  0  0  0  0  0  0  0  0  0  0
   -0.3858    0.7825   -0.6782 C   0  0  0  0  0  0  0  0  0  0  0  0
   -0.7464    1.4588   -1.6865 O   0  0  0  0  0  0  0  0  0  0  0  0
    0.9910    0.5182   -0.3912 C   0  0  0  0  0  0  0  0  0  0  0  0
    2.1726    0.2707   -0.1467 C   0  0  0  0  0  0  0  0  0  0  0  0
    3.5339    0.0097    0.1411 C   0  0  0  0  0  0  0  0  0  0  0  0
    4.0832    0.5427    1.1612 O   0  0  0  0  0  0  0  0  0  0  0  0
   -0.4532   -1.7053    0.1002 H   0  0  0  0  0  0  0  0  0  0  0  0
   -1.6573   -1.4958    1.4034 H   0  0  0  0  0  0  0  0  0  0  0  0
   -2.2033   -1.6596   -0.2865 H   0  0  0  0  0  0  0  0  0  0  0  0
   -1.3405    0.7353    1.2106 H   0  0  0  0  0  0  0  0  0  0  0  0
   -2.5472    1.5082   -0.6994 H   0  0  0  0  0  0  0  0  0  0  0  0
    4.1355   -0.6230   -0.4636 H   0  0  0  0  0  0  0  0  0  0  0  0
  1  2  1  0
  2  3  1  0
  2  4  1  0
  4  5  2  0
  4  6  1  0
  6  7  3  0
  7  8  1  0
  8  9  2  0
  1 10  1  0
  1 11  1  0
  1 12  1  0
  2 13  1  0
  3 14  1  0
  8 15  1  0
M  END
