
     RDKit          3D

 21 22  0  0  0  0  0  0  0  0999 V2000
   -2.4786   -0.0721   -0.2469 C   0  0  0  0  0  0  0  0  0  0  0  0
   -1.0609   -0.2469   -0.7113 C   0  0  0  0  0  0  0  0  0  0  0  0
   -0.7903   -1.6145   -0.7852 O   0  0  0  0  0  0  0  0  0  0  0  0
   -0.0671    0.4801    0.1570 C   0  0  0  0  0  0  0  0  0  0  0  0
    1.3317    0.5206   -0.3827 C   0  0  0  0  0  0  0  0  0  0  0  0
    2.0157   -0.8218   -0.6133 C   0  0  0  0  0  0  0  0  0  0  0  0
    2.5006    0.1326    0.4081 C   0  0  0  0  0  0  0  0  0  0  0  0
   -0.4543    1.2306    1.3447 C   0  0  0  0  0  0  0  0  0  0  0  0
   -0.1381   -0.1004    1.5254 O   0  0  0  0  0  0  0  0  0  0  0  0
   -2.7476    0.9801   -0.3446 H   0  0  0  0  0  0  0  0  0  0  0  0
   -3.1262   -0.6438   -0.9434 H   0  0  0  0  0  0  0  0  0  0  0  0
   -2.6642   -0.4217    0.7690 H   0  0  0  0  0  0  0  0  0  0  0  0
   -1.0003    0.1373   -1.7509 H   0  0  0  0  0  0  0  0  0  0  0  0
   -1.4460   -2.1731   -0.3355 H   0  0  0  0  0  0  0  0  0  0  0  0
    1.4933    1.3231   -1.1557 H   0  0  0  0  0  0  0  0  0  0  0  0
    2.4688   -0.9318   -1.6018 H   0  0  0  0  0  0  0  0  0  0  0  0
    1.4762   -1.7178   -0.2085 H   0  0  0  0  0  0  0  0  0  0  0  0
    2.4430   -0.1603    1.4713 H   0  0  0  0  0  0  0  0  0  0  0  0
    3.4847    0.6206    0.1587 H   0  0  0  0  0  0  0  0  0  0  0  0
    0.2703    1.9714    1.7316 H   0  0  0  0  0  0  0  0  0  0  0  0
   -1.5106    1.5079    1.5139 H   0  0  0  0  0  0  0  0  0  0  0  0
  1  2  1  0
  2  3  1  0
  2  4  1  0
  4  5  1  0
  5  6  1  0
  6  7  1  0
  4  8  1  0
  8  9  1  0
  9  4  1  0
  7  5  1  0
  1 10  1  0
  1 11  1  0
  1 12  1  0
  2 13  1  0
  3 14  1  0
  5 15  1  0
  6 16  1  0
  6 17  1  0
  7 18  1  0
  7 19  1  0
  8 20  1  0
  8 21  1  0
M  END
