
     RDKit          3D

 21 22  0  0  0  0  0  0  0  0999 V2000
    2.0418   -0.1213    0.9883 C   0  0  0  0  0  0  0  0  0  0  0  0
    1.1899   -0.5525   -0.1789 C   0  0  0  0  0  0  0  0  0  0  0  0
    2.0192   -0.5416   -1.3092 O   0  0  0  0  0  0  0  0  0  0  0  0
    0.0347    0.3518   -0.4485 C   0  0  0  0  0  0  0  0  0  0  0  0
    0.3247    1.6861   -0.7127 O   0  0  0  0  0  0  0  0  0  0  0  0
   -0.6239    2.1668    0.2188 C   0  0  0  0  0  0  0  0  0  0  0  0
   -0.9631    0.7448    0.5230 C   0  0  0  0  0  0  0  0  0  0  0  0
   -1.3250   -0.0912   -0.6970 C   0  0  0  0  0  0  0  0  0  0  0  0
   -1.8551   -1.4398   -0.3758 C   0  0  0  0  0  0  0  0  0  0  0  0
    2.2873    0.9587    0.9599 H   0  0  0  0  0  0  0  0  0  0  0  0
    1.6349   -0.4540    1.9625 H   0  0  0  0  0  0  0  0  0  0  0  0
    3.0210   -0.6538    0.8765 H   0  0  0  0  0  0  0  0  0  0  0  0
    0.8824   -1.5925   -0.0192 H   0  0  0  0  0  0  0  0  0  0  0  0
    1.9800   -1.4023   -1.8051 H   0  0  0  0  0  0  0  0  0  0  0  0
   -0.1410    2.7403    1.0151 H   0  0  0  0  0  0  0  0  0  0  0  0
   -1.4458    2.7296   -0.2872 H   0  0  0  0  0  0  0  0  0  0  0  0
   -1.1075    0.3638    1.5192 H   0  0  0  0  0  0  0  0  0  0  0  0
   -1.9767    0.4973   -1.4069 H   0  0  0  0  0  0  0  0  0  0  0  0
   -2.8894   -1.3391    0.0091 H   0  0  0  0  0  0  0  0  0  0  0  0
   -1.8505   -2.1403   -1.2433 H   0  0  0  0  0  0  0  0  0  0  0  0
   -1.2381   -1.9105    0.4113 H   0  0  0  0  0  0  0  0  0  0  0  0
  1  2  1  0
  2  3  1  0
  2  4  1  0
  4  5  1  0
  5  6  1  0
  6  7  1  0
  7  8  1  0
  8  9  1  0
  7  4  1  0
  8  4  1  0
  1 10  1  0
  1 11  1  0
  1 12  1  0
  2 13  1  0
  3 14  1  0
  6 15  1  0
  6 16  1  0
  7 17  1  0
  8 18  1  0
  9 19  1  0
  9 20  1  0
  9 21  1  0
M  END
