
     RDKit          3D

 21 21  0  0  0  0  0  0  0  0999 V2000
    1.8929    0.8005    0.0948 C   0  0  0  0  0  0  0  0  0  0  0  0
    1.4203   -0.5480   -0.4040 C   0  0  0  0  0  0  0  0  0  0  0  0
    1.2523   -0.4605   -1.7755 O   0  0  0  0  0  0  0  0  0  0  0  0
    0.1094   -0.8843    0.2969 C   0  0  0  0  0  0  0  0  0  0  0  0
   -0.3940   -2.1058   -0.1474 O   0  0  0  0  0  0  0  0  0  0  0  0
   -0.8481    0.2445    0.0119 C   0  0  0  0  0  0  0  0  0  0  0  0
   -0.9371    1.3648    1.0090 C   0  0  0  0  0  0  0  0  0  0  0  0
   -2.1973   -0.1173   -0.6143 C   0  0  0  0  0  0  0  0  0  0  0  0
   -1.1501    0.4395   -1.3127 O   0  0  0  0  0  0  0  0  0  0  0  0
    3.0023    0.7905    0.0146 H   0  0  0  0  0  0  0  0  0  0  0  0
    1.5232    1.5908   -0.6009 H   0  0  0  0  0  0  0  0  0  0  0  0
    1.6433    0.9901    1.1468 H   0  0  0  0  0  0  0  0  0  0  0  0
    2.1438   -1.3527   -0.1932 H   0  0  0  0  0  0  0  0  0  0  0  0
    0.6570   -1.1672   -2.1167 H   0  0  0  0  0  0  0  0  0  0  0  0
    0.2909   -0.9682    1.3802 H   0  0  0  0  0  0  0  0  0  0  0  0
   -0.0091   -2.8694    0.3471 H   0  0  0  0  0  0  0  0  0  0  0  0
   -0.3535    2.2569    0.7375 H   0  0  0  0  0  0  0  0  0  0  0  0
   -2.0041    1.6748    1.2122 H   0  0  0  0  0  0  0  0  0  0  0  0
   -0.5998    0.9327    1.9965 H   0  0  0  0  0  0  0  0  0  0  0  0
   -2.3933   -1.1879   -0.6284 H   0  0  0  0  0  0  0  0  0  0  0  0
   -3.0487    0.5762   -0.4547 H   0  0  0  0  0  0  0  0  0  0  0  0
  1  2  1  0
  2  3  1  0
  2  4  1  0
  4  5  1  0
  4  6  1  0
  6  7  1  0
  6  8  1  0
  8  9  1  0
  9  6  1  0
  1 10  1  0
  1 11  1  0
  1 12  1  0
  2 13  1  0
  3 14  1  0
  4 15  1  0
  5 16  1  0
  7 17  1  0
  7 18  1  0
  7 19  1  0
  8 20  1  0
  8 21  1  0
M  END
