
     RDKit          3D

 21 22  0  0  0  0  0  0  0  0999 V2000
    1.8581   -0.1074   -0.7549 C   0  0  0  0  0  0  0  0  0  0  0  0
    1.4114   -0.3974    0.6387 C   0  0  0  0  0  0  0  0  0  0  0  0
    2.1535    0.2978    1.5913 O   0  0  0  0  0  0  0  0  0  0  0  0
   -0.0541   -0.0960    0.8527 C   0  0  0  0  0  0  0  0  0  0  0  0
   -0.3053    1.3339    0.5813 C   0  0  0  0  0  0  0  0  0  0  0  0
   -1.0662    1.4780   -0.5053 C   0  0  0  0  0  0  0  0  0  0  0  0
   -1.4034    0.1665   -1.0745 C   0  0  0  0  0  0  0  0  0  0  0  0
   -2.3182   -0.6967   -0.2759 C   0  0  0  0  0  0  0  0  0  0  0  0
   -0.8562   -0.8801   -0.1408 C   0  0  0  0  0  0  0  0  0  0  0  0
    1.0214    0.1065   -1.4486 H   0  0  0  0  0  0  0  0  0  0  0  0
    2.3763   -1.0035   -1.2011 H   0  0  0  0  0  0  0  0  0  0  0  0
    2.5796    0.7351   -0.7616 H   0  0  0  0  0  0  0  0  0  0  0  0
    1.6042   -1.4838    0.8499 H   0  0  0  0  0  0  0  0  0  0  0  0
    2.0603   -0.1976    2.4469 H   0  0  0  0  0  0  0  0  0  0  0  0
   -0.3559   -0.2896    1.9038 H   0  0  0  0  0  0  0  0  0  0  0  0
    0.0886    2.1330    1.1993 H   0  0  0  0  0  0  0  0  0  0  0  0
   -1.3624    2.4533   -0.8694 H   0  0  0  0  0  0  0  0  0  0  0  0
   -1.2626   -0.0261   -2.1598 H   0  0  0  0  0  0  0  0  0  0  0  0
   -2.8547   -1.5342   -0.7835 H   0  0  0  0  0  0  0  0  0  0  0  0
   -2.9299   -0.2149    0.5053 H   0  0  0  0  0  0  0  0  0  0  0  0
   -0.3845   -1.7767   -0.5938 H   0  0  0  0  0  0  0  0  0  0  0  0
  1  2  1  0
  2  3  1  0
  2  4  1  0
  4  5  1  0
  5  6  2  0
  6  7  1  0
  7  8  1  0
  8  9  1  0
  9  4  1  0
  9  7  1  0
  1 10  1  0
  1 11  1  0
  1 12  1  0
  2 13  1  0
  3 14  1  0
  4 15  1  0
  5 16  1  0
  6 17  1  0
  7 18  1  0
  8 19  1  0
  8 20  1  0
  9 21  1  0
M  END
