
     RDKit          3D

 21 21  0  0  0  0  0  0  0  0999 V2000
    2.4557   -0.1050    0.4917 C   0  0  0  0  0  0  0  0  0  0  0  0
    1.5400    0.0408   -0.6936 C   0  0  0  0  0  0  0  0  0  0  0  0
    1.8931    1.1227   -1.4654 O   0  0  0  0  0  0  0  0  0  0  0  0
    0.1055    0.0240   -0.3253 C   0  0  0  0  0  0  0  0  0  0  0  0
   -0.7012    1.0399   -0.5818 C   0  0  0  0  0  0  0  0  0  0  0  0
   -2.1614    1.0200   -0.2057 C   0  0  0  0  0  0  0  0  0  0  0  0
   -2.5673   -0.3106   -0.3465 O   0  0  0  0  0  0  0  0  0  0  0  0
   -1.9219   -1.0395    0.6423 C   0  0  0  0  0  0  0  0  0  0  0  0
   -0.4370   -1.1821    0.3563 C   0  0  0  0  0  0  0  0  0  0  0  0
    2.2090   -0.9743    1.1008 H   0  0  0  0  0  0  0  0  0  0  0  0
    2.4516    0.7818    1.1508 H   0  0  0  0  0  0  0  0  0  0  0  0
    3.4796   -0.2519    0.0981 H   0  0  0  0  0  0  0  0  0  0  0  0
    1.7096   -0.8757   -1.3309 H   0  0  0  0  0  0  0  0  0  0  0  0
    2.0354    1.9566   -0.9904 H   0  0  0  0  0  0  0  0  0  0  0  0
   -0.3239    1.9125   -1.0712 H   0  0  0  0  0  0  0  0  0  0  0  0
   -2.2711    1.3949    0.8113 H   0  0  0  0  0  0  0  0  0  0  0  0
   -2.7374    1.6079   -0.9499 H   0  0  0  0  0  0  0  0  0  0  0  0
   -2.1139   -0.6052    1.6505 H   0  0  0  0  0  0  0  0  0  0  0  0
   -2.4128   -2.0565    0.6403 H   0  0  0  0  0  0  0  0  0  0  0  0
   -0.3412   -2.0982   -0.2843 H   0  0  0  0  0  0  0  0  0  0  0  0
    0.1096   -1.4022    1.3030 H   0  0  0  0  0  0  0  0  0  0  0  0
  1  2  1  0
  2  3  1  0
  2  4  1  0
  4  5  2  0
  5  6  1  0
  6  7  1  0
  7  8  1  0
  8  9  1  0
  9  4  1  0
  1 10  1  0
  1 11  1  0
  1 12  1  0
  2 13  1  0
  3 14  1  0
  5 15  1  0
  6 16  1  0
  6 17  1  0
  8 18  1  0
  8 19  1  0
  9 20  1  0
  9 21  1  0
M  END
