
     RDKit          3D

 23 24  0  0  0  0  0  0  0  0999 V2000
    2.1328    0.2095    0.3368 C   0  0  0  0  0  0  0  0  0  0  0  0
    1.2657   -0.2150   -0.8161 C   0  0  0  0  0  0  0  0  0  0  0  0
    1.1472    0.7602   -1.7911 O   0  0  0  0  0  0  0  0  0  0  0  0
   -0.0260   -0.7174   -0.2925 C   0  0  0  0  0  0  0  0  0  0  0  0
   -1.0993   -1.2159   -1.2502 C   0  0  0  0  0  0  0  0  0  0  0  0
   -2.0388   -0.2325   -0.6198 C   0  0  0  0  0  0  0  0  0  0  0  0
   -1.0068    0.0749    0.4323 C   0  0  0  0  0  0  0  0  0  0  0  0
   -0.8219    1.4934    0.8436 C   0  0  0  0  0  0  0  0  0  0  0  0
   -0.2783   -0.9986    1.1309 C   0  0  0  0  0  0  0  0  0  0  0  0
    2.4260   -0.7264    0.8763 H   0  0  0  0  0  0  0  0  0  0  0  0
    1.6837    0.9376    1.0061 H   0  0  0  0  0  0  0  0  0  0  0  0
    3.0900    0.5896   -0.1073 H   0  0  0  0  0  0  0  0  0  0  0  0
    1.7999   -1.0825   -1.3024 H   0  0  0  0  0  0  0  0  0  0  0  0
    1.8812    1.4102   -1.6874 H   0  0  0  0  0  0  0  0  0  0  0  0
   -1.3554   -2.2660   -1.0314 H   0  0  0  0  0  0  0  0  0  0  0  0
   -0.7771   -0.9942   -2.2850 H   0  0  0  0  0  0  0  0  0  0  0  0
   -2.1658    0.6710   -1.2736 H   0  0  0  0  0  0  0  0  0  0  0  0
   -2.9934   -0.6330   -0.2692 H   0  0  0  0  0  0  0  0  0  0  0  0
   -1.8465    1.9670    0.8640 H   0  0  0  0  0  0  0  0  0  0  0  0
   -0.2317    2.0817    0.1233 H   0  0  0  0  0  0  0  0  0  0  0  0
   -0.4576    1.5661    1.8880 H   0  0  0  0  0  0  0  0  0  0  0  0
   -0.7684   -1.9879    1.3355 H   0  0  0  0  0  0  0  0  0  0  0  0
    0.4404   -0.6918    1.8922 H   0  0  0  0  0  0  0  0  0  0  0  0
  1  2  1  0
  2  3  1  0
  2  4  1  0
  4  5  1  0
  5  6  1  0
  6  7  1  0
  7  8  1  0
  7  9  1  0
  7  4  1  0
  9  4  1  0
  1 10  1  0
  1 11  1  0
  1 12  1  0
  2 13  1  0
  3 14  1  0
  5 15  1  0
  5 16  1  0
  6 17  1  0
  6 18  1  0
  8 19  1  0
  8 20  1  0
  8 21  1  0
  9 22  1  0
  9 23  1  0
M  END
