
     RDKit          3D

 21 21  0  0  0  0  0  0  0  0999 V2000
   -2.6570    0.0753    0.8385 C   0  0  0  0  0  0  0  0  0  0  0  0
   -1.5643    0.5223   -0.1083 C   0  0  0  0  0  0  0  0  0  0  0  0
   -2.1568    0.6758   -1.3621 O   0  0  0  0  0  0  0  0  0  0  0  0
   -0.4782   -0.5053   -0.2474 C   0  0  0  0  0  0  0  0  0  0  0  0
    0.7990    0.1749   -0.7597 C   0  0  0  0  0  0  0  0  0  0  0  0
    1.3702   -0.9192    0.1285 C   0  0  0  0  0  0  0  0  0  0  0  0
    2.6410   -0.4091    0.7884 C   0  0  0  0  0  0  0  0  0  0  0  0
    2.5469    0.9288    1.1046 O   0  0  0  0  0  0  0  0  0  0  0  0
    0.2321   -0.7933    0.9158 O   0  0  0  0  0  0  0  0  0  0  0  0
   -3.0736    0.9604    1.3541 H   0  0  0  0  0  0  0  0  0  0  0  0
   -2.2493   -0.6844    1.5496 H   0  0  0  0  0  0  0  0  0  0  0  0
   -3.4549   -0.4776    0.2646 H   0  0  0  0  0  0  0  0  0  0  0  0
   -1.1130    1.4799    0.1879 H   0  0  0  0  0  0  0  0  0  0  0  0
   -1.9942    1.5895   -1.7132 H   0  0  0  0  0  0  0  0  0  0  0  0
   -0.7594   -1.4159   -0.7825 H   0  0  0  0  0  0  0  0  0  0  0  0
    0.9034    1.1666   -0.3243 H   0  0  0  0  0  0  0  0  0  0  0  0
    0.9652    0.0590   -1.8280 H   0  0  0  0  0  0  0  0  0  0  0  0
    1.5023   -1.8886   -0.3828 H   0  0  0  0  0  0  0  0  0  0  0  0
    2.8452   -1.0148    1.7101 H   0  0  0  0  0  0  0  0  0  0  0  0
    3.4896   -0.5541    0.0890 H   0  0  0  0  0  0  0  0  0  0  0  0
    2.2057    1.0299    2.0126 H   0  0  0  0  0  0  0  0  0  0  0  0
  1  2  1  0
  2  3  1  0
  2  4  1  0
  4  5  1  0
  5  6  1  0
  6  7  1  0
  7  8  1  0
  6  9  1  0
  9  4  1  0
  1 10  1  0
  1 11  1  0
  1 12  1  0
  2 13  1  0
  3 14  1  0
  4 15  1  0
  5 16  1  0
  5 17  1  0
  6 18  1  0
  7 19  1  0
  7 20  1  0
  8 21  1  0
M  END
