
     RDKit          3D

 20 20  0  0  0  0  0  0  0  0999 V2000
   -2.1437   -1.1892   -0.3888 C   0  0  0  0  0  0  0  0  0  0  0  0
   -1.2755   -0.0197   -0.0092 C   0  0  0  0  0  0  0  0  0  0  0  0
   -2.0533    1.1488    0.0863 O   0  0  0  0  0  0  0  0  0  0  0  0
   -0.2086    0.2577   -1.0358 C   0  0  0  0  0  0  0  0  0  0  0  0
    0.6786    1.4448   -0.6583 C   0  0  0  0  0  0  0  0  0  0  0  0
    1.2166    0.0756   -0.7724 C   0  0  0  0  0  0  0  0  0  0  0  0
    1.7574   -0.5940    0.4498 C   0  0  0  0  0  0  0  0  0  0  0  0
    3.1610   -0.5917    0.3698 O   0  0  0  0  0  0  0  0  0  0  0  0
   -1.8355   -1.6691   -1.3432 H   0  0  0  0  0  0  0  0  0  0  0  0
   -3.2154   -0.8454   -0.4275 H   0  0  0  0  0  0  0  0  0  0  0  0
   -2.1172   -1.9314    0.4523 H   0  0  0  0  0  0  0  0  0  0  0  0
   -0.8131   -0.1665    0.9769 H   0  0  0  0  0  0  0  0  0  0  0  0
   -2.2476    1.3655    1.0117 H   0  0  0  0  0  0  0  0  0  0  0  0
   -0.5778    0.2641   -2.0766 H   0  0  0  0  0  0  0  0  0  0  0  0
    0.8636    2.2200   -1.4376 H   0  0  0  0  0  0  0  0  0  0  0  0
    0.6121    1.8603    0.3549 H   0  0  0  0  0  0  0  0  0  0  0  0
    1.8564   -0.0977   -1.6876 H   0  0  0  0  0  0  0  0  0  0  0  0
    1.4054   -1.6553    0.4631 H   0  0  0  0  0  0  0  0  0  0  0  0
    1.4349   -0.1490    1.3979 H   0  0  0  0  0  0  0  0  0  0  0  0
    3.5017    0.2722    0.6551 H   0  0  0  0  0  0  0  0  0  0  0  0
  1  2  1  0
  2  3  1  0
  2  4  1  0
  4  5  1  0
  5  6  1  0
  6  7  1  0
  7  8  1  0
  6  4  1  0
  1  9  1  0
  1 10  1  0
  1 11  1  0
  2 12  1  0
  3 13  1  0
  4 14  1  0
  5 15  1  0
  5 16  1  0
  6 17  1  0
  7 18  1  0
  7 19  1  0
  8 20  1  0
M  END
