
     RDKit          3D

 21 21  0  0  0  0  0  0  0  0999 V2000
    3.1558    0.7649    0.5697 C   0  0  0  0  0  0  0  0  0  0  0  0
    2.3931   -0.5063    0.8168 C   0  0  0  0  0  0  0  0  0  0  0  0
    3.1018   -1.5612    0.2609 O   0  0  0  0  0  0  0  0  0  0  0  0
    1.0694   -0.3385    0.1780 C   0  0  0  0  0  0  0  0  0  0  0  0
   -0.0002   -0.1898   -0.3571 C   0  0  0  0  0  0  0  0  0  0  0  0
   -1.2977   -0.0284   -1.0185 C   0  0  0  0  0  0  0  0  0  0  0  0
   -2.2927   -1.0135   -0.5039 C   0  0  0  0  0  0  0  0  0  0  0  0
   -2.9938    0.0860    0.2510 C   0  0  0  0  0  0  0  0  0  0  0  0
   -2.1381    1.0976   -0.4761 C   0  0  0  0  0  0  0  0  0  0  0  0
    3.8535    0.9225    1.4251 H   0  0  0  0  0  0  0  0  0  0  0  0
    2.5271    1.6446    0.4325 H   0  0  0  0  0  0  0  0  0  0  0  0
    3.7713    0.6661   -0.3716 H   0  0  0  0  0  0  0  0  0  0  0  0
    2.2236   -0.7201    1.8867 H   0  0  0  0  0  0  0  0  0  0  0  0
    3.9095   -1.2435   -0.2118 H   0  0  0  0  0  0  0  0  0  0  0  0
   -1.2652   -0.0465   -2.1229 H   0  0  0  0  0  0  0  0  0  0  0  0
   -2.9937   -1.4112   -1.2906 H   0  0  0  0  0  0  0  0  0  0  0  0
   -1.9172   -1.8500    0.0835 H   0  0  0  0  0  0  0  0  0  0  0  0
   -4.0615    0.2295    0.0122 H   0  0  0  0  0  0  0  0  0  0  0  0
   -2.7308    0.0451    1.3159 H   0  0  0  0  0  0  0  0  0  0  0  0
   -1.6174    1.8221    0.1530 H   0  0  0  0  0  0  0  0  0  0  0  0
   -2.6968    1.6306   -1.2954 H   0  0  0  0  0  0  0  0  0  0  0  0
  1  2  1  0
  2  3  1  0
  2  4  1  0
  4  5  3  0
  5  6  1  0
  6  7  1  0
  7  8  1  0
  8  9  1  0
  9  6  1  0
  1 10  1  0
  1 11  1  0
  1 12  1  0
  2 13  1  0
  3 14  1  0
  6 15  1  0
  7 16  1  0
  7 17  1  0
  8 18  1  0
  8 19  1  0
  9 20  1  0
  9 21  1  0
M  END
