
     RDKit          3D

 23 23  0  0  0  0  0  0  0  0999 V2000
   -2.6019    0.1966   -0.4583 C   0  0  0  0  0  0  0  0  0  0  0  0
   -1.5788    0.6202    0.5709 C   0  0  0  0  0  0  0  0  0  0  0  0
   -1.3622   -0.4223    1.4598 O   0  0  0  0  0  0  0  0  0  0  0  0
   -0.2769    1.0412   -0.0799 C   0  0  0  0  0  0  0  0  0  0  0  0
    0.3079   -0.1107   -0.8774 C   0  0  0  0  0  0  0  0  0  0  0  0
    0.5794   -1.2780    0.0002 C   0  0  0  0  0  0  0  0  0  0  0  0
    1.8160   -1.2256    0.4753 C   0  0  0  0  0  0  0  0  0  0  0  0
    2.4960   -0.0060   -0.0442 C   0  0  0  0  0  0  0  0  0  0  0  0
    1.7100    0.2669   -1.3071 C   0  0  0  0  0  0  0  0  0  0  0  0
   -2.6424   -0.8984   -0.4721 H   0  0  0  0  0  0  0  0  0  0  0  0
   -3.6087    0.5950   -0.1818 H   0  0  0  0  0  0  0  0  0  0  0  0
   -2.3547    0.5351   -1.4740 H   0  0  0  0  0  0  0  0  0  0  0  0
   -1.9920    1.4656    1.1293 H   0  0  0  0  0  0  0  0  0  0  0  0
   -2.0373   -1.1269    1.3193 H   0  0  0  0  0  0  0  0  0  0  0  0
    0.4219    1.2885    0.7157 H   0  0  0  0  0  0  0  0  0  0  0  0
   -0.4724    1.9214   -0.6842 H   0  0  0  0  0  0  0  0  0  0  0  0
   -0.3527   -0.3535   -1.7244 H   0  0  0  0  0  0  0  0  0  0  0  0
   -0.1160   -2.0691    0.2325 H   0  0  0  0  0  0  0  0  0  0  0  0
    2.2685   -1.9637    1.1459 H   0  0  0  0  0  0  0  0  0  0  0  0
    2.4131    0.8547    0.6654 H   0  0  0  0  0  0  0  0  0  0  0  0
    3.5699   -0.1823   -0.2477 H   0  0  0  0  0  0  0  0  0  0  0  0
    1.7867    1.3152   -1.6395 H   0  0  0  0  0  0  0  0  0  0  0  0
    2.0268   -0.4639   -2.0841 H   0  0  0  0  0  0  0  0  0  0  0  0
  1  2  1  0
  2  3  1  0
  2  4  1  0
  4  5  1  0
  5  6  1  0
  6  7  2  0
  7  8  1  0
  8  9  1  0
  9  5  1  0
  1 10  1  0
  1 11  1  0
  1 12  1  0
  2 13  1  0
  3 14  1  0
  4 15  1  0
  4 16  1  0
  5 17  1  0
  6 18  1  0
  7 19  1  0
  8 20  1  0
  8 21  1  0
  9 22  1  0
  9 23  1  0
M  END
