
     RDKit          3D

 19 18  0  0  0  0  0  0  0  0999 V2000
    1.8112    0.2564    0.6195 C   0  0  0  0  0  0  0  0  0  0  0  0
    0.8924    0.2457   -0.5535 C   0  0  0  0  0  0  0  0  0  0  0  0
    1.2695   -0.7907   -1.4130 O   0  0  0  0  0  0  0  0  0  0  0  0
   -0.5574    0.1663   -0.2631 C   0  0  0  0  0  0  0  0  0  0  0  0
   -1.2341    0.2795   -1.4784 O   0  0  0  0  0  0  0  0  0  0  0  0
   -0.9687    1.3277    0.5665 C   0  0  0  0  0  0  0  0  0  0  0  0
   -0.5218    1.4810    1.6960 O   0  0  0  0  0  0  0  0  0  0  0  0
   -1.0374   -1.0737    0.4088 C   0  0  0  0  0  0  0  0  0  0  0  0
   -2.4134   -0.9979    0.6334 O   0  0  0  0  0  0  0  0  0  0  0  0
    1.7206   -0.6181    1.2867 H   0  0  0  0  0  0  0  0  0  0  0  0
    1.7476    1.2076    1.2042 H   0  0  0  0  0  0  0  0  0  0  0  0
    2.8520    0.2221    0.2297 H   0  0  0  0  0  0  0  0  0  0  0  0
    1.0745    1.1870   -1.1170 H   0  0  0  0  0  0  0  0  0  0  0  0
    2.0914   -1.2129   -1.1052 H   0  0  0  0  0  0  0  0  0  0  0  0
   -0.8170   -0.2345   -2.1986 H   0  0  0  0  0  0  0  0  0  0  0  0
   -1.6691    2.0602    0.1924 H   0  0  0  0  0  0  0  0  0  0  0  0
   -0.5840   -1.2929    1.3759 H   0  0  0  0  0  0  0  0  0  0  0  0
   -0.8821   -1.9876   -0.2274 H   0  0  0  0  0  0  0  0  0  0  0  0
   -2.7741   -0.2252    0.1428 H   0  0  0  0  0  0  0  0  0  0  0  0
  1  2  1  0
  2  3  1  0
  2  4  1  0
  4  5  1  0
  4  6  1  0
  6  7  2  0
  4  8  1  0
  8  9  1  0
  1 10  1  0
  1 11  1  0
  1 12  1  0
  2 13  1  0
  3 14  1  0
  5 15  1  0
  6 16  1  0
  8 17  1  0
  8 18  1  0
  9 19  1  0
M  END
