
     RDKit          3D

 25 24  0  0  0  0  0  0  0  0999 V2000
   -1.2630   -1.7934   -0.3903 C   0  0  0  0  0  0  0  0  0  0  0  0
   -0.8762   -0.6435    0.4914 C   0  0  0  0  0  0  0  0  0  0  0  0
   -2.0796   -0.0818    0.9723 O   0  0  0  0  0  0  0  0  0  0  0  0
   -0.1650    0.4632   -0.2504 C   0  0  0  0  0  0  0  0  0  0  0  0
   -1.0811    0.9890   -1.3270 C   0  0  0  0  0  0  0  0  0  0  0  0
    0.1201    1.5851    0.7019 C   0  0  0  0  0  0  0  0  0  0  0  0
    1.1278   -0.0010   -0.8668 C   0  0  0  0  0  0  0  0  0  0  0  0
    2.1068   -0.5189    0.1321 C   0  0  0  0  0  0  0  0  0  0  0  0
    2.4384    0.4452    1.0521 O   0  0  0  0  0  0  0  0  0  0  0  0
   -0.5543   -2.0260   -1.1833 H   0  0  0  0  0  0  0  0  0  0  0  0
   -2.2561   -1.6236   -0.8983 H   0  0  0  0  0  0  0  0  0  0  0  0
   -1.4625   -2.6750    0.2875 H   0  0  0  0  0  0  0  0  0  0  0  0
   -0.3140   -0.9501    1.3881 H   0  0  0  0  0  0  0  0  0  0  0  0
   -2.6784   -0.0633    0.1626 H   0  0  0  0  0  0  0  0  0  0  0  0
   -1.8615    1.6186   -0.8580 H   0  0  0  0  0  0  0  0  0  0  0  0
   -1.5363    0.1212   -1.8761 H   0  0  0  0  0  0  0  0  0  0  0  0
   -0.5261    1.5595   -2.1065 H   0  0  0  0  0  0  0  0  0  0  0  0
    0.3368    1.2102    1.7297 H   0  0  0  0  0  0  0  0  0  0  0  0
    1.0200    2.1884    0.4114 H   0  0  0  0  0  0  0  0  0  0  0  0
   -0.7565    2.2714    0.8265 H   0  0  0  0  0  0  0  0  0  0  0  0
    0.9303   -0.7186   -1.6809 H   0  0  0  0  0  0  0  0  0  0  0  0
    1.5876    0.8929   -1.3520 H   0  0  0  0  0  0  0  0  0  0  0  0
    1.7609   -1.4109    0.6810 H   0  0  0  0  0  0  0  0  0  0  0  0
    3.0228   -0.8237   -0.4252 H   0  0  0  0  0  0  0  0  0  0  0  0
    2.9592   -0.0148    1.7841 H   0  0  0  0  0  0  0  0  0  0  0  0
  1  2  1  0
  2  3  1  0
  2  4  1  0
  4  5  1  0
  4  6  1  0
  4  7  1  0
  7  8  1  0
  8  9  1  0
  1 10  1  0
  1 11  1  0
  1 12  1  0
  2 13  1  0
  3 14  1  0
  5 15  1  0
  5 16  1  0
  5 17  1  0
  6 18  1  0
  6 19  1  0
  6 20  1  0
  7 21  1  0
  7 22  1  0
  8 23  1  0
  8 24  1  0
  9 25  1  0
M  END
