
     RDKit          3D

 23 23  0  0  0  0  0  0  0  0999 V2000
    2.1194    1.0587    0.4342 C   0  0  0  0  0  0  0  0  0  0  0  0
    0.7966    0.4243    0.8341 C   0  0  0  0  0  0  0  0  0  0  0  0
   -0.0722    1.4549    1.1540 O   0  0  0  0  0  0  0  0  0  0  0  0
    0.3362   -0.4207   -0.3052 C   0  0  0  0  0  0  0  0  0  0  0  0
    1.3892   -1.4783   -0.5625 C   0  0  0  0  0  0  0  0  0  0  0  0
   -0.9719   -1.1166   -0.0531 C   0  0  0  0  0  0  0  0  0  0  0  0
   -2.1024   -0.1645    0.2153 C   0  0  0  0  0  0  0  0  0  0  0  0
   -2.5365    0.8494   -0.7480 C   0  0  0  0  0  0  0  0  0  0  0  0
   -3.2291   -0.3313   -0.7716 O   0  0  0  0  0  0  0  0  0  0  0  0
    2.7536    0.2368    0.0442 H   0  0  0  0  0  0  0  0  0  0  0  0
    2.6005    1.5956    1.2708 H   0  0  0  0  0  0  0  0  0  0  0  0
    1.9334    1.7334   -0.4397 H   0  0  0  0  0  0  0  0  0  0  0  0
    0.9398   -0.1977    1.7297 H   0  0  0  0  0  0  0  0  0  0  0  0
    0.2629    2.3486    0.8738 H   0  0  0  0  0  0  0  0  0  0  0  0
    0.2279    0.2326   -1.2006 H   0  0  0  0  0  0  0  0  0  0  0  0
    2.0209   -1.6455    0.3572 H   0  0  0  0  0  0  0  0  0  0  0  0
    0.9352   -2.4786   -0.7723 H   0  0  0  0  0  0  0  0  0  0  0  0
    2.0565   -1.1276   -1.3606 H   0  0  0  0  0  0  0  0  0  0  0  0
   -1.1747   -1.7503   -0.9554 H   0  0  0  0  0  0  0  0  0  0  0  0
   -0.8855   -1.8194    0.8010 H   0  0  0  0  0  0  0  0  0  0  0  0
   -2.5972   -0.2322    1.2238 H   0  0  0  0  0  0  0  0  0  0  0  0
   -2.9770    1.7736   -0.3299 H   0  0  0  0  0  0  0  0  0  0  0  0
   -1.8256    1.0548   -1.5886 H   0  0  0  0  0  0  0  0  0  0  0  0
  1  2  1  0
  2  3  1  0
  2  4  1  0
  4  5  1  0
  4  6  1  0
  6  7  1  0
  7  8  1  0
  8  9  1  0
  9  7  1  0
  1 10  1  0
  1 11  1  0
  1 12  1  0
  2 13  1  0
  3 14  1  0
  4 15  1  0
  5 16  1  0
  5 17  1  0
  5 18  1  0
  6 19  1  0
  6 20  1  0
  7 21  1  0
  8 22  1  0
  8 23  1  0
M  END
