
     RDKit          3D

 25 25  0  0  0  0  0  0  0  0999 V2000
    2.4348    0.1857    0.0115 C   0  0  0  0  0  0  0  0  0  0  0  0
    1.1325    0.0233    0.7587 C   0  0  0  0  0  0  0  0  0  0  0  0
    1.2654   -1.1473    1.5329 O   0  0  0  0  0  0  0  0  0  0  0  0
   -0.0118   -0.1726   -0.2000 C   0  0  0  0  0  0  0  0  0  0  0  0
    0.3121   -1.4429   -0.9985 C   0  0  0  0  0  0  0  0  0  0  0  0
   -0.0265    0.9545   -1.2087 C   0  0  0  0  0  0  0  0  0  0  0  0
   -1.3340   -0.3171    0.4252 C   0  0  0  0  0  0  0  0  0  0  0  0
   -1.9821    0.6802    1.2757 C   0  0  0  0  0  0  0  0  0  0  0  0
   -2.4594    0.5410   -0.1474 C   0  0  0  0  0  0  0  0  0  0  0  0
    3.2728   -0.0163    0.7345 H   0  0  0  0  0  0  0  0  0  0  0  0
    2.5866    1.1893   -0.3954 H   0  0  0  0  0  0  0  0  0  0  0  0
    2.5392   -0.6078   -0.7741 H   0  0  0  0  0  0  0  0  0  0  0  0
    1.0105    0.8483    1.4524 H   0  0  0  0  0  0  0  0  0  0  0  0
    1.6840   -0.9489    2.4061 H   0  0  0  0  0  0  0  0  0  0  0  0
    0.7212   -1.2138   -1.9830 H   0  0  0  0  0  0  0  0  0  0  0  0
    1.0438   -2.0727   -0.4485 H   0  0  0  0  0  0  0  0  0  0  0  0
   -0.5917   -2.0712   -1.1346 H   0  0  0  0  0  0  0  0  0  0  0  0
    0.9994    0.9681   -1.6594 H   0  0  0  0  0  0  0  0  0  0  0  0
   -0.2877    1.9324   -0.7624 H   0  0  0  0  0  0  0  0  0  0  0  0
   -0.7690    0.6821   -1.9869 H   0  0  0  0  0  0  0  0  0  0  0  0
   -1.6494   -1.3855    0.6120 H   0  0  0  0  0  0  0  0  0  0  0  0
   -1.4615    1.6094    1.5908 H   0  0  0  0  0  0  0  0  0  0  0  0
   -2.7312    0.3464    2.0231 H   0  0  0  0  0  0  0  0  0  0  0  0
   -3.4485    0.0421   -0.3382 H   0  0  0  0  0  0  0  0  0  0  0  0
   -2.2495    1.3934   -0.7858 H   0  0  0  0  0  0  0  0  0  0  0  0
  1  2  1  0
  2  3  1  0
  2  4  1  0
  4  5  1  0
  4  6  1  0
  4  7  1  0
  7  8  1  0
  8  9  1  0
  9  7  1  0
  1 10  1  0
  1 11  1  0
  1 12  1  0
  2 13  1  0
  3 14  1  0
  5 15  1  0
  5 16  1  0
  5 17  1  0
  6 18  1  0
  6 19  1  0
  6 20  1  0
  7 21  1  0
  8 22  1  0
  8 23  1  0
  9 24  1  0
  9 25  1  0
M  END
