
     RDKit          3D

 19 20  0  0  0  0  0  0  0  0999 V2000
   -0.3993    1.3977   -0.4603 C   0  0  0  0  0  0  0  0  0  0  0  0
    0.0752    0.1668    0.2544 C   0  0  0  0  0  0  0  0  0  0  0  0
    0.2870    0.5464    1.5999 O   0  0  0  0  0  0  0  0  0  0  0  0
    1.3363   -0.3501   -0.3733 C   0  0  0  0  0  0  0  0  0  0  0  0
    2.5674   -0.2504    0.5138 C   0  0  0  0  0  0  0  0  0  0  0  0
    1.9479   -1.4624    0.1861 O   0  0  0  0  0  0  0  0  0  0  0  0
   -0.9438   -0.9288    0.2907 C   0  0  0  0  0  0  0  0  0  0  0  0
   -2.1820   -0.9492   -0.3931 C   0  0  0  0  0  0  0  0  0  0  0  0
   -2.1891   -0.4001    0.9125 O   0  0  0  0  0  0  0  0  0  0  0  0
   -0.3857    1.3204   -1.5464 H   0  0  0  0  0  0  0  0  0  0  0  0
    0.2561    2.2465   -0.1033 H   0  0  0  0  0  0  0  0  0  0  0  0
   -1.4186    1.6395   -0.0610 H   0  0  0  0  0  0  0  0  0  0  0  0
   -0.5698    1.0118    1.8604 H   0  0  0  0  0  0  0  0  0  0  0  0
    1.4807   -0.2582   -1.4580 H   0  0  0  0  0  0  0  0  0  0  0  0
    2.4519    0.1302    1.5446 H   0  0  0  0  0  0  0  0  0  0  0  0
    3.4889    0.0484   -0.0240 H   0  0  0  0  0  0  0  0  0  0  0  0
   -0.6415   -1.7978    0.9162 H   0  0  0  0  0  0  0  0  0  0  0  0
   -2.4656   -0.1917   -1.1491 H   0  0  0  0  0  0  0  0  0  0  0  0
   -2.6960   -1.9190   -0.5492 H   0  0  0  0  0  0  0  0  0  0  0  0
  1  2  1  0
  2  3  1  0
  2  4  1  0
  4  5  1  0
  5  6  1  0
  2  7  1  0
  7  8  1  0
  8  9  1  0
  6  4  1  0
  9  7  1  0
  1 10  1  0
  1 11  1  0
  1 12  1  0
  3 13  1  0
  4 14  1  0
  5 15  1  0
  5 16  1  0
  7 17  1  0
  8 18  1  0
  8 19  1  0
M  END
