
     RDKit          3D

 19 20  0  0  0  0  0  0  0  0999 V2000
    2.1185   -0.6698    0.2450 C   0  0  0  0  0  0  0  0  0  0  0  0
    1.0617   -0.1852   -0.7279 C   0  0  0  0  0  0  0  0  0  0  0  0
    1.5792    0.9903   -1.3059 O   0  0  0  0  0  0  0  0  0  0  0  0
   -0.1691    0.1745    0.0510 C   0  0  0  0  0  0  0  0  0  0  0  0
    0.0108    1.0839    1.0825 O   0  0  0  0  0  0  0  0  0  0  0  0
   -1.4213    0.4170   -0.6904 C   0  0  0  0  0  0  0  0  0  0  0  0
   -2.1649    0.0120    0.5612 C   0  0  0  0  0  0  0  0  0  0  0  0
   -1.0718   -0.9838    0.3159 C   0  0  0  0  0  0  0  0  0  0  0  0
   -1.4352   -0.9259   -1.0187 O   0  0  0  0  0  0  0  0  0  0  0  0
    2.1924   -1.7699    0.0986 H   0  0  0  0  0  0  0  0  0  0  0  0
    3.0979   -0.1642    0.0912 H   0  0  0  0  0  0  0  0  0  0  0  0
    1.7930   -0.5065    1.2959 H   0  0  0  0  0  0  0  0  0  0  0  0
    0.8833   -0.8806   -1.5468 H   0  0  0  0  0  0  0  0  0  0  0  0
    1.5891    1.7368   -0.6355 H   0  0  0  0  0  0  0  0  0  0  0  0
   -0.3432    1.9599    0.7472 H   0  0  0  0  0  0  0  0  0  0  0  0
   -1.6690    1.1909   -1.2895 H   0  0  0  0  0  0  0  0  0  0  0  0
   -1.9844    0.6651    1.4467 H   0  0  0  0  0  0  0  0  0  0  0  0
   -3.1944   -0.3352    0.4225 H   0  0  0  0  0  0  0  0  0  0  0  0
   -0.8728   -1.8092    0.8571 H   0  0  0  0  0  0  0  0  0  0  0  0
  1  2  1  0
  2  3  1  0
  2  4  1  0
  4  5  1  0
  4  6  1  0
  6  7  1  0
  7  8  1  0
  8  9  1  0
  8  4  1  0
  9  6  1  0
  1 10  1  0
  1 11  1  0
  1 12  1  0
  2 13  1  0
  3 14  1  0
  5 15  1  0
  6 16  1  0
  7 17  1  0
  7 18  1  0
  8 19  1  0
M  END
