
     RDKit          3D

 19 19  0  0  0  0  0  0  0  0999 V2000
    1.9929    1.2567   -0.2381 C   0  0  0  0  0  0  0  0  0  0  0  0
    1.4706   -0.1681   -0.0926 C   0  0  0  0  0  0  0  0  0  0  0  0
    1.8287   -0.7364    1.1032 O   0  0  0  0  0  0  0  0  0  0  0  0
   -0.0245   -0.1097   -0.2999 C   0  0  0  0  0  0  0  0  0  0  0  0
   -0.7846   -1.3098    0.1998 C   0  0  0  0  0  0  0  0  0  0  0  0
   -1.7505   -0.2046    0.6347 C   0  0  0  0  0  0  0  0  0  0  0  0
   -2.7256    0.1901   -0.3889 C   0  0  0  0  0  0  0  0  0  0  0  0
   -2.5213    1.1647   -1.0721 O   0  0  0  0  0  0  0  0  0  0  0  0
   -0.6424    0.6409    0.6992 O   0  0  0  0  0  0  0  0  0  0  0  0
    1.5540    1.6495   -1.1792 H   0  0  0  0  0  0  0  0  0  0  0  0
    1.6048    1.8084    0.6491 H   0  0  0  0  0  0  0  0  0  0  0  0
    3.0962    1.2908   -0.3116 H   0  0  0  0  0  0  0  0  0  0  0  0
    1.9093   -0.7502   -0.9279 H   0  0  0  0  0  0  0  0  0  0  0  0
    2.7301   -0.4462    1.3775 H   0  0  0  0  0  0  0  0  0  0  0  0
   -0.3213    0.2185   -1.2944 H   0  0  0  0  0  0  0  0  0  0  0  0
   -1.2671   -1.9416   -0.5431 H   0  0  0  0  0  0  0  0  0  0  0  0
   -0.3200   -1.8013    1.0733 H   0  0  0  0  0  0  0  0  0  0  0  0
   -2.2083   -0.3702    1.6252 H   0  0  0  0  0  0  0  0  0  0  0  0
   -3.6212   -0.3816   -0.5359 H   0  0  0  0  0  0  0  0  0  0  0  0
  1  2  1  0
  2  3  1  0
  2  4  1  0
  4  5  1  0
  5  6  1  0
  6  7  1  0
  7  8  2  0
  6  9  1  0
  9  4  1  0
  1 10  1  0
  1 11  1  0
  1 12  1  0
  2 13  1  0
  3 14  1  0
  4 15  1  0
  5 16  1  0
  5 17  1  0
  6 18  1  0
  7 19  1  0
M  END
