
     RDKit          3D

 21 22  0  0  0  0  0  0  0  0999 V2000
   -2.4206    0.1259    1.0398 C   0  0  0  0  0  0  0  0  0  0  0  0
   -1.4963    0.7306    0.0073 C   0  0  0  0  0  0  0  0  0  0  0  0
   -1.5138   -0.0848   -1.1338 O   0  0  0  0  0  0  0  0  0  0  0  0
   -0.0692    0.8281    0.5599 C   0  0  0  0  0  0  0  0  0  0  0  0
    0.6191   -0.3205    0.9652 C   0  0  0  0  0  0  0  0  0  0  0  0
    1.1885   -1.5236    0.3144 C   0  0  0  0  0  0  0  0  0  0  0  0
    2.5153   -1.0867    0.0694 O   0  0  0  0  0  0  0  0  0  0  0  0
    2.4625    0.3077   -0.1007 C   0  0  0  0  0  0  0  0  0  0  0  0
    1.0181    0.5568   -0.2934 C   0  0  0  0  0  0  0  0  0  0  0  0
   -3.1361   -0.5927    0.6095 H   0  0  0  0  0  0  0  0  0  0  0  0
   -2.9426    0.9855    1.5511 H   0  0  0  0  0  0  0  0  0  0  0  0
   -1.7775   -0.3214    1.8308 H   0  0  0  0  0  0  0  0  0  0  0  0
   -1.8449    1.7280   -0.3305 H   0  0  0  0  0  0  0  0  0  0  0  0
   -2.4534   -0.4424   -1.1750 H   0  0  0  0  0  0  0  0  0  0  0  0
    0.0126    1.7995    1.1396 H   0  0  0  0  0  0  0  0  0  0  0  0
    1.2631   -0.1558    1.8908 H   0  0  0  0  0  0  0  0  0  0  0  0
    0.7768   -1.7550   -0.6865 H   0  0  0  0  0  0  0  0  0  0  0  0
    1.1865   -2.4021    0.9850 H   0  0  0  0  0  0  0  0  0  0  0  0
    3.1073    0.6623   -0.9101 H   0  0  0  0  0  0  0  0  0  0  0  0
    2.7830    0.8369    0.8419 H   0  0  0  0  0  0  0  0  0  0  0  0
    0.7215    0.1238   -1.2981 H   0  0  0  0  0  0  0  0  0  0  0  0
  1  2  1  0
  2  3  1  0
  2  4  1  0
  4  5  1  0
  5  6  1  0
  6  7  1  0
  7  8  1  0
  8  9  1  0
  9  4  1  0
  9  5  1  0
  1 10  1  0
  1 11  1  0
  1 12  1  0
  2 13  1  0
  3 14  1  0
  4 15  1  0
  5 16  1  0
  6 17  1  0
  6 18  1  0
  8 19  1  0
  8 20  1  0
  9 21  1  0
M  END
