
     RDKit          3D

 16 16  0  0  0  0  0  0  0  0999 V2000
   -1.9248    0.8742    0.1093 C   0  0  0  0  0  0  0  0  0  0  0  0
   -1.0572   -0.3805    0.2509 C   0  0  0  0  0  0  0  0  0  0  0  0
   -1.6263   -1.4460   -0.4334 O   0  0  0  0  0  0  0  0  0  0  0  0
    0.3503   -0.0876   -0.2231 C   0  0  0  0  0  0  0  0  0  0  0  0
    0.9068    1.0591    0.5430 O   0  0  0  0  0  0  0  0  0  0  0  0
    1.5177   -0.2612    0.5766 C   0  0  0  0  0  0  0  0  0  0  0  0
    2.8424   -0.2617   -0.1014 C   0  0  0  0  0  0  0  0  0  0  0  0
    3.8234   -0.7755    0.4403 O   0  0  0  0  0  0  0  0  0  0  0  0
   -1.2468    1.7262   -0.0929 H   0  0  0  0  0  0  0  0  0  0  0  0
   -2.5495    0.7426   -0.7851 H   0  0  0  0  0  0  0  0  0  0  0  0
   -2.4810    1.1014    1.0227 H   0  0  0  0  0  0  0  0  0  0  0  0
   -1.0836   -0.6416    1.3279 H   0  0  0  0  0  0  0  0  0  0  0  0
   -2.4152   -1.1836   -0.9708 H   0  0  0  0  0  0  0  0  0  0  0  0
    0.4282    0.1064   -1.3125 H   0  0  0  0  0  0  0  0  0  0  0  0
    1.4966   -0.7425    1.5655 H   0  0  0  0  0  0  0  0  0  0  0  0
    3.0190    0.1705   -1.0706 H   0  0  0  0  0  0  0  0  0  0  0  0
  1  2  1  0
  2  3  1  0
  2  4  1  0
  4  5  1  0
  5  6  1  0
  6  7  1  0
  7  8  2  0
  6  4  1  0
  1  9  1  0
  1 10  1  0
  1 11  1  0
  2 12  1  0
  3 13  1  0
  4 14  1  0
  6 15  1  0
  7 16  1  0
M  END
