
     RDKit          3D

 21 22  0  0  0  0  0  0  0  0999 V2000
    2.6397    0.8648   -0.0829 C   0  0  0  0  0  0  0  0  0  0  0  0
    1.7434   -0.3560   -0.1716 C   0  0  0  0  0  0  0  0  0  0  0  0
    1.7137   -1.0427    1.0130 O   0  0  0  0  0  0  0  0  0  0  0  0
    0.3951    0.1077   -0.6387 C   0  0  0  0  0  0  0  0  0  0  0  0
   -0.6638   -0.9201   -0.8037 C   0  0  0  0  0  0  0  0  0  0  0  0
   -0.6688   -1.0401    0.5768 O   0  0  0  0  0  0  0  0  0  0  0  0
   -0.6385    0.3376    0.4233 C   0  0  0  0  0  0  0  0  0  0  0  0
   -1.6750    0.1709   -0.6372 C   0  0  0  0  0  0  0  0  0  0  0  0
   -3.0398   -0.2297   -0.1976 C   0  0  0  0  0  0  0  0  0  0  0  0
    2.5214    1.4261   -1.0400 H   0  0  0  0  0  0  0  0  0  0  0  0
    2.3657    1.5451    0.7323 H   0  0  0  0  0  0  0  0  0  0  0  0
    3.7026    0.5757   -0.0289 H   0  0  0  0  0  0  0  0  0  0  0  0
    2.1830   -1.0089   -0.9600 H   0  0  0  0  0  0  0  0  0  0  0  0
    2.2170   -0.6395    1.7517 H   0  0  0  0  0  0  0  0  0  0  0  0
    0.3964    0.8801   -1.4026 H   0  0  0  0  0  0  0  0  0  0  0  0
   -0.6969   -1.6765   -1.4720 H   0  0  0  0  0  0  0  0  0  0  0  0
   -0.6106    1.0283    1.1554 H   0  0  0  0  0  0  0  0  0  0  0  0
   -1.6207    0.8964   -1.4703 H   0  0  0  0  0  0  0  0  0  0  0  0
   -3.7373   -0.1189   -1.0574 H   0  0  0  0  0  0  0  0  0  0  0  0
   -3.1246   -1.2630    0.1533 H   0  0  0  0  0  0  0  0  0  0  0  0
   -3.4020    0.4626    0.5955 H   0  0  0  0  0  0  0  0  0  0  0  0
  1  2  1  0
  2  3  1  0
  2  4  1  0
  4  5  1  0
  5  6  1  0
  6  7  1  0
  7  8  1  0
  8  9  1  0
  7  4  1  0
  8  5  1  0
  1 10  1  0
  1 11  1  0
  1 12  1  0
  2 13  1  0
  3 14  1  0
  4 15  1  0
  5 16  1  0
  7 17  1  0
  8 18  1  0
  9 19  1  0
  9 20  1  0
  9 21  1  0
M  END
