
     RDKit          3D

 16 16  0  0  0  0  0  0  0  0999 V2000
   -1.6050   -0.5960   -0.6741 C   0  0  0  0  0  0  0  0  0  0  0  0
   -0.8864    0.3554    0.3042 C   0  0  0  0  0  0  0  0  0  0  0  0
   -1.0930    1.6535   -0.0489 O   0  0  0  0  0  0  0  0  0  0  0  0
    0.6028    0.0001    0.2557 C   0  0  0  0  0  0  0  0  0  0  0  0
    1.3283   -0.0498   -1.0222 C   0  0  0  0  0  0  0  0  0  0  0  0
    2.0513   -1.0875   -1.1114 O   0  0  0  0  0  0  0  0  0  0  0  0
    1.3280   -0.3351    1.4811 C   0  0  0  0  0  0  0  0  0  0  0  0
    1.2579    1.0344    1.1022 O   0  0  0  0  0  0  0  0  0  0  0  0
   -1.9890   -1.4740   -0.1321 H   0  0  0  0  0  0  0  0  0  0  0  0
   -0.8462   -0.8854   -1.4248 H   0  0  0  0  0  0  0  0  0  0  0  0
   -2.4726   -0.0658   -1.1136 H   0  0  0  0  0  0  0  0  0  0  0  0
   -1.2153    0.1435    1.3016 H   0  0  0  0  0  0  0  0  0  0  0  0
   -1.0018    1.9205   -0.9774 H   0  0  0  0  0  0  0  0  0  0  0  0
    1.3474    0.6162   -1.8148 H   0  0  0  0  0  0  0  0  0  0  0  0
    2.3522   -0.7871    1.3918 H   0  0  0  0  0  0  0  0  0  0  0  0
    0.8413   -0.4429    2.4828 H   0  0  0  0  0  0  0  0  0  0  0  0
  1  2  1  0
  2  3  1  0
  2  4  1  0
  4  5  1  0
  5  6  2  0
  4  7  1  0
  7  8  1  0
  8  4  1  0
  1  9  1  0
  1 10  1  0
  1 11  1  0
  2 12  1  0
  3 13  1  0
  5 14  1  0
  7 15  1  0
  7 16  1  0
M  END
