
     RDKit          3D

 21 22  0  0  0  0  0  0  0  0999 V2000
    1.9935    0.4770    0.7712 C   0  0  0  0  0  0  0  0  0  0  0  0
    1.0199   -0.3976    0.0131 C   0  0  0  0  0  0  0  0  0  0  0  0
    0.6052   -1.4590    0.7526 O   0  0  0  0  0  0  0  0  0  0  0  0
   -0.0710    0.4258   -0.6452 C   0  0  0  0  0  0  0  0  0  0  0  0
   -0.9821   -0.5224   -1.3763 C   0  0  0  0  0  0  0  0  0  0  0  0
   -1.3963   -1.2800   -0.1062 C   0  0  0  0  0  0  0  0  0  0  0  0
   -1.5424   -0.3379    0.8160 C   0  0  0  0  0  0  0  0  0  0  0  0
   -1.2631    0.9296    0.2231 C   0  0  0  0  0  0  0  0  0  0  0  0
   -0.1765    1.7299   -0.1596 C   0  0  0  0  0  0  0  0  0  0  0  0
    2.8872   -0.1805    0.9726 H   0  0  0  0  0  0  0  0  0  0  0  0
    1.6306    0.8008    1.7479 H   0  0  0  0  0  0  0  0  0  0  0  0
    2.3399    1.2611    0.1006 H   0  0  0  0  0  0  0  0  0  0  0  0
    1.6069   -0.8106   -0.8597 H   0  0  0  0  0  0  0  0  0  0  0  0
    0.9753   -2.3366    0.4437 H   0  0  0  0  0  0  0  0  0  0  0  0
   -0.4210   -1.2167   -2.0267 H   0  0  0  0  0  0  0  0  0  0  0  0
   -1.8439   -0.0825   -1.8624 H   0  0  0  0  0  0  0  0  0  0  0  0
   -1.5262   -2.3571   -0.0368 H   0  0  0  0  0  0  0  0  0  0  0  0
   -1.8273   -0.5407    1.8362 H   0  0  0  0  0  0  0  0  0  0  0  0
   -2.2155    1.2360   -0.3533 H   0  0  0  0  0  0  0  0  0  0  0  0
   -0.2811    2.5596   -0.9104 H   0  0  0  0  0  0  0  0  0  0  0  0
    0.4878    2.1017    0.6683 H   0  0  0  0  0  0  0  0  0  0  0  0
  1  2  1  0
  2  3  1  0
  2  4  1  0
  4  5  1  0
  5  6  1  0
  6  7  2  0
  7  8  1  0
  8  9  1  0
  8  4  1  0
  9  4  1  0
  1 10  1  0
  1 11  1  0
  1 12  1  0
  2 13  1  0
  3 14  1  0
  5 15  1  0
  5 16  1  0
  6 17  1  0
  7 18  1  0
  8 19  1  0
  9 20  1  0
  9 21  1  0
M  END
