
     RDKit          3D

 25 24  0  0  0  0  0  0  0  0999 V2000
    2.8939    1.0757    0.4150 C   0  0  0  0  0  0  0  0  0  0  0  0
    2.6943   -0.2671   -0.2241 C   0  0  0  0  0  0  0  0  0  0  0  0
    2.6576   -1.2206    0.7876 O   0  0  0  0  0  0  0  0  0  0  0  0
    1.4238   -0.3749   -1.0066 C   0  0  0  0  0  0  0  0  0  0  0  0
    0.2473   -0.1298   -0.0830 C   0  0  0  0  0  0  0  0  0  0  0  0
   -0.9671   -0.2178   -0.7600 O   0  0  0  0  0  0  0  0  0  0  0  0
   -1.9788    0.0180    0.1543 C   0  0  0  0  0  0  0  0  0  0  0  0
   -2.9223   -1.1624    0.2818 C   0  0  0  0  0  0  0  0  0  0  0  0
   -2.8272    1.2136   -0.2176 C   0  0  0  0  0  0  0  0  0  0  0  0
    3.8814    1.0335    0.9456 H   0  0  0  0  0  0  0  0  0  0  0  0
    2.1476    1.2971    1.2024 H   0  0  0  0  0  0  0  0  0  0  0  0
    2.9848    1.8992   -0.3226 H   0  0  0  0  0  0  0  0  0  0  0  0
    3.5471   -0.4323   -0.9189 H   0  0  0  0  0  0  0  0  0  0  0  0
    3.3803   -1.9017    0.6489 H   0  0  0  0  0  0  0  0  0  0  0  0
    1.3578   -1.4139   -1.3933 H   0  0  0  0  0  0  0  0  0  0  0  0
    1.4189    0.2878   -1.8807 H   0  0  0  0  0  0  0  0  0  0  0  0
    0.2331   -0.9300    0.6865 H   0  0  0  0  0  0  0  0  0  0  0  0
    0.2835    0.8782    0.3754 H   0  0  0  0  0  0  0  0  0  0  0  0
   -1.5702    0.2080    1.1490 H   0  0  0  0  0  0  0  0  0  0  0  0
   -3.0928   -1.6663   -0.6922 H   0  0  0  0  0  0  0  0  0  0  0  0
   -2.5837   -1.8724    1.0736 H   0  0  0  0  0  0  0  0  0  0  0  0
   -3.9130   -0.7883    0.6139 H   0  0  0  0  0  0  0  0  0  0  0  0
   -3.1143    1.1968   -1.2904 H   0  0  0  0  0  0  0  0  0  0  0  0
   -2.3889    2.1702    0.1066 H   0  0  0  0  0  0  0  0  0  0  0  0
   -3.7931    1.0993    0.3488 H   0  0  0  0  0  0  0  0  0  0  0  0
  1  2  1  0
  2  3  1  0
  2  4  1  0
  4  5  1  0
  5  6  1  0
  6  7  1  0
  7  8  1  0
  7  9  1  0
  1 10  1  0
  1 11  1  0
  1 12  1  0
  2 13  1  0
  3 14  1  0
  4 15  1  0
  4 16  1  0
  5 17  1  0
  5 18  1  0
  7 19  1  0
  8 20  1  0
  8 21  1  0
  8 22  1  0
  9 23  1  0
  9 24  1  0
  9 25  1  0
M  END
