
     RDKit          3D

 18 18  0  0  0  0  0  0  0  0999 V2000
   -2.1938    0.1340    0.2644 C   0  0  0  0  0  0  0  0  0  0  0  0
   -0.8474   -0.5391    0.2989 C   0  0  0  0  0  0  0  0  0  0  0  0
   -0.2480   -0.4163    1.5455 O   0  0  0  0  0  0  0  0  0  0  0  0
    0.0093   -0.0087   -0.8156 C   0  0  0  0  0  0  0  0  0  0  0  0
    1.4138   -0.5734   -0.9424 C   0  0  0  0  0  0  0  0  0  0  0  0
    1.8408   -1.4436    0.0500 O   0  0  0  0  0  0  0  0  0  0  0  0
    1.1556    0.8856   -0.5725 C   0  0  0  0  0  0  0  0  0  0  0  0
    1.5788    1.1992    0.7103 O   0  0  0  0  0  0  0  0  0  0  0  0
   -2.0947    1.0856   -0.3341 H   0  0  0  0  0  0  0  0  0  0  0  0
   -2.9209   -0.4850   -0.3325 H   0  0  0  0  0  0  0  0  0  0  0  0
   -2.6046    0.3640    1.2423 H   0  0  0  0  0  0  0  0  0  0  0  0
   -1.0054   -1.6210    0.1105 H   0  0  0  0  0  0  0  0  0  0  0  0
   -0.8543   -0.7563    2.2245 H   0  0  0  0  0  0  0  0  0  0  0  0
   -0.5388    0.1235   -1.7746 H   0  0  0  0  0  0  0  0  0  0  0  0
    1.8133   -0.7353   -1.9817 H   0  0  0  0  0  0  0  0  0  0  0  0
    2.2616   -0.9851    0.8220 H   0  0  0  0  0  0  0  0  0  0  0  0
    1.3987    1.6426   -1.3469 H   0  0  0  0  0  0  0  0  0  0  0  0
    1.8360    2.1292    0.8317 H   0  0  0  0  0  0  0  0  0  0  0  0
  1  2  1  0
  2  3  1  0
  2  4  1  0
  4  5  1  0
  5  6  1  0
  5  7  1  0
  7  8  1  0
  7  4  1  0
  1  9  1  0
  1 10  1  0
  1 11  1  0
  2 12  1  0
  3 13  1  0
  4 14  1  0
  5 15  1  0
  6 16  1  0
  7 17  1  0
  8 18  1  0
M  END
