
     RDKit          3D

 23 23  0  0  0  0  0  0  0  0999 V2000
   -2.0046    0.7472   -0.5984 C   0  0  0  0  0  0  0  0  0  0  0  0
   -1.6228   -0.0949    0.5260 C   0  0  0  0  0  0  0  0  0  0  0  0
   -2.3306   -1.3178    0.4425 O   0  0  0  0  0  0  0  0  0  0  0  0
   -0.1974   -0.4333    0.7550 C   0  0  0  0  0  0  0  0  0  0  0  0
    0.6000   -1.1691   -0.2867 C   0  0  0  0  0  0  0  0  0  0  0  0
    0.1040   -1.2452   -1.5793 O   0  0  0  0  0  0  0  0  0  0  0  0
    0.9856    0.2205    0.2535 C   0  0  0  0  0  0  0  0  0  0  0  0
    2.2592    0.1719    1.1188 C   0  0  0  0  0  0  0  0  0  0  0  0
    1.0104    1.3361   -0.7376 C   0  0  0  0  0  0  0  0  0  0  0  0
   -3.0613    0.4866   -0.9162 H   0  0  0  0  0  0  0  0  0  0  0  0
   -1.4185    0.7076   -1.5096 H   0  0  0  0  0  0  0  0  0  0  0  0
   -2.0973    1.8296   -0.3037 H   0  0  0  0  0  0  0  0  0  0  0  0
   -2.0151    0.3790    1.4745 H   0  0  0  0  0  0  0  0  0  0  0  0
   -3.1506   -1.3112    0.9619 H   0  0  0  0  0  0  0  0  0  0  0  0
   -0.0834   -0.9381    1.7706 H   0  0  0  0  0  0  0  0  0  0  0  0
    1.2386   -2.0344   -0.0148 H   0  0  0  0  0  0  0  0  0  0  0  0
    0.8261   -1.3624   -2.2416 H   0  0  0  0  0  0  0  0  0  0  0  0
    2.1292    0.7754    2.0427 H   0  0  0  0  0  0  0  0  0  0  0  0
    2.4922   -0.8700    1.4217 H   0  0  0  0  0  0  0  0  0  0  0  0
    3.1251    0.5411    0.5116 H   0  0  0  0  0  0  0  0  0  0  0  0
    0.2632    2.1280   -0.5631 H   0  0  0  0  0  0  0  0  0  0  0  0
    1.9964    1.8854   -0.7495 H   0  0  0  0  0  0  0  0  0  0  0  0
    0.9518    0.9052   -1.7783 H   0  0  0  0  0  0  0  0  0  0  0  0
  1  2  1  0
  2  3  1  0
  2  4  1  0
  4  5  1  0
  5  6  1  0
  5  7  1  0
  7  8  1  0
  7  9  1  0
  7  4  1  0
  1 10  1  0
  1 11  1  0
  1 12  1  0
  2 13  1  0
  3 14  1  0
  4 15  1  0
  5 16  1  0
  6 17  1  0
  8 18  1  0
  8 19  1  0
  8 20  1  0
  9 21  1  0
  9 22  1  0
  9 23  1  0
M  END
