
     RDKit          3D

 19 19  0  0  0  0  0  0  0  0999 V2000
   -1.6118    0.7426   -1.1170 C   0  0  0  0  0  0  0  0  0  0  0  0
   -0.9879    0.4176    0.2405 C   0  0  0  0  0  0  0  0  0  0  0  0
   -0.3088    1.5278    0.6544 O   0  0  0  0  0  0  0  0  0  0  0  0
   -0.1775   -0.8165    0.0812 C   0  0  0  0  0  0  0  0  0  0  0  0
    0.5394   -1.3444    1.2759 C   0  0  0  0  0  0  0  0  0  0  0  0
    1.5903   -1.7298    0.4490 O   0  0  0  0  0  0  0  0  0  0  0  0
    1.1991   -0.7209   -0.4494 C   0  0  0  0  0  0  0  0  0  0  0  0
    1.9639    0.4969   -0.2513 C   0  0  0  0  0  0  0  0  0  0  0  0
    2.8447    0.6776    0.5738 O   0  0  0  0  0  0  0  0  0  0  0  0
   -1.2472    0.0716   -1.8988 H   0  0  0  0  0  0  0  0  0  0  0  0
   -2.7133    0.6418   -1.0531 H   0  0  0  0  0  0  0  0  0  0  0  0
   -1.4012    1.7839   -1.4271 H   0  0  0  0  0  0  0  0  0  0  0  0
   -1.8042    0.2015    0.9699 H   0  0  0  0  0  0  0  0  0  0  0  0
   -0.9922    2.2066    0.9408 H   0  0  0  0  0  0  0  0  0  0  0  0
   -0.7451   -1.6195   -0.4306 H   0  0  0  0  0  0  0  0  0  0  0  0
    0.0150   -2.2008    1.7823 H   0  0  0  0  0  0  0  0  0  0  0  0
    0.7842   -0.5777    2.0289 H   0  0  0  0  0  0  0  0  0  0  0  0
    1.3030   -1.1124   -1.4772 H   0  0  0  0  0  0  0  0  0  0  0  0
    1.7494    1.3539   -0.8924 H   0  0  0  0  0  0  0  0  0  0  0  0
  1  2  1  0
  2  3  1  0
  2  4  1  0
  4  5  1  0
  5  6  1  0
  6  7  1  0
  7  8  1  0
  8  9  2  0
  7  4  1  0
  1 10  1  0
  1 11  1  0
  1 12  1  0
  2 13  1  0
  3 14  1  0
  4 15  1  0
  5 16  1  0
  5 17  1  0
  7 18  1  0
  8 19  1  0
M  END
