
     RDKit          3D

 23 22  0  0  0  0  0  0  0  0999 V2000
    0.1570    0.9159   -3.4077 C   0  0  0  0  0  0  0  0  0  0  0  0
    0.3702    1.7142   -2.1316 C   0  0  0  0  0  0  0  0  0  0  0  0
    1.6949    2.1268   -2.1296 O   0  0  0  0  0  0  0  0  0  0  0  0
    0.1655    0.8789   -0.9407 C   0  0  0  0  0  0  0  0  0  0  0  0
   -0.0154    0.1903    0.0337 C   0  0  0  0  0  0  0  0  0  0  0  0
   -0.2411   -0.6268    1.2284 C   0  0  0  0  0  0  0  0  0  0  0  0
    0.8309   -1.7139    1.3487 C   0  0  0  0  0  0  0  0  0  0  0  0
   -0.2769    0.2568    2.4283 C   0  0  0  0  0  0  0  0  0  0  0  0
   -1.5620   -1.3492    1.1022 C   0  0  0  0  0  0  0  0  0  0  0  0
    1.1197    0.4483   -3.6987 H   0  0  0  0  0  0  0  0  0  0  0  0
   -0.1620    1.6460   -4.1774 H   0  0  0  0  0  0  0  0  0  0  0  0
   -0.5909    0.1258   -3.2890 H   0  0  0  0  0  0  0  0  0  0  0  0
   -0.3306    2.5524   -2.1034 H   0  0  0  0  0  0  0  0  0  0  0  0
    2.1257    1.9653   -1.2759 H   0  0  0  0  0  0  0  0  0  0  0  0
    0.5636   -2.4860    0.5960 H   0  0  0  0  0  0  0  0  0  0  0  0
    1.7748   -1.2311    0.9702 H   0  0  0  0  0  0  0  0  0  0  0  0
    0.9242   -2.0875    2.3668 H   0  0  0  0  0  0  0  0  0  0  0  0
   -1.1771    0.0207    3.0498 H   0  0  0  0  0  0  0  0  0  0  0  0
   -0.4083    1.3044    2.0989 H   0  0  0  0  0  0  0  0  0  0  0  0
    0.6581    0.1251    3.0130 H   0  0  0  0  0  0  0  0  0  0  0  0
   -2.4345   -0.7142    1.2693 H   0  0  0  0  0  0  0  0  0  0  0  0
   -1.6172   -1.9499    0.1636 H   0  0  0  0  0  0  0  0  0  0  0  0
   -1.5687   -2.1124    1.9345 H   0  0  0  0  0  0  0  0  0  0  0  0
  1  2  1  0
  2  3  1  0
  2  4  1  0
  4  5  3  0
  5  6  1  0
  6  7  1  0
  6  8  1  0
  6  9  1  0
  1 10  1  0
  1 11  1  0
  1 12  1  0
  2 13  1  0
  3 14  1  0
  7 15  1  0
  7 16  1  0
  7 17  1  0
  8 18  1  0
  8 19  1  0
  8 20  1  0
  9 21  1  0
  9 22  1  0
  9 23  1  0
M  END
