
     RDKit          3D

 23 23  0  0  0  0  0  0  0  0999 V2000
   -2.6248   -0.7775   -1.1565 C   0  0  0  0  0  0  0  0  0  0  0  0
   -2.0462   -0.1462    0.0697 C   0  0  0  0  0  0  0  0  0  0  0  0
   -2.2059    1.2211   -0.0200 O   0  0  0  0  0  0  0  0  0  0  0  0
   -0.6106   -0.5550    0.3200 C   0  0  0  0  0  0  0  0  0  0  0  0
   -0.0256    0.0934    1.5739 C   0  0  0  0  0  0  0  0  0  0  0  0
    0.4968    0.3907    0.1964 C   0  0  0  0  0  0  0  0  0  0  0  0
    1.8648   -0.1891   -0.0839 C   0  0  0  0  0  0  0  0  0  0  0  0
    2.9118    0.8991   -0.1867 C   0  0  0  0  0  0  0  0  0  0  0  0
    2.2056   -1.1433    0.8779 O   0  0  0  0  0  0  0  0  0  0  0  0
   -2.2418   -1.7972   -1.3520 H   0  0  0  0  0  0  0  0  0  0  0  0
   -3.7252   -0.8734   -1.0024 H   0  0  0  0  0  0  0  0  0  0  0  0
   -2.4946   -0.1392   -2.0609 H   0  0  0  0  0  0  0  0  0  0  0  0
   -2.6472   -0.5158    0.9494 H   0  0  0  0  0  0  0  0  0  0  0  0
   -2.6457    1.5797    0.7967 H   0  0  0  0  0  0  0  0  0  0  0  0
   -0.4251   -1.6364    0.1615 H   0  0  0  0  0  0  0  0  0  0  0  0
    0.5262   -0.6219    2.2229 H   0  0  0  0  0  0  0  0  0  0  0  0
   -0.6116    0.8227    2.1288 H   0  0  0  0  0  0  0  0  0  0  0  0
    0.3632    1.4165   -0.2002 H   0  0  0  0  0  0  0  0  0  0  0  0
    1.8453   -0.7251   -1.0552 H   0  0  0  0  0  0  0  0  0  0  0  0
    2.7401    1.7272    0.5331 H   0  0  0  0  0  0  0  0  0  0  0  0
    2.9047    1.2566   -1.2373 H   0  0  0  0  0  0  0  0  0  0  0  0
    3.9017    0.3913   -0.0104 H   0  0  0  0  0  0  0  0  0  0  0  0
    2.5443   -0.6782    1.6698 H   0  0  0  0  0  0  0  0  0  0  0  0
  1  2  1  0
  2  3  1  0
  2  4  1  0
  4  5  1  0
  5  6  1  0
  6  7  1  0
  7  8  1  0
  7  9  1  0
  6  4  1  0
  1 10  1  0
  1 11  1  0
  1 12  1  0
  2 13  1  0
  3 14  1  0
  4 15  1  0
  5 16  1  0
  5 17  1  0
  6 18  1  0
  7 19  1  0
  8 20  1  0
  8 21  1  0
  8 22  1  0
  9 23  1  0
M  END
