
     RDKit          3D

 19 19  0  0  0  0  0  0  0  0999 V2000
   -2.7241   -0.2737   -0.4247 C   0  0  0  0  0  0  0  0  0  0  0  0
   -1.3430    0.2927   -0.6117 C   0  0  0  0  0  0  0  0  0  0  0  0
   -1.1313    1.4465    0.0959 O   0  0  0  0  0  0  0  0  0  0  0  0
   -0.2751   -0.6804   -0.2878 C   0  0  0  0  0  0  0  0  0  0  0  0
   -0.2754   -1.7743   -0.8105 O   0  0  0  0  0  0  0  0  0  0  0  0
    0.7653   -0.3087    0.6582 C   0  0  0  0  0  0  0  0  0  0  0  0
    1.9105    0.5299    0.0937 C   0  0  0  0  0  0  0  0  0  0  0  0
    2.5619   -0.1726    1.2675 C   0  0  0  0  0  0  0  0  0  0  0  0
    1.7422   -1.2728    0.9190 O   0  0  0  0  0  0  0  0  0  0  0  0
   -2.7289   -1.3072   -0.8743 H   0  0  0  0  0  0  0  0  0  0  0  0
   -2.9581   -0.3047    0.6589 H   0  0  0  0  0  0  0  0  0  0  0  0
   -3.4630    0.3375   -0.9796 H   0  0  0  0  0  0  0  0  0  0  0  0
   -1.2417    0.5525   -1.7012 H   0  0  0  0  0  0  0  0  0  0  0  0
   -1.1522    1.2798    1.0623 H   0  0  0  0  0  0  0  0  0  0  0  0
    0.4092    0.0874    1.6490 H   0  0  0  0  0  0  0  0  0  0  0  0
    1.7987    1.6039    0.1773 H   0  0  0  0  0  0  0  0  0  0  0  0
    2.2507    0.1246   -0.8691 H   0  0  0  0  0  0  0  0  0  0  0  0
    3.6413   -0.3642    1.1652 H   0  0  0  0  0  0  0  0  0  0  0  0
    2.2131    0.2037    2.2469 H   0  0  0  0  0  0  0  0  0  0  0  0
  1  2  1  0
  2  3  1  0
  2  4  1  0
  4  5  2  0
  4  6  1  0
  6  7  1  0
  7  8  1  0
  8  9  1  0
  9  6  1  0
  1 10  1  0
  1 11  1  0
  1 12  1  0
  2 13  1  0
  3 14  1  0
  6 15  1  0
  7 16  1  0
  7 17  1  0
  8 18  1  0
  8 19  1  0
M  END
