
     RDKit          3D

 15 14  0  0  0  0  0  0  0  0999 V2000
   -2.0325    0.0289   -0.2049 C   0  0  0  0  0  0  0  0  0  0  0  0
   -0.8076    0.8007    0.2884 C   0  0  0  0  0  0  0  0  0  0  0  0
   -0.7801    0.8368    1.6627 O   0  0  0  0  0  0  0  0  0  0  0  0
    0.3835    0.0890   -0.2805 C   0  0  0  0  0  0  0  0  0  0  0  0
    0.4655   -0.0058   -1.5273 O   0  0  0  0  0  0  0  0  0  0  0  0
    1.4204   -0.4805    0.5435 C   0  0  0  0  0  0  0  0  0  0  0  0
    1.3449   -0.3898    1.7846 O   0  0  0  0  0  0  0  0  0  0  0  0
    2.5420   -1.1531   -0.0609 C   0  0  0  0  0  0  0  0  0  0  0  0
    2.6997   -1.2914   -1.2993 O   0  0  0  0  0  0  0  0  0  0  0  0
   -1.8396   -0.1671   -1.2870 H   0  0  0  0  0  0  0  0  0  0  0  0
   -2.1554   -0.9106    0.3276 H   0  0  0  0  0  0  0  0  0  0  0  0
   -2.9550    0.6238   -0.0797 H   0  0  0  0  0  0  0  0  0  0  0  0
   -0.8496    1.8302   -0.1401 H   0  0  0  0  0  0  0  0  0  0  0  0
   -0.7506    1.7658    1.9902 H   0  0  0  0  0  0  0  0  0  0  0  0
    3.3144   -1.5768    0.5630 H   0  0  0  0  0  0  0  0  0  0  0  0
  1  2  1  0
  2  3  1  0
  2  4  1  0
  4  5  2  0
  4  6  1  0
  6  7  2  0
  6  8  1  0
  8  9  2  0
  1 10  1  0
  1 11  1  0
  1 12  1  0
  2 13  1  0
  3 14  1  0
  8 15  1  0
M  END
