
     RDKit          3D

 22 21  0  0  0  0  0  0  0  0999 V2000
    2.5836   -0.8695    0.3730 C   0  0  0  0  0  0  0  0  0  0  0  0
    1.2741   -0.5701   -0.3544 C   0  0  0  0  0  0  0  0  0  0  0  0
    1.5089    0.2406   -1.4657 O   0  0  0  0  0  0  0  0  0  0  0  0
    0.3990    0.1828    0.6246 C   0  0  0  0  0  0  0  0  0  0  0  0
   -0.9392    0.5389    0.0143 C   0  0  0  0  0  0  0  0  0  0  0  0
   -1.8141    1.2912    0.9918 C   0  0  0  0  0  0  0  0  0  0  0  0
   -1.7022   -0.6784   -0.4395 C   0  0  0  0  0  0  0  0  0  0  0  0
   -0.7020    1.3748   -1.0567 O   0  0  0  0  0  0  0  0  0  0  0  0
    2.3782   -1.7594    1.0098 H   0  0  0  0  0  0  0  0  0  0  0  0
    3.3825   -1.1404   -0.3316 H   0  0  0  0  0  0  0  0  0  0  0  0
    2.8785   -0.0146    1.0220 H   0  0  0  0  0  0  0  0  0  0  0  0
    0.8534   -1.5451   -0.6494 H   0  0  0  0  0  0  0  0  0  0  0  0
    1.4017   -0.2670   -2.3261 H   0  0  0  0  0  0  0  0  0  0  0  0
    0.3098   -0.3496    1.5829 H   0  0  0  0  0  0  0  0  0  0  0  0
    0.9176    1.1457    0.8312 H   0  0  0  0  0  0  0  0  0  0  0  0
   -1.1936    1.9531    1.6428 H   0  0  0  0  0  0  0  0  0  0  0  0
   -2.3448    0.5701    1.6585 H   0  0  0  0  0  0  0  0  0  0  0  0
   -2.5828    1.8881    0.4556 H   0  0  0  0  0  0  0  0  0  0  0  0
   -2.5922   -0.2888   -1.0068 H   0  0  0  0  0  0  0  0  0  0  0  0
   -2.1146   -1.2396    0.4395 H   0  0  0  0  0  0  0  0  0  0  0  0
   -1.1256   -1.3405   -1.1017 H   0  0  0  0  0  0  0  0  0  0  0  0
   -0.7763    0.8775   -1.9143 H   0  0  0  0  0  0  0  0  0  0  0  0
  1  2  1  0
  2  3  1  0
  2  4  1  0
  4  5  1  0
  5  6  1  0
  5  7  1  0
  5  8  1  0
  1  9  1  0
  1 10  1  0
  1 11  1  0
  2 12  1  0
  3 13  1  0
  4 14  1  0
  4 15  1  0
  6 16  1  0
  6 17  1  0
  6 18  1  0
  7 19  1  0
  7 20  1  0
  7 21  1  0
  8 22  1  0
M  END
