
     RDKit          3D

 23 24  0  0  0  0  0  0  0  0999 V2000
    2.2934    0.7628    0.1091 C   0  0  0  0  0  0  0  0  0  0  0  0
    1.2828   -0.1004    0.8847 C   0  0  0  0  0  0  0  0  0  0  0  0
    1.9401   -1.1777    1.4855 O   0  0  0  0  0  0  0  0  0  0  0  0
    0.2656   -0.5577   -0.0873 C   0  0  0  0  0  0  0  0  0  0  0  0
   -0.8571   -1.4185    0.3325 C   0  0  0  0  0  0  0  0  0  0  0  0
   -1.5195   -0.9537   -0.9463 C   0  0  0  0  0  0  0  0  0  0  0  0
   -0.9374    0.3118   -0.3345 C   0  0  0  0  0  0  0  0  0  0  0  0
   -0.9769    1.5574   -0.8909 C   0  0  0  0  0  0  0  0  0  0  0  0
   -1.4871   -0.1990    0.9378 C   0  0  0  0  0  0  0  0  0  0  0  0
    1.8463    1.7539   -0.0118 H   0  0  0  0  0  0  0  0  0  0  0  0
    3.2659    0.7808    0.6397 H   0  0  0  0  0  0  0  0  0  0  0  0
    2.3687    0.3074   -0.9000 H   0  0  0  0  0  0  0  0  0  0  0  0
    0.8264    0.5733    1.6235 H   0  0  0  0  0  0  0  0  0  0  0  0
    2.0918   -1.8467    0.7965 H   0  0  0  0  0  0  0  0  0  0  0  0
    0.6969   -0.9624   -1.0539 H   0  0  0  0  0  0  0  0  0  0  0  0
   -0.8644   -2.3492    0.6948 H   0  0  0  0  0  0  0  0  0  0  0  0
   -2.6039   -1.0094   -0.9788 H   0  0  0  0  0  0  0  0  0  0  0  0
   -0.9543   -1.3506   -1.8124 H   0  0  0  0  0  0  0  0  0  0  0  0
   -0.0502    1.8313   -1.4772 H   0  0  0  0  0  0  0  0  0  0  0  0
   -1.0971    2.4042   -0.1679 H   0  0  0  0  0  0  0  0  0  0  0  0
   -1.8081    1.7257   -1.6380 H   0  0  0  0  0  0  0  0  0  0  0  0
   -1.1033    0.1525    1.8912 H   0  0  0  0  0  0  0  0  0  0  0  0
   -2.6186   -0.2358    0.9035 H   0  0  0  0  0  0  0  0  0  0  0  0
  1  2  1  0
  2  3  1  0
  2  4  1  0
  4  5  1  0
  5  6  1  0
  6  7  1  0
  7  8  1  0
  7  9  1  0
  7  4  1  0
  9  5  1  0
  1 10  1  0
  1 11  1  0
  1 12  1  0
  2 13  1  0
  3 14  1  0
  4 15  1  0
  5 16  1  0
  6 17  1  0
  6 18  1  0
  8 19  1  0
  8 20  1  0
  8 21  1  0
  9 22  1  0
  9 23  1  0
M  END
