
     RDKit          3D

 23 23  0  0  0  0  0  0  0  0999 V2000
    2.5988    0.4336    0.3547 C   0  0  0  0  0  0  0  0  0  0  0  0
    1.2633    0.1126    0.9846 C   0  0  0  0  0  0  0  0  0  0  0  0
    1.1934   -1.2530    1.2940 O   0  0  0  0  0  0  0  0  0  0  0  0
    0.1030    0.4529    0.1013 C   0  0  0  0  0  0  0  0  0  0  0  0
    0.2213   -0.3339   -1.1686 C   0  0  0  0  0  0  0  0  0  0  0  0
   -0.9121   -1.0465   -1.3717 O   0  0  0  0  0  0  0  0  0  0  0  0
   -1.6795   -1.0703   -0.2464 C   0  0  0  0  0  0  0  0  0  0  0  0
   -1.1617   -0.0445    0.7185 C   0  0  0  0  0  0  0  0  0  0  0  0
   -2.1858    1.0453    0.9288 C   0  0  0  0  0  0  0  0  0  0  0  0
    3.3002   -0.3685    0.6690 H   0  0  0  0  0  0  0  0  0  0  0  0
    2.9402    1.4465    0.7001 H   0  0  0  0  0  0  0  0  0  0  0  0
    2.5696    0.4082   -0.7475 H   0  0  0  0  0  0  0  0  0  0  0  0
    1.1900    0.6965    1.9201 H   0  0  0  0  0  0  0  0  0  0  0  0
    1.8715   -1.7747    0.7734 H   0  0  0  0  0  0  0  0  0  0  0  0
    0.0566    1.5567   -0.0863 H   0  0  0  0  0  0  0  0  0  0  0  0
    1.0895   -1.0500   -1.1332 H   0  0  0  0  0  0  0  0  0  0  0  0
    0.4273    0.3371   -2.0331 H   0  0  0  0  0  0  0  0  0  0  0  0
   -2.7319   -0.7965   -0.5510 H   0  0  0  0  0  0  0  0  0  0  0  0
   -1.7838   -2.0886    0.2153 H   0  0  0  0  0  0  0  0  0  0  0  0
   -0.9891   -0.5710    1.6943 H   0  0  0  0  0  0  0  0  0  0  0  0
   -2.9738    0.9423    0.1501 H   0  0  0  0  0  0  0  0  0  0  0  0
   -1.7352    2.0527    0.8388 H   0  0  0  0  0  0  0  0  0  0  0  0
   -2.6719    0.9133    1.9169 H   0  0  0  0  0  0  0  0  0  0  0  0
  1  2  1  0
  2  3  1  0
  2  4  1  0
  4  5  1  0
  5  6  1  0
  6  7  1  0
  7  8  1  0
  8  9  1  0
  8  4  1  0
  1 10  1  0
  1 11  1  0
  1 12  1  0
  2 13  1  0
  3 14  1  0
  4 15  1  0
  5 16  1  0
  5 17  1  0
  7 18  1  0
  7 19  1  0
  8 20  1  0
  9 21  1  0
  9 22  1  0
  9 23  1  0
M  END
