
     RDKit          3D

 19 19  0  0  0  0  0  0  0  0999 V2000
   -0.2320    1.7389   -0.8815 C   0  0  0  0  0  0  0  0  0  0  0  0
   -0.0239    0.5069   -0.0245 C   0  0  0  0  0  0  0  0  0  0  0  0
   -0.3188    0.7531    1.3063 O   0  0  0  0  0  0  0  0  0  0  0  0
    1.4783    0.2103   -0.0789 C   0  0  0  0  0  0  0  0  0  0  0  0
    1.8116   -0.9696    0.7176 C   0  0  0  0  0  0  0  0  0  0  0  0
    1.6562   -2.0973    0.3202 O   0  0  0  0  0  0  0  0  0  0  0  0
   -0.8016   -0.6830   -0.5096 C   0  0  0  0  0  0  0  0  0  0  0  0
   -1.6099   -1.4894    0.4150 C   0  0  0  0  0  0  0  0  0  0  0  0
   -2.1939   -0.5015   -0.4092 O   0  0  0  0  0  0  0  0  0  0  0  0
    0.3910    1.6779   -1.8146 H   0  0  0  0  0  0  0  0  0  0  0  0
   -1.2766    1.8586   -1.2174 H   0  0  0  0  0  0  0  0  0  0  0  0
    0.1519    2.6164   -0.3303 H   0  0  0  0  0  0  0  0  0  0  0  0
   -1.2306    1.0114    1.4929 H   0  0  0  0  0  0  0  0  0  0  0  0
    2.0256    1.0878    0.3158 H   0  0  0  0  0  0  0  0  0  0  0  0
    1.8018    0.1011   -1.1429 H   0  0  0  0  0  0  0  0  0  0  0  0
    2.2170   -0.8284    1.7116 H   0  0  0  0  0  0  0  0  0  0  0  0
   -0.4272   -1.1935   -1.4421 H   0  0  0  0  0  0  0  0  0  0  0  0
   -1.5342   -1.2853    1.4949 H   0  0  0  0  0  0  0  0  0  0  0  0
   -1.8848   -2.5143    0.0766 H   0  0  0  0  0  0  0  0  0  0  0  0
  1  2  1  0
  2  3  1  0
  2  4  1  0
  4  5  1  0
  5  6  2  0
  2  7  1  0
  7  8  1  0
  8  9  1  0
  9  7  1  0
  1 10  1  0
  1 11  1  0
  1 12  1  0
  3 13  1  0
  4 14  1  0
  4 15  1  0
  5 16  1  0
  7 17  1  0
  8 18  1  0
  8 19  1  0
M  END
