
     RDKit          3D

 18 17  0  0  0  0  0  0  0  0999 V2000
   -1.2431   -0.8703   -0.8358 C   0  0  0  0  0  0  0  0  0  0  0  0
   -0.2568   -0.3276    0.1673 C   0  0  0  0  0  0  0  0  0  0  0  0
   -0.1428   -1.1270    1.2972 O   0  0  0  0  0  0  0  0  0  0  0  0
   -0.6122    1.0584    0.6475 C   0  0  0  0  0  0  0  0  0  0  0  0
   -0.7634    1.9742   -0.3607 O   0  0  0  0  0  0  0  0  0  0  0  0
    1.1007   -0.3180   -0.5082 C   0  0  0  0  0  0  0  0  0  0  0  0
    2.1654    0.1957    0.3733 C   0  0  0  0  0  0  0  0  0  0  0  0
    2.6481   -0.4766    1.2548 O   0  0  0  0  0  0  0  0  0  0  0  0
   -0.7421   -1.7069   -1.3705 H   0  0  0  0  0  0  0  0  0  0  0  0
   -1.3858   -0.0578   -1.5932 H   0  0  0  0  0  0  0  0  0  0  0  0
   -2.1859   -1.2023   -0.4125 H   0  0  0  0  0  0  0  0  0  0  0  0
   -0.3749   -2.0728    1.1359 H   0  0  0  0  0  0  0  0  0  0  0  0
   -1.5387    0.9402    1.2686 H   0  0  0  0  0  0  0  0  0  0  0  0
    0.1895    1.3628    1.3580 H   0  0  0  0  0  0  0  0  0  0  0  0
   -1.6649    2.4136   -0.3628 H   0  0  0  0  0  0  0  0  0  0  0  0
    0.9851    0.3407   -1.4092 H   0  0  0  0  0  0  0  0  0  0  0  0
    1.3012   -1.3467   -0.8636 H   0  0  0  0  0  0  0  0  0  0  0  0
    2.5208    1.2203    0.2138 H   0  0  0  0  0  0  0  0  0  0  0  0
  1  2  1  0
  2  3  1  0
  2  4  1  0
  4  5  1  0
  2  6  1  0
  6  7  1  0
  7  8  2  0
  1  9  1  0
  1 10  1  0
  1 11  1  0
  3 12  1  0
  4 13  1  0
  4 14  1  0
  5 15  1  0
  6 16  1  0
  6 17  1  0
  7 18  1  0
M  END
