
     RDKit          3D

 19 19  0  0  0  0  0  0  0  0999 V2000
   -2.0265    0.1213   -0.5792 C   0  0  0  0  0  0  0  0  0  0  0  0
   -1.2217    0.2250    0.6681 C   0  0  0  0  0  0  0  0  0  0  0  0
   -1.3701   -0.9276    1.4616 O   0  0  0  0  0  0  0  0  0  0  0  0
    0.2673    0.3762    0.4053 C   0  0  0  0  0  0  0  0  0  0  0  0
    0.5382    1.5926   -0.3828 C   0  0  0  0  0  0  0  0  0  0  0  0
    1.1159    1.4992   -1.4447 O   0  0  0  0  0  0  0  0  0  0  0  0
    0.8645   -0.8396   -0.2041 C   0  0  0  0  0  0  0  0  0  0  0  0
    2.3017   -0.8750   -0.5284 C   0  0  0  0  0  0  0  0  0  0  0  0
    1.7961   -1.4900    0.7289 O   0  0  0  0  0  0  0  0  0  0  0  0
   -1.4778    0.2807   -1.5089 H   0  0  0  0  0  0  0  0  0  0  0  0
   -2.5376   -0.8787   -0.5963 H   0  0  0  0  0  0  0  0  0  0  0  0
   -2.8758    0.8636   -0.5815 H   0  0  0  0  0  0  0  0  0  0  0  0
   -1.5297    1.1043    1.2678 H   0  0  0  0  0  0  0  0  0  0  0  0
   -0.6951   -0.9543    2.1798 H   0  0  0  0  0  0  0  0  0  0  0  0
    0.7174    0.5584    1.4009 H   0  0  0  0  0  0  0  0  0  0  0  0
    0.2424    2.5748   -0.0544 H   0  0  0  0  0  0  0  0  0  0  0  0
    0.2363   -1.5687   -0.7567 H   0  0  0  0  0  0  0  0  0  0  0  0
    2.6879   -1.6627   -1.1759 H   0  0  0  0  0  0  0  0  0  0  0  0
    2.9664    0.0006   -0.2995 H   0  0  0  0  0  0  0  0  0  0  0  0
  1  2  1  0
  2  3  1  0
  2  4  1  0
  4  5  1  0
  5  6  2  0
  4  7  1  0
  7  8  1  0
  8  9  1  0
  9  7  1  0
  1 10  1  0
  1 11  1  0
  1 12  1  0
  2 13  1  0
  3 14  1  0
  4 15  1  0
  5 16  1  0
  7 17  1  0
  8 18  1  0
  8 19  1  0
M  END
