
     RDKit          3D

 19 18  0  0  0  0  0  0  0  0999 V2000
   -0.5890   -1.0674    1.3797 C   0  0  0  0  0  0  0  0  0  0  0  0
   -0.5982   -0.0371    0.2986 C   0  0  0  0  0  0  0  0  0  0  0  0
   -0.7602    1.2190    0.8874 O   0  0  0  0  0  0  0  0  0  0  0  0
   -1.7724   -0.2158   -0.6556 C   0  0  0  0  0  0  0  0  0  0  0  0
   -1.6602    0.8449   -1.5806 O   0  0  0  0  0  0  0  0  0  0  0  0
    0.6480    0.0012   -0.5231 C   0  0  0  0  0  0  0  0  0  0  0  0
    1.7891    0.3012    0.2888 O   0  0  0  0  0  0  0  0  0  0  0  0
    3.0427    0.3847   -0.2725 C   0  0  0  0  0  0  0  0  0  0  0  0
    3.2173    0.2012   -1.5032 O   0  0  0  0  0  0  0  0  0  0  0  0
    0.2987   -0.9269    1.9951 H   0  0  0  0  0  0  0  0  0  0  0  0
   -0.6963   -2.1072    1.0128 H   0  0  0  0  0  0  0  0  0  0  0  0
   -1.4730   -0.8617    2.0388 H   0  0  0  0  0  0  0  0  0  0  0  0
    0.0934    1.5254    1.2869 H   0  0  0  0  0  0  0  0  0  0  0  0
   -2.7109   -0.0902   -0.0868 H   0  0  0  0  0  0  0  0  0  0  0  0
   -1.7482   -1.1955   -1.1618 H   0  0  0  0  0  0  0  0  0  0  0  0
   -2.3783    1.4940   -1.4890 H   0  0  0  0  0  0  0  0  0  0  0  0
    0.8597   -0.9403   -1.0614 H   0  0  0  0  0  0  0  0  0  0  0  0
    0.5609    0.8576   -1.2277 H   0  0  0  0  0  0  0  0  0  0  0  0
    3.8771    0.6130    0.3738 H   0  0  0  0  0  0  0  0  0  0  0  0
  1  2  1  0
  2  3  1  0
  2  4  1  0
  4  5  1  0
  2  6  1  0
  6  7  1  0
  7  8  1  0
  8  9  2  0
  1 10  1  0
  1 11  1  0
  1 12  1  0
  3 13  1  0
  4 14  1  0
  4 15  1  0
  5 16  1  0
  6 17  1  0
  6 18  1  0
  8 19  1  0
M  END
