
     RDKit          3D

 19 19  0  0  0  0  0  0  0  0999 V2000
    2.3512    0.0961    0.2578 C   0  0  0  0  0  0  0  0  0  0  0  0
    0.9216    0.3887    0.5245 C   0  0  0  0  0  0  0  0  0  0  0  0
    0.7368    1.7813    0.3534 O   0  0  0  0  0  0  0  0  0  0  0  0
   -0.0521   -0.2908   -0.3705 C   0  0  0  0  0  0  0  0  0  0  0  0
   -0.0784   -1.7424   -0.4094 C   0  0  0  0  0  0  0  0  0  0  0  0
    0.6107   -2.7803   -0.3238 O   0  0  0  0  0  0  0  0  0  0  0  0
   -1.4680   -1.6477   -0.6297 O   0  0  0  0  0  0  0  0  0  0  0  0
   -1.4331   -0.5191    0.2267 C   0  0  0  0  0  0  0  0  0  0  0  0
   -2.4565    0.5100   -0.1650 C   0  0  0  0  0  0  0  0  0  0  0  0
    2.9495    0.0717    1.2140 H   0  0  0  0  0  0  0  0  0  0  0  0
    2.5492   -0.8550   -0.2520 H   0  0  0  0  0  0  0  0  0  0  0  0
    2.8483    0.8962   -0.3515 H   0  0  0  0  0  0  0  0  0  0  0  0
    0.6846    0.1939    1.5984 H   0  0  0  0  0  0  0  0  0  0  0  0
    1.5250    2.2833    0.6610 H   0  0  0  0  0  0  0  0  0  0  0  0
   -0.1521    0.1737   -1.3727 H   0  0  0  0  0  0  0  0  0  0  0  0
   -1.4453   -0.8514    1.2709 H   0  0  0  0  0  0  0  0  0  0  0  0
   -2.2582    0.7868   -1.2182 H   0  0  0  0  0  0  0  0  0  0  0  0
   -3.4732    0.0939   -0.0832 H   0  0  0  0  0  0  0  0  0  0  0  0
   -2.3598    1.4109    0.4815 H   0  0  0  0  0  0  0  0  0  0  0  0
  1  2  1  0
  2  3  1  0
  2  4  1  0
  4  5  1  0
  5  6  2  0
  5  7  1  0
  7  8  1  0
  8  9  1  0
  8  4  1  0
  1 10  1  0
  1 11  1  0
  1 12  1  0
  2 13  1  0
  3 14  1  0
  4 15  1  0
  8 16  1  0
  9 17  1  0
  9 18  1  0
  9 19  1  0
M  END
