
     RDKit          3D

 21 21  0  0  0  0  0  0  0  0999 V2000
   -2.3992    2.5779    1.0695 C   0  0  0  0  0  0  0  0  0  0  0  0
   -1.5652    1.4050    1.6317 C   0  0  0  0  0  0  0  0  0  0  0  0
   -2.5238    0.6702    2.3988 O   0  0  0  0  0  0  0  0  0  0  0  0
   -0.9524    0.7066    0.6781 C   0  0  0  0  0  0  0  0  0  0  0  0
   -0.3776    0.0203   -0.2285 C   0  0  0  0  0  0  0  0  0  0  0  0
    0.2929   -0.8055   -1.3137 C   0  0  0  0  0  0  0  0  0  0  0  0
    1.7757   -0.9200   -0.9163 C   0  0  0  0  0  0  0  0  0  0  0  0
    2.6420   -1.7416   -1.7748 C   0  0  0  0  0  0  0  0  0  0  0  0
    2.3299   -2.1454   -0.3636 C   0  0  0  0  0  0  0  0  0  0  0  0
   -3.3607    2.1973    0.6815 H   0  0  0  0  0  0  0  0  0  0  0  0
   -1.8508    3.1574    0.3420 H   0  0  0  0  0  0  0  0  0  0  0  0
   -2.6911    3.2551    1.9334 H   0  0  0  0  0  0  0  0  0  0  0  0
   -0.8927    1.8994    2.4308 H   0  0  0  0  0  0  0  0  0  0  0  0
   -3.3617    0.5304    1.8774 H   0  0  0  0  0  0  0  0  0  0  0  0
    0.2256   -0.1600   -2.2101 H   0  0  0  0  0  0  0  0  0  0  0  0
   -0.1413   -1.7913   -1.4130 H   0  0  0  0  0  0  0  0  0  0  0  0
    2.1543    0.0616   -0.5747 H   0  0  0  0  0  0  0  0  0  0  0  0
    3.6656   -1.3918   -2.0129 H   0  0  0  0  0  0  0  0  0  0  0  0
    2.2071   -2.4284   -2.5443 H   0  0  0  0  0  0  0  0  0  0  0  0
    1.6387   -2.9609   -0.1547 H   0  0  0  0  0  0  0  0  0  0  0  0
    3.1847   -2.1362    0.3752 H   0  0  0  0  0  0  0  0  0  0  0  0
  1  2  1  0
  2  3  1  0
  2  4  1  0
  4  5  3  0
  5  6  1  0
  6  7  1  0
  7  8  1  0
  8  9  1  0
  9  7  1  0
  1 10  1  0
  1 11  1  0
  1 12  1  0
  2 13  1  0
  3 14  1  0
  6 15  1  0
  6 16  1  0
  7 17  1  0
  8 18  1  0
  8 19  1  0
  9 20  1  0
  9 21  1  0
M  END
