
     RDKit          3D

 23 23  0  0  0  0  0  0  0  0999 V2000
   -0.2514   -1.8954   -0.4100 C   0  0  0  0  0  0  0  0  0  0  0  0
    0.2088   -0.6417    0.2942 C   0  0  0  0  0  0  0  0  0  0  0  0
    0.7788   -1.0234    1.5090 O   0  0  0  0  0  0  0  0  0  0  0  0
    1.3347   -0.0471   -0.5232 C   0  0  0  0  0  0  0  0  0  0  0  0
    1.8084    1.2205    0.1779 C   0  0  0  0  0  0  0  0  0  0  0  0
    2.8434    1.8114   -0.5281 O   0  0  0  0  0  0  0  0  0  0  0  0
   -0.9007    0.3100    0.5680 C   0  0  0  0  0  0  0  0  0  0  0  0
   -1.7368    0.9090   -0.4866 C   0  0  0  0  0  0  0  0  0  0  0  0
   -2.2927   -0.2433    0.2619 C   0  0  0  0  0  0  0  0  0  0  0  0
   -0.7259   -1.6334   -1.3665 H   0  0  0  0  0  0  0  0  0  0  0  0
   -0.8754   -2.5458    0.2362 H   0  0  0  0  0  0  0  0  0  0  0  0
    0.6729   -2.5033   -0.6312 H   0  0  0  0  0  0  0  0  0  0  0  0
    0.2333   -0.7857    2.2848 H   0  0  0  0  0  0  0  0  0  0  0  0
    2.1788   -0.7782   -0.4840 H   0  0  0  0  0  0  0  0  0  0  0  0
    1.0583    0.1934   -1.5464 H   0  0  0  0  0  0  0  0  0  0  0  0
    0.9556    1.9484    0.1699 H   0  0  0  0  0  0  0  0  0  0  0  0
    2.1399    1.0035    1.2043 H   0  0  0  0  0  0  0  0  0  0  0  0
    2.4810    2.4244   -1.1925 H   0  0  0  0  0  0  0  0  0  0  0  0
   -0.7747    0.8991    1.5093 H   0  0  0  0  0  0  0  0  0  0  0  0
   -2.1770    1.9016   -0.2739 H   0  0  0  0  0  0  0  0  0  0  0  0
   -1.5280    0.7612   -1.5717 H   0  0  0  0  0  0  0  0  0  0  0  0
   -3.0369   -0.1016    1.0751 H   0  0  0  0  0  0  0  0  0  0  0  0
   -2.3945   -1.1837   -0.2764 H   0  0  0  0  0  0  0  0  0  0  0  0
  1  2  1  0
  2  3  1  0
  2  4  1  0
  4  5  1  0
  5  6  1  0
  2  7  1  0
  7  8  1  0
  8  9  1  0
  9  7  1  0
  1 10  1  0
  1 11  1  0
  1 12  1  0
  3 13  1  0
  4 14  1  0
  4 15  1  0
  5 16  1  0
  5 17  1  0
  6 18  1  0
  7 19  1  0
  8 20  1  0
  8 21  1  0
  9 22  1  0
  9 23  1  0
M  END
