
     RDKit          3D

 17 16  0  0  0  0  0  0  0  0999 V2000
   -3.0177   -0.5449   -1.5746 C   0  0  0  0  0  0  0  0  0  0  0  0
   -2.3924   -1.1074   -0.3193 C   0  0  0  0  0  0  0  0  0  0  0  0
   -2.2563   -2.4832   -0.3737 O   0  0  0  0  0  0  0  0  0  0  0  0
   -1.0814   -0.4794   -0.1171 C   0  0  0  0  0  0  0  0  0  0  0  0
    0.0002    0.0590    0.0618 C   0  0  0  0  0  0  0  0  0  0  0  0
    1.2581    0.6686    0.2862 C   0  0  0  0  0  0  0  0  0  0  0  0
    2.3342    1.1834    0.4789 C   0  0  0  0  0  0  0  0  0  0  0  0
    3.6432    1.8265    0.7229 C   0  0  0  0  0  0  0  0  0  0  0  0
    4.3913    1.0568    1.6409 O   0  0  0  0  0  0  0  0  0  0  0  0
   -2.3889   -0.7745   -2.4468 H   0  0  0  0  0  0  0  0  0  0  0  0
   -4.0181   -0.9907   -1.7345 H   0  0  0  0  0  0  0  0  0  0  0  0
   -3.1784    0.5391   -1.4282 H   0  0  0  0  0  0  0  0  0  0  0  0
   -2.9967   -0.8547    0.5750 H   0  0  0  0  0  0  0  0  0  0  0  0
   -2.3429   -2.9198    0.5097 H   0  0  0  0  0  0  0  0  0  0  0  0
    4.2333    1.8620   -0.2180 H   0  0  0  0  0  0  0  0  0  0  0  0
    3.4134    2.8298    1.1305 H   0  0  0  0  0  0  0  0  0  0  0  0
    4.3992    0.1294    1.2805 H   0  0  0  0  0  0  0  0  0  0  0  0
  1  2  1  0
  2  3  1  0
  2  4  1  0
  4  5  3  0
  5  6  1  0
  6  7  3  0
  7  8  1  0
  8  9  1  0
  1 10  1  0
  1 11  1  0
  1 12  1  0
  2 13  1  0
  3 14  1  0
  8 15  1  0
  8 16  1  0
  9 17  1  0
M  END
