
     RDKit          3D

 17 16  0  0  0  0  0  0  0  0999 V2000
   -1.4980    0.8537   -0.1693 C   0  0  0  0  0  0  0  0  0  0  0  0
   -0.6788   -0.1655    0.5646 C   0  0  0  0  0  0  0  0  0  0  0  0
   -1.2162   -1.4454    0.3017 O   0  0  0  0  0  0  0  0  0  0  0  0
    0.7407   -0.2434   -0.0176 C   0  0  0  0  0  0  0  0  0  0  0  0
    1.4294   -1.2845    0.6276 O   0  0  0  0  0  0  0  0  0  0  0  0
    1.4048    1.0494    0.2011 C   0  0  0  0  0  0  0  0  0  0  0  0
    2.4073    1.0834    0.8938 O   0  0  0  0  0  0  0  0  0  0  0  0
    0.5923   -0.6220   -1.4378 C   0  0  0  0  0  0  0  0  0  0  0  0
    0.0356    0.0945   -2.2484 O   0  0  0  0  0  0  0  0  0  0  0  0
   -2.1667    0.3446   -0.9127 H   0  0  0  0  0  0  0  0  0  0  0  0
   -2.1255    1.4194    0.5802 H   0  0  0  0  0  0  0  0  0  0  0  0
   -0.8551    1.5673   -0.6943 H   0  0  0  0  0  0  0  0  0  0  0  0
   -0.6479    0.0141    1.6488 H   0  0  0  0  0  0  0  0  0  0  0  0
   -1.1376   -2.0016    1.1177 H   0  0  0  0  0  0  0  0  0  0  0  0
    1.6909   -1.0486    1.5475 H   0  0  0  0  0  0  0  0  0  0  0  0
    1.0356    1.9507   -0.2274 H   0  0  0  0  0  0  0  0  0  0  0  0
    0.9892   -1.5659   -1.7755 H   0  0  0  0  0  0  0  0  0  0  0  0
  1  2  1  0
  2  3  1  0
  2  4  1  0
  4  5  1  0
  4  6  1  0
  6  7  2  0
  4  8  1  0
  8  9  2  0
  1 10  1  0
  1 11  1  0
  1 12  1  0
  2 13  1  0
  3 14  1  0
  5 15  1  0
  6 16  1  0
  8 17  1  0
M  END
