
     RDKit          3D

 19 19  0  0  0  0  0  0  0  0999 V2000
    2.5273    0.3563   -0.3881 C   0  0  0  0  0  0  0  0  0  0  0  0
    1.2301    0.2940    0.4612 C   0  0  0  0  0  0  0  0  0  0  0  0
    1.5901   -0.5089    1.5377 O   0  0  0  0  0  0  0  0  0  0  0  0
    0.2214   -0.3417   -0.3540 C   0  0  0  0  0  0  0  0  0  0  0  0
    0.5437   -1.1502   -1.2158 O   0  0  0  0  0  0  0  0  0  0  0  0
   -1.1996   -0.0642   -0.2216 C   0  0  0  0  0  0  0  0  0  0  0  0
   -2.0596   -1.0111    0.6360 C   0  0  0  0  0  0  0  0  0  0  0  0
   -1.7693    1.0784   -0.9018 C   0  0  0  0  0  0  0  0  0  0  0  0
   -1.4135    1.2601    0.4499 O   0  0  0  0  0  0  0  0  0  0  0  0
    2.3340    0.5941   -1.4355 H   0  0  0  0  0  0  0  0  0  0  0  0
    3.0559   -0.6233   -0.3840 H   0  0  0  0  0  0  0  0  0  0  0  0
    3.1323    1.1659    0.0556 H   0  0  0  0  0  0  0  0  0  0  0  0
    1.0017    1.3181    0.7799 H   0  0  0  0  0  0  0  0  0  0  0  0
    1.6280   -1.4684    1.2313 H   0  0  0  0  0  0  0  0  0  0  0  0
   -3.1356   -0.6935    0.5229 H   0  0  0  0  0  0  0  0  0  0  0  0
   -1.9396   -2.0497    0.2294 H   0  0  0  0  0  0  0  0  0  0  0  0
   -1.7736   -0.9119    1.6697 H   0  0  0  0  0  0  0  0  0  0  0  0
   -2.8623    1.0401   -1.1296 H   0  0  0  0  0  0  0  0  0  0  0  0
   -1.1113    1.7157   -1.5430 H   0  0  0  0  0  0  0  0  0  0  0  0
  1  2  1  0
  2  3  1  0
  2  4  1  0
  4  5  2  0
  4  6  1  0
  6  7  1  0
  6  8  1  0
  8  9  1  0
  9  6  1  0
  1 10  1  0
  1 11  1  0
  1 12  1  0
  2 13  1  0
  3 14  1  0
  7 15  1  0
  7 16  1  0
  7 17  1  0
  8 18  1  0
  8 19  1  0
M  END
