
     RDKit          3D

 19 19  0  0  0  0  0  0  0  0999 V2000
    1.7806    0.0791   -0.6972 C   0  0  0  0  0  0  0  0  0  0  0  0
    0.8851    0.2690    0.5099 C   0  0  0  0  0  0  0  0  0  0  0  0
    1.0100    1.5695    1.0403 O   0  0  0  0  0  0  0  0  0  0  0  0
   -0.5333    0.0846    0.0547 C   0  0  0  0  0  0  0  0  0  0  0  0
   -1.0208    0.9951   -0.9788 C   0  0  0  0  0  0  0  0  0  0  0  0
   -1.1245    2.1691   -0.7432 O   0  0  0  0  0  0  0  0  0  0  0  0
   -0.7613   -1.3971   -0.2746 C   0  0  0  0  0  0  0  0  0  0  0  0
   -0.8432   -1.5739    1.1285 O   0  0  0  0  0  0  0  0  0  0  0  0
   -1.5167   -0.3296    1.1189 C   0  0  0  0  0  0  0  0  0  0  0  0
    1.2021    0.2131   -1.6312 H   0  0  0  0  0  0  0  0  0  0  0  0
    2.1571   -0.9732   -0.7167 H   0  0  0  0  0  0  0  0  0  0  0  0
    2.6570    0.7325   -0.6991 H   0  0  0  0  0  0  0  0  0  0  0  0
    1.0861   -0.4843    1.3066 H   0  0  0  0  0  0  0  0  0  0  0  0
    1.9537    1.7319    1.3144 H   0  0  0  0  0  0  0  0  0  0  0  0
   -1.2832    0.5888   -1.9512 H   0  0  0  0  0  0  0  0  0  0  0  0
    0.1038   -1.8645   -0.7467 H   0  0  0  0  0  0  0  0  0  0  0  0
   -1.7447   -1.5275   -0.7452 H   0  0  0  0  0  0  0  0  0  0  0  0
   -1.4961    0.2161    2.0542 H   0  0  0  0  0  0  0  0  0  0  0  0
   -2.5119   -0.4989    0.6565 H   0  0  0  0  0  0  0  0  0  0  0  0
  1  2  1  0
  2  3  1  0
  2  4  1  0
  4  5  1  0
  5  6  2  0
  4  7  1  0
  7  8  1  0
  8  9  1  0
  9  4  1  0
  1 10  1  0
  1 11  1  0
  1 12  1  0
  2 13  1  0
  3 14  1  0
  5 15  1  0
  7 16  1  0
  7 17  1  0
  9 18  1  0
  9 19  1  0
M  END
