
     RDKit          3D

 23 22  0  0  0  0  0  0  0  0999 V2000
    2.5855    0.3794    0.1861 C   0  0  0  0  0  0  0  0  0  0  0  0
    1.5700    0.0331   -0.8872 C   0  0  0  0  0  0  0  0  0  0  0  0
    1.0796    1.2278   -1.3915 O   0  0  0  0  0  0  0  0  0  0  0  0
    0.5000   -0.7663   -0.2109 C   0  0  0  0  0  0  0  0  0  0  0  0
    0.8241   -1.8392    0.2613 O   0  0  0  0  0  0  0  0  0  0  0  0
   -0.8897   -0.3316   -0.0907 C   0  0  0  0  0  0  0  0  0  0  0  0
   -1.6848   -1.3907    0.6378 C   0  0  0  0  0  0  0  0  0  0  0  0
   -0.9173    0.8928    0.8234 C   0  0  0  0  0  0  0  0  0  0  0  0
   -1.5322    0.0365   -1.4016 C   0  0  0  0  0  0  0  0  0  0  0  0
    3.3446    1.0867   -0.1832 H   0  0  0  0  0  0  0  0  0  0  0  0
    2.9941   -0.5627    0.5709 H   0  0  0  0  0  0  0  0  0  0  0  0
    1.9842    0.8268    1.0288 H   0  0  0  0  0  0  0  0  0  0  0  0
    2.0832   -0.5742   -1.6630 H   0  0  0  0  0  0  0  0  0  0  0  0
    1.7023    1.9669   -1.1978 H   0  0  0  0  0  0  0  0  0  0  0  0
   -1.4123   -1.3055    1.7127 H   0  0  0  0  0  0  0  0  0  0  0  0
   -1.4349   -2.3556    0.1930 H   0  0  0  0  0  0  0  0  0  0  0  0
   -2.7728   -1.1625    0.4643 H   0  0  0  0  0  0  0  0  0  0  0  0
   -0.6037    0.5054    1.8276 H   0  0  0  0  0  0  0  0  0  0  0  0
   -1.9439    1.2744    0.9308 H   0  0  0  0  0  0  0  0  0  0  0  0
   -0.2123    1.6611    0.4996 H   0  0  0  0  0  0  0  0  0  0  0  0
   -1.4684    1.1374   -1.5665 H   0  0  0  0  0  0  0  0  0  0  0  0
   -1.1682   -0.5558   -2.2395 H   0  0  0  0  0  0  0  0  0  0  0  0
   -2.6270   -0.1842   -1.2969 H   0  0  0  0  0  0  0  0  0  0  0  0
  1  2  1  0
  2  3  1  0
  2  4  1  0
  4  5  2  0
  4  6  1  0
  6  7  1  0
  6  8  1  0
  6  9  1  0
  1 10  1  0
  1 11  1  0
  1 12  1  0
  2 13  1  0
  3 14  1  0
  7 15  1  0
  7 16  1  0
  7 17  1  0
  8 18  1  0
  8 19  1  0
  8 20  1  0
  9 21  1  0
  9 22  1  0
  9 23  1  0
M  END
