
     RDKit          3D

 20 20  0  0  0  0  0  0  0  0999 V2000
   -2.3917    0.5568    0.3283 C   0  0  0  0  0  0  0  0  0  0  0  0
   -1.4916   -0.5738   -0.0921 C   0  0  0  0  0  0  0  0  0  0  0  0
   -1.8073   -1.6875    0.6516 O   0  0  0  0  0  0  0  0  0  0  0  0
   -0.0576   -0.2266   -0.0144 C   0  0  0  0  0  0  0  0  0  0  0  0
    0.8579   -0.8215    0.7154 C   0  0  0  0  0  0  0  0  0  0  0  0
    2.1909   -0.2289    0.5629 C   0  0  0  0  0  0  0  0  0  0  0  0
    2.0684    0.6979   -0.6176 C   0  0  0  0  0  0  0  0  0  0  0  0
    0.5807    0.8837   -0.7758 C   0  0  0  0  0  0  0  0  0  0  0  0
   -3.4367    0.1644    0.3036 H   0  0  0  0  0  0  0  0  0  0  0  0
   -2.2165    0.8844    1.3709 H   0  0  0  0  0  0  0  0  0  0  0  0
   -2.3774    1.4023   -0.3931 H   0  0  0  0  0  0  0  0  0  0  0  0
   -1.7273   -0.7953   -1.1583 H   0  0  0  0  0  0  0  0  0  0  0  0
   -1.9284   -2.5070    0.0836 H   0  0  0  0  0  0  0  0  0  0  0  0
    0.6388   -1.6717    1.3674 H   0  0  0  0  0  0  0  0  0  0  0  0
    2.5006    0.3590    1.4617 H   0  0  0  0  0  0  0  0  0  0  0  0
    2.9858   -0.9630    0.3467 H   0  0  0  0  0  0  0  0  0  0  0  0
    2.5542    1.6756   -0.4392 H   0  0  0  0  0  0  0  0  0  0  0  0
    2.5444    0.2735   -1.5286 H   0  0  0  0  0  0  0  0  0  0  0  0
    0.2990    0.7488   -1.8371 H   0  0  0  0  0  0  0  0  0  0  0  0
    0.2137    1.8288   -0.3360 H   0  0  0  0  0  0  0  0  0  0  0  0
  1  2  1  0
  2  3  1  0
  2  4  1  0
  4  5  2  0
  5  6  1  0
  6  7  1  0
  7  8  1  0
  8  4  1  0
  1  9  1  0
  1 10  1  0
  1 11  1  0
  2 12  1  0
  3 13  1  0
  5 14  1  0
  6 15  1  0
  6 16  1  0
  7 17  1  0
  7 18  1  0
  8 19  1  0
  8 20  1  0
M  END
