
     RDKit          3D

 21 21  0  0  0  0  0  0  0  0999 V2000
   -2.1000   -0.6945    0.7986 C   0  0  0  0  0  0  0  0  0  0  0  0
   -1.3025    0.4992    0.3776 C   0  0  0  0  0  0  0  0  0  0  0  0
   -2.1878    1.4302   -0.1965 O   0  0  0  0  0  0  0  0  0  0  0  0
   -0.2223    0.1701   -0.6325 C   0  0  0  0  0  0  0  0  0  0  0  0
   -0.7893   -0.3671   -1.7595 O   0  0  0  0  0  0  0  0  0  0  0  0
    0.7911   -0.7011    0.0378 C   0  0  0  0  0  0  0  0  0  0  0  0
    2.1729   -0.7008   -0.5401 C   0  0  0  0  0  0  0  0  0  0  0  0
    2.3230    0.4884    0.4079 C   0  0  0  0  0  0  0  0  0  0  0  0
    1.3007   -0.0620    1.1683 O   0  0  0  0  0  0  0  0  0  0  0  0
   -2.2255   -0.6689    1.9072 H   0  0  0  0  0  0  0  0  0  0  0  0
   -3.1149   -0.6852    0.3027 H   0  0  0  0  0  0  0  0  0  0  0  0
   -1.5658   -1.6101    0.4940 H   0  0  0  0  0  0  0  0  0  0  0  0
   -0.7864    0.9323    1.2553 H   0  0  0  0  0  0  0  0  0  0  0  0
   -1.9207    2.3232    0.0989 H   0  0  0  0  0  0  0  0  0  0  0  0
    0.2187    1.1607   -0.9389 H   0  0  0  0  0  0  0  0  0  0  0  0
   -1.4630    0.2797   -2.0906 H   0  0  0  0  0  0  0  0  0  0  0  0
    0.4434   -1.7419    0.1867 H   0  0  0  0  0  0  0  0  0  0  0  0
    2.2793   -0.4289   -1.5890 H   0  0  0  0  0  0  0  0  0  0  0  0
    2.7678   -1.5656   -0.1883 H   0  0  0  0  0  0  0  0  0  0  0  0
    2.0929    1.4642   -0.0566 H   0  0  0  0  0  0  0  0  0  0  0  0
    3.2882    0.4780    0.9569 H   0  0  0  0  0  0  0  0  0  0  0  0
  1  2  1  0
  2  3  1  0
  2  4  1  0
  4  5  1  0
  4  6  1  0
  6  7  1  0
  7  8  1  0
  8  9  1  0
  9  6  1  0
  1 10  1  0
  1 11  1  0
  1 12  1  0
  2 13  1  0
  3 14  1  0
  4 15  1  0
  5 16  1  0
  6 17  1  0
  7 18  1  0
  7 19  1  0
  8 20  1  0
  8 21  1  0
M  END
