
     RDKit          3D

  8  7  0  0  0  0  0  0  0  0999 V2000
   -0.7432   -0.0170    0.0622 C   0  0  0  0  0  0  0  0  0  0  0  0
    0.7493   -0.0286   -0.0773 C   0  0  0  0  0  0  0  0  0  0  0  0
   -1.2561   -0.7319   -0.6181 H   0  0  0  0  0  0  0  0  0  0  0  0
   -0.9820   -0.2175    1.1242 H   0  0  0  0  0  0  0  0  0  0  0  0
   -1.1968    0.9804   -0.1813 H   0  0  0  0  0  0  0  0  0  0  0  0
    1.2833   -0.2276    0.8783 H   0  0  0  0  0  0  0  0  0  0  0  0
    1.0892   -0.7657   -0.8162 H   0  0  0  0  0  0  0  0  0  0  0  0
    1.0563    1.0080   -0.3718 H   0  0  0  0  0  0  0  0  0  0  0  0
  1  2  1  0
  1  3  1  0
  1  4  1  0
  1  5  1  0
  2  6  1  0
  2  7  1  0
  2  8  1  0
M  END
