
     RDKit          3D

 17 17  0  0  0  0  0  0  0  0999 V2000
   -2.2649   -0.3270   -0.7903 C   0  0  0  0  0  0  0  0  0  0  0  0
   -1.4353   -0.3968    0.4479 C   0  0  0  0  0  0  0  0  0  0  0  0
    0.0273   -0.3332    0.2780 C   0  0  0  0  0  0  0  0  0  0  0  0
    1.2307   -0.3013    0.1332 C   0  0  0  0  0  0  0  0  0  0  0  0
    2.6703   -0.2737   -0.0632 C   0  0  0  0  0  0  0  0  0  0  0  0
    3.0100    0.6660   -1.1494 C   0  0  0  0  0  0  0  0  0  0  0  0
    2.5184    0.4976   -2.2452 O   0  0  0  0  0  0  0  0  0  0  0  0
   -2.0396    0.4056    1.6082 C   0  0  0  0  0  0  0  0  0  0  0  0
   -1.8935   -0.9802    1.6039 O   0  0  0  0  0  0  0  0  0  0  0  0
   -1.6728   -0.8116   -1.6179 H   0  0  0  0  0  0  0  0  0  0  0  0
   -2.5308    0.7166   -1.0583 H   0  0  0  0  0  0  0  0  0  0  0  0
   -3.1856   -0.9204   -0.6332 H   0  0  0  0  0  0  0  0  0  0  0  0
    3.1939    0.1013    0.8774 H   0  0  0  0  0  0  0  0  0  0  0  0
    3.0768   -1.2927   -0.2967 H   0  0  0  0  0  0  0  0  0  0  0  0
    3.6737    1.4856   -0.9878 H   0  0  0  0  0  0  0  0  0  0  0  0
   -1.3005    1.0296    2.1258 H   0  0  0  0  0  0  0  0  0  0  0  0
   -3.0780    0.7346    1.5288 H   0  0  0  0  0  0  0  0  0  0  0  0
  1  2  1  0
  2  3  1  0
  3  4  3  0
  4  5  1  0
  5  6  1  0
  6  7  2  0
  2  8  1  0
  8  9  1  0
  9  2  1  0
  1 10  1  0
  1 11  1  0
  1 12  1  0
  5 13  1  0
  5 14  1  0
  6 15  1  0
  8 16  1  0
  8 17  1  0
M  END
