
     RDKit          3D

 19 19  0  0  0  0  0  0  0  0999 V2000
   -1.1425    1.3728   -0.7530 C   0  0  0  0  0  0  0  0  0  0  0  0
   -0.7276    0.0695   -0.0844 C   0  0  0  0  0  0  0  0  0  0  0  0
   -1.5063   -0.2905    1.1037 C   0  0  0  0  0  0  0  0  0  0  0  0
   -1.3589   -1.2863    1.7914 O   0  0  0  0  0  0  0  0  0  0  0  0
   -0.3549   -1.1116   -0.9611 C   0  0  0  0  0  0  0  0  0  0  0  0
    0.6815   -0.3359   -0.2815 C   0  0  0  0  0  0  0  0  0  0  0  0
    1.4913    0.4491   -1.1274 O   0  0  0  0  0  0  0  0  0  0  0  0
    1.4729   -0.8587    0.8937 C   0  0  0  0  0  0  0  0  0  0  0  0
    1.9500    0.2744    1.5935 O   0  0  0  0  0  0  0  0  0  0  0  0
   -0.9106    1.4033   -1.8171 H   0  0  0  0  0  0  0  0  0  0  0  0
   -0.7058    2.1967   -0.1562 H   0  0  0  0  0  0  0  0  0  0  0  0
   -2.2610    1.5097   -0.6695 H   0  0  0  0  0  0  0  0  0  0  0  0
   -2.3244    0.3604    1.4693 H   0  0  0  0  0  0  0  0  0  0  0  0
   -0.5460   -0.9329   -2.0345 H   0  0  0  0  0  0  0  0  0  0  0  0
   -0.5475   -2.1306   -0.5896 H   0  0  0  0  0  0  0  0  0  0  0  0
    1.0775    1.2927   -1.3738 H   0  0  0  0  0  0  0  0  0  0  0  0
    2.3873   -1.3678    0.4731 H   0  0  0  0  0  0  0  0  0  0  0  0
    0.9345   -1.5067    1.5759 H   0  0  0  0  0  0  0  0  0  0  0  0
    2.3903    0.8925    0.9476 H   0  0  0  0  0  0  0  0  0  0  0  0
  1  2  1  0
  2  3  1  0
  3  4  2  0
  2  5  1  0
  5  6  1  0
  6  7  1  0
  6  8  1  0
  8  9  1  0
  6  2  1  0
  1 10  1  0
  1 11  1  0
  1 12  1  0
  3 13  1  0
  5 14  1  0
  5 15  1  0
  7 16  1  0
  8 17  1  0
  8 18  1  0
  9 19  1  0
M  END
