
     RDKit          3D

 21 21  0  0  0  0  0  0  0  0999 V2000
    2.1466    0.2107   -0.5512 C   0  0  0  0  0  0  0  0  0  0  0  0
    0.8369   -0.0018    0.1728 C   0  0  0  0  0  0  0  0  0  0  0  0
    1.0439   -0.2888    1.5299 O   0  0  0  0  0  0  0  0  0  0  0  0
   -0.0094    1.2261   -0.0137 C   0  0  0  0  0  0  0  0  0  0  0  0
   -1.4156    0.9353   -0.4287 C   0  0  0  0  0  0  0  0  0  0  0  0
   -2.0187   -0.2237    0.2525 C   0  0  0  0  0  0  0  0  0  0  0  0
   -3.1702   -0.2568    0.5781 O   0  0  0  0  0  0  0  0  0  0  0  0
   -1.1225   -1.3955    0.5348 C   0  0  0  0  0  0  0  0  0  0  0  0
    0.0832   -1.1990   -0.3944 C   0  0  0  0  0  0  0  0  0  0  0  0
    1.8894    0.4671   -1.6011 H   0  0  0  0  0  0  0  0  0  0  0  0
    2.6247    1.0975   -0.0877 H   0  0  0  0  0  0  0  0  0  0  0  0
    2.7951   -0.6908   -0.5241 H   0  0  0  0  0  0  0  0  0  0  0  0
    1.3369    0.4802    2.0460 H   0  0  0  0  0  0  0  0  0  0  0  0
    0.4250    1.9157   -0.7843 H   0  0  0  0  0  0  0  0  0  0  0  0
    0.0120    1.8107    0.9491 H   0  0  0  0  0  0  0  0  0  0  0  0
   -1.4443    0.7428   -1.5300 H   0  0  0  0  0  0  0  0  0  0  0  0
   -2.0294    1.8436   -0.2676 H   0  0  0  0  0  0  0  0  0  0  0  0
   -0.7613   -1.2462    1.5839 H   0  0  0  0  0  0  0  0  0  0  0  0
   -1.6136   -2.3549    0.3821 H   0  0  0  0  0  0  0  0  0  0  0  0
    0.6812   -2.1058   -0.4331 H   0  0  0  0  0  0  0  0  0  0  0  0
   -0.2899   -0.9663   -1.4132 H   0  0  0  0  0  0  0  0  0  0  0  0
  1  2  1  0
  2  3  1  0
  2  4  1  0
  4  5  1  0
  5  6  1  0
  6  7  2  0
  6  8  1  0
  8  9  1  0
  9  2  1  0
  1 10  1  0
  1 11  1  0
  1 12  1  0
  3 13  1  0
  4 14  1  0
  4 15  1  0
  5 16  1  0
  5 17  1  0
  8 18  1  0
  8 19  1  0
  9 20  1  0
  9 21  1  0
M  END
