
     RDKit          3D

 21 22  0  0  0  0  0  0  0  0999 V2000
    1.9344   -1.2296   -0.3918 C   0  0  0  0  0  0  0  0  0  0  0  0
    1.1171    0.0171   -0.1771 C   0  0  0  0  0  0  0  0  0  0  0  0
   -0.2520   -0.0922    0.4121 C   0  0  0  0  0  0  0  0  0  0  0  0
   -1.1785   -0.9599   -0.4526 C   0  0  0  0  0  0  0  0  0  0  0  0
   -2.5138   -0.3122   -0.1048 C   0  0  0  0  0  0  0  0  0  0  0  0
   -2.2001    1.0301   -0.2056 O   0  0  0  0  0  0  0  0  0  0  0  0
   -0.9589    1.2211    0.3798 C   0  0  0  0  0  0  0  0  0  0  0  0
    1.8477    1.3059   -0.1888 C   0  0  0  0  0  0  0  0  0  0  0  0
    1.1121    0.9494   -1.3046 O   0  0  0  0  0  0  0  0  0  0  0  0
    2.7840   -1.1743    0.3491 H   0  0  0  0  0  0  0  0  0  0  0  0
    2.4138   -1.2105   -1.3852 H   0  0  0  0  0  0  0  0  0  0  0  0
    1.3691   -2.1544   -0.1842 H   0  0  0  0  0  0  0  0  0  0  0  0
   -0.2686   -0.5410    1.4121 H   0  0  0  0  0  0  0  0  0  0  0  0
   -0.9231   -0.7246   -1.4925 H   0  0  0  0  0  0  0  0  0  0  0  0
   -1.1301   -2.0140   -0.1794 H   0  0  0  0  0  0  0  0  0  0  0  0
   -2.7354   -0.5168    0.9613 H   0  0  0  0  0  0  0  0  0  0  0  0
   -3.3096   -0.5841   -0.7961 H   0  0  0  0  0  0  0  0  0  0  0  0
   -0.4180    1.9624   -0.2275 H   0  0  0  0  0  0  0  0  0  0  0  0
   -1.1489    1.5876    1.4219 H   0  0  0  0  0  0  0  0  0  0  0  0
    1.5211    2.1639    0.4329 H   0  0  0  0  0  0  0  0  0  0  0  0
    2.9378    1.2762   -0.3441 H   0  0  0  0  0  0  0  0  0  0  0  0
  1  2  1  0
  2  3  1  0
  3  4  1  0
  4  5  1  0
  5  6  1  0
  6  7  1  0
  2  8  1  0
  8  9  1  0
  9  2  1  0
  7  3  1  0
  1 10  1  0
  1 11  1  0
  1 12  1  0
  3 13  1  0
  4 14  1  0
  4 15  1  0
  5 16  1  0
  5 17  1  0
  7 18  1  0
  7 19  1  0
  8 20  1  0
  8 21  1  0
M  END
