
     RDKit          3D

 21 22  0  0  0  0  0  0  0  0999 V2000
   -1.7687    0.9723   -0.7258 C   0  0  0  0  0  0  0  0  0  0  0  0
   -0.6650    0.0968   -0.1839 C   0  0  0  0  0  0  0  0  0  0  0  0
   -1.1633   -1.1881    0.4034 C   0  0  0  0  0  0  0  0  0  0  0  0
   -0.0118    0.8911    0.9550 C   0  0  0  0  0  0  0  0  0  0  0  0
    0.8378    0.0016    1.5996 O   0  0  0  0  0  0  0  0  0  0  0  0
    1.9104   -0.3401    0.8166 C   0  0  0  0  0  0  0  0  0  0  0  0
    1.7351   -0.1527   -0.6412 C   0  0  0  0  0  0  0  0  0  0  0  0
    1.0755   -1.3758   -1.2133 O   0  0  0  0  0  0  0  0  0  0  0  0
    0.4241   -0.1556   -1.1961 C   0  0  0  0  0  0  0  0  0  0  0  0
   -2.0131    0.7763   -1.7683 H   0  0  0  0  0  0  0  0  0  0  0  0
   -2.6423    0.8875   -0.0442 H   0  0  0  0  0  0  0  0  0  0  0  0
   -1.4313    2.0422   -0.6427 H   0  0  0  0  0  0  0  0  0  0  0  0
   -0.5906   -2.0358   -0.0526 H   0  0  0  0  0  0  0  0  0  0  0  0
   -0.9595   -1.2677    1.5010 H   0  0  0  0  0  0  0  0  0  0  0  0
   -2.2509   -1.3481    0.1924 H   0  0  0  0  0  0  0  0  0  0  0  0
   -0.8238    1.1511    1.6563 H   0  0  0  0  0  0  0  0  0  0  0  0
    0.5280    1.7730    0.5538 H   0  0  0  0  0  0  0  0  0  0  0  0
    2.1625   -1.4156    1.0462 H   0  0  0  0  0  0  0  0  0  0  0  0
    2.7962    0.2402    1.2097 H   0  0  0  0  0  0  0  0  0  0  0  0
    2.5937    0.1704   -1.2684 H   0  0  0  0  0  0  0  0  0  0  0  0
    0.2571    0.2771   -2.1975 H   0  0  0  0  0  0  0  0  0  0  0  0
  1  2  1  0
  2  3  1  0
  2  4  1  0
  4  5  1  0
  5  6  1  0
  6  7  1  0
  7  8  1  0
  8  9  1  0
  9  2  1  0
  9  7  1  0
  1 10  1  0
  1 11  1  0
  1 12  1  0
  3 13  1  0
  3 14  1  0
  3 15  1  0
  4 16  1  0
  4 17  1  0
  6 18  1  0
  6 19  1  0
  7 20  1  0
  9 21  1  0
M  END
