
     RDKit          3D

 19 20  0  0  0  0  0  0  0  0999 V2000
   -1.1868    1.3208    0.4966 C   0  0  0  0  0  0  0  0  0  0  0  0
   -0.5039    0.0999   -0.0904 C   0  0  0  0  0  0  0  0  0  0  0  0
   -1.3208   -0.5260   -1.2254 C   0  0  0  0  0  0  0  0  0  0  0  0
   -2.5484   -0.9853   -0.7682 O   0  0  0  0  0  0  0  0  0  0  0  0
   -0.2283   -0.8521    0.9956 O   0  0  0  0  0  0  0  0  0  0  0  0
    0.7451   -0.2622    0.2479 C   0  0  0  0  0  0  0  0  0  0  0  0
    1.8021    0.6105    0.8105 C   0  0  0  0  0  0  0  0  0  0  0  0
    2.7295   -0.0711   -0.0132 O   0  0  0  0  0  0  0  0  0  0  0  0
    1.8127   -1.0891   -0.3286 C   0  0  0  0  0  0  0  0  0  0  0  0
   -1.7305    1.8955   -0.2591 H   0  0  0  0  0  0  0  0  0  0  0  0
   -1.8093    1.0539    1.3869 H   0  0  0  0  0  0  0  0  0  0  0  0
   -0.3942    2.0065    0.9054 H   0  0  0  0  0  0  0  0  0  0  0  0
   -1.5055    0.2200   -1.9937 H   0  0  0  0  0  0  0  0  0  0  0  0
   -0.6941   -1.3301   -1.6618 H   0  0  0  0  0  0  0  0  0  0  0  0
   -2.6062   -0.9201    0.1984 H   0  0  0  0  0  0  0  0  0  0  0  0
    1.6463    1.6721    0.4859 H   0  0  0  0  0  0  0  0  0  0  0  0
    1.9855    0.4919    1.8785 H   0  0  0  0  0  0  0  0  0  0  0  0
    2.0425   -1.9712    0.3206 H   0  0  0  0  0  0  0  0  0  0  0  0
    1.7643   -1.3641   -1.3861 H   0  0  0  0  0  0  0  0  0  0  0  0
  1  2  1  0
  2  3  1  0
  3  4  1  0
  2  5  1  0
  5  6  1  0
  6  7  1  0
  7  8  1  0
  8  9  1  0
  6  2  1  0
  9  6  1  0
  1 10  1  0
  1 11  1  0
  1 12  1  0
  3 13  1  0
  3 14  1  0
  4 15  1  0
  7 16  1  0
  7 17  1  0
  9 18  1  0
  9 19  1  0
M  END
