
     RDKit          3D

 21 21  0  0  0  0  0  0  0  0999 V2000
   -1.0817   -0.5888    1.3333 C   0  0  0  0  0  0  0  0  0  0  0  0
   -0.3461   -0.1956    0.0998 C   0  0  0  0  0  0  0  0  0  0  0  0
   -1.2386    0.5614   -0.8448 C   0  0  0  0  0  0  0  0  0  0  0  0
   -1.7357    1.7290   -0.2652 O   0  0  0  0  0  0  0  0  0  0  0  0
    0.2910   -1.3191   -0.6405 C   0  0  0  0  0  0  0  0  0  0  0  0
    1.1713   -0.6500   -1.4907 O   0  0  0  0  0  0  0  0  0  0  0  0
    1.7124    0.3996   -0.7945 C   0  0  0  0  0  0  0  0  0  0  0  0
    0.8985    0.6249    0.4434 C   0  0  0  0  0  0  0  0  0  0  0  0
    1.4962   -0.0507    1.5292 O   0  0  0  0  0  0  0  0  0  0  0  0
   -0.3984   -1.0686    2.0614 H   0  0  0  0  0  0  0  0  0  0  0  0
   -1.4768    0.3352    1.8045 H   0  0  0  0  0  0  0  0  0  0  0  0
   -1.9315   -1.2202    1.0848 H   0  0  0  0  0  0  0  0  0  0  0  0
   -0.6781    0.8510   -1.7641 H   0  0  0  0  0  0  0  0  0  0  0  0
   -2.0465   -0.1273   -1.1621 H   0  0  0  0  0  0  0  0  0  0  0  0
   -2.7061    1.6573   -0.2325 H   0  0  0  0  0  0  0  0  0  0  0  0
    0.9390   -1.9584    0.0126 H   0  0  0  0  0  0  0  0  0  0  0  0
   -0.4066   -1.9169   -1.2525 H   0  0  0  0  0  0  0  0  0  0  0  0
    2.7575    0.1564   -0.5302 H   0  0  0  0  0  0  0  0  0  0  0  0
    1.6435    1.3333   -1.4051 H   0  0  0  0  0  0  0  0  0  0  0  0
    0.6720    1.6614    0.6689 H   0  0  0  0  0  0  0  0  0  0  0  0
    2.4647   -0.2138    1.3442 H   0  0  0  0  0  0  0  0  0  0  0  0
  1  2  1  0
  2  3  1  0
  3  4  1  0
  2  5  1  0
  5  6  1  0
  6  7  1  0
  7  8  1  0
  8  9  1  0
  8  2  1  0
  1 10  1  0
  1 11  1  0
  1 12  1  0
  3 13  1  0
  3 14  1  0
  4 15  1  0
  5 16  1  0
  5 17  1  0
  7 18  1  0
  7 19  1  0
  8 20  1  0
  9 21  1  0
M  END
