
     RDKit          3D

 24 24  0  0  0  0  0  0  0  0999 V2000
   -1.3958    0.3398    1.2398 C   0  0  0  0  0  0  0  0  0  0  0  0
   -0.7977    0.0228   -0.1378 C   0  0  0  0  0  0  0  0  0  0  0  0
   -1.9414   -0.0712   -1.1569 C   0  0  0  0  0  0  0  0  0  0  0  0
    0.0441    1.1706   -0.5705 C   0  0  0  0  0  0  0  0  0  0  0  0
    1.3088    1.2062    0.2102 C   0  0  0  0  0  0  0  0  0  0  0  0
    2.0808   -0.0617    0.1627 C   0  0  0  0  0  0  0  0  0  0  0  0
    1.3108   -1.3150    0.2533 C   0  0  0  0  0  0  0  0  0  0  0  0
   -0.1208   -1.2930   -0.1014 C   0  0  0  0  0  0  0  0  0  0  0  0
   -0.7170    0.9573    1.8468 H   0  0  0  0  0  0  0  0  0  0  0  0
   -1.5791   -0.6109    1.7824 H   0  0  0  0  0  0  0  0  0  0  0  0
   -2.3573    0.9017    1.1161 H   0  0  0  0  0  0  0  0  0  0  0  0
   -1.4740   -0.5470   -2.0651 H   0  0  0  0  0  0  0  0  0  0  0  0
   -2.7238   -0.7516   -0.8113 H   0  0  0  0  0  0  0  0  0  0  0  0
   -2.2929    0.9150   -1.4707 H   0  0  0  0  0  0  0  0  0  0  0  0
    0.2397    1.1097   -1.6470 H   0  0  0  0  0  0  0  0  0  0  0  0
   -0.5245    2.1110   -0.3360 H   0  0  0  0  0  0  0  0  0  0  0  0
    1.1543    1.5199    1.2604 H   0  0  0  0  0  0  0  0  0  0  0  0
    1.9479    2.0221   -0.2424 H   0  0  0  0  0  0  0  0  0  0  0  0
    2.7138   -0.0306   -0.7749 H   0  0  0  0  0  0  0  0  0  0  0  0
    2.8462   -0.0100    0.9944 H   0  0  0  0  0  0  0  0  0  0  0  0
    1.4344   -1.7447    1.2920 H   0  0  0  0  0  0  0  0  0  0  0  0
    1.8448   -2.0769   -0.3925 H   0  0  0  0  0  0  0  0  0  0  0  0
   -0.2885   -1.8366   -1.0801 H   0  0  0  0  0  0  0  0  0  0  0  0
   -0.7125   -1.9271    0.6284 H   0  0  0  0  0  0  0  0  0  0  0  0
  1  2  1  0
  2  3  1  0
  2  4  1  0
  4  5  1  0
  5  6  1  0
  6  7  1  0
  7  8  1  0
  8  2  1  0
  1  9  1  0
  1 10  1  0
  1 11  1  0
  3 12  1  0
  3 13  1  0
  3 14  1  0
  4 15  1  0
  4 16  1  0
  5 17  1  0
  5 18  1  0
  6 19  1  0
  6 20  1  0
  7 21  1  0
  7 22  1  0
  8 23  1  0
  8 24  1  0
M  END
