
     RDKit          3D

 19 19  0  0  0  0  0  0  0  0999 V2000
    1.3665   -0.6265   -0.8940 C   0  0  0  0  0  0  0  0  0  0  0  0
    0.5755    0.1909    0.1152 C   0  0  0  0  0  0  0  0  0  0  0  0
    1.4611    1.2819    0.6235 C   0  0  0  0  0  0  0  0  0  0  0  0
    0.0381   -0.6793    1.2063 C   0  0  0  0  0  0  0  0  0  0  0  0
   -1.2109   -1.0403    0.9428 C   0  0  0  0  0  0  0  0  0  0  0  0
   -1.6310   -0.4441   -0.3561 C   0  0  0  0  0  0  0  0  0  0  0  0
   -2.9556   -0.0244   -0.3271 O   0  0  0  0  0  0  0  0  0  0  0  0
   -0.6717    0.6546   -0.5040 C   0  0  0  0  0  0  0  0  0  0  0  0
   -0.8650    1.7071   -1.0205 O   0  0  0  0  0  0  0  0  0  0  0  0
    2.3550   -0.9104   -0.4893 H   0  0  0  0  0  0  0  0  0  0  0  0
    0.8090   -1.5706   -1.0523 H   0  0  0  0  0  0  0  0  0  0  0  0
    1.4069   -0.0779   -1.8434 H   0  0  0  0  0  0  0  0  0  0  0  0
    1.3807    2.2107    0.0020 H   0  0  0  0  0  0  0  0  0  0  0  0
    1.2990    1.5591    1.6709 H   0  0  0  0  0  0  0  0  0  0  0  0
    2.5430    0.9829    0.5321 H   0  0  0  0  0  0  0  0  0  0  0  0
    0.5890   -0.9820    2.1007 H   0  0  0  0  0  0  0  0  0  0  0  0
   -1.8679   -1.6746    1.5535 H   0  0  0  0  0  0  0  0  0  0  0  0
   -1.5667   -1.1891   -1.1806 H   0  0  0  0  0  0  0  0  0  0  0  0
   -3.0550    0.6319   -1.0798 H   0  0  0  0  0  0  0  0  0  0  0  0
  1  2  1  0
  2  3  1  0
  2  4  1  0
  4  5  2  0
  5  6  1  0
  6  7  1  0
  6  8  1  0
  8  9  2  0
  8  2  1  0
  1 10  1  0
  1 11  1  0
  1 12  1  0
  3 13  1  0
  3 14  1  0
  3 15  1  0
  4 16  1  0
  5 17  1  0
  6 18  1  0
  7 19  1  0
M  END
