
     RDKit          3D

 19 20  0  0  0  0  0  0  0  0999 V2000
   -1.1539    0.5086    1.2192 C   0  0  0  0  0  0  0  0  0  0  0  0
   -0.4361   -0.0503    0.0427 C   0  0  0  0  0  0  0  0  0  0  0  0
   -0.7570   -1.4852   -0.2037 C   0  0  0  0  0  0  0  0  0  0  0  0
   -0.5821    0.7479   -1.2521 C   0  0  0  0  0  0  0  0  0  0  0  0
    0.9208    1.0312   -1.1174 C   0  0  0  0  0  0  0  0  0  0  0  0
    1.1990    1.7442    0.0274 O   0  0  0  0  0  0  0  0  0  0  0  0
    1.0187    0.3241    0.0284 C   0  0  0  0  0  0  0  0  0  0  0  0
    2.0354   -0.4288    0.7161 C   0  0  0  0  0  0  0  0  0  0  0  0
    1.9961   -1.6621    0.7894 O   0  0  0  0  0  0  0  0  0  0  0  0
   -0.5699    1.2973    1.7578 H   0  0  0  0  0  0  0  0  0  0  0  0
   -1.2909   -0.3354    1.9565 H   0  0  0  0  0  0  0  0  0  0  0  0
   -2.1734    0.8790    1.0021 H   0  0  0  0  0  0  0  0  0  0  0  0
    0.0679   -2.0693   -0.6478 H   0  0  0  0  0  0  0  0  0  0  0  0
   -1.1395   -1.9594    0.7258 H   0  0  0  0  0  0  0  0  0  0  0  0
   -1.6149   -1.5109   -0.9378 H   0  0  0  0  0  0  0  0  0  0  0  0
   -0.7517    0.1444   -2.1454 H   0  0  0  0  0  0  0  0  0  0  0  0
   -1.1790    1.6733   -1.1476 H   0  0  0  0  0  0  0  0  0  0  0  0
    1.5376    1.0768   -2.0075 H   0  0  0  0  0  0  0  0  0  0  0  0
    2.8729    0.0747    1.1938 H   0  0  0  0  0  0  0  0  0  0  0  0
  1  2  1  0
  2  3  1  0
  2  4  1  0
  4  5  1  0
  5  6  1  0
  6  7  1  0
  7  8  1  0
  8  9  2  0
  7  2  1  0
  7  5  1  0
  1 10  1  0
  1 11  1  0
  1 12  1  0
  3 13  1  0
  3 14  1  0
  3 15  1  0
  4 16  1  0
  4 17  1  0
  5 18  1  0
  8 19  1  0
M  END
