
     RDKit          3D

 19 20  0  0  0  0  0  0  0  0999 V2000
   -1.8053   -0.1844   -0.8366 C   0  0  0  0  0  0  0  0  0  0  0  0
   -0.5135    0.0408   -0.1624 C   0  0  0  0  0  0  0  0  0  0  0  0
   -0.6330    1.1788    0.7761 C   0  0  0  0  0  0  0  0  0  0  0  0
   -1.0135    1.0166    1.9075 O   0  0  0  0  0  0  0  0  0  0  0  0
    0.6409    0.3279   -1.0923 C   0  0  0  0  0  0  0  0  0  0  0  0
    1.8098    0.2989   -0.1185 C   0  0  0  0  0  0  0  0  0  0  0  0
    2.4431   -0.8933    0.1239 O   0  0  0  0  0  0  0  0  0  0  0  0
    1.4087   -0.6573    0.9879 C   0  0  0  0  0  0  0  0  0  0  0  0
    0.0031   -1.1427    0.6199 C   0  0  0  0  0  0  0  0  0  0  0  0
   -2.4635   -0.8115   -0.1743 H   0  0  0  0  0  0  0  0  0  0  0  0
   -2.3131    0.8154   -0.9600 H   0  0  0  0  0  0  0  0  0  0  0  0
   -1.7715   -0.6455   -1.8251 H   0  0  0  0  0  0  0  0  0  0  0  0
   -0.3725    2.1599    0.4280 H   0  0  0  0  0  0  0  0  0  0  0  0
    0.5226    1.3200   -1.5725 H   0  0  0  0  0  0  0  0  0  0  0  0
    0.7602   -0.4328   -1.8794 H   0  0  0  0  0  0  0  0  0  0  0  0
    2.2767    1.2665    0.1589 H   0  0  0  0  0  0  0  0  0  0  0  0
    1.6063   -0.3767    2.0258 H   0  0  0  0  0  0  0  0  0  0  0  0
   -0.6132   -1.2066    1.5474 H   0  0  0  0  0  0  0  0  0  0  0  0
    0.0277   -2.0741    0.0457 H   0  0  0  0  0  0  0  0  0  0  0  0
  1  2  1  0
  2  3  1  0
  3  4  2  0
  2  5  1  0
  5  6  1  0
  6  7  1  0
  7  8  1  0
  8  9  1  0
  9  2  1  0
  8  6  1  0
  1 10  1  0
  1 11  1  0
  1 12  1  0
  3 13  1  0
  5 14  1  0
  5 15  1  0
  6 16  1  0
  8 17  1  0
  9 18  1  0
  9 19  1  0
M  END
