
     RDKit          3D

 19 20  0  0  0  0  0  0  0  0999 V2000
    1.9661   -0.4598    0.0554 C   0  0  0  0  0  0  0  0  0  0  0  0
    0.6877    0.3055   -0.0155 C   0  0  0  0  0  0  0  0  0  0  0  0
    0.7863    1.6855   -0.0562 O   0  0  0  0  0  0  0  0  0  0  0  0
   -0.3021   -0.1581    1.0549 C   0  0  0  0  0  0  0  0  0  0  0  0
   -1.4762    0.7501    0.7916 C   0  0  0  0  0  0  0  0  0  0  0  0
   -1.4897    0.6381   -0.6933 C   0  0  0  0  0  0  0  0  0  0  0  0
   -2.2511    1.1447   -1.4571 O   0  0  0  0  0  0  0  0  0  0  0  0
   -0.3572   -0.2316   -0.9702 C   0  0  0  0  0  0  0  0  0  0  0  0
   -0.5916   -1.3153    0.0974 C   0  0  0  0  0  0  0  0  0  0  0  0
    1.9131   -1.3476    0.7282 H   0  0  0  0  0  0  0  0  0  0  0  0
    2.2299   -0.8017   -0.9530 H   0  0  0  0  0  0  0  0  0  0  0  0
    2.7423    0.2028    0.5033 H   0  0  0  0  0  0  0  0  0  0  0  0
    1.2834    1.9903   -0.8326 H   0  0  0  0  0  0  0  0  0  0  0  0
    0.0388   -0.3595    2.0248 H   0  0  0  0  0  0  0  0  0  0  0  0
   -1.1602    1.7748    1.0888 H   0  0  0  0  0  0  0  0  0  0  0  0
   -2.4008    0.4279    1.2656 H   0  0  0  0  0  0  0  0  0  0  0  0
   -0.0833   -0.5403   -1.9356 H   0  0  0  0  0  0  0  0  0  0  0  0
    0.1325   -2.1218    0.0991 H   0  0  0  0  0  0  0  0  0  0  0  0
   -1.6679   -1.5837    0.0569 H   0  0  0  0  0  0  0  0  0  0  0  0
  1  2  1  0
  2  3  1  0
  2  4  1  0
  4  5  1  0
  5  6  1  0
  6  7  2  0
  6  8  1  0
  8  9  1  0
  8  2  1  0
  9  4  1  0
  1 10  1  0
  1 11  1  0
  1 12  1  0
  3 13  1  0
  4 14  1  0
  5 15  1  0
  5 16  1  0
  8 17  1  0
  9 18  1  0
  9 19  1  0
M  END
