
     RDKit          3D

 21 22  0  0  0  0  0  0  0  0999 V2000
   -1.1890    1.5787   -0.5848 C   0  0  0  0  0  0  0  0  0  0  0  0
   -0.8087    0.1802   -0.1182 C   0  0  0  0  0  0  0  0  0  0  0  0
   -1.8566   -0.4454    0.7764 C   0  0  0  0  0  0  0  0  0  0  0  0
   -3.0438   -0.7040    0.1436 O   0  0  0  0  0  0  0  0  0  0  0  0
   -0.4582   -0.6811   -1.2775 O   0  0  0  0  0  0  0  0  0  0  0  0
    0.4443   -0.2993   -0.3273 C   0  0  0  0  0  0  0  0  0  0  0  0
    1.2978   -1.2695    0.4043 C   0  0  0  0  0  0  0  0  0  0  0  0
    2.3686   -0.1900    0.4924 C   0  0  0  0  0  0  0  0  0  0  0  0
    1.6318    0.5393   -0.6220 C   0  0  0  0  0  0  0  0  0  0  0  0
   -2.2644    1.7865   -0.4256 H   0  0  0  0  0  0  0  0  0  0  0  0
   -0.9144    1.7539   -1.6429 H   0  0  0  0  0  0  0  0  0  0  0  0
   -0.6416    2.2834    0.0847 H   0  0  0  0  0  0  0  0  0  0  0  0
   -2.0391    0.1514    1.6811 H   0  0  0  0  0  0  0  0  0  0  0  0
   -1.4223   -1.4211    1.1461 H   0  0  0  0  0  0  0  0  0  0  0  0
   -2.9308   -1.3467   -0.5865 H   0  0  0  0  0  0  0  0  0  0  0  0
    0.9363   -1.6490    1.3639 H   0  0  0  0  0  0  0  0  0  0  0  0
    1.6573   -2.0729   -0.2960 H   0  0  0  0  0  0  0  0  0  0  0  0
    3.3746   -0.5341    0.2032 H   0  0  0  0  0  0  0  0  0  0  0  0
    2.2865    0.2990    1.4868 H   0  0  0  0  0  0  0  0  0  0  0  0
    1.4565    1.5973   -0.3068 H   0  0  0  0  0  0  0  0  0  0  0  0
    2.1153    0.4435   -1.5948 H   0  0  0  0  0  0  0  0  0  0  0  0
  1  2  1  0
  2  3  1  0
  3  4  1  0
  2  5  1  0
  5  6  1  0
  6  7  1  0
  7  8  1  0
  8  9  1  0
  6  2  1  0
  9  6  1  0
  1 10  1  0
  1 11  1  0
  1 12  1  0
  3 13  1  0
  3 14  1  0
  4 15  1  0
  7 16  1  0
  7 17  1  0
  8 18  1  0
  8 19  1  0
  9 20  1  0
  9 21  1  0
M  END
