
     RDKit          3D

 23 24  0  0  0  0  0  0  0  0999 V2000
    1.1415   -1.3932    0.5264 C   0  0  0  0  0  0  0  0  0  0  0  0
    0.7266   -0.0288    0.1081 C   0  0  0  0  0  0  0  0  0  0  0  0
    1.8457    0.6870   -0.6218 C   0  0  0  0  0  0  0  0  0  0  0  0
    0.0117    0.8159    1.1084 C   0  0  0  0  0  0  0  0  0  0  0  0
   -0.4264    0.0523    2.2154 O   0  0  0  0  0  0  0  0  0  0  0  0
   -1.1071    1.1156    0.1749 C   0  0  0  0  0  0  0  0  0  0  0  0
   -0.9728    1.1860   -1.2837 C   0  0  0  0  0  0  0  0  0  0  0  0
   -0.5862   -0.0720   -0.6727 C   0  0  0  0  0  0  0  0  0  0  0  0
   -1.4459   -1.2804   -0.5792 C   0  0  0  0  0  0  0  0  0  0  0  0
    1.4695   -1.9418   -0.4024 H   0  0  0  0  0  0  0  0  0  0  0  0
    2.0211   -1.3896    1.1921 H   0  0  0  0  0  0  0  0  0  0  0  0
    0.3204   -2.0015    0.9450 H   0  0  0  0  0  0  0  0  0  0  0  0
    1.8068    0.5428   -1.7150 H   0  0  0  0  0  0  0  0  0  0  0  0
    1.7669    1.7767   -0.3685 H   0  0  0  0  0  0  0  0  0  0  0  0
    2.8120    0.3240   -0.2097 H   0  0  0  0  0  0  0  0  0  0  0  0
    0.5651    1.7165    1.4367 H   0  0  0  0  0  0  0  0  0  0  0  0
   -0.8580    0.6773    2.8470 H   0  0  0  0  0  0  0  0  0  0  0  0
   -2.1110    1.0449    0.5949 H   0  0  0  0  0  0  0  0  0  0  0  0
   -0.1448    1.7992   -1.7325 H   0  0  0  0  0  0  0  0  0  0  0  0
   -1.8865    1.2180   -1.8749 H   0  0  0  0  0  0  0  0  0  0  0  0
   -1.6271   -1.6039    0.4872 H   0  0  0  0  0  0  0  0  0  0  0  0
   -2.3792   -1.1018   -1.1141 H   0  0  0  0  0  0  0  0  0  0  0  0
   -0.9423   -2.1431   -1.0616 H   0  0  0  0  0  0  0  0  0  0  0  0
  1  2  1  0
  2  3  1  0
  2  4  1  0
  4  5  1  0
  4  6  1  0
  6  7  1  0
  7  8  1  0
  8  9  1  0
  8  2  1  0
  8  6  1  0
  1 10  1  0
  1 11  1  0
  1 12  1  0
  3 13  1  0
  3 14  1  0
  3 15  1  0
  4 16  1  0
  5 17  1  0
  6 18  1  0
  7 19  1  0
  7 20  1  0
  9 21  1  0
  9 22  1  0
  9 23  1  0
M  END
