
     RDKit          3D

 18 19  0  0  0  0  0  0  0  0999 V2000
   -1.5448   -0.6215    0.9208 C   0  0  0  0  0  0  0  0  0  0  0  0
   -0.4812   -0.1331   -0.0704 C   0  0  0  0  0  0  0  0  0  0  0  0
   -1.0724    0.5309   -1.2789 C   0  0  0  0  0  0  0  0  0  0  0  0
    0.5033   -1.2092   -0.3507 C   0  0  0  0  0  0  0  0  0  0  0  0
    0.4492   -2.2663   -0.9508 O   0  0  0  0  0  0  0  0  0  0  0  0
    1.5404   -0.4829    0.3796 C   0  0  0  0  0  0  0  0  0  0  0  0
    1.8771    0.9454   -0.0844 C   0  0  0  0  0  0  0  0  0  0  0  0
    0.6175    0.6443    0.6247 C   0  0  0  0  0  0  0  0  0  0  0  0
   -1.7883    0.2568    1.5561 H   0  0  0  0  0  0  0  0  0  0  0  0
   -2.4282   -0.9692    0.3655 H   0  0  0  0  0  0  0  0  0  0  0  0
   -1.1102   -1.4465    1.5209 H   0  0  0  0  0  0  0  0  0  0  0  0
   -2.1591    0.7419   -1.1065 H   0  0  0  0  0  0  0  0  0  0  0  0
   -0.9296   -0.0886   -2.1935 H   0  0  0  0  0  0  0  0  0  0  0  0
   -0.5944    1.5359   -1.3983 H   0  0  0  0  0  0  0  0  0  0  0  0
    2.1637   -0.9289    1.1419 H   0  0  0  0  0  0  0  0  0  0  0  0
    2.6667    1.4223    0.5066 H   0  0  0  0  0  0  0  0  0  0  0  0
    1.8925    1.0182   -1.1948 H   0  0  0  0  0  0  0  0  0  0  0  0
    0.3979    1.0506    1.6122 H   0  0  0  0  0  0  0  0  0  0  0  0
  1  2  1  0
  2  3  1  0
  2  4  1  0
  4  5  2  0
  4  6  1  0
  6  7  1  0
  7  8  1  0
  8  2  1  0
  8  6  1  0
  1  9  1  0
  1 10  1  0
  1 11  1  0
  3 12  1  0
  3 13  1  0
  3 14  1  0
  6 15  1  0
  7 16  1  0
  7 17  1  0
  8 18  1  0
M  END
