
     RDKit          3D

 21 22  0  0  0  0  0  0  0  0999 V2000
   -1.3556    0.4611   -1.0667 C   0  0  0  0  0  0  0  0  0  0  0  0
   -0.5647    0.0310    0.1717 C   0  0  0  0  0  0  0  0  0  0  0  0
   -1.6205   -0.1655    1.2687 C   0  0  0  0  0  0  0  0  0  0  0  0
    0.3247    1.1352    0.6054 C   0  0  0  0  0  0  0  0  0  0  0  0
    1.7171    1.0280    0.0936 C   0  0  0  0  0  0  0  0  0  0  0  0
    2.2273   -0.0819   -0.3866 C   0  0  0  0  0  0  0  0  0  0  0  0
    1.4473   -1.3320   -0.4579 C   0  0  0  0  0  0  0  0  0  0  0  0
    0.5032   -1.4204   -1.5161 O   0  0  0  0  0  0  0  0  0  0  0  0
    0.0787   -1.2615   -0.1191 C   0  0  0  0  0  0  0  0  0  0  0  0
   -2.1239   -0.3430   -1.2180 H   0  0  0  0  0  0  0  0  0  0  0  0
   -0.6605    0.4192   -1.9138 H   0  0  0  0  0  0  0  0  0  0  0  0
   -1.8172    1.4481   -0.8983 H   0  0  0  0  0  0  0  0  0  0  0  0
   -2.0911    0.8038    1.4366 H   0  0  0  0  0  0  0  0  0  0  0  0
   -1.0695   -0.5131    2.1866 H   0  0  0  0  0  0  0  0  0  0  0  0
   -2.3200   -0.9473    0.9015 H   0  0  0  0  0  0  0  0  0  0  0  0
   -0.0900    2.0987    0.1902 H   0  0  0  0  0  0  0  0  0  0  0  0
    0.3180    1.2819    1.7160 H   0  0  0  0  0  0  0  0  0  0  0  0
    2.3077    1.9380    0.1376 H   0  0  0  0  0  0  0  0  0  0  0  0
    3.2495   -0.0913   -0.7434 H   0  0  0  0  0  0  0  0  0  0  0  0
    1.9823   -2.3055   -0.3251 H   0  0  0  0  0  0  0  0  0  0  0  0
   -0.4430   -2.1833    0.2669 H   0  0  0  0  0  0  0  0  0  0  0  0
  1  2  1  0
  2  3  1  0
  2  4  1  0
  4  5  1  0
  5  6  2  0
  6  7  1  0
  7  8  1  0
  8  9  1  0
  9  2  1  0
  9  7  1  0
  1 10  1  0
  1 11  1  0
  1 12  1  0
  3 13  1  0
  3 14  1  0
  3 15  1  0
  4 16  1  0
  4 17  1  0
  5 18  1  0
  6 19  1  0
  7 20  1  0
  9 21  1  0
M  END
