
     RDKit          3D

 18 19  0  0  0  0  0  0  0  0999 V2000
    1.7321   -0.4299    0.2907 C   0  0  0  0  0  0  0  0  0  0  0  0
    0.4838    0.3199    0.0223 C   0  0  0  0  0  0  0  0  0  0  0  0
    0.7779    1.6467   -0.2027 O   0  0  0  0  0  0  0  0  0  0  0  0
   -0.3070   -0.2903   -1.1493 C   0  0  0  0  0  0  0  0  0  0  0  0
   -1.4845   -0.8421   -0.4406 C   0  0  0  0  0  0  0  0  0  0  0  0
   -2.6410   -0.3560   -0.0769 O   0  0  0  0  0  0  0  0  0  0  0  0
   -1.7430    0.4506    0.4004 C   0  0  0  0  0  0  0  0  0  0  0  0
   -0.5021    0.2656    1.2071 C   0  0  0  0  0  0  0  0  0  0  0  0
    2.6084    0.2207    0.5372 H   0  0  0  0  0  0  0  0  0  0  0  0
    2.0277   -0.9300   -0.6787 H   0  0  0  0  0  0  0  0  0  0  0  0
    1.6585   -1.2372    1.0273 H   0  0  0  0  0  0  0  0  0  0  0  0
    1.2753    1.7640   -1.0532 H   0  0  0  0  0  0  0  0  0  0  0  0
   -0.5277    0.4452   -1.9175 H   0  0  0  0  0  0  0  0  0  0  0  0
    0.3173   -1.1180   -1.5514 H   0  0  0  0  0  0  0  0  0  0  0  0
   -1.1956   -1.7608    0.1574 H   0  0  0  0  0  0  0  0  0  0  0  0
   -1.6691    1.4219   -0.1852 H   0  0  0  0  0  0  0  0  0  0  0  0
   -0.3814    1.1182    1.8748 H   0  0  0  0  0  0  0  0  0  0  0  0
   -0.4297   -0.6884    1.7383 H   0  0  0  0  0  0  0  0  0  0  0  0
  1  2  1  0
  2  3  1  0
  2  4  1  0
  4  5  1  0
  5  6  1  0
  6  7  1  0
  7  8  1  0
  8  2  1  0
  7  5  1  0
  1  9  1  0
  1 10  1  0
  1 11  1  0
  3 12  1  0
  4 13  1  0
  4 14  1  0
  5 15  1  0
  7 16  1  0
  8 17  1  0
  8 18  1  0
M  END
