
     RDKit          3D

 21 22  0  0  0  0  0  0  0  0999 V2000
   -2.4293   -0.5553   -0.4020 C   0  0  0  0  0  0  0  0  0  0  0  0
   -1.3249    0.4240    0.0241 C   0  0  0  0  0  0  0  0  0  0  0  0
   -1.9186    1.6525    0.4019 O   0  0  0  0  0  0  0  0  0  0  0  0
   -0.1702    0.4966   -0.7863 C   0  0  0  0  0  0  0  0  0  0  0  0
    1.0129    1.3556   -0.7895 C   0  0  0  0  0  0  0  0  0  0  0  0
    2.1025    0.7420   -0.2647 C   0  0  0  0  0  0  0  0  0  0  0  0
    2.0933   -0.6457    0.2541 C   0  0  0  0  0  0  0  0  0  0  0  0
    0.7156   -1.1666    0.6197 C   0  0  0  0  0  0  0  0  0  0  0  0
   -0.1694   -0.0012    0.7029 C   0  0  0  0  0  0  0  0  0  0  0  0
   -3.1418   -0.5668    0.4623 H   0  0  0  0  0  0  0  0  0  0  0  0
   -2.0350   -1.5364   -0.6610 H   0  0  0  0  0  0  0  0  0  0  0  0
   -3.0107   -0.1132   -1.2558 H   0  0  0  0  0  0  0  0  0  0  0  0
   -2.6221    1.5186    1.0678 H   0  0  0  0  0  0  0  0  0  0  0  0
   -0.0600   -0.2922   -1.5812 H   0  0  0  0  0  0  0  0  0  0  0  0
    1.0623    2.3655   -1.1557 H   0  0  0  0  0  0  0  0  0  0  0  0
    3.0580    1.2695   -0.2044 H   0  0  0  0  0  0  0  0  0  0  0  0
    2.6167   -1.3330   -0.4443 H   0  0  0  0  0  0  0  0  0  0  0  0
    2.7286   -0.6594    1.1889 H   0  0  0  0  0  0  0  0  0  0  0  0
    0.7998   -1.7788    1.5417 H   0  0  0  0  0  0  0  0  0  0  0  0
    0.4479   -1.8984   -0.1908 H   0  0  0  0  0  0  0  0  0  0  0  0
    0.2444    0.7228    1.4720 H   0  0  0  0  0  0  0  0  0  0  0  0
  1  2  1  0
  2  3  1  0
  2  4  1  0
  4  5  1  0
  5  6  2  0
  6  7  1  0
  7  8  1  0
  8  9  1  0
  9  2  1  0
  9  4  1  0
  1 10  1  0
  1 11  1  0
  1 12  1  0
  3 13  1  0
  4 14  1  0
  5 15  1  0
  6 16  1  0
  7 17  1  0
  7 18  1  0
  8 19  1  0
  8 20  1  0
  9 21  1  0
M  END
