
     RDKit          3D

 21 23  0  0  0  0  0  0  0  0999 V2000
   -1.3464   -1.3251   -0.7950 C   0  0  0  0  0  0  0  0  0  0  0  0
   -0.7575   -0.1202   -0.0428 C   0  0  0  0  0  0  0  0  0  0  0  0
    0.6203   -0.0328    0.0054 C   0  0  0  0  0  0  0  0  0  0  0  0
    1.4425    1.0194    0.6633 C   0  0  0  0  0  0  0  0  0  0  0  0
    2.3725    0.1213   -0.0905 C   0  0  0  0  0  0  0  0  0  0  0  0
    1.5967   -1.0415    0.4496 C   0  0  0  0  0  0  0  0  0  0  0  0
    1.4469    0.1555   -1.1238 O   0  0  0  0  0  0  0  0  0  0  0  0
   -1.7458    0.5081    0.9157 C   0  0  0  0  0  0  0  0  0  0  0  0
   -1.5192    1.1883   -0.3816 C   0  0  0  0  0  0  0  0  0  0  0  0
   -2.3598   -1.5598   -0.4747 H   0  0  0  0  0  0  0  0  0  0  0  0
   -0.6654   -2.2002   -0.6600 H   0  0  0  0  0  0  0  0  0  0  0  0
   -1.3834   -1.0086   -1.8626 H   0  0  0  0  0  0  0  0  0  0  0  0
    1.5553    0.9024    1.7673 H   0  0  0  0  0  0  0  0  0  0  0  0
    1.2986    2.0313    0.2890 H   0  0  0  0  0  0  0  0  0  0  0  0
    3.3736    0.2021   -0.1698 H   0  0  0  0  0  0  0  0  0  0  0  0
    1.6791   -1.9598   -0.1771 H   0  0  0  0  0  0  0  0  0  0  0  0
    1.7066   -1.2303    1.5294 H   0  0  0  0  0  0  0  0  0  0  0  0
   -2.7564    0.0532    1.0319 H   0  0  0  0  0  0  0  0  0  0  0  0
   -1.3868    0.9893    1.8318 H   0  0  0  0  0  0  0  0  0  0  0  0
   -0.9323    2.1337   -0.3289 H   0  0  0  0  0  0  0  0  0  0  0  0
   -2.2389    1.1737   -1.1995 H   0  0  0  0  0  0  0  0  0  0  0  0
  1  2  1  0
  2  3  1  0
  3  4  1  0
  4  5  1  0
  5  6  1  0
  5  7  1  0
  2  8  1  0
  8  9  1  0
  9  2  1  0
  6  3  1  0
  7  3  1  0
  1 10  1  0
  1 11  1  0
  1 12  1  0
  4 13  1  0
  4 14  1  0
  5 15  1  0
  6 16  1  0
  6 17  1  0
  8 18  1  0
  8 19  1  0
  9 20  1  0
  9 21  1  0
M  END
