
     RDKit          3D

 14 15  0  0  0  0  0  0  0  0999 V2000
   -1.7879   -0.1970    0.1508 C   0  0  0  0  0  0  0  0  0  0  0  0
   -0.4056    0.1981   -0.3818 C   0  0  0  0  0  0  0  0  0  0  0  0
   -0.5192    0.7728   -1.6702 O   0  0  0  0  0  0  0  0  0  0  0  0
    0.5124    0.7263    0.5643 C   0  0  0  0  0  0  0  0  0  0  0  0
    1.3560    0.0179    1.4879 O   0  0  0  0  0  0  0  0  0  0  0  0
    2.0887   -0.1882    0.3206 C   0  0  0  0  0  0  0  0  0  0  0  0
    3.2794   -0.0146    0.0396 O   0  0  0  0  0  0  0  0  0  0  0  0
    0.7723   -0.6402   -0.1951 C   0  0  0  0  0  0  0  0  0  0  0  0
   -2.1213    0.6614    0.7866 H   0  0  0  0  0  0  0  0  0  0  0  0
   -1.6846   -1.0548    0.8576 H   0  0  0  0  0  0  0  0  0  0  0  0
   -2.4973   -0.3884   -0.6565 H   0  0  0  0  0  0  0  0  0  0  0  0
   -0.6440    0.0900   -2.3637 H   0  0  0  0  0  0  0  0  0  0  0  0
    1.1514    1.5799    0.1696 H   0  0  0  0  0  0  0  0  0  0  0  0
    0.4997   -1.5632    0.4118 H   0  0  0  0  0  0  0  0  0  0  0  0
  1  2  1  0
  2  3  1  0
  2  4  1  0
  4  5  1  0
  5  6  1  0
  6  7  2  0
  6  8  1  0
  8  2  1  0
  8  4  1  0
  1  9  1  0
  1 10  1  0
  1 11  1  0
  3 12  1  0
  4 13  1  0
  8 14  1  0
M  END
