
     RDKit          3D

 19 20  0  0  0  0  0  0  0  0999 V2000
   -1.4858    0.8353    0.8911 C   0  0  0  0  0  0  0  0  0  0  0  0
   -1.0535   -0.1037   -0.2044 C   0  0  0  0  0  0  0  0  0  0  0  0
   -2.0996   -0.7046   -0.9021 O   0  0  0  0  0  0  0  0  0  0  0  0
    0.1195    0.2627   -1.0177 C   0  0  0  0  0  0  0  0  0  0  0  0
    1.2289    1.0879   -0.5249 C   0  0  0  0  0  0  0  0  0  0  0  0
    1.8373    0.6202    0.5369 C   0  0  0  0  0  0  0  0  0  0  0  0
    1.2086   -0.6449    0.9439 C   0  0  0  0  0  0  0  0  0  0  0  0
    0.1624   -0.9352   -0.0594 C   0  0  0  0  0  0  0  0  0  0  0  0
    0.2192   -2.1857   -0.6772 O   0  0  0  0  0  0  0  0  0  0  0  0
   -1.8204    1.7803    0.4052 H   0  0  0  0  0  0  0  0  0  0  0  0
   -2.3829    0.4211    1.4132 H   0  0  0  0  0  0  0  0  0  0  0  0
   -0.6734    0.9999    1.6318 H   0  0  0  0  0  0  0  0  0  0  0  0
   -2.1327   -0.3724   -1.8424 H   0  0  0  0  0  0  0  0  0  0  0  0
    0.1659    0.0431   -2.1042 H   0  0  0  0  0  0  0  0  0  0  0  0
    1.5162    2.0319   -1.0254 H   0  0  0  0  0  0  0  0  0  0  0  0
    2.6989    1.0692    1.0845 H   0  0  0  0  0  0  0  0  0  0  0  0
    1.9776   -1.4729    0.9763 H   0  0  0  0  0  0  0  0  0  0  0  0
    0.8162   -0.6139    1.9846 H   0  0  0  0  0  0  0  0  0  0  0  0
   -0.3026   -2.1183   -1.5097 H   0  0  0  0  0  0  0  0  0  0  0  0
  1  2  1  0
  2  3  1  0
  2  4  1  0
  4  5  1  0
  5  6  2  0
  6  7  1  0
  7  8  1  0
  8  9  1  0
  8  2  1  0
  8  4  1  0
  1 10  1  0
  1 11  1  0
  1 12  1  0
  3 13  1  0
  4 14  1  0
  5 15  1  0
  6 16  1  0
  7 17  1  0
  7 18  1  0
  9 19  1  0
M  END
