
     RDKit          3D

 23 24  0  0  0  0  0  0  0  0999 V2000
   -1.7044    1.6749   -0.0002 C   0  0  0  0  0  0  0  0  0  0  0  0
   -1.2664    0.2151    0.1436 C   0  0  0  0  0  0  0  0  0  0  0  0
   -2.2746   -0.7514   -0.4187 C   0  0  0  0  0  0  0  0  0  0  0  0
   -0.9578   -0.1648    1.5167 O   0  0  0  0  0  0  0  0  0  0  0  0
    0.0020   -0.1313    0.4856 C   0  0  0  0  0  0  0  0  0  0  0  0
    0.6639   -1.4268    0.0813 C   0  0  0  0  0  0  0  0  0  0  0  0
    1.8456   -0.9178   -0.7486 C   0  0  0  0  0  0  0  0  0  0  0  0
    2.3066    0.3432   -0.0886 C   0  0  0  0  0  0  0  0  0  0  0  0
    1.1570    0.7555    0.7866 C   0  0  0  0  0  0  0  0  0  0  0  0
   -2.4283    1.9358    0.7810 H   0  0  0  0  0  0  0  0  0  0  0  0
   -0.8699    2.3714    0.0303 H   0  0  0  0  0  0  0  0  0  0  0  0
   -2.1467    1.7422   -1.0250 H   0  0  0  0  0  0  0  0  0  0  0  0
   -3.1769   -0.6844    0.2587 H   0  0  0  0  0  0  0  0  0  0  0  0
   -2.6474   -0.4381   -1.4140 H   0  0  0  0  0  0  0  0  0  0  0  0
   -1.9598   -1.7969   -0.3893 H   0  0  0  0  0  0  0  0  0  0  0  0
    0.0558   -2.0340   -0.5956 H   0  0  0  0  0  0  0  0  0  0  0  0
    1.0370   -2.0124    0.9256 H   0  0  0  0  0  0  0  0  0  0  0  0
    2.6188   -1.6923   -0.7558 H   0  0  0  0  0  0  0  0  0  0  0  0
    1.5256   -0.7342   -1.8033 H   0  0  0  0  0  0  0  0  0  0  0  0
    3.2397    0.2021    0.5075 H   0  0  0  0  0  0  0  0  0  0  0  0
    2.5355    1.1628   -0.8165 H   0  0  0  0  0  0  0  0  0  0  0  0
    0.9830    1.8226    0.6833 H   0  0  0  0  0  0  0  0  0  0  0  0
    1.4618    0.5589    1.8555 H   0  0  0  0  0  0  0  0  0  0  0  0
  1  2  1  0
  2  3  1  0
  2  4  1  0
  4  5  1  0
  5  6  1  0
  6  7  1  0
  7  8  1  0
  8  9  1  0
  5  2  1  0
  9  5  1  0
  1 10  1  0
  1 11  1  0
  1 12  1  0
  3 13  1  0
  3 14  1  0
  3 15  1  0
  6 16  1  0
  6 17  1  0
  7 18  1  0
  7 19  1  0
  8 20  1  0
  8 21  1  0
  9 22  1  0
  9 23  1  0
M  END
