
     RDKit          3D

 22 22  0  0  0  0  0  0  0  0999 V2000
   -1.8840   -0.2074   -1.0027 C   0  0  0  0  0  0  0  0  0  0  0  0
   -0.7228    0.0078   -0.0795 C   0  0  0  0  0  0  0  0  0  0  0  0
   -1.2519    0.3943    1.2905 C   0  0  0  0  0  0  0  0  0  0  0  0
    0.1565    1.1319   -0.5785 C   0  0  0  0  0  0  0  0  0  0  0  0
    1.4911    0.7791    0.0316 C   0  0  0  0  0  0  0  0  0  0  0  0
    1.5275   -0.7167   -0.1109 C   0  0  0  0  0  0  0  0  0  0  0  0
    2.3378   -1.2033    0.9311 O   0  0  0  0  0  0  0  0  0  0  0  0
    0.1289   -1.2261   -0.0423 C   0  0  0  0  0  0  0  0  0  0  0  0
   -2.2937    0.7804   -1.3245 H   0  0  0  0  0  0  0  0  0  0  0  0
   -1.5314   -0.8056   -1.8649 H   0  0  0  0  0  0  0  0  0  0  0  0
   -2.6891   -0.6992   -0.4279 H   0  0  0  0  0  0  0  0  0  0  0  0
   -1.3601    1.5055    1.2736 H   0  0  0  0  0  0  0  0  0  0  0  0
   -0.5530    0.0756    2.0811 H   0  0  0  0  0  0  0  0  0  0  0  0
   -2.2632   -0.0377    1.3815 H   0  0  0  0  0  0  0  0  0  0  0  0
   -0.1829    2.0994   -0.1391 H   0  0  0  0  0  0  0  0  0  0  0  0
    0.1734    1.1592   -1.6736 H   0  0  0  0  0  0  0  0  0  0  0  0
    2.3436    1.1964   -0.5288 H   0  0  0  0  0  0  0  0  0  0  0  0
    1.5108    1.1174    1.0945 H   0  0  0  0  0  0  0  0  0  0  0  0
    2.0641   -0.9985   -1.0515 H   0  0  0  0  0  0  0  0  0  0  0  0
    3.1782   -0.6553    0.8690 H   0  0  0  0  0  0  0  0  0  0  0  0
   -0.0893   -1.8338   -0.9554 H   0  0  0  0  0  0  0  0  0  0  0  0
   -0.0904   -1.8638    0.8266 H   0  0  0  0  0  0  0  0  0  0  0  0
  1  2  1  0
  2  3  1  0
  2  4  1  0
  4  5  1  0
  5  6  1  0
  6  7  1  0
  6  8  1  0
  8  2  1  0
  1  9  1  0
  1 10  1  0
  1 11  1  0
  3 12  1  0
  3 13  1  0
  3 14  1  0
  4 15  1  0
  4 16  1  0
  5 17  1  0
  5 18  1  0
  6 19  1  0
  7 20  1  0
  8 21  1  0
  8 22  1  0
M  END
