
     RDKit          3D

 21 22  0  0  0  0  0  0  0  0999 V2000
   -1.6530   -0.5406   -0.9081 C   0  0  0  0  0  0  0  0  0  0  0  0
   -0.6472    0.0454    0.0021 C   0  0  0  0  0  0  0  0  0  0  0  0
   -0.6987    1.5459    0.0759 C   0  0  0  0  0  0  0  0  0  0  0  0
   -0.6952   -0.6489    1.3729 C   0  0  0  0  0  0  0  0  0  0  0  0
    0.2395   -1.5657    0.8325 O   0  0  0  0  0  0  0  0  0  0  0  0
    0.6953   -0.5280    0.0729 C   0  0  0  0  0  0  0  0  0  0  0  0
    1.7890    0.3200    0.6115 C   0  0  0  0  0  0  0  0  0  0  0  0
    2.6551   -0.3110   -0.3048 O   0  0  0  0  0  0  0  0  0  0  0  0
    1.5448   -0.7345   -1.0752 C   0  0  0  0  0  0  0  0  0  0  0  0
   -1.4162   -1.5680   -1.2628 H   0  0  0  0  0  0  0  0  0  0  0  0
   -2.6269   -0.6434   -0.3564 H   0  0  0  0  0  0  0  0  0  0  0  0
   -1.8231    0.1357   -1.7841 H   0  0  0  0  0  0  0  0  0  0  0  0
   -0.2725    1.9129    1.0400 H   0  0  0  0  0  0  0  0  0  0  0  0
   -0.1894    2.0078   -0.7945 H   0  0  0  0  0  0  0  0  0  0  0  0
   -1.7608    1.8820    0.0415 H   0  0  0  0  0  0  0  0  0  0  0  0
   -0.1909   -0.0063    2.1214 H   0  0  0  0  0  0  0  0  0  0  0  0
   -1.6532   -1.0827    1.6369 H   0  0  0  0  0  0  0  0  0  0  0  0
    1.6187    1.3842    0.4036 H   0  0  0  0  0  0  0  0  0  0  0  0
    1.9930    0.0773    1.6728 H   0  0  0  0  0  0  0  0  0  0  0  0
    1.4042    0.0415   -1.8797 H   0  0  0  0  0  0  0  0  0  0  0  0
    1.6876   -1.7235   -1.5187 H   0  0  0  0  0  0  0  0  0  0  0  0
  1  2  1  0
  2  3  1  0
  2  4  1  0
  4  5  1  0
  5  6  1  0
  6  7  1  0
  7  8  1  0
  8  9  1  0
  6  2  1  0
  9  6  1  0
  1 10  1  0
  1 11  1  0
  1 12  1  0
  3 13  1  0
  3 14  1  0
  3 15  1  0
  4 16  1  0
  4 17  1  0
  7 18  1  0
  7 19  1  0
  9 20  1  0
  9 21  1  0
M  END
