
     RDKit          3D

 19 19  0  0  0  0  0  0  0  0999 V2000
    0.2381    1.8164    0.8018 C   0  0  0  0  0  0  0  0  0  0  0  0
    0.2602    0.5704   -0.0945 C   0  0  0  0  0  0  0  0  0  0  0  0
    1.5078   -0.2704    0.0696 C   0  0  0  0  0  0  0  0  0  0  0  0
    1.6357   -1.3030   -0.7968 O   0  0  0  0  0  0  0  0  0  0  0  0
   -0.5420    0.5096   -1.2969 C   0  0  0  0  0  0  0  0  0  0  0  0
   -0.9855   -0.2658   -0.0802 C   0  0  0  0  0  0  0  0  0  0  0  0
   -2.1198    0.2245    0.5743 O   0  0  0  0  0  0  0  0  0  0  0  0
   -0.9601   -1.7458   -0.1272 C   0  0  0  0  0  0  0  0  0  0  0  0
   -0.1784   -2.5228    0.2453 O   0  0  0  0  0  0  0  0  0  0  0  0
    1.2023    2.0062    1.2432 H   0  0  0  0  0  0  0  0  0  0  0  0
    0.0842    2.6508    0.0369 H   0  0  0  0  0  0  0  0  0  0  0  0
   -0.6459    1.8203    1.4174 H   0  0  0  0  0  0  0  0  0  0  0  0
    1.3391   -0.7567    1.1046 H   0  0  0  0  0  0  0  0  0  0  0  0
    2.3789    0.3841    0.2537 H   0  0  0  0  0  0  0  0  0  0  0  0
    2.3021   -1.9381   -0.4690 H   0  0  0  0  0  0  0  0  0  0  0  0
   -1.1591    1.4117   -1.5424 H   0  0  0  0  0  0  0  0  0  0  0  0
   -0.3137   -0.0951   -2.1800 H   0  0  0  0  0  0  0  0  0  0  0  0
   -2.1238   -0.3034    1.4623 H   0  0  0  0  0  0  0  0  0  0  0  0
   -1.9203   -2.1930   -0.6222 H   0  0  0  0  0  0  0  0  0  0  0  0
  1  2  1  0
  2  3  1  0
  3  4  1  0
  2  5  1  0
  5  6  1  0
  6  7  1  0
  6  8  1  0
  8  9  2  0
  6  2  1  0
  1 10  1  0
  1 11  1  0
  1 12  1  0
  3 13  1  0
  3 14  1  0
  4 15  1  0
  5 16  1  0
  5 17  1  0
  7 18  1  0
  8 19  1  0
M  END
