
     RDKit          3D

 16 16  0  0  0  0  0  0  0  0999 V2000
   -0.5089   -1.3951   -0.2077 C   0  0  0  0  0  0  0  0  0  0  0  0
   -0.4945   -0.0253    0.4259 C   0  0  0  0  0  0  0  0  0  0  0  0
   -1.2747    0.1116    1.5643 O   0  0  0  0  0  0  0  0  0  0  0  0
   -0.6716    1.0934   -0.5591 C   0  0  0  0  0  0  0  0  0  0  0  0
    0.3298    1.7940    0.0871 O   0  0  0  0  0  0  0  0  0  0  0  0
    0.8561    0.6091    0.5776 C   0  0  0  0  0  0  0  0  0  0  0  0
    1.9190    0.0986   -0.2970 C   0  0  0  0  0  0  0  0  0  0  0  0
    2.3088    0.6195   -1.3196 O   0  0  0  0  0  0  0  0  0  0  0  0
   -1.5551   -1.7847   -0.1056 H   0  0  0  0  0  0  0  0  0  0  0  0
    0.1435   -2.1151    0.2845 H   0  0  0  0  0  0  0  0  0  0  0  0
   -0.3129   -1.3399   -1.3029 H   0  0  0  0  0  0  0  0  0  0  0  0
   -2.2206    0.0679    1.2846 H   0  0  0  0  0  0  0  0  0  0  0  0
   -1.6709    1.5752   -0.4423 H   0  0  0  0  0  0  0  0  0  0  0  0
   -0.4819    0.8293   -1.6095 H   0  0  0  0  0  0  0  0  0  0  0  0
    1.2289    0.6967    1.6229 H   0  0  0  0  0  0  0  0  0  0  0  0
    2.4050   -0.8350   -0.0030 H   0  0  0  0  0  0  0  0  0  0  0  0
  1  2  1  0
  2  3  1  0
  2  4  1  0
  4  5  1  0
  5  6  1  0
  6  7  1  0
  7  8  2  0
  6  2  1  0
  1  9  1  0
  1 10  1  0
  1 11  1  0
  3 12  1  0
  4 13  1  0
  4 14  1  0
  6 15  1  0
  7 16  1  0
M  END
