
     RDKit          3D

 23 24  0  0  0  0  0  0  0  0999 V2000
   -1.8386    1.1611    0.9061 C   0  0  0  0  0  0  0  0  0  0  0  0
   -1.2099    0.1350   -0.0542 C   0  0  0  0  0  0  0  0  0  0  0  0
   -2.2982   -0.5950   -0.8328 C   0  0  0  0  0  0  0  0  0  0  0  0
   -0.0496    0.5636   -0.7204 C   0  0  0  0  0  0  0  0  0  0  0  0
    1.2797    1.0509   -0.2970 C   0  0  0  0  0  0  0  0  0  0  0  0
    2.0663   -0.2758   -0.3760 C   0  0  0  0  0  0  0  0  0  0  0  0
    2.7972   -0.3459   -1.5383 O   0  0  0  0  0  0  0  0  0  0  0  0
    0.9787   -1.3720   -0.3231 C   0  0  0  0  0  0  0  0  0  0  0  0
   -0.0885   -0.5961    0.3575 C   0  0  0  0  0  0  0  0  0  0  0  0
   -2.0093    2.0994    0.3361 H   0  0  0  0  0  0  0  0  0  0  0  0
   -1.0557    1.3858    1.6727 H   0  0  0  0  0  0  0  0  0  0  0  0
   -2.7210    0.7667    1.4071 H   0  0  0  0  0  0  0  0  0  0  0  0
   -2.2501   -0.2857   -1.9171 H   0  0  0  0  0  0  0  0  0  0  0  0
   -2.1294   -1.6811   -0.7476 H   0  0  0  0  0  0  0  0  0  0  0  0
   -3.3090   -0.3826   -0.5003 H   0  0  0  0  0  0  0  0  0  0  0  0
    0.0332    0.2146   -1.7975 H   0  0  0  0  0  0  0  0  0  0  0  0
    1.2174    1.4072    0.7487 H   0  0  0  0  0  0  0  0  0  0  0  0
    1.6807    1.7916   -0.9904 H   0  0  0  0  0  0  0  0  0  0  0  0
    2.6866   -0.3011    0.5457 H   0  0  0  0  0  0  0  0  0  0  0  0
    3.7346   -0.6095   -1.2682 H   0  0  0  0  0  0  0  0  0  0  0  0
    1.3889   -2.1734    0.3066 H   0  0  0  0  0  0  0  0  0  0  0  0
    0.7835   -1.6484   -1.3595 H   0  0  0  0  0  0  0  0  0  0  0  0
    0.3126   -0.3095    1.3821 H   0  0  0  0  0  0  0  0  0  0  0  0
  1  2  1  0
  2  3  1  0
  2  4  1  0
  4  5  1  0
  5  6  1  0
  6  7  1  0
  6  8  1  0
  8  9  1  0
  9  2  1  0
  9  4  1  0
  1 10  1  0
  1 11  1  0
  1 12  1  0
  3 13  1  0
  3 14  1  0
  3 15  1  0
  4 16  1  0
  5 17  1  0
  5 18  1  0
  6 19  1  0
  7 20  1  0
  8 21  1  0
  8 22  1  0
  9 23  1  0
M  END
