
     RDKit          3D

 21 23  0  0  0  0  0  0  0  0999 V2000
    1.5187   -0.7523   -0.8214 C   0  0  0  0  0  0  0  0  0  0  0  0
    0.5506    0.1816   -0.1635 C   0  0  0  0  0  0  0  0  0  0  0  0
    1.3335    1.2670    0.5900 C   0  0  0  0  0  0  0  0  0  0  0  0
   -0.4985    0.7922   -1.0142 C   0  0  0  0  0  0  0  0  0  0  0  0
   -1.8459    0.2430   -1.2174 C   0  0  0  0  0  0  0  0  0  0  0  0
   -1.4526    0.5421    0.1775 C   0  0  0  0  0  0  0  0  0  0  0  0
   -0.4562   -0.4124    0.7478 C   0  0  0  0  0  0  0  0  0  0  0  0
   -0.6111   -1.6974    1.1700 C   0  0  0  0  0  0  0  0  0  0  0  0
   -0.2657   -0.5733    2.0837 O   0  0  0  0  0  0  0  0  0  0  0  0
    1.1316   -1.7435   -1.0386 H   0  0  0  0  0  0  0  0  0  0  0  0
    2.3694   -0.8957   -0.0951 H   0  0  0  0  0  0  0  0  0  0  0  0
    1.9725   -0.2720   -1.7077 H   0  0  0  0  0  0  0  0  0  0  0  0
    0.6633    2.1635    0.6977 H   0  0  0  0  0  0  0  0  0  0  0  0
    1.4847    0.8886    1.6212 H   0  0  0  0  0  0  0  0  0  0  0  0
    2.2566    1.5346    0.0705 H   0  0  0  0  0  0  0  0  0  0  0  0
   -0.3273    1.8233   -1.3298 H   0  0  0  0  0  0  0  0  0  0  0  0
   -2.6061    0.8894   -1.6564 H   0  0  0  0  0  0  0  0  0  0  0  0
   -2.0171   -0.8423   -1.4382 H   0  0  0  0  0  0  0  0  0  0  0  0
   -1.7436    1.4587    0.7009 H   0  0  0  0  0  0  0  0  0  0  0  0
   -1.6148   -2.1143    1.4801 H   0  0  0  0  0  0  0  0  0  0  0  0
    0.1579   -2.4809    1.1430 H   0  0  0  0  0  0  0  0  0  0  0  0
  1  2  1  0
  2  3  1  0
  2  4  1  0
  4  5  1  0
  5  6  1  0
  6  7  1  0
  7  8  1  0
  8  9  1  0
  7  2  1  0
  6  4  1  0
  9  7  1  0
  1 10  1  0
  1 11  1  0
  1 12  1  0
  3 13  1  0
  3 14  1  0
  3 15  1  0
  4 16  1  0
  5 17  1  0
  5 18  1  0
  6 19  1  0
  8 20  1  0
  8 21  1  0
M  END
