
     RDKit          3D

 17 18  0  0  0  0  0  0  0  0999 V2000
   -0.8269    1.1709    0.6711 C   0  0  0  0  0  0  0  0  0  0  0  0
   -0.8212   -0.1947    0.0634 C   0  0  0  0  0  0  0  0  0  0  0  0
    0.4167   -0.9177   -0.3006 C   0  0  0  0  0  0  0  0  0  0  0  0
    0.8232   -0.5369   -1.6827 O   0  0  0  0  0  0  0  0  0  0  0  0
    1.7227   -0.4299   -0.5233 C   0  0  0  0  0  0  0  0  0  0  0  0
    2.2273    0.9251   -0.3928 C   0  0  0  0  0  0  0  0  0  0  0  0
    3.4120    1.1453   -0.3716 O   0  0  0  0  0  0  0  0  0  0  0  0
   -2.0524   -1.0337    0.4331 C   0  0  0  0  0  0  0  0  0  0  0  0
   -1.9566   -0.4740   -0.8225 O   0  0  0  0  0  0  0  0  0  0  0  0
   -0.0341    1.2729    1.4047 H   0  0  0  0  0  0  0  0  0  0  0  0
   -0.8178    1.9648   -0.1193 H   0  0  0  0  0  0  0  0  0  0  0  0
   -1.7944    1.3605    1.2233 H   0  0  0  0  0  0  0  0  0  0  0  0
    0.2721   -2.0407   -0.3569 H   0  0  0  0  0  0  0  0  0  0  0  0
    2.5445   -1.2053   -0.6075 H   0  0  0  0  0  0  0  0  0  0  0  0
    1.5501    1.7521   -0.3135 H   0  0  0  0  0  0  0  0  0  0  0  0
   -2.7611   -0.6293    1.1694 H   0  0  0  0  0  0  0  0  0  0  0  0
   -1.9040   -2.1292    0.5257 H   0  0  0  0  0  0  0  0  0  0  0  0
  1  2  1  0
  2  3  1  0
  3  4  1  0
  4  5  1  0
  5  6  1  0
  6  7  2  0
  2  8  1  0
  8  9  1  0
  9  2  1  0
  5  3  1  0
  1 10  1  0
  1 11  1  0
  1 12  1  0
  3 13  1  0
  5 14  1  0
  6 15  1  0
  8 16  1  0
  8 17  1  0
M  END
