
     RDKit          3D

 21 21  0  0  0  0  0  0  0  0999 V2000
   -0.7849   -0.9758   -0.9070 C   0  0  0  0  0  0  0  0  0  0  0  0
   -0.5451    0.0049    0.2012 C   0  0  0  0  0  0  0  0  0  0  0  0
   -1.8717    0.4221    0.8468 C   0  0  0  0  0  0  0  0  0  0  0  0
   -2.7432    0.9539   -0.1147 O   0  0  0  0  0  0  0  0  0  0  0  0
    0.1319    1.2487   -0.2604 C   0  0  0  0  0  0  0  0  0  0  0  0
    1.4347    1.2074   -0.5100 C   0  0  0  0  0  0  0  0  0  0  0  0
    2.0915   -0.1108   -0.2957 C   0  0  0  0  0  0  0  0  0  0  0  0
    1.5269   -0.8151    0.8873 C   0  0  0  0  0  0  0  0  0  0  0  0
    0.2390   -0.5032    1.2255 O   0  0  0  0  0  0  0  0  0  0  0  0
   -0.3512   -0.6588   -1.8814 H   0  0  0  0  0  0  0  0  0  0  0  0
   -0.3514   -1.9461   -0.6080 H   0  0  0  0  0  0  0  0  0  0  0  0
   -1.8889   -1.1121   -1.0913 H   0  0  0  0  0  0  0  0  0  0  0  0
   -1.6763    1.2226    1.5761 H   0  0  0  0  0  0  0  0  0  0  0  0
   -2.3401   -0.4202    1.3739 H   0  0  0  0  0  0  0  0  0  0  0  0
   -3.4754    0.2989   -0.3284 H   0  0  0  0  0  0  0  0  0  0  0  0
   -0.3785    2.1887   -0.4051 H   0  0  0  0  0  0  0  0  0  0  0  0
    1.9903    2.0912   -0.8527 H   0  0  0  0  0  0  0  0  0  0  0  0
    3.1984    0.0599   -0.2130 H   0  0  0  0  0  0  0  0  0  0  0  0
    1.9604   -0.6880   -1.2367 H   0  0  0  0  0  0  0  0  0  0  0  0
    1.6634   -1.9353    0.8214 H   0  0  0  0  0  0  0  0  0  0  0  0
    2.1702   -0.5331    1.7721 H   0  0  0  0  0  0  0  0  0  0  0  0
  1  2  1  0
  2  3  1  0
  3  4  1  0
  2  5  1  0
  5  6  2  0
  6  7  1  0
  7  8  1  0
  8  9  1  0
  9  2  1  0
  1 10  1  0
  1 11  1  0
  1 12  1  0
  3 13  1  0
  3 14  1  0
  4 15  1  0
  5 16  1  0
  6 17  1  0
  7 18  1  0
  7 19  1  0
  8 20  1  0
  8 21  1  0
M  END
