
     RDKit          3D

 23 24  0  0  0  0  0  0  0  0999 V2000
   -1.9961   -0.5443   -0.9899 C   0  0  0  0  0  0  0  0  0  0  0  0
   -1.0653    0.0758    0.0648 C   0  0  0  0  0  0  0  0  0  0  0  0
   -1.9488    0.6912    0.9845 O   0  0  0  0  0  0  0  0  0  0  0  0
   -0.2958    1.1506   -0.5985 C   0  0  0  0  0  0  0  0  0  0  0  0
    0.9116    1.4926    0.2060 C   0  0  0  0  0  0  0  0  0  0  0  0
    1.8243    0.3213    0.2533 C   0  0  0  0  0  0  0  0  0  0  0  0
    1.7793   -0.8138   -0.6564 C   0  0  0  0  0  0  0  0  0  0  0  0
    1.1786   -0.8807    0.7183 C   0  0  0  0  0  0  0  0  0  0  0  0
   -0.2922   -0.9468    0.7942 C   0  0  0  0  0  0  0  0  0  0  0  0
   -2.8872   -0.9891   -0.4768 H   0  0  0  0  0  0  0  0  0  0  0  0
   -2.3186    0.2210   -1.7204 H   0  0  0  0  0  0  0  0  0  0  0  0
   -1.3990   -1.3199   -1.5201 H   0  0  0  0  0  0  0  0  0  0  0  0
   -1.6112    0.6011    1.9073 H   0  0  0  0  0  0  0  0  0  0  0  0
   -0.0378    0.9248   -1.6499 H   0  0  0  0  0  0  0  0  0  0  0  0
   -0.9356    2.0808   -0.6388 H   0  0  0  0  0  0  0  0  0  0  0  0
    0.5597    1.6838    1.2616 H   0  0  0  0  0  0  0  0  0  0  0  0
    1.3761    2.4362   -0.1210 H   0  0  0  0  0  0  0  0  0  0  0  0
    2.8334    0.5885    0.6889 H   0  0  0  0  0  0  0  0  0  0  0  0
    1.0912   -0.9095   -1.5114 H   0  0  0  0  0  0  0  0  0  0  0  0
    2.7033   -1.4166   -0.7775 H   0  0  0  0  0  0  0  0  0  0  0  0
    1.7113   -1.4745    1.5080 H   0  0  0  0  0  0  0  0  0  0  0  0
   -0.5988   -1.9585    0.3881 H   0  0  0  0  0  0  0  0  0  0  0  0
   -0.5827   -1.0140    1.8858 H   0  0  0  0  0  0  0  0  0  0  0  0
  1  2  1  0
  2  3  1  0
  2  4  1  0
  4  5  1  0
  5  6  1  0
  6  7  1  0
  7  8  1  0
  8  9  1  0
  9  2  1  0
  8  6  1  0
  1 10  1  0
  1 11  1  0
  1 12  1  0
  3 13  1  0
  4 14  1  0
  4 15  1  0
  5 16  1  0
  5 17  1  0
  6 18  1  0
  7 19  1  0
  7 20  1  0
  8 21  1  0
  9 22  1  0
  9 23  1  0
M  END
