
     RDKit          3D

 21 22  0  0  0  0  0  0  0  0999 V2000
    2.3348    0.9895    0.3504 C   0  0  0  0  0  0  0  0  0  0  0  0
    1.2853    0.1858   -0.3176 C   0  0  0  0  0  0  0  0  0  0  0  0
    1.5899   -0.2427   -1.5983 O   0  0  0  0  0  0  0  0  0  0  0  0
    0.7662   -1.0139    0.5224 C   0  0  0  0  0  0  0  0  0  0  0  0
   -0.4694   -0.8094   -0.3114 C   0  0  0  0  0  0  0  0  0  0  0  0
   -1.8088   -0.9039    0.3423 C   0  0  0  0  0  0  0  0  0  0  0  0
   -2.4221    0.4359   -0.0738 C   0  0  0  0  0  0  0  0  0  0  0  0
   -1.2341    1.3660   -0.1212 C   0  0  0  0  0  0  0  0  0  0  0  0
   -0.1114    0.6780   -0.2141 C   0  0  0  0  0  0  0  0  0  0  0  0
    2.9616    1.4687   -0.4571 H   0  0  0  0  0  0  0  0  0  0  0  0
    3.0378    0.3015    0.8786 H   0  0  0  0  0  0  0  0  0  0  0  0
    1.9752    1.7704    1.0310 H   0  0  0  0  0  0  0  0  0  0  0  0
    2.0753   -1.1020   -1.5119 H   0  0  0  0  0  0  0  0  0  0  0  0
    1.3275   -1.9332    0.3649 H   0  0  0  0  0  0  0  0  0  0  0  0
    0.6210   -0.6854    1.5788 H   0  0  0  0  0  0  0  0  0  0  0  0
   -0.3788   -1.2073   -1.3241 H   0  0  0  0  0  0  0  0  0  0  0  0
   -2.3508   -1.7577   -0.1049 H   0  0  0  0  0  0  0  0  0  0  0  0
   -1.7896   -1.0402    1.4310 H   0  0  0  0  0  0  0  0  0  0  0  0
   -3.1628    0.7400    0.6642 H   0  0  0  0  0  0  0  0  0  0  0  0
   -2.8773    0.3222   -1.0499 H   0  0  0  0  0  0  0  0  0  0  0  0
   -1.3695    2.4379   -0.0795 H   0  0  0  0  0  0  0  0  0  0  0  0
  1  2  1  0
  2  3  1  0
  2  4  1  0
  4  5  1  0
  5  6  1  0
  6  7  1  0
  7  8  1  0
  8  9  2  0
  9  2  1  0
  9  5  1  0
  1 10  1  0
  1 11  1  0
  1 12  1  0
  3 13  1  0
  4 14  1  0
  4 15  1  0
  5 16  1  0
  6 17  1  0
  6 18  1  0
  7 19  1  0
  7 20  1  0
  8 21  1  0
M  END
