
     RDKit          3D

 19 19  0  0  0  0  0  0  0  0999 V2000
    1.9449   -0.6603    0.0716 C   0  0  0  0  0  0  0  0  0  0  0  0
    0.5677   -0.3318   -0.4633 C   0  0  0  0  0  0  0  0  0  0  0  0
    0.2626   -0.9341   -1.6581 O   0  0  0  0  0  0  0  0  0  0  0  0
    0.0885    1.1153   -0.3316 C   0  0  0  0  0  0  0  0  0  0  0  0
    1.0587    1.9828    0.1953 O   0  0  0  0  0  0  0  0  0  0  0  0
   -0.4480    0.0489    0.5353 C   0  0  0  0  0  0  0  0  0  0  0  0
   -0.0415    0.1308    1.8820 O   0  0  0  0  0  0  0  0  0  0  0  0
   -1.8210   -0.5182    0.3679 C   0  0  0  0  0  0  0  0  0  0  0  0
   -2.2448   -0.6109   -0.9304 O   0  0  0  0  0  0  0  0  0  0  0  0
    2.1573    0.0255    0.9243 H   0  0  0  0  0  0  0  0  0  0  0  0
    2.7006   -0.5932   -0.7149 H   0  0  0  0  0  0  0  0  0  0  0  0
    1.8936   -1.6856    0.5087 H   0  0  0  0  0  0  0  0  0  0  0  0
    0.2309   -1.9059   -1.6442 H   0  0  0  0  0  0  0  0  0  0  0  0
   -0.4627    1.5559   -1.1694 H   0  0  0  0  0  0  0  0  0  0  0  0
    0.9854    2.8971   -0.1722 H   0  0  0  0  0  0  0  0  0  0  0  0
   -0.6275    0.8226    2.2859 H   0  0  0  0  0  0  0  0  0  0  0  0
   -1.8292   -1.5175    0.8745 H   0  0  0  0  0  0  0  0  0  0  0  0
   -2.5779    0.0943    0.9296 H   0  0  0  0  0  0  0  0  0  0  0  0
   -1.8375    0.0842   -1.4909 H   0  0  0  0  0  0  0  0  0  0  0  0
  1  2  1  0
  2  3  1  0
  2  4  1  0
  4  5  1  0
  4  6  1  0
  6  7  1  0
  6  8  1  0
  8  9  1  0
  6  2  1  0
  1 10  1  0
  1 11  1  0
  1 12  1  0
  3 13  1  0
  4 14  1  0
  5 15  1  0
  7 16  1  0
  8 17  1  0
  8 18  1  0
  9 19  1  0
M  END
