
     RDKit          3D

 20 21  0  0  0  0  0  0  0  0999 V2000
   -2.0130   -1.0493   -0.3213 C   0  0  0  0  0  0  0  0  0  0  0  0
   -0.7489   -0.3233    0.0765 C   0  0  0  0  0  0  0  0  0  0  0  0
   -0.8837    0.5276    1.3009 C   0  0  0  0  0  0  0  0  0  0  0  0
    0.0224    0.3727   -1.0604 C   0  0  0  0  0  0  0  0  0  0  0  0
    0.9415    1.4754   -0.6525 C   0  0  0  0  0  0  0  0  0  0  0  0
    1.9570    0.9763    0.0405 C   0  0  0  0  0  0  0  0  0  0  0  0
    1.8494   -0.4915    0.1816 C   0  0  0  0  0  0  0  0  0  0  0  0
    0.5122   -0.8726   -0.3997 C   0  0  0  0  0  0  0  0  0  0  0  0
   -2.4031   -0.6019   -1.2682 H   0  0  0  0  0  0  0  0  0  0  0  0
   -1.7305   -2.1236   -0.4896 H   0  0  0  0  0  0  0  0  0  0  0  0
   -2.7922   -0.9955    0.4743 H   0  0  0  0  0  0  0  0  0  0  0  0
   -1.2284   -0.0653    2.1735 H   0  0  0  0  0  0  0  0  0  0  0  0
   -1.6571    1.3194    1.0727 H   0  0  0  0  0  0  0  0  0  0  0  0
    0.0234    1.0740    1.5832 H   0  0  0  0  0  0  0  0  0  0  0  0
   -0.4089    0.3584   -2.0639 H   0  0  0  0  0  0  0  0  0  0  0  0
    0.7525    2.5098   -0.9143 H   0  0  0  0  0  0  0  0  0  0  0  0
    2.7664    1.5618    0.4542 H   0  0  0  0  0  0  0  0  0  0  0  0
    1.9121   -0.8461    1.2235 H   0  0  0  0  0  0  0  0  0  0  0  0
    2.6464   -1.0115   -0.4188 H   0  0  0  0  0  0  0  0  0  0  0  0
    0.4824   -1.7951   -0.9921 H   0  0  0  0  0  0  0  0  0  0  0  0
  1  2  1  0
  2  3  1  0
  2  4  1  0
  4  5  1  0
  5  6  2  0
  6  7  1  0
  7  8  1  0
  8  2  1  0
  8  4  1  0
  1  9  1  0
  1 10  1  0
  1 11  1  0
  3 12  1  0
  3 13  1  0
  3 14  1  0
  4 15  1  0
  5 16  1  0
  6 17  1  0
  7 18  1  0
  7 19  1  0
  8 20  1  0
M  END
