
     RDKit          3D

 16 17  0  0  0  0  0  0  0  0999 V2000
   -1.7334    0.1573   -0.6392 C   0  0  0  0  0  0  0  0  0  0  0  0
   -0.6940    0.1119    0.4665 C   0  0  0  0  0  0  0  0  0  0  0  0
   -1.1142    0.5383    1.7182 O   0  0  0  0  0  0  0  0  0  0  0  0
    0.3854   -0.8947    0.4587 C   0  0  0  0  0  0  0  0  0  0  0  0
    0.6759   -1.4433   -0.7946 O   0  0  0  0  0  0  0  0  0  0  0  0
    1.3906   -0.2555   -1.0575 C   0  0  0  0  0  0  0  0  0  0  0  0
    0.6821    0.4871    0.0275 C   0  0  0  0  0  0  0  0  0  0  0  0
    1.3577    1.3849    0.8372 O   0  0  0  0  0  0  0  0  0  0  0  0
   -2.4823    0.9388   -0.3565 H   0  0  0  0  0  0  0  0  0  0  0  0
   -2.2733   -0.7982   -0.7385 H   0  0  0  0  0  0  0  0  0  0  0  0
   -1.3044    0.4702   -1.6083 H   0  0  0  0  0  0  0  0  0  0  0  0
   -1.6908   -0.1167    2.1854 H   0  0  0  0  0  0  0  0  0  0  0  0
    0.7997   -1.3249    1.3670 H   0  0  0  0  0  0  0  0  0  0  0  0
    1.2691    0.1348   -2.0824 H   0  0  0  0  0  0  0  0  0  0  0  0
    2.4722   -0.4785   -0.8794 H   0  0  0  0  0  0  0  0  0  0  0  0
    2.2598    1.0884    1.0959 H   0  0  0  0  0  0  0  0  0  0  0  0
  1  2  1  0
  2  3  1  0
  2  4  1  0
  4  5  1  0
  5  6  1  0
  6  7  1  0
  7  8  1  0
  7  2  1  0
  7  4  1  0
  1  9  1  0
  1 10  1  0
  1 11  1  0
  3 12  1  0
  4 13  1  0
  6 14  1  0
  6 15  1  0
  8 16  1  0
M  END
