
     RDKit          3D

 23 24  0  0  0  0  0  0  0  0999 V2000
   -1.5261   -1.3218   -1.0872 C   0  0  0  0  0  0  0  0  0  0  0  0
   -0.8378   -0.2356   -0.2904 C   0  0  0  0  0  0  0  0  0  0  0  0
    0.6044    0.0418   -0.4891 C   0  0  0  0  0  0  0  0  0  0  0  0
    1.5704   -1.0805   -0.2137 C   0  0  0  0  0  0  0  0  0  0  0  0
    2.5222   -0.0755    0.4306 C   0  0  0  0  0  0  0  0  0  0  0  0
    1.3313    0.8789    0.4982 C   0  0  0  0  0  0  0  0  0  0  0  0
   -1.5465    0.0765    1.0055 C   0  0  0  0  0  0  0  0  0  0  0  0
   -1.6983    1.0440   -0.0912 C   0  0  0  0  0  0  0  0  0  0  0  0
   -1.0163    2.2541    0.0056 O   0  0  0  0  0  0  0  0  0  0  0  0
   -0.8438   -1.9537   -1.6569 H   0  0  0  0  0  0  0  0  0  0  0  0
   -2.2399   -0.8430   -1.7932 H   0  0  0  0  0  0  0  0  0  0  0  0
   -2.1367   -1.9799   -0.4216 H   0  0  0  0  0  0  0  0  0  0  0  0
    0.7807    0.4561   -1.5271 H   0  0  0  0  0  0  0  0  0  0  0  0
    1.2590   -1.8235    0.5239 H   0  0  0  0  0  0  0  0  0  0  0  0
    1.9470   -1.5408   -1.1382 H   0  0  0  0  0  0  0  0  0  0  0  0
    2.8600   -0.3701    1.4566 H   0  0  0  0  0  0  0  0  0  0  0  0
    3.3151    0.2072   -0.2587 H   0  0  0  0  0  0  0  0  0  0  0  0
    1.6934    1.8737    0.1030 H   0  0  0  0  0  0  0  0  0  0  0  0
    0.9509    0.9912    1.5099 H   0  0  0  0  0  0  0  0  0  0  0  0
   -2.4695   -0.4932    1.2688 H   0  0  0  0  0  0  0  0  0  0  0  0
   -0.8881    0.2511    1.8615 H   0  0  0  0  0  0  0  0  0  0  0  0
   -2.6557    1.0794   -0.6558 H   0  0  0  0  0  0  0  0  0  0  0  0
   -0.9756    2.5636    0.9595 H   0  0  0  0  0  0  0  0  0  0  0  0
  1  2  1  0
  2  3  1  0
  3  4  1  0
  4  5  1  0
  5  6  1  0
  2  7  1  0
  7  8  1  0
  8  9  1  0
  8  2  1  0
  6  3  1  0
  1 10  1  0
  1 11  1  0
  1 12  1  0
  3 13  1  0
  4 14  1  0
  4 15  1  0
  5 16  1  0
  5 17  1  0
  6 18  1  0
  6 19  1  0
  7 20  1  0
  7 21  1  0
  8 22  1  0
  9 23  1  0
M  END
