
     RDKit          3D

 21 22  0  0  0  0  0  0  0  0999 V2000
   -1.7437    0.9710    0.6481 C   0  0  0  0  0  0  0  0  0  0  0  0
   -0.6901   -0.0761    0.3018 C   0  0  0  0  0  0  0  0  0  0  0  0
   -1.3796   -1.2852   -0.2374 C   0  0  0  0  0  0  0  0  0  0  0  0
    0.0479   -0.4559    1.4150 O   0  0  0  0  0  0  0  0  0  0  0  0
    1.2641   -1.0070    0.9763 C   0  0  0  0  0  0  0  0  0  0  0  0
    1.8983   -0.1033   -0.0715 C   0  0  0  0  0  0  0  0  0  0  0  0
    1.3161    1.2733    0.0965 C   0  0  0  0  0  0  0  0  0  0  0  0
    0.2197    0.5895   -0.7280 C   0  0  0  0  0  0  0  0  0  0  0  0
    1.1559   -0.2829   -1.2420 O   0  0  0  0  0  0  0  0  0  0  0  0
   -2.0781    1.3979   -0.3379 H   0  0  0  0  0  0  0  0  0  0  0  0
   -2.6036    0.5476    1.1681 H   0  0  0  0  0  0  0  0  0  0  0  0
   -1.2814    1.7971    1.2205 H   0  0  0  0  0  0  0  0  0  0  0  0
   -0.9790   -2.2245    0.2253 H   0  0  0  0  0  0  0  0  0  0  0  0
   -1.1950   -1.3811   -1.3183 H   0  0  0  0  0  0  0  0  0  0  0  0
   -2.4889   -1.2535   -0.0765 H   0  0  0  0  0  0  0  0  0  0  0  0
    1.0701   -1.9891    0.4839 H   0  0  0  0  0  0  0  0  0  0  0  0
    1.9815   -1.1608    1.7824 H   0  0  0  0  0  0  0  0  0  0  0  0
    2.9771   -0.1829   -0.1827 H   0  0  0  0  0  0  0  0  0  0  0  0
    1.7717    2.0831   -0.4682 H   0  0  0  0  0  0  0  0  0  0  0  0
    1.0262    1.5060    1.1337 H   0  0  0  0  0  0  0  0  0  0  0  0
   -0.2892    1.2367   -1.4460 H   0  0  0  0  0  0  0  0  0  0  0  0
  1  2  1  0
  2  3  1  0
  2  4  1  0
  4  5  1  0
  5  6  1  0
  6  7  1  0
  7  8  1  0
  8  9  1  0
  8  2  1  0
  9  6  1  0
  1 10  1  0
  1 11  1  0
  1 12  1  0
  3 13  1  0
  3 14  1  0
  3 15  1  0
  5 16  1  0
  5 17  1  0
  6 18  1  0
  7 19  1  0
  7 20  1  0
  8 21  1  0
M  END
