
     RDKit          3D

 21 22  0  0  0  0  0  0  0  0999 V2000
   -1.3528    0.8018    0.9531 C   0  0  0  0  0  0  0  0  0  0  0  0
   -1.1028   -0.1995   -0.1140 C   0  0  0  0  0  0  0  0  0  0  0  0
   -2.2604   -0.4149   -0.8702 O   0  0  0  0  0  0  0  0  0  0  0  0
   -0.4855   -1.4700    0.4306 C   0  0  0  0  0  0  0  0  0  0  0  0
    0.8294   -1.0706   -0.2168 C   0  0  0  0  0  0  0  0  0  0  0  0
    1.7528   -0.3249    0.6414 C   0  0  0  0  0  0  0  0  0  0  0  0
    1.7903    0.9455    0.3085 C   0  0  0  0  0  0  0  0  0  0  0  0
    0.8881    1.2248   -0.8289 C   0  0  0  0  0  0  0  0  0  0  0  0
    0.0805   -0.0160   -0.9897 C   0  0  0  0  0  0  0  0  0  0  0  0
   -2.1397    0.3832    1.6405 H   0  0  0  0  0  0  0  0  0  0  0  0
   -1.8165    1.7274    0.5299 H   0  0  0  0  0  0  0  0  0  0  0  0
   -0.4891    1.0331    1.5835 H   0  0  0  0  0  0  0  0  0  0  0  0
   -1.9917   -1.0307   -1.6078 H   0  0  0  0  0  0  0  0  0  0  0  0
   -0.9520   -2.3831    0.0043 H   0  0  0  0  0  0  0  0  0  0  0  0
   -0.4215   -1.4684    1.5475 H   0  0  0  0  0  0  0  0  0  0  0  0
    1.2878   -1.8696   -0.8360 H   0  0  0  0  0  0  0  0  0  0  0  0
    2.3286   -0.7866    1.4512 H   0  0  0  0  0  0  0  0  0  0  0  0
    2.4186    1.7169    0.8142 H   0  0  0  0  0  0  0  0  0  0  0  0
    1.4406    1.4212   -1.7759 H   0  0  0  0  0  0  0  0  0  0  0  0
    0.2627    2.1200   -0.6248 H   0  0  0  0  0  0  0  0  0  0  0  0
   -0.0674   -0.3395   -2.0407 H   0  0  0  0  0  0  0  0  0  0  0  0
  1  2  1  0
  2  3  1  0
  2  4  1  0
  4  5  1  0
  5  6  1  0
  6  7  2  0
  7  8  1  0
  8  9  1  0
  9  2  1  0
  9  5  1  0
  1 10  1  0
  1 11  1  0
  1 12  1  0
  3 13  1  0
  4 14  1  0
  4 15  1  0
  5 16  1  0
  6 17  1  0
  7 18  1  0
  8 19  1  0
  8 20  1  0
  9 21  1  0
M  END
