
     RDKit          3D

 19 20  0  0  0  0  0  0  0  0999 V2000
    2.3009   -0.5608   -0.1587 C   0  0  0  0  0  0  0  0  0  0  0  0
    1.0661    0.3114   -0.0858 C   0  0  0  0  0  0  0  0  0  0  0  0
    1.2028    1.6221   -0.5992 O   0  0  0  0  0  0  0  0  0  0  0  0
    0.2952    0.2219    1.2559 C   0  0  0  0  0  0  0  0  0  0  0  0
   -0.2750   -0.2055   -0.0039 C   0  0  0  0  0  0  0  0  0  0  0  0
   -0.7078   -1.4580   -0.2926 O   0  0  0  0  0  0  0  0  0  0  0  0
   -2.0317   -0.9594   -0.2219 C   0  0  0  0  0  0  0  0  0  0  0  0
   -1.4771    0.3712   -0.6562 C   0  0  0  0  0  0  0  0  0  0  0  0
   -2.0232    1.4886   -0.0851 O   0  0  0  0  0  0  0  0  0  0  0  0
    3.1703    0.1159    0.0370 H   0  0  0  0  0  0  0  0  0  0  0  0
    2.3140   -1.3025    0.6774 H   0  0  0  0  0  0  0  0  0  0  0  0
    2.3945   -1.0662   -1.1385 H   0  0  0  0  0  0  0  0  0  0  0  0
    1.9315    1.5894   -1.2729 H   0  0  0  0  0  0  0  0  0  0  0  0
    0.6337   -0.5973    1.9551 H   0  0  0  0  0  0  0  0  0  0  0  0
    0.1102    1.1878    1.7465 H   0  0  0  0  0  0  0  0  0  0  0  0
   -2.3632   -1.0233    0.8239 H   0  0  0  0  0  0  0  0  0  0  0  0
   -2.6515   -1.4953   -0.9658 H   0  0  0  0  0  0  0  0  0  0  0  0
   -1.3613    0.4145   -1.7526 H   0  0  0  0  0  0  0  0  0  0  0  0
   -2.5285    1.3454    0.7375 H   0  0  0  0  0  0  0  0  0  0  0  0
  1  2  1  0
  2  3  1  0
  2  4  1  0
  4  5  1  0
  5  6  1  0
  6  7  1  0
  7  8  1  0
  8  9  1  0
  5  2  1  0
  8  5  1  0
  1 10  1  0
  1 11  1  0
  1 12  1  0
  3 13  1  0
  4 14  1  0
  4 15  1  0
  7 16  1  0
  7 17  1  0
  8 18  1  0
  9 19  1  0
M  END
