
     RDKit          3D

 21 22  0  0  0  0  0  0  0  0999 V2000
    2.0924    1.4336    0.0072 C   0  0  0  0  0  0  0  0  0  0  0  0
    1.4280    0.0854    0.0939 C   0  0  0  0  0  0  0  0  0  0  0  0
   -0.0426    0.0580    0.1129 C   0  0  0  0  0  0  0  0  0  0  0  0
   -0.8596    1.0773    0.0603 C   0  0  0  0  0  0  0  0  0  0  0  0
   -2.2840    0.6607    0.1028 C   0  0  0  0  0  0  0  0  0  0  0  0
   -2.2346   -0.7662   -0.3423 C   0  0  0  0  0  0  0  0  0  0  0  0
   -0.8816   -1.1944    0.1959 C   0  0  0  0  0  0  0  0  0  0  0  0
    2.1550   -1.1603   -0.1221 C   0  0  0  0  0  0  0  0  0  0  0  0
    2.0356   -0.6408    1.2624 O   0  0  0  0  0  0  0  0  0  0  0  0
    1.8106    1.9784    0.9558 H   0  0  0  0  0  0  0  0  0  0  0  0
    3.1749    1.3723   -0.0919 H   0  0  0  0  0  0  0  0  0  0  0  0
    1.5949    2.0137   -0.8027 H   0  0  0  0  0  0  0  0  0  0  0  0
   -0.5519    2.1102   -0.0065 H   0  0  0  0  0  0  0  0  0  0  0  0
   -2.9228    1.3081   -0.5260 H   0  0  0  0  0  0  0  0  0  0  0  0
   -2.6164    0.6642    1.1736 H   0  0  0  0  0  0  0  0  0  0  0  0
   -2.9993   -1.4072    0.1612 H   0  0  0  0  0  0  0  0  0  0  0  0
   -2.2909   -0.8791   -1.4434 H   0  0  0  0  0  0  0  0  0  0  0  0
   -0.4471   -2.0269   -0.3514 H   0  0  0  0  0  0  0  0  0  0  0  0
   -0.9640   -1.4332    1.2743 H   0  0  0  0  0  0  0  0  0  0  0  0
    3.2192   -1.1687   -0.4591 H   0  0  0  0  0  0  0  0  0  0  0  0
    1.5843   -2.0853   -0.1839 H   0  0  0  0  0  0  0  0  0  0  0  0
  1  2  1  0
  2  3  1  0
  3  4  2  0
  4  5  1  0
  5  6  1  0
  6  7  1  0
  2  8  1  0
  8  9  1  0
  9  2  1  0
  7  3  1  0
  1 10  1  0
  1 11  1  0
  1 12  1  0
  4 13  1  0
  5 14  1  0
  5 15  1  0
  6 16  1  0
  6 17  1  0
  7 18  1  0
  7 19  1  0
  8 20  1  0
  8 21  1  0
M  END
