
     RDKit          3D

 21 22  0  0  0  0  0  0  0  0999 V2000
    0.7620   -0.7341   -1.3842 C   0  0  0  0  0  0  0  0  0  0  0  0
    0.5136   -0.0702   -0.0580 C   0  0  0  0  0  0  0  0  0  0  0  0
    1.8023    0.3913    0.5488 C   0  0  0  0  0  0  0  0  0  0  0  0
   -0.1265   -1.0484    0.9059 C   0  0  0  0  0  0  0  0  0  0  0  0
   -1.5766   -0.9914    0.4995 C   0  0  0  0  0  0  0  0  0  0  0  0
   -2.3113   -0.0237    1.1668 O   0  0  0  0  0  0  0  0  0  0  0  0
   -1.8373    0.3546   -0.0686 C   0  0  0  0  0  0  0  0  0  0  0  0
   -0.5013    1.0224   -0.2154 C   0  0  0  0  0  0  0  0  0  0  0  0
   -0.3811    2.0322    0.7281 O   0  0  0  0  0  0  0  0  0  0  0  0
   -0.1795   -0.8658   -1.9576 H   0  0  0  0  0  0  0  0  0  0  0  0
    1.3897   -0.0345   -1.9925 H   0  0  0  0  0  0  0  0  0  0  0  0
    1.2812   -1.7145   -1.2794 H   0  0  0  0  0  0  0  0  0  0  0  0
    2.3062   -0.5141    0.9812 H   0  0  0  0  0  0  0  0  0  0  0  0
    2.4845    0.8656   -0.1898 H   0  0  0  0  0  0  0  0  0  0  0  0
    1.6016    1.0813    1.4021 H   0  0  0  0  0  0  0  0  0  0  0  0
    0.0401   -0.6391    1.9379 H   0  0  0  0  0  0  0  0  0  0  0  0
    0.3164   -2.0512    0.8294 H   0  0  0  0  0  0  0  0  0  0  0  0
   -2.0586   -1.8304   -0.0030 H   0  0  0  0  0  0  0  0  0  0  0  0
   -2.5832    0.4545   -0.8708 H   0  0  0  0  0  0  0  0  0  0  0  0
   -0.4175    1.4057   -1.2550 H   0  0  0  0  0  0  0  0  0  0  0  0
   -0.5248    2.9098    0.2746 H   0  0  0  0  0  0  0  0  0  0  0  0
  1  2  1  0
  2  3  1  0
  2  4  1  0
  4  5  1  0
  5  6  1  0
  6  7  1  0
  7  8  1  0
  8  9  1  0
  8  2  1  0
  7  5  1  0
  1 10  1  0
  1 11  1  0
  1 12  1  0
  3 13  1  0
  3 14  1  0
  3 15  1  0
  4 16  1  0
  4 17  1  0
  5 18  1  0
  7 19  1  0
  8 20  1  0
  9 21  1  0
M  END
