
     RDKit          3D

 21 21  0  0  0  0  0  0  0  0999 V2000
   -1.1789   -1.0258    0.7793 C   0  0  0  0  0  0  0  0  0  0  0  0
   -0.5503   -0.3876   -0.3950 C   0  0  0  0  0  0  0  0  0  0  0  0
   -0.6915   -1.2527   -1.4859 O   0  0  0  0  0  0  0  0  0  0  0  0
   -1.3970    0.8425   -0.7688 C   0  0  0  0  0  0  0  0  0  0  0  0
   -0.4651    1.6962   -1.3618 O   0  0  0  0  0  0  0  0  0  0  0  0
    0.5555    1.6749   -0.4153 C   0  0  0  0  0  0  0  0  0  0  0  0
    0.7891    0.1603   -0.2886 C   0  0  0  0  0  0  0  0  0  0  0  0
    1.6077   -0.0846    0.9099 C   0  0  0  0  0  0  0  0  0  0  0  0
    1.8023   -1.4757    1.0691 O   0  0  0  0  0  0  0  0  0  0  0  0
   -0.7467   -0.7816    1.7575 H   0  0  0  0  0  0  0  0  0  0  0  0
   -1.1558   -2.1409    0.6923 H   0  0  0  0  0  0  0  0  0  0  0  0
   -2.2560   -0.7576    0.8303 H   0  0  0  0  0  0  0  0  0  0  0  0
   -1.6625   -1.3379   -1.6592 H   0  0  0  0  0  0  0  0  0  0  0  0
   -2.2053    0.5659   -1.4693 H   0  0  0  0  0  0  0  0  0  0  0  0
   -1.7538    1.3460    0.1412 H   0  0  0  0  0  0  0  0  0  0  0  0
    0.1165    1.9843    0.5517 H   0  0  0  0  0  0  0  0  0  0  0  0
    1.4528    2.2086   -0.7080 H   0  0  0  0  0  0  0  0  0  0  0  0
    1.3883   -0.1016   -1.1907 H   0  0  0  0  0  0  0  0  0  0  0  0
    2.6256    0.3328    0.7570 H   0  0  0  0  0  0  0  0  0  0  0  0
    1.2401    0.2711    1.8596 H   0  0  0  0  0  0  0  0  0  0  0  0
    2.4851   -1.7364    0.3947 H   0  0  0  0  0  0  0  0  0  0  0  0
  1  2  1  0
  2  3  1  0
  2  4  1  0
  4  5  1  0
  5  6  1  0
  6  7  1  0
  7  8  1  0
  8  9  1  0
  7  2  1  0
  1 10  1  0
  1 11  1  0
  1 12  1  0
  3 13  1  0
  4 14  1  0
  4 15  1  0
  6 16  1  0
  6 17  1  0
  7 18  1  0
  8 19  1  0
  8 20  1  0
  9 21  1  0
M  END
