
     RDKit          3D

 23 24  0  0  0  0  0  0  0  0999 V2000
   -0.9672    1.6338    0.0142 C   0  0  0  0  0  0  0  0  0  0  0  0
   -0.6019    0.1721    0.1697 C   0  0  0  0  0  0  0  0  0  0  0  0
   -1.4279   -0.4828    1.2170 C   0  0  0  0  0  0  0  0  0  0  0  0
   -0.8110   -0.4715   -1.2165 C   0  0  0  0  0  0  0  0  0  0  0  0
    0.4404   -1.0757   -1.5222 O   0  0  0  0  0  0  0  0  0  0  0  0
    0.7721   -1.5240   -0.2771 C   0  0  0  0  0  0  0  0  0  0  0  0
    1.6615   -1.1027    0.7233 C   0  0  0  0  0  0  0  0  0  0  0  0
    0.8624   -0.0478    0.2937 C   0  0  0  0  0  0  0  0  0  0  0  0
    1.5578    0.9629   -0.6490 C   0  0  0  0  0  0  0  0  0  0  0  0
   -2.0841    1.6858    0.1610 H   0  0  0  0  0  0  0  0  0  0  0  0
   -0.8160    1.9773   -1.0470 H   0  0  0  0  0  0  0  0  0  0  0  0
   -0.4366    2.2650    0.7376 H   0  0  0  0  0  0  0  0  0  0  0  0
   -0.7563   -1.0435    1.9067 H   0  0  0  0  0  0  0  0  0  0  0  0
   -1.8958    0.3122    1.8450 H   0  0  0  0  0  0  0  0  0  0  0  0
   -2.2419   -1.1181    0.8385 H   0  0  0  0  0  0  0  0  0  0  0  0
   -1.5211   -1.3009   -1.0585 H   0  0  0  0  0  0  0  0  0  0  0  0
   -1.0994    0.2536   -1.9681 H   0  0  0  0  0  0  0  0  0  0  0  0
   -0.1058   -2.1388    0.1001 H   0  0  0  0  0  0  0  0  0  0  0  0
    2.7633   -1.1152    0.4818 H   0  0  0  0  0  0  0  0  0  0  0  0
    1.5425   -1.4848    1.7769 H   0  0  0  0  0  0  0  0  0  0  0  0
    1.0357    1.0284   -1.6123 H   0  0  0  0  0  0  0  0  0  0  0  0
    2.5954    0.7053   -0.8353 H   0  0  0  0  0  0  0  0  0  0  0  0
    1.5340    1.9093   -0.0793 H   0  0  0  0  0  0  0  0  0  0  0  0
  1  2  1  0
  2  3  1  0
  2  4  1  0
  4  5  1  0
  5  6  1  0
  6  7  1  0
  7  8  1  0
  8  9  1  0
  8  2  1  0
  8  6  1  0
  1 10  1  0
  1 11  1  0
  1 12  1  0
  3 13  1  0
  3 14  1  0
  3 15  1  0
  4 16  1  0
  4 17  1  0
  6 18  1  0
  7 19  1  0
  7 20  1  0
  9 21  1  0
  9 22  1  0
  9 23  1  0
M  END
