
     RDKit          3D

 25 26  0  0  0  0  0  0  0  0999 V2000
   -1.5675    0.4361   -1.3733 C   0  0  0  0  0  0  0  0  0  0  0  0
   -1.2568   -0.1163   -0.0238 C   0  0  0  0  0  0  0  0  0  0  0  0
    0.0337   -0.8504    0.2224 C   0  0  0  0  0  0  0  0  0  0  0  0
    1.2551   -0.0404   -0.0302 C   0  0  0  0  0  0  0  0  0  0  0  0
    1.5131    1.2275    0.7377 C   0  0  0  0  0  0  0  0  0  0  0  0
    1.9260   -0.1104   -1.4101 C   0  0  0  0  0  0  0  0  0  0  0  0
    2.5094   -0.8860   -0.3004 C   0  0  0  0  0  0  0  0  0  0  0  0
   -1.9219    0.5197    1.2050 C   0  0  0  0  0  0  0  0  0  0  0  0
   -2.4561   -0.7539    0.6791 C   0  0  0  0  0  0  0  0  0  0  0  0
   -2.6197    0.8276   -1.3367 H   0  0  0  0  0  0  0  0  0  0  0  0
   -1.5548   -0.3104   -2.1801 H   0  0  0  0  0  0  0  0  0  0  0  0
   -0.9393    1.2781   -1.6882 H   0  0  0  0  0  0  0  0  0  0  0  0
    0.0503   -1.7418   -0.4148 H   0  0  0  0  0  0  0  0  0  0  0  0
    0.0495   -1.2043    1.2738 H   0  0  0  0  0  0  0  0  0  0  0  0
    0.6966    1.5029    1.4273 H   0  0  0  0  0  0  0  0  0  0  0  0
    2.4205    1.0940    1.3988 H   0  0  0  0  0  0  0  0  0  0  0  0
    1.7331    2.0288   -0.0039 H   0  0  0  0  0  0  0  0  0  0  0  0
    2.5082    0.7812   -1.7419 H   0  0  0  0  0  0  0  0  0  0  0  0
    1.4004   -0.6278   -2.2188 H   0  0  0  0  0  0  0  0  0  0  0  0
    2.4050   -1.9768   -0.3572 H   0  0  0  0  0  0  0  0  0  0  0  0
    3.4444   -0.5676    0.2121 H   0  0  0  0  0  0  0  0  0  0  0  0
   -2.5436    1.4194    1.0509 H   0  0  0  0  0  0  0  0  0  0  0  0
   -1.3516    0.4858    2.1546 H   0  0  0  0  0  0  0  0  0  0  0  0
   -3.4343   -0.7558    0.1497 H   0  0  0  0  0  0  0  0  0  0  0  0
   -2.2997   -1.6591    1.2845 H   0  0  0  0  0  0  0  0  0  0  0  0
  1  2  1  0
  2  3  1  0
  3  4  1  0
  4  5  1  0
  4  6  1  0
  6  7  1  0
  2  8  1  0
  8  9  1  0
  9  2  1  0
  7  4  1  0
  1 10  1  0
  1 11  1  0
  1 12  1  0
  3 13  1  0
  3 14  1  0
  5 15  1  0
  5 16  1  0
  5 17  1  0
  6 18  1  0
  6 19  1  0
  7 20  1  0
  7 21  1  0
  8 22  1  0
  8 23  1  0
  9 24  1  0
  9 25  1  0
M  END
