
     RDKit          3D

 17 17  0  0  0  0  0  0  0  0999 V2000
    1.8051    0.3876   -0.5833 C   0  0  0  0  0  0  0  0  0  0  0  0
    0.5450    0.0317    0.1160 C   0  0  0  0  0  0  0  0  0  0  0  0
    0.6186    0.0927    1.4999 O   0  0  0  0  0  0  0  0  0  0  0  0
   -0.0023   -1.2960   -0.2619 C   0  0  0  0  0  0  0  0  0  0  0  0
   -1.3232   -1.2679   -0.1699 C   0  0  0  0  0  0  0  0  0  0  0  0
   -1.7663    0.1016    0.2833 C   0  0  0  0  0  0  0  0  0  0  0  0
   -0.6151    0.9359   -0.2991 C   0  0  0  0  0  0  0  0  0  0  0  0
    2.2542    1.2624   -0.0735 H   0  0  0  0  0  0  0  0  0  0  0  0
    1.6053    0.6243   -1.6329 H   0  0  0  0  0  0  0  0  0  0  0  0
    2.5335   -0.4227   -0.5449 H   0  0  0  0  0  0  0  0  0  0  0  0
    1.5071    0.3732    1.7877 H   0  0  0  0  0  0  0  0  0  0  0  0
    0.5721   -2.1537   -0.5644 H   0  0  0  0  0  0  0  0  0  0  0  0
   -2.0151   -2.0619   -0.3730 H   0  0  0  0  0  0  0  0  0  0  0  0
   -2.7313    0.3864   -0.1290 H   0  0  0  0  0  0  0  0  0  0  0  0
   -1.6738    0.1568    1.3739 H   0  0  0  0  0  0  0  0  0  0  0  0
   -0.5608    1.9241    0.1415 H   0  0  0  0  0  0  0  0  0  0  0  0
   -0.7530    0.9256   -1.4035 H   0  0  0  0  0  0  0  0  0  0  0  0
  1  2  1  0
  2  3  1  0
  2  4  1  0
  4  5  2  0
  5  6  1  0
  6  7  1  0
  7  2  1  0
  1  8  1  0
  1  9  1  0
  1 10  1  0
  3 11  1  0
  4 12  1  0
  5 13  1  0
  6 14  1  0
  6 15  1  0
  7 16  1  0
  7 17  1  0
M  END
