
     RDKit          3D

 23 24  0  0  0  0  0  0  0  0999 V2000
   -2.0237    1.1433   -0.4957 C   0  0  0  0  0  0  0  0  0  0  0  0
   -1.0495    0.1093   -0.0460 C   0  0  0  0  0  0  0  0  0  0  0  0
   -1.5933   -0.8257    1.0221 C   0  0  0  0  0  0  0  0  0  0  0  0
   -0.3195   -0.6593   -1.0895 C   0  0  0  0  0  0  0  0  0  0  0  0
    0.8561    0.2770   -0.9166 C   0  0  0  0  0  0  0  0  0  0  0  0
    2.1335   -0.3650   -0.4682 C   0  0  0  0  0  0  0  0  0  0  0  0
    2.0986   -0.3170    1.0319 C   0  0  0  0  0  0  0  0  0  0  0  0
    0.8326    0.0772    1.4072 O   0  0  0  0  0  0  0  0  0  0  0  0
    0.2594    0.7695    0.3705 C   0  0  0  0  0  0  0  0  0  0  0  0
   -2.6700    0.8472   -1.3260 H   0  0  0  0  0  0  0  0  0  0  0  0
   -1.5207    2.1007   -0.7703 H   0  0  0  0  0  0  0  0  0  0  0  0
   -2.6760    1.3911    0.3906 H   0  0  0  0  0  0  0  0  0  0  0  0
   -2.2359   -1.5619    0.5176 H   0  0  0  0  0  0  0  0  0  0  0  0
   -2.1545   -0.1728    1.7374 H   0  0  0  0  0  0  0  0  0  0  0  0
   -0.7336   -1.2988    1.5149 H   0  0  0  0  0  0  0  0  0  0  0  0
   -0.7585   -0.6969   -2.0936 H   0  0  0  0  0  0  0  0  0  0  0  0
   -0.0056   -1.6846   -0.7500 H   0  0  0  0  0  0  0  0  0  0  0  0
    0.9502    1.0178   -1.7302 H   0  0  0  0  0  0  0  0  0  0  0  0
    2.2929   -1.3736   -0.8745 H   0  0  0  0  0  0  0  0  0  0  0  0
    2.9866    0.2719   -0.8016 H   0  0  0  0  0  0  0  0  0  0  0  0
    2.8211    0.4185    1.4625 H   0  0  0  0  0  0  0  0  0  0  0  0
    2.2716   -1.3285    1.4771 H   0  0  0  0  0  0  0  0  0  0  0  0
    0.2383    1.8605    0.4302 H   0  0  0  0  0  0  0  0  0  0  0  0
  1  2  1  0
  2  3  1  0
  2  4  1  0
  4  5  1  0
  5  6  1  0
  6  7  1  0
  7  8  1  0
  8  9  1  0
  9  2  1  0
  9  5  1  0
  1 10  1  0
  1 11  1  0
  1 12  1  0
  3 13  1  0
  3 14  1  0
  3 15  1  0
  4 16  1  0
  4 17  1  0
  5 18  1  0
  6 19  1  0
  6 20  1  0
  7 21  1  0
  7 22  1  0
  9 23  1  0
M  END
