
     RDKit          3D

 21 23  0  0  0  0  0  0  0  0999 V2000
   -1.7030   -1.4176   -0.1223 C   0  0  0  0  0  0  0  0  0  0  0  0
   -0.8783   -0.1475   -0.0909 C   0  0  0  0  0  0  0  0  0  0  0  0
    0.5986   -0.3201   -0.1862 C   0  0  0  0  0  0  0  0  0  0  0  0
    1.4641    0.9169   -0.1592 C   0  0  0  0  0  0  0  0  0  0  0  0
    2.5721    0.0277    0.4206 C   0  0  0  0  0  0  0  0  0  0  0  0
    1.4871   -1.0499    0.5348 C   0  0  0  0  0  0  0  0  0  0  0  0
    1.0695   -1.4938   -0.7159 O   0  0  0  0  0  0  0  0  0  0  0  0
   -1.5008    1.0211    0.5630 C   0  0  0  0  0  0  0  0  0  0  0  0
   -1.4369    0.9928   -0.9190 C   0  0  0  0  0  0  0  0  0  0  0  0
   -1.3889   -2.0194   -1.0067 H   0  0  0  0  0  0  0  0  0  0  0  0
   -2.7614   -1.1490   -0.2963 H   0  0  0  0  0  0  0  0  0  0  0  0
   -1.6147   -1.9955    0.8199 H   0  0  0  0  0  0  0  0  0  0  0  0
    1.6633    1.3098   -1.1557 H   0  0  0  0  0  0  0  0  0  0  0  0
    1.1488    1.6381    0.6214 H   0  0  0  0  0  0  0  0  0  0  0  0
    2.9727    0.3737    1.3792 H   0  0  0  0  0  0  0  0  0  0  0  0
    3.3126   -0.1691   -0.3818 H   0  0  0  0  0  0  0  0  0  0  0  0
    1.4579   -1.6921    1.4078 H   0  0  0  0  0  0  0  0  0  0  0  0
   -2.4917    0.8708    1.0505 H   0  0  0  0  0  0  0  0  0  0  0  0
   -0.8804    1.7607    1.1367 H   0  0  0  0  0  0  0  0  0  0  0  0
   -2.3519    0.8230   -1.5256 H   0  0  0  0  0  0  0  0  0  0  0  0
   -0.7386    1.7191   -1.3742 H   0  0  0  0  0  0  0  0  0  0  0  0
  1  2  1  0
  2  3  1  0
  3  4  1  0
  4  5  1  0
  5  6  1  0
  6  7  1  0
  2  8  1  0
  8  9  1  0
  9  2  1  0
  6  3  1  0
  7  3  1  0
  1 10  1  0
  1 11  1  0
  1 12  1  0
  4 13  1  0
  4 14  1  0
  5 15  1  0
  5 16  1  0
  6 17  1  0
  8 18  1  0
  8 19  1  0
  9 20  1  0
  9 21  1  0
M  END
