
     RDKit          3D

 21 21  0  0  0  0  0  0  0  0999 V2000
   -1.8295   -0.9504    0.1821 C   0  0  0  0  0  0  0  0  0  0  0  0
   -0.6883   -0.1631   -0.3746 C   0  0  0  0  0  0  0  0  0  0  0  0
   -0.3331   -0.6935   -1.6082 O   0  0  0  0  0  0  0  0  0  0  0  0
   -1.0937    1.2542   -0.6149 C   0  0  0  0  0  0  0  0  0  0  0  0
   -0.0784    2.0621   -0.3744 C   0  0  0  0  0  0  0  0  0  0  0  0
    1.1228    1.2544    0.0563 C   0  0  0  0  0  0  0  0  0  0  0  0
    0.4660    0.0007    0.5546 C   0  0  0  0  0  0  0  0  0  0  0  0
    1.3770   -1.1799    0.6258 C   0  0  0  0  0  0  0  0  0  0  0  0
    1.9592   -1.5219   -0.5709 O   0  0  0  0  0  0  0  0  0  0  0  0
   -1.7593   -2.0498   -0.0650 H   0  0  0  0  0  0  0  0  0  0  0  0
   -1.8994   -0.8360    1.2746 H   0  0  0  0  0  0  0  0  0  0  0  0
   -2.7609   -0.6161   -0.3492 H   0  0  0  0  0  0  0  0  0  0  0  0
   -1.1179   -0.5512   -2.2108 H   0  0  0  0  0  0  0  0  0  0  0  0
   -2.0770    1.5720   -0.9390 H   0  0  0  0  0  0  0  0  0  0  0  0
   -0.1089    3.1347   -0.4726 H   0  0  0  0  0  0  0  0  0  0  0  0
    1.7274    1.1162   -0.8495 H   0  0  0  0  0  0  0  0  0  0  0  0
    1.6574    1.7606    0.8764 H   0  0  0  0  0  0  0  0  0  0  0  0
    0.0802    0.2008    1.5708 H   0  0  0  0  0  0  0  0  0  0  0  0
    2.1616   -0.9559    1.3802 H   0  0  0  0  0  0  0  0  0  0  0  0
    0.8052   -2.0352    1.0122 H   0  0  0  0  0  0  0  0  0  0  0  0
    2.3896   -0.8025   -1.0552 H   0  0  0  0  0  0  0  0  0  0  0  0
  1  2  1  0
  2  3  1  0
  2  4  1  0
  4  5  2  0
  5  6  1  0
  6  7  1  0
  7  8  1  0
  8  9  1  0
  7  2  1  0
  1 10  1  0
  1 11  1  0
  1 12  1  0
  3 13  1  0
  4 14  1  0
  5 15  1  0
  6 16  1  0
  6 17  1  0
  7 18  1  0
  8 19  1  0
  8 20  1  0
  9 21  1  0
M  END
