
     RDKit          3D

 21 22  0  0  0  0  0  0  0  0999 V2000
    0.5981   -1.5486   -0.0522 C   0  0  0  0  0  0  0  0  0  0  0  0
   -0.0085   -0.2193    0.3931 C   0  0  0  0  0  0  0  0  0  0  0  0
   -1.4884   -0.2710    0.5748 C   0  0  0  0  0  0  0  0  0  0  0  0
   -2.4052   -0.6093   -0.5361 C   0  0  0  0  0  0  0  0  0  0  0  0
   -2.3859    0.7889    0.0789 C   0  0  0  0  0  0  0  0  0  0  0  0
    0.5896    0.2729    1.6643 O   0  0  0  0  0  0  0  0  0  0  0  0
    0.8117    0.9252    0.3461 C   0  0  0  0  0  0  0  0  0  0  0  0
    2.2813    0.7522    0.0149 C   0  0  0  0  0  0  0  0  0  0  0  0
    2.6359    1.3078   -1.1816 O   0  0  0  0  0  0  0  0  0  0  0  0
    1.2016   -1.4066   -0.9931 H   0  0  0  0  0  0  0  0  0  0  0  0
   -0.1556   -2.3042   -0.2775 H   0  0  0  0  0  0  0  0  0  0  0  0
    1.2713   -1.9586    0.7252 H   0  0  0  0  0  0  0  0  0  0  0  0
   -1.7930   -0.7484    1.5550 H   0  0  0  0  0  0  0  0  0  0  0  0
   -3.3392   -1.1734   -0.3447 H   0  0  0  0  0  0  0  0  0  0  0  0
   -2.0286   -0.7313   -1.5634 H   0  0  0  0  0  0  0  0  0  0  0  0
   -2.0669    1.5715   -0.6073 H   0  0  0  0  0  0  0  0  0  0  0  0
   -3.2772    1.0843    0.6966 H   0  0  0  0  0  0  0  0  0  0  0  0
    0.4905    1.9778    0.3724 H   0  0  0  0  0  0  0  0  0  0  0  0
    2.8611    1.2399    0.8497 H   0  0  0  0  0  0  0  0  0  0  0  0
    2.5779   -0.3163    0.0492 H   0  0  0  0  0  0  0  0  0  0  0  0
    3.6295    1.3663   -1.2073 H   0  0  0  0  0  0  0  0  0  0  0  0
  1  2  1  0
  2  3  1  0
  3  4  1  0
  4  5  1  0
  2  6  1  0
  6  7  1  0
  7  8  1  0
  8  9  1  0
  7  2  1  0
  5  3  1  0
  1 10  1  0
  1 11  1  0
  1 12  1  0
  3 13  1  0
  4 14  1  0
  4 15  1  0
  5 16  1  0
  5 17  1  0
  7 18  1  0
  8 19  1  0
  8 20  1  0
  9 21  1  0
M  END
