
     RDKit          3D

 17 18  0  0  0  0  0  0  0  0999 V2000
   -1.5895   -0.9390    0.0922 C   0  0  0  0  0  0  0  0  0  0  0  0
   -0.4902    0.0689    0.0966 C   0  0  0  0  0  0  0  0  0  0  0  0
   -0.8668    1.4806   -0.3262 C   0  0  0  0  0  0  0  0  0  0  0  0
    0.5403   -0.0471    1.1444 C   0  0  0  0  0  0  0  0  0  0  0  0
    1.7442    0.7006    1.0648 O   0  0  0  0  0  0  0  0  0  0  0  0
    1.9422    0.6022   -0.2889 C   0  0  0  0  0  0  0  0  0  0  0  0
    2.6981    1.1015   -1.1229 O   0  0  0  0  0  0  0  0  0  0  0  0
    0.8477   -0.3778   -0.3544 C   0  0  0  0  0  0  0  0  0  0  0  0
    1.1183   -1.7113   -0.6104 O   0  0  0  0  0  0  0  0  0  0  0  0
   -2.4347   -0.5851   -0.5651 H   0  0  0  0  0  0  0  0  0  0  0  0
   -1.9377   -1.0795    1.1420 H   0  0  0  0  0  0  0  0  0  0  0  0
   -1.2614   -1.9122   -0.2940 H   0  0  0  0  0  0  0  0  0  0  0  0
   -0.2664    2.2427    0.1715 H   0  0  0  0  0  0  0  0  0  0  0  0
   -0.7372    1.6137   -1.4293 H   0  0  0  0  0  0  0  0  0  0  0  0
   -1.9154    1.6253   -0.0511 H   0  0  0  0  0  0  0  0  0  0  0  0
    0.5279   -0.9055    1.8147 H   0  0  0  0  0  0  0  0  0  0  0  0
    2.0807   -1.8780   -0.4838 H   0  0  0  0  0  0  0  0  0  0  0  0
  1  2  1  0
  2  3  1  0
  2  4  1  0
  4  5  1  0
  5  6  1  0
  6  7  2  0
  6  8  1  0
  8  9  1  0
  8  2  1  0
  8  4  1  0
  1 10  1  0
  1 11  1  0
  1 12  1  0
  3 13  1  0
  3 14  1  0
  3 15  1  0
  4 16  1  0
  9 17  1  0
M  END
