
     RDKit          3D

 21 21  0  0  0  0  0  0  0  0999 V2000
    1.7800    0.3186    0.6942 C   0  0  0  0  0  0  0  0  0  0  0  0
    0.9510   -0.4444   -0.3239 C   0  0  0  0  0  0  0  0  0  0  0  0
    1.8180   -1.3535   -0.9537 O   0  0  0  0  0  0  0  0  0  0  0  0
    0.3364    0.4863   -1.3414 C   0  0  0  0  0  0  0  0  0  0  0  0
   -0.5340    1.4481   -0.5840 C   0  0  0  0  0  0  0  0  0  0  0  0
   -1.6156    1.1079    0.1052 C   0  0  0  0  0  0  0  0  0  0  0  0
   -2.2200   -0.2516    0.2986 C   0  0  0  0  0  0  0  0  0  0  0  0
   -1.3399   -1.2043   -0.2185 O   0  0  0  0  0  0  0  0  0  0  0  0
   -0.1286   -1.1699    0.4264 C   0  0  0  0  0  0  0  0  0  0  0  0
    1.2215    1.1801    1.1140 H   0  0  0  0  0  0  0  0  0  0  0  0
    1.9778   -0.4004    1.5247 H   0  0  0  0  0  0  0  0  0  0  0  0
    2.7309    0.6044    0.2105 H   0  0  0  0  0  0  0  0  0  0  0  0
    2.1879   -1.9213   -0.2290 H   0  0  0  0  0  0  0  0  0  0  0  0
    1.0670    1.0041   -1.9557 H   0  0  0  0  0  0  0  0  0  0  0  0
   -0.3567   -0.1438   -1.9592 H   0  0  0  0  0  0  0  0  0  0  0  0
   -0.2538    2.4958   -0.6052 H   0  0  0  0  0  0  0  0  0  0  0  0
   -2.1556    1.9213    0.6106 H   0  0  0  0  0  0  0  0  0  0  0  0
   -2.3123   -0.4177    1.3687 H   0  0  0  0  0  0  0  0  0  0  0  0
   -3.1546   -0.3367   -0.2751 H   0  0  0  0  0  0  0  0  0  0  0  0
    0.2780   -2.2013    0.6425 H   0  0  0  0  0  0  0  0  0  0  0  0
   -0.2775   -0.7218    1.4503 H   0  0  0  0  0  0  0  0  0  0  0  0
  1  2  1  0
  2  3  1  0
  2  4  1  0
  4  5  1  0
  5  6  2  0
  6  7  1  0
  7  8  1  0
  8  9  1  0
  9  2  1  0
  1 10  1  0
  1 11  1  0
  1 12  1  0
  3 13  1  0
  4 14  1  0
  4 15  1  0
  5 16  1  0
  6 17  1  0
  7 18  1  0
  7 19  1  0
  9 20  1  0
  9 21  1  0
M  END
