
     RDKit          3D

 18 18  0  0  0  0  0  0  0  0999 V2000
   -0.9605    1.5631   -0.0744 C   0  0  0  0  0  0  0  0  0  0  0  0
   -0.3204    0.1929   -0.0137 C   0  0  0  0  0  0  0  0  0  0  0  0
    1.1536    0.2463    0.2962 C   0  0  0  0  0  0  0  0  0  0  0  0
    1.8266    0.9948   -0.7094 O   0  0  0  0  0  0  0  0  0  0  0  0
    1.7975   -1.0490    0.5035 C   0  0  0  0  0  0  0  0  0  0  0  0
    2.7576   -1.3691   -0.1698 O   0  0  0  0  0  0  0  0  0  0  0  0
   -1.0599   -0.9067    0.7058 C   0  0  0  0  0  0  0  0  0  0  0  0
   -0.9297   -0.8764   -0.7993 C   0  0  0  0  0  0  0  0  0  0  0  0
   -1.6470    1.7519    0.7715 H   0  0  0  0  0  0  0  0  0  0  0  0
   -1.5746    1.5971   -0.9931 H   0  0  0  0  0  0  0  0  0  0  0  0
   -0.2041    2.3673   -0.1783 H   0  0  0  0  0  0  0  0  0  0  0  0
    1.2457    0.9097    1.2086 H   0  0  0  0  0  0  0  0  0  0  0  0
    1.2755    0.9900   -1.5291 H   0  0  0  0  0  0  0  0  0  0  0  0
    1.4386   -1.7360    1.2477 H   0  0  0  0  0  0  0  0  0  0  0  0
   -0.5592   -1.7530    1.1742 H   0  0  0  0  0  0  0  0  0  0  0  0
   -2.0184   -0.6059    1.1724 H   0  0  0  0  0  0  0  0  0  0  0  0
   -1.8825   -0.6507   -1.3131 H   0  0  0  0  0  0  0  0  0  0  0  0
   -0.3387   -1.6664   -1.2997 H   0  0  0  0  0  0  0  0  0  0  0  0
  1  2  1  0
  2  3  1  0
  3  4  1  0
  3  5  1  0
  5  6  2  0
  2  7  1  0
  7  8  1  0
  8  2  1  0
  1  9  1  0
  1 10  1  0
  1 11  1  0
  3 12  1  0
  4 13  1  0
  5 14  1  0
  7 15  1  0
  7 16  1  0
  8 17  1  0
  8 18  1  0
M  END
