
     RDKit          3D

 21 21  0  0  0  0  0  0  0  0999 V2000
   -1.9341   -0.8577   -0.5331 C   0  0  0  0  0  0  0  0  0  0  0  0
   -0.7966    0.1028   -0.1700 C   0  0  0  0  0  0  0  0  0  0  0  0
   -1.4721    1.2910    0.5138 C   0  0  0  0  0  0  0  0  0  0  0  0
   -0.2093    0.5642   -1.3101 O   0  0  0  0  0  0  0  0  0  0  0  0
    1.0375    0.1107   -1.5853 C   0  0  0  0  0  0  0  0  0  0  0  0
    2.0237    0.2038   -0.4620 C   0  0  0  0  0  0  0  0  0  0  0  0
    1.5693   -0.4645    0.7905 C   0  0  0  0  0  0  0  0  0  0  0  0
    0.0822   -0.5964    0.7658 C   0  0  0  0  0  0  0  0  0  0  0  0
   -0.4002   -1.3515    1.6021 O   0  0  0  0  0  0  0  0  0  0  0  0
   -2.5315   -0.4893   -1.3733 H   0  0  0  0  0  0  0  0  0  0  0  0
   -1.4707   -1.8394   -0.6933 H   0  0  0  0  0  0  0  0  0  0  0  0
   -2.5405   -0.9626    0.4149 H   0  0  0  0  0  0  0  0  0  0  0  0
   -0.9145    1.6016    1.4210 H   0  0  0  0  0  0  0  0  0  0  0  0
   -1.5485    2.1546   -0.1775 H   0  0  0  0  0  0  0  0  0  0  0  0
   -2.4981    1.0537    0.8396 H   0  0  0  0  0  0  0  0  0  0  0  0
    1.4506    0.7535   -2.4189 H   0  0  0  0  0  0  0  0  0  0  0  0
    1.0390   -0.9306   -1.9992 H   0  0  0  0  0  0  0  0  0  0  0  0
    2.2317    1.2765   -0.2330 H   0  0  0  0  0  0  0  0  0  0  0  0
    2.9809   -0.2389   -0.8049 H   0  0  0  0  0  0  0  0  0  0  0  0
    1.8663    0.0852    1.7120 H   0  0  0  0  0  0  0  0  0  0  0  0
    2.0348   -1.4669    0.8434 H   0  0  0  0  0  0  0  0  0  0  0  0
  1  2  1  0
  2  3  1  0
  2  4  1  0
  4  5  1  0
  5  6  1  0
  6  7  1  0
  7  8  1  0
  8  9  2  0
  8  2  1  0
  1 10  1  0
  1 11  1  0
  1 12  1  0
  3 13  1  0
  3 14  1  0
  3 15  1  0
  5 16  1  0
  5 17  1  0
  6 18  1  0
  6 19  1  0
  7 20  1  0
  7 21  1  0
M  END
