
     RDKit          3D

 23 24  0  0  0  0  0  0  0  0999 V2000
    1.6519   -0.0904    1.0378 C   0  0  0  0  0  0  0  0  0  0  0  0
    0.6006   -0.1766   -0.0707 C   0  0  0  0  0  0  0  0  0  0  0  0
    0.9928   -1.2852   -0.9919 C   0  0  0  0  0  0  0  0  0  0  0  0
    0.5668    1.1601   -0.7769 C   0  0  0  0  0  0  0  0  0  0  0  0
   -0.5492    1.9475   -0.1388 C   0  0  0  0  0  0  0  0  0  0  0  0
   -1.3842    1.0151    0.6565 C   0  0  0  0  0  0  0  0  0  0  0  0
   -0.9093    0.3471    1.7550 O   0  0  0  0  0  0  0  0  0  0  0  0
   -0.7331   -0.3522    0.5735 C   0  0  0  0  0  0  0  0  0  0  0  0
   -1.6577   -1.4522    0.1789 C   0  0  0  0  0  0  0  0  0  0  0  0
    2.6382   -0.1438    0.5058 H   0  0  0  0  0  0  0  0  0  0  0  0
    1.5879    0.9329    1.4518 H   0  0  0  0  0  0  0  0  0  0  0  0
    1.5386   -0.8864    1.7825 H   0  0  0  0  0  0  0  0  0  0  0  0
    1.6485   -2.0170   -0.4724 H   0  0  0  0  0  0  0  0  0  0  0  0
    1.6170   -0.8634   -1.8217 H   0  0  0  0  0  0  0  0  0  0  0  0
    0.1372   -1.8560   -1.3854 H   0  0  0  0  0  0  0  0  0  0  0  0
    1.5357    1.6814   -0.6406 H   0  0  0  0  0  0  0  0  0  0  0  0
    0.3631    0.9328   -1.8560 H   0  0  0  0  0  0  0  0  0  0  0  0
   -1.1733    2.3515   -0.9700 H   0  0  0  0  0  0  0  0  0  0  0  0
   -0.1534    2.8113    0.4095 H   0  0  0  0  0  0  0  0  0  0  0  0
   -2.5046    1.0721    0.6195 H   0  0  0  0  0  0  0  0  0  0  0  0
   -2.6621   -1.2284    0.6037 H   0  0  0  0  0  0  0  0  0  0  0  0
   -1.8112   -1.4435   -0.9374 H   0  0  0  0  0  0  0  0  0  0  0  0
   -1.3406   -2.4570    0.4871 H   0  0  0  0  0  0  0  0  0  0  0  0
  1  2  1  0
  2  3  1  0
  2  4  1  0
  4  5  1  0
  5  6  1  0
  6  7  1  0
  7  8  1  0
  8  9  1  0
  8  2  1  0
  8  6  1  0
  1 10  1  0
  1 11  1  0
  1 12  1  0
  3 13  1  0
  3 14  1  0
  3 15  1  0
  4 16  1  0
  4 17  1  0
  5 18  1  0
  5 19  1  0
  6 20  1  0
  9 21  1  0
  9 22  1  0
  9 23  1  0
M  END
