
     RDKit          3D

 25 25  0  0  0  0  0  0  0  0999 V2000
   -1.3571   -0.5915    1.3096 C   0  0  0  0  0  0  0  0  0  0  0  0
   -0.7709   -0.0270    0.0686 C   0  0  0  0  0  0  0  0  0  0  0  0
   -1.4289   -0.6877   -1.1258 C   0  0  0  0  0  0  0  0  0  0  0  0
   -1.0348    1.4485   -0.0643 C   0  0  0  0  0  0  0  0  0  0  0  0
    0.0336    2.1537    0.2374 C   0  0  0  0  0  0  0  0  0  0  0  0
    1.1209    1.2278    0.6033 C   0  0  0  0  0  0  0  0  0  0  0  0
    0.7286   -0.0760    0.0064 C   0  0  0  0  0  0  0  0  0  0  0  0
    1.3104   -1.2731    0.7034 C   0  0  0  0  0  0  0  0  0  0  0  0
    1.1819   -0.1055   -1.4383 C   0  0  0  0  0  0  0  0  0  0  0  0
   -2.3735   -0.1702    1.4727 H   0  0  0  0  0  0  0  0  0  0  0  0
   -1.5219   -1.6961    1.1800 H   0  0  0  0  0  0  0  0  0  0  0  0
   -0.7437   -0.4566    2.2199 H   0  0  0  0  0  0  0  0  0  0  0  0
   -2.5291   -0.5422   -0.9881 H   0  0  0  0  0  0  0  0  0  0  0  0
   -1.1657   -1.7504   -1.1382 H   0  0  0  0  0  0  0  0  0  0  0  0
   -1.1185   -0.1607   -2.0701 H   0  0  0  0  0  0  0  0  0  0  0  0
   -2.0030    1.8279   -0.3738 H   0  0  0  0  0  0  0  0  0  0  0  0
    0.1071    3.2263    0.2215 H   0  0  0  0  0  0  0  0  0  0  0  0
    1.1511    1.2057    1.7241 H   0  0  0  0  0  0  0  0  0  0  0  0
    2.1230    1.5900    0.2351 H   0  0  0  0  0  0  0  0  0  0  0  0
    1.2984   -1.1522    1.8211 H   0  0  0  0  0  0  0  0  0  0  0  0
    2.3531   -1.3935    0.3417 H   0  0  0  0  0  0  0  0  0  0  0  0
    0.7306   -2.1670    0.4325 H   0  0  0  0  0  0  0  0  0  0  0  0
    0.8700    0.7920   -2.0042 H   0  0  0  0  0  0  0  0  0  0  0  0
    2.2927   -0.1846   -1.4850 H   0  0  0  0  0  0  0  0  0  0  0  0
    0.7456   -1.0376   -1.8896 H   0  0  0  0  0  0  0  0  0  0  0  0
  1  2  1  0
  2  3  1  0
  2  4  1  0
  4  5  2  0
  5  6  1  0
  6  7  1  0
  7  8  1  0
  7  9  1  0
  7  2  1  0
  1 10  1  0
  1 11  1  0
  1 12  1  0
  3 13  1  0
  3 14  1  0
  3 15  1  0
  4 16  1  0
  5 17  1  0
  6 18  1  0
  6 19  1  0
  8 20  1  0
  8 21  1  0
  8 22  1  0
  9 23  1  0
  9 24  1  0
  9 25  1  0
M  END
