
     RDKit          3D

 23 24  0  0  0  0  0  0  0  0999 V2000
   -1.8182    1.3891    0.6632 C   0  0  0  0  0  0  0  0  0  0  0  0
   -1.1484    0.2129    0.0080 C   0  0  0  0  0  0  0  0  0  0  0  0
   -1.4337   -1.1064    0.6898 C   0  0  0  0  0  0  0  0  0  0  0  0
   -1.0771    0.1219   -1.4903 C   0  0  0  0  0  0  0  0  0  0  0  0
    0.1320    0.4459   -0.7011 C   0  0  0  0  0  0  0  0  0  0  0  0
    1.2419   -0.5270   -0.5053 C   0  0  0  0  0  0  0  0  0  0  0  0
    1.6327   -0.5880    0.9695 C   0  0  0  0  0  0  0  0  0  0  0  0
    2.3937    0.5784    0.7280 O   0  0  0  0  0  0  0  0  0  0  0  0
    2.6077    0.0762   -0.5560 C   0  0  0  0  0  0  0  0  0  0  0  0
   -1.6926    2.2727   -0.0120 H   0  0  0  0  0  0  0  0  0  0  0  0
   -1.2596    1.6672    1.5998 H   0  0  0  0  0  0  0  0  0  0  0  0
   -2.8904    1.2634    0.8322 H   0  0  0  0  0  0  0  0  0  0  0  0
   -2.4347   -1.4425    0.2894 H   0  0  0  0  0  0  0  0  0  0  0  0
   -0.7011   -1.8903    0.4405 H   0  0  0  0  0  0  0  0  0  0  0  0
   -1.5632   -0.9692    1.7608 H   0  0  0  0  0  0  0  0  0  0  0  0
   -1.6015    0.9461   -2.0337 H   0  0  0  0  0  0  0  0  0  0  0  0
   -1.2205   -0.8545   -1.9780 H   0  0  0  0  0  0  0  0  0  0  0  0
    0.4571    1.5112   -0.7607 H   0  0  0  0  0  0  0  0  0  0  0  0
    1.1240   -1.5210   -0.9671 H   0  0  0  0  0  0  0  0  0  0  0  0
    0.7597   -0.3864    1.6083 H   0  0  0  0  0  0  0  0  0  0  0  0
    2.2917   -1.4108    1.2480 H   0  0  0  0  0  0  0  0  0  0  0  0
    2.7742    0.8726   -1.3071 H   0  0  0  0  0  0  0  0  0  0  0  0
    3.4262   -0.6614   -0.5261 H   0  0  0  0  0  0  0  0  0  0  0  0
  1  2  1  0
  2  3  1  0
  2  4  1  0
  4  5  1  0
  5  6  1  0
  6  7  1  0
  7  8  1  0
  8  9  1  0
  5  2  1  0
  9  6  1  0
  1 10  1  0
  1 11  1  0
  1 12  1  0
  3 13  1  0
  3 14  1  0
  3 15  1  0
  4 16  1  0
  4 17  1  0
  5 18  1  0
  6 19  1  0
  7 20  1  0
  7 21  1  0
  9 22  1  0
  9 23  1  0
M  END
