
     RDKit          3D

 21 21  0  0  0  0  0  0  0  0999 V2000
   -1.5674   -0.6963    0.9764 C   0  0  0  0  0  0  0  0  0  0  0  0
   -0.9079    0.1359   -0.1125 C   0  0  0  0  0  0  0  0  0  0  0  0
   -1.3280    1.5687   -0.1637 C   0  0  0  0  0  0  0  0  0  0  0  0
   -0.8399   -0.5928   -1.3367 O   0  0  0  0  0  0  0  0  0  0  0  0
    0.3442   -0.2693   -0.7244 C   0  0  0  0  0  0  0  0  0  0  0  0
    1.1716    0.7608   -1.4429 C   0  0  0  0  0  0  0  0  0  0  0  0
    1.1549   -1.3150   -0.0007 C   0  0  0  0  0  0  0  0  0  0  0  0
    1.4887   -0.7637    1.3435 C   0  0  0  0  0  0  0  0  0  0  0  0
    2.1549   -1.4429    2.1299 O   0  0  0  0  0  0  0  0  0  0  0  0
   -1.3047   -1.7782    0.8292 H   0  0  0  0  0  0  0  0  0  0  0  0
   -1.3168   -0.3713    1.9825 H   0  0  0  0  0  0  0  0  0  0  0  0
   -2.6733   -0.6436    0.7524 H   0  0  0  0  0  0  0  0  0  0  0  0
   -1.7898    1.8682   -1.1318 H   0  0  0  0  0  0  0  0  0  0  0  0
   -2.1090    1.8105    0.6145 H   0  0  0  0  0  0  0  0  0  0  0  0
   -0.4740    2.2571    0.0943 H   0  0  0  0  0  0  0  0  0  0  0  0
    2.1188    0.9981   -0.9455 H   0  0  0  0  0  0  0  0  0  0  0  0
    0.5543    1.6639   -1.6127 H   0  0  0  0  0  0  0  0  0  0  0  0
    1.3861    0.3515   -2.4715 H   0  0  0  0  0  0  0  0  0  0  0  0
    0.6491   -2.2823    0.0831 H   0  0  0  0  0  0  0  0  0  0  0  0
    2.1217   -1.4899   -0.5359 H   0  0  0  0  0  0  0  0  0  0  0  0
    1.1665    0.2307    1.6727 H   0  0  0  0  0  0  0  0  0  0  0  0
  1  2  1  0
  2  3  1  0
  2  4  1  0
  4  5  1  0
  5  6  1  0
  5  7  1  0
  7  8  1  0
  8  9  2  0
  5  2  1  0
  1 10  1  0
  1 11  1  0
  1 12  1  0
  3 13  1  0
  3 14  1  0
  3 15  1  0
  6 16  1  0
  6 17  1  0
  6 18  1  0
  7 19  1  0
  7 20  1  0
  8 21  1  0
M  END
