
     RDKit          3D

 15 15  0  0  0  0  0  0  0  0999 V2000
    0.2494    1.3923   -0.3360 C   0  0  0  0  0  0  0  0  0  0  0  0
   -0.1811    0.1149    0.3110 C   0  0  0  0  0  0  0  0  0  0  0  0
    0.8336   -0.5193    1.0765 O   0  0  0  0  0  0  0  0  0  0  0  0
    1.9875   -0.8785    0.3584 C   0  0  0  0  0  0  0  0  0  0  0  0
    2.1011   -0.6489   -0.8746 O   0  0  0  0  0  0  0  0  0  0  0  0
   -1.6064   -0.0884    0.6058 C   0  0  0  0  0  0  0  0  0  0  0  0
   -1.0141   -0.8755   -0.5087 C   0  0  0  0  0  0  0  0  0  0  0  0
   -0.0182    1.4303   -1.4224 H   0  0  0  0  0  0  0  0  0  0  0  0
   -0.2955    2.2218    0.1577 H   0  0  0  0  0  0  0  0  0  0  0  0
    1.3299    1.5986   -0.1883 H   0  0  0  0  0  0  0  0  0  0  0  0
    2.8080   -1.3642    0.8582 H   0  0  0  0  0  0  0  0  0  0  0  0
   -2.3024    0.7196    0.2777 H   0  0  0  0  0  0  0  0  0  0  0  0
   -1.8667   -0.5837    1.5478 H   0  0  0  0  0  0  0  0  0  0  0  0
   -1.1386   -0.5614   -1.5548 H   0  0  0  0  0  0  0  0  0  0  0  0
   -0.8864   -1.9575   -0.3083 H   0  0  0  0  0  0  0  0  0  0  0  0
  1  2  1  0
  2  3  1  0
  3  4  1  0
  4  5  2  0
  2  6  1  0
  6  7  1  0
  7  2  1  0
  1  8  1  0
  1  9  1  0
  1 10  1  0
  4 11  1  0
  6 12  1  0
  6 13  1  0
  7 14  1  0
  7 15  1  0
M  END
