
     RDKit          3D

 17 18  0  0  0  0  0  0  0  0999 V2000
    1.8787   -0.3615   -0.4700 C   0  0  0  0  0  0  0  0  0  0  0  0
    0.7106    0.0632    0.3636 C   0  0  0  0  0  0  0  0  0  0  0  0
    0.7880   -0.2678    1.7145 O   0  0  0  0  0  0  0  0  0  0  0  0
    0.2341    1.4396    0.1965 C   0  0  0  0  0  0  0  0  0  0  0  0
    0.7608    2.5362    0.2833 O   0  0  0  0  0  0  0  0  0  0  0  0
   -1.1454    1.0242   -0.1228 C   0  0  0  0  0  0  0  0  0  0  0  0
   -1.7999   -0.1050    0.6099 C   0  0  0  0  0  0  0  0  0  0  0  0
   -0.6052   -0.4260   -0.1982 C   0  0  0  0  0  0  0  0  0  0  0  0
   -0.6629   -0.9700   -1.4502 O   0  0  0  0  0  0  0  0  0  0  0  0
    2.7156    0.3545   -0.4142 H   0  0  0  0  0  0  0  0  0  0  0  0
    2.2117   -1.3584   -0.1089 H   0  0  0  0  0  0  0  0  0  0  0  0
    1.5514   -0.5149   -1.5393 H   0  0  0  0  0  0  0  0  0  0  0  0
    1.0189   -1.2024    1.8816 H   0  0  0  0  0  0  0  0  0  0  0  0
   -1.6435    1.4250   -1.0188 H   0  0  0  0  0  0  0  0  0  0  0  0
   -1.6385   -0.0766    1.7139 H   0  0  0  0  0  0  0  0  0  0  0  0
   -2.7763   -0.4102    0.2365 H   0  0  0  0  0  0  0  0  0  0  0  0
   -1.5979   -1.1499   -1.6773 H   0  0  0  0  0  0  0  0  0  0  0  0
  1  2  1  0
  2  3  1  0
  2  4  1  0
  4  5  2  0
  4  6  1  0
  6  7  1  0
  7  8  1  0
  8  9  1  0
  8  2  1  0
  8  6  1  0
  1 10  1  0
  1 11  1  0
  1 12  1  0
  3 13  1  0
  6 14  1  0
  7 15  1  0
  7 16  1  0
  9 17  1  0
M  END
