
     RDKit          3D

 17 17  0  0  0  0  0  0  0  0999 V2000
   -1.6695   -0.8425   -0.1026 C   0  0  0  0  0  0  0  0  0  0  0  0
   -0.5089    0.0611    0.2477 C   0  0  0  0  0  0  0  0  0  0  0  0
   -0.5268    1.4166   -0.3702 C   0  0  0  0  0  0  0  0  0  0  0  0
   -0.3475    0.1406    1.6437 O   0  0  0  0  0  0  0  0  0  0  0  0
    1.0231    0.0401    1.4811 C   0  0  0  0  0  0  0  0  0  0  0  0
    1.9990    0.4152    2.1602 O   0  0  0  0  0  0  0  0  0  0  0  0
    0.8087   -0.6656    0.2228 C   0  0  0  0  0  0  0  0  0  0  0  0
    1.6920   -0.3559   -0.8954 C   0  0  0  0  0  0  0  0  0  0  0  0
    2.8650   -0.6669   -0.8609 O   0  0  0  0  0  0  0  0  0  0  0  0
   -2.6433   -0.3891    0.0890 H   0  0  0  0  0  0  0  0  0  0  0  0
   -1.5580   -1.1974   -1.1469 H   0  0  0  0  0  0  0  0  0  0  0  0
   -1.5915   -1.7362    0.5792 H   0  0  0  0  0  0  0  0  0  0  0  0
    0.4817    1.6868   -0.7420 H   0  0  0  0  0  0  0  0  0  0  0  0
   -0.8617    2.2134    0.3461 H   0  0  0  0  0  0  0  0  0  0  0  0
   -1.2121    1.4808   -1.2552 H   0  0  0  0  0  0  0  0  0  0  0  0
    0.7115   -1.7536    0.3821 H   0  0  0  0  0  0  0  0  0  0  0  0
    1.3381    0.1528   -1.7787 H   0  0  0  0  0  0  0  0  0  0  0  0
  1  2  1  0
  2  3  1  0
  2  4  1  0
  4  5  1  0
  5  6  2  0
  5  7  1  0
  7  8  1  0
  8  9  2  0
  7  2  1  0
  1 10  1  0
  1 11  1  0
  1 12  1  0
  3 13  1  0
  3 14  1  0
  3 15  1  0
  7 16  1  0
  8 17  1  0
M  END
