
     RDKit          3D

 17 17  0  0  0  0  0  0  0  0999 V2000
   -1.3347   -0.4458   -0.9351 C   0  0  0  0  0  0  0  0  0  0  0  0
   -0.5763    0.0278    0.2683 C   0  0  0  0  0  0  0  0  0  0  0  0
   -1.4573    0.2649    1.2920 O   0  0  0  0  0  0  0  0  0  0  0  0
    0.3748   -1.0905    0.6760 C   0  0  0  0  0  0  0  0  0  0  0  0
    1.7015   -0.6133    0.2124 C   0  0  0  0  0  0  0  0  0  0  0  0
    2.7647   -1.2805    0.2908 O   0  0  0  0  0  0  0  0  0  0  0  0
    1.6029    0.7228   -0.3411 C   0  0  0  0  0  0  0  0  0  0  0  0
    2.4647    1.3601   -0.9982 O   0  0  0  0  0  0  0  0  0  0  0  0
    0.2598    1.2406    0.0089 C   0  0  0  0  0  0  0  0  0  0  0  0
   -1.8587   -1.3845   -0.6576 H   0  0  0  0  0  0  0  0  0  0  0  0
   -2.0521    0.3075   -1.3163 H   0  0  0  0  0  0  0  0  0  0  0  0
   -0.6299   -0.6946   -1.7794 H   0  0  0  0  0  0  0  0  0  0  0  0
   -1.9311    1.1126    1.2216 H   0  0  0  0  0  0  0  0  0  0  0  0
    0.3525   -1.2408    1.7560 H   0  0  0  0  0  0  0  0  0  0  0  0
    0.1123   -2.0523    0.1582 H   0  0  0  0  0  0  0  0  0  0  0  0
    0.3541    1.8904    0.9257 H   0  0  0  0  0  0  0  0  0  0  0  0
   -0.1472    1.8756   -0.7819 H   0  0  0  0  0  0  0  0  0  0  0  0
  1  2  1  0
  2  3  1  0
  2  4  1  0
  4  5  1  0
  5  6  2  0
  5  7  1  0
  7  8  2  0
  7  9  1  0
  9  2  1  0
  1 10  1  0
  1 11  1  0
  1 12  1  0
  3 13  1  0
  4 14  1  0
  4 15  1  0
  9 16  1  0
  9 17  1  0
M  END
