
     RDKit          3D

 20 21  0  0  0  0  0  0  0  0999 V2000
   -1.1691    1.5155   -0.0421 C   0  0  0  0  0  0  0  0  0  0  0  0
   -0.7312    0.0491    0.0918 C   0  0  0  0  0  0  0  0  0  0  0  0
   -1.6803   -0.8197    0.8699 C   0  0  0  0  0  0  0  0  0  0  0  0
   -0.0841   -0.4621   -1.1470 C   0  0  0  0  0  0  0  0  0  0  0  0
    0.1828   -1.8216   -1.1548 O   0  0  0  0  0  0  0  0  0  0  0  0
    1.2946   -1.5399   -0.3321 C   0  0  0  0  0  0  0  0  0  0  0  0
    0.6890   -0.2792    0.1739 C   0  0  0  0  0  0  0  0  0  0  0  0
    1.6363    0.9109    0.2526 C   0  0  0  0  0  0  0  0  0  0  0  0
   -0.5016    2.0412   -0.7576 H   0  0  0  0  0  0  0  0  0  0  0  0
   -2.1639    1.4570   -0.5696 H   0  0  0  0  0  0  0  0  0  0  0  0
   -1.2792    2.0059    0.9221 H   0  0  0  0  0  0  0  0  0  0  0  0
   -2.1907   -1.5774    0.2519 H   0  0  0  0  0  0  0  0  0  0  0  0
   -1.1323   -1.3763    1.6863 H   0  0  0  0  0  0  0  0  0  0  0  0
   -2.4136   -0.1792    1.4313 H   0  0  0  0  0  0  0  0  0  0  0  0
    0.2487    0.1980   -1.9413 H   0  0  0  0  0  0  0  0  0  0  0  0
    1.5415   -2.3263    0.3751 H   0  0  0  0  0  0  0  0  0  0  0  0
    2.1545   -1.3088   -1.0278 H   0  0  0  0  0  0  0  0  0  0  0  0
    1.5335    1.4930   -0.6725 H   0  0  0  0  0  0  0  0  0  0  0  0
    2.6604    0.5100    0.4200 H   0  0  0  0  0  0  0  0  0  0  0  0
    1.4047    1.5101    1.1700 H   0  0  0  0  0  0  0  0  0  0  0  0
  1  2  1  0
  2  3  1  0
  2  4  1  0
  4  5  1  0
  5  6  1  0
  6  7  1  0
  7  8  1  0
  7  2  1  0
  7  4  1  0
  1  9  1  0
  1 10  1  0
  1 11  1  0
  3 12  1  0
  3 13  1  0
  3 14  1  0
  4 15  1  0
  6 16  1  0
  6 17  1  0
  8 18  1  0
  8 19  1  0
  8 20  1  0
M  END
