
     RDKit          3D

 20 20  0  0  0  0  0  0  0  0999 V2000
   -1.0716    1.0786   -1.0400 C   0  0  0  0  0  0  0  0  0  0  0  0
   -0.4862    0.0953   -0.0443 C   0  0  0  0  0  0  0  0  0  0  0  0
   -1.4280   -0.2519    1.0374 C   0  0  0  0  0  0  0  0  0  0  0  0
    0.1393   -1.0795   -0.7916 C   0  0  0  0  0  0  0  0  0  0  0  0
    1.3912   -0.2371   -0.9040 C   0  0  0  0  0  0  0  0  0  0  0  0
    0.9011    0.5186    0.3395 C   0  0  0  0  0  0  0  0  0  0  0  0
    1.4699   -0.0878    1.5418 C   0  0  0  0  0  0  0  0  0  0  0  0
    1.0712   -1.1348    2.0012 O   0  0  0  0  0  0  0  0  0  0  0  0
   -1.9528    1.6080   -0.6416 H   0  0  0  0  0  0  0  0  0  0  0  0
   -0.3087    1.7417   -1.4712 H   0  0  0  0  0  0  0  0  0  0  0  0
   -1.4616    0.4593   -1.8997 H   0  0  0  0  0  0  0  0  0  0  0  0
   -2.4580    0.1787    0.8876 H   0  0  0  0  0  0  0  0  0  0  0  0
   -1.1251    0.0636    2.0549 H   0  0  0  0  0  0  0  0  0  0  0  0
   -1.5691   -1.3490    1.0811 H   0  0  0  0  0  0  0  0  0  0  0  0
   -0.4000   -1.2522   -1.7430 H   0  0  0  0  0  0  0  0  0  0  0  0
    0.1958   -1.9437   -0.1213 H   0  0  0  0  0  0  0  0  0  0  0  0
    1.3351    0.3872   -1.8175 H   0  0  0  0  0  0  0  0  0  0  0  0
    2.3331   -0.7807   -0.7517 H   0  0  0  0  0  0  0  0  0  0  0  0
    1.1426    1.5768    0.2288 H   0  0  0  0  0  0  0  0  0  0  0  0
    2.2820    0.4086    2.0536 H   0  0  0  0  0  0  0  0  0  0  0  0
  1  2  1  0
  2  3  1  0
  2  4  1  0
  4  5  1  0
  5  6  1  0
  6  7  1  0
  7  8  2  0
  6  2  1  0
  1  9  1  0
  1 10  1  0
  1 11  1  0
  3 12  1  0
  3 13  1  0
  3 14  1  0
  4 15  1  0
  4 16  1  0
  5 17  1  0
  5 18  1  0
  6 19  1  0
  7 20  1  0
M  END
