
     RDKit          3D

 21 22  0  0  0  0  0  0  0  0999 V2000
    1.6912   -0.3694   -0.4615 C   0  0  0  0  0  0  0  0  0  0  0  0
    0.8313    0.0890    0.6590 C   0  0  0  0  0  0  0  0  0  0  0  0
    1.6260    0.2156    1.7988 O   0  0  0  0  0  0  0  0  0  0  0  0
   -0.2458   -0.9847    0.8755 C   0  0  0  0  0  0  0  0  0  0  0  0
   -1.0859   -0.7167   -0.3813 C   0  0  0  0  0  0  0  0  0  0  0  0
   -2.2847   -1.4200   -0.1847 O   0  0  0  0  0  0  0  0  0  0  0  0
   -1.2842    0.7471   -0.3185 C   0  0  0  0  0  0  0  0  0  0  0  0
   -0.3963    1.7391   -0.9457 C   0  0  0  0  0  0  0  0  0  0  0  0
    0.0018    1.2867    0.3903 C   0  0  0  0  0  0  0  0  0  0  0  0
    2.7247    0.0335   -0.4268 H   0  0  0  0  0  0  0  0  0  0  0  0
    1.3067   -0.1915   -1.4656 H   0  0  0  0  0  0  0  0  0  0  0  0
    1.7941   -1.4914   -0.3647 H   0  0  0  0  0  0  0  0  0  0  0  0
    2.1050   -0.6618    1.8881 H   0  0  0  0  0  0  0  0  0  0  0  0
    0.2033   -1.9813    0.8548 H   0  0  0  0  0  0  0  0  0  0  0  0
   -0.8344   -0.7630    1.7846 H   0  0  0  0  0  0  0  0  0  0  0  0
   -0.5215   -1.0889   -1.2467 H   0  0  0  0  0  0  0  0  0  0  0  0
   -2.6055   -1.7145   -1.0617 H   0  0  0  0  0  0  0  0  0  0  0  0
   -2.2451    1.0810    0.1106 H   0  0  0  0  0  0  0  0  0  0  0  0
   -0.7979    2.7788   -0.9876 H   0  0  0  0  0  0  0  0  0  0  0  0
    0.2415    1.5109   -1.8233 H   0  0  0  0  0  0  0  0  0  0  0  0
   -0.2242    1.9016    1.3064 H   0  0  0  0  0  0  0  0  0  0  0  0
  1  2  1  0
  2  3  1  0
  2  4  1  0
  4  5  1  0
  5  6  1  0
  5  7  1  0
  7  8  1  0
  8  9  1  0
  9  2  1  0
  9  7  1  0
  1 10  1  0
  1 11  1  0
  1 12  1  0
  3 13  1  0
  4 14  1  0
  4 15  1  0
  5 16  1  0
  6 17  1  0
  7 18  1  0
  8 19  1  0
  8 20  1  0
  9 21  1  0
M  END
