
     RDKit          3D

 21 21  0  0  0  0  0  0  0  0999 V2000
   -2.0042   -0.8606    0.3006 C   0  0  0  0  0  0  0  0  0  0  0  0
   -0.7850    0.0446    0.2787 C   0  0  0  0  0  0  0  0  0  0  0  0
   -1.2042    1.4381    0.5665 C   0  0  0  0  0  0  0  0  0  0  0  0
   -0.0507   -0.0419   -1.0514 C   0  0  0  0  0  0  0  0  0  0  0  0
    1.3320    0.5514   -0.8772 C   0  0  0  0  0  0  0  0  0  0  0  0
    2.1982   -0.3302   -0.0077 C   0  0  0  0  0  0  0  0  0  0  0  0
    1.3120   -1.0754    0.9245 C   0  0  0  0  0  0  0  0  0  0  0  0
    1.7042   -2.1919    1.3563 O   0  0  0  0  0  0  0  0  0  0  0  0
    0.1149   -0.4878    1.2530 O   0  0  0  0  0  0  0  0  0  0  0  0
   -2.9394   -0.3105    0.1871 H   0  0  0  0  0  0  0  0  0  0  0  0
   -2.0744   -1.4185    1.2727 H   0  0  0  0  0  0  0  0  0  0  0  0
   -1.8770   -1.5844   -0.5231 H   0  0  0  0  0  0  0  0  0  0  0  0
   -0.5916    2.1373   -0.0430 H   0  0  0  0  0  0  0  0  0  0  0  0
   -2.2594    1.5859    0.1973 H   0  0  0  0  0  0  0  0  0  0  0  0
   -1.1925    1.7278    1.6164 H   0  0  0  0  0  0  0  0  0  0  0  0
    0.0637   -1.1196   -1.2758 H   0  0  0  0  0  0  0  0  0  0  0  0
   -0.5999    0.4778   -1.8362 H   0  0  0  0  0  0  0  0  0  0  0  0
    1.8141    0.6015   -1.8676 H   0  0  0  0  0  0  0  0  0  0  0  0
    1.3226    1.5584   -0.4479 H   0  0  0  0  0  0  0  0  0  0  0  0
    2.8318   -0.9994   -0.6182 H   0  0  0  0  0  0  0  0  0  0  0  0
    2.8847    0.2975    0.5949 H   0  0  0  0  0  0  0  0  0  0  0  0
  1  2  1  0
  2  3  1  0
  2  4  1  0
  4  5  1  0
  5  6  1  0
  6  7  1  0
  7  8  2  0
  7  9  1  0
  9  2  1  0
  1 10  1  0
  1 11  1  0
  1 12  1  0
  3 13  1  0
  3 14  1  0
  3 15  1  0
  4 16  1  0
  4 17  1  0
  5 18  1  0
  5 19  1  0
  6 20  1  0
  6 21  1  0
M  END
