
     RDKit          3D

 21 22  0  0  0  0  0  0  0  0999 V2000
    1.8108   -0.0649   -0.8466 C   0  0  0  0  0  0  0  0  0  0  0  0
    0.7882   -0.0854    0.2634 C   0  0  0  0  0  0  0  0  0  0  0  0
    1.4243   -0.1555    1.4756 O   0  0  0  0  0  0  0  0  0  0  0  0
   -0.2578   -1.1258    0.0391 C   0  0  0  0  0  0  0  0  0  0  0  0
   -1.5030   -0.6190    0.7721 C   0  0  0  0  0  0  0  0  0  0  0  0
   -1.3809    0.5217   -0.2499 C   0  0  0  0  0  0  0  0  0  0  0  0
   -0.9638   -0.5778   -1.2132 C   0  0  0  0  0  0  0  0  0  0  0  0
   -0.1018    1.1729    0.1952 C   0  0  0  0  0  0  0  0  0  0  0  0
   -0.2477    1.6916    1.4887 O   0  0  0  0  0  0  0  0  0  0  0  0
    1.8425   -1.1014   -1.2757 H   0  0  0  0  0  0  0  0  0  0  0  0
    2.8192    0.1626   -0.4522 H   0  0  0  0  0  0  0  0  0  0  0  0
    1.5333    0.6261   -1.6740 H   0  0  0  0  0  0  0  0  0  0  0  0
    2.0989   -0.8740    1.4250 H   0  0  0  0  0  0  0  0  0  0  0  0
   -0.0393   -2.1562    0.0701 H   0  0  0  0  0  0  0  0  0  0  0  0
   -2.3349   -1.3108    0.5616 H   0  0  0  0  0  0  0  0  0  0  0  0
   -1.3422   -0.3075    1.8023 H   0  0  0  0  0  0  0  0  0  0  0  0
   -2.2406    1.0942   -0.4575 H   0  0  0  0  0  0  0  0  0  0  0  0
   -1.8474   -1.1669   -1.4937 H   0  0  0  0  0  0  0  0  0  0  0  0
   -0.2599   -0.2930   -1.9927 H   0  0  0  0  0  0  0  0  0  0  0  0
    0.2970    1.9161   -0.4921 H   0  0  0  0  0  0  0  0  0  0  0  0
   -0.0948    2.6531    1.5246 H   0  0  0  0  0  0  0  0  0  0  0  0
  1  2  1  0
  2  3  1  0
  2  4  1  0
  4  5  1  0
  5  6  1  0
  6  7  1  0
  6  8  1  0
  8  9  1  0
  8  2  1  0
  7  4  1  0
  1 10  1  0
  1 11  1  0
  1 12  1  0
  3 13  1  0
  4 14  1  0
  5 15  1  0
  5 16  1  0
  6 17  1  0
  7 18  1  0
  7 19  1  0
  8 20  1  0
  9 21  1  0
M  END
