
     RDKit          3D

 19 20  0  0  0  0  0  0  0  0999 V2000
   -1.3728    0.8844   -0.9536 C   0  0  0  0  0  0  0  0  0  0  0  0
   -0.2993    0.1033   -0.2833 C   0  0  0  0  0  0  0  0  0  0  0  0
   -0.8313   -0.9701    0.6168 C   0  0  0  0  0  0  0  0  0  0  0  0
   -1.6191   -0.3909    1.6102 O   0  0  0  0  0  0  0  0  0  0  0  0
    0.7965    0.9555    0.2696 C   0  0  0  0  0  0  0  0  0  0  0  0
    1.7411   -0.0458    0.8593 C   0  0  0  0  0  0  0  0  0  0  0  0
    1.7874   -0.9569   -0.1130 C   0  0  0  0  0  0  0  0  0  0  0  0
    0.8527   -0.3333   -1.1192 C   0  0  0  0  0  0  0  0  0  0  0  0
    1.2924    1.0050   -1.0549 O   0  0  0  0  0  0  0  0  0  0  0  0
   -2.2187    0.1789   -1.1711 H   0  0  0  0  0  0  0  0  0  0  0  0
   -1.0112    1.3639   -1.8894 H   0  0  0  0  0  0  0  0  0  0  0  0
   -1.7681    1.6451   -0.2312 H   0  0  0  0  0  0  0  0  0  0  0  0
   -0.0558   -1.6362    1.0208 H   0  0  0  0  0  0  0  0  0  0  0  0
   -1.5256   -1.5964   -0.0135 H   0  0  0  0  0  0  0  0  0  0  0  0
   -1.6517    0.6009    1.5389 H   0  0  0  0  0  0  0  0  0  0  0  0
    0.6046    1.8583    0.7744 H   0  0  0  0  0  0  0  0  0  0  0  0
    2.2215    0.0166    1.8233 H   0  0  0  0  0  0  0  0  0  0  0  0
    2.3247   -1.8907   -0.2030 H   0  0  0  0  0  0  0  0  0  0  0  0
    0.7328   -0.7917   -2.0572 H   0  0  0  0  0  0  0  0  0  0  0  0
  1  2  1  0
  2  3  1  0
  3  4  1  0
  2  5  1  0
  5  6  1  0
  6  7  2  0
  7  8  1  0
  8  9  1  0
  8  2  1  0
  9  5  1  0
  1 10  1  0
  1 11  1  0
  1 12  1  0
  3 13  1  0
  3 14  1  0
  4 15  1  0
  5 16  1  0
  6 17  1  0
  7 18  1  0
  8 19  1  0
M  END
