
     RDKit          3D

 23 24  0  0  0  0  0  0  0  0999 V2000
    1.4986    0.6440   -1.1099 C   0  0  0  0  0  0  0  0  0  0  0  0
    0.6893    0.1050    0.0213 C   0  0  0  0  0  0  0  0  0  0  0  0
    1.5039    0.0977    1.2711 C   0  0  0  0  0  0  0  0  0  0  0  0
    0.2674   -1.3320   -0.3518 C   0  0  0  0  0  0  0  0  0  0  0  0
   -1.2055   -1.1298   -0.4394 C   0  0  0  0  0  0  0  0  0  0  0  0
   -1.4891   -0.3680    0.8615 C   0  0  0  0  0  0  0  0  0  0  0  0
   -0.6640    0.7209    0.1698 C   0  0  0  0  0  0  0  0  0  0  0  0
   -0.8157    1.9788    0.5619 O   0  0  0  0  0  0  0  0  0  0  0  0
   -1.3980    0.2477   -1.0863 C   0  0  0  0  0  0  0  0  0  0  0  0
    1.9254   -0.1804   -1.7464 H   0  0  0  0  0  0  0  0  0  0  0  0
    2.4065    1.2203   -0.7703 H   0  0  0  0  0  0  0  0  0  0  0  0
    0.9525    1.2999   -1.7942 H   0  0  0  0  0  0  0  0  0  0  0  0
    0.8992   -0.2632    2.1224 H   0  0  0  0  0  0  0  0  0  0  0  0
    2.3466   -0.6136    1.1627 H   0  0  0  0  0  0  0  0  0  0  0  0
    1.8434    1.1223    1.4716 H   0  0  0  0  0  0  0  0  0  0  0  0
    0.7561   -1.6760   -1.2607 H   0  0  0  0  0  0  0  0  0  0  0  0
    0.4746   -2.0177    0.5086 H   0  0  0  0  0  0  0  0  0  0  0  0
   -1.8661   -1.9071   -0.7149 H   0  0  0  0  0  0  0  0  0  0  0  0
   -1.0175   -0.8351    1.7232 H   0  0  0  0  0  0  0  0  0  0  0  0
   -2.5440   -0.0821    0.9827 H   0  0  0  0  0  0  0  0  0  0  0  0
   -1.2456    2.0051    1.4743 H   0  0  0  0  0  0  0  0  0  0  0  0
   -2.4524    0.5669   -1.0337 H   0  0  0  0  0  0  0  0  0  0  0  0
   -0.8658    0.3964   -2.0235 H   0  0  0  0  0  0  0  0  0  0  0  0
  1  2  1  0
  2  3  1  0
  2  4  1  0
  4  5  1  0
  5  6  1  0
  6  7  1  0
  7  8  1  0
  7  9  1  0
  7  2  1  0
  9  5  1  0
  1 10  1  0
  1 11  1  0
  1 12  1  0
  3 13  1  0
  3 14  1  0
  3 15  1  0
  4 16  1  0
  4 17  1  0
  5 18  1  0
  6 19  1  0
  6 20  1  0
  8 21  1  0
  9 22  1  0
  9 23  1  0
M  END
