
     RDKit          3D

 21 23  0  0  0  0  0  0  0  0999 V2000
   -1.6214    1.1964    0.5275 C   0  0  0  0  0  0  0  0  0  0  0  0
   -0.8030   -0.0080    0.0530 C   0  0  0  0  0  0  0  0  0  0  0  0
    0.5100    0.3520   -0.5373 C   0  0  0  0  0  0  0  0  0  0  0  0
    1.4814    1.0841    0.3330 C   0  0  0  0  0  0  0  0  0  0  0  0
    2.6018    0.1487   -0.0486 C   0  0  0  0  0  0  0  0  0  0  0  0
    2.6931   -0.3643   -1.3152 O   0  0  0  0  0  0  0  0  0  0  0  0
    1.5259   -0.7461   -0.6794 C   0  0  0  0  0  0  0  0  0  0  0  0
   -1.6214   -0.9817   -0.7992 C   0  0  0  0  0  0  0  0  0  0  0  0
   -1.1177   -1.3285    0.6099 C   0  0  0  0  0  0  0  0  0  0  0  0
   -1.6027    2.0118   -0.2115 H   0  0  0  0  0  0  0  0  0  0  0  0
   -1.2398    1.5955    1.4868 H   0  0  0  0  0  0  0  0  0  0  0  0
   -2.6451    0.8606    0.6797 H   0  0  0  0  0  0  0  0  0  0  0  0
    0.3614    0.8436   -1.5366 H   0  0  0  0  0  0  0  0  0  0  0  0
    1.6652    2.1577    0.0649 H   0  0  0  0  0  0  0  0  0  0  0  0
    1.2420    0.9491    1.4137 H   0  0  0  0  0  0  0  0  0  0  0  0
    3.2430   -0.2823    0.7387 H   0  0  0  0  0  0  0  0  0  0  0  0
    1.4192   -1.7042   -0.1878 H   0  0  0  0  0  0  0  0  0  0  0  0
   -1.1075   -1.5032   -1.6252 H   0  0  0  0  0  0  0  0  0  0  0  0
   -2.6960   -0.7908   -0.9358 H   0  0  0  0  0  0  0  0  0  0  0  0
   -1.9254   -1.3684    1.3794 H   0  0  0  0  0  0  0  0  0  0  0  0
   -0.3630   -2.1221    0.7131 H   0  0  0  0  0  0  0  0  0  0  0  0
  1  2  1  0
  2  3  1  0
  3  4  1  0
  4  5  1  0
  5  6  1  0
  6  7  1  0
  2  8  1  0
  8  9  1  0
  9  2  1  0
  7  3  1  0
  7  5  1  0
  1 10  1  0
  1 11  1  0
  1 12  1  0
  3 13  1  0
  4 14  1  0
  4 15  1  0
  5 16  1  0
  7 17  1  0
  8 18  1  0
  8 19  1  0
  9 20  1  0
  9 21  1  0
M  END
