
     RDKit          3D

 21 22  0  0  0  0  0  0  0  0999 V2000
   -1.8084    1.0232    0.4621 C   0  0  0  0  0  0  0  0  0  0  0  0
   -0.8954   -0.0222   -0.1012 C   0  0  0  0  0  0  0  0  0  0  0  0
   -1.5450   -1.2970   -0.5523 C   0  0  0  0  0  0  0  0  0  0  0  0
    0.3217   -0.3393    0.7427 C   0  0  0  0  0  0  0  0  0  0  0  0
    0.6515    0.8348    1.4591 O   0  0  0  0  0  0  0  0  0  0  0  0
    1.1618   -0.4418   -0.4757 C   0  0  0  0  0  0  0  0  0  0  0  0
    2.5825    0.0263   -0.3016 C   0  0  0  0  0  0  0  0  0  0  0  0
    0.7482   -0.5081   -1.7584 O   0  0  0  0  0  0  0  0  0  0  0  0
    0.1327    0.5033   -1.0964 C   0  0  0  0  0  0  0  0  0  0  0  0
   -2.2722    1.5562   -0.4106 H   0  0  0  0  0  0  0  0  0  0  0  0
   -1.2746    1.7194    1.1311 H   0  0  0  0  0  0  0  0  0  0  0  0
   -2.5774    0.5071    1.0642 H   0  0  0  0  0  0  0  0  0  0  0  0
   -1.5591   -1.3118   -1.6800 H   0  0  0  0  0  0  0  0  0  0  0  0
   -0.9855   -2.2074   -0.2389 H   0  0  0  0  0  0  0  0  0  0  0  0
   -2.5771   -1.4220   -0.1865 H   0  0  0  0  0  0  0  0  0  0  0  0
    0.2388   -1.2251    1.3902 H   0  0  0  0  0  0  0  0  0  0  0  0
    0.3246    0.8270    2.3682 H   0  0  0  0  0  0  0  0  0  0  0  0
    2.8799    0.0292    0.7805 H   0  0  0  0  0  0  0  0  0  0  0  0
    3.2326   -0.7772   -0.7602 H   0  0  0  0  0  0  0  0  0  0  0  0
    2.7711    0.9959   -0.7587 H   0  0  0  0  0  0  0  0  0  0  0  0
    0.4493    1.5295   -1.0775 H   0  0  0  0  0  0  0  0  0  0  0  0
  1  2  1  0
  2  3  1  0
  2  4  1  0
  4  5  1  0
  4  6  1  0
  6  7  1  0
  6  8  1  0
  8  9  1  0
  9  2  1  0
  9  6  1  0
  1 10  1  0
  1 11  1  0
  1 12  1  0
  3 13  1  0
  3 14  1  0
  3 15  1  0
  4 16  1  0
  5 17  1  0
  7 18  1  0
  7 19  1  0
  7 20  1  0
  9 21  1  0
M  END
