
     RDKit          3D

 18 19  0  0  0  0  0  0  0  0999 V2000
   -0.7558    0.4608    1.3280 C   0  0  0  0  0  0  0  0  0  0  0  0
   -0.6603   -0.2067   -0.0171 C   0  0  0  0  0  0  0  0  0  0  0  0
   -1.8805    0.0077   -0.8383 C   0  0  0  0  0  0  0  0  0  0  0  0
   -0.1958   -1.4929    0.1184 O   0  0  0  0  0  0  0  0  0  0  0  0
    1.0888   -1.2799   -0.3019 C   0  0  0  0  0  0  0  0  0  0  0  0
    1.8516   -0.0560   -0.0514 C   0  0  0  0  0  0  0  0  0  0  0  0
    1.8994    0.5709    1.1815 O   0  0  0  0  0  0  0  0  0  0  0  0
    0.5890    0.1011   -0.8088 C   0  0  0  0  0  0  0  0  0  0  0  0
   -0.3831    1.4855    1.3470 H   0  0  0  0  0  0  0  0  0  0  0  0
   -0.2563   -0.1457    2.1325 H   0  0  0  0  0  0  0  0  0  0  0  0
   -1.8444    0.4451    1.6135 H   0  0  0  0  0  0  0  0  0  0  0  0
   -2.8006   -0.2238   -0.2688 H   0  0  0  0  0  0  0  0  0  0  0  0
   -1.9468    1.1154   -1.0546 H   0  0  0  0  0  0  0  0  0  0  0  0
   -1.8586   -0.4871   -1.8168 H   0  0  0  0  0  0  0  0  0  0  0  0
    1.4496   -1.9882   -1.0720 H   0  0  0  0  0  0  0  0  0  0  0  0
    2.7784    0.0762   -0.6478 H   0  0  0  0  0  0  0  0  0  0  0  0
    2.3878    1.4430    1.0501 H   0  0  0  0  0  0  0  0  0  0  0  0
    0.5376    0.1745   -1.8934 H   0  0  0  0  0  0  0  0  0  0  0  0
  1  2  1  0
  2  3  1  0
  2  4  1  0
  4  5  1  0
  5  6  1  0
  6  7  1  0
  6  8  1  0
  8  2  1  0
  8  5  1  0
  1  9  1  0
  1 10  1  0
  1 11  1  0
  3 12  1  0
  3 13  1  0
  3 14  1  0
  5 15  1  0
  6 16  1  0
  7 17  1  0
  8 18  1  0
M  END
