
     RDKit          3D

 17 17  0  0  0  0  0  0  0  0999 V2000
    1.8742    0.1403   -0.3825 C   0  0  0  0  0  0  0  0  0  0  0  0
    0.6165   -0.4071    0.2221 C   0  0  0  0  0  0  0  0  0  0  0  0
    0.7276   -1.6619    0.8168 O   0  0  0  0  0  0  0  0  0  0  0  0
   -0.3203    0.5330    0.9117 C   0  0  0  0  0  0  0  0  0  0  0  0
    0.0830    1.8662    0.9518 O   0  0  0  0  0  0  0  0  0  0  0  0
   -0.6595   -0.0800   -0.4441 C   0  0  0  0  0  0  0  0  0  0  0  0
   -0.7034    0.8628   -1.4686 O   0  0  0  0  0  0  0  0  0  0  0  0
   -1.6872   -1.1561   -0.4653 C   0  0  0  0  0  0  0  0  0  0  0  0
   -1.7315   -2.0236    0.3839 O   0  0  0  0  0  0  0  0  0  0  0  0
    1.6681    0.4962   -1.4130 H   0  0  0  0  0  0  0  0  0  0  0  0
    2.6800   -0.6195   -0.3579 H   0  0  0  0  0  0  0  0  0  0  0  0
    2.1464    1.0546    0.2098 H   0  0  0  0  0  0  0  0  0  0  0  0
    0.3521   -1.6844    1.7335 H   0  0  0  0  0  0  0  0  0  0  0  0
   -0.9268    0.1956    1.7677 H   0  0  0  0  0  0  0  0  0  0  0  0
   -0.1517    2.2658    0.0890 H   0  0  0  0  0  0  0  0  0  0  0  0
   -1.5356    1.4102   -1.3044 H   0  0  0  0  0  0  0  0  0  0  0  0
   -2.4319   -1.1920   -1.2506 H   0  0  0  0  0  0  0  0  0  0  0  0
  1  2  1  0
  2  3  1  0
  2  4  1  0
  4  5  1  0
  4  6  1  0
  6  7  1  0
  6  8  1  0
  8  9  2  0
  6  2  1  0
  1 10  1  0
  1 11  1  0
  1 12  1  0
  3 13  1  0
  4 14  1  0
  5 15  1  0
  7 16  1  0
  8 17  1  0
M  END
