
     RDKit          3D

 21 23  0  0  0  0  0  0  0  0999 V2000
   -1.9322    0.4557   -0.6061 C   0  0  0  0  0  0  0  0  0  0  0  0
   -0.7539   -0.1459    0.1722 C   0  0  0  0  0  0  0  0  0  0  0  0
   -1.1282   -1.1525    1.2001 C   0  0  0  0  0  0  0  0  0  0  0  0
    0.3197   -0.6057   -0.8275 C   0  0  0  0  0  0  0  0  0  0  0  0
    1.3227   -1.3245   -0.2405 O   0  0  0  0  0  0  0  0  0  0  0  0
    2.2118   -0.5127    0.3870 C   0  0  0  0  0  0  0  0  0  0  0  0
    1.6224    0.9051    0.3414 C   0  0  0  0  0  0  0  0  0  0  0  0
    0.7798    0.8116   -0.8368 C   0  0  0  0  0  0  0  0  0  0  0  0
    0.1683    0.9530    0.5769 C   0  0  0  0  0  0  0  0  0  0  0  0
   -2.1620    1.4619   -0.1565 H   0  0  0  0  0  0  0  0  0  0  0  0
   -2.8358   -0.1469   -0.4955 H   0  0  0  0  0  0  0  0  0  0  0  0
   -1.6496    0.6557   -1.6553 H   0  0  0  0  0  0  0  0  0  0  0  0
   -2.2451   -1.2876    1.1504 H   0  0  0  0  0  0  0  0  0  0  0  0
   -0.7248   -2.1719    0.9309 H   0  0  0  0  0  0  0  0  0  0  0  0
   -0.8624   -0.8784    2.2316 H   0  0  0  0  0  0  0  0  0  0  0  0
   -0.1126   -1.0125   -1.7387 H   0  0  0  0  0  0  0  0  0  0  0  0
    3.2271   -0.4952   -0.0613 H   0  0  0  0  0  0  0  0  0  0  0  0
    2.3489   -0.7491    1.4622 H   0  0  0  0  0  0  0  0  0  0  0  0
    2.2283    1.7521    0.6157 H   0  0  0  0  0  0  0  0  0  0  0  0
    0.4584    1.5694   -1.5089 H   0  0  0  0  0  0  0  0  0  0  0  0
   -0.2810    1.9187    0.8439 H   0  0  0  0  0  0  0  0  0  0  0  0
  1  2  1  0
  2  3  1  0
  2  4  1  0
  4  5  1  0
  5  6  1  0
  6  7  1  0
  7  8  1  0
  8  9  1  0
  9  2  1  0
  8  4  1  0
  9  7  1  0
  1 10  1  0
  1 11  1  0
  1 12  1  0
  3 13  1  0
  3 14  1  0
  3 15  1  0
  4 16  1  0
  6 17  1  0
  6 18  1  0
  7 19  1  0
  8 20  1  0
  9 21  1  0
M  END
