
     RDKit          3D

 23 24  0  0  0  0  0  0  0  0999 V2000
   -1.6830    1.3732   -0.5921 C   0  0  0  0  0  0  0  0  0  0  0  0
   -1.4073   -0.0318   -0.1514 C   0  0  0  0  0  0  0  0  0  0  0  0
   -2.5653   -0.9980   -0.4050 C   0  0  0  0  0  0  0  0  0  0  0  0
   -0.6893   -0.1433    1.1786 C   0  0  0  0  0  0  0  0  0  0  0  0
   -0.0599   -0.6052   -0.1219 C   0  0  0  0  0  0  0  0  0  0  0  0
    1.1684    0.1618   -0.5083 C   0  0  0  0  0  0  0  0  0  0  0  0
    2.4181   -0.7002   -0.3751 C   0  0  0  0  0  0  0  0  0  0  0  0
    3.0028    0.5367    0.2382 C   0  0  0  0  0  0  0  0  0  0  0  0
    1.7005    0.9714    0.5137 O   0  0  0  0  0  0  0  0  0  0  0  0
   -0.9742    2.0697   -0.1330 H   0  0  0  0  0  0  0  0  0  0  0  0
   -2.7067    1.6526   -0.2106 H   0  0  0  0  0  0  0  0  0  0  0  0
   -1.7083    1.5063   -1.6880 H   0  0  0  0  0  0  0  0  0  0  0  0
   -3.4225   -0.4906   -0.8922 H   0  0  0  0  0  0  0  0  0  0  0  0
   -2.9381   -1.4271    0.5539 H   0  0  0  0  0  0  0  0  0  0  0  0
   -2.2333   -1.7920   -1.1056 H   0  0  0  0  0  0  0  0  0  0  0  0
   -1.0227   -0.8883    1.9158 H   0  0  0  0  0  0  0  0  0  0  0  0
   -0.3156    0.7979    1.6504 H   0  0  0  0  0  0  0  0  0  0  0  0
    0.0135   -1.7268   -0.1836 H   0  0  0  0  0  0  0  0  0  0  0  0
    1.1518    0.6830   -1.4686 H   0  0  0  0  0  0  0  0  0  0  0  0
    2.8651   -1.0003   -1.3391 H   0  0  0  0  0  0  0  0  0  0  0  0
    2.2594   -1.4729    0.3719 H   0  0  0  0  0  0  0  0  0  0  0  0
    3.5301    1.2096   -0.4896 H   0  0  0  0  0  0  0  0  0  0  0  0
    3.6168    0.3142    1.1362 H   0  0  0  0  0  0  0  0  0  0  0  0
  1  2  1  0
  2  3  1  0
  2  4  1  0
  4  5  1  0
  5  6  1  0
  6  7  1  0
  7  8  1  0
  8  9  1  0
  5  2  1  0
  9  6  1  0
  1 10  1  0
  1 11  1  0
  1 12  1  0
  3 13  1  0
  3 14  1  0
  3 15  1  0
  4 16  1  0
  4 17  1  0
  5 18  1  0
  6 19  1  0
  7 20  1  0
  7 21  1  0
  8 22  1  0
  8 23  1  0
M  END
