
     RDKit          3D

 21 22  0  0  0  0  0  0  0  0999 V2000
   -2.1481   -0.3280   -0.5275 C   0  0  0  0  0  0  0  0  0  0  0  0
   -0.7962   -0.0964    0.0567 C   0  0  0  0  0  0  0  0  0  0  0  0
   -0.7506    0.3978    1.4864 C   0  0  0  0  0  0  0  0  0  0  0  0
    0.2652   -1.0689   -0.4151 C   0  0  0  0  0  0  0  0  0  0  0  0
    1.3856   -1.2926    0.5196 C   0  0  0  0  0  0  0  0  0  0  0  0
    2.1396   -0.2277    0.5809 C   0  0  0  0  0  0  0  0  0  0  0  0
    1.6031    0.8486   -0.3194 C   0  0  0  0  0  0  0  0  0  0  0  0
    0.2872    0.3606   -0.8200 C   0  0  0  0  0  0  0  0  0  0  0  0
   -0.0678    0.7330   -2.1096 O   0  0  0  0  0  0  0  0  0  0  0  0
   -2.1987   -1.2730   -1.1412 H   0  0  0  0  0  0  0  0  0  0  0  0
   -2.4863    0.4743   -1.2110 H   0  0  0  0  0  0  0  0  0  0  0  0
   -2.8593   -0.4971    0.3126 H   0  0  0  0  0  0  0  0  0  0  0  0
   -1.0835   -0.3480    2.2173 H   0  0  0  0  0  0  0  0  0  0  0  0
   -1.4629    1.2600    1.5533 H   0  0  0  0  0  0  0  0  0  0  0  0
    0.2325    0.7793    1.7739 H   0  0  0  0  0  0  0  0  0  0  0  0
    0.0121   -1.7847   -1.1976 H   0  0  0  0  0  0  0  0  0  0  0  0
    1.5805   -2.1951    1.0859 H   0  0  0  0  0  0  0  0  0  0  0  0
    3.0323   -0.0972    1.1814 H   0  0  0  0  0  0  0  0  0  0  0  0
    1.5098    1.7965    0.2534 H   0  0  0  0  0  0  0  0  0  0  0  0
    2.3038    0.9298   -1.1778 H   0  0  0  0  0  0  0  0  0  0  0  0
   -0.4983    1.6287   -2.1022 H   0  0  0  0  0  0  0  0  0  0  0  0
  1  2  1  0
  2  3  1  0
  2  4  1  0
  4  5  1  0
  5  6  2  0
  6  7  1  0
  7  8  1  0
  8  9  1  0
  8  2  1  0
  8  4  1  0
  1 10  1  0
  1 11  1  0
  1 12  1  0
  3 13  1  0
  3 14  1  0
  3 15  1  0
  4 16  1  0
  5 17  1  0
  6 18  1  0
  7 19  1  0
  7 20  1  0
  9 21  1  0
M  END
