
     RDKit          3D

 19 20  0  0  0  0  0  0  0  0999 V2000
   -0.2341    1.3802    1.1883 C   0  0  0  0  0  0  0  0  0  0  0  0
   -0.0264    0.3570    0.0591 C   0  0  0  0  0  0  0  0  0  0  0  0
   -1.3545    0.0938   -0.6663 C   0  0  0  0  0  0  0  0  0  0  0  0
   -2.3163   -0.4340    0.3100 C   0  0  0  0  0  0  0  0  0  0  0  0
   -2.1058   -0.6315    1.4851 O   0  0  0  0  0  0  0  0  0  0  0  0
    0.8176   -0.7952    0.2323 C   0  0  0  0  0  0  0  0  0  0  0  0
    1.9292   -1.2223   -0.7438 C   0  0  0  0  0  0  0  0  0  0  0  0
    2.4690    0.0237   -0.3236 O   0  0  0  0  0  0  0  0  0  0  0  0
    1.1809    0.4480   -0.6713 C   0  0  0  0  0  0  0  0  0  0  0  0
    0.2649    0.9223    2.0696 H   0  0  0  0  0  0  0  0  0  0  0  0
   -1.2766    1.5517    1.4352 H   0  0  0  0  0  0  0  0  0  0  0  0
    0.3290    2.3123    0.9491 H   0  0  0  0  0  0  0  0  0  0  0  0
   -1.7305    1.0741   -1.0411 H   0  0  0  0  0  0  0  0  0  0  0  0
   -1.2142   -0.5423   -1.5515 H   0  0  0  0  0  0  0  0  0  0  0  0
   -3.3239   -0.6763   -0.0450 H   0  0  0  0  0  0  0  0  0  0  0  0
    1.3154   -0.7910    1.2545 H   0  0  0  0  0  0  0  0  0  0  0  0
    1.6452   -1.2984   -1.7836 H   0  0  0  0  0  0  0  0  0  0  0  0
    2.5634   -2.0311   -0.3722 H   0  0  0  0  0  0  0  0  0  0  0  0
    1.0676    0.2590   -1.7848 H   0  0  0  0  0  0  0  0  0  0  0  0
  1  2  1  0
  2  3  1  0
  3  4  1  0
  4  5  2  0
  2  6  1  0
  6  7  1  0
  7  8  1  0
  8  9  1  0
  9  2  1  0
  9  6  1  0
  1 10  1  0
  1 11  1  0
  1 12  1  0
  3 13  1  0
  3 14  1  0
  4 15  1  0
  6 16  1  0
  7 17  1  0
  7 18  1  0
  9 19  1  0
M  END
