
     RDKit          3D

 21 21  0  0  0  0  0  0  0  0999 V2000
   -1.0552   -1.4645   -0.2525 C   0  0  0  0  0  0  0  0  0  0  0  0
   -0.5006   -0.0860   -0.0977 C   0  0  0  0  0  0  0  0  0  0  0  0
   -1.6200    0.8973   -0.3492 C   0  0  0  0  0  0  0  0  0  0  0  0
   -2.6709    0.7384    0.5351 O   0  0  0  0  0  0  0  0  0  0  0  0
    0.0888    0.0687    1.2527 C   0  0  0  0  0  0  0  0  0  0  0  0
    1.4084   -0.0075    1.2000 C   0  0  0  0  0  0  0  0  0  0  0  0
    1.8472   -0.2240   -0.2087 C   0  0  0  0  0  0  0  0  0  0  0  0
    2.9112    0.6280   -0.5130 O   0  0  0  0  0  0  0  0  0  0  0  0
    0.6550    0.2196   -0.9962 C   0  0  0  0  0  0  0  0  0  0  0  0
   -0.3535   -2.1815   -0.7119 H   0  0  0  0  0  0  0  0  0  0  0  0
   -1.3327   -1.8322    0.7774 H   0  0  0  0  0  0  0  0  0  0  0  0
   -2.0402   -1.4672   -0.8056 H   0  0  0  0  0  0  0  0  0  0  0  0
   -2.0294    0.6389   -1.3665 H   0  0  0  0  0  0  0  0  0  0  0  0
   -1.1946    1.9052   -0.3752 H   0  0  0  0  0  0  0  0  0  0  0  0
   -2.8103    1.5704    1.0505 H   0  0  0  0  0  0  0  0  0  0  0  0
   -0.4675    0.2220    2.1570 H   0  0  0  0  0  0  0  0  0  0  0  0
    2.1211    0.0680    2.0209 H   0  0  0  0  0  0  0  0  0  0  0  0
    2.0914   -1.2913   -0.4004 H   0  0  0  0  0  0  0  0  0  0  0  0
    3.6406    0.4613    0.1532 H   0  0  0  0  0  0  0  0  0  0  0  0
    0.5936   -0.2060   -1.9927 H   0  0  0  0  0  0  0  0  0  0  0  0
    0.7175    1.3422   -1.0773 H   0  0  0  0  0  0  0  0  0  0  0  0
  1  2  1  0
  2  3  1  0
  3  4  1  0
  2  5  1  0
  5  6  2  0
  6  7  1  0
  7  8  1  0
  7  9  1  0
  9  2  1  0
  1 10  1  0
  1 11  1  0
  1 12  1  0
  3 13  1  0
  3 14  1  0
  4 15  1  0
  5 16  1  0
  6 17  1  0
  7 18  1  0
  8 19  1  0
  9 20  1  0
  9 21  1  0
M  END
