
     RDKit          3D

 20 20  0  0  0  0  0  0  0  0999 V2000
   -1.8239   -0.7406   -0.2305 C   0  0  0  0  0  0  0  0  0  0  0  0
   -0.5833    0.1431   -0.1562 C   0  0  0  0  0  0  0  0  0  0  0  0
   -1.0014    1.5003    0.3794 C   0  0  0  0  0  0  0  0  0  0  0  0
   -0.0816    0.3034   -1.4033 O   0  0  0  0  0  0  0  0  0  0  0  0
    1.2511    0.0121   -1.4315 C   0  0  0  0  0  0  0  0  0  0  0  0
    1.6640   -0.5289   -0.0990 C   0  0  0  0  0  0  0  0  0  0  0  0
    0.4124   -0.5459    0.7126 C   0  0  0  0  0  0  0  0  0  0  0  0
    0.5082    0.1590    1.9078 O   0  0  0  0  0  0  0  0  0  0  0  0
   -2.0005   -1.1732    0.7686 H   0  0  0  0  0  0  0  0  0  0  0  0
   -2.6836   -0.1007   -0.5365 H   0  0  0  0  0  0  0  0  0  0  0  0
   -1.6879   -1.5762   -0.9323 H   0  0  0  0  0  0  0  0  0  0  0  0
   -0.2949    1.7644    1.1712 H   0  0  0  0  0  0  0  0  0  0  0  0
   -2.0434    1.4657    0.7389 H   0  0  0  0  0  0  0  0  0  0  0  0
   -0.9582    2.2747   -0.4169 H   0  0  0  0  0  0  0  0  0  0  0  0
    1.4100   -0.7263   -2.2705 H   0  0  0  0  0  0  0  0  0  0  0  0
    1.9029    0.8773   -1.6888 H   0  0  0  0  0  0  0  0  0  0  0  0
    2.4789    0.0425    0.3738 H   0  0  0  0  0  0  0  0  0  0  0  0
    2.0830   -1.5598   -0.2869 H   0  0  0  0  0  0  0  0  0  0  0  0
    0.1178   -1.5894    0.9950 H   0  0  0  0  0  0  0  0  0  0  0  0
    1.3304   -0.0017    2.4051 H   0  0  0  0  0  0  0  0  0  0  0  0
  1  2  1  0
  2  3  1  0
  2  4  1  0
  4  5  1  0
  5  6  1  0
  6  7  1  0
  7  8  1  0
  7  2  1  0
  1  9  1  0
  1 10  1  0
  1 11  1  0
  3 12  1  0
  3 13  1  0
  3 14  1  0
  5 15  1  0
  5 16  1  0
  6 17  1  0
  6 18  1  0
  7 19  1  0
  8 20  1  0
M  END
