
     RDKit          3D

 19 21  0  0  0  0  0  0  0  0999 V2000
   -1.9983    0.8910    0.2049 C   0  0  0  0  0  0  0  0  0  0  0  0
   -1.1895   -0.3343   -0.2462 C   0  0  0  0  0  0  0  0  0  0  0  0
   -2.0273   -1.3319   -0.7636 O   0  0  0  0  0  0  0  0  0  0  0  0
    0.0794   -0.1956   -0.8863 C   0  0  0  0  0  0  0  0  0  0  0  0
    0.9750    0.9474   -0.3844 C   0  0  0  0  0  0  0  0  0  0  0  0
    2.2127    0.8416    0.3898 C   0  0  0  0  0  0  0  0  0  0  0  0
    1.4431   -0.3310    0.3691 C   0  0  0  0  0  0  0  0  0  0  0  0
    1.9768   -1.2910   -0.5578 O   0  0  0  0  0  0  0  0  0  0  0  0
   -0.0001   -0.5972    0.5743 C   0  0  0  0  0  0  0  0  0  0  0  0
   -1.8296    1.0874    1.2991 H   0  0  0  0  0  0  0  0  0  0  0  0
   -1.6460    1.7912   -0.3227 H   0  0  0  0  0  0  0  0  0  0  0  0
   -3.0716    0.7737    0.0750 H   0  0  0  0  0  0  0  0  0  0  0  0
   -2.7165   -1.6110   -0.1424 H   0  0  0  0  0  0  0  0  0  0  0  0
    0.4598   -0.8634   -1.6501 H   0  0  0  0  0  0  0  0  0  0  0  0
    0.3549    1.7198    0.0847 H   0  0  0  0  0  0  0  0  0  0  0  0
    3.1381    1.0034   -0.2229 H   0  0  0  0  0  0  0  0  0  0  0  0
    2.3770    1.3250    1.4006 H   0  0  0  0  0  0  0  0  0  0  0  0
    1.5545   -2.1558   -0.4447 H   0  0  0  0  0  0  0  0  0  0  0  0
   -0.0924   -1.6692    0.9272 H   0  0  0  0  0  0  0  0  0  0  0  0
  1  2  1  0
  2  3  1  0
  2  4  1  0
  4  5  1  0
  5  6  1  0
  6  7  1  0
  7  8  1  0
  7  9  1  0
  9  2  1  0
  9  4  1  0
  7  5  1  0
  1 10  1  0
  1 11  1  0
  1 12  1  0
  3 13  1  0
  4 14  1  0
  5 15  1  0
  6 16  1  0
  6 17  1  0
  8 18  1  0
  9 19  1  0
M  END
