
     RDKit          3D

 22 22  0  0  0  0  0  0  0  0999 V2000
   -1.1172   -1.0710    1.2209 C   0  0  0  0  0  0  0  0  0  0  0  0
   -0.4531   -0.1712    0.1969 C   0  0  0  0  0  0  0  0  0  0  0  0
   -1.6111    0.5463   -0.5042 C   0  0  0  0  0  0  0  0  0  0  0  0
   -1.1659    1.4144   -1.4787 O   0  0  0  0  0  0  0  0  0  0  0  0
    0.5031    0.8064    0.8262 C   0  0  0  0  0  0  0  0  0  0  0  0
    1.8645    0.2719    0.4439 C   0  0  0  0  0  0  0  0  0  0  0  0
    1.5707   -0.1566   -0.9994 C   0  0  0  0  0  0  0  0  0  0  0  0
    0.3441   -0.9900   -0.7965 C   0  0  0  0  0  0  0  0  0  0  0  0
   -1.7171   -0.4050    1.8774 H   0  0  0  0  0  0  0  0  0  0  0  0
   -1.8534   -1.6917    0.6438 H   0  0  0  0  0  0  0  0  0  0  0  0
   -0.4030   -1.6734    1.7850 H   0  0  0  0  0  0  0  0  0  0  0  0
   -2.2417    1.0121    0.2686 H   0  0  0  0  0  0  0  0  0  0  0  0
   -2.2352   -0.2868   -0.9368 H   0  0  0  0  0  0  0  0  0  0  0  0
   -1.1924    2.3557   -1.1686 H   0  0  0  0  0  0  0  0  0  0  0  0
    0.4193    1.8140    0.3387 H   0  0  0  0  0  0  0  0  0  0  0  0
    0.3627    0.8978    1.9080 H   0  0  0  0  0  0  0  0  0  0  0  0
    2.6430    1.0245    0.3911 H   0  0  0  0  0  0  0  0  0  0  0  0
    2.1472   -0.6391    0.9855 H   0  0  0  0  0  0  0  0  0  0  0  0
    2.4229   -0.7078   -1.4241 H   0  0  0  0  0  0  0  0  0  0  0  0
    1.3036    0.7539   -1.5386 H   0  0  0  0  0  0  0  0  0  0  0  0
   -0.2623   -1.1462   -1.6885 H   0  0  0  0  0  0  0  0  0  0  0  0
    0.6712   -1.9584   -0.3506 H   0  0  0  0  0  0  0  0  0  0  0  0
  1  2  1  0
  2  3  1  0
  3  4  1  0
  2  5  1  0
  5  6  1  0
  6  7  1  0
  7  8  1  0
  8  2  1  0
  1  9  1  0
  1 10  1  0
  1 11  1  0
  3 12  1  0
  3 13  1  0
  4 14  1  0
  5 15  1  0
  5 16  1  0
  6 17  1  0
  6 18  1  0
  7 19  1  0
  7 20  1  0
  8 21  1  0
  8 22  1  0
M  END
