
     RDKit          3D

 23 23  0  0  0  0  0  0  0  0999 V2000
   -2.0159    1.0873   -0.7515 C   0  0  0  0  0  0  0  0  0  0  0  0
   -1.1172    0.1229    0.0270 C   0  0  0  0  0  0  0  0  0  0  0  0
    0.2938    0.5610    0.0966 C   0  0  0  0  0  0  0  0  0  0  0  0
    0.8151    0.6676   -1.1927 O   0  0  0  0  0  0  0  0  0  0  0  0
    1.2020   -0.3094    0.9069 C   0  0  0  0  0  0  0  0  0  0  0  0
    2.6151    0.2383    0.9043 C   0  0  0  0  0  0  0  0  0  0  0  0
    3.4837   -0.5322    1.6382 O   0  0  0  0  0  0  0  0  0  0  0  0
   -1.8024   -0.4249    1.2663 C   0  0  0  0  0  0  0  0  0  0  0  0
   -1.5582   -1.2773    0.0097 C   0  0  0  0  0  0  0  0  0  0  0  0
   -1.4197    1.6346   -1.5099 H   0  0  0  0  0  0  0  0  0  0  0  0
   -2.5076    1.7928   -0.0338 H   0  0  0  0  0  0  0  0  0  0  0  0
   -2.8053    0.5511   -1.2967 H   0  0  0  0  0  0  0  0  0  0  0  0
    0.3674    1.5982    0.5328 H   0  0  0  0  0  0  0  0  0  0  0  0
    0.2846    0.0752   -1.7773 H   0  0  0  0  0  0  0  0  0  0  0  0
    0.8783   -0.3097    1.9880 H   0  0  0  0  0  0  0  0  0  0  0  0
    1.2463   -1.3483    0.5919 H   0  0  0  0  0  0  0  0  0  0  0  0
    2.9736    0.3268   -0.1588 H   0  0  0  0  0  0  0  0  0  0  0  0
    2.6453    1.2780    1.3285 H   0  0  0  0  0  0  0  0  0  0  0  0
    3.8318   -1.2455    1.0336 H   0  0  0  0  0  0  0  0  0  0  0  0
   -1.2030   -0.6458    2.1663 H   0  0  0  0  0  0  0  0  0  0  0  0
   -2.8453   -0.1507    1.4849 H   0  0  0  0  0  0  0  0  0  0  0  0
   -0.8882   -2.1340    0.1962 H   0  0  0  0  0  0  0  0  0  0  0  0
   -2.4742   -1.5562   -0.5539 H   0  0  0  0  0  0  0  0  0  0  0  0
  1  2  1  0
  2  3  1  0
  3  4  1  0
  3  5  1  0
  5  6  1  0
  6  7  1  0
  2  8  1  0
  8  9  1  0
  9  2  1  0
  1 10  1  0
  1 11  1  0
  1 12  1  0
  3 13  1  0
  4 14  1  0
  5 15  1  0
  5 16  1  0
  6 17  1  0
  6 18  1  0
  7 19  1  0
  8 20  1  0
  8 21  1  0
  9 22  1  0
  9 23  1  0
M  END
