
     RDKit          3D

 21 22  0  0  0  0  0  0  0  0999 V2000
   -2.1038    0.5985   -0.7684 C   0  0  0  0  0  0  0  0  0  0  0  0
   -0.7500    0.2604   -0.1809 C   0  0  0  0  0  0  0  0  0  0  0  0
   -0.7883   -0.3150    1.2112 C   0  0  0  0  0  0  0  0  0  0  0  0
   -1.5479   -1.5032    1.1416 O   0  0  0  0  0  0  0  0  0  0  0  0
    0.3789    1.1213   -0.6062 C   0  0  0  0  0  0  0  0  0  0  0  0
    1.6361    1.1801    0.1245 C   0  0  0  0  0  0  0  0  0  0  0  0
    2.2646    0.0298    0.0814 C   0  0  0  0  0  0  0  0  0  0  0  0
    1.4916   -0.9531   -0.6959 C   0  0  0  0  0  0  0  0  0  0  0  0
    0.2390   -0.2918   -1.1220 C   0  0  0  0  0  0  0  0  0  0  0  0
   -2.5515   -0.3655   -1.1004 H   0  0  0  0  0  0  0  0  0  0  0  0
   -1.9889    1.2584   -1.6502 H   0  0  0  0  0  0  0  0  0  0  0  0
   -2.7918    1.0084   -0.0056 H   0  0  0  0  0  0  0  0  0  0  0  0
   -1.3498    0.3561    1.8863 H   0  0  0  0  0  0  0  0  0  0  0  0
    0.2271   -0.5589    1.5605 H   0  0  0  0  0  0  0  0  0  0  0  0
   -1.1403   -2.0703    0.4183 H   0  0  0  0  0  0  0  0  0  0  0  0
    0.2292    1.9205   -1.3594 H   0  0  0  0  0  0  0  0  0  0  0  0
    1.9857    2.0834    0.6346 H   0  0  0  0  0  0  0  0  0  0  0  0
    3.2529   -0.1622    0.5735 H   0  0  0  0  0  0  0  0  0  0  0  0
    1.3292   -1.8366   -0.0308 H   0  0  0  0  0  0  0  0  0  0  0  0
    2.0528   -1.3088   -1.6004 H   0  0  0  0  0  0  0  0  0  0  0  0
   -0.0746   -0.4514   -2.1749 H   0  0  0  0  0  0  0  0  0  0  0  0
  1  2  1  0
  2  3  1  0
  3  4  1  0
  2  5  1  0
  5  6  1  0
  6  7  2  0
  7  8  1  0
  8  9  1  0
  9  2  1  0
  9  5  1  0
  1 10  1  0
  1 11  1  0
  1 12  1  0
  3 13  1  0
  3 14  1  0
  4 15  1  0
  5 16  1  0
  6 17  1  0
  7 18  1  0
  8 19  1  0
  8 20  1  0
  9 21  1  0
M  END
