
     RDKit          3D

 21 22  0  0  0  0  0  0  0  0999 V2000
   -2.0087   -0.3029    0.7073 C   0  0  0  0  0  0  0  0  0  0  0  0
   -0.8078    0.0754   -0.1311 C   0  0  0  0  0  0  0  0  0  0  0  0
   -1.2409    0.0342   -1.5762 C   0  0  0  0  0  0  0  0  0  0  0  0
   -0.2720    1.4061    0.2249 C   0  0  0  0  0  0  0  0  0  0  0  0
    0.9748    1.3359    0.6745 C   0  0  0  0  0  0  0  0  0  0  0  0
    1.3977   -0.0654    0.6623 C   0  0  0  0  0  0  0  0  0  0  0  0
    2.7746   -0.4341    0.1708 C   0  0  0  0  0  0  0  0  0  0  0  0
    2.3734   -0.5467    1.4902 O   0  0  0  0  0  0  0  0  0  0  0  0
    0.2845   -0.8998    0.1556 C   0  0  0  0  0  0  0  0  0  0  0  0
   -2.9484   -0.1890    0.1575 H   0  0  0  0  0  0  0  0  0  0  0  0
   -2.0575    0.3039    1.6381 H   0  0  0  0  0  0  0  0  0  0  0  0
   -1.9252   -1.3614    1.0279 H   0  0  0  0  0  0  0  0  0  0  0  0
   -2.0042    0.8359   -1.7007 H   0  0  0  0  0  0  0  0  0  0  0  0
   -1.6695   -0.9496   -1.8008 H   0  0  0  0  0  0  0  0  0  0  0  0
   -0.3730    0.2370   -2.2508 H   0  0  0  0  0  0  0  0  0  0  0  0
   -0.8465    2.3394    0.1254 H   0  0  0  0  0  0  0  0  0  0  0  0
    1.5615    2.1892    0.9921 H   0  0  0  0  0  0  0  0  0  0  0  0
    3.3740    0.4654   -0.1335 H   0  0  0  0  0  0  0  0  0  0  0  0
    2.8849   -1.3491   -0.4530 H   0  0  0  0  0  0  0  0  0  0  0  0
   -0.0250   -1.7237    0.8351 H   0  0  0  0  0  0  0  0  0  0  0  0
    0.5532   -1.4008   -0.8156 H   0  0  0  0  0  0  0  0  0  0  0  0
  1  2  1  0
  2  3  1  0
  2  4  1  0
  4  5  2  0
  5  6  1  0
  6  7  1  0
  7  8  1  0
  6  9  1  0
  9  2  1  0
  8  6  1  0
  1 10  1  0
  1 11  1  0
  1 12  1  0
  3 13  1  0
  3 14  1  0
  3 15  1  0
  4 16  1  0
  5 17  1  0
  7 18  1  0
  7 19  1  0
  9 20  1  0
  9 21  1  0
M  END
