
     RDKit          3D

 19 19  0  0  0  0  0  0  0  0999 V2000
    0.3637    1.7796   -0.1509 C   0  0  0  0  0  0  0  0  0  0  0  0
    0.5250    0.2582   -0.2286 C   0  0  0  0  0  0  0  0  0  0  0  0
    1.8848   -0.0061   -0.3343 O   0  0  0  0  0  0  0  0  0  0  0  0
    2.4701   -1.2399   -0.4288 C   0  0  0  0  0  0  0  0  0  0  0  0
    1.6937   -2.2421   -0.4189 O   0  0  0  0  0  0  0  0  0  0  0  0
   -0.1039   -0.2922    1.0353 C   0  0  0  0  0  0  0  0  0  0  0  0
   -1.5875   -0.2059    0.6532 C   0  0  0  0  0  0  0  0  0  0  0  0
   -1.5243   -0.4087   -0.8285 C   0  0  0  0  0  0  0  0  0  0  0  0
   -0.2457   -0.2009   -1.2550 O   0  0  0  0  0  0  0  0  0  0  0  0
    0.7277    2.1871   -1.1047 H   0  0  0  0  0  0  0  0  0  0  0  0
    0.9581    2.1006    0.7230 H   0  0  0  0  0  0  0  0  0  0  0  0
   -0.6891    2.0372   -0.0274 H   0  0  0  0  0  0  0  0  0  0  0  0
    3.5334   -1.4273   -0.5106 H   0  0  0  0  0  0  0  0  0  0  0  0
    0.1864   -1.3268    1.2492 H   0  0  0  0  0  0  0  0  0  0  0  0
    0.0207    0.4006    1.8903 H   0  0  0  0  0  0  0  0  0  0  0  0
   -2.1672   -0.9759    1.1811 H   0  0  0  0  0  0  0  0  0  0  0  0
   -1.9941    0.7918    0.9362 H   0  0  0  0  0  0  0  0  0  0  0  0
   -1.7975   -1.4815   -1.0210 H   0  0  0  0  0  0  0  0  0  0  0  0
   -2.2542    0.2521   -1.3596 H   0  0  0  0  0  0  0  0  0  0  0  0
  1  2  1  0
  2  3  1  0
  3  4  1  0
  4  5  2  0
  2  6  1  0
  6  7  1  0
  7  8  1  0
  8  9  1  0
  9  2  1  0
  1 10  1  0
  1 11  1  0
  1 12  1  0
  4 13  1  0
  6 14  1  0
  6 15  1  0
  7 16  1  0
  7 17  1  0
  8 18  1  0
  8 19  1  0
M  END
