
     RDKit          3D

 16 16  0  0  0  0  0  0  0  0999 V2000
   -1.8678   -0.9471   -0.2002 C   0  0  0  0  0  0  0  0  0  0  0  0
   -0.6814    0.0176   -0.1066 C   0  0  0  0  0  0  0  0  0  0  0  0
   -0.8212    1.2478   -0.8768 C   0  0  0  0  0  0  0  0  0  0  0  0
   -1.8266    1.4277   -1.5837 O   0  0  0  0  0  0  0  0  0  0  0  0
   -0.3893    0.4163    1.3196 O   0  0  0  0  0  0  0  0  0  0  0  0
    0.4651   -0.4481    0.6177 C   0  0  0  0  0  0  0  0  0  0  0  0
    1.8871   -0.0428    0.3439 C   0  0  0  0  0  0  0  0  0  0  0  0
    1.9227    1.1024   -0.4113 O   0  0  0  0  0  0  0  0  0  0  0  0
   -2.6718   -0.5468   -0.8364 H   0  0  0  0  0  0  0  0  0  0  0  0
   -2.2739   -1.1621    0.7865 H   0  0  0  0  0  0  0  0  0  0  0  0
   -1.4793   -1.8507   -0.7355 H   0  0  0  0  0  0  0  0  0  0  0  0
   -0.1229    2.0640   -0.9127 H   0  0  0  0  0  0  0  0  0  0  0  0
    0.3976   -1.4839    1.0744 H   0  0  0  0  0  0  0  0  0  0  0  0
    2.4761    0.0832    1.2856 H   0  0  0  0  0  0  0  0  0  0  0  0
    2.3619   -0.8714   -0.2347 H   0  0  0  0  0  0  0  0  0  0  0  0
    2.6236    0.9938   -1.1115 H   0  0  0  0  0  0  0  0  0  0  0  0
  1  2  1  0
  2  3  1  0
  3  4  2  0
  2  5  1  0
  5  6  1  0
  6  7  1  0
  7  8  1  0
  6  2  1  0
  1  9  1  0
  1 10  1  0
  1 11  1  0
  3 12  1  0
  6 13  1  0
  7 14  1  0
  7 15  1  0
  8 16  1  0
M  END
