
     RDKit          3D

 21 21  0  0  0  0  0  0  0  0999 V2000
   -1.6659   -1.0761    0.9112 C   0  0  0  0  0  0  0  0  0  0  0  0
   -0.6325   -0.2109    0.1850 C   0  0  0  0  0  0  0  0  0  0  0  0
   -1.3300    0.5893   -0.8931 C   0  0  0  0  0  0  0  0  0  0  0  0
   -0.0724    0.7493    1.1818 C   0  0  0  0  0  0  0  0  0  0  0  0
    1.3352    1.1316    0.9195 C   0  0  0  0  0  0  0  0  0  0  0  0
    2.1250    0.6141    0.0277 C   0  0  0  0  0  0  0  0  0  0  0  0
    1.6858   -0.4793   -0.8814 C   0  0  0  0  0  0  0  0  0  0  0  0
    0.4406   -1.0625   -0.3429 C   0  0  0  0  0  0  0  0  0  0  0  0
    0.3142   -2.2612   -0.3421 O   0  0  0  0  0  0  0  0  0  0  0  0
   -2.6707   -0.6687    0.7378 H   0  0  0  0  0  0  0  0  0  0  0  0
   -1.4214   -1.0901    1.9917 H   0  0  0  0  0  0  0  0  0  0  0  0
   -1.6269   -2.1186    0.5344 H   0  0  0  0  0  0  0  0  0  0  0  0
   -0.8076    1.5475   -0.9953 H   0  0  0  0  0  0  0  0  0  0  0  0
   -1.3493    0.0091   -1.8545 H   0  0  0  0  0  0  0  0  0  0  0  0
   -2.3718    0.7835   -0.5574 H   0  0  0  0  0  0  0  0  0  0  0  0
   -0.6883    1.6779    1.1717 H   0  0  0  0  0  0  0  0  0  0  0  0
   -0.1835    0.3309    2.2081 H   0  0  0  0  0  0  0  0  0  0  0  0
    1.7286    1.9361    1.5558 H   0  0  0  0  0  0  0  0  0  0  0  0
    3.1400    0.9872   -0.0623 H   0  0  0  0  0  0  0  0  0  0  0  0
    1.5629   -0.1174   -1.9314 H   0  0  0  0  0  0  0  0  0  0  0  0
    2.4880   -1.2718   -0.9625 H   0  0  0  0  0  0  0  0  0  0  0  0
  1  2  1  0
  2  3  1  0
  2  4  1  0
  4  5  1  0
  5  6  2  0
  6  7  1  0
  7  8  1  0
  8  9  2  0
  8  2  1  0
  1 10  1  0
  1 11  1  0
  1 12  1  0
  3 13  1  0
  3 14  1  0
  3 15  1  0
  4 16  1  0
  4 17  1  0
  5 18  1  0
  6 19  1  0
  7 20  1  0
  7 21  1  0
M  END
