
     RDKit          3D

 19 20  0  0  0  0  0  0  0  0999 V2000
    1.8295   -0.3169   -0.6522 C   0  0  0  0  0  0  0  0  0  0  0  0
    0.7338    0.2119    0.1524 C   0  0  0  0  0  0  0  0  0  0  0  0
    1.1750    1.1078    1.1258 O   0  0  0  0  0  0  0  0  0  0  0  0
   -0.2350   -0.7633    0.7809 C   0  0  0  0  0  0  0  0  0  0  0  0
   -1.0837    0.1894    1.5687 C   0  0  0  0  0  0  0  0  0  0  0  0
   -1.2854    1.1912    0.6747 C   0  0  0  0  0  0  0  0  0  0  0  0
   -0.5060    0.7150   -0.5110 C   0  0  0  0  0  0  0  0  0  0  0  0
   -0.9803   -0.7385   -0.5283 C   0  0  0  0  0  0  0  0  0  0  0  0
   -0.5345   -1.5085   -1.5401 O   0  0  0  0  0  0  0  0  0  0  0  0
    1.7413   -1.3406   -1.0250 H   0  0  0  0  0  0  0  0  0  0  0  0
    2.7793   -0.2840   -0.0433 H   0  0  0  0  0  0  0  0  0  0  0  0
    2.0230    0.3575   -1.5117 H   0  0  0  0  0  0  0  0  0  0  0  0
    1.4068    1.9918    0.7543 H   0  0  0  0  0  0  0  0  0  0  0  0
    0.0949   -1.6567    1.2086 H   0  0  0  0  0  0  0  0  0  0  0  0
   -1.4331    0.0903    2.5779 H   0  0  0  0  0  0  0  0  0  0  0  0
   -1.8573    2.0975    0.7838 H   0  0  0  0  0  0  0  0  0  0  0  0
   -0.4934    1.2657   -1.3969 H   0  0  0  0  0  0  0  0  0  0  0  0
   -2.0744   -0.7903   -0.3332 H   0  0  0  0  0  0  0  0  0  0  0  0
   -1.3005   -1.8194   -2.0853 H   0  0  0  0  0  0  0  0  0  0  0  0
  1  2  1  0
  2  3  1  0
  2  4  1  0
  4  5  1  0
  5  6  2  0
  6  7  1  0
  7  8  1  0
  8  9  1  0
  7  2  1  0
  8  4  1  0
  1 10  1  0
  1 11  1  0
  1 12  1  0
  3 13  1  0
  4 14  1  0
  5 15  1  0
  6 16  1  0
  7 17  1  0
  8 18  1  0
  9 19  1  0
M  END
