
     RDKit          3D

 19 20  0  0  0  0  0  0  0  0999 V2000
    2.1031   -0.2864   -0.3442 C   0  0  0  0  0  0  0  0  0  0  0  0
    0.8667    0.4319    0.1329 C   0  0  0  0  0  0  0  0  0  0  0  0
    1.2051    1.6880    0.6154 O   0  0  0  0  0  0  0  0  0  0  0  0
   -0.0365   -0.3680    1.0410 C   0  0  0  0  0  0  0  0  0  0  0  0
   -1.1135   -0.2542    0.0037 C   0  0  0  0  0  0  0  0  0  0  0  0
   -2.0763   -1.2137   -0.1656 C   0  0  0  0  0  0  0  0  0  0  0  0
   -2.3879    0.0948    0.3053 O   0  0  0  0  0  0  0  0  0  0  0  0
   -0.2381    0.4673   -0.9312 C   0  0  0  0  0  0  0  0  0  0  0  0
   -0.5882    1.8011   -1.2068 O   0  0  0  0  0  0  0  0  0  0  0  0
    2.9616    0.0209    0.2938 H   0  0  0  0  0  0  0  0  0  0  0  0
    1.9461   -1.3747   -0.2091 H   0  0  0  0  0  0  0  0  0  0  0  0
    2.2983   -0.0874   -1.4302 H   0  0  0  0  0  0  0  0  0  0  0  0
    0.8261    1.7956    1.5207 H   0  0  0  0  0  0  0  0  0  0  0  0
    0.2564   -1.4537    1.1373 H   0  0  0  0  0  0  0  0  0  0  0  0
   -0.2675    0.0693    2.0132 H   0  0  0  0  0  0  0  0  0  0  0  0
   -2.2917   -1.9919    0.6197 H   0  0  0  0  0  0  0  0  0  0  0  0
   -2.5040   -1.5113   -1.1463 H   0  0  0  0  0  0  0  0  0  0  0  0
   -0.0098   -0.0779   -1.8466 H   0  0  0  0  0  0  0  0  0  0  0  0
   -0.9499    2.2505   -0.4031 H   0  0  0  0  0  0  0  0  0  0  0  0
  1  2  1  0
  2  3  1  0
  2  4  1  0
  4  5  1  0
  5  6  1  0
  6  7  1  0
  5  8  1  0
  8  9  1  0
  8  2  1  0
  7  5  1  0
  1 10  1  0
  1 11  1  0
  1 12  1  0
  3 13  1  0
  4 14  1  0
  4 15  1  0
  6 16  1  0
  6 17  1  0
  8 18  1  0
  9 19  1  0
M  END
