
     RDKit          3D

 16 16  0  0  0  0  0  0  0  0999 V2000
    1.3509    1.1678    0.2358 C   0  0  0  0  0  0  0  0  0  0  0  0
    0.3994    0.0330    0.0149 C   0  0  0  0  0  0  0  0  0  0  0  0
    1.1332   -1.2259   -0.4672 C   0  0  0  0  0  0  0  0  0  0  0  0
   -0.5264    0.3474   -0.9426 O   0  0  0  0  0  0  0  0  0  0  0  0
   -1.7792    0.3538   -0.3951 C   0  0  0  0  0  0  0  0  0  0  0  0
   -1.6494   -0.4232    0.8824 C   0  0  0  0  0  0  0  0  0  0  0  0
   -2.5458   -1.0364    1.5149 O   0  0  0  0  0  0  0  0  0  0  0  0
   -0.2932   -0.3040    1.2041 O   0  0  0  0  0  0  0  0  0  0  0  0
    1.0274    2.0402   -0.3835 H   0  0  0  0  0  0  0  0  0  0  0  0
    2.3974    0.9240   -0.0183 H   0  0  0  0  0  0  0  0  0  0  0  0
    1.3287    1.5139    1.2918 H   0  0  0  0  0  0  0  0  0  0  0  0
    0.4450   -2.0758   -0.2030 H   0  0  0  0  0  0  0  0  0  0  0  0
    2.0796   -1.3710    0.0566 H   0  0  0  0  0  0  0  0  0  0  0  0
    1.2213   -1.1383   -1.5677 H   0  0  0  0  0  0  0  0  0  0  0  0
   -2.4886   -0.2018   -1.0295 H   0  0  0  0  0  0  0  0  0  0  0  0
   -2.1004    1.3963   -0.1936 H   0  0  0  0  0  0  0  0  0  0  0  0
  1  2  1  0
  2  3  1  0
  2  4  1  0
  4  5  1  0
  5  6  1  0
  6  7  2  0
  6  8  1  0
  8  2  1  0
  1  9  1  0
  1 10  1  0
  1 11  1  0
  3 12  1  0
  3 13  1  0
  3 14  1  0
  5 15  1  0
  5 16  1  0
M  END
