
     RDKit          3D

 21 22  0  0  0  0  0  0  0  0999 V2000
   -1.8914    1.1937   -0.0922 C   0  0  0  0  0  0  0  0  0  0  0  0
   -1.0831   -0.0705    0.0622 C   0  0  0  0  0  0  0  0  0  0  0  0
    0.3744    0.0979    0.4391 C   0  0  0  0  0  0  0  0  0  0  0  0
    0.5574    0.6013    1.7343 O   0  0  0  0  0  0  0  0  0  0  0  0
    1.2616   -1.0813    0.0981 C   0  0  0  0  0  0  0  0  0  0  0  0
    2.3547   -0.0426   -0.1978 C   0  0  0  0  0  0  0  0  0  0  0  0
    1.1885    0.8888   -0.5677 C   0  0  0  0  0  0  0  0  0  0  0  0
   -1.5328   -1.2862   -0.4761 C   0  0  0  0  0  0  0  0  0  0  0  0
   -1.7151   -0.9909    0.9809 O   0  0  0  0  0  0  0  0  0  0  0  0
   -2.2082    1.2660   -1.1712 H   0  0  0  0  0  0  0  0  0  0  0  0
   -2.8043    1.2190    0.5016 H   0  0  0  0  0  0  0  0  0  0  0  0
   -1.2898    2.1078    0.0942 H   0  0  0  0  0  0  0  0  0  0  0  0
   -0.2520    0.3276    2.2578 H   0  0  0  0  0  0  0  0  0  0  0  0
    1.5001   -1.7660    0.9073 H   0  0  0  0  0  0  0  0  0  0  0  0
    0.9475   -1.5163   -0.8676 H   0  0  0  0  0  0  0  0  0  0  0  0
    2.9923   -0.3182   -1.0381 H   0  0  0  0  0  0  0  0  0  0  0  0
    2.8436    0.2749    0.7371 H   0  0  0  0  0  0  0  0  0  0  0  0
    1.3754    1.9384   -0.2866 H   0  0  0  0  0  0  0  0  0  0  0  0
    0.8385    0.7170   -1.6023 H   0  0  0  0  0  0  0  0  0  0  0  0
   -0.9384   -2.2091   -0.5217 H   0  0  0  0  0  0  0  0  0  0  0  0
   -2.5190   -1.3510   -0.9914 H   0  0  0  0  0  0  0  0  0  0  0  0
  1  2  1  0
  2  3  1  0
  3  4  1  0
  3  5  1  0
  5  6  1  0
  6  7  1  0
  2  8  1  0
  8  9  1  0
  9  2  1  0
  7  3  1  0
  1 10  1  0
  1 11  1  0
  1 12  1  0
  4 13  1  0
  5 14  1  0
  5 15  1  0
  6 16  1  0
  6 17  1  0
  7 18  1  0
  7 19  1  0
  8 20  1  0
  8 21  1  0
M  END
