
     RDKit          3D

 19 21  0  0  0  0  0  0  0  0999 V2000
   -1.8491   -0.7190   -0.8363 C   0  0  0  0  0  0  0  0  0  0  0  0
   -1.0491    0.3181   -0.0485 C   0  0  0  0  0  0  0  0  0  0  0  0
    0.3924    0.3528   -0.4309 C   0  0  0  0  0  0  0  0  0  0  0  0
    1.1818   -0.9003   -0.2477 C   0  0  0  0  0  0  0  0  0  0  0  0
    2.4097   -0.0427   -0.2588 C   0  0  0  0  0  0  0  0  0  0  0  0
    1.3907    0.6074    0.6358 C   0  0  0  0  0  0  0  0  0  0  0  0
    1.1419   -0.6657    1.1179 O   0  0  0  0  0  0  0  0  0  0  0  0
   -1.5783    0.7019    1.2364 C   0  0  0  0  0  0  0  0  0  0  0  0
   -1.6228    1.5742    0.1511 O   0  0  0  0  0  0  0  0  0  0  0  0
   -1.1984   -1.6369   -0.8359 H   0  0  0  0  0  0  0  0  0  0  0  0
   -1.9644   -0.4216   -1.8873 H   0  0  0  0  0  0  0  0  0  0  0  0
   -2.7855   -0.9844   -0.3299 H   0  0  0  0  0  0  0  0  0  0  0  0
    0.5979    0.8819   -1.3848 H   0  0  0  0  0  0  0  0  0  0  0  0
    1.0547   -1.7826   -0.7143 H   0  0  0  0  0  0  0  0  0  0  0  0
    2.5251    0.4794   -1.2057 H   0  0  0  0  0  0  0  0  0  0  0  0
    3.3027   -0.4488    0.2313 H   0  0  0  0  0  0  0  0  0  0  0  0
    1.5269    1.4456    1.1800 H   0  0  0  0  0  0  0  0  0  0  0  0
   -2.5662    0.3245    1.5396 H   0  0  0  0  0  0  0  0  0  0  0  0
   -0.9100    0.9162    2.0884 H   0  0  0  0  0  0  0  0  0  0  0  0
  1  2  1  0
  2  3  1  0
  3  4  1  0
  4  5  1  0
  5  6  1  0
  6  7  1  0
  2  8  1  0
  8  9  1  0
  9  2  1  0
  6  3  1  0
  7  4  1  0
  1 10  1  0
  1 11  1  0
  1 12  1  0
  3 13  1  0
  4 14  1  0
  5 15  1  0
  5 16  1  0
  6 17  1  0
  8 18  1  0
  8 19  1  0
M  END
