
     RDKit          3D

 21 23  0  0  0  0  0  0  0  0999 V2000
    1.9073    0.8366   -0.6000 C   0  0  0  0  0  0  0  0  0  0  0  0
    0.9933   -0.1225    0.0933 C   0  0  0  0  0  0  0  0  0  0  0  0
    1.7316   -0.8451    1.0287 O   0  0  0  0  0  0  0  0  0  0  0  0
    0.2474   -1.0308   -0.8377 C   0  0  0  0  0  0  0  0  0  0  0  0
   -1.1618   -1.1540   -0.3309 C   0  0  0  0  0  0  0  0  0  0  0  0
   -1.9259    0.0993   -0.0855 C   0  0  0  0  0  0  0  0  0  0  0  0
   -1.0835    1.3531   -0.0272 C   0  0  0  0  0  0  0  0  0  0  0  0
   -0.1154    0.5753    0.8671 C   0  0  0  0  0  0  0  0  0  0  0  0
   -1.1335   -0.5080    0.9817 C   0  0  0  0  0  0  0  0  0  0  0  0
    2.2568    1.5768    0.1567 H   0  0  0  0  0  0  0  0  0  0  0  0
    2.7989    0.2914   -0.9364 H   0  0  0  0  0  0  0  0  0  0  0  0
    1.4034    1.3911   -1.4167 H   0  0  0  0  0  0  0  0  0  0  0  0
    1.3223   -1.7507    1.1234 H   0  0  0  0  0  0  0  0  0  0  0  0
    0.3303   -0.7118   -1.8791 H   0  0  0  0  0  0  0  0  0  0  0  0
    0.7055   -2.0554   -0.7519 H   0  0  0  0  0  0  0  0  0  0  0  0
   -1.7464   -2.0730   -0.5087 H   0  0  0  0  0  0  0  0  0  0  0  0
   -3.0064    0.1365    0.0031 H   0  0  0  0  0  0  0  0  0  0  0  0
   -0.6996    1.5871   -1.0287 H   0  0  0  0  0  0  0  0  0  0  0  0
   -1.5196    2.2177    0.4685 H   0  0  0  0  0  0  0  0  0  0  0  0
    0.1880    1.0969    1.7735 H   0  0  0  0  0  0  0  0  0  0  0  0
   -1.4927   -0.9106    1.9067 H   0  0  0  0  0  0  0  0  0  0  0  0
  1  2  1  0
  2  3  1  0
  2  4  1  0
  4  5  1  0
  5  6  1  0
  6  7  1  0
  7  8  1  0
  8  9  1  0
  8  2  1  0
  9  5  1  0
  9  6  1  0
  1 10  1  0
  1 11  1  0
  1 12  1  0
  3 13  1  0
  4 14  1  0
  4 15  1  0
  5 16  1  0
  6 17  1  0
  7 18  1  0
  7 19  1  0
  8 20  1  0
  9 21  1  0
M  END
