
     RDKit          3D

 21 21  0  0  0  0  0  0  0  0999 V2000
   -1.2399   -0.8824    0.8998 C   0  0  0  0  0  0  0  0  0  0  0  0
   -0.4815    0.0274   -0.0529 C   0  0  0  0  0  0  0  0  0  0  0  0
   -1.4635    0.5966   -1.0864 C   0  0  0  0  0  0  0  0  0  0  0  0
   -2.4708    1.2401   -0.3411 O   0  0  0  0  0  0  0  0  0  0  0  0
    0.5449   -0.7588   -0.8022 C   0  0  0  0  0  0  0  0  0  0  0  0
    1.8578   -0.8882   -0.1126 C   0  0  0  0  0  0  0  0  0  0  0  0
    1.9552   -0.1008    1.0192 O   0  0  0  0  0  0  0  0  0  0  0  0
    1.3527    1.1225    0.8437 C   0  0  0  0  0  0  0  0  0  0  0  0
    0.0003    1.0797    0.6685 O   0  0  0  0  0  0  0  0  0  0  0  0
   -1.6626   -1.7617    0.3909 H   0  0  0  0  0  0  0  0  0  0  0  0
   -0.5181   -1.1936    1.6807 H   0  0  0  0  0  0  0  0  0  0  0  0
   -2.0082   -0.2596    1.3945 H   0  0  0  0  0  0  0  0  0  0  0  0
   -0.9301    1.3958   -1.6320 H   0  0  0  0  0  0  0  0  0  0  0  0
   -1.8900   -0.1837   -1.7211 H   0  0  0  0  0  0  0  0  0  0  0  0
   -2.0832    1.7457    0.4136 H   0  0  0  0  0  0  0  0  0  0  0  0
    0.7283   -0.3106   -1.8074 H   0  0  0  0  0  0  0  0  0  0  0  0
    0.1574   -1.7805   -0.9995 H   0  0  0  0  0  0  0  0  0  0  0  0
    2.0964   -1.9349    0.2069 H   0  0  0  0  0  0  0  0  0  0  0  0
    2.7150   -0.5981   -0.7806 H   0  0  0  0  0  0  0  0  0  0  0  0
    1.7934    1.7323    0.0310 H   0  0  0  0  0  0  0  0  0  0  0  0
    1.5466    1.7128    1.7870 H   0  0  0  0  0  0  0  0  0  0  0  0
  1  2  1  0
  2  3  1  0
  3  4  1  0
  2  5  1  0
  5  6  1  0
  6  7  1  0
  7  8  1  0
  8  9  1  0
  9  2  1  0
  1 10  1  0
  1 11  1  0
  1 12  1  0
  3 13  1  0
  3 14  1  0
  4 15  1  0
  5 16  1  0
  5 17  1  0
  6 18  1  0
  6 19  1  0
  8 20  1  0
  8 21  1  0
M  END
