
     RDKit          3D

 19 20  0  0  0  0  0  0  0  0999 V2000
   -0.3059   -1.9261    0.3274 C   0  0  0  0  0  0  0  0  0  0  0  0
   -0.0253   -0.4499    0.1882 C   0  0  0  0  0  0  0  0  0  0  0  0
    1.3305   -0.0768   -0.3082 C   0  0  0  0  0  0  0  0  0  0  0  0
    1.7909    1.2610   -0.5103 C   0  0  0  0  0  0  0  0  0  0  0  0
    1.3964    0.4419   -1.6761 O   0  0  0  0  0  0  0  0  0  0  0  0
   -1.1445    0.4352   -0.3670 C   0  0  0  0  0  0  0  0  0  0  0  0
   -2.1715   -0.2765   -0.9275 O   0  0  0  0  0  0  0  0  0  0  0  0
   -0.8263    0.4284    1.0653 C   0  0  0  0  0  0  0  0  0  0  0  0
   -0.2141    1.5627    1.6195 O   0  0  0  0  0  0  0  0  0  0  0  0
    0.4127   -2.3069    1.1092 H   0  0  0  0  0  0  0  0  0  0  0  0
   -1.3315   -2.0794    0.7611 H   0  0  0  0  0  0  0  0  0  0  0  0
   -0.1795   -2.4231   -0.6316 H   0  0  0  0  0  0  0  0  0  0  0  0
    2.0914   -0.8821   -0.2189 H   0  0  0  0  0  0  0  0  0  0  0  0
    1.1526    2.1503   -0.3827 H   0  0  0  0  0  0  0  0  0  0  0  0
    2.8818    1.4537   -0.5631 H   0  0  0  0  0  0  0  0  0  0  0  0
   -0.8613    1.3481   -0.9259 H   0  0  0  0  0  0  0  0  0  0  0  0
   -1.7497   -0.9834   -1.5118 H   0  0  0  0  0  0  0  0  0  0  0  0
   -1.5721   -0.0197    1.7391 H   0  0  0  0  0  0  0  0  0  0  0  0
   -0.6745    2.3426    1.2134 H   0  0  0  0  0  0  0  0  0  0  0  0
  1  2  1  0
  2  3  1  0
  3  4  1  0
  4  5  1  0
  2  6  1  0
  6  7  1  0
  6  8  1  0
  8  9  1  0
  8  2  1  0
  5  3  1  0
  1 10  1  0
  1 11  1  0
  1 12  1  0
  3 13  1  0
  4 14  1  0
  4 15  1  0
  6 16  1  0
  7 17  1  0
  8 18  1  0
  9 19  1  0
M  END
