
     RDKit          3D

 19 19  0  0  0  0  0  0  0  0999 V2000
   -0.5506    0.5260    1.3573 C   0  0  0  0  0  0  0  0  0  0  0  0
   -0.4788   -0.1861    0.0216 C   0  0  0  0  0  0  0  0  0  0  0  0
   -1.8236   -0.4044   -0.5953 C   0  0  0  0  0  0  0  0  0  0  0  0
    0.2719   -1.4489    0.2491 C   0  0  0  0  0  0  0  0  0  0  0  0
   -0.1034   -2.6331    0.3645 O   0  0  0  0  0  0  0  0  0  0  0  0
    1.6654   -0.9910    0.3180 C   0  0  0  0  0  0  0  0  0  0  0  0
    1.7868    0.1471   -0.3432 C   0  0  0  0  0  0  0  0  0  0  0  0
    0.4781    0.5293   -0.9028 C   0  0  0  0  0  0  0  0  0  0  0  0
    0.2664    1.8952   -0.9308 O   0  0  0  0  0  0  0  0  0  0  0  0
   -1.1799    1.4172    1.3080 H   0  0  0  0  0  0  0  0  0  0  0  0
   -0.8723   -0.1580    2.1642 H   0  0  0  0  0  0  0  0  0  0  0  0
    0.5122    0.8051    1.6199 H   0  0  0  0  0  0  0  0  0  0  0  0
   -2.3118   -1.3113   -0.2103 H   0  0  0  0  0  0  0  0  0  0  0  0
   -2.4740    0.4615   -0.2853 H   0  0  0  0  0  0  0  0  0  0  0  0
   -1.7910   -0.4056   -1.7060 H   0  0  0  0  0  0  0  0  0  0  0  0
    2.4852   -1.4910    0.8248 H   0  0  0  0  0  0  0  0  0  0  0  0
    2.6908    0.7503   -0.4836 H   0  0  0  0  0  0  0  0  0  0  0  0
    0.3648    0.0555   -1.9027 H   0  0  0  0  0  0  0  0  0  0  0  0
    1.0636    2.4421   -0.8674 H   0  0  0  0  0  0  0  0  0  0  0  0
  1  2  1  0
  2  3  1  0
  2  4  1  0
  4  5  2  0
  4  6  1  0
  6  7  2  0
  7  8  1  0
  8  9  1  0
  8  2  1  0
  1 10  1  0
  1 11  1  0
  1 12  1  0
  3 13  1  0
  3 14  1  0
  3 15  1  0
  6 16  1  0
  7 17  1  0
  8 18  1  0
  9 19  1  0
M  END
