
     RDKit          3D

 21 22  0  0  0  0  0  0  0  0999 V2000
   -1.6429   -1.4806   -0.4536 C   0  0  0  0  0  0  0  0  0  0  0  0
   -0.8500   -0.2411   -0.0815 C   0  0  0  0  0  0  0  0  0  0  0  0
   -1.5618    0.5759    0.9417 C   0  0  0  0  0  0  0  0  0  0  0  0
   -0.4186    0.5442   -1.3393 C   0  0  0  0  0  0  0  0  0  0  0  0
    0.8803    0.7843   -0.6500 C   0  0  0  0  0  0  0  0  0  0  0  0
    2.0480    1.1998   -0.1863 C   0  0  0  0  0  0  0  0  0  0  0  0
    2.4535    0.2127    0.8609 C   0  0  0  0  0  0  0  0  0  0  0  0
    1.1702   -0.1642    1.3397 O   0  0  0  0  0  0  0  0  0  0  0  0
    0.5934   -0.4936    0.1238 C   0  0  0  0  0  0  0  0  0  0  0  0
   -1.2064   -1.9970   -1.3313 H   0  0  0  0  0  0  0  0  0  0  0  0
   -2.6819   -1.1101   -0.6850 H   0  0  0  0  0  0  0  0  0  0  0  0
   -1.6939   -2.1604    0.4102 H   0  0  0  0  0  0  0  0  0  0  0  0
   -0.9141    1.2306    1.5458 H   0  0  0  0  0  0  0  0  0  0  0  0
   -2.1379   -0.0787    1.6047 H   0  0  0  0  0  0  0  0  0  0  0  0
   -2.2680    1.2518    0.4028 H   0  0  0  0  0  0  0  0  0  0  0  0
   -0.2860   -0.1601   -2.1642 H   0  0  0  0  0  0  0  0  0  0  0  0
   -1.0526    1.4189   -1.4988 H   0  0  0  0  0  0  0  0  0  0  0  0
    2.5899    2.0796   -0.5090 H   0  0  0  0  0  0  0  0  0  0  0  0
    2.8679   -0.6634    0.3465 H   0  0  0  0  0  0  0  0  0  0  0  0
    3.0741    0.6416    1.6386 H   0  0  0  0  0  0  0  0  0  0  0  0
    1.0367   -1.3900   -0.3157 H   0  0  0  0  0  0  0  0  0  0  0  0
  1  2  1  0
  2  3  1  0
  2  4  1  0
  4  5  1  0
  5  6  2  0
  6  7  1  0
  7  8  1  0
  8  9  1  0
  9  2  1  0
  9  5  1  0
  1 10  1  0
  1 11  1  0
  1 12  1  0
  3 13  1  0
  3 14  1  0
  3 15  1  0
  4 16  1  0
  4 17  1  0
  6 18  1  0
  7 19  1  0
  7 20  1  0
  9 21  1  0
M  END
