
     RDKit          3D

 21 22  0  0  0  0  0  0  0  0999 V2000
    1.8873    0.5246    0.6967 C   0  0  0  0  0  0  0  0  0  0  0  0
    0.8579   -0.0164   -0.2755 C   0  0  0  0  0  0  0  0  0  0  0  0
    1.0537   -1.4672   -0.6594 C   0  0  0  0  0  0  0  0  0  0  0  0
    0.7707    0.8573   -1.3838 O   0  0  0  0  0  0  0  0  0  0  0  0
   -0.1312    1.6236   -0.6164 C   0  0  0  0  0  0  0  0  0  0  0  0
   -0.5035    0.3748    0.0934 C   0  0  0  0  0  0  0  0  0  0  0  0
   -1.6794   -0.3051   -0.4394 C   0  0  0  0  0  0  0  0  0  0  0  0
   -1.9502   -0.4808    1.0445 C   0  0  0  0  0  0  0  0  0  0  0  0
   -0.9065    0.4129    1.3738 O   0  0  0  0  0  0  0  0  0  0  0  0
    2.2029    1.5673    0.4318 H   0  0  0  0  0  0  0  0  0  0  0  0
    2.8280   -0.0707    0.6903 H   0  0  0  0  0  0  0  0  0  0  0  0
    1.5090    0.5120    1.7489 H   0  0  0  0  0  0  0  0  0  0  0  0
    1.1944   -1.4960   -1.7514 H   0  0  0  0  0  0  0  0  0  0  0  0
    0.1569   -2.0327   -0.3189 H   0  0  0  0  0  0  0  0  0  0  0  0
    1.9152   -1.9339   -0.1210 H   0  0  0  0  0  0  0  0  0  0  0  0
    0.3867    2.3897   -0.0011 H   0  0  0  0  0  0  0  0  0  0  0  0
   -0.9993    2.0112   -1.2050 H   0  0  0  0  0  0  0  0  0  0  0  0
   -1.5793   -1.2237   -1.0215 H   0  0  0  0  0  0  0  0  0  0  0  0
   -2.3840    0.4150   -0.9411 H   0  0  0  0  0  0  0  0  0  0  0  0
   -2.9496   -0.1399    1.3261 H   0  0  0  0  0  0  0  0  0  0  0  0
   -1.6796   -1.5222    1.3291 H   0  0  0  0  0  0  0  0  0  0  0  0
  1  2  1  0
  2  3  1  0
  2  4  1  0
  4  5  1  0
  5  6  1  0
  6  7  1  0
  7  8  1  0
  8  9  1  0
  6  2  1  0
  9  6  1  0
  1 10  1  0
  1 11  1  0
  1 12  1  0
  3 13  1  0
  3 14  1  0
  3 15  1  0
  5 16  1  0
  5 17  1  0
  7 18  1  0
  7 19  1  0
  8 20  1  0
  8 21  1  0
M  END
