
     RDKit          3D

 21 23  0  0  0  0  0  0  0  0999 V2000
   -2.6976   -0.4416   -0.1337 C   0  0  0  0  0  0  0  0  0  0  0  0
   -1.4098    0.3704    0.1138 C   0  0  0  0  0  0  0  0  0  0  0  0
   -1.7382    1.7508    0.1472 O   0  0  0  0  0  0  0  0  0  0  0  0
   -0.4968   -0.1737    1.0402 C   0  0  0  0  0  0  0  0  0  0  0  0
    0.6061   -1.2232    0.8017 C   0  0  0  0  0  0  0  0  0  0  0  0
    1.2115   -0.0371    0.1031 C   0  0  0  0  0  0  0  0  0  0  0  0
    2.0269    0.9783    0.6384 C   0  0  0  0  0  0  0  0  0  0  0  0
    2.4648    0.0517   -0.5469 C   0  0  0  0  0  0  0  0  0  0  0  0
   -0.1539    0.0557   -0.4956 C   0  0  0  0  0  0  0  0  0  0  0  0
   -3.1100   -0.8413    0.7877 H   0  0  0  0  0  0  0  0  0  0  0  0
   -3.4007    0.1147   -0.7705 H   0  0  0  0  0  0  0  0  0  0  0  0
   -2.3485   -1.3161   -0.7560 H   0  0  0  0  0  0  0  0  0  0  0  0
   -2.4594    1.8013    0.8521 H   0  0  0  0  0  0  0  0  0  0  0  0
   -0.0117    0.5970    1.7229 H   0  0  0  0  0  0  0  0  0  0  0  0
    0.3188   -2.0080    0.0987 H   0  0  0  0  0  0  0  0  0  0  0  0
    1.0691   -1.5606    1.7234 H   0  0  0  0  0  0  0  0  0  0  0  0
    1.9348    2.0433    0.3586 H   0  0  0  0  0  0  0  0  0  0  0  0
    2.6221    0.8250    1.5568 H   0  0  0  0  0  0  0  0  0  0  0  0
    3.2835   -0.6541   -0.3286 H   0  0  0  0  0  0  0  0  0  0  0  0
    2.5449    0.5547   -1.5369 H   0  0  0  0  0  0  0  0  0  0  0  0
   -0.2559   -0.8872   -1.1295 H   0  0  0  0  0  0  0  0  0  0  0  0
  1  2  1  0
  2  3  1  0
  2  4  1  0
  4  5  1  0
  5  6  1  0
  6  7  1  0
  7  8  1  0
  6  9  1  0
  9  2  1  0
  9  4  1  0
  8  6  1  0
  1 10  1  0
  1 11  1  0
  1 12  1  0
  3 13  1  0
  4 14  1  0
  5 15  1  0
  5 16  1  0
  7 17  1  0
  7 18  1  0
  8 19  1  0
  8 20  1  0
  9 21  1  0
M  END
