
     RDKit          3D

 18 19  0  0  0  0  0  0  0  0999 V2000
   -1.5784   -0.9248   -0.6907 C   0  0  0  0  0  0  0  0  0  0  0  0
   -0.6802    0.0241    0.0394 C   0  0  0  0  0  0  0  0  0  0  0  0
   -1.4109    1.0931    0.7863 C   0  0  0  0  0  0  0  0  0  0  0  0
    0.1717   -0.6559    0.9495 O   0  0  0  0  0  0  0  0  0  0  0  0
    1.3349    0.0221    0.7697 C   0  0  0  0  0  0  0  0  0  0  0  0
    2.4644   -0.1204   -0.0522 C   0  0  0  0  0  0  0  0  0  0  0  0
    1.2725   -0.1930   -0.7990 C   0  0  0  0  0  0  0  0  0  0  0  0
    0.1793    0.6024   -0.9320 O   0  0  0  0  0  0  0  0  0  0  0  0
   -1.4184   -1.9441   -0.2713 H   0  0  0  0  0  0  0  0  0  0  0  0
   -2.6283   -0.6015   -0.6750 H   0  0  0  0  0  0  0  0  0  0  0  0
   -1.3113   -1.0247   -1.7823 H   0  0  0  0  0  0  0  0  0  0  0  0
   -2.1664    1.5580    0.1033 H   0  0  0  0  0  0  0  0  0  0  0  0
   -0.7255    1.8974    1.0797 H   0  0  0  0  0  0  0  0  0  0  0  0
   -1.8791    0.6792    1.6848 H   0  0  0  0  0  0  0  0  0  0  0  0
    1.1474    1.0884    1.1199 H   0  0  0  0  0  0  0  0  0  0  0  0
    3.1371    0.7636   -0.2665 H   0  0  0  0  0  0  0  0  0  0  0  0
    3.1080   -1.0239    0.0640 H   0  0  0  0  0  0  0  0  0  0  0  0
    0.9833   -1.2400   -1.1277 H   0  0  0  0  0  0  0  0  0  0  0  0
  1  2  1  0
  2  3  1  0
  2  4  1  0
  4  5  1  0
  5  6  1  0
  6  7  1  0
  7  8  1  0
  8  2  1  0
  7  5  1  0
  1  9  1  0
  1 10  1  0
  1 11  1  0
  3 12  1  0
  3 13  1  0
  3 14  1  0
  5 15  1  0
  6 16  1  0
  6 17  1  0
  7 18  1  0
M  END
