
     RDKit          3D

 21 22  0  0  0  0  0  0  0  0999 V2000
    1.6672   -0.8477    0.7511 C   0  0  0  0  0  0  0  0  0  0  0  0
    0.7236   -0.0042   -0.0875 C   0  0  0  0  0  0  0  0  0  0  0  0
    1.4621    1.2777   -0.4864 C   0  0  0  0  0  0  0  0  0  0  0  0
    0.4199   -0.6506   -1.2887 O   0  0  0  0  0  0  0  0  0  0  0  0
   -0.7960   -1.2690   -1.1334 C   0  0  0  0  0  0  0  0  0  0  0  0
   -1.5936   -0.4496   -0.1487 C   0  0  0  0  0  0  0  0  0  0  0  0
   -1.5820    1.0276   -0.1844 C   0  0  0  0  0  0  0  0  0  0  0  0
   -0.5548    0.2736    0.6178 C   0  0  0  0  0  0  0  0  0  0  0  0
   -0.6579    0.2039    1.9933 O   0  0  0  0  0  0  0  0  0  0  0  0
    1.1198   -1.7361    1.1340 H   0  0  0  0  0  0  0  0  0  0  0  0
    2.0221   -0.1834    1.5779 H   0  0  0  0  0  0  0  0  0  0  0  0
    2.5258   -1.1284    0.1070 H   0  0  0  0  0  0  0  0  0  0  0  0
    0.9357    1.7069   -1.3815 H   0  0  0  0  0  0  0  0  0  0  0  0
    1.4872    2.0144    0.3132 H   0  0  0  0  0  0  0  0  0  0  0  0
    2.4552    0.9472   -0.8488 H   0  0  0  0  0  0  0  0  0  0  0  0
   -0.5924   -2.2785   -0.6794 H   0  0  0  0  0  0  0  0  0  0  0  0
   -1.3535   -1.3275   -2.0717 H   0  0  0  0  0  0  0  0  0  0  0  0
   -2.4525   -0.9464    0.3257 H   0  0  0  0  0  0  0  0  0  0  0  0
   -2.3476    1.5449    0.3932 H   0  0  0  0  0  0  0  0  0  0  0  0
   -1.2500    1.5260   -1.1122 H   0  0  0  0  0  0  0  0  0  0  0  0
   -1.6383    0.2993    2.2096 H   0  0  0  0  0  0  0  0  0  0  0  0
  1  2  1  0
  2  3  1  0
  2  4  1  0
  4  5  1  0
  5  6  1  0
  6  7  1  0
  7  8  1  0
  8  9  1  0
  8  2  1  0
  8  6  1  0
  1 10  1  0
  1 11  1  0
  1 12  1  0
  3 13  1  0
  3 14  1  0
  3 15  1  0
  5 16  1  0
  5 17  1  0
  6 18  1  0
  7 19  1  0
  7 20  1  0
  9 21  1  0
M  END
