
     RDKit          3D

 21 21  0  0  0  0  0  0  0  0999 V2000
   -2.2571   -0.7863   -0.8028 C   0  0  0  0  0  0  0  0  0  0  0  0
   -1.2840   -0.0213    0.0712 C   0  0  0  0  0  0  0  0  0  0  0  0
   -1.5474    1.4698    0.1506 C   0  0  0  0  0  0  0  0  0  0  0  0
   -0.8445   -0.7522    1.2914 C   0  0  0  0  0  0  0  0  0  0  0  0
    0.1016   -0.5416    0.1393 C   0  0  0  0  0  0  0  0  0  0  0  0
    1.1681    0.3029    0.4296 O   0  0  0  0  0  0  0  0  0  0  0  0
    2.2953   -0.1611   -0.1881 C   0  0  0  0  0  0  0  0  0  0  0  0
    3.4998    0.6455    0.0394 C   0  0  0  0  0  0  0  0  0  0  0  0
    4.5400    0.2843   -0.4849 O   0  0  0  0  0  0  0  0  0  0  0  0
   -3.1287   -1.0810   -0.1473 H   0  0  0  0  0  0  0  0  0  0  0  0
   -2.5915   -0.0971   -1.6049 H   0  0  0  0  0  0  0  0  0  0  0  0
   -1.7524   -1.6831   -1.2236 H   0  0  0  0  0  0  0  0  0  0  0  0
   -0.6514    2.0447   -0.1933 H   0  0  0  0  0  0  0  0  0  0  0  0
   -1.7864    1.7932    1.1876 H   0  0  0  0  0  0  0  0  0  0  0  0
   -2.3861    1.7604   -0.5151 H   0  0  0  0  0  0  0  0  0  0  0  0
   -1.1491   -1.8059    1.4590 H   0  0  0  0  0  0  0  0  0  0  0  0
   -0.7094   -0.1778    2.2203 H   0  0  0  0  0  0  0  0  0  0  0  0
    0.3390   -1.3880   -0.5010 H   0  0  0  0  0  0  0  0  0  0  0  0
    2.0968   -0.1517   -1.2949 H   0  0  0  0  0  0  0  0  0  0  0  0
    2.4979   -1.1967    0.1551 H   0  0  0  0  0  0  0  0  0  0  0  0
    3.5494    1.5431    0.6378 H   0  0  0  0  0  0  0  0  0  0  0  0
  1  2  1  0
  2  3  1  0
  2  4  1  0
  4  5  1  0
  5  6  1  0
  6  7  1  0
  7  8  1  0
  8  9  2  0
  5  2  1  0
  1 10  1  0
  1 11  1  0
  1 12  1  0
  3 13  1  0
  3 14  1  0
  3 15  1  0
  4 16  1  0
  4 17  1  0
  5 18  1  0
  7 19  1  0
  7 20  1  0
  8 21  1  0
M  END
