
     RDKit          3D

 23 24  0  0  0  0  0  0  0  0999 V2000
   -2.1997   -0.7626    0.1965 C   0  0  0  0  0  0  0  0  0  0  0  0
   -0.8527   -0.1015   -0.1310 C   0  0  0  0  0  0  0  0  0  0  0  0
   -0.9794    1.3678   -0.1146 C   0  0  0  0  0  0  0  0  0  0  0  0
   -0.1973   -0.6809   -1.3706 C   0  0  0  0  0  0  0  0  0  0  0  0
    1.0969   -0.8105   -0.5899 C   0  0  0  0  0  0  0  0  0  0  0  0
    1.8971    0.4299   -0.4651 C   0  0  0  0  0  0  0  0  0  0  0  0
    1.9536    0.7155    0.9792 C   0  0  0  0  0  0  0  0  0  0  0  0
    1.0049    0.0483    1.6084 C   0  0  0  0  0  0  0  0  0  0  0  0
    0.2236   -0.7449    0.6676 C   0  0  0  0  0  0  0  0  0  0  0  0
   -2.4116   -0.4670    1.2465 H   0  0  0  0  0  0  0  0  0  0  0  0
   -2.1105   -1.8604    0.1754 H   0  0  0  0  0  0  0  0  0  0  0  0
   -2.9987   -0.3777   -0.4558 H   0  0  0  0  0  0  0  0  0  0  0  0
   -1.9988    1.7047    0.2328 H   0  0  0  0  0  0  0  0  0  0  0  0
   -0.2684    1.9050    0.5423 H   0  0  0  0  0  0  0  0  0  0  0  0
   -0.9116    1.7557   -1.1625 H   0  0  0  0  0  0  0  0  0  0  0  0
   -0.1556    0.0134   -2.2333 H   0  0  0  0  0  0  0  0  0  0  0  0
   -0.6071   -1.6891   -1.5990 H   0  0  0  0  0  0  0  0  0  0  0  0
    1.6447   -1.7449   -0.7163 H   0  0  0  0  0  0  0  0  0  0  0  0
    2.9181    0.3347   -0.9119 H   0  0  0  0  0  0  0  0  0  0  0  0
    1.4339    1.2764   -1.0249 H   0  0  0  0  0  0  0  0  0  0  0  0
    2.7003    1.4013    1.4530 H   0  0  0  0  0  0  0  0  0  0  0  0
    0.8302    0.0854    2.6816 H   0  0  0  0  0  0  0  0  0  0  0  0
   -0.0116   -1.7988    0.9918 H   0  0  0  0  0  0  0  0  0  0  0  0
  1  2  1  0
  2  3  1  0
  2  4  1  0
  4  5  1  0
  5  6  1  0
  6  7  1  0
  7  8  2  0
  8  9  1  0
  9  2  1  0
  9  5  1  0
  1 10  1  0
  1 11  1  0
  1 12  1  0
  3 13  1  0
  3 14  1  0
  3 15  1  0
  4 16  1  0
  4 17  1  0
  5 18  1  0
  6 19  1  0
  6 20  1  0
  7 21  1  0
  8 22  1  0
  9 23  1  0
M  END
