
     RDKit          3D

 19 21  0  0  0  0  0  0  0  0999 V2000
   -1.9264   -0.9478    0.5464 C   0  0  0  0  0  0  0  0  0  0  0  0
   -1.0589   -0.0163   -0.2206 C   0  0  0  0  0  0  0  0  0  0  0  0
   -1.6981    0.7328   -1.1842 O   0  0  0  0  0  0  0  0  0  0  0  0
   -0.0068    0.7276    0.5316 C   0  0  0  0  0  0  0  0  0  0  0  0
    0.7242   -0.5782    0.6482 C   0  0  0  0  0  0  0  0  0  0  0  0
    2.1560   -0.1909    0.5291 C   0  0  0  0  0  0  0  0  0  0  0  0
    2.1366    0.7539   -0.4059 C   0  0  0  0  0  0  0  0  0  0  0  0
    0.7179    0.8418   -0.7798 C   0  0  0  0  0  0  0  0  0  0  0  0
    0.2333   -0.5769   -0.7585 C   0  0  0  0  0  0  0  0  0  0  0  0
   -2.1034   -1.9007    0.0000 H   0  0  0  0  0  0  0  0  0  0  0  0
   -2.9388   -0.4712    0.6343 H   0  0  0  0  0  0  0  0  0  0  0  0
   -1.5984   -1.1355    1.5869 H   0  0  0  0  0  0  0  0  0  0  0  0
   -1.6033    1.7042   -1.0320 H   0  0  0  0  0  0  0  0  0  0  0  0
   -0.1150    1.4331    1.2312 H   0  0  0  0  0  0  0  0  0  0  0  0
    0.4231   -1.3113    1.3472 H   0  0  0  0  0  0  0  0  0  0  0  0
    2.9679   -0.6213    1.1023 H   0  0  0  0  0  0  0  0  0  0  0  0
    2.9661    1.3142   -0.7900 H   0  0  0  0  0  0  0  0  0  0  0  0
    0.3824    1.5174   -1.5206 H   0  0  0  0  0  0  0  0  0  0  0  0
    0.3416   -1.2750   -1.4656 H   0  0  0  0  0  0  0  0  0  0  0  0
  1  2  1  0
  2  3  1  0
  2  4  1  0
  4  5  1  0
  5  6  1  0
  6  7  2  0
  7  8  1  0
  8  9  1  0
  9  2  1  0
  8  4  1  0
  9  5  1  0
  1 10  1  0
  1 11  1  0
  1 12  1  0
  3 13  1  0
  4 14  1  0
  5 15  1  0
  6 16  1  0
  7 17  1  0
  8 18  1  0
  9 19  1  0
M  END
