
     RDKit          3D

 17 17  0  0  0  0  0  0  0  0999 V2000
   -0.5584    1.3836   -0.7810 C   0  0  0  0  0  0  0  0  0  0  0  0
    0.0628    0.2026   -0.0482 C   0  0  0  0  0  0  0  0  0  0  0  0
    1.4436    0.5072    0.4885 C   0  0  0  0  0  0  0  0  0  0  0  0
    2.0063   -0.5689    1.1546 O   0  0  0  0  0  0  0  0  0  0  0  0
   -0.1851   -1.1766   -0.5127 C   0  0  0  0  0  0  0  0  0  0  0  0
   -0.8894   -0.6129    0.7330 C   0  0  0  0  0  0  0  0  0  0  0  0
   -2.2587   -0.3723    0.5755 O   0  0  0  0  0  0  0  0  0  0  0  0
   -0.9959    2.0321    0.0325 H   0  0  0  0  0  0  0  0  0  0  0  0
    0.2050    1.9468   -1.3400 H   0  0  0  0  0  0  0  0  0  0  0  0
   -1.3512    0.9694   -1.4267 H   0  0  0  0  0  0  0  0  0  0  0  0
    1.4520    1.3735    1.1760 H   0  0  0  0  0  0  0  0  0  0  0  0
    2.1136    0.7570   -0.3599 H   0  0  0  0  0  0  0  0  0  0  0  0
    2.4389   -1.2141    0.5137 H   0  0  0  0  0  0  0  0  0  0  0  0
    0.5718   -1.9505   -0.2836 H   0  0  0  0  0  0  0  0  0  0  0  0
   -0.7876   -1.3855   -1.3939 H   0  0  0  0  0  0  0  0  0  0  0  0
   -0.6393   -1.0590    1.7023 H   0  0  0  0  0  0  0  0  0  0  0  0
   -2.6284   -0.8326   -0.2303 H   0  0  0  0  0  0  0  0  0  0  0  0
  1  2  1  0
  2  3  1  0
  3  4  1  0
  2  5  1  0
  5  6  1  0
  6  7  1  0
  6  2  1  0
  1  8  1  0
  1  9  1  0
  1 10  1  0
  3 11  1  0
  3 12  1  0
  4 13  1  0
  5 14  1  0
  5 15  1  0
  6 16  1  0
  7 17  1  0
M  END
