
     RDKit          3D

 16 16  0  0  0  0  0  0  0  0999 V2000
    1.6520    0.1655   -0.1629 C   0  0  0  0  0  0  0  0  0  0  0  0
    0.3328   -0.2650    0.4175 C   0  0  0  0  0  0  0  0  0  0  0  0
    0.5004   -1.1482    1.4755 O   0  0  0  0  0  0  0  0  0  0  0  0
   -0.4737   -0.9324   -0.6551 C   0  0  0  0  0  0  0  0  0  0  0  0
   -0.3413   -1.7890   -1.5021 O   0  0  0  0  0  0  0  0  0  0  0  0
   -1.6250   -0.0798   -0.2746 C   0  0  0  0  0  0  0  0  0  0  0  0
   -0.7183    0.7710    0.5589 C   0  0  0  0  0  0  0  0  0  0  0  0
   -0.4504    2.0292    0.0565 O   0  0  0  0  0  0  0  0  0  0  0  0
    1.5218    0.8595   -1.0113 H   0  0  0  0  0  0  0  0  0  0  0  0
    2.3602    0.5518    0.5996 H   0  0  0  0  0  0  0  0  0  0  0  0
    2.1104   -0.7646   -0.6099 H   0  0  0  0  0  0  0  0  0  0  0  0
    0.8638   -2.0157    1.1195 H   0  0  0  0  0  0  0  0  0  0  0  0
   -2.3217   -0.6830    0.3660 H   0  0  0  0  0  0  0  0  0  0  0  0
   -2.1489    0.4114   -1.1082 H   0  0  0  0  0  0  0  0  0  0  0  0
   -1.0386    0.8665    1.6300 H   0  0  0  0  0  0  0  0  0  0  0  0
   -0.2236    2.0227   -0.8993 H   0  0  0  0  0  0  0  0  0  0  0  0
  1  2  1  0
  2  3  1  0
  2  4  1  0
  4  5  2  0
  4  6  1  0
  6  7  1  0
  7  8  1  0
  7  2  1  0
  1  9  1  0
  1 10  1  0
  1 11  1  0
  3 12  1  0
  6 13  1  0
  6 14  1  0
  7 15  1  0
  8 16  1  0
M  END
