
     RDKit          3D

 19 19  0  0  0  0  0  0  0  0999 V2000
   -1.6432   -0.5433   -1.0125 C   0  0  0  0  0  0  0  0  0  0  0  0
   -0.5541   -0.1787   -0.0049 C   0  0  0  0  0  0  0  0  0  0  0  0
   -1.2881    0.3256    1.2446 C   0  0  0  0  0  0  0  0  0  0  0  0
    0.2517    0.9227   -0.5921 C   0  0  0  0  0  0  0  0  0  0  0  0
    1.6899    0.8356   -0.3244 C   0  0  0  0  0  0  0  0  0  0  0  0
    2.3211   -0.1818    0.1970 C   0  0  0  0  0  0  0  0  0  0  0  0
    1.5340   -1.3604    0.5564 C   0  0  0  0  0  0  0  0  0  0  0  0
    2.1432   -2.3525    1.0639 O   0  0  0  0  0  0  0  0  0  0  0  0
    0.1846   -1.3299    0.3265 O   0  0  0  0  0  0  0  0  0  0  0  0
   -2.6501   -0.4692   -0.5905 H   0  0  0  0  0  0  0  0  0  0  0  0
   -1.5099   -1.6176   -1.3117 H   0  0  0  0  0  0  0  0  0  0  0  0
   -1.6146    0.1158   -1.9039 H   0  0  0  0  0  0  0  0  0  0  0  0
   -0.6662    0.9646    1.8656 H   0  0  0  0  0  0  0  0  0  0  0  0
   -1.7609   -0.5226    1.7792 H   0  0  0  0  0  0  0  0  0  0  0  0
   -2.1531    0.9392    0.8578 H   0  0  0  0  0  0  0  0  0  0  0  0
    0.1228    0.9851   -1.7092 H   0  0  0  0  0  0  0  0  0  0  0  0
   -0.1085    1.9129   -0.2152 H   0  0  0  0  0  0  0  0  0  0  0  0
    2.2947    1.7075   -0.5868 H   0  0  0  0  0  0  0  0  0  0  0  0
    3.4067   -0.1531    0.3600 H   0  0  0  0  0  0  0  0  0  0  0  0
  1  2  1  0
  2  3  1  0
  2  4  1  0
  4  5  1  0
  5  6  2  0
  6  7  1  0
  7  8  2  0
  7  9  1  0
  9  2  1  0
  1 10  1  0
  1 11  1  0
  1 12  1  0
  3 13  1  0
  3 14  1  0
  3 15  1  0
  4 16  1  0
  4 17  1  0
  5 18  1  0
  6 19  1  0
M  END
