
     RDKit          3D

 21 22  0  0  0  0  0  0  0  0999 V2000
   -0.7747    0.8659    1.1289 C   0  0  0  0  0  0  0  0  0  0  0  0
   -0.7470   -0.0074   -0.0729 C   0  0  0  0  0  0  0  0  0  0  0  0
   -2.1063   -0.2792   -0.6118 C   0  0  0  0  0  0  0  0  0  0  0  0
    0.0664   -1.2747    0.0529 C   0  0  0  0  0  0  0  0  0  0  0  0
    1.3094   -1.0683    0.8196 C   0  0  0  0  0  0  0  0  0  0  0  0
    2.0761   -0.0388    0.4987 C   0  0  0  0  0  0  0  0  0  0  0  0
    1.5652    0.8373   -0.6152 C   0  0  0  0  0  0  0  0  0  0  0  0
    0.2801    0.2867   -1.1205 C   0  0  0  0  0  0  0  0  0  0  0  0
    0.4085   -1.0893   -1.3070 O   0  0  0  0  0  0  0  0  0  0  0  0
    0.2071    1.2588    1.4457 H   0  0  0  0  0  0  0  0  0  0  0  0
   -1.4956    1.6893    0.9418 H   0  0  0  0  0  0  0  0  0  0  0  0
   -1.2418    0.2654    1.9654 H   0  0  0  0  0  0  0  0  0  0  0  0
   -2.1159   -0.4268   -1.7057 H   0  0  0  0  0  0  0  0  0  0  0  0
   -2.4962   -1.1959   -0.0779 H   0  0  0  0  0  0  0  0  0  0  0  0
   -2.8206    0.5279   -0.3286 H   0  0  0  0  0  0  0  0  0  0  0  0
   -0.4776   -2.1988    0.2053 H   0  0  0  0  0  0  0  0  0  0  0  0
    1.5785   -1.7378    1.6139 H   0  0  0  0  0  0  0  0  0  0  0  0
    3.0048    0.1928    0.9730 H   0  0  0  0  0  0  0  0  0  0  0  0
    1.5357    1.8884   -0.3305 H   0  0  0  0  0  0  0  0  0  0  0  0
    2.3233    0.7380   -1.4296 H   0  0  0  0  0  0  0  0  0  0  0  0
   -0.0794    0.7667   -2.0453 H   0  0  0  0  0  0  0  0  0  0  0  0
  1  2  1  0
  2  3  1  0
  2  4  1  0
  4  5  1  0
  5  6  2  0
  6  7  1  0
  7  8  1  0
  8  9  1  0
  8  2  1  0
  9  4  1  0
  1 10  1  0
  1 11  1  0
  1 12  1  0
  3 13  1  0
  3 14  1  0
  3 15  1  0
  4 16  1  0
  5 17  1  0
  6 18  1  0
  7 19  1  0
  7 20  1  0
  8 21  1  0
M  END
