
     RDKit          3D

 21 21  0  0  0  0  0  0  0  0999 V2000
   -0.8184   -1.5514    0.6278 C   0  0  0  0  0  0  0  0  0  0  0  0
   -0.7246   -0.2809   -0.1855 C   0  0  0  0  0  0  0  0  0  0  0  0
   -1.9637    0.5855   -0.0880 C   0  0  0  0  0  0  0  0  0  0  0  0
   -0.0353   -0.2733   -1.4954 C   0  0  0  0  0  0  0  0  0  0  0  0
    0.6087    0.3807   -0.3296 C   0  0  0  0  0  0  0  0  0  0  0  0
    0.5732    1.8566   -0.1786 C   0  0  0  0  0  0  0  0  0  0  0  0
   -0.3314    2.5685   -0.5678 O   0  0  0  0  0  0  0  0  0  0  0  0
    1.8391   -0.2742    0.2325 C   0  0  0  0  0  0  0  0  0  0  0  0
    1.6545   -0.4186    1.6064 O   0  0  0  0  0  0  0  0  0  0  0  0
    0.1797   -2.0120    0.7402 H   0  0  0  0  0  0  0  0  0  0  0  0
   -1.3109   -1.3430    1.5832 H   0  0  0  0  0  0  0  0  0  0  0  0
   -1.4424   -2.2636    0.0117 H   0  0  0  0  0  0  0  0  0  0  0  0
   -2.1341    1.1563   -1.0246 H   0  0  0  0  0  0  0  0  0  0  0  0
   -1.7785    1.2996    0.7529 H   0  0  0  0  0  0  0  0  0  0  0  0
   -2.8510   -0.0161    0.1918 H   0  0  0  0  0  0  0  0  0  0  0  0
    0.4082   -1.2364   -1.8178 H   0  0  0  0  0  0  0  0  0  0  0  0
   -0.4532    0.3232   -2.3301 H   0  0  0  0  0  0  0  0  0  0  0  0
    1.4046    2.3398    0.3098 H   0  0  0  0  0  0  0  0  0  0  0  0
    2.6957    0.4265    0.0954 H   0  0  0  0  0  0  0  0  0  0  0  0
    2.0795   -1.2370   -0.2624 H   0  0  0  0  0  0  0  0  0  0  0  0
    2.4003   -0.0302    2.1281 H   0  0  0  0  0  0  0  0  0  0  0  0
  1  2  1  0
  2  3  1  0
  2  4  1  0
  4  5  1  0
  5  6  1  0
  6  7  2  0
  5  8  1  0
  8  9  1  0
  5  2  1  0
  1 10  1  0
  1 11  1  0
  1 12  1  0
  3 13  1  0
  3 14  1  0
  3 15  1  0
  4 16  1  0
  4 17  1  0
  6 18  1  0
  8 19  1  0
  8 20  1  0
  9 21  1  0
M  END
