
     RDKit          3D

 18 19  0  0  0  0  0  0  0  0999 V2000
   -2.2452    0.1558   -0.6714 C   0  0  0  0  0  0  0  0  0  0  0  0
   -0.9099   -0.3456   -0.2295 C   0  0  0  0  0  0  0  0  0  0  0  0
   -0.8051   -1.7328   -0.0232 O   0  0  0  0  0  0  0  0  0  0  0  0
   -0.2115    0.5555    0.7496 C   0  0  0  0  0  0  0  0  0  0  0  0
    0.9874   -0.0303    1.4225 C   0  0  0  0  0  0  0  0  0  0  0  0
    1.6041   -0.2311    0.0430 C   0  0  0  0  0  0  0  0  0  0  0  0
    2.7386    0.5491   -0.0689 O   0  0  0  0  0  0  0  0  0  0  0  0
    0.3565    0.3207   -0.5966 C   0  0  0  0  0  0  0  0  0  0  0  0
   -2.7839   -0.6874   -1.1541 H   0  0  0  0  0  0  0  0  0  0  0  0
   -2.8321    0.4266    0.2539 H   0  0  0  0  0  0  0  0  0  0  0  0
   -2.2108    1.0668   -1.2804 H   0  0  0  0  0  0  0  0  0  0  0  0
   -0.3262   -2.0715   -0.8419 H   0  0  0  0  0  0  0  0  0  0  0  0
   -0.5694    1.5627    0.9592 H   0  0  0  0  0  0  0  0  0  0  0  0
    0.7365   -1.0007    1.8969 H   0  0  0  0  0  0  0  0  0  0  0  0
    1.5401    0.6576    2.0836 H   0  0  0  0  0  0  0  0  0  0  0  0
    1.7559   -1.2834   -0.2406 H   0  0  0  0  0  0  0  0  0  0  0  0
    2.7533    1.0015   -0.9333 H   0  0  0  0  0  0  0  0  0  0  0  0
    0.4219    1.0864   -1.3687 H   0  0  0  0  0  0  0  0  0  0  0  0
  1  2  1  0
  2  3  1  0
  2  4  1  0
  4  5  1  0
  5  6  1  0
  6  7  1  0
  6  8  1  0
  8  2  1  0
  8  4  1  0
  1  9  1  0
  1 10  1  0
  1 11  1  0
  3 12  1  0
  4 13  1  0
  5 14  1  0
  5 15  1  0
  6 16  1  0
  7 17  1  0
  8 18  1  0
M  END
