
     RDKit          3D

 21 22  0  0  0  0  0  0  0  0999 V2000
    2.2293    0.0479   -0.5677 C   0  0  0  0  0  0  0  0  0  0  0  0
    0.9069   -0.3515    0.0960 C   0  0  0  0  0  0  0  0  0  0  0  0
    1.1434   -1.5792    0.7144 O   0  0  0  0  0  0  0  0  0  0  0  0
    0.4489    0.7105    1.0418 C   0  0  0  0  0  0  0  0  0  0  0  0
   -0.8668    1.2355    0.5355 C   0  0  0  0  0  0  0  0  0  0  0  0
   -1.3001    0.3550   -0.5955 C   0  0  0  0  0  0  0  0  0  0  0  0
   -2.0750   -0.8694   -0.2295 C   0  0  0  0  0  0  0  0  0  0  0  0
   -0.9668   -1.6350   -0.6343 O   0  0  0  0  0  0  0  0  0  0  0  0
   -0.1533   -0.5367   -0.9402 C   0  0  0  0  0  0  0  0  0  0  0  0
    3.0175   -0.0750    0.1955 H   0  0  0  0  0  0  0  0  0  0  0  0
    2.3811   -0.6682   -1.4061 H   0  0  0  0  0  0  0  0  0  0  0  0
    2.1077    1.0698   -0.9390 H   0  0  0  0  0  0  0  0  0  0  0  0
    0.9502   -1.5905    1.6651 H   0  0  0  0  0  0  0  0  0  0  0  0
    0.2968    0.3579    2.0811 H   0  0  0  0  0  0  0  0  0  0  0  0
    1.1723    1.5701    1.0119 H   0  0  0  0  0  0  0  0  0  0  0  0
   -1.6243    1.3083    1.3444 H   0  0  0  0  0  0  0  0  0  0  0  0
   -0.7730    2.2779    0.1184 H   0  0  0  0  0  0  0  0  0  0  0  0
   -1.7911    0.8847   -1.4428 H   0  0  0  0  0  0  0  0  0  0  0  0
   -2.3216   -0.9347    0.8399 H   0  0  0  0  0  0  0  0  0  0  0  0
   -2.9285   -1.1312   -0.8987 H   0  0  0  0  0  0  0  0  0  0  0  0
    0.1464   -0.4462   -1.9903 H   0  0  0  0  0  0  0  0  0  0  0  0
  1  2  1  0
  2  3  1  0
  2  4  1  0
  4  5  1  0
  5  6  1  0
  6  7  1  0
  7  8  1  0
  8  9  1  0
  9  2  1  0
  9  6  1  0
  1 10  1  0
  1 11  1  0
  1 12  1  0
  3 13  1  0
  4 14  1  0
  4 15  1  0
  5 16  1  0
  5 17  1  0
  6 18  1  0
  7 19  1  0
  7 20  1  0
  9 21  1  0
M  END
