
     RDKit          3D

 17 17  0  0  0  0  0  0  0  0999 V2000
   -1.5778   -0.3456    0.6211 C   0  0  0  0  0  0  0  0  0  0  0  0
   -0.4911    0.1962   -0.2538 C   0  0  0  0  0  0  0  0  0  0  0  0
   -1.0172    1.1476   -1.1250 O   0  0  0  0  0  0  0  0  0  0  0  0
    0.6367    0.8350    0.5010 C   0  0  0  0  0  0  0  0  0  0  0  0
    1.7954   -0.0998    0.1850 C   0  0  0  0  0  0  0  0  0  0  0  0
    1.4921   -0.4303   -1.1533 O   0  0  0  0  0  0  0  0  0  0  0  0
    0.1954   -0.9376   -0.9956 C   0  0  0  0  0  0  0  0  0  0  0  0
   -1.4443   -1.4546    0.7291 H   0  0  0  0  0  0  0  0  0  0  0  0
   -2.5505   -0.2361    0.0670 H   0  0  0  0  0  0  0  0  0  0  0  0
   -1.6624    0.1503    1.6010 H   0  0  0  0  0  0  0  0  0  0  0  0
   -1.2073    1.9521   -0.5664 H   0  0  0  0  0  0  0  0  0  0  0  0
    0.9054    1.8323    0.0701 H   0  0  0  0  0  0  0  0  0  0  0  0
    0.4680    0.9290    1.5787 H   0  0  0  0  0  0  0  0  0  0  0  0
    1.7495   -0.9970    0.8093 H   0  0  0  0  0  0  0  0  0  0  0  0
    2.7613    0.4077    0.1668 H   0  0  0  0  0  0  0  0  0  0  0  0
    0.2473   -1.7908   -0.2918 H   0  0  0  0  0  0  0  0  0  0  0  0
   -0.3004   -1.1584   -1.9432 H   0  0  0  0  0  0  0  0  0  0  0  0
  1  2  1  0
  2  3  1  0
  2  4  1  0
  4  5  1  0
  5  6  1  0
  6  7  1  0
  7  2  1  0
  1  8  1  0
  1  9  1  0
  1 10  1  0
  3 11  1  0
  4 12  1  0
  4 13  1  0
  5 14  1  0
  5 15  1  0
  7 16  1  0
  7 17  1  0
M  END
