
     RDKit          3D

 19 20  0  0  0  0  0  0  0  0999 V2000
   -2.1073   -0.4834   -0.4638 C   0  0  0  0  0  0  0  0  0  0  0  0
   -1.0634    0.4264    0.1101 C   0  0  0  0  0  0  0  0  0  0  0  0
   -1.6193    1.5934    0.5728 O   0  0  0  0  0  0  0  0  0  0  0  0
    0.0380    0.6189   -0.9012 C   0  0  0  0  0  0  0  0  0  0  0  0
    0.0352    1.1657   -2.0033 O   0  0  0  0  0  0  0  0  0  0  0  0
    1.0025   -0.0799   -0.0362 C   0  0  0  0  0  0  0  0  0  0  0  0
    2.3479    0.4831    0.2532 C   0  0  0  0  0  0  0  0  0  0  0  0
    0.6257   -1.4521    0.5288 C   0  0  0  0  0  0  0  0  0  0  0  0
   -0.0401   -0.2256    1.0031 C   0  0  0  0  0  0  0  0  0  0  0  0
   -1.5741   -1.3163   -0.9741 H   0  0  0  0  0  0  0  0  0  0  0  0
   -2.6614    0.1047   -1.2380 H   0  0  0  0  0  0  0  0  0  0  0  0
   -2.8580   -0.8279    0.2614 H   0  0  0  0  0  0  0  0  0  0  0  0
   -1.9703    2.1187   -0.1711 H   0  0  0  0  0  0  0  0  0  0  0  0
    2.8656    0.6743   -0.7268 H   0  0  0  0  0  0  0  0  0  0  0  0
    2.9488   -0.3204    0.7564 H   0  0  0  0  0  0  0  0  0  0  0  0
    2.3567    1.3926    0.8642 H   0  0  0  0  0  0  0  0  0  0  0  0
    0.1813   -2.1037   -0.2576 H   0  0  0  0  0  0  0  0  0  0  0  0
    1.3787   -1.8816    1.2064 H   0  0  0  0  0  0  0  0  0  0  0  0
    0.1135    0.1129    2.0310 H   0  0  0  0  0  0  0  0  0  0  0  0
  1  2  1  0
  2  3  1  0
  2  4  1  0
  4  5  2  0
  4  6  1  0
  6  7  1  0
  6  8  1  0
  8  9  1  0
  9  2  1  0
  9  6  1  0
  1 10  1  0
  1 11  1  0
  1 12  1  0
  3 13  1  0
  7 14  1  0
  7 15  1  0
  7 16  1  0
  8 17  1  0
  8 18  1  0
  9 19  1  0
M  END
