
     RDKit          3D

 23 24  0  0  0  0  0  0  0  0999 V2000
    1.6565   -1.0476   -0.7851 C   0  0  0  0  0  0  0  0  0  0  0  0
    1.0408   -0.0291    0.1549 C   0  0  0  0  0  0  0  0  0  0  0  0
    2.0112    1.1050    0.3967 C   0  0  0  0  0  0  0  0  0  0  0  0
    0.6176   -0.7145    1.4064 C   0  0  0  0  0  0  0  0  0  0  0  0
   -0.7347   -0.6934    1.5141 O   0  0  0  0  0  0  0  0  0  0  0  0
   -1.2912    0.0097    0.4901 C   0  0  0  0  0  0  0  0  0  0  0  0
   -2.5409   -0.4926   -0.2004 C   0  0  0  0  0  0  0  0  0  0  0  0
   -2.5744    0.7079    0.7093 C   0  0  0  0  0  0  0  0  0  0  0  0
   -0.2302    0.5331   -0.4047 C   0  0  0  0  0  0  0  0  0  0  0  0
    2.5094   -0.6543   -1.3515 H   0  0  0  0  0  0  0  0  0  0  0  0
    0.8353   -1.4446   -1.4032 H   0  0  0  0  0  0  0  0  0  0  0  0
    2.0309   -1.8963   -0.1666 H   0  0  0  0  0  0  0  0  0  0  0  0
    2.0009    1.2998    1.4982 H   0  0  0  0  0  0  0  0  0  0  0  0
    1.6348    2.0479   -0.0664 H   0  0  0  0  0  0  0  0  0  0  0  0
    3.0376    0.8791    0.0763 H   0  0  0  0  0  0  0  0  0  0  0  0
    1.0035   -1.7658    1.4703 H   0  0  0  0  0  0  0  0  0  0  0  0
    1.0665   -0.1788    2.2644 H   0  0  0  0  0  0  0  0  0  0  0  0
   -2.6904   -0.2321   -1.2710 H   0  0  0  0  0  0  0  0  0  0  0  0
   -2.9837   -1.4443    0.1264 H   0  0  0  0  0  0  0  0  0  0  0  0
   -2.6629    1.7227    0.2911 H   0  0  0  0  0  0  0  0  0  0  0  0
   -3.1482    0.5555    1.6304 H   0  0  0  0  0  0  0  0  0  0  0  0
   -0.2185    1.6267   -0.5360 H   0  0  0  0  0  0  0  0  0  0  0  0
   -0.3698    0.1060   -1.4331 H   0  0  0  0  0  0  0  0  0  0  0  0
  1  2  1  0
  2  3  1  0
  2  4  1  0
  4  5  1  0
  5  6  1  0
  6  7  1  0
  7  8  1  0
  6  9  1  0
  9  2  1  0
  8  6  1  0
  1 10  1  0
  1 11  1  0
  1 12  1  0
  3 13  1  0
  3 14  1  0
  3 15  1  0
  4 16  1  0
  4 17  1  0
  7 18  1  0
  7 19  1  0
  8 20  1  0
  8 21  1  0
  9 22  1  0
  9 23  1  0
M  END
