
     RDKit          3D

 21 22  0  0  0  0  0  0  0  0999 V2000
   -2.0531    0.9593   -0.8487 C   0  0  0  0  0  0  0  0  0  0  0  0
   -1.0087    0.1263   -0.1547 C   0  0  0  0  0  0  0  0  0  0  0  0
   -1.5504   -0.9040    0.8147 C   0  0  0  0  0  0  0  0  0  0  0  0
    0.2115   -0.2104   -0.9003 C   0  0  0  0  0  0  0  0  0  0  0  0
    1.4388   -0.7651   -0.2760 C   0  0  0  0  0  0  0  0  0  0  0  0
    2.5869   -0.2225   -0.8991 O   0  0  0  0  0  0  0  0  0  0  0  0
    1.2162    0.0101    1.0223 C   0  0  0  0  0  0  0  0  0  0  0  0
    2.3057    0.7032    1.4828 O   0  0  0  0  0  0  0  0  0  0  0  0
    0.2121    0.8486    0.2389 C   0  0  0  0  0  0  0  0  0  0  0  0
   -2.7568    1.3475   -0.0725 H   0  0  0  0  0  0  0  0  0  0  0  0
   -2.5767    0.3388   -1.5976 H   0  0  0  0  0  0  0  0  0  0  0  0
   -1.5871    1.8469   -1.3268 H   0  0  0  0  0  0  0  0  0  0  0  0
   -1.3564   -0.6124    1.8783 H   0  0  0  0  0  0  0  0  0  0  0  0
   -1.0081   -1.8711    0.6801 H   0  0  0  0  0  0  0  0  0  0  0  0
   -2.6185   -1.1269    0.6415 H   0  0  0  0  0  0  0  0  0  0  0  0
    0.2828    0.1650   -1.9294 H   0  0  0  0  0  0  0  0  0  0  0  0
    1.5034   -1.8440   -0.1126 H   0  0  0  0  0  0  0  0  0  0  0  0
    2.4544   -0.1664   -1.8729 H   0  0  0  0  0  0  0  0  0  0  0  0
    0.7335   -0.5606    1.8173 H   0  0  0  0  0  0  0  0  0  0  0  0
    3.0876    0.0958    1.5174 H   0  0  0  0  0  0  0  0  0  0  0  0
    0.4829    1.8419   -0.1028 H   0  0  0  0  0  0  0  0  0  0  0  0
  1  2  1  0
  2  3  1  0
  2  4  1  0
  4  5  1  0
  5  6  1  0
  5  7  1  0
  7  8  1  0
  7  9  1  0
  9  2  1  0
  9  4  1  0
  1 10  1  0
  1 11  1  0
  1 12  1  0
  3 13  1  0
  3 14  1  0
  3 15  1  0
  4 16  1  0
  5 17  1  0
  6 18  1  0
  7 19  1  0
  8 20  1  0
  9 21  1  0
M  END
