
     RDKit          3D

 17 18  0  0  0  0  0  0  0  0999 V2000
   -1.7932   -0.5791    0.0698 C   0  0  0  0  0  0  0  0  0  0  0  0
   -0.4684    0.0540   -0.3752 C   0  0  0  0  0  0  0  0  0  0  0  0
   -0.6188    1.3278   -1.0757 C   0  0  0  0  0  0  0  0  0  0  0  0
    0.2981    1.9962   -1.5174 O   0  0  0  0  0  0  0  0  0  0  0  0
    0.6014   -0.9099   -0.6544 C   0  0  0  0  0  0  0  0  0  0  0  0
    1.9147   -0.5639   -0.8329 O   0  0  0  0  0  0  0  0  0  0  0  0
    1.9894    0.3787    0.1884 C   0  0  0  0  0  0  0  0  0  0  0  0
    0.6213   -0.0248    0.6175 C   0  0  0  0  0  0  0  0  0  0  0  0
    0.4424   -0.6996    1.8230 O   0  0  0  0  0  0  0  0  0  0  0  0
   -1.7593   -1.6764    0.0140 H   0  0  0  0  0  0  0  0  0  0  0  0
   -2.6362   -0.1896   -0.5658 H   0  0  0  0  0  0  0  0  0  0  0  0
   -1.9942   -0.2021    1.0838 H   0  0  0  0  0  0  0  0  0  0  0  0
   -1.6140    1.7403   -1.2320 H   0  0  0  0  0  0  0  0  0  0  0  0
    0.4181   -1.9797   -0.5012 H   0  0  0  0  0  0  0  0  0  0  0  0
    2.7999    0.1865    0.9274 H   0  0  0  0  0  0  0  0  0  0  0  0
    2.1337    1.3837   -0.2411 H   0  0  0  0  0  0  0  0  0  0  0  0
   -0.3349   -0.2420    2.2718 H   0  0  0  0  0  0  0  0  0  0  0  0
  1  2  1  0
  2  3  1  0
  3  4  2  0
  2  5  1  0
  5  6  1  0
  6  7  1  0
  7  8  1  0
  8  9  1  0
  8  2  1  0
  8  5  1  0
  1 10  1  0
  1 11  1  0
  1 12  1  0
  3 13  1  0
  5 14  1  0
  7 15  1  0
  7 16  1  0
  9 17  1  0
M  END
