
     RDKit          3D

 27 27  0  0  0  0  0  0  0  0999 V2000
    1.6619    0.5570   -1.0638 C   0  0  0  0  0  0  0  0  0  0  0  0
    1.0723   -0.0990    0.1287 C   0  0  0  0  0  0  0  0  0  0  0  0
    2.2337   -0.6285    0.9819 C   0  0  0  0  0  0  0  0  0  0  0  0
    0.2706   -1.3054   -0.3064 C   0  0  0  0  0  0  0  0  0  0  0  0
   -0.9200   -0.8626   -1.1339 C   0  0  0  0  0  0  0  0  0  0  0  0
   -2.1175   -0.6315   -0.2817 C   0  0  0  0  0  0  0  0  0  0  0  0
   -2.1811    0.6944    0.3821 C   0  0  0  0  0  0  0  0  0  0  0  0
   -0.8838    1.4671    0.3418 C   0  0  0  0  0  0  0  0  0  0  0  0
    0.2498    0.7792    0.9973 C   0  0  0  0  0  0  0  0  0  0  0  0
    1.9256   -0.2483   -1.8015 H   0  0  0  0  0  0  0  0  0  0  0  0
    2.5743    1.1158   -0.7393 H   0  0  0  0  0  0  0  0  0  0  0  0
    1.0263    1.2638   -1.5923 H   0  0  0  0  0  0  0  0  0  0  0  0
    2.3808   -1.7084    0.8468 H   0  0  0  0  0  0  0  0  0  0  0  0
    2.0933   -0.4139    2.0462 H   0  0  0  0  0  0  0  0  0  0  0  0
    3.1961   -0.1372    0.6825 H   0  0  0  0  0  0  0  0  0  0  0  0
    0.9330   -1.9328   -0.9493 H   0  0  0  0  0  0  0  0  0  0  0  0
   -0.0560   -1.9314    0.5441 H   0  0  0  0  0  0  0  0  0  0  0  0
   -0.6042    0.0258   -1.7050 H   0  0  0  0  0  0  0  0  0  0  0  0
   -1.1285   -1.6786   -1.8719 H   0  0  0  0  0  0  0  0  0  0  0  0
   -2.1843   -1.4199    0.4945 H   0  0  0  0  0  0  0  0  0  0  0  0
   -3.0409   -0.7724   -0.9150 H   0  0  0  0  0  0  0  0  0  0  0  0
   -2.9452    1.3386   -0.1234 H   0  0  0  0  0  0  0  0  0  0  0  0
   -2.5067    0.6473    1.4528 H   0  0  0  0  0  0  0  0  0  0  0  0
   -0.7246    1.7914   -0.6898 H   0  0  0  0  0  0  0  0  0  0  0  0
   -1.0872    2.4142    0.9265 H   0  0  0  0  0  0  0  0  0  0  0  0
   -0.1569    0.1512    1.8291 H   0  0  0  0  0  0  0  0  0  0  0  0
    0.9192    1.5240    1.5190 H   0  0  0  0  0  0  0  0  0  0  0  0
  1  2  1  0
  2  3  1  0
  2  4  1  0
  4  5  1  0
  5  6  1  0
  6  7  1  0
  7  8  1  0
  8  9  1  0
  9  2  1  0
  1 10  1  0
  1 11  1  0
  1 12  1  0
  3 13  1  0
  3 14  1  0
  3 15  1  0
  4 16  1  0
  4 17  1  0
  5 18  1  0
  5 19  1  0
  6 20  1  0
  6 21  1  0
  7 22  1  0
  7 23  1  0
  8 24  1  0
  8 25  1  0
  9 26  1  0
  9 27  1  0
M  END
