
     RDKit          3D

 20 20  0  0  0  0  0  0  0  0999 V2000
   -2.0795    0.1906   -0.5851 C   0  0  0  0  0  0  0  0  0  0  0  0
   -0.6930    0.0369   -0.0422 C   0  0  0  0  0  0  0  0  0  0  0  0
   -0.6796    0.2476    1.3452 O   0  0  0  0  0  0  0  0  0  0  0  0
   -0.1244   -1.3573   -0.2810 C   0  0  0  0  0  0  0  0  0  0  0  0
    1.0713   -1.4679    0.5818 C   0  0  0  0  0  0  0  0  0  0  0  0
    1.8174   -0.3958    0.7599 C   0  0  0  0  0  0  0  0  0  0  0  0
    1.5652    0.9370    0.1646 C   0  0  0  0  0  0  0  0  0  0  0  0
    0.3003    0.9945   -0.6528 C   0  0  0  0  0  0  0  0  0  0  0  0
   -2.5456   -0.8106   -0.7655 H   0  0  0  0  0  0  0  0  0  0  0  0
   -2.1510    0.7808   -1.5019 H   0  0  0  0  0  0  0  0  0  0  0  0
   -2.7172    0.6699    0.1978 H   0  0  0  0  0  0  0  0  0  0  0  0
   -1.3787    0.9116    1.5558 H   0  0  0  0  0  0  0  0  0  0  0  0
   -0.8696   -2.1410   -0.0989 H   0  0  0  0  0  0  0  0  0  0  0  0
    0.2022   -1.4264   -1.3607 H   0  0  0  0  0  0  0  0  0  0  0  0
    1.3203   -2.4003    1.0486 H   0  0  0  0  0  0  0  0  0  0  0  0
    2.7047   -0.5033    1.4084 H   0  0  0  0  0  0  0  0  0  0  0  0
    1.4358    1.6635    1.0194 H   0  0  0  0  0  0  0  0  0  0  0  0
    2.4537    1.3040   -0.3905 H   0  0  0  0  0  0  0  0  0  0  0  0
    0.4990    0.7448   -1.7288 H   0  0  0  0  0  0  0  0  0  0  0  0
   -0.1312    2.0217   -0.6741 H   0  0  0  0  0  0  0  0  0  0  0  0
  1  2  1  0
  2  3  1  0
  2  4  1  0
  4  5  1  0
  5  6  2  0
  6  7  1  0
  7  8  1  0
  8  2  1  0
  1  9  1  0
  1 10  1  0
  1 11  1  0
  3 12  1  0
  4 13  1  0
  4 14  1  0
  5 15  1  0
  6 16  1  0
  7 17  1  0
  7 18  1  0
  8 19  1  0
  8 20  1  0
M  END
