
     RDKit          3D

 23 23  0  0  0  0  0  0  0  0999 V2000
   -1.9602   -1.0930    0.7897 C   0  0  0  0  0  0  0  0  0  0  0  0
   -1.0154   -0.1339    0.0319 C   0  0  0  0  0  0  0  0  0  0  0  0
   -1.9755    0.7665   -0.7570 C   0  0  0  0  0  0  0  0  0  0  0  0
   -0.2771   -0.9439   -0.7452 O   0  0  0  0  0  0  0  0  0  0  0  0
    0.8742   -0.4967   -1.2799 C   0  0  0  0  0  0  0  0  0  0  0  0
    2.0562   -0.6022   -0.3143 C   0  0  0  0  0  0  0  0  0  0  0  0
    1.8920    0.2712    0.8857 C   0  0  0  0  0  0  0  0  0  0  0  0
    0.7346    1.2478    0.7180 C   0  0  0  0  0  0  0  0  0  0  0  0
   -0.4221    0.6090    0.9798 O   0  0  0  0  0  0  0  0  0  0  0  0
   -1.2773   -1.7812    1.3326 H   0  0  0  0  0  0  0  0  0  0  0  0
   -2.5028   -1.7098    0.0547 H   0  0  0  0  0  0  0  0  0  0  0  0
   -2.6170   -0.5543    1.4693 H   0  0  0  0  0  0  0  0  0  0  0  0
   -2.8523    0.1790   -1.1095 H   0  0  0  0  0  0  0  0  0  0  0  0
   -2.3909    1.4841    0.0007 H   0  0  0  0  0  0  0  0  0  0  0  0
   -1.4742    1.3227   -1.5448 H   0  0  0  0  0  0  0  0  0  0  0  0
    1.1611   -1.2023   -2.1173 H   0  0  0  0  0  0  0  0  0  0  0  0
    0.8351    0.5031   -1.7656 H   0  0  0  0  0  0  0  0  0  0  0  0
    2.0992   -1.6950   -0.0409 H   0  0  0  0  0  0  0  0  0  0  0  0
    2.9985   -0.3927   -0.8394 H   0  0  0  0  0  0  0  0  0  0  0  0
    2.8278    0.7906    1.1733 H   0  0  0  0  0  0  0  0  0  0  0  0
    1.5968   -0.3993    1.7464 H   0  0  0  0  0  0  0  0  0  0  0  0
    0.8950    2.0070    1.5430 H   0  0  0  0  0  0  0  0  0  0  0  0
    0.7940    1.8234   -0.2111 H   0  0  0  0  0  0  0  0  0  0  0  0
  1  2  1  0
  2  3  1  0
  2  4  1  0
  4  5  1  0
  5  6  1  0
  6  7  1  0
  7  8  1  0
  8  9  1  0
  9  2  1  0
  1 10  1  0
  1 11  1  0
  1 12  1  0
  3 13  1  0
  3 14  1  0
  3 15  1  0
  5 16  1  0
  5 17  1  0
  6 18  1  0
  6 19  1  0
  7 20  1  0
  7 21  1  0
  8 22  1  0
  8 23  1  0
M  END
