
     RDKit          3D

 23 24  0  0  0  0  0  0  0  0999 V2000
   -1.9133    1.7665   -0.2496 C   0  0  0  0  0  0  0  0  0  0  0  0
   -1.2450    0.4331   -0.0241 C   0  0  0  0  0  0  0  0  0  0  0  0
   -1.5816   -0.6825   -1.0003 C   0  0  0  0  0  0  0  0  0  0  0  0
   -1.0764    0.0772    1.4346 C   0  0  0  0  0  0  0  0  0  0  0  0
    0.1227    0.3780    0.5279 C   0  0  0  0  0  0  0  0  0  0  0  0
    0.9787   -0.8307    0.2683 C   0  0  0  0  0  0  0  0  0  0  0  0
    2.3748   -0.7209    0.9183 C   0  0  0  0  0  0  0  0  0  0  0  0
    2.2028   -0.7559   -0.5527 C   0  0  0  0  0  0  0  0  0  0  0  0
    2.4798    0.3864   -1.2781 O   0  0  0  0  0  0  0  0  0  0  0  0
   -1.1554    2.5554   -0.1286 H   0  0  0  0  0  0  0  0  0  0  0  0
   -2.4126    1.8309   -1.2353 H   0  0  0  0  0  0  0  0  0  0  0  0
   -2.7048    1.9608    0.5072 H   0  0  0  0  0  0  0  0  0  0  0  0
   -0.8855   -0.5638   -1.8544 H   0  0  0  0  0  0  0  0  0  0  0  0
   -2.6312   -0.6595   -1.3234 H   0  0  0  0  0  0  0  0  0  0  0  0
   -1.4050   -1.6857   -0.5209 H   0  0  0  0  0  0  0  0  0  0  0  0
   -1.3048   -0.9623    1.6843 H   0  0  0  0  0  0  0  0  0  0  0  0
   -1.2937    0.8457    2.1998 H   0  0  0  0  0  0  0  0  0  0  0  0
    0.6185    1.3592    0.6921 H   0  0  0  0  0  0  0  0  0  0  0  0
    0.4920   -1.8215    0.3778 H   0  0  0  0  0  0  0  0  0  0  0  0
    2.6771    0.2309    1.3506 H   0  0  0  0  0  0  0  0  0  0  0  0
    2.7090   -1.6058    1.4882 H   0  0  0  0  0  0  0  0  0  0  0  0
    2.5274   -1.6960   -1.0421 H   0  0  0  0  0  0  0  0  0  0  0  0
    2.4266    0.1604   -2.2396 H   0  0  0  0  0  0  0  0  0  0  0  0
  1  2  1  0
  2  3  1  0
  2  4  1  0
  4  5  1  0
  5  6  1  0
  6  7  1  0
  7  8  1  0
  8  9  1  0
  5  2  1  0
  8  6  1  0
  1 10  1  0
  1 11  1  0
  1 12  1  0
  3 13  1  0
  3 14  1  0
  3 15  1  0
  4 16  1  0
  4 17  1  0
  5 18  1  0
  6 19  1  0
  7 20  1  0
  7 21  1  0
  8 22  1  0
  9 23  1  0
M  END
