
     RDKit          3D

 21 23  0  0  0  0  0  0  0  0999 V2000
   -1.6976    0.5149    1.2730 C   0  0  0  0  0  0  0  0  0  0  0  0
   -0.8506    0.2503    0.0235 C   0  0  0  0  0  0  0  0  0  0  0  0
    0.6125    0.3245    0.2662 C   0  0  0  0  0  0  0  0  0  0  0  0
    1.2499   -0.6193    1.2751 C   0  0  0  0  0  0  0  0  0  0  0  0
    1.5883   -0.6798   -0.1506 C   0  0  0  0  0  0  0  0  0  0  0  0
    2.4657    0.4722   -0.6436 C   0  0  0  0  0  0  0  0  0  0  0  0
    1.3937    1.3199   -0.2776 O   0  0  0  0  0  0  0  0  0  0  0  0
   -1.3140   -0.9027   -0.8602 C   0  0  0  0  0  0  0  0  0  0  0  0
   -1.4845    0.5705   -1.2621 C   0  0  0  0  0  0  0  0  0  0  0  0
   -2.7676    0.3300    1.0574 H   0  0  0  0  0  0  0  0  0  0  0  0
   -1.6081    1.5944    1.5060 H   0  0  0  0  0  0  0  0  0  0  0  0
   -1.3205   -0.0581    2.1330 H   0  0  0  0  0  0  0  0  0  0  0  0
    0.5985   -1.4124    1.6668 H   0  0  0  0  0  0  0  0  0  0  0  0
    2.0381   -0.1960    1.9447 H   0  0  0  0  0  0  0  0  0  0  0  0
    1.3532   -1.5044   -0.8115 H   0  0  0  0  0  0  0  0  0  0  0  0
    2.6561    0.4045   -1.7149 H   0  0  0  0  0  0  0  0  0  0  0  0
    3.3672    0.6161    0.0044 H   0  0  0  0  0  0  0  0  0  0  0  0
   -2.2298   -1.4530   -0.5549 H   0  0  0  0  0  0  0  0  0  0  0  0
   -0.5671   -1.4290   -1.4878 H   0  0  0  0  0  0  0  0  0  0  0  0
   -0.9372    0.9406   -2.1412 H   0  0  0  0  0  0  0  0  0  0  0  0
   -2.5461    0.9166   -1.2457 H   0  0  0  0  0  0  0  0  0  0  0  0
  1  2  1  0
  2  3  1  0
  3  4  1  0
  4  5  1  0
  5  6  1  0
  6  7  1  0
  2  8  1  0
  8  9  1  0
  9  2  1  0
  5  3  1  0
  7  3  1  0
  1 10  1  0
  1 11  1  0
  1 12  1  0
  4 13  1  0
  4 14  1  0
  5 15  1  0
  6 16  1  0
  6 17  1  0
  8 18  1  0
  8 19  1  0
  9 20  1  0
  9 21  1  0
M  END
