
     RDKit          3D

 18 18  0  0  0  0  0  0  0  0999 V2000
    1.1012   -1.0223   -0.8398 C   0  0  0  0  0  0  0  0  0  0  0  0
    0.4571    0.0652   -0.0006 C   0  0  0  0  0  0  0  0  0  0  0  0
    1.2495    0.4201    1.2308 C   0  0  0  0  0  0  0  0  0  0  0  0
   -0.3069    1.0845   -0.7469 C   0  0  0  0  0  0  0  0  0  0  0  0
   -1.0159    0.1375    0.1440 C   0  0  0  0  0  0  0  0  0  0  0  0
   -1.5306    0.7111    1.3160 O   0  0  0  0  0  0  0  0  0  0  0  0
   -1.8829   -0.9376   -0.4037 C   0  0  0  0  0  0  0  0  0  0  0  0
   -1.5909   -1.5549   -1.4293 O   0  0  0  0  0  0  0  0  0  0  0  0
    2.1771   -0.7519   -0.9825 H   0  0  0  0  0  0  0  0  0  0  0  0
    0.6683   -1.1107   -1.8422 H   0  0  0  0  0  0  0  0  0  0  0  0
    1.1108   -1.9841   -0.2846 H   0  0  0  0  0  0  0  0  0  0  0  0
    0.6832    1.0646    1.9376 H   0  0  0  0  0  0  0  0  0  0  0  0
    2.2265    0.8787    1.0018 H   0  0  0  0  0  0  0  0  0  0  0  0
    1.4356   -0.5425    1.7798 H   0  0  0  0  0  0  0  0  0  0  0  0
   -0.1818    2.1320   -0.4349 H   0  0  0  0  0  0  0  0  0  0  0  0
   -0.3920    0.9707   -1.8579 H   0  0  0  0  0  0  0  0  0  0  0  0
   -1.3863    1.6865    1.3525 H   0  0  0  0  0  0  0  0  0  0  0  0
   -2.8221   -1.2469    0.0599 H   0  0  0  0  0  0  0  0  0  0  0  0
  1  2  1  0
  2  3  1  0
  2  4  1  0
  4  5  1  0
  5  6  1  0
  5  7  1  0
  7  8  2  0
  5  2  1  0
  1  9  1  0
  1 10  1  0
  1 11  1  0
  3 12  1  0
  3 13  1  0
  3 14  1  0
  4 15  1  0
  4 16  1  0
  6 17  1  0
  7 18  1  0
M  END
