
     RDKit          3D

 21 21  0  0  0  0  0  0  0  0999 V2000
   -1.8764   -0.9732   -0.7596 C   0  0  0  0  0  0  0  0  0  0  0  0
   -0.7766   -0.1983   -0.1139 C   0  0  0  0  0  0  0  0  0  0  0  0
   -1.0774    0.1704    1.3298 C   0  0  0  0  0  0  0  0  0  0  0  0
   -0.4463    1.0916   -0.8368 C   0  0  0  0  0  0  0  0  0  0  0  0
    0.9720    1.2983   -0.4167 C   0  0  0  0  0  0  0  0  0  0  0  0
    1.5229    0.1717   -0.0067 C   0  0  0  0  0  0  0  0  0  0  0  0
    2.8942    0.0567    0.4640 C   0  0  0  0  0  0  0  0  0  0  0  0
    3.6487    1.0675    0.5033 O   0  0  0  0  0  0  0  0  0  0  0  0
    0.5467   -0.9459   -0.0964 C   0  0  0  0  0  0  0  0  0  0  0  0
   -1.4929   -1.6877   -1.4908 H   0  0  0  0  0  0  0  0  0  0  0  0
   -2.5830   -0.2243   -1.2201 H   0  0  0  0  0  0  0  0  0  0  0  0
   -2.4480   -1.4910    0.0637 H   0  0  0  0  0  0  0  0  0  0  0  0
   -1.9101    0.8728    1.3513 H   0  0  0  0  0  0  0  0  0  0  0  0
   -0.1298    0.5906    1.7410 H   0  0  0  0  0  0  0  0  0  0  0  0
   -1.2954   -0.7929    1.8498 H   0  0  0  0  0  0  0  0  0  0  0  0
   -1.1033    1.9062   -0.5109 H   0  0  0  0  0  0  0  0  0  0  0  0
   -0.5147    0.9497   -1.9489 H   0  0  0  0  0  0  0  0  0  0  0  0
    1.4845    2.2497   -0.4441 H   0  0  0  0  0  0  0  0  0  0  0  0
    3.2620   -0.9180    0.7832 H   0  0  0  0  0  0  0  0  0  0  0  0
    0.6975   -1.5558   -1.0081 H   0  0  0  0  0  0  0  0  0  0  0  0
    0.6257   -1.6380    0.7670 H   0  0  0  0  0  0  0  0  0  0  0  0
  1  2  1  0
  2  3  1  0
  2  4  1  0
  4  5  1  0
  5  6  2  0
  6  7  1  0
  7  8  2  0
  6  9  1  0
  9  2  1  0
  1 10  1  0
  1 11  1  0
  1 12  1  0
  3 13  1  0
  3 14  1  0
  3 15  1  0
  4 16  1  0
  4 17  1  0
  5 18  1  0
  7 19  1  0
  9 20  1  0
  9 21  1  0
M  END
