
     RDKit          3D

 21 22  0  0  0  0  0  0  0  0999 V2000
   -1.1746    0.5160   -1.4044 C   0  0  0  0  0  0  0  0  0  0  0  0
   -0.5091    0.2894   -0.1134 C   0  0  0  0  0  0  0  0  0  0  0  0
   -1.2421    0.7663    1.0958 C   0  0  0  0  0  0  0  0  0  0  0  0
   -0.1311   -1.1800    0.1280 C   0  0  0  0  0  0  0  0  0  0  0  0
    0.9467   -1.3283   -0.9097 C   0  0  0  0  0  0  0  0  0  0  0  0
    1.4843   -0.0478   -1.1079 O   0  0  0  0  0  0  0  0  0  0  0  0
    0.9580    0.7440   -0.0982 C   0  0  0  0  0  0  0  0  0  0  0  0
    1.3455    0.0934    1.2158 C   0  0  0  0  0  0  0  0  0  0  0  0
    0.5296   -1.0336    1.3649 O   0  0  0  0  0  0  0  0  0  0  0  0
   -0.8669   -0.2236   -2.1601 H   0  0  0  0  0  0  0  0  0  0  0  0
   -2.2628    0.4816   -1.2706 H   0  0  0  0  0  0  0  0  0  0  0  0
   -0.9156    1.5203   -1.7846 H   0  0  0  0  0  0  0  0  0  0  0  0
   -2.3054    0.5316    0.9732 H   0  0  0  0  0  0  0  0  0  0  0  0
   -0.8917    0.1912    1.9953 H   0  0  0  0  0  0  0  0  0  0  0  0
   -1.0503    1.8423    1.2910 H   0  0  0  0  0  0  0  0  0  0  0  0
   -0.9366   -1.8614    0.1144 H   0  0  0  0  0  0  0  0  0  0  0  0
    1.7390   -2.0246   -0.5485 H   0  0  0  0  0  0  0  0  0  0  0  0
    0.5563   -1.6611   -1.8950 H   0  0  0  0  0  0  0  0  0  0  0  0
    1.1036    1.7871   -0.1760 H   0  0  0  0  0  0  0  0  0  0  0  0
    2.4099   -0.2141    1.2200 H   0  0  0  0  0  0  0  0  0  0  0  0
    1.2133    0.8113    2.0701 H   0  0  0  0  0  0  0  0  0  0  0  0
  1  2  1  0
  2  3  1  0
  2  4  1  0
  4  5  1  0
  5  6  1  0
  6  7  1  0
  7  8  1  0
  8  9  1  0
  7  2  1  0
  9  4  1  0
  1 10  1  0
  1 11  1  0
  1 12  1  0
  3 13  1  0
  3 14  1  0
  3 15  1  0
  4 16  1  0
  5 17  1  0
  5 18  1  0
  7 19  1  0
  8 20  1  0
  8 21  1  0
M  END
