
     RDKit          3D

 21 22  0  0  0  0  0  0  0  0999 V2000
   -1.8403    1.2925    0.1551 C   0  0  0  0  0  0  0  0  0  0  0  0
   -0.7642    0.2571    0.0549 C   0  0  0  0  0  0  0  0  0  0  0  0
   -1.3125   -1.1208    0.0559 C   0  0  0  0  0  0  0  0  0  0  0  0
    0.3660    0.5567    0.9750 C   0  0  0  0  0  0  0  0  0  0  0  0
    1.4094   -0.5270    0.7606 C   0  0  0  0  0  0  0  0  0  0  0  0
    1.3591   -0.5049   -0.7809 C   0  0  0  0  0  0  0  0  0  0  0  0
    2.5959   -0.1068   -1.2684 O   0  0  0  0  0  0  0  0  0  0  0  0
    0.3257    0.5682   -0.9343 C   0  0  0  0  0  0  0  0  0  0  0  0
    0.7801    1.5132    0.0167 O   0  0  0  0  0  0  0  0  0  0  0  0
   -2.5295    1.2876   -0.7032 H   0  0  0  0  0  0  0  0  0  0  0  0
   -2.4618    1.0446    1.0602 H   0  0  0  0  0  0  0  0  0  0  0  0
   -1.4363    2.3208    0.3764 H   0  0  0  0  0  0  0  0  0  0  0  0
   -0.6584   -1.9095   -0.2958 H   0  0  0  0  0  0  0  0  0  0  0  0
   -1.6963   -1.4172    1.0528 H   0  0  0  0  0  0  0  0  0  0  0  0
   -2.2152   -1.1254   -0.6158 H   0  0  0  0  0  0  0  0  0  0  0  0
    0.1908    0.9039    1.9662 H   0  0  0  0  0  0  0  0  0  0  0  0
    2.3901   -0.1990    1.1184 H   0  0  0  0  0  0  0  0  0  0  0  0
    1.0637   -1.4838    1.1614 H   0  0  0  0  0  0  0  0  0  0  0  0
    1.1120   -1.4662   -1.2035 H   0  0  0  0  0  0  0  0  0  0  0  0
    3.2518   -0.8188   -1.0484 H   0  0  0  0  0  0  0  0  0  0  0  0
    0.0699    0.9348   -1.9031 H   0  0  0  0  0  0  0  0  0  0  0  0
  1  2  1  0
  2  3  1  0
  2  4  1  0
  4  5  1  0
  5  6  1  0
  6  7  1  0
  6  8  1  0
  8  9  1  0
  8  2  1  0
  9  4  1  0
  1 10  1  0
  1 11  1  0
  1 12  1  0
  3 13  1  0
  3 14  1  0
  3 15  1  0
  4 16  1  0
  5 17  1  0
  5 18  1  0
  6 19  1  0
  7 20  1  0
  8 21  1  0
M  END
