
     RDKit          3D

 19 19  0  0  0  0  0  0  0  0999 V2000
   -1.6564   -1.2749   -0.3251 C   0  0  0  0  0  0  0  0  0  0  0  0
   -0.8310   -0.0151   -0.1199 C   0  0  0  0  0  0  0  0  0  0  0  0
   -1.7295    1.0525   -0.1290 O   0  0  0  0  0  0  0  0  0  0  0  0
    0.1331    0.2105   -1.2187 C   0  0  0  0  0  0  0  0  0  0  0  0
    1.4166    0.4701   -1.0572 C   0  0  0  0  0  0  0  0  0  0  0  0
    2.0778    0.5727    0.2724 C   0  0  0  0  0  0  0  0  0  0  0  0
    1.0030    0.7662    1.2542 C   0  0  0  0  0  0  0  0  0  0  0  0
    1.0735    1.6483    2.0536 O   0  0  0  0  0  0  0  0  0  0  0  0
   -0.1441   -0.1421    1.2259 C   0  0  0  0  0  0  0  0  0  0  0  0
   -0.9909   -2.0772   -0.7242 H   0  0  0  0  0  0  0  0  0  0  0  0
   -2.0233   -1.5763    0.6733 H   0  0  0  0  0  0  0  0  0  0  0  0
   -2.5189   -1.0861   -0.9910 H   0  0  0  0  0  0  0  0  0  0  0  0
   -2.3514    0.8809   -0.9006 H   0  0  0  0  0  0  0  0  0  0  0  0
   -0.2781    0.1513   -2.2328 H   0  0  0  0  0  0  0  0  0  0  0  0
    2.0239    0.6169   -1.9390 H   0  0  0  0  0  0  0  0  0  0  0  0
    2.5845   -0.3998    0.5090 H   0  0  0  0  0  0  0  0  0  0  0  0
    2.8216    1.3956    0.3095 H   0  0  0  0  0  0  0  0  0  0  0  0
    0.2321   -1.2057    1.2841 H   0  0  0  0  0  0  0  0  0  0  0  0
   -0.8423    0.0121    2.0555 H   0  0  0  0  0  0  0  0  0  0  0  0
  1  2  1  0
  2  3  1  0
  2  4  1  0
  4  5  2  0
  5  6  1  0
  6  7  1  0
  7  8  2  0
  7  9  1  0
  9  2  1  0
  1 10  1  0
  1 11  1  0
  1 12  1  0
  3 13  1  0
  4 14  1  0
  5 15  1  0
  6 16  1  0
  6 17  1  0
  9 18  1  0
  9 19  1  0
M  END
