
     RDKit          3D

 20 21  0  0  0  0  0  0  0  0999 V2000
   -1.1402   -1.3480    0.6470 C   0  0  0  0  0  0  0  0  0  0  0  0
   -0.7493    0.0004    0.0913 C   0  0  0  0  0  0  0  0  0  0  0  0
   -1.4741    1.1563    0.7567 C   0  0  0  0  0  0  0  0  0  0  0  0
   -0.6378    0.0857   -1.4531 C   0  0  0  0  0  0  0  0  0  0  0  0
    0.5026    0.2489   -0.5965 C   0  0  0  0  0  0  0  0  0  0  0  0
    1.7053   -0.6084   -0.5366 C   0  0  0  0  0  0  0  0  0  0  0  0
    2.1608    0.5789    0.3090 C   0  0  0  0  0  0  0  0  0  0  0  0
    1.2765    1.3643   -0.4616 O   0  0  0  0  0  0  0  0  0  0  0  0
   -2.0504   -1.6692    0.0974 H   0  0  0  0  0  0  0  0  0  0  0  0
   -1.3072   -1.2142    1.7312 H   0  0  0  0  0  0  0  0  0  0  0  0
   -0.3753   -2.1203    0.5155 H   0  0  0  0  0  0  0  0  0  0  0  0
   -2.5579    1.1073    0.4951 H   0  0  0  0  0  0  0  0  0  0  0  0
   -1.0913    2.1047    0.3067 H   0  0  0  0  0  0  0  0  0  0  0  0
   -1.2905    1.0879    1.8411 H   0  0  0  0  0  0  0  0  0  0  0  0
   -1.1358    0.9806   -1.9166 H   0  0  0  0  0  0  0  0  0  0  0  0
   -0.8075   -0.8639   -1.9787 H   0  0  0  0  0  0  0  0  0  0  0  0
    2.3336   -0.6577   -1.4608 H   0  0  0  0  0  0  0  0  0  0  0  0
    1.6557   -1.5411    0.0515 H   0  0  0  0  0  0  0  0  0  0  0  0
    3.2103    0.8487    0.2136 H   0  0  0  0  0  0  0  0  0  0  0  0
    1.7726    0.4590    1.3476 H   0  0  0  0  0  0  0  0  0  0  0  0
  1  2  1  0
  2  3  1  0
  2  4  1  0
  4  5  1  0
  5  6  1  0
  6  7  1  0
  7  8  1  0
  5  2  1  0
  8  5  1  0
  1  9  1  0
  1 10  1  0
  1 11  1  0
  3 12  1  0
  3 13  1  0
  3 14  1  0
  4 15  1  0
  4 16  1  0
  6 17  1  0
  6 18  1  0
  7 19  1  0
  7 20  1  0
M  END
