
     RDKit          3D

 23 23  0  0  0  0  0  0  0  0999 V2000
    0.5224   -1.0677   -1.2296 C   0  0  0  0  0  0  0  0  0  0  0  0
    0.5064   -0.1087   -0.0673 C   0  0  0  0  0  0  0  0  0  0  0  0
    1.9258    0.1900    0.3236 C   0  0  0  0  0  0  0  0  0  0  0  0
    1.9827    1.0785    1.4020 O   0  0  0  0  0  0  0  0  0  0  0  0
   -0.1754    1.1870   -0.3965 C   0  0  0  0  0  0  0  0  0  0  0  0
   -1.6245    0.9564   -0.7272 C   0  0  0  0  0  0  0  0  0  0  0  0
   -2.2543    0.3928    0.3510 O   0  0  0  0  0  0  0  0  0  0  0  0
   -1.7274   -0.7912    0.7852 C   0  0  0  0  0  0  0  0  0  0  0  0
   -0.2604   -0.7759    1.0555 C   0  0  0  0  0  0  0  0  0  0  0  0
    1.2884   -1.8573   -0.9730 H   0  0  0  0  0  0  0  0  0  0  0  0
    0.8139   -0.5537   -2.1626 H   0  0  0  0  0  0  0  0  0  0  0  0
   -0.4566   -1.5846   -1.3163 H   0  0  0  0  0  0  0  0  0  0  0  0
    2.4095    0.6861   -0.5441 H   0  0  0  0  0  0  0  0  0  0  0  0
    2.4796   -0.7515    0.6069 H   0  0  0  0  0  0  0  0  0  0  0  0
    2.3509    1.9629    1.1190 H   0  0  0  0  0  0  0  0  0  0  0  0
   -0.1565    1.8042    0.5395 H   0  0  0  0  0  0  0  0  0  0  0  0
    0.3741    1.7243   -1.2001 H   0  0  0  0  0  0  0  0  0  0  0  0
   -2.1111    1.9563   -0.9024 H   0  0  0  0  0  0  0  0  0  0  0  0
   -1.6960    0.4044   -1.6641 H   0  0  0  0  0  0  0  0  0  0  0  0
   -2.0267   -1.6392    0.1111 H   0  0  0  0  0  0  0  0  0  0  0  0
   -2.2375   -1.0227    1.7653 H   0  0  0  0  0  0  0  0  0  0  0  0
   -0.0222   -0.3463    2.0496 H   0  0  0  0  0  0  0  0  0  0  0  0
    0.0950   -1.8442    1.0746 H   0  0  0  0  0  0  0  0  0  0  0  0
  1  2  1  0
  2  3  1  0
  3  4  1  0
  2  5  1  0
  5  6  1  0
  6  7  1  0
  7  8  1  0
  8  9  1  0
  9  2  1  0
  1 10  1  0
  1 11  1  0
  1 12  1  0
  3 13  1  0
  3 14  1  0
  4 15  1  0
  5 16  1  0
  5 17  1  0
  6 18  1  0
  6 19  1  0
  8 20  1  0
  8 21  1  0
  9 22  1  0
  9 23  1  0
M  END
