
     RDKit          3D

 21 22  0  0  0  0  0  0  0  0999 V2000
   -1.6783    1.0837    0.0188 C   0  0  0  0  0  0  0  0  0  0  0  0
   -0.6651   -0.0563   -0.1145 C   0  0  0  0  0  0  0  0  0  0  0  0
   -1.3199   -1.1990   -0.8896 C   0  0  0  0  0  0  0  0  0  0  0  0
   -0.3535   -0.4937    1.2339 C   0  0  0  0  0  0  0  0  0  0  0  0
    0.9114   -0.4699    1.4866 C   0  0  0  0  0  0  0  0  0  0  0  0
    1.6558   -0.0000    0.3141 C   0  0  0  0  0  0  0  0  0  0  0  0
    2.6900   -0.8255   -0.0922 O   0  0  0  0  0  0  0  0  0  0  0  0
    1.5069    1.3828   -0.1774 C   0  0  0  0  0  0  0  0  0  0  0  0
    0.6044    0.3822   -0.7262 C   0  0  0  0  0  0  0  0  0  0  0  0
   -1.5749    1.7558   -0.8426 H   0  0  0  0  0  0  0  0  0  0  0  0
   -1.5029    1.6068    0.9668 H   0  0  0  0  0  0  0  0  0  0  0  0
   -2.6818    0.5947    0.0212 H   0  0  0  0  0  0  0  0  0  0  0  0
   -1.3232   -2.1100   -0.2601 H   0  0  0  0  0  0  0  0  0  0  0  0
   -2.3862   -0.9571   -1.1128 H   0  0  0  0  0  0  0  0  0  0  0  0
   -0.7882   -1.3499   -1.8472 H   0  0  0  0  0  0  0  0  0  0  0  0
   -1.1149   -0.8134    1.9674 H   0  0  0  0  0  0  0  0  0  0  0  0
    1.4503   -0.7446    2.4206 H   0  0  0  0  0  0  0  0  0  0  0  0
    2.3652   -1.7343   -0.2641 H   0  0  0  0  0  0  0  0  0  0  0  0
    1.1295    2.1836    0.5095 H   0  0  0  0  0  0  0  0  0  0  0  0
    2.3108    1.7556   -0.8446 H   0  0  0  0  0  0  0  0  0  0  0  0
    0.7644    0.0085   -1.7675 H   0  0  0  0  0  0  0  0  0  0  0  0
  1  2  1  0
  2  3  1  0
  2  4  1  0
  4  5  2  0
  5  6  1  0
  6  7  1  0
  6  8  1  0
  8  9  1  0
  9  2  1  0
  9  6  1  0
  1 10  1  0
  1 11  1  0
  1 12  1  0
  3 13  1  0
  3 14  1  0
  3 15  1  0
  4 16  1  0
  5 17  1  0
  7 18  1  0
  8 19  1  0
  8 20  1  0
  9 21  1  0
M  END
