
     RDKit          3D

 23 23  0  0  0  0  0  0  0  0999 V2000
   -1.4251   -0.4120   -1.3147 C   0  0  0  0  0  0  0  0  0  0  0  0
   -0.6102   -0.1994   -0.0471 C   0  0  0  0  0  0  0  0  0  0  0  0
   -1.4683   -0.7171    1.1158 C   0  0  0  0  0  0  0  0  0  0  0  0
   -0.4878    1.2870    0.1434 C   0  0  0  0  0  0  0  0  0  0  0  0
    0.9480    1.7452    0.0237 C   0  0  0  0  0  0  0  0  0  0  0  0
    1.6744    1.0227    0.9646 O   0  0  0  0  0  0  0  0  0  0  0  0
    1.7990   -0.3046    0.6812 C   0  0  0  0  0  0  0  0  0  0  0  0
    0.6704   -0.9362   -0.0310 C   0  0  0  0  0  0  0  0  0  0  0  0
    1.0174   -1.2377   -1.3685 O   0  0  0  0  0  0  0  0  0  0  0  0
   -2.5007   -0.2528   -1.0231 H   0  0  0  0  0  0  0  0  0  0  0  0
   -1.2419   -1.3715   -1.7923 H   0  0  0  0  0  0  0  0  0  0  0  0
   -1.2219    0.4281   -2.0433 H   0  0  0  0  0  0  0  0  0  0  0  0
   -0.8267   -0.5522    2.0274 H   0  0  0  0  0  0  0  0  0  0  0  0
   -2.4056   -0.1540    1.1456 H   0  0  0  0  0  0  0  0  0  0  0  0
   -1.6166   -1.8141    0.9445 H   0  0  0  0  0  0  0  0  0  0  0  0
   -0.8388    1.6193    1.1494 H   0  0  0  0  0  0  0  0  0  0  0  0
   -1.0732    1.8724   -0.5929 H   0  0  0  0  0  0  0  0  0  0  0  0
    1.3532    1.6723   -0.9881 H   0  0  0  0  0  0  0  0  0  0  0  0
    0.9698    2.8059    0.3565 H   0  0  0  0  0  0  0  0  0  0  0  0
    2.7270   -0.4268    0.0511 H   0  0  0  0  0  0  0  0  0  0  0  0
    2.0645   -0.8288    1.6461 H   0  0  0  0  0  0  0  0  0  0  0  0
    0.5012   -1.9501    0.4397 H   0  0  0  0  0  0  0  0  0  0  0  0
    1.9921   -1.2953   -1.4879 H   0  0  0  0  0  0  0  0  0  0  0  0
  1  2  1  0
  2  3  1  0
  2  4  1  0
  4  5  1  0
  5  6  1  0
  6  7  1  0
  7  8  1  0
  8  9  1  0
  8  2  1  0
  1 10  1  0
  1 11  1  0
  1 12  1  0
  3 13  1  0
  3 14  1  0
  3 15  1  0
  4 16  1  0
  4 17  1  0
  5 18  1  0
  5 19  1  0
  7 20  1  0
  7 21  1  0
  8 22  1  0
  9 23  1  0
M  END
