
     RDKit          3D

 19 19  0  0  0  0  0  0  0  0999 V2000
   -1.2565   -0.8704   -1.0022 C   0  0  0  0  0  0  0  0  0  0  0  0
   -0.4595    0.0425   -0.1335 C   0  0  0  0  0  0  0  0  0  0  0  0
   -0.7943    0.0465    1.3216 C   0  0  0  0  0  0  0  0  0  0  0  0
   -0.2017    1.4280   -0.6694 C   0  0  0  0  0  0  0  0  0  0  0  0
    1.2132    1.2600   -0.2591 C   0  0  0  0  0  0  0  0  0  0  0  0
    2.1012    2.0135    0.0490 O   0  0  0  0  0  0  0  0  0  0  0  0
    1.0383   -0.1821   -0.3961 C   0  0  0  0  0  0  0  0  0  0  0  0
    1.5615   -1.0345    0.6948 C   0  0  0  0  0  0  0  0  0  0  0  0
    2.5463   -0.7949    1.3416 O   0  0  0  0  0  0  0  0  0  0  0  0
   -2.2964   -1.0276   -0.6419 H   0  0  0  0  0  0  0  0  0  0  0  0
   -0.7691   -1.8855   -0.9268 H   0  0  0  0  0  0  0  0  0  0  0  0
   -1.2142   -0.5911   -2.0590 H   0  0  0  0  0  0  0  0  0  0  0  0
   -1.8924    0.2025    1.4112 H   0  0  0  0  0  0  0  0  0  0  0  0
   -0.4382   -0.8366    1.8607 H   0  0  0  0  0  0  0  0  0  0  0  0
   -0.2956    0.9288    1.7875 H   0  0  0  0  0  0  0  0  0  0  0  0
   -0.6860    2.2515   -0.1061 H   0  0  0  0  0  0  0  0  0  0  0  0
   -0.3684    1.5582   -1.7532 H   0  0  0  0  0  0  0  0  0  0  0  0
    1.2278   -0.5675   -1.4190 H   0  0  0  0  0  0  0  0  0  0  0  0
    0.9839   -1.9412    0.8999 H   0  0  0  0  0  0  0  0  0  0  0  0
  1  2  1  0
  2  3  1  0
  2  4  1  0
  4  5  1  0
  5  6  2  0
  5  7  1  0
  7  8  1  0
  8  9  2  0
  7  2  1  0
  1 10  1  0
  1 11  1  0
  1 12  1  0
  3 13  1  0
  3 14  1  0
  3 15  1  0
  4 16  1  0
  4 17  1  0
  7 18  1  0
  8 19  1  0
M  END
