
     RDKit          3D

 19 20  0  0  0  0  0  0  0  0999 V2000
   -1.7368   -0.0246   -1.1431 C   0  0  0  0  0  0  0  0  0  0  0  0
   -0.7676    0.1379   -0.0192 C   0  0  0  0  0  0  0  0  0  0  0  0
   -1.3524   -0.2122    1.3420 C   0  0  0  0  0  0  0  0  0  0  0  0
   -0.2020    1.4260    0.0703 O   0  0  0  0  0  0  0  0  0  0  0  0
    1.1140    1.0510    0.1317 C   0  0  0  0  0  0  0  0  0  0  0  0
    1.5895   -0.1504    0.8390 C   0  0  0  0  0  0  0  0  0  0  0  0
    2.9374   -0.4532    0.6837 O   0  0  0  0  0  0  0  0  0  0  0  0
    0.6272   -0.3839   -0.2562 C   0  0  0  0  0  0  0  0  0  0  0  0
    1.0051   -0.7682   -1.5191 O   0  0  0  0  0  0  0  0  0  0  0  0
   -2.6272    0.6230   -0.8904 H   0  0  0  0  0  0  0  0  0  0  0  0
   -2.0625   -1.0627   -1.1962 H   0  0  0  0  0  0  0  0  0  0  0  0
   -1.2922    0.3633   -2.0747 H   0  0  0  0  0  0  0  0  0  0  0  0
   -2.3983    0.2130    1.3254 H   0  0  0  0  0  0  0  0  0  0  0  0
   -0.7941    0.3239    2.1485 H   0  0  0  0  0  0  0  0  0  0  0  0
   -1.4025   -1.3029    1.5110 H   0  0  0  0  0  0  0  0  0  0  0  0
    1.7839    1.5503   -0.5692 H   0  0  0  0  0  0  0  0  0  0  0  0
    1.2029   -0.3946    1.8670 H   0  0  0  0  0  0  0  0  0  0  0  0
    3.0069   -0.9405   -0.1910 H   0  0  0  0  0  0  0  0  0  0  0  0
    1.3686    0.0047   -2.0594 H   0  0  0  0  0  0  0  0  0  0  0  0
  1  2  1  0
  2  3  1  0
  2  4  1  0
  4  5  1  0
  5  6  1  0
  6  7  1  0
  6  8  1  0
  8  9  1  0
  8  2  1  0
  8  5  1  0
  1 10  1  0
  1 11  1  0
  1 12  1  0
  3 13  1  0
  3 14  1  0
  3 15  1  0
  5 16  1  0
  6 17  1  0
  7 18  1  0
  9 19  1  0
M  END
