
     RDKit          3D

 23 23  0  0  0  0  0  0  0  0999 V2000
   -1.9836   -1.0364   -0.8037 C   0  0  0  0  0  0  0  0  0  0  0  0
   -1.3691    0.0503    0.0459 C   0  0  0  0  0  0  0  0  0  0  0  0
   -1.9084    1.4477   -0.1702 C   0  0  0  0  0  0  0  0  0  0  0  0
   -1.1360   -0.3584    1.5167 C   0  0  0  0  0  0  0  0  0  0  0  0
    0.0028   -0.0906    0.5878 C   0  0  0  0  0  0  0  0  0  0  0  0
    0.7839   -1.1769    0.3303 O   0  0  0  0  0  0  0  0  0  0  0  0
    2.1159   -0.8643    0.2703 C   0  0  0  0  0  0  0  0  0  0  0  0
    2.5379    0.0377   -0.8464 C   0  0  0  0  0  0  0  0  0  0  0  0
    1.9530    1.2853   -0.8709 O   0  0  0  0  0  0  0  0  0  0  0  0
   -1.4061   -1.2310   -1.7300 H   0  0  0  0  0  0  0  0  0  0  0  0
   -3.0224   -0.7773   -1.0461 H   0  0  0  0  0  0  0  0  0  0  0  0
   -2.0127   -2.0018   -0.2543 H   0  0  0  0  0  0  0  0  0  0  0  0
   -1.4937    2.1164    0.6137 H   0  0  0  0  0  0  0  0  0  0  0  0
   -1.5913    1.8731   -1.1404 H   0  0  0  0  0  0  0  0  0  0  0  0
   -3.0139    1.3730   -0.0940 H   0  0  0  0  0  0  0  0  0  0  0  0
   -1.3871    0.3853    2.2803 H   0  0  0  0  0  0  0  0  0  0  0  0
   -1.3870   -1.4011    1.7974 H   0  0  0  0  0  0  0  0  0  0  0  0
    0.5312    0.8648    0.7588 H   0  0  0  0  0  0  0  0  0  0  0  0
    2.6793   -1.8373    0.1074 H   0  0  0  0  0  0  0  0  0  0  0  0
    2.5041   -0.4399    1.2306 H   0  0  0  0  0  0  0  0  0  0  0  0
    3.6579    0.1937   -0.8430 H   0  0  0  0  0  0  0  0  0  0  0  0
    2.3386   -0.4149   -1.8469 H   0  0  0  0  0  0  0  0  0  0  0  0
    2.6068    2.0026   -1.0066 H   0  0  0  0  0  0  0  0  0  0  0  0
  1  2  1  0
  2  3  1  0
  2  4  1  0
  4  5  1  0
  5  6  1  0
  6  7  1  0
  7  8  1  0
  8  9  1  0
  5  2  1  0
  1 10  1  0
  1 11  1  0
  1 12  1  0
  3 13  1  0
  3 14  1  0
  3 15  1  0
  4 16  1  0
  4 17  1  0
  5 18  1  0
  7 19  1  0
  7 20  1  0
  8 21  1  0
  8 22  1  0
  9 23  1  0
M  END
