
     RDKit          3D

 23 24  0  0  0  0  0  0  0  0999 V2000
   -1.5136    1.6585   -0.3750 C   0  0  0  0  0  0  0  0  0  0  0  0
   -1.0516    0.2378   -0.0725 C   0  0  0  0  0  0  0  0  0  0  0  0
    0.2847   -0.1375   -0.5843 C   0  0  0  0  0  0  0  0  0  0  0  0
    1.3931    0.7627   -0.0157 C   0  0  0  0  0  0  0  0  0  0  0  0
    2.2889   -0.4713   -0.2132 C   0  0  0  0  0  0  0  0  0  0  0  0
    3.2748   -0.5595    0.7241 O   0  0  0  0  0  0  0  0  0  0  0  0
    1.0165   -1.2760    0.0978 C   0  0  0  0  0  0  0  0  0  0  0  0
   -1.6372   -0.4715    1.0677 C   0  0  0  0  0  0  0  0  0  0  0  0
   -2.1725   -0.7886   -0.3090 C   0  0  0  0  0  0  0  0  0  0  0  0
   -2.6035    1.7317   -0.5123 H   0  0  0  0  0  0  0  0  0  0  0  0
   -1.1881    2.3026    0.4674 H   0  0  0  0  0  0  0  0  0  0  0  0
   -1.0326    1.9440   -1.3229 H   0  0  0  0  0  0  0  0  0  0  0  0
    0.3784   -0.2790   -1.6889 H   0  0  0  0  0  0  0  0  0  0  0  0
    1.6497    1.6086   -0.6481 H   0  0  0  0  0  0  0  0  0  0  0  0
    1.2366    0.9197    1.0496 H   0  0  0  0  0  0  0  0  0  0  0  0
    2.5624   -0.5385   -1.2666 H   0  0  0  0  0  0  0  0  0  0  0  0
    3.8295    0.2667    0.6729 H   0  0  0  0  0  0  0  0  0  0  0  0
    0.8360   -1.3137    1.1670 H   0  0  0  0  0  0  0  0  0  0  0  0
    0.9704   -2.2463   -0.4509 H   0  0  0  0  0  0  0  0  0  0  0  0
   -2.2730    0.1348    1.7457 H   0  0  0  0  0  0  0  0  0  0  0  0
   -1.1521   -1.3108    1.5656 H   0  0  0  0  0  0  0  0  0  0  0  0
   -1.9004   -1.7465   -0.7829 H   0  0  0  0  0  0  0  0  0  0  0  0
   -3.1963   -0.4280   -0.4927 H   0  0  0  0  0  0  0  0  0  0  0  0
  1  2  1  0
  2  3  1  0
  3  4  1  0
  4  5  1  0
  5  6  1  0
  5  7  1  0
  2  8  1  0
  8  9  1  0
  9  2  1  0
  7  3  1  0
  1 10  1  0
  1 11  1  0
  1 12  1  0
  3 13  1  0
  4 14  1  0
  4 15  1  0
  5 16  1  0
  6 17  1  0
  7 18  1  0
  7 19  1  0
  8 20  1  0
  8 21  1  0
  9 22  1  0
  9 23  1  0
M  END
