
     RDKit          3D

 23 24  0  0  0  0  0  0  0  0999 V2000
   -1.7038    1.1249    0.8914 C   0  0  0  0  0  0  0  0  0  0  0  0
   -0.9535    0.0959    0.0505 C   0  0  0  0  0  0  0  0  0  0  0  0
    0.4924   -0.0220    0.3956 C   0  0  0  0  0  0  0  0  0  0  0  0
    0.7954   -0.3938    1.6878 O   0  0  0  0  0  0  0  0  0  0  0  0
    1.3448   -0.8022   -0.5864 C   0  0  0  0  0  0  0  0  0  0  0  0
    2.4745    0.1351   -0.1274 C   0  0  0  0  0  0  0  0  0  0  0  0
    1.3552    1.1776   -0.0089 C   0  0  0  0  0  0  0  0  0  0  0  0
   -1.5153   -0.2458   -1.2548 C   0  0  0  0  0  0  0  0  0  0  0  0
   -1.6491   -1.2415   -0.1668 C   0  0  0  0  0  0  0  0  0  0  0  0
   -1.0495    1.6520    1.5927 H   0  0  0  0  0  0  0  0  0  0  0  0
   -2.1285    1.8738    0.1854 H   0  0  0  0  0  0  0  0  0  0  0  0
   -2.5543    0.6729    1.4215 H   0  0  0  0  0  0  0  0  0  0  0  0
    0.8779   -1.3808    1.7151 H   0  0  0  0  0  0  0  0  0  0  0  0
    1.5079   -1.8543   -0.3438 H   0  0  0  0  0  0  0  0  0  0  0  0
    1.1089   -0.5688   -1.6544 H   0  0  0  0  0  0  0  0  0  0  0  0
    3.2306    0.3465   -0.8714 H   0  0  0  0  0  0  0  0  0  0  0  0
    2.8056   -0.2080    0.8735 H   0  0  0  0  0  0  0  0  0  0  0  0
    1.5125    1.9204    0.7733 H   0  0  0  0  0  0  0  0  0  0  0  0
    1.0375    1.5300   -0.9959 H   0  0  0  0  0  0  0  0  0  0  0  0
   -0.8773   -0.5447   -2.1184 H   0  0  0  0  0  0  0  0  0  0  0  0
   -2.4367    0.2950   -1.5841 H   0  0  0  0  0  0  0  0  0  0  0  0
   -2.6311   -1.4094    0.3466 H   0  0  0  0  0  0  0  0  0  0  0  0
   -1.0442   -2.1526   -0.2209 H   0  0  0  0  0  0  0  0  0  0  0  0
  1  2  1  0
  2  3  1  0
  3  4  1  0
  3  5  1  0
  5  6  1  0
  6  7  1  0
  2  8  1  0
  8  9  1  0
  9  2  1  0
  7  3  1  0
  1 10  1  0
  1 11  1  0
  1 12  1  0
  4 13  1  0
  5 14  1  0
  5 15  1  0
  6 16  1  0
  6 17  1  0
  7 18  1  0
  7 19  1  0
  8 20  1  0
  8 21  1  0
  9 22  1  0
  9 23  1  0
M  END
