
     RDKit          3D

 23 23  0  0  0  0  0  0  0  0999 V2000
   -0.4940    1.5891   -0.3041 C   0  0  0  0  0  0  0  0  0  0  0  0
   -0.5915    0.1426    0.0506 C   0  0  0  0  0  0  0  0  0  0  0  0
   -1.6291   -0.1122    1.1163 C   0  0  0  0  0  0  0  0  0  0  0  0
   -1.6155   -1.5071    1.3518 O   0  0  0  0  0  0  0  0  0  0  0  0
   -0.7552   -0.6931   -1.2015 C   0  0  0  0  0  0  0  0  0  0  0  0
    0.7764   -0.8322   -1.1951 C   0  0  0  0  0  0  0  0  0  0  0  0
    0.7112   -0.5762    0.2757 C   0  0  0  0  0  0  0  0  0  0  0  0
    1.8214    0.2461    0.8589 C   0  0  0  0  0  0  0  0  0  0  0  0
    2.1035    1.3156   -0.0069 O   0  0  0  0  0  0  0  0  0  0  0  0
   -1.5297    1.9146   -0.6181 H   0  0  0  0  0  0  0  0  0  0  0  0
    0.1416    1.7818   -1.1886 H   0  0  0  0  0  0  0  0  0  0  0  0
   -0.2074    2.2469    0.5405 H   0  0  0  0  0  0  0  0  0  0  0  0
   -2.6474    0.1308    0.7596 H   0  0  0  0  0  0  0  0  0  0  0  0
   -1.3832    0.3512    2.0741 H   0  0  0  0  0  0  0  0  0  0  0  0
   -2.3788   -1.9450    0.9210 H   0  0  0  0  0  0  0  0  0  0  0  0
   -1.1549   -0.1653   -2.0808 H   0  0  0  0  0  0  0  0  0  0  0  0
   -1.1998   -1.7044   -1.0059 H   0  0  0  0  0  0  0  0  0  0  0  0
    1.0923   -1.8517   -1.5075 H   0  0  0  0  0  0  0  0  0  0  0  0
    1.2919   -0.0136   -1.7228 H   0  0  0  0  0  0  0  0  0  0  0  0
    0.5528   -1.5179    0.8277 H   0  0  0  0  0  0  0  0  0  0  0  0
    2.7348   -0.3832    0.8781 H   0  0  0  0  0  0  0  0  0  0  0  0
    1.6202    0.5829    1.8802 H   0  0  0  0  0  0  0  0  0  0  0  0
    2.7402    1.0002   -0.7033 H   0  0  0  0  0  0  0  0  0  0  0  0
  1  2  1  0
  2  3  1  0
  3  4  1  0
  2  5  1  0
  5  6  1  0
  6  7  1  0
  7  8  1  0
  8  9  1  0
  7  2  1  0
  1 10  1  0
  1 11  1  0
  1 12  1  0
  3 13  1  0
  3 14  1  0
  4 15  1  0
  5 16  1  0
  5 17  1  0
  6 18  1  0
  6 19  1  0
  7 20  1  0
  8 21  1  0
  8 22  1  0
  9 23  1  0
M  END
