
     RDKit          3D

 19 20  0  0  0  0  0  0  0  0999 V2000
    1.6554   -1.5353    0.0471 C   0  0  0  0  0  0  0  0  0  0  0  0
    0.9490   -0.2412   -0.2514 C   0  0  0  0  0  0  0  0  0  0  0  0
   -0.5385   -0.3129   -0.2239 C   0  0  0  0  0  0  0  0  0  0  0  0
   -1.2574    0.9911   -0.5247 C   0  0  0  0  0  0  0  0  0  0  0  0
   -2.2856    0.5033    0.5060 C   0  0  0  0  0  0  0  0  0  0  0  0
   -1.1750   -0.2701    1.1141 C   0  0  0  0  0  0  0  0  0  0  0  0
   -0.8985   -0.6868    2.2094 O   0  0  0  0  0  0  0  0  0  0  0  0
    1.7253    0.9681   -0.2955 C   0  0  0  0  0  0  0  0  0  0  0  0
    1.4103    0.3492   -1.5175 O   0  0  0  0  0  0  0  0  0  0  0  0
    1.3564   -1.8603    1.0465 H   0  0  0  0  0  0  0  0  0  0  0  0
    2.7396   -1.3861    0.0217 H   0  0  0  0  0  0  0  0  0  0  0  0
    1.3907   -2.3317   -0.6723 H   0  0  0  0  0  0  0  0  0  0  0  0
   -0.9671   -1.1005   -0.9061 H   0  0  0  0  0  0  0  0  0  0  0  0
   -0.7778    1.8972   -0.1173 H   0  0  0  0  0  0  0  0  0  0  0  0
   -1.6547    1.0770   -1.5430 H   0  0  0  0  0  0  0  0  0  0  0  0
   -2.7299    1.2854    1.1183 H   0  0  0  0  0  0  0  0  0  0  0  0
   -3.0006   -0.1812   -0.0085 H   0  0  0  0  0  0  0  0  0  0  0  0
    1.2600    1.9367   -0.0512 H   0  0  0  0  0  0  0  0  0  0  0  0
    2.7985    0.8980    0.0483 H   0  0  0  0  0  0  0  0  0  0  0  0
  1  2  1  0
  2  3  1  0
  3  4  1  0
  4  5  1  0
  5  6  1  0
  6  7  2  0
  2  8  1  0
  8  9  1  0
  9  2  1  0
  6  3  1  0
  1 10  1  0
  1 11  1  0
  1 12  1  0
  3 13  1  0
  4 14  1  0
  4 15  1  0
  5 16  1  0
  5 17  1  0
  8 18  1  0
  8 19  1  0
M  END
