
     RDKit          3D

 21 22  0  0  0  0  0  0  0  0999 V2000
   -1.4734   -1.1274   -0.1090 C   0  0  0  0  0  0  0  0  0  0  0  0
   -0.8536    0.2611    0.0637 C   0  0  0  0  0  0  0  0  0  0  0  0
   -1.8927    1.2848    0.2035 C   0  0  0  0  0  0  0  0  0  0  0  0
   -2.3582    1.9409   -0.7094 O   0  0  0  0  0  0  0  0  0  0  0  0
    0.1393    0.2638    1.2235 C   0  0  0  0  0  0  0  0  0  0  0  0
    1.2983   -0.5124    0.7142 C   0  0  0  0  0  0  0  0  0  0  0  0
    2.3716    0.0614   -0.0984 C   0  0  0  0  0  0  0  0  0  0  0  0
    1.1959   -0.4648   -0.8124 C   0  0  0  0  0  0  0  0  0  0  0  0
    0.0811    0.5136   -1.0995 C   0  0  0  0  0  0  0  0  0  0  0  0
   -2.1980   -1.0503   -0.9251 H   0  0  0  0  0  0  0  0  0  0  0  0
   -0.6858   -1.8363   -0.3789 H   0  0  0  0  0  0  0  0  0  0  0  0
   -1.9590   -1.4820    0.8069 H   0  0  0  0  0  0  0  0  0  0  0  0
   -2.2779    1.4732    1.1993 H   0  0  0  0  0  0  0  0  0  0  0  0
    0.3926    1.3394    1.3942 H   0  0  0  0  0  0  0  0  0  0  0  0
   -0.3130   -0.1952    2.1236 H   0  0  0  0  0  0  0  0  0  0  0  0
    1.4765   -1.4959    1.1954 H   0  0  0  0  0  0  0  0  0  0  0  0
    2.5560    1.1470   -0.2028 H   0  0  0  0  0  0  0  0  0  0  0  0
    3.2941   -0.5405   -0.2105 H   0  0  0  0  0  0  0  0  0  0  0  0
    1.1482   -1.4521   -1.2714 H   0  0  0  0  0  0  0  0  0  0  0  0
   -0.3585    0.2976   -2.0717 H   0  0  0  0  0  0  0  0  0  0  0  0
    0.4165    1.5740   -1.0351 H   0  0  0  0  0  0  0  0  0  0  0  0
  1  2  1  0
  2  3  1  0
  3  4  2  0
  2  5  1  0
  5  6  1  0
  6  7  1  0
  7  8  1  0
  8  9  1  0
  9  2  1  0
  8  6  1  0
  1 10  1  0
  1 11  1  0
  1 12  1  0
  3 13  1  0
  5 14  1  0
  5 15  1  0
  6 16  1  0
  7 17  1  0
  7 18  1  0
  8 19  1  0
  9 20  1  0
  9 21  1  0
M  END
