
     RDKit          3D

 19 20  0  0  0  0  0  0  0  0999 V2000
   -2.0565   -0.9565    0.6687 C   0  0  0  0  0  0  0  0  0  0  0  0
   -0.9865   -0.0359    0.1354 C   0  0  0  0  0  0  0  0  0  0  0  0
   -1.5260    1.1944   -0.5168 C   0  0  0  0  0  0  0  0  0  0  0  0
   -2.3513    1.0394   -1.3939 O   0  0  0  0  0  0  0  0  0  0  0  0
    0.0389   -0.6805   -0.7507 C   0  0  0  0  0  0  0  0  0  0  0  0
    0.9377    0.0001    0.2090 C   0  0  0  0  0  0  0  0  0  0  0  0
    2.3201   -0.2946    0.4493 C   0  0  0  0  0  0  0  0  0  0  0  0
    1.9001    1.0438   -0.1532 C   0  0  0  0  0  0  0  0  0  0  0  0
   -0.0443    0.2153    1.1324 O   0  0  0  0  0  0  0  0  0  0  0  0
   -2.9588   -0.7964    0.0440 H   0  0  0  0  0  0  0  0  0  0  0  0
   -2.2549   -0.6246    1.7220 H   0  0  0  0  0  0  0  0  0  0  0  0
   -1.7350   -2.0025    0.6726 H   0  0  0  0  0  0  0  0  0  0  0  0
   -1.2379    2.1920   -0.2666 H   0  0  0  0  0  0  0  0  0  0  0  0
    0.1008   -1.7844   -0.6512 H   0  0  0  0  0  0  0  0  0  0  0  0
    0.0805   -0.3276   -1.7963 H   0  0  0  0  0  0  0  0  0  0  0  0
    2.8296   -1.0105   -0.2570 H   0  0  0  0  0  0  0  0  0  0  0  0
    2.7671   -0.2964    1.4639 H   0  0  0  0  0  0  0  0  0  0  0  0
    2.1085    1.9108    0.5172 H   0  0  0  0  0  0  0  0  0  0  0  0
    2.0679    1.2141   -1.2286 H   0  0  0  0  0  0  0  0  0  0  0  0
  1  2  1  0
  2  3  1  0
  3  4  2  0
  2  5  1  0
  5  6  1  0
  6  7  1  0
  7  8  1  0
  6  9  1  0
  9  2  1  0
  8  6  1  0
  1 10  1  0
  1 11  1  0
  1 12  1  0
  3 13  1  0
  5 14  1  0
  5 15  1  0
  7 16  1  0
  7 17  1  0
  8 18  1  0
  8 19  1  0
M  END
