
     RDKit          3D

 17 17  0  0  0  0  0  0  0  0999 V2000
    1.7373   -0.1533    0.7039 C   0  0  0  0  0  0  0  0  0  0  0  0
    0.7454   -0.1037   -0.4507 C   0  0  0  0  0  0  0  0  0  0  0  0
    1.2724   -0.7745   -1.5777 O   0  0  0  0  0  0  0  0  0  0  0  0
   -0.0230    1.1083   -0.7475 C   0  0  0  0  0  0  0  0  0  0  0  0
   -0.6984   -0.1785   -0.2273 C   0  0  0  0  0  0  0  0  0  0  0  0
   -1.2837   -0.0714    1.1737 C   0  0  0  0  0  0  0  0  0  0  0  0
   -1.4967   -0.8395   -1.1739 O   0  0  0  0  0  0  0  0  0  0  0  0
    1.3320    0.2229    1.6386 H   0  0  0  0  0  0  0  0  0  0  0  0
    2.5768    0.5249    0.4038 H   0  0  0  0  0  0  0  0  0  0  0  0
    2.1525   -1.1687    0.7872 H   0  0  0  0  0  0  0  0  0  0  0  0
    0.7118   -1.5065   -1.8767 H   0  0  0  0  0  0  0  0  0  0  0  0
   -0.0746    1.9868   -0.0855 H   0  0  0  0  0  0  0  0  0  0  0  0
   -0.2217    1.3733   -1.8188 H   0  0  0  0  0  0  0  0  0  0  0  0
   -0.6267   -0.5358    1.9217 H   0  0  0  0  0  0  0  0  0  0  0  0
   -1.4216    1.0131    1.4414 H   0  0  0  0  0  0  0  0  0  0  0  0
   -2.3185   -0.4999    1.2032 H   0  0  0  0  0  0  0  0  0  0  0  0
   -2.3632   -0.3975   -1.3155 H   0  0  0  0  0  0  0  0  0  0  0  0
  1  2  1  0
  2  3  1  0
  2  4  1  0
  4  5  1  0
  5  6  1  0
  5  7  1  0
  5  2  1  0
  1  8  1  0
  1  9  1  0
  1 10  1  0
  3 11  1  0
  4 12  1  0
  4 13  1  0
  6 14  1  0
  6 15  1  0
  6 16  1  0
  7 17  1  0
M  END
