
     RDKit          3D

 19 20  0  0  0  0  0  0  0  0999 V2000
   -2.0477    0.0909   -0.3296 C   0  0  0  0  0  0  0  0  0  0  0  0
   -0.8298   -0.4735    0.3124 C   0  0  0  0  0  0  0  0  0  0  0  0
   -0.9960   -1.7014    0.9580 O   0  0  0  0  0  0  0  0  0  0  0  0
    0.4249   -0.5054   -0.5170 C   0  0  0  0  0  0  0  0  0  0  0  0
    0.4320    0.9876   -0.3762 C   0  0  0  0  0  0  0  0  0  0  0  0
    1.7164    1.5197   -0.5038 O   0  0  0  0  0  0  0  0  0  0  0  0
    0.0852    0.4985    1.0075 C   0  0  0  0  0  0  0  0  0  0  0  0
    1.1518   -0.5312    0.8014 C   0  0  0  0  0  0  0  0  0  0  0  0
    2.4548   -0.0925    0.7908 O   0  0  0  0  0  0  0  0  0  0  0  0
   -2.3662    1.0649    0.0658 H   0  0  0  0  0  0  0  0  0  0  0  0
   -2.8769   -0.6620   -0.1848 H   0  0  0  0  0  0  0  0  0  0  0  0
   -1.8967    0.1320   -1.4326 H   0  0  0  0  0  0  0  0  0  0  0  0
   -1.3362   -1.6207    1.8680 H   0  0  0  0  0  0  0  0  0  0  0  0
    0.6101   -1.0539   -1.3277 H   0  0  0  0  0  0  0  0  0  0  0  0
   -0.3632    1.5423   -0.8939 H   0  0  0  0  0  0  0  0  0  0  0  0
    1.9438    2.1344    0.2407 H   0  0  0  0  0  0  0  0  0  0  0  0
   -0.1064    1.0479    1.8160 H   0  0  0  0  0  0  0  0  0  0  0  0
    0.9678   -1.4640    1.3663 H   0  0  0  0  0  0  0  0  0  0  0  0
    3.0323   -0.9134    0.8844 H   0  0  0  0  0  0  0  0  0  0  0  0
  1  2  1  0
  2  3  1  0
  2  4  1  0
  4  5  1  0
  5  6  1  0
  5  7  1  0
  7  8  1  0
  8  9  1  0
  7  2  1  0
  8  4  1  0
  1 10  1  0
  1 11  1  0
  1 12  1  0
  3 13  1  0
  4 14  1  0
  5 15  1  0
  6 16  1  0
  7 17  1  0
  8 18  1  0
  9 19  1  0
M  END
