
     RDKit          3D

 23 23  0  0  0  0  0  0  0  0999 V2000
   -0.7578   -1.3026   -0.8291 C   0  0  0  0  0  0  0  0  0  0  0  0
   -0.7307   -0.1974    0.1788 C   0  0  0  0  0  0  0  0  0  0  0  0
   -1.4824   -0.5051    1.4413 C   0  0  0  0  0  0  0  0  0  0  0  0
   -1.1263    1.1217   -0.4866 C   0  0  0  0  0  0  0  0  0  0  0  0
    0.3540    1.3387   -0.7310 C   0  0  0  0  0  0  0  0  0  0  0  0
    0.5951    0.4313    0.4553 C   0  0  0  0  0  0  0  0  0  0  0  0
    0.5401    1.1798    1.6304 O   0  0  0  0  0  0  0  0  0  0  0  0
    1.8006   -0.4597    0.3453 C   0  0  0  0  0  0  0  0  0  0  0  0
    1.8113   -1.1763   -0.8273 O   0  0  0  0  0  0  0  0  0  0  0  0
   -0.3153   -1.0034   -1.7805 H   0  0  0  0  0  0  0  0  0  0  0  0
   -0.2485   -2.2285   -0.4911 H   0  0  0  0  0  0  0  0  0  0  0  0
   -1.8381   -1.5914   -0.9612 H   0  0  0  0  0  0  0  0  0  0  0  0
   -2.4413    0.0353    1.4541 H   0  0  0  0  0  0  0  0  0  0  0  0
   -1.6840   -1.6108    1.4782 H   0  0  0  0  0  0  0  0  0  0  0  0
   -0.8765   -0.2881    2.3532 H   0  0  0  0  0  0  0  0  0  0  0  0
   -1.7392    1.0079   -1.3850 H   0  0  0  0  0  0  0  0  0  0  0  0
   -1.5057    1.8854    0.2149 H   0  0  0  0  0  0  0  0  0  0  0  0
    0.7041    2.3731   -0.6024 H   0  0  0  0  0  0  0  0  0  0  0  0
    0.6941    0.9303   -1.7099 H   0  0  0  0  0  0  0  0  0  0  0  0
    1.0124    2.0411    1.5637 H   0  0  0  0  0  0  0  0  0  0  0  0
    1.8071   -1.1071    1.2509 H   0  0  0  0  0  0  0  0  0  0  0  0
    2.6976    0.2015    0.4553 H   0  0  0  0  0  0  0  0  0  0  0  0
    2.7293   -1.0756   -1.2317 H   0  0  0  0  0  0  0  0  0  0  0  0
  1  2  1  0
  2  3  1  0
  2  4  1  0
  4  5  1  0
  5  6  1  0
  6  7  1  0
  6  8  1  0
  8  9  1  0
  6  2  1  0
  1 10  1  0
  1 11  1  0
  1 12  1  0
  3 13  1  0
  3 14  1  0
  3 15  1  0
  4 16  1  0
  4 17  1  0
  5 18  1  0
  5 19  1  0
  7 20  1  0
  8 21  1  0
  8 22  1  0
  9 23  1  0
M  END
