
     RDKit          3D

 19 20  0  0  0  0  0  0  0  0999 V2000
    1.8991    0.7993    0.5269 C   0  0  0  0  0  0  0  0  0  0  0  0
    0.8927   -0.2778    0.3540 C   0  0  0  0  0  0  0  0  0  0  0  0
    1.1699   -1.4721    1.0088 O   0  0  0  0  0  0  0  0  0  0  0  0
    0.2777   -0.4026   -0.9853 C   0  0  0  0  0  0  0  0  0  0  0  0
   -0.5831   -1.5978   -1.1791 C   0  0  0  0  0  0  0  0  0  0  0  0
   -0.4371   -2.5903   -1.8640 O   0  0  0  0  0  0  0  0  0  0  0  0
   -1.5403   -0.9772   -0.2239 C   0  0  0  0  0  0  0  0  0  0  0  0
   -0.5315    0.0593    0.1690 C   0  0  0  0  0  0  0  0  0  0  0  0
   -0.9686    1.4769    0.3219 C   0  0  0  0  0  0  0  0  0  0  0  0
    1.6741    1.6752   -0.1079 H   0  0  0  0  0  0  0  0  0  0  0  0
    2.0577    1.1304    1.5607 H   0  0  0  0  0  0  0  0  0  0  0  0
    2.8836    0.4035    0.1388 H   0  0  0  0  0  0  0  0  0  0  0  0
    0.3394   -1.9820    1.1836 H   0  0  0  0  0  0  0  0  0  0  0  0
    0.5106    0.2624   -1.8172 H   0  0  0  0  0  0  0  0  0  0  0  0
   -2.3590   -0.4856   -0.8273 H   0  0  0  0  0  0  0  0  0  0  0  0
   -1.9119   -1.6395    0.5774 H   0  0  0  0  0  0  0  0  0  0  0  0
   -0.2916    2.2233   -0.0985 H   0  0  0  0  0  0  0  0  0  0  0  0
   -1.9689    1.6491   -0.1469 H   0  0  0  0  0  0  0  0  0  0  0  0
   -1.1131    1.7453    1.4088 H   0  0  0  0  0  0  0  0  0  0  0  0
  1  2  1  0
  2  3  1  0
  2  4  1  0
  4  5  1  0
  5  6  2  0
  5  7  1  0
  7  8  1  0
  8  9  1  0
  8  2  1  0
  8  4  1  0
  1 10  1  0
  1 11  1  0
  1 12  1  0
  3 13  1  0
  4 14  1  0
  7 15  1  0
  7 16  1  0
  9 17  1  0
  9 18  1  0
  9 19  1  0
M  END
