
     RDKit          3D

 25 26  0  0  0  0  0  0  0  0999 V2000
    1.9260    0.4185    1.1522 C   0  0  0  0  0  0  0  0  0  0  0  0
    1.0713   -0.0252   -0.0266 C   0  0  0  0  0  0  0  0  0  0  0  0
    1.9593   -0.2608   -1.2154 C   0  0  0  0  0  0  0  0  0  0  0  0
    0.2348   -1.2203    0.3085 C   0  0  0  0  0  0  0  0  0  0  0  0
   -1.1391   -0.9563   -0.2119 C   0  0  0  0  0  0  0  0  0  0  0  0
   -2.0216   -0.3720    0.8941 C   0  0  0  0  0  0  0  0  0  0  0  0
   -2.4433    0.6872   -0.1068 C   0  0  0  0  0  0  0  0  0  0  0  0
   -1.1364    0.4165   -0.8411 C   0  0  0  0  0  0  0  0  0  0  0  0
    0.0667    1.0931   -0.2704 C   0  0  0  0  0  0  0  0  0  0  0  0
    2.5847    1.2436    0.7833 H   0  0  0  0  0  0  0  0  0  0  0  0
    1.2920    0.7331    2.0060 H   0  0  0  0  0  0  0  0  0  0  0  0
    2.5839   -0.3894    1.5188 H   0  0  0  0  0  0  0  0  0  0  0  0
    2.1104   -1.3490   -1.4329 H   0  0  0  0  0  0  0  0  0  0  0  0
    1.5652    0.2194   -2.1460 H   0  0  0  0  0  0  0  0  0  0  0  0
    2.9851    0.1447   -1.0228 H   0  0  0  0  0  0  0  0  0  0  0  0
    0.2179   -1.3686    1.4169 H   0  0  0  0  0  0  0  0  0  0  0  0
    0.6136   -2.1685   -0.1151 H   0  0  0  0  0  0  0  0  0  0  0  0
   -1.6081   -1.7405   -0.8106 H   0  0  0  0  0  0  0  0  0  0  0  0
   -2.7880   -1.1080    1.1584 H   0  0  0  0  0  0  0  0  0  0  0  0
   -1.4384    0.0313    1.7372 H   0  0  0  0  0  0  0  0  0  0  0  0
   -3.3060    0.3661   -0.7308 H   0  0  0  0  0  0  0  0  0  0  0  0
   -2.5635    1.6986    0.2875 H   0  0  0  0  0  0  0  0  0  0  0  0
   -1.1992    0.4383   -1.9350 H   0  0  0  0  0  0  0  0  0  0  0  0
    0.5535    1.7726   -1.0196 H   0  0  0  0  0  0  0  0  0  0  0  0
   -0.1208    1.6955    0.6222 H   0  0  0  0  0  0  0  0  0  0  0  0
  1  2  1  0
  2  3  1  0
  2  4  1  0
  4  5  1  0
  5  6  1  0
  6  7  1  0
  7  8  1  0
  8  9  1  0
  9  2  1  0
  8  5  1  0
  1 10  1  0
  1 11  1  0
  1 12  1  0
  3 13  1  0
  3 14  1  0
  3 15  1  0
  4 16  1  0
  4 17  1  0
  5 18  1  0
  6 19  1  0
  6 20  1  0
  7 21  1  0
  7 22  1  0
  8 23  1  0
  9 24  1  0
  9 25  1  0
M  END
