
     RDKit          3D

 23 24  0  0  0  0  0  0  0  0999 V2000
    0.0799   -1.6006   -1.0594 C   0  0  0  0  0  0  0  0  0  0  0  0
    0.2983   -0.3756   -0.2324 C   0  0  0  0  0  0  0  0  0  0  0  0
    1.7250    0.1012   -0.2331 C   0  0  0  0  0  0  0  0  0  0  0  0
    2.2137    1.2447    0.4703 C   0  0  0  0  0  0  0  0  0  0  0  0
    2.5189   -0.0715    0.8752 O   0  0  0  0  0  0  0  0  0  0  0  0
   -0.5267    0.7526   -0.8639 C   0  0  0  0  0  0  0  0  0  0  0  0
   -1.9073    0.4205   -0.2935 C   0  0  0  0  0  0  0  0  0  0  0  0
   -1.5660    0.2760    1.1718 C   0  0  0  0  0  0  0  0  0  0  0  0
   -0.2949   -0.5596    1.1165 C   0  0  0  0  0  0  0  0  0  0  0  0
    1.0085   -2.2033   -1.1582 H   0  0  0  0  0  0  0  0  0  0  0  0
   -0.6901   -2.2826   -0.5924 H   0  0  0  0  0  0  0  0  0  0  0  0
   -0.3550   -1.3601   -2.0704 H   0  0  0  0  0  0  0  0  0  0  0  0
    2.2486   -0.1814   -1.1931 H   0  0  0  0  0  0  0  0  0  0  0  0
    1.6475    1.8383    1.1997 H   0  0  0  0  0  0  0  0  0  0  0  0
    3.0653    1.8411    0.0250 H   0  0  0  0  0  0  0  0  0  0  0  0
   -0.5048    0.7181   -1.9517 H   0  0  0  0  0  0  0  0  0  0  0  0
   -0.1615    1.6833   -0.4131 H   0  0  0  0  0  0  0  0  0  0  0  0
   -2.2072   -0.5305   -0.7634 H   0  0  0  0  0  0  0  0  0  0  0  0
   -2.6372    1.1978   -0.5074 H   0  0  0  0  0  0  0  0  0  0  0  0
   -2.3842   -0.2288    1.6849 H   0  0  0  0  0  0  0  0  0  0  0  0
   -1.3228    1.2834    1.5564 H   0  0  0  0  0  0  0  0  0  0  0  0
    0.3864   -0.3422    1.9569 H   0  0  0  0  0  0  0  0  0  0  0  0
   -0.6345   -1.6208    1.2752 H   0  0  0  0  0  0  0  0  0  0  0  0
  1  2  1  0
  2  3  1  0
  3  4  1  0
  4  5  1  0
  2  6  1  0
  6  7  1  0
  7  8  1  0
  8  9  1  0
  9  2  1  0
  5  3  1  0
  1 10  1  0
  1 11  1  0
  1 12  1  0
  3 13  1  0
  4 14  1  0
  4 15  1  0
  6 16  1  0
  6 17  1  0
  7 18  1  0
  7 19  1  0
  8 20  1  0
  8 21  1  0
  9 22  1  0
  9 23  1  0
M  END
