
     RDKit          3D

 21 21  0  0  0  0  0  0  0  0999 V2000
   -1.4674   -0.8561   -1.1006 C   0  0  0  0  0  0  0  0  0  0  0  0
   -0.8346   -0.2077    0.1206 C   0  0  0  0  0  0  0  0  0  0  0  0
   -1.1636   -0.9514    1.2497 O   0  0  0  0  0  0  0  0  0  0  0  0
   -1.1019    1.2661    0.2653 C   0  0  0  0  0  0  0  0  0  0  0  0
    0.3850    1.5435    0.2932 C   0  0  0  0  0  0  0  0  0  0  0  0
    0.6227    0.1089   -0.0507 C   0  0  0  0  0  0  0  0  0  0  0  0
    1.0566   -0.0326   -1.3901 O   0  0  0  0  0  0  0  0  0  0  0  0
    1.5736   -0.6235    0.8495 C   0  0  0  0  0  0  0  0  0  0  0  0
    2.8437   -0.0325    0.6597 O   0  0  0  0  0  0  0  0  0  0  0  0
   -1.2482   -1.9541   -1.0064 H   0  0  0  0  0  0  0  0  0  0  0  0
   -2.5816   -0.7758   -1.0058 H   0  0  0  0  0  0  0  0  0  0  0  0
   -1.1109   -0.4304   -2.0455 H   0  0  0  0  0  0  0  0  0  0  0  0
   -2.0841   -1.3032    1.1289 H   0  0  0  0  0  0  0  0  0  0  0  0
   -1.5601    1.4840    1.2517 H   0  0  0  0  0  0  0  0  0  0  0  0
   -1.6706    1.7458   -0.5306 H   0  0  0  0  0  0  0  0  0  0  0  0
    0.6567    2.2574   -0.5067 H   0  0  0  0  0  0  0  0  0  0  0  0
    0.7684    1.8750    1.2964 H   0  0  0  0  0  0  0  0  0  0  0  0
    1.0076   -1.0097   -1.5723 H   0  0  0  0  0  0  0  0  0  0  0  0
    1.6650   -1.6663    0.5087 H   0  0  0  0  0  0  0  0  0  0  0  0
    1.3282   -0.5142    1.9186 H   0  0  0  0  0  0  0  0  0  0  0  0
    2.9155    0.0768   -0.3334 H   0  0  0  0  0  0  0  0  0  0  0  0
  1  2  1  0
  2  3  1  0
  2  4  1  0
  4  5  1  0
  5  6  1  0
  6  7  1  0
  6  8  1  0
  8  9  1  0
  6  2  1  0
  1 10  1  0
  1 11  1  0
  1 12  1  0
  3 13  1  0
  4 14  1  0
  4 15  1  0
  5 16  1  0
  5 17  1  0
  7 18  1  0
  8 19  1  0
  8 20  1  0
  9 21  1  0
M  END
