
     RDKit          3D

 19 20  0  0  0  0  0  0  0  0999 V2000
   -1.9634   -0.2305    0.9532 C   0  0  0  0  0  0  0  0  0  0  0  0
   -0.7211   -0.0767    0.0981 C   0  0  0  0  0  0  0  0  0  0  0  0
   -1.0579    0.3340   -1.3235 C   0  0  0  0  0  0  0  0  0  0  0  0
    0.5052    0.3244    0.7639 C   0  0  0  0  0  0  0  0  0  0  0  0
    1.7194    0.8375    0.0702 C   0  0  0  0  0  0  0  0  0  0  0  0
    2.3089   -0.3183   -0.6453 C   0  0  0  0  0  0  0  0  0  0  0  0
    3.4370   -0.4803   -1.1483 O   0  0  0  0  0  0  0  0  0  0  0  0
    1.3211   -1.3075   -0.6827 O   0  0  0  0  0  0  0  0  0  0  0  0
    0.3582   -1.0782    0.3181 C   0  0  0  0  0  0  0  0  0  0  0  0
   -1.6812   -0.7912    1.8541 H   0  0  0  0  0  0  0  0  0  0  0  0
   -2.3735    0.7664    1.2273 H   0  0  0  0  0  0  0  0  0  0  0  0
   -2.6902   -0.8522    0.3899 H   0  0  0  0  0  0  0  0  0  0  0  0
   -0.1871    0.5391   -1.9394 H   0  0  0  0  0  0  0  0  0  0  0  0
   -1.7596    1.2085   -1.2261 H   0  0  0  0  0  0  0  0  0  0  0  0
   -1.7134   -0.4885   -1.7343 H   0  0  0  0  0  0  0  0  0  0  0  0
    0.4329    0.6065    1.8394 H   0  0  0  0  0  0  0  0  0  0  0  0
    1.4567    1.6759   -0.6126 H   0  0  0  0  0  0  0  0  0  0  0  0
    2.4598    1.2304    0.7805 H   0  0  0  0  0  0  0  0  0  0  0  0
    0.1480   -1.8995    1.0176 H   0  0  0  0  0  0  0  0  0  0  0  0
  1  2  1  0
  2  3  1  0
  2  4  1  0
  4  5  1  0
  5  6  1  0
  6  7  2  0
  6  8  1  0
  8  9  1  0
  9  2  1  0
  9  4  1  0
  1 10  1  0
  1 11  1  0
  1 12  1  0
  3 13  1  0
  3 14  1  0
  3 15  1  0
  4 16  1  0
  5 17  1  0
  5 18  1  0
  9 19  1  0
M  END
