
     RDKit          3D

 20 21  0  0  0  0  0  0  0  0999 V2000
   -1.2304    0.6096   -1.1143 C   0  0  0  0  0  0  0  0  0  0  0  0
   -0.6764   -0.0565    0.1285 C   0  0  0  0  0  0  0  0  0  0  0  0
    0.4190   -1.0578   -0.1175 C   0  0  0  0  0  0  0  0  0  0  0  0
    1.6240   -0.4951   -0.7843 C   0  0  0  0  0  0  0  0  0  0  0  0
    2.4193    0.5857   -0.2001 C   0  0  0  0  0  0  0  0  0  0  0  0
    1.5829    0.7851   -1.3285 O   0  0  0  0  0  0  0  0  0  0  0  0
   -0.8746    0.6081    1.4185 C   0  0  0  0  0  0  0  0  0  0  0  0
   -1.7276   -0.5563    1.1141 C   0  0  0  0  0  0  0  0  0  0  0  0
   -2.2496    0.1622   -1.2945 H   0  0  0  0  0  0  0  0  0  0  0  0
   -0.6267    0.4339   -2.0048 H   0  0  0  0  0  0  0  0  0  0  0  0
   -1.3881    1.7120   -0.9397 H   0  0  0  0  0  0  0  0  0  0  0  0
   -0.0367   -1.8489   -0.7748 H   0  0  0  0  0  0  0  0  0  0  0  0
    0.7194   -1.5923    0.8067 H   0  0  0  0  0  0  0  0  0  0  0  0
    2.2255   -1.2723   -1.3452 H   0  0  0  0  0  0  0  0  0  0  0  0
    3.5039    0.6649   -0.4533 H   0  0  0  0  0  0  0  0  0  0  0  0
    2.1539    1.1271    0.7166 H   0  0  0  0  0  0  0  0  0  0  0  0
   -1.3839    1.5979    1.4062 H   0  0  0  0  0  0  0  0  0  0  0  0
   -0.1437    0.5197    2.2578 H   0  0  0  0  0  0  0  0  0  0  0  0
   -1.5224   -1.4726    1.6957 H   0  0  0  0  0  0  0  0  0  0  0  0
   -2.7879   -0.4545    0.8130 H   0  0  0  0  0  0  0  0  0  0  0  0
  1  2  1  0
  2  3  1  0
  3  4  1  0
  4  5  1  0
  5  6  1  0
  2  7  1  0
  7  8  1  0
  8  2  1  0
  6  4  1  0
  1  9  1  0
  1 10  1  0
  1 11  1  0
  3 12  1  0
  3 13  1  0
  4 14  1  0
  5 15  1  0
  5 16  1  0
  7 17  1  0
  7 18  1  0
  8 19  1  0
  8 20  1  0
M  END
