
     RDKit          3D

 21 22  0  0  0  0  0  0  0  0999 V2000
   -1.0882    1.7002   -0.2311 C   0  0  0  0  0  0  0  0  0  0  0  0
   -0.4563    0.3632    0.0839 C   0  0  0  0  0  0  0  0  0  0  0  0
   -1.4449   -0.6172    0.6688 C   0  0  0  0  0  0  0  0  0  0  0  0
   -0.7428   -1.8013    0.9130 O   0  0  0  0  0  0  0  0  0  0  0  0
    0.1373   -0.2641   -1.1321 C   0  0  0  0  0  0  0  0  0  0  0  0
    1.5067   -0.7787   -0.7622 C   0  0  0  0  0  0  0  0  0  0  0  0
    1.7867   -0.1916    0.5931 C   0  0  0  0  0  0  0  0  0  0  0  0
    1.8076    1.2504    0.5229 O   0  0  0  0  0  0  0  0  0  0  0  0
    0.7102    0.5060    1.0385 C   0  0  0  0  0  0  0  0  0  0  0  0
   -0.2821    2.4400   -0.2773 H   0  0  0  0  0  0  0  0  0  0  0  0
   -1.8492    1.9608    0.5454 H   0  0  0  0  0  0  0  0  0  0  0  0
   -1.5803    1.6003   -1.2212 H   0  0  0  0  0  0  0  0  0  0  0  0
   -1.8935   -0.2243    1.6100 H   0  0  0  0  0  0  0  0  0  0  0  0
   -2.2280   -0.7866   -0.1006 H   0  0  0  0  0  0  0  0  0  0  0  0
   -1.0081   -2.4804    0.2274 H   0  0  0  0  0  0  0  0  0  0  0  0
   -0.4398   -1.1518   -1.5034 H   0  0  0  0  0  0  0  0  0  0  0  0
    0.1674    0.4790   -1.9543 H   0  0  0  0  0  0  0  0  0  0  0  0
    1.6084   -1.8601   -0.8100 H   0  0  0  0  0  0  0  0  0  0  0  0
    2.2247   -0.3129   -1.4775 H   0  0  0  0  0  0  0  0  0  0  0  0
    2.5863   -0.6555    1.1908 H   0  0  0  0  0  0  0  0  0  0  0  0
    0.4778    0.8245    2.0759 H   0  0  0  0  0  0  0  0  0  0  0  0
  1  2  1  0
  2  3  1  0
  3  4  1  0
  2  5  1  0
  5  6  1  0
  6  7  1  0
  7  8  1  0
  8  9  1  0
  9  2  1  0
  9  7  1  0
  1 10  1  0
  1 11  1  0
  1 12  1  0
  3 13  1  0
  3 14  1  0
  4 15  1  0
  5 16  1  0
  5 17  1  0
  6 18  1  0
  6 19  1  0
  7 20  1  0
  9 21  1  0
M  END
