
     RDKit          3D

 19 21  0  0  0  0  0  0  0  0999 V2000
    1.8671   -0.0858    0.7465 C   0  0  0  0  0  0  0  0  0  0  0  0
    1.2195    0.2085   -0.5895 C   0  0  0  0  0  0  0  0  0  0  0  0
    2.0913    0.6782   -1.5611 O   0  0  0  0  0  0  0  0  0  0  0  0
    0.2867   -0.8597   -1.0622 C   0  0  0  0  0  0  0  0  0  0  0  0
   -0.7541   -1.3058   -0.0672 C   0  0  0  0  0  0  0  0  0  0  0  0
   -2.0969   -1.0132   -0.6383 O   0  0  0  0  0  0  0  0  0  0  0  0
   -1.2694   -0.0844    0.0936 C   0  0  0  0  0  0  0  0  0  0  0  0
   -1.9540    0.6377    1.1931 C   0  0  0  0  0  0  0  0  0  0  0  0
   -0.1851    0.5941   -0.7125 C   0  0  0  0  0  0  0  0  0  0  0  0
    1.3403   -0.8490    1.3297 H   0  0  0  0  0  0  0  0  0  0  0  0
    2.8742   -0.5292    0.5020 H   0  0  0  0  0  0  0  0  0  0  0  0
    2.0723    0.8092    1.3417 H   0  0  0  0  0  0  0  0  0  0  0  0
    1.9635    1.6105   -1.7978 H   0  0  0  0  0  0  0  0  0  0  0  0
    0.2124   -1.1425   -2.1102 H   0  0  0  0  0  0  0  0  0  0  0  0
   -0.7664   -2.2893    0.3612 H   0  0  0  0  0  0  0  0  0  0  0  0
   -1.2142    0.9252    1.9821 H   0  0  0  0  0  0  0  0  0  0  0  0
   -2.5380    1.5197    0.8633 H   0  0  0  0  0  0  0  0  0  0  0  0
   -2.6702   -0.0505    1.6762 H   0  0  0  0  0  0  0  0  0  0  0  0
   -0.4791    1.2263   -1.5506 H   0  0  0  0  0  0  0  0  0  0  0  0
  1  2  1  0
  2  3  1  0
  2  4  1  0
  4  5  1  0
  5  6  1  0
  6  7  1  0
  7  8  1  0
  7  9  1  0
  9  2  1  0
  9  4  1  0
  7  5  1  0
  1 10  1  0
  1 11  1  0
  1 12  1  0
  3 13  1  0
  4 14  1  0
  5 15  1  0
  8 16  1  0
  8 17  1  0
  8 18  1  0
  9 19  1  0
M  END
