
     RDKit          3D

 17 18  0  0  0  0  0  0  0  0999 V2000
   -1.4822    0.8325   -0.4413 C   0  0  0  0  0  0  0  0  0  0  0  0
   -0.6501   -0.3378    0.0212 C   0  0  0  0  0  0  0  0  0  0  0  0
   -1.4979   -1.4159    0.1673 O   0  0  0  0  0  0  0  0  0  0  0  0
    0.4327   -0.7007   -0.9612 C   0  0  0  0  0  0  0  0  0  0  0  0
    1.6638    0.0108   -0.4635 C   0  0  0  0  0  0  0  0  0  0  0  0
    1.4834    1.3746   -0.2502 O   0  0  0  0  0  0  0  0  0  0  0  0
    1.3838    0.5605    0.8717 C   0  0  0  0  0  0  0  0  0  0  0  0
    0.0644    0.0267    1.2639 C   0  0  0  0  0  0  0  0  0  0  0  0
   -0.3339   -0.0818    2.3979 O   0  0  0  0  0  0  0  0  0  0  0  0
   -0.8647    1.7030   -0.7340 H   0  0  0  0  0  0  0  0  0  0  0  0
   -2.1150    1.1525    0.4001 H   0  0  0  0  0  0  0  0  0  0  0  0
   -2.1583    0.5120   -1.2583 H   0  0  0  0  0  0  0  0  0  0  0  0
   -1.4529   -1.8126    1.0541 H   0  0  0  0  0  0  0  0  0  0  0  0
    0.5780   -1.8033   -0.9452 H   0  0  0  0  0  0  0  0  0  0  0  0
    0.1384   -0.3880   -1.9806 H   0  0  0  0  0  0  0  0  0  0  0  0
    2.6632   -0.3517   -0.7744 H   0  0  0  0  0  0  0  0  0  0  0  0
    2.1474    0.7193    1.6325 H   0  0  0  0  0  0  0  0  0  0  0  0
  1  2  1  0
  2  3  1  0
  2  4  1  0
  4  5  1  0
  5  6  1  0
  6  7  1  0
  7  8  1  0
  8  9  2  0
  8  2  1  0
  7  5  1  0
  1 10  1  0
  1 11  1  0
  1 12  1  0
  3 13  1  0
  4 14  1  0
  4 15  1  0
  5 16  1  0
  7 17  1  0
M  END
