
     RDKit          3D

 20 20  0  0  0  0  0  0  0  0999 V2000
   -1.1076   -1.1404    0.9784 C   0  0  0  0  0  0  0  0  0  0  0  0
   -0.4953   -0.0401    0.1097 C   0  0  0  0  0  0  0  0  0  0  0  0
   -1.5919    0.9315   -0.2035 C   0  0  0  0  0  0  0  0  0  0  0  0
    0.6328    0.5730    0.9070 C   0  0  0  0  0  0  0  0  0  0  0  0
    1.7675   -0.2226    0.6174 O   0  0  0  0  0  0  0  0  0  0  0  0
    2.2104    0.2383   -0.6436 C   0  0  0  0  0  0  0  0  0  0  0  0
    1.2055    0.1369   -1.5871 O   0  0  0  0  0  0  0  0  0  0  0  0
    0.1220   -0.6260   -1.1474 C   0  0  0  0  0  0  0  0  0  0  0  0
   -1.9783   -1.6050    0.4543 H   0  0  0  0  0  0  0  0  0  0  0  0
   -0.3436   -1.8856    1.2749 H   0  0  0  0  0  0  0  0  0  0  0  0
   -1.5389   -0.5991    1.8629 H   0  0  0  0  0  0  0  0  0  0  0  0
   -2.4657    0.3290   -0.5647 H   0  0  0  0  0  0  0  0  0  0  0  0
   -1.3316    1.6363   -1.0039 H   0  0  0  0  0  0  0  0  0  0  0  0
   -1.9188    1.4006    0.7363 H   0  0  0  0  0  0  0  0  0  0  0  0
    0.8913    1.5997    0.5624 H   0  0  0  0  0  0  0  0  0  0  0  0
    0.4686    0.5243    1.9983 H   0  0  0  0  0  0  0  0  0  0  0  0
    2.4865    1.3142   -0.4619 H   0  0  0  0  0  0  0  0  0  0  0  0
    3.1372   -0.2882   -0.9095 H   0  0  0  0  0  0  0  0  0  0  0  0
    0.4744   -1.6634   -1.0039 H   0  0  0  0  0  0  0  0  0  0  0  0
   -0.6246   -0.6133   -1.9760 H   0  0  0  0  0  0  0  0  0  0  0  0
  1  2  1  0
  2  3  1  0
  2  4  1  0
  4  5  1  0
  5  6  1  0
  6  7  1  0
  7  8  1  0
  8  2  1  0
  1  9  1  0
  1 10  1  0
  1 11  1  0
  3 12  1  0
  3 13  1  0
  3 14  1  0
  4 15  1  0
  4 16  1  0
  6 17  1  0
  6 18  1  0
  8 19  1  0
  8 20  1  0
M  END
