
     RDKit          3D

 21 21  0  0  0  0  0  0  0  0999 V2000
   -1.7642   -0.0499   -1.0321 C   0  0  0  0  0  0  0  0  0  0  0  0
   -1.0350    0.1343    0.2782 C   0  0  0  0  0  0  0  0  0  0  0  0
   -1.9944    0.2159    1.3076 O   0  0  0  0  0  0  0  0  0  0  0  0
   -0.3286    1.4153    0.2526 C   0  0  0  0  0  0  0  0  0  0  0  0
    0.9322    1.7849    0.2038 C   0  0  0  0  0  0  0  0  0  0  0  0
    2.0884    0.9045    0.1570 C   0  0  0  0  0  0  0  0  0  0  0  0
    2.1247   -0.3985   -0.0743 C   0  0  0  0  0  0  0  0  0  0  0  0
    0.9652   -1.2687   -0.3433 C   0  0  0  0  0  0  0  0  0  0  0  0
   -0.1909   -1.0580    0.5649 C   0  0  0  0  0  0  0  0  0  0  0  0
   -1.4971    0.7635   -1.7643 H   0  0  0  0  0  0  0  0  0  0  0  0
   -2.8727    0.0492   -0.9030 H   0  0  0  0  0  0  0  0  0  0  0  0
   -1.4803   -1.0026   -1.5231 H   0  0  0  0  0  0  0  0  0  0  0  0
   -2.4220   -0.6506    1.4499 H   0  0  0  0  0  0  0  0  0  0  0  0
   -1.0079    2.2698    0.2807 H   0  0  0  0  0  0  0  0  0  0  0  0
    1.1102    2.8652    0.1986 H   0  0  0  0  0  0  0  0  0  0  0  0
    3.0316    1.4141    0.3402 H   0  0  0  0  0  0  0  0  0  0  0  0
    3.1214   -0.8536   -0.0598 H   0  0  0  0  0  0  0  0  0  0  0  0
    1.3077   -2.3179   -0.2224 H   0  0  0  0  0  0  0  0  0  0  0  0
    0.6156   -1.1821   -1.4076 H   0  0  0  0  0  0  0  0  0  0  0  0
    0.1504   -1.0834    1.6306 H   0  0  0  0  0  0  0  0  0  0  0  0
   -0.8542   -1.9514    0.4563 H   0  0  0  0  0  0  0  0  0  0  0  0
  1  2  1  0
  2  3  1  0
  2  4  1  0
  4  5  2  0
  5  6  1  0
  6  7  2  0
  7  8  1  0
  8  9  1  0
  9  2  1  0
  1 10  1  0
  1 11  1  0
  1 12  1  0
  3 13  1  0
  4 14  1  0
  5 15  1  0
  6 16  1  0
  7 17  1  0
  8 18  1  0
  8 19  1  0
  9 20  1  0
  9 21  1  0
M  END
