
     RDKit          3D

 23 23  0  0  0  0  0  0  0  0999 V2000
    0.9447    0.3630    1.4956 C   0  0  0  0  0  0  0  0  0  0  0  0
    0.6138    0.0166    0.0888 C   0  0  0  0  0  0  0  0  0  0  0  0
    1.5133    0.8579   -0.8213 C   0  0  0  0  0  0  0  0  0  0  0  0
    0.9288   -1.4291   -0.1518 C   0  0  0  0  0  0  0  0  0  0  0  0
   -0.2286   -2.1194   -0.3235 O   0  0  0  0  0  0  0  0  0  0  0  0
   -1.2931   -1.2738   -0.3602 C   0  0  0  0  0  0  0  0  0  0  0  0
   -0.8102    0.1394   -0.2894 C   0  0  0  0  0  0  0  0  0  0  0  0
   -1.6528    0.9696    0.6125 C   0  0  0  0  0  0  0  0  0  0  0  0
   -0.8639    0.7200   -1.5753 O   0  0  0  0  0  0  0  0  0  0  0  0
    0.5171    1.3065    1.8625 H   0  0  0  0  0  0  0  0  0  0  0  0
    0.7395   -0.5081    2.1443 H   0  0  0  0  0  0  0  0  0  0  0  0
    2.0652    0.5047    1.5473 H   0  0  0  0  0  0  0  0  0  0  0  0
    1.9936    0.1981   -1.5919 H   0  0  0  0  0  0  0  0  0  0  0  0
    0.8965    1.5884   -1.3987 H   0  0  0  0  0  0  0  0  0  0  0  0
    2.2776    1.4089   -0.2451 H   0  0  0  0  0  0  0  0  0  0  0  0
    1.6206   -1.5503   -1.0319 H   0  0  0  0  0  0  0  0  0  0  0  0
    1.4797   -1.8863    0.7118 H   0  0  0  0  0  0  0  0  0  0  0  0
   -1.8461   -1.4496   -1.3153 H   0  0  0  0  0  0  0  0  0  0  0  0
   -2.0256   -1.4439    0.4666 H   0  0  0  0  0  0  0  0  0  0  0  0
   -1.4584    0.8303    1.6855 H   0  0  0  0  0  0  0  0  0  0  0  0
   -2.7298    0.6604    0.4633 H   0  0  0  0  0  0  0  0  0  0  0  0
   -1.6388    2.0470    0.3009 H   0  0  0  0  0  0  0  0  0  0  0  0
   -1.0432    0.0500   -2.2748 H   0  0  0  0  0  0  0  0  0  0  0  0
  1  2  1  0
  2  3  1  0
  2  4  1  0
  4  5  1  0
  5  6  1  0
  6  7  1  0
  7  8  1  0
  7  9  1  0
  7  2  1  0
  1 10  1  0
  1 11  1  0
  1 12  1  0
  3 13  1  0
  3 14  1  0
  3 15  1  0
  4 16  1  0
  4 17  1  0
  6 18  1  0
  6 19  1  0
  8 20  1  0
  8 21  1  0
  8 22  1  0
  9 23  1  0
M  END
