
     RDKit          3D

 25 26  0  0  0  0  0  0  0  0999 V2000
   -1.9985   -0.2177    0.8649 C   0  0  0  0  0  0  0  0  0  0  0  0
   -0.8355   -0.5944    0.0126 C   0  0  0  0  0  0  0  0  0  0  0  0
   -1.2789   -1.5382   -1.0955 C   0  0  0  0  0  0  0  0  0  0  0  0
    0.3703   -1.1413    0.6999 C   0  0  0  0  0  0  0  0  0  0  0  0
    1.2401   -0.1976   -0.0399 C   0  0  0  0  0  0  0  0  0  0  0  0
    2.3318    0.4598    0.7292 C   0  0  0  0  0  0  0  0  0  0  0  0
    1.0499    0.2018   -1.4348 C   0  0  0  0  0  0  0  0  0  0  0  0
    0.0036    0.5629   -0.4385 C   0  0  0  0  0  0  0  0  0  0  0  0
   -0.2219    1.9406    0.0364 C   0  0  0  0  0  0  0  0  0  0  0  0
   -2.4307   -1.0840    1.3963 H   0  0  0  0  0  0  0  0  0  0  0  0
   -2.7912    0.1875    0.1921 H   0  0  0  0  0  0  0  0  0  0  0  0
   -1.7525    0.5355    1.6405 H   0  0  0  0  0  0  0  0  0  0  0  0
   -0.4132   -2.0638   -1.5481 H   0  0  0  0  0  0  0  0  0  0  0  0
   -1.8975   -0.9978   -1.8271 H   0  0  0  0  0  0  0  0  0  0  0  0
   -1.8822   -2.3392   -0.5964 H   0  0  0  0  0  0  0  0  0  0  0  0
    0.3624   -0.8961    1.8027 H   0  0  0  0  0  0  0  0  0  0  0  0
    0.5660   -2.2186    0.5976 H   0  0  0  0  0  0  0  0  0  0  0  0
    2.7359   -0.1642    1.5486 H   0  0  0  0  0  0  0  0  0  0  0  0
    3.1971    0.6037    0.0184 H   0  0  0  0  0  0  0  0  0  0  0  0
    2.0480    1.4585    1.0615 H   0  0  0  0  0  0  0  0  0  0  0  0
    0.6916   -0.4878   -2.2247 H   0  0  0  0  0  0  0  0  0  0  0  0
    1.6503    1.0297   -1.8124 H   0  0  0  0  0  0  0  0  0  0  0  0
   -1.0196    2.4156   -0.5929 H   0  0  0  0  0  0  0  0  0  0  0  0
   -0.4635    2.0240    1.1068 H   0  0  0  0  0  0  0  0  0  0  0  0
    0.7381    2.5211   -0.0971 H   0  0  0  0  0  0  0  0  0  0  0  0
  1  2  1  0
  2  3  1  0
  2  4  1  0
  4  5  1  0
  5  6  1  0
  5  7  1  0
  7  8  1  0
  8  9  1  0
  8  2  1  0
  8  5  1  0
  1 10  1  0
  1 11  1  0
  1 12  1  0
  3 13  1  0
  3 14  1  0
  3 15  1  0
  4 16  1  0
  4 17  1  0
  6 18  1  0
  6 19  1  0
  6 20  1  0
  7 21  1  0
  7 22  1  0
  9 23  1  0
  9 24  1  0
  9 25  1  0
M  END
