
     RDKit          3D

 23 24  0  0  0  0  0  0  0  0999 V2000
   -1.5256   -1.1789    0.3145 C   0  0  0  0  0  0  0  0  0  0  0  0
   -0.9833    0.1783   -0.0746 C   0  0  0  0  0  0  0  0  0  0  0  0
    0.4925    0.3255   -0.2906 C   0  0  0  0  0  0  0  0  0  0  0  0
    1.3011   -0.0209    0.9590 C   0  0  0  0  0  0  0  0  0  0  0  0
    2.6476   -0.2490    0.3020 C   0  0  0  0  0  0  0  0  0  0  0  0
    2.4437   -0.6127   -0.9989 O   0  0  0  0  0  0  0  0  0  0  0  0
    1.0821   -0.6514   -1.2550 C   0  0  0  0  0  0  0  0  0  0  0  0
   -1.7508    1.3769    0.3300 C   0  0  0  0  0  0  0  0  0  0  0  0
   -1.8297    0.9585   -1.1010 C   0  0  0  0  0  0  0  0  0  0  0  0
   -2.6341   -1.2028    0.2754 H   0  0  0  0  0  0  0  0  0  0  0  0
   -1.1834   -1.9905   -0.3607 H   0  0  0  0  0  0  0  0  0  0  0  0
   -1.2549   -1.3723    1.3744 H   0  0  0  0  0  0  0  0  0  0  0  0
    0.7890    1.3598   -0.5563 H   0  0  0  0  0  0  0  0  0  0  0  0
    1.3215    0.8039    1.6820 H   0  0  0  0  0  0  0  0  0  0  0  0
    0.9900   -0.9888    1.3962 H   0  0  0  0  0  0  0  0  0  0  0  0
    3.1448    0.7665    0.2859 H   0  0  0  0  0  0  0  0  0  0  0  0
    3.2894   -0.9312    0.8859 H   0  0  0  0  0  0  0  0  0  0  0  0
    0.8366   -0.3886   -2.3044 H   0  0  0  0  0  0  0  0  0  0  0  0
    0.7333   -1.6645   -0.9694 H   0  0  0  0  0  0  0  0  0  0  0  0
   -1.1415    2.3032    0.5257 H   0  0  0  0  0  0  0  0  0  0  0  0
   -2.7029    1.2530    0.8982 H   0  0  0  0  0  0  0  0  0  0  0  0
   -1.3129    1.4993   -1.8991 H   0  0  0  0  0  0  0  0  0  0  0  0
   -2.7526    0.4268   -1.4706 H   0  0  0  0  0  0  0  0  0  0  0  0
  1  2  1  0
  2  3  1  0
  3  4  1  0
  4  5  1  0
  5  6  1  0
  6  7  1  0
  2  8  1  0
  8  9  1  0
  9  2  1  0
  7  3  1  0
  1 10  1  0
  1 11  1  0
  1 12  1  0
  3 13  1  0
  4 14  1  0
  4 15  1  0
  5 16  1  0
  5 17  1  0
  7 18  1  0
  7 19  1  0
  8 20  1  0
  8 21  1  0
  9 22  1  0
  9 23  1  0
M  END
