
     RDKit          3D

 21 22  0  0  0  0  0  0  0  0999 V2000
   -2.4350   -0.3268   -0.2966 C   0  0  0  0  0  0  0  0  0  0  0  0
   -1.0664    0.1350    0.1447 C   0  0  0  0  0  0  0  0  0  0  0  0
   -1.0578    1.3538    1.0048 C   0  0  0  0  0  0  0  0  0  0  0  0
   -0.1072   -0.9603    0.5124 C   0  0  0  0  0  0  0  0  0  0  0  0
   -0.1001   -1.2856   -0.8399 O   0  0  0  0  0  0  0  0  0  0  0  0
    0.0088    0.1024   -0.8852 C   0  0  0  0  0  0  0  0  0  0  0  0
    1.0110   -0.0357    0.2107 C   0  0  0  0  0  0  0  0  0  0  0  0
    2.2932   -0.6313   -0.2833 C   0  0  0  0  0  0  0  0  0  0  0  0
    3.1862    0.4411   -0.4944 O   0  0  0  0  0  0  0  0  0  0  0  0
   -2.6106   -1.4055   -0.0424 H   0  0  0  0  0  0  0  0  0  0  0  0
   -2.5695   -0.2312   -1.3920 H   0  0  0  0  0  0  0  0  0  0  0  0
   -3.2383    0.2239    0.2715 H   0  0  0  0  0  0  0  0  0  0  0  0
   -2.0724    1.8448    0.9624 H   0  0  0  0  0  0  0  0  0  0  0  0
   -0.3617    2.1518    0.6176 H   0  0  0  0  0  0  0  0  0  0  0  0
   -0.8665    1.1235    2.0665 H   0  0  0  0  0  0  0  0  0  0  0  0
   -0.2013   -1.6068    1.2797 H   0  0  0  0  0  0  0  0  0  0  0  0
    0.0830    0.6635   -1.7201 H   0  0  0  0  0  0  0  0  0  0  0  0
    1.1290    0.7811    0.9153 H   0  0  0  0  0  0  0  0  0  0  0  0
    2.1575   -1.0841   -1.3086 H   0  0  0  0  0  0  0  0  0  0  0  0
    2.7221   -1.3972    0.3587 H   0  0  0  0  0  0  0  0  0  0  0  0
    4.0958    0.1436   -0.6693 H   0  0  0  0  0  0  0  0  0  0  0  0
  1  2  1  0
  2  3  1  0
  2  4  1  0
  4  5  1  0
  5  6  1  0
  6  7  1  0
  7  8  1  0
  8  9  1  0
  6  2  1  0
  7  4  1  0
  1 10  1  0
  1 11  1  0
  1 12  1  0
  3 13  1  0
  3 14  1  0
  3 15  1  0
  4 16  1  0
  6 17  1  0
  7 18  1  0
  8 19  1  0
  8 20  1  0
  9 21  1  0
M  END
