
     RDKit          3D

 20 20  0  0  0  0  0  0  0  0999 V2000
   -1.5851   -0.6271   -0.7669 C   0  0  0  0  0  0  0  0  0  0  0  0
   -0.4579    0.0050    0.0055 C   0  0  0  0  0  0  0  0  0  0  0  0
   -0.9519    0.3522    1.3998 C   0  0  0  0  0  0  0  0  0  0  0  0
    0.0664    1.2341   -0.6653 C   0  0  0  0  0  0  0  0  0  0  0  0
    1.5349    1.0342   -0.7967 C   0  0  0  0  0  0  0  0  0  0  0  0
    1.8893   -0.1803   -0.4138 C   0  0  0  0  0  0  0  0  0  0  0  0
    0.7098   -0.9242    0.0133 C   0  0  0  0  0  0  0  0  0  0  0  0
    0.8288   -1.5169    1.2630 O   0  0  0  0  0  0  0  0  0  0  0  0
   -1.2985   -1.6580   -1.1201 H   0  0  0  0  0  0  0  0  0  0  0  0
   -2.4690   -0.7538   -0.1282 H   0  0  0  0  0  0  0  0  0  0  0  0
   -1.8001   -0.0445   -1.6851 H   0  0  0  0  0  0  0  0  0  0  0  0
   -0.1713    0.8445    2.0008 H   0  0  0  0  0  0  0  0  0  0  0  0
   -1.2161   -0.5976    1.9197 H   0  0  0  0  0  0  0  0  0  0  0  0
   -1.8403    1.0118    1.2494 H   0  0  0  0  0  0  0  0  0  0  0  0
   -0.1224    2.1629   -0.0549 H   0  0  0  0  0  0  0  0  0  0  0  0
   -0.3900    1.4022   -1.6548 H   0  0  0  0  0  0  0  0  0  0  0  0
    2.1809    1.8258   -1.1673 H   0  0  0  0  0  0  0  0  0  0  0  0
    2.9009   -0.5416   -0.4248 H   0  0  0  0  0  0  0  0  0  0  0  0
    0.5550   -1.7692   -0.7166 H   0  0  0  0  0  0  0  0  0  0  0  0
    1.6367   -1.2597    1.7432 H   0  0  0  0  0  0  0  0  0  0  0  0
  1  2  1  0
  2  3  1  0
  2  4  1  0
  4  5  1  0
  5  6  2  0
  6  7  1  0
  7  8  1  0
  7  2  1  0
  1  9  1  0
  1 10  1  0
  1 11  1  0
  3 12  1  0
  3 13  1  0
  3 14  1  0
  4 15  1  0
  4 16  1  0
  5 17  1  0
  6 18  1  0
  7 19  1  0
  8 20  1  0
M  END
