
     RDKit          3D

 23 23  0  0  0  0  0  0  0  0999 V2000
   -2.2176   -0.7272    0.5041 C   0  0  0  0  0  0  0  0  0  0  0  0
   -1.0472    0.1962    0.2558 C   0  0  0  0  0  0  0  0  0  0  0  0
   -1.4576    1.6240    0.3351 C   0  0  0  0  0  0  0  0  0  0  0  0
   -0.2314   -0.0910   -0.9637 C   0  0  0  0  0  0  0  0  0  0  0  0
    0.8569   -0.4564   -0.0264 C   0  0  0  0  0  0  0  0  0  0  0  0
    1.2928   -1.8975   -0.1796 C   0  0  0  0  0  0  0  0  0  0  0  0
    2.0546    0.4430    0.0322 C   0  0  0  0  0  0  0  0  0  0  0  0
    1.6881    1.7950   -0.0168 O   0  0  0  0  0  0  0  0  0  0  0  0
    0.0141   -0.2053    1.0404 O   0  0  0  0  0  0  0  0  0  0  0  0
   -2.9751   -0.7056   -0.2776 H   0  0  0  0  0  0  0  0  0  0  0  0
   -2.7179   -0.3372    1.4379 H   0  0  0  0  0  0  0  0  0  0  0  0
   -1.8755   -1.7503    0.7817 H   0  0  0  0  0  0  0  0  0  0  0  0
   -1.4605    2.0508   -0.7087 H   0  0  0  0  0  0  0  0  0  0  0  0
   -2.5174    1.7268    0.6782 H   0  0  0  0  0  0  0  0  0  0  0  0
   -0.8524    2.2641    0.9631 H   0  0  0  0  0  0  0  0  0  0  0  0
    0.0246    0.7714   -1.5928 H   0  0  0  0  0  0  0  0  0  0  0  0
   -0.6517   -0.9015   -1.5954 H   0  0  0  0  0  0  0  0  0  0  0  0
    1.8042   -1.9993   -1.1580 H   0  0  0  0  0  0  0  0  0  0  0  0
    2.0669   -2.0812    0.5936 H   0  0  0  0  0  0  0  0  0  0  0  0
    0.4619   -2.6114   -0.1594 H   0  0  0  0  0  0  0  0  0  0  0  0
    2.8245    0.2065   -0.7208 H   0  0  0  0  0  0  0  0  0  0  0  0
    2.4983    0.3079    1.0631 H   0  0  0  0  0  0  0  0  0  0  0  0
    2.4173    2.3783   -0.2861 H   0  0  0  0  0  0  0  0  0  0  0  0
  1  2  1  0
  2  3  1  0
  2  4  1  0
  4  5  1  0
  5  6  1  0
  5  7  1  0
  7  8  1  0
  5  9  1  0
  9  2  1  0
  1 10  1  0
  1 11  1  0
  1 12  1  0
  3 13  1  0
  3 14  1  0
  3 15  1  0
  4 16  1  0
  4 17  1  0
  6 18  1  0
  6 19  1  0
  6 20  1  0
  7 21  1  0
  7 22  1  0
  8 23  1  0
M  END
