
     RDKit          3D

 19 20  0  0  0  0  0  0  0  0999 V2000
    1.7225   -0.8734    0.5817 C   0  0  0  0  0  0  0  0  0  0  0  0
    0.7871   -0.0598   -0.2823 C   0  0  0  0  0  0  0  0  0  0  0  0
    1.2987    0.1878   -1.5742 O   0  0  0  0  0  0  0  0  0  0  0  0
    0.1168    1.1632    0.3102 C   0  0  0  0  0  0  0  0  0  0  0  0
   -0.0562    2.2938   -0.4728 O   0  0  0  0  0  0  0  0  0  0  0  0
   -0.6274   -0.0193   -0.0125 C   0  0  0  0  0  0  0  0  0  0  0  0
   -1.6097   -0.2366   -1.0725 C   0  0  0  0  0  0  0  0  0  0  0  0
   -2.4270   -0.9018   -0.1330 O   0  0  0  0  0  0  0  0  0  0  0  0
   -1.4224   -0.8696    0.8649 C   0  0  0  0  0  0  0  0  0  0  0  0
    2.2883   -0.2178    1.2755 H   0  0  0  0  0  0  0  0  0  0  0  0
    2.4830   -1.3950   -0.0373 H   0  0  0  0  0  0  0  0  0  0  0  0
    1.1666   -1.6809    1.1138 H   0  0  0  0  0  0  0  0  0  0  0  0
    2.0874    0.7681   -1.5519 H   0  0  0  0  0  0  0  0  0  0  0  0
    0.4117    1.3352    1.3787 H   0  0  0  0  0  0  0  0  0  0  0  0
   -0.0565    3.0934    0.1212 H   0  0  0  0  0  0  0  0  0  0  0  0
   -1.2670   -0.9972   -1.8325 H   0  0  0  0  0  0  0  0  0  0  0  0
   -2.0701    0.5952   -1.5924 H   0  0  0  0  0  0  0  0  0  0  0  0
   -1.7827   -0.3126    1.7737 H   0  0  0  0  0  0  0  0  0  0  0  0
   -1.0429   -1.8728    1.1417 H   0  0  0  0  0  0  0  0  0  0  0  0
  1  2  1  0
  2  3  1  0
  2  4  1  0
  4  5  1  0
  4  6  1  0
  6  7  1  0
  7  8  1  0
  8  9  1  0
  6  2  1  0
  9  6  1  0
  1 10  1  0
  1 11  1  0
  1 12  1  0
  3 13  1  0
  4 14  1  0
  5 15  1  0
  7 16  1  0
  7 17  1  0
  9 18  1  0
  9 19  1  0
M  END
