
     RDKit          3D

 19 19  0  0  0  0  0  0  0  0999 V2000
    1.8994    0.7699    0.1976 C   0  0  0  0  0  0  0  0  0  0  0  0
    0.6851   -0.0050   -0.2288 C   0  0  0  0  0  0  0  0  0  0  0  0
    0.9528   -0.5861   -1.4689 O   0  0  0  0  0  0  0  0  0  0  0  0
    0.3259   -1.0953    0.7047 C   0  0  0  0  0  0  0  0  0  0  0  0
    1.0484   -1.6773    1.4686 O   0  0  0  0  0  0  0  0  0  0  0  0
   -1.1233   -1.3269    0.5043 C   0  0  0  0  0  0  0  0  0  0  0  0
   -1.6379    0.1045    0.4628 C   0  0  0  0  0  0  0  0  0  0  0  0
   -0.5620    0.8199   -0.2869 C   0  0  0  0  0  0  0  0  0  0  0  0
   -0.9303    0.9862   -1.6107 O   0  0  0  0  0  0  0  0  0  0  0  0
    2.0475    1.5873   -0.5229 H   0  0  0  0  0  0  0  0  0  0  0  0
    2.7664    0.0839    0.1473 H   0  0  0  0  0  0  0  0  0  0  0  0
    1.7796    1.1925    1.2163 H   0  0  0  0  0  0  0  0  0  0  0  0
    1.4167   -1.4663   -1.2969 H   0  0  0  0  0  0  0  0  0  0  0  0
   -1.5920   -1.9185    1.2944 H   0  0  0  0  0  0  0  0  0  0  0  0
   -1.2917   -1.7584   -0.5225 H   0  0  0  0  0  0  0  0  0  0  0  0
   -2.6214    0.1278   -0.0164 H   0  0  0  0  0  0  0  0  0  0  0  0
   -1.6712    0.4387    1.5320 H   0  0  0  0  0  0  0  0  0  0  0  0
   -0.3474    1.7832    0.2276 H   0  0  0  0  0  0  0  0  0  0  0  0
   -1.1447    1.9400   -1.8015 H   0  0  0  0  0  0  0  0  0  0  0  0
  1  2  1  0
  2  3  1  0
  2  4  1  0
  4  5  2  0
  4  6  1  0
  6  7  1  0
  7  8  1  0
  8  9  1  0
  8  2  1  0
  1 10  1  0
  1 11  1  0
  1 12  1  0
  3 13  1  0
  6 14  1  0
  6 15  1  0
  7 16  1  0
  7 17  1  0
  8 18  1  0
  9 19  1  0
M  END
