
     RDKit          3D

 23 23  0  0  0  0  0  0  0  0999 V2000
   -1.7205   -1.4800    0.9017 C   0  0  0  0  0  0  0  0  0  0  0  0
   -0.8302   -0.3729    0.3132 C   0  0  0  0  0  0  0  0  0  0  0  0
    0.4434   -0.7891    0.2962 O   0  0  0  0  0  0  0  0  0  0  0  0
    1.4107    0.0266   -0.1861 C   0  0  0  0  0  0  0  0  0  0  0  0
    2.7946   -0.6149   -0.1222 C   0  0  0  0  0  0  0  0  0  0  0  0
    3.7608    0.2545   -0.6267 O   0  0  0  0  0  0  0  0  0  0  0  0
   -1.2209    0.9510    0.8198 C   0  0  0  0  0  0  0  0  0  0  0  0
   -1.2691    1.4696   -0.5779 C   0  0  0  0  0  0  0  0  0  0  0  0
   -1.4207    0.0298   -1.0240 C   0  0  0  0  0  0  0  0  0  0  0  0
   -1.2615   -2.4803    0.7496 H   0  0  0  0  0  0  0  0  0  0  0  0
   -1.8629   -1.2802    1.9972 H   0  0  0  0  0  0  0  0  0  0  0  0
   -2.7130   -1.4950    0.4397 H   0  0  0  0  0  0  0  0  0  0  0  0
    1.4881    1.0231    0.2315 H   0  0  0  0  0  0  0  0  0  0  0  0
    1.2227    0.1592   -1.2940 H   0  0  0  0  0  0  0  0  0  0  0  0
    2.8306   -1.5361   -0.7517 H   0  0  0  0  0  0  0  0  0  0  0  0
    3.0901   -0.8584    0.9134 H   0  0  0  0  0  0  0  0  0  0  0  0
    3.9174    0.9966    0.0103 H   0  0  0  0  0  0  0  0  0  0  0  0
   -2.2610    0.9451    1.2419 H   0  0  0  0  0  0  0  0  0  0  0  0
   -0.5714    1.4694    1.5352 H   0  0  0  0  0  0  0  0  0  0  0  0
   -0.3698    1.9219   -0.9926 H   0  0  0  0  0  0  0  0  0  0  0  0
   -2.1486    2.0921   -0.8407 H   0  0  0  0  0  0  0  0  0  0  0  0
   -2.5069   -0.2071   -1.1323 H   0  0  0  0  0  0  0  0  0  0  0  0
   -0.8019   -0.2251   -1.9018 H   0  0  0  0  0  0  0  0  0  0  0  0
  1  2  1  0
  2  3  1  0
  3  4  1  0
  4  5  1  0
  5  6  1  0
  2  7  1  0
  7  8  1  0
  8  9  1  0
  9  2  1  0
  1 10  1  0
  1 11  1  0
  1 12  1  0
  4 13  1  0
  4 14  1  0
  5 15  1  0
  5 16  1  0
  6 17  1  0
  7 18  1  0
  7 19  1  0
  8 20  1  0
  8 21  1  0
  9 22  1  0
  9 23  1  0
M  END
