
     RDKit          3D

 18 19  0  0  0  0  0  0  0  0999 V2000
   -0.6189   -1.0175    1.0670 C   0  0  0  0  0  0  0  0  0  0  0  0
   -0.3278   -0.0332   -0.0179 C   0  0  0  0  0  0  0  0  0  0  0  0
    0.9392   -0.2657   -0.8093 C   0  0  0  0  0  0  0  0  0  0  0  0
    2.2503   -0.2645   -0.0830 C   0  0  0  0  0  0  0  0  0  0  0  0
    1.7829    0.8302   -0.9186 O   0  0  0  0  0  0  0  0  0  0  0  0
   -1.5502    0.2197   -0.8733 C   0  0  0  0  0  0  0  0  0  0  0  0
   -1.2227    1.5768   -0.9040 O   0  0  0  0  0  0  0  0  0  0  0  0
   -0.5590    1.4211    0.3240 C   0  0  0  0  0  0  0  0  0  0  0  0
   -1.6211   -1.5176    0.9358 H   0  0  0  0  0  0  0  0  0  0  0  0
    0.1184   -1.8546    0.9604 H   0  0  0  0  0  0  0  0  0  0  0  0
   -0.6252   -0.5988    2.0822 H   0  0  0  0  0  0  0  0  0  0  0  0
    0.8736   -1.0059   -1.6254 H   0  0  0  0  0  0  0  0  0  0  0  0
    2.2204   -0.0568    1.0063 H   0  0  0  0  0  0  0  0  0  0  0  0
    3.1215   -0.7390   -0.5300 H   0  0  0  0  0  0  0  0  0  0  0  0
   -2.4945    0.0670   -0.3045 H   0  0  0  0  0  0  0  0  0  0  0  0
   -1.4622   -0.3228   -1.8169 H   0  0  0  0  0  0  0  0  0  0  0  0
   -1.2124    1.5911    1.2052 H   0  0  0  0  0  0  0  0  0  0  0  0
    0.3877    1.9707    0.3020 H   0  0  0  0  0  0  0  0  0  0  0  0
  1  2  1  0
  2  3  1  0
  3  4  1  0
  4  5  1  0
  2  6  1  0
  6  7  1  0
  7  8  1  0
  8  2  1  0
  5  3  1  0
  1  9  1  0
  1 10  1  0
  1 11  1  0
  3 12  1  0
  4 13  1  0
  4 14  1  0
  6 15  1  0
  6 16  1  0
  8 17  1  0
  8 18  1  0
M  END
