
     RDKit          3D

 21 22  0  0  0  0  0  0  0  0999 V2000
   -1.8028   -0.5131   -1.1791 C   0  0  0  0  0  0  0  0  0  0  0  0
   -1.0608    0.1047   -0.0260 C   0  0  0  0  0  0  0  0  0  0  0  0
   -1.8595    1.2147    0.6277 C   0  0  0  0  0  0  0  0  0  0  0  0
   -0.6647   -0.8862    0.9900 C   0  0  0  0  0  0  0  0  0  0  0  0
    0.6561   -0.9791    1.0253 C   0  0  0  0  0  0  0  0  0  0  0  0
    1.1744   -0.0373    0.0178 C   0  0  0  0  0  0  0  0  0  0  0  0
    2.3528   -0.4196   -0.7938 C   0  0  0  0  0  0  0  0  0  0  0  0
    2.4317    0.7067    0.2087 C   0  0  0  0  0  0  0  0  0  0  0  0
    0.1178    0.6522   -0.5200 O   0  0  0  0  0  0  0  0  0  0  0  0
   -2.4982    0.2292   -1.6103 H   0  0  0  0  0  0  0  0  0  0  0  0
   -2.3193   -1.4451   -0.8723 H   0  0  0  0  0  0  0  0  0  0  0  0
   -1.0713   -0.7921   -1.9861 H   0  0  0  0  0  0  0  0  0  0  0  0
   -2.1148    1.9931   -0.1125 H   0  0  0  0  0  0  0  0  0  0  0  0
   -2.7885    0.7460    1.0235 H   0  0  0  0  0  0  0  0  0  0  0  0
   -1.2456    1.6254    1.4535 H   0  0  0  0  0  0  0  0  0  0  0  0
   -1.3544   -1.4443    1.6048 H   0  0  0  0  0  0  0  0  0  0  0  0
    1.2844   -1.6017    1.6460 H   0  0  0  0  0  0  0  0  0  0  0  0
    2.3620   -0.1713   -1.8763 H   0  0  0  0  0  0  0  0  0  0  0  0
    2.9616   -1.2880   -0.5384 H   0  0  0  0  0  0  0  0  0  0  0  0
    2.4953    1.7367   -0.2485 H   0  0  0  0  0  0  0  0  0  0  0  0
    2.9439    0.5695    1.1660 H   0  0  0  0  0  0  0  0  0  0  0  0
  1  2  1  0
  2  3  1  0
  2  4  1  0
  4  5  2  0
  5  6  1  0
  6  7  1  0
  7  8  1  0
  6  9  1  0
  9  2  1  0
  8  6  1  0
  1 10  1  0
  1 11  1  0
  1 12  1  0
  3 13  1  0
  3 14  1  0
  3 15  1  0
  4 16  1  0
  5 17  1  0
  7 18  1  0
  7 19  1  0
  8 20  1  0
  8 21  1  0
M  END
