
     RDKit          3D

 15 15  0  0  0  0  0  0  0  0999 V2000
    1.7383   -0.1734   -0.0259 C   0  0  0  0  0  0  0  0  0  0  0  0
    0.3065    0.0234    0.2819 C   0  0  0  0  0  0  0  0  0  0  0  0
    0.0201    0.2333    1.6394 O   0  0  0  0  0  0  0  0  0  0  0  0
   -0.6502   -1.0264   -0.2948 C   0  0  0  0  0  0  0  0  0  0  0  0
   -1.6337    0.1543   -0.3311 C   0  0  0  0  0  0  0  0  0  0  0  0
   -0.4379    1.0108   -0.5369 C   0  0  0  0  0  0  0  0  0  0  0  0
   -0.2125    2.0462   -1.1199 O   0  0  0  0  0  0  0  0  0  0  0  0
    2.2596    0.7672   -0.3411 H   0  0  0  0  0  0  0  0  0  0  0  0
    2.2522   -0.4994    0.9258 H   0  0  0  0  0  0  0  0  0  0  0  0
    1.9475   -0.9952   -0.7482 H   0  0  0  0  0  0  0  0  0  0  0  0
   -0.0066    1.2023    1.7796 H   0  0  0  0  0  0  0  0  0  0  0  0
   -0.3200   -1.3693   -1.2856 H   0  0  0  0  0  0  0  0  0  0  0  0
   -0.8598   -1.7741    0.4684 H   0  0  0  0  0  0  0  0  0  0  0  0
   -2.0369    0.2794    0.7148 H   0  0  0  0  0  0  0  0  0  0  0  0
   -2.3666    0.1209   -1.1264 H   0  0  0  0  0  0  0  0  0  0  0  0
  1  2  1  0
  2  3  1  0
  2  4  1  0
  4  5  1  0
  5  6  1  0
  6  7  2  0
  6  2  1  0
  1  8  1  0
  1  9  1  0
  1 10  1  0
  3 11  1  0
  4 12  1  0
  4 13  1  0
  5 14  1  0
  5 15  1  0
M  END
