
     RDKit          3D

 21 22  0  0  0  0  0  0  0  0999 V2000
    1.7802    0.2479   -0.9644 C   0  0  0  0  0  0  0  0  0  0  0  0
    0.9050    0.2686    0.2388 C   0  0  0  0  0  0  0  0  0  0  0  0
    1.3577    1.0205    1.3130 O   0  0  0  0  0  0  0  0  0  0  0  0
    0.3764   -1.0581    0.7137 C   0  0  0  0  0  0  0  0  0  0  0  0
   -0.7032   -0.2431    1.3849 C   0  0  0  0  0  0  0  0  0  0  0  0
   -0.5665    0.3788    0.0226 C   0  0  0  0  0  0  0  0  0  0  0  0
   -1.2844    1.4209   -0.4990 C   0  0  0  0  0  0  0  0  0  0  0  0
   -0.5053   -1.0387   -0.4960 C   0  0  0  0  0  0  0  0  0  0  0  0
   -1.7197   -1.6717   -0.2778 O   0  0  0  0  0  0  0  0  0  0  0  0
    1.4179    0.8472   -1.8159 H   0  0  0  0  0  0  0  0  0  0  0  0
    2.0292   -0.7925   -1.3167 H   0  0  0  0  0  0  0  0  0  0  0  0
    2.7800    0.6670   -0.6469 H   0  0  0  0  0  0  0  0  0  0  0  0
    1.8066    0.4089    1.9630 H   0  0  0  0  0  0  0  0  0  0  0  0
    0.8892   -1.8180    1.1026 H   0  0  0  0  0  0  0  0  0  0  0  0
   -0.2843    0.3187    2.2214 H   0  0  0  0  0  0  0  0  0  0  0  0
   -1.6718   -0.7206    1.5192 H   0  0  0  0  0  0  0  0  0  0  0  0
   -2.1634    1.0919   -1.1282 H   0  0  0  0  0  0  0  0  0  0  0  0
   -1.7562    2.0882    0.2746 H   0  0  0  0  0  0  0  0  0  0  0  0
   -0.7187    2.1105   -1.1566 H   0  0  0  0  0  0  0  0  0  0  0  0
   -0.0330   -1.1831   -1.4674 H   0  0  0  0  0  0  0  0  0  0  0  0
   -1.9356   -2.3434   -0.9847 H   0  0  0  0  0  0  0  0  0  0  0  0
  1  2  1  0
  2  3  1  0
  2  4  1  0
  4  5  1  0
  5  6  1  0
  6  7  1  0
  6  8  1  0
  8  9  1  0
  6  2  1  0
  8  4  1  0
  1 10  1  0
  1 11  1  0
  1 12  1  0
  3 13  1  0
  4 14  1  0
  5 15  1  0
  5 16  1  0
  7 17  1  0
  7 18  1  0
  7 19  1  0
  8 20  1  0
  9 21  1  0
M  END
