
     RDKit          3D

 23 24  0  0  0  0  0  0  0  0999 V2000
   -1.6422    1.3714    0.7039 C   0  0  0  0  0  0  0  0  0  0  0  0
   -1.0485    0.0577    0.1999 C   0  0  0  0  0  0  0  0  0  0  0  0
    0.3233   -0.2090    0.7368 C   0  0  0  0  0  0  0  0  0  0  0  0
    0.9893   -1.4728    0.3007 C   0  0  0  0  0  0  0  0  0  0  0  0
    2.2607   -0.6482    0.0571 C   0  0  0  0  0  0  0  0  0  0  0  0
    1.3544    0.5620   -0.0717 C   0  0  0  0  0  0  0  0  0  0  0  0
    1.8130    1.7228    0.4930 O   0  0  0  0  0  0  0  0  0  0  0  0
   -1.9215   -0.9697   -0.3464 C   0  0  0  0  0  0  0  0  0  0  0  0
   -1.1344   -0.1290   -1.3350 C   0  0  0  0  0  0  0  0  0  0  0  0
   -2.7054    1.4274    0.4640 H   0  0  0  0  0  0  0  0  0  0  0  0
   -1.4301    1.3998    1.7938 H   0  0  0  0  0  0  0  0  0  0  0  0
   -1.0460    2.1755    0.2088 H   0  0  0  0  0  0  0  0  0  0  0  0
    0.4046   -0.0111    1.8073 H   0  0  0  0  0  0  0  0  0  0  0  0
    1.1759   -2.1410    1.1784 H   0  0  0  0  0  0  0  0  0  0  0  0
    0.6029   -1.9854   -0.5767 H   0  0  0  0  0  0  0  0  0  0  0  0
    2.9434   -0.6179    0.9154 H   0  0  0  0  0  0  0  0  0  0  0  0
    2.7972   -0.9406   -0.8576 H   0  0  0  0  0  0  0  0  0  0  0  0
    1.0907    0.7105   -1.1343 H   0  0  0  0  0  0  0  0  0  0  0  0
    1.8973    2.4659   -0.1734 H   0  0  0  0  0  0  0  0  0  0  0  0
   -1.7306   -2.0459   -0.2816 H   0  0  0  0  0  0  0  0  0  0  0  0
   -3.0222   -0.7234   -0.3590 H   0  0  0  0  0  0  0  0  0  0  0  0
   -1.6435    0.6741   -1.8927 H   0  0  0  0  0  0  0  0  0  0  0  0
   -0.3284   -0.6730   -1.8305 H   0  0  0  0  0  0  0  0  0  0  0  0
  1  2  1  0
  2  3  1  0
  3  4  1  0
  4  5  1  0
  5  6  1  0
  6  7  1  0
  2  8  1  0
  8  9  1  0
  9  2  1  0
  6  3  1  0
  1 10  1  0
  1 11  1  0
  1 12  1  0
  3 13  1  0
  4 14  1  0
  4 15  1  0
  5 16  1  0
  5 17  1  0
  6 18  1  0
  7 19  1  0
  8 20  1  0
  8 21  1  0
  9 22  1  0
  9 23  1  0
M  END
