
     RDKit          3D

 21 22  0  0  0  0  0  0  0  0999 V2000
   -1.1715    1.0646   -1.1709 C   0  0  0  0  0  0  0  0  0  0  0  0
   -0.2858    0.2343   -0.2442 C   0  0  0  0  0  0  0  0  0  0  0  0
   -1.1048   -0.8889    0.2565 C   0  0  0  0  0  0  0  0  0  0  0  0
   -2.2072   -0.3962    0.9523 O   0  0  0  0  0  0  0  0  0  0  0  0
    0.2522    1.1343    0.8813 C   0  0  0  0  0  0  0  0  0  0  0  0
    1.6697    1.0331    0.7631 O   0  0  0  0  0  0  0  0  0  0  0  0
    1.7735   -0.2924    0.4543 C   0  0  0  0  0  0  0  0  0  0  0  0
    1.9942   -1.0512   -0.6976 C   0  0  0  0  0  0  0  0  0  0  0  0
    0.9842   -0.0973   -0.9088 C   0  0  0  0  0  0  0  0  0  0  0  0
   -1.2096    0.4794   -2.1305 H   0  0  0  0  0  0  0  0  0  0  0  0
   -0.6447    2.0390   -1.3126 H   0  0  0  0  0  0  0  0  0  0  0  0
   -2.1577    1.1670   -0.7001 H   0  0  0  0  0  0  0  0  0  0  0  0
   -1.5291   -1.4084   -0.6430 H   0  0  0  0  0  0  0  0  0  0  0  0
   -0.6145   -1.6503    0.8515 H   0  0  0  0  0  0  0  0  0  0  0  0
   -2.8850   -1.1403    0.9400 H   0  0  0  0  0  0  0  0  0  0  0  0
    0.0165    2.1861    0.7135 H   0  0  0  0  0  0  0  0  0  0  0  0
   -0.0660    0.7319    1.8520 H   0  0  0  0  0  0  0  0  0  0  0  0
    1.2036   -0.8434    1.2709 H   0  0  0  0  0  0  0  0  0  0  0  0
    1.6883   -2.1407   -0.7332 H   0  0  0  0  0  0  0  0  0  0  0  0
    2.9724   -0.9685   -1.2430 H   0  0  0  0  0  0  0  0  0  0  0  0
    1.3214    0.8077   -1.5131 H   0  0  0  0  0  0  0  0  0  0  0  0
  1  2  1  0
  2  3  1  0
  3  4  1  0
  2  5  1  0
  5  6  1  0
  6  7  1  0
  7  8  1  0
  8  9  1  0
  9  2  1  0
  9  7  1  0
  1 10  1  0
  1 11  1  0
  1 12  1  0
  3 13  1  0
  3 14  1  0
  4 15  1  0
  5 16  1  0
  5 17  1  0
  7 18  1  0
  8 19  1  0
  8 20  1  0
  9 21  1  0
M  END
