
     RDKit          3D

 19 19  0  0  0  0  0  0  0  0999 V2000
    1.1629   -0.3279    1.4060 C   0  0  0  0  0  0  0  0  0  0  0  0
    0.4444    0.1691    0.1448 C   0  0  0  0  0  0  0  0  0  0  0  0
    1.5604    0.7640   -0.7162 C   0  0  0  0  0  0  0  0  0  0  0  0
   -0.2463   -0.9695   -0.5060 C   0  0  0  0  0  0  0  0  0  0  0  0
   -1.7394   -0.8486   -0.5624 C   0  0  0  0  0  0  0  0  0  0  0  0
   -2.1878    0.4769   -0.7487 O   0  0  0  0  0  0  0  0  0  0  0  0
   -1.6654    1.4359    0.1106 C   0  0  0  0  0  0  0  0  0  0  0  0
   -2.3136    2.4628    0.4683 O   0  0  0  0  0  0  0  0  0  0  0  0
   -0.3850    1.2133    0.5640 O   0  0  0  0  0  0  0  0  0  0  0  0
    0.3714   -0.6655    2.0872 H   0  0  0  0  0  0  0  0  0  0  0  0
    1.7810    0.4806    1.8266 H   0  0  0  0  0  0  0  0  0  0  0  0
    1.8241   -1.1421    1.0427 H   0  0  0  0  0  0  0  0  0  0  0  0
    1.2186    1.0578   -1.7066 H   0  0  0  0  0  0  0  0  0  0  0  0
    2.4594    0.0981   -0.7222 H   0  0  0  0  0  0  0  0  0  0  0  0
    1.8921    1.6871   -0.1687 H   0  0  0  0  0  0  0  0  0  0  0  0
    0.1274   -1.1757   -1.5527 H   0  0  0  0  0  0  0  0  0  0  0  0
   -0.0276   -1.9339    0.0418 H   0  0  0  0  0  0  0  0  0  0  0  0
   -2.0983   -1.5021   -1.3846 H   0  0  0  0  0  0  0  0  0  0  0  0
   -2.1781   -1.2802    0.3761 H   0  0  0  0  0  0  0  0  0  0  0  0
  1  2  1  0
  2  3  1  0
  2  4  1  0
  4  5  1  0
  5  6  1  0
  6  7  1  0
  7  8  2  0
  7  9  1  0
  9  2  1  0
  1 10  1  0
  1 11  1  0
  1 12  1  0
  3 13  1  0
  3 14  1  0
  3 15  1  0
  4 16  1  0
  4 17  1  0
  5 18  1  0
  5 19  1  0
M  END
