
     RDKit          3D

 21 22  0  0  0  0  0  0  0  0999 V2000
    2.5838   -0.5852   -0.3885 C   0  0  0  0  0  0  0  0  0  0  0  0
    1.2300    0.0769   -0.1096 C   0  0  0  0  0  0  0  0  0  0  0  0
    1.2941    1.1681    0.9032 C   0  0  0  0  0  0  0  0  0  0  0  0
    0.4687    0.4202   -1.2632 O   0  0  0  0  0  0  0  0  0  0  0  0
    0.0217   -0.6295   -0.4931 C   0  0  0  0  0  0  0  0  0  0  0  0
   -1.2981   -0.4883    0.1934 C   0  0  0  0  0  0  0  0  0  0  0  0
   -1.6564   -1.6216    0.9537 O   0  0  0  0  0  0  0  0  0  0  0  0
   -1.8872    0.7928    0.5713 C   0  0  0  0  0  0  0  0  0  0  0  0
   -2.4140    0.1285   -0.6723 C   0  0  0  0  0  0  0  0  0  0  0  0
    2.4638   -1.3498   -1.1806 H   0  0  0  0  0  0  0  0  0  0  0  0
    2.8288   -1.1411    0.5504 H   0  0  0  0  0  0  0  0  0  0  0  0
    3.3565    0.1666   -0.6118 H   0  0  0  0  0  0  0  0  0  0  0  0
    0.4978    1.1064    1.6760 H   0  0  0  0  0  0  0  0  0  0  0  0
    2.2596    1.1483    1.4887 H   0  0  0  0  0  0  0  0  0  0  0  0
    1.3068    2.1764    0.4027 H   0  0  0  0  0  0  0  0  0  0  0  0
    0.1621   -1.6293   -0.9829 H   0  0  0  0  0  0  0  0  0  0  0  0
   -1.8053   -2.4102    0.3455 H   0  0  0  0  0  0  0  0  0  0  0  0
   -2.5413    0.7911    1.4858 H   0  0  0  0  0  0  0  0  0  0  0  0
   -1.4216    1.7717    0.3963 H   0  0  0  0  0  0  0  0  0  0  0  0
   -2.0986    0.5419   -1.6608 H   0  0  0  0  0  0  0  0  0  0  0  0
   -3.3513   -0.4338   -0.6645 H   0  0  0  0  0  0  0  0  0  0  0  0
  1  2  1  0
  2  3  1  0
  2  4  1  0
  4  5  1  0
  5  6  1  0
  6  7  1  0
  6  8  1  0
  8  9  1  0
  5  2  1  0
  9  6  1  0
  1 10  1  0
  1 11  1  0
  1 12  1  0
  3 13  1  0
  3 14  1  0
  3 15  1  0
  5 16  1  0
  7 17  1  0
  8 18  1  0
  8 19  1  0
  9 20  1  0
  9 21  1  0
M  END
