
     RDKit          3D

 19 19  0  0  0  0  0  0  0  0999 V2000
   -0.5637   -1.2616    0.8654 C   0  0  0  0  0  0  0  0  0  0  0  0
   -0.1858   -0.0232    0.0891 C   0  0  0  0  0  0  0  0  0  0  0  0
   -1.4297    0.6908   -0.3792 C   0  0  0  0  0  0  0  0  0  0  0  0
   -2.2141    1.0673    0.7055 O   0  0  0  0  0  0  0  0  0  0  0  0
    0.5943   -0.4359   -1.1331 C   0  0  0  0  0  0  0  0  0  0  0  0
    1.9998   -0.3117   -0.7027 C   0  0  0  0  0  0  0  0  0  0  0  0
    2.0837    0.4193    0.3942 C   0  0  0  0  0  0  0  0  0  0  0  0
    0.7530    0.8462    0.7944 C   0  0  0  0  0  0  0  0  0  0  0  0
    0.4706    1.7663    1.5790 O   0  0  0  0  0  0  0  0  0  0  0  0
   -0.5912   -2.1203    0.1718 H   0  0  0  0  0  0  0  0  0  0  0  0
   -1.5942   -1.1110    1.2496 H   0  0  0  0  0  0  0  0  0  0  0  0
    0.0978   -1.4540    1.7254 H   0  0  0  0  0  0  0  0  0  0  0  0
   -1.9649    0.0028   -1.0689 H   0  0  0  0  0  0  0  0  0  0  0  0
   -1.1243    1.5622   -1.0083 H   0  0  0  0  0  0  0  0  0  0  0  0
   -2.9590    1.6185    0.4123 H   0  0  0  0  0  0  0  0  0  0  0  0
    0.3414   -1.4668   -1.4615 H   0  0  0  0  0  0  0  0  0  0  0  0
    0.4474    0.2835   -1.9648 H   0  0  0  0  0  0  0  0  0  0  0  0
    2.8427   -0.7580   -1.2156 H   0  0  0  0  0  0  0  0  0  0  0  0
    2.9960    0.6856    0.9475 H   0  0  0  0  0  0  0  0  0  0  0  0
  1  2  1  0
  2  3  1  0
  3  4  1  0
  2  5  1  0
  5  6  1  0
  6  7  2  0
  7  8  1  0
  8  9  2  0
  8  2  1  0
  1 10  1  0
  1 11  1  0
  1 12  1  0
  3 13  1  0
  3 14  1  0
  4 15  1  0
  5 16  1  0
  5 17  1  0
  6 18  1  0
  7 19  1  0
M  END
