
     RDKit          3D

 21 22  0  0  0  0  0  0  0  0999 V2000
    2.3058    0.6557    0.3209 C   0  0  0  0  0  0  0  0  0  0  0  0
    1.1236   -0.2088   -0.0321 C   0  0  0  0  0  0  0  0  0  0  0  0
    1.4441   -1.4999   -0.4008 O   0  0  0  0  0  0  0  0  0  0  0  0
    0.2115    0.4567   -1.0549 C   0  0  0  0  0  0  0  0  0  0  0  0
   -0.9423    0.1345   -0.1833 C   0  0  0  0  0  0  0  0  0  0  0  0
   -2.1002   -0.6531   -0.5481 C   0  0  0  0  0  0  0  0  0  0  0  0
   -2.2041    0.8306   -0.1830 C   0  0  0  0  0  0  0  0  0  0  0  0
   -0.0435   -0.1054    0.9578 C   0  0  0  0  0  0  0  0  0  0  0  0
   -0.1824   -1.3135    1.6371 O   0  0  0  0  0  0  0  0  0  0  0  0
    2.7050    1.0692   -0.6400 H   0  0  0  0  0  0  0  0  0  0  0  0
    2.0349    1.4782    1.0274 H   0  0  0  0  0  0  0  0  0  0  0  0
    3.1335    0.0868    0.7711 H   0  0  0  0  0  0  0  0  0  0  0  0
    1.8739   -1.4417   -1.3034 H   0  0  0  0  0  0  0  0  0  0  0  0
    0.4031    1.5538   -1.0749 H   0  0  0  0  0  0  0  0  0  0  0  0
    0.1808   -0.0246   -2.0408 H   0  0  0  0  0  0  0  0  0  0  0  0
   -2.2234   -0.9523   -1.5962 H   0  0  0  0  0  0  0  0  0  0  0  0
   -2.5568   -1.3756    0.1830 H   0  0  0  0  0  0  0  0  0  0  0  0
   -2.4014    1.5311   -1.0426 H   0  0  0  0  0  0  0  0  0  0  0  0
   -2.7814    1.1106    0.7173 H   0  0  0  0  0  0  0  0  0  0  0  0
    0.1645    0.7107    1.6608 H   0  0  0  0  0  0  0  0  0  0  0  0
   -0.1452   -2.0431    0.9659 H   0  0  0  0  0  0  0  0  0  0  0  0
  1  2  1  0
  2  3  1  0
  2  4  1  0
  4  5  1  0
  5  6  1  0
  6  7  1  0
  5  8  1  0
  8  9  1  0
  8  2  1  0
  7  5  1  0
  1 10  1  0
  1 11  1  0
  1 12  1  0
  3 13  1  0
  4 14  1  0
  4 15  1  0
  6 16  1  0
  6 17  1  0
  7 18  1  0
  7 19  1  0
  8 20  1  0
  9 21  1  0
M  END
