
     RDKit          3D

 23 24  0  0  0  0  0  0  0  0999 V2000
    2.1738   -0.8323    0.1198 C   0  0  0  0  0  0  0  0  0  0  0  0
    1.0249    0.0894   -0.0912 C   0  0  0  0  0  0  0  0  0  0  0  0
    1.4691    1.4797   -0.4543 C   0  0  0  0  0  0  0  0  0  0  0  0
    0.0334    0.0230    1.0672 C   0  0  0  0  0  0  0  0  0  0  0  0
   -1.0426   -0.1876    0.0804 C   0  0  0  0  0  0  0  0  0  0  0  0
   -2.0981    0.8221   -0.0826 C   0  0  0  0  0  0  0  0  0  0  0  0
   -3.0377   -0.2293   -0.1865 O   0  0  0  0  0  0  0  0  0  0  0  0
   -2.1126   -1.1591    0.3447 C   0  0  0  0  0  0  0  0  0  0  0  0
   -0.0775   -0.4320   -1.0096 C   0  0  0  0  0  0  0  0  0  0  0  0
    3.0768   -0.4336   -0.4086 H   0  0  0  0  0  0  0  0  0  0  0  0
    2.0168   -1.8631   -0.2303 H   0  0  0  0  0  0  0  0  0  0  0  0
    2.4197   -0.8094    1.2203 H   0  0  0  0  0  0  0  0  0  0  0  0
    0.6212    2.1865   -0.5049 H   0  0  0  0  0  0  0  0  0  0  0  0
    2.2225    1.7986    0.3080 H   0  0  0  0  0  0  0  0  0  0  0  0
    2.0175    1.4082   -1.4136 H   0  0  0  0  0  0  0  0  0  0  0  0
   -0.0326    0.9997    1.6117 H   0  0  0  0  0  0  0  0  0  0  0  0
    0.1587   -0.8498    1.7317 H   0  0  0  0  0  0  0  0  0  0  0  0
   -2.0708    1.5019   -0.9398 H   0  0  0  0  0  0  0  0  0  0  0  0
   -2.3089    1.3460    0.8882 H   0  0  0  0  0  0  0  0  0  0  0  0
   -2.0850   -2.0355   -0.3475 H   0  0  0  0  0  0  0  0  0  0  0  0
   -2.2654   -1.3960    1.4079 H   0  0  0  0  0  0  0  0  0  0  0  0
   -0.1919    0.1029   -1.9560 H   0  0  0  0  0  0  0  0  0  0  0  0
    0.0888   -1.5301   -1.1549 H   0  0  0  0  0  0  0  0  0  0  0  0
  1  2  1  0
  2  3  1  0
  2  4  1  0
  4  5  1  0
  5  6  1  0
  6  7  1  0
  7  8  1  0
  5  9  1  0
  9  2  1  0
  8  5  1  0
  1 10  1  0
  1 11  1  0
  1 12  1  0
  3 13  1  0
  3 14  1  0
  3 15  1  0
  4 16  1  0
  4 17  1  0
  6 18  1  0
  6 19  1  0
  8 20  1  0
  8 21  1  0
  9 22  1  0
  9 23  1  0
M  END
