
     RDKit          3D

 23 24  0  0  0  0  0  0  0  0999 V2000
    1.9297   -0.8523    0.8493 C   0  0  0  0  0  0  0  0  0  0  0  0
    1.6136    0.0320   -0.3009 C   0  0  0  0  0  0  0  0  0  0  0  0
    2.6221   -0.0185   -1.2972 O   0  0  0  0  0  0  0  0  0  0  0  0
    1.1470    1.4400   -0.0161 C   0  0  0  0  0  0  0  0  0  0  0  0
    0.2760    0.4056   -0.7437 C   0  0  0  0  0  0  0  0  0  0  0  0
   -1.0000    0.0631   -0.0733 C   0  0  0  0  0  0  0  0  0  0  0  0
   -1.3277    0.4844    1.3165 C   0  0  0  0  0  0  0  0  0  0  0  0
   -2.2083   -0.1474   -1.0105 C   0  0  0  0  0  0  0  0  0  0  0  0
   -1.5921   -1.3393   -0.4216 C   0  0  0  0  0  0  0  0  0  0  0  0
    1.7630   -1.9242    0.6472 H   0  0  0  0  0  0  0  0  0  0  0  0
    3.0399   -0.7595    1.0475 H   0  0  0  0  0  0  0  0  0  0  0  0
    1.4585   -0.5639    1.8074 H   0  0  0  0  0  0  0  0  0  0  0  0
    2.2906    0.3989   -2.1082 H   0  0  0  0  0  0  0  0  0  0  0  0
    0.9073    1.6711    1.0416 H   0  0  0  0  0  0  0  0  0  0  0  0
    1.5842    2.2752   -0.5603 H   0  0  0  0  0  0  0  0  0  0  0  0
    0.1640    0.6812   -1.8163 H   0  0  0  0  0  0  0  0  0  0  0  0
   -1.0610    1.5256    1.5499 H   0  0  0  0  0  0  0  0  0  0  0  0
   -2.4262    0.4084    1.4644 H   0  0  0  0  0  0  0  0  0  0  0  0
   -0.9001   -0.2403    2.0640 H   0  0  0  0  0  0  0  0  0  0  0  0
   -3.1974    0.2128   -0.6442 H   0  0  0  0  0  0  0  0  0  0  0  0
   -2.0519    0.1084   -2.0828 H   0  0  0  0  0  0  0  0  0  0  0  0
   -0.9599   -1.9527   -1.0891 H   0  0  0  0  0  0  0  0  0  0  0  0
   -2.0712   -1.9087    0.3765 H   0  0  0  0  0  0  0  0  0  0  0  0
  1  2  1  0
  2  3  1  0
  2  4  1  0
  4  5  1  0
  5  6  1  0
  6  7  1  0
  6  8  1  0
  8  9  1  0
  5  2  1  0
  9  6  1  0
  1 10  1  0
  1 11  1  0
  1 12  1  0
  3 13  1  0
  4 14  1  0
  4 15  1  0
  5 16  1  0
  7 17  1  0
  7 18  1  0
  7 19  1  0
  8 20  1  0
  8 21  1  0
  9 22  1  0
  9 23  1  0
M  END
