
     RDKit          3D

 21 22  0  0  0  0  0  0  0  0999 V2000
    1.7306    0.5050    1.0444 C   0  0  0  0  0  0  0  0  0  0  0  0
    0.5764   -0.1045    0.2341 C   0  0  0  0  0  0  0  0  0  0  0  0
    1.2112   -1.1240   -0.6933 C   0  0  0  0  0  0  0  0  0  0  0  0
    0.0345    1.0335   -0.6049 C   0  0  0  0  0  0  0  0  0  0  0  0
   -1.2992    0.6457   -1.0871 C   0  0  0  0  0  0  0  0  0  0  0  0
   -2.5279    1.0191   -0.8303 O   0  0  0  0  0  0  0  0  0  0  0  0
   -2.0565    0.4746    0.2594 C   0  0  0  0  0  0  0  0  0  0  0  0
   -1.5990   -0.8661    0.6489 C   0  0  0  0  0  0  0  0  0  0  0  0
   -0.2737   -0.7160    1.0652 O   0  0  0  0  0  0  0  0  0  0  0  0
    2.0776   -0.1535    1.8350 H   0  0  0  0  0  0  0  0  0  0  0  0
    2.5168    0.7447    0.2788 H   0  0  0  0  0  0  0  0  0  0  0  0
    1.4250    1.5076    1.4494 H   0  0  0  0  0  0  0  0  0  0  0  0
    0.4844   -1.9052   -0.9425 H   0  0  0  0  0  0  0  0  0  0  0  0
    2.0368   -1.6222   -0.1195 H   0  0  0  0  0  0  0  0  0  0  0  0
    1.6589   -0.6123   -1.5526 H   0  0  0  0  0  0  0  0  0  0  0  0
    0.1055    2.0085   -0.1030 H   0  0  0  0  0  0  0  0  0  0  0  0
    0.7235    1.1071   -1.4982 H   0  0  0  0  0  0  0  0  0  0  0  0
   -1.2537   -0.2662   -1.7554 H   0  0  0  0  0  0  0  0  0  0  0  0
   -1.8262    1.2382    1.0627 H   0  0  0  0  0  0  0  0  0  0  0  0
   -1.5841   -1.6138   -0.1893 H   0  0  0  0  0  0  0  0  0  0  0  0
   -2.1607   -1.3001    1.4984 H   0  0  0  0  0  0  0  0  0  0  0  0
  1  2  1  0
  2  3  1  0
  2  4  1  0
  4  5  1  0
  5  6  1  0
  6  7  1  0
  7  8  1  0
  8  9  1  0
  9  2  1  0
  7  5  1  0
  1 10  1  0
  1 11  1  0
  1 12  1  0
  3 13  1  0
  3 14  1  0
  3 15  1  0
  4 16  1  0
  4 17  1  0
  5 18  1  0
  7 19  1  0
  8 20  1  0
  8 21  1  0
M  END
