
     RDKit          3D

 19 21  0  0  0  0  0  0  0  0999 V2000
    1.8482   -1.1962   -0.3694 C   0  0  0  0  0  0  0  0  0  0  0  0
    0.9516   -0.0791    0.1428 C   0  0  0  0  0  0  0  0  0  0  0  0
   -0.4022    0.0868   -0.4123 C   0  0  0  0  0  0  0  0  0  0  0  0
   -1.2490    1.2040    0.1153 C   0  0  0  0  0  0  0  0  0  0  0  0
   -2.3515    0.1564    0.3240 C   0  0  0  0  0  0  0  0  0  0  0  0
   -2.6656   -0.7333   -0.6672 O   0  0  0  0  0  0  0  0  0  0  0  0
   -1.4713   -0.8584    0.0948 C   0  0  0  0  0  0  0  0  0  0  0  0
    1.4685    0.7229    1.2666 C   0  0  0  0  0  0  0  0  0  0  0  0
    1.7065    1.2034   -0.0168 O   0  0  0  0  0  0  0  0  0  0  0  0
    2.5027   -0.8659   -1.1965 H   0  0  0  0  0  0  0  0  0  0  0  0
    2.4814   -1.5038    0.4883 H   0  0  0  0  0  0  0  0  0  0  0  0
    1.2611   -2.0871   -0.6668 H   0  0  0  0  0  0  0  0  0  0  0  0
   -0.4560    0.1269   -1.5478 H   0  0  0  0  0  0  0  0  0  0  0  0
   -0.9760    1.5874    1.1068 H   0  0  0  0  0  0  0  0  0  0  0  0
   -1.5312    1.9810   -0.6319 H   0  0  0  0  0  0  0  0  0  0  0  0
   -3.1229    0.3771    1.0509 H   0  0  0  0  0  0  0  0  0  0  0  0
   -1.2235   -1.8099    0.5448 H   0  0  0  0  0  0  0  0  0  0  0  0
    0.7893    1.3032    1.8897 H   0  0  0  0  0  0  0  0  0  0  0  0
    2.4401    0.3848    1.7421 H   0  0  0  0  0  0  0  0  0  0  0  0
  1  2  1  0
  2  3  1  0
  3  4  1  0
  4  5  1  0
  5  6  1  0
  6  7  1  0
  2  8  1  0
  8  9  1  0
  9  2  1  0
  7  3  1  0
  7  5  1  0
  1 10  1  0
  1 11  1  0
  1 12  1  0
  3 13  1  0
  4 14  1  0
  4 15  1  0
  5 16  1  0
  7 17  1  0
  8 18  1  0
  8 19  1  0
M  END
