
     RDKit          3D

 23 24  0  0  0  0  0  0  0  0999 V2000
   -1.1983    1.6594   -0.4158 C   0  0  0  0  0  0  0  0  0  0  0  0
   -0.8606    0.2018   -0.2034 C   0  0  0  0  0  0  0  0  0  0  0  0
   -1.8877   -0.5683    0.5627 C   0  0  0  0  0  0  0  0  0  0  0  0
   -1.5669   -1.8968    0.7493 O   0  0  0  0  0  0  0  0  0  0  0  0
   -0.2812   -0.5723   -1.3907 C   0  0  0  0  0  0  0  0  0  0  0  0
    0.5427   -0.1477   -0.2845 C   0  0  0  0  0  0  0  0  0  0  0  0
    1.6603    0.8395   -0.3759 C   0  0  0  0  0  0  0  0  0  0  0  0
    2.3349    0.0752    0.7532 C   0  0  0  0  0  0  0  0  0  0  0  0
    1.2722   -1.0282    0.6564 C   0  0  0  0  0  0  0  0  0  0  0  0
   -0.6223    2.2316    0.3524 H   0  0  0  0  0  0  0  0  0  0  0  0
   -0.7951    2.0314   -1.4007 H   0  0  0  0  0  0  0  0  0  0  0  0
   -2.2569    1.8772   -0.2819 H   0  0  0  0  0  0  0  0  0  0  0  0
   -2.1571   -0.0861    1.5266 H   0  0  0  0  0  0  0  0  0  0  0  0
   -2.8354   -0.5547   -0.0463 H   0  0  0  0  0  0  0  0  0  0  0  0
   -2.3603   -2.3477    1.1342 H   0  0  0  0  0  0  0  0  0  0  0  0
   -0.2307    0.0383   -2.3362 H   0  0  0  0  0  0  0  0  0  0  0  0
   -0.5199   -1.6460   -1.4861 H   0  0  0  0  0  0  0  0  0  0  0  0
    1.4167    1.8929   -0.1366 H   0  0  0  0  0  0  0  0  0  0  0  0
    2.1782    0.7631   -1.3582 H   0  0  0  0  0  0  0  0  0  0  0  0
    3.3433   -0.2484    0.4688 H   0  0  0  0  0  0  0  0  0  0  0  0
    2.2881    0.6696    1.6703 H   0  0  0  0  0  0  0  0  0  0  0  0
    1.7416   -1.9461    0.2083 H   0  0  0  0  0  0  0  0  0  0  0  0
    0.7942   -1.2377    1.6341 H   0  0  0  0  0  0  0  0  0  0  0  0
  1  2  1  0
  2  3  1  0
  3  4  1  0
  2  5  1  0
  5  6  1  0
  6  7  1  0
  7  8  1  0
  8  9  1  0
  6  2  1  0
  9  6  1  0
  1 10  1  0
  1 11  1  0
  1 12  1  0
  3 13  1  0
  3 14  1  0
  4 15  1  0
  5 16  1  0
  5 17  1  0
  7 18  1  0
  7 19  1  0
  8 20  1  0
  8 21  1  0
  9 22  1  0
  9 23  1  0
M  END
