
     RDKit          3D

 16 17  0  0  0  0  0  0  0  0999 V2000
   -1.9925   -0.5195    0.3700 C   0  0  0  0  0  0  0  0  0  0  0  0
   -0.7245    0.2080   -0.0308 C   0  0  0  0  0  0  0  0  0  0  0  0
   -0.9742    1.1768   -1.0316 O   0  0  0  0  0  0  0  0  0  0  0  0
    0.4305   -0.7748   -0.2810 C   0  0  0  0  0  0  0  0  0  0  0  0
    1.8828   -0.4817   -0.2971 C   0  0  0  0  0  0  0  0  0  0  0  0
    1.6341    0.9268    0.0389 C   0  0  0  0  0  0  0  0  0  0  0  0
    2.1228    2.0014   -0.1050 O   0  0  0  0  0  0  0  0  0  0  0  0
    0.4536    0.2880    0.6496 C   0  0  0  0  0  0  0  0  0  0  0  0
   -1.8309   -1.5690    0.6359 H   0  0  0  0  0  0  0  0  0  0  0  0
   -2.4554    0.0134    1.2498 H   0  0  0  0  0  0  0  0  0  0  0  0
   -2.7464   -0.5166   -0.4649 H   0  0  0  0  0  0  0  0  0  0  0  0
   -1.2962    2.0104   -0.6373 H   0  0  0  0  0  0  0  0  0  0  0  0
    0.1154   -1.2104   -1.1759 H   0  0  0  0  0  0  0  0  0  0  0  0
    2.4498   -0.6335   -1.2358 H   0  0  0  0  0  0  0  0  0  0  0  0
    2.3779   -0.9820    0.5892 H   0  0  0  0  0  0  0  0  0  0  0  0
    0.5532    0.0626    1.7260 H   0  0  0  0  0  0  0  0  0  0  0  0
  1  2  1  0
  2  3  1  0
  2  4  1  0
  4  5  1  0
  5  6  1  0
  6  7  2  0
  6  8  1  0
  8  2  1  0
  8  4  1  0
  1  9  1  0
  1 10  1  0
  1 11  1  0
  3 12  1  0
  4 13  1  0
  5 14  1  0
  5 15  1  0
  8 16  1  0
M  END
