
     RDKit          3D

 21 22  0  0  0  0  0  0  0  0999 V2000
    2.0672    1.2136    0.2302 C   0  0  0  0  0  0  0  0  0  0  0  0
    1.3304   -0.0981    0.2885 C   0  0  0  0  0  0  0  0  0  0  0  0
    1.2583   -0.6391    1.5731 O   0  0  0  0  0  0  0  0  0  0  0  0
    1.2594   -0.9961   -0.8889 C   0  0  0  0  0  0  0  0  0  0  0  0
    0.0740   -0.1239   -0.5755 C   0  0  0  0  0  0  0  0  0  0  0  0
   -1.1146   -0.7545    0.1090 C   0  0  0  0  0  0  0  0  0  0  0  0
   -1.5203   -0.0369    1.3865 C   0  0  0  0  0  0  0  0  0  0  0  0
   -2.4203   -0.1041    0.1817 C   0  0  0  0  0  0  0  0  0  0  0  0
   -2.7269    1.0699   -0.4862 O   0  0  0  0  0  0  0  0  0  0  0  0
    1.3189    1.9990    0.5134 H   0  0  0  0  0  0  0  0  0  0  0  0
    2.8566    1.2805    1.0247 H   0  0  0  0  0  0  0  0  0  0  0  0
    2.4610    1.4491   -0.7679 H   0  0  0  0  0  0  0  0  0  0  0  0
    1.5649   -1.5803    1.6126 H   0  0  0  0  0  0  0  0  0  0  0  0
    1.0886   -2.0800   -0.6922 H   0  0  0  0  0  0  0  0  0  0  0  0
    1.9202   -0.7516   -1.7431 H   0  0  0  0  0  0  0  0  0  0  0  0
   -0.1533    0.7458   -1.2154 H   0  0  0  0  0  0  0  0  0  0  0  0
   -1.0693   -1.8705    0.1334 H   0  0  0  0  0  0  0  0  0  0  0  0
   -1.6844   -0.7125    2.2459 H   0  0  0  0  0  0  0  0  0  0  0  0
   -1.0969    0.9679    1.5844 H   0  0  0  0  0  0  0  0  0  0  0  0
   -3.2998   -0.7864    0.3297 H   0  0  0  0  0  0  0  0  0  0  0  0
   -2.1136    1.8081   -0.3125 H   0  0  0  0  0  0  0  0  0  0  0  0
  1  2  1  0
  2  3  1  0
  2  4  1  0
  4  5  1  0
  5  6  1  0
  6  7  1  0
  7  8  1  0
  8  9  1  0
  5  2  1  0
  8  6  1  0
  1 10  1  0
  1 11  1  0
  1 12  1  0
  3 13  1  0
  4 14  1  0
  4 15  1  0
  5 16  1  0
  6 17  1  0
  7 18  1  0
  7 19  1  0
  8 20  1  0
  9 21  1  0
M  END
