
     RDKit          3D

 20 20  0  0  0  0  0  0  0  0999 V2000
   -2.1307    0.2701   -0.1682 C   0  0  0  0  0  0  0  0  0  0  0  0
   -0.7097    0.2710    0.3929 C   0  0  0  0  0  0  0  0  0  0  0  0
   -0.5851    1.0205    1.5347 O   0  0  0  0  0  0  0  0  0  0  0  0
   -0.2579   -1.1698    0.5543 C   0  0  0  0  0  0  0  0  0  0  0  0
    0.3368   -1.0658   -0.8484 C   0  0  0  0  0  0  0  0  0  0  0  0
    0.2973    0.4476   -0.6782 C   0  0  0  0  0  0  0  0  0  0  0  0
    1.6460    0.9751   -0.2501 C   0  0  0  0  0  0  0  0  0  0  0  0
    2.2453    0.1146    0.6763 O   0  0  0  0  0  0  0  0  0  0  0  0
   -2.7919   -0.3009    0.5129 H   0  0  0  0  0  0  0  0  0  0  0  0
   -2.4956    1.3155   -0.3408 H   0  0  0  0  0  0  0  0  0  0  0  0
   -2.0638   -0.3044   -1.1277 H   0  0  0  0  0  0  0  0  0  0  0  0
   -0.8678    0.5301    2.3483 H   0  0  0  0  0  0  0  0  0  0  0  0
   -1.0735   -1.9102    0.6188 H   0  0  0  0  0  0  0  0  0  0  0  0
    0.4852   -1.2770    1.3560 H   0  0  0  0  0  0  0  0  0  0  0  0
    1.3568   -1.4862   -0.8823 H   0  0  0  0  0  0  0  0  0  0  0  0
   -0.3655   -1.3957   -1.6274 H   0  0  0  0  0  0  0  0  0  0  0  0
   -0.0525    0.9402   -1.6055 H   0  0  0  0  0  0  0  0  0  0  0  0
    1.5473    1.9605    0.2907 H   0  0  0  0  0  0  0  0  0  0  0  0
    2.2968    1.1224   -1.1361 H   0  0  0  0  0  0  0  0  0  0  0  0
    3.1827   -0.0576    0.3799 H   0  0  0  0  0  0  0  0  0  0  0  0
  1  2  1  0
  2  3  1  0
  2  4  1  0
  4  5  1  0
  5  6  1  0
  6  7  1  0
  7  8  1  0
  6  2  1  0
  1  9  1  0
  1 10  1  0
  1 11  1  0
  3 12  1  0
  4 13  1  0
  4 14  1  0
  5 15  1  0
  5 16  1  0
  6 17  1  0
  7 18  1  0
  7 19  1  0
  8 20  1  0
M  END
