
     RDKit          3D

 17 17  0  0  0  0  0  0  0  0999 V2000
   -1.0513    1.1918    0.6408 C   0  0  0  0  0  0  0  0  0  0  0  0
   -0.5748    0.0125   -0.1797 C   0  0  0  0  0  0  0  0  0  0  0  0
   -1.6934   -0.8176   -0.6139 C   0  0  0  0  0  0  0  0  0  0  0  0
   -1.9185   -0.9656   -1.7953 O   0  0  0  0  0  0  0  0  0  0  0  0
    0.4443   -0.7367    0.6479 C   0  0  0  0  0  0  0  0  0  0  0  0
    1.7085   -0.5942   -0.1423 C   0  0  0  0  0  0  0  0  0  0  0  0
    1.4474    0.6456   -0.9246 C   0  0  0  0  0  0  0  0  0  0  0  0
    2.2803    1.5804   -1.1863 O   0  0  0  0  0  0  0  0  0  0  0  0
    0.1137    0.5478   -1.2948 O   0  0  0  0  0  0  0  0  0  0  0  0
   -2.1400    1.0536    0.8358 H   0  0  0  0  0  0  0  0  0  0  0  0
   -0.5748    1.2178    1.6551 H   0  0  0  0  0  0  0  0  0  0  0  0
   -0.8292    2.1594    0.1710 H   0  0  0  0  0  0  0  0  0  0  0  0
   -2.3318   -1.3082    0.1006 H   0  0  0  0  0  0  0  0  0  0  0  0
    0.5994   -0.2684    1.6333 H   0  0  0  0  0  0  0  0  0  0  0  0
    0.1500   -1.7905    0.8264 H   0  0  0  0  0  0  0  0  0  0  0  0
    2.6115   -0.5042    0.4902 H   0  0  0  0  0  0  0  0  0  0  0  0
    1.7585   -1.4235   -0.8641 H   0  0  0  0  0  0  0  0  0  0  0  0
  1  2  1  0
  2  3  1  0
  3  4  2  0
  2  5  1  0
  5  6  1  0
  6  7  1  0
  7  8  2  0
  7  9  1  0
  9  2  1  0
  1 10  1  0
  1 11  1  0
  1 12  1  0
  3 13  1  0
  5 14  1  0
  5 15  1  0
  6 16  1  0
  6 17  1  0
M  END
