
     RDKit          3D

 20 21  0  0  0  0  0  0  0  0999 V2000
   -1.5134   -0.1589   -1.1667 C   0  0  0  0  0  0  0  0  0  0  0  0
   -0.7086   -0.2067    0.1306 C   0  0  0  0  0  0  0  0  0  0  0  0
   -1.4930    0.0073    1.4340 C   0  0  0  0  0  0  0  0  0  0  0  0
    0.4965   -1.0288    0.1033 C   0  0  0  0  0  0  0  0  0  0  0  0
    1.6496   -0.8594    1.0332 C   0  0  0  0  0  0  0  0  0  0  0  0
    1.3013    0.4576    1.3171 O   0  0  0  0  0  0  0  0  0  0  0  0
    0.5996    0.4600    0.1047 C   0  0  0  0  0  0  0  0  0  0  0  0
    1.0999    1.2266   -1.0580 C   0  0  0  0  0  0  0  0  0  0  0  0
   -1.3720   -1.1396   -1.7016 H   0  0  0  0  0  0  0  0  0  0  0  0
   -1.2290    0.7038   -1.7978 H   0  0  0  0  0  0  0  0  0  0  0  0
   -2.5963   -0.0720   -0.9801 H   0  0  0  0  0  0  0  0  0  0  0  0
   -0.8461   -0.3969    2.2327 H   0  0  0  0  0  0  0  0  0  0  0  0
   -1.6121    1.1211    1.5092 H   0  0  0  0  0  0  0  0  0  0  0  0
   -2.4417   -0.5241    1.3615 H   0  0  0  0  0  0  0  0  0  0  0  0
    0.7110   -1.6256   -0.7973 H   0  0  0  0  0  0  0  0  0  0  0  0
    2.6408   -0.8429    0.4917 H   0  0  0  0  0  0  0  0  0  0  0  0
    1.7118   -1.5494    1.8673 H   0  0  0  0  0  0  0  0  0  0  0  0
    0.4553    2.1364   -1.1787 H   0  0  0  0  0  0  0  0  0  0  0  0
    1.0281    0.6833   -2.0360 H   0  0  0  0  0  0  0  0  0  0  0  0
    2.1182    1.6081   -0.8690 H   0  0  0  0  0  0  0  0  0  0  0  0
  1  2  1  0
  2  3  1  0
  2  4  1  0
  4  5  1  0
  5  6  1  0
  6  7  1  0
  7  8  1  0
  7  2  1  0
  7  4  1  0
  1  9  1  0
  1 10  1  0
  1 11  1  0
  3 12  1  0
  3 13  1  0
  3 14  1  0
  4 15  1  0
  5 16  1  0
  5 17  1  0
  8 18  1  0
  8 19  1  0
  8 20  1  0
M  END
