
     RDKit          3D

 21 21  0  0  0  0  0  0  0  0999 V2000
   -2.0155    1.1451   -0.3227 C   0  0  0  0  0  0  0  0  0  0  0  0
   -1.4356   -0.2191   -0.0788 C   0  0  0  0  0  0  0  0  0  0  0  0
   -2.2895   -1.1891    0.3713 O   0  0  0  0  0  0  0  0  0  0  0  0
   -0.5135   -0.7065   -1.1960 C   0  0  0  0  0  0  0  0  0  0  0  0
    0.5692    0.1352   -0.5635 C   0  0  0  0  0  0  0  0  0  0  0  0
    1.9177   -0.5183   -0.4497 C   0  0  0  0  0  0  0  0  0  0  0  0
    2.8343    0.4707    0.1953 C   0  0  0  0  0  0  0  0  0  0  0  0
    4.0180    0.2087    0.4184 O   0  0  0  0  0  0  0  0  0  0  0  0
   -0.1691   -0.0554    0.7702 C   0  0  0  0  0  0  0  0  0  0  0  0
   -1.2656    1.9605   -0.1635 H   0  0  0  0  0  0  0  0  0  0  0  0
   -2.4001    1.2888   -1.3475 H   0  0  0  0  0  0  0  0  0  0  0  0
   -2.8046    1.3150    0.4386 H   0  0  0  0  0  0  0  0  0  0  0  0
   -2.4591   -1.9282   -0.2306 H   0  0  0  0  0  0  0  0  0  0  0  0
   -0.2777   -1.7675   -1.1241 H   0  0  0  0  0  0  0  0  0  0  0  0
   -0.8974   -0.3717   -2.1580 H   0  0  0  0  0  0  0  0  0  0  0  0
    0.5748    1.1851   -0.8661 H   0  0  0  0  0  0  0  0  0  0  0  0
    1.8682   -1.3877    0.2432 H   0  0  0  0  0  0  0  0  0  0  0  0
    2.3096   -0.8834   -1.4150 H   0  0  0  0  0  0  0  0  0  0  0  0
    2.5134    1.4628    0.4996 H   0  0  0  0  0  0  0  0  0  0  0  0
   -0.1350    0.8593    1.3694 H   0  0  0  0  0  0  0  0  0  0  0  0
    0.0575   -1.0042    1.2647 H   0  0  0  0  0  0  0  0  0  0  0  0
  1  2  1  0
  2  3  1  0
  2  4  1  0
  4  5  1  0
  5  6  1  0
  6  7  1  0
  7  8  2  0
  5  9  1  0
  9  2  1  0
  1 10  1  0
  1 11  1  0
  1 12  1  0
  3 13  1  0
  4 14  1  0
  4 15  1  0
  5 16  1  0
  6 17  1  0
  6 18  1  0
  7 19  1  0
  9 20  1  0
  9 21  1  0
M  END
