
     RDKit          3D

 21 21  0  0  0  0  0  0  0  0999 V2000
   -1.8703    1.1802    0.7631 C   0  0  0  0  0  0  0  0  0  0  0  0
   -0.8829    0.2688    0.0703 C   0  0  0  0  0  0  0  0  0  0  0  0
   -1.4704   -1.1259   -0.1006 C   0  0  0  0  0  0  0  0  0  0  0  0
   -0.4400    0.7780   -1.2551 C   0  0  0  0  0  0  0  0  0  0  0  0
    0.8693    0.3310   -1.3685 O   0  0  0  0  0  0  0  0  0  0  0  0
    1.1701   -0.3411   -0.1949 C   0  0  0  0  0  0  0  0  0  0  0  0
    2.6162   -0.0412    0.1971 C   0  0  0  0  0  0  0  0  0  0  0  0
    2.9192   -0.7212    1.3835 O   0  0  0  0  0  0  0  0  0  0  0  0
    0.2962    0.1275    0.7749 O   0  0  0  0  0  0  0  0  0  0  0  0
   -1.7498    2.2406    0.4524 H   0  0  0  0  0  0  0  0  0  0  0  0
   -2.8793    0.8455    0.4972 H   0  0  0  0  0  0  0  0  0  0  0  0
   -1.7498    1.0325    1.8560 H   0  0  0  0  0  0  0  0  0  0  0  0
   -1.3360   -1.6285    0.8895 H   0  0  0  0  0  0  0  0  0  0  0  0
   -0.8918   -1.6866   -0.8628 H   0  0  0  0  0  0  0  0  0  0  0  0
   -2.5113   -1.1013   -0.4317 H   0  0  0  0  0  0  0  0  0  0  0  0
   -0.5016    1.8802   -1.3611 H   0  0  0  0  0  0  0  0  0  0  0  0
   -1.0668    0.3342   -2.0488 H   0  0  0  0  0  0  0  0  0  0  0  0
    1.1063   -1.4370   -0.3487 H   0  0  0  0  0  0  0  0  0  0  0  0
    2.6804    1.0546    0.3484 H   0  0  0  0  0  0  0  0  0  0  0  0
    3.2337   -0.3944   -0.6556 H   0  0  0  0  0  0  0  0  0  0  0  0
    2.4584   -1.5959    1.3955 H   0  0  0  0  0  0  0  0  0  0  0  0
  1  2  1  0
  2  3  1  0
  2  4  1  0
  4  5  1  0
  5  6  1  0
  6  7  1  0
  7  8  1  0
  6  9  1  0
  9  2  1  0
  1 10  1  0
  1 11  1  0
  1 12  1  0
  3 13  1  0
  3 14  1  0
  3 15  1  0
  4 16  1  0
  4 17  1  0
  6 18  1  0
  7 19  1  0
  7 20  1  0
  8 21  1  0
M  END
