
     RDKit          3D

 23 24  0  0  0  0  0  0  0  0999 V2000
   -1.8926    0.5961   -1.0547 C   0  0  0  0  0  0  0  0  0  0  0  0
   -1.1423   -0.1759    0.0405 C   0  0  0  0  0  0  0  0  0  0  0  0
   -2.1558   -0.4367    1.1370 C   0  0  0  0  0  0  0  0  0  0  0  0
   -0.0077    0.6854    0.4805 C   0  0  0  0  0  0  0  0  0  0  0  0
    1.1991   -0.0447   -0.0113 C   0  0  0  0  0  0  0  0  0  0  0  0
    2.1873    0.5258   -0.9192 C   0  0  0  0  0  0  0  0  0  0  0  0
    2.5189    0.2652    0.5082 C   0  0  0  0  0  0  0  0  0  0  0  0
    0.6881   -1.4314   -0.2502 C   0  0  0  0  0  0  0  0  0  0  0  0
   -0.6659   -1.3747   -0.3977 O   0  0  0  0  0  0  0  0  0  0  0  0
   -1.4109    0.3912   -2.0340 H   0  0  0  0  0  0  0  0  0  0  0  0
   -1.8439    1.6937   -0.8137 H   0  0  0  0  0  0  0  0  0  0  0  0
   -2.9586    0.3367   -1.0520 H   0  0  0  0  0  0  0  0  0  0  0  0
   -3.1555   -0.6680    0.6821 H   0  0  0  0  0  0  0  0  0  0  0  0
   -1.8906   -1.3621    1.7117 H   0  0  0  0  0  0  0  0  0  0  0  0
   -2.2873    0.4072    1.8165 H   0  0  0  0  0  0  0  0  0  0  0  0
   -0.0812    1.7298    0.0983 H   0  0  0  0  0  0  0  0  0  0  0  0
    0.0496    0.7656    1.5798 H   0  0  0  0  0  0  0  0  0  0  0  0
    2.6873   -0.1768   -1.6424 H   0  0  0  0  0  0  0  0  0  0  0  0
    2.1771    1.5647   -1.2760 H   0  0  0  0  0  0  0  0  0  0  0  0
    2.5952    1.1913    1.1477 H   0  0  0  0  0  0  0  0  0  0  0  0
    3.1922   -0.5473    0.8170 H   0  0  0  0  0  0  0  0  0  0  0  0
    1.1607   -1.8721   -1.1659 H   0  0  0  0  0  0  0  0  0  0  0  0
    1.0368   -2.0631    0.5979 H   0  0  0  0  0  0  0  0  0  0  0  0
  1  2  1  0
  2  3  1  0
  2  4  1  0
  4  5  1  0
  5  6  1  0
  6  7  1  0
  5  8  1  0
  8  9  1  0
  9  2  1  0
  7  5  1  0
  1 10  1  0
  1 11  1  0
  1 12  1  0
  3 13  1  0
  3 14  1  0
  3 15  1  0
  4 16  1  0
  4 17  1  0
  6 18  1  0
  6 19  1  0
  7 20  1  0
  7 21  1  0
  8 22  1  0
  8 23  1  0
M  END
