
     RDKit          3D

 17 17  0  0  0  0  0  0  0  0999 V2000
   -1.5334   -0.8851    0.7968 C   0  0  0  0  0  0  0  0  0  0  0  0
   -0.4131   -0.1973    0.0435 C   0  0  0  0  0  0  0  0  0  0  0  0
   -0.9823    0.8406   -0.9299 C   0  0  0  0  0  0  0  0  0  0  0  0
    0.3831   -1.0581   -0.6505 O   0  0  0  0  0  0  0  0  0  0  0  0
    1.6718   -0.6201   -0.6629 C   0  0  0  0  0  0  0  0  0  0  0  0
    1.7714    0.5148    0.2928 C   0  0  0  0  0  0  0  0  0  0  0  0
    2.7305    1.2905    0.4911 O   0  0  0  0  0  0  0  0  0  0  0  0
    0.4840    0.5396    0.9722 C   0  0  0  0  0  0  0  0  0  0  0  0
    0.2009    1.0685    2.0948 O   0  0  0  0  0  0  0  0  0  0  0  0
   -2.4717   -0.6993    0.2322 H   0  0  0  0  0  0  0  0  0  0  0  0
   -1.6044   -0.4483    1.8145 H   0  0  0  0  0  0  0  0  0  0  0  0
   -1.3252   -1.9738    0.9311 H   0  0  0  0  0  0  0  0  0  0  0  0
   -2.0618    0.7248   -1.0607 H   0  0  0  0  0  0  0  0  0  0  0  0
   -0.4488    0.7670   -1.9115 H   0  0  0  0  0  0  0  0  0  0  0  0
   -0.8030    1.8749   -0.5621 H   0  0  0  0  0  0  0  0  0  0  0  0
    2.0555   -0.3239   -1.6635 H   0  0  0  0  0  0  0  0  0  0  0  0
    2.3464   -1.4151   -0.2278 H   0  0  0  0  0  0  0  0  0  0  0  0
  1  2  1  0
  2  3  1  0
  2  4  1  0
  4  5  1  0
  5  6  1  0
  6  7  2  0
  6  8  1  0
  8  9  2  0
  8  2  1  0
  1 10  1  0
  1 11  1  0
  1 12  1  0
  3 13  1  0
  3 14  1  0
  3 15  1  0
  5 16  1  0
  5 17  1  0
M  END
