
     RDKit          3D

 21 23  0  0  0  0  0  0  0  0999 V2000
   -1.5307    1.2434    0.0839 C   0  0  0  0  0  0  0  0  0  0  0  0
   -1.0747   -0.1583    0.1701 C   0  0  0  0  0  0  0  0  0  0  0  0
   -2.0401   -1.1088    0.4483 O   0  0  0  0  0  0  0  0  0  0  0  0
    0.1440   -0.4087    1.0689 C   0  0  0  0  0  0  0  0  0  0  0  0
    0.3547   -1.6028    0.1521 C   0  0  0  0  0  0  0  0  0  0  0  0
   -0.0914   -0.6048   -0.9244 C   0  0  0  0  0  0  0  0  0  0  0  0
    0.9366    0.4610   -0.9365 C   0  0  0  0  0  0  0  0  0  0  0  0
    2.2289    0.3791   -0.2569 C   0  0  0  0  0  0  0  0  0  0  0  0
    1.0839    0.6662    0.6152 C   0  0  0  0  0  0  0  0  0  0  0  0
   -1.1738    1.8203   -0.7748 H   0  0  0  0  0  0  0  0  0  0  0  0
   -2.6600    1.2352    0.0373 H   0  0  0  0  0  0  0  0  0  0  0  0
   -1.3136    1.7464    1.0695 H   0  0  0  0  0  0  0  0  0  0  0  0
   -2.4897   -1.4823   -0.3258 H   0  0  0  0  0  0  0  0  0  0  0  0
   -0.0323   -0.5787    2.0989 H   0  0  0  0  0  0  0  0  0  0  0  0
   -0.4179   -2.3656    0.3612 H   0  0  0  0  0  0  0  0  0  0  0  0
    1.3622   -1.9799    0.0587 H   0  0  0  0  0  0  0  0  0  0  0  0
   -0.5082   -1.0017   -1.8193 H   0  0  0  0  0  0  0  0  0  0  0  0
    0.6739    1.3664   -1.5111 H   0  0  0  0  0  0  0  0  0  0  0  0
    2.8069   -0.5561   -0.1302 H   0  0  0  0  0  0  0  0  0  0  0  0
    2.9130    1.2538   -0.4360 H   0  0  0  0  0  0  0  0  0  0  0  0
    0.8284    1.6761    0.9507 H   0  0  0  0  0  0  0  0  0  0  0  0
  1  2  1  0
  2  3  1  0
  2  4  1  0
  4  5  1  0
  5  6  1  0
  6  7  1  0
  7  8  1  0
  8  9  1  0
  6  2  1  0
  9  7  1  0
  9  4  1  0
  1 10  1  0
  1 11  1  0
  1 12  1  0
  3 13  1  0
  4 14  1  0
  5 15  1  0
  5 16  1  0
  6 17  1  0
  7 18  1  0
  8 19  1  0
  8 20  1  0
  9 21  1  0
M  END
