
     RDKit          3D

 19 19  0  0  0  0  0  0  0  0999 V2000
   -1.1245    0.4780    1.0007 C   0  0  0  0  0  0  0  0  0  0  0  0
   -0.4351    0.3225   -0.3231 C   0  0  0  0  0  0  0  0  0  0  0  0
   -0.9712    1.1561   -1.2689 O   0  0  0  0  0  0  0  0  0  0  0  0
   -0.5757   -1.1595   -0.7056 C   0  0  0  0  0  0  0  0  0  0  0  0
    0.6125   -1.7455    0.0112 C   0  0  0  0  0  0  0  0  0  0  0  0
    1.4532   -0.7273    0.3622 O   0  0  0  0  0  0  0  0  0  0  0  0
    1.0536    0.4341   -0.2416 C   0  0  0  0  0  0  0  0  0  0  0  0
    1.5337    1.6502    0.4320 C   0  0  0  0  0  0  0  0  0  0  0  0
    1.3182    2.7771    0.0964 O   0  0  0  0  0  0  0  0  0  0  0  0
   -2.2150    0.3725    0.8192 H   0  0  0  0  0  0  0  0  0  0  0  0
   -0.9630    1.4429    1.4848 H   0  0  0  0  0  0  0  0  0  0  0  0
   -0.7843   -0.3108    1.7072 H   0  0  0  0  0  0  0  0  0  0  0  0
   -1.8711    0.9248   -1.5594 H   0  0  0  0  0  0  0  0  0  0  0  0
   -1.5378   -1.5422   -0.3499 H   0  0  0  0  0  0  0  0  0  0  0  0
   -0.4339   -1.2397   -1.7945 H   0  0  0  0  0  0  0  0  0  0  0  0
    0.2664   -2.2722    0.9431 H   0  0  0  0  0  0  0  0  0  0  0  0
    1.0801   -2.5082   -0.6592 H   0  0  0  0  0  0  0  0  0  0  0  0
    1.4450    0.4446   -1.2837 H   0  0  0  0  0  0  0  0  0  0  0  0
    2.1489    1.5030    1.3291 H   0  0  0  0  0  0  0  0  0  0  0  0
  1  2  1  0
  2  3  1  0
  2  4  1  0
  4  5  1  0
  5  6  1  0
  6  7  1  0
  7  8  1  0
  8  9  2  0
  7  2  1  0
  1 10  1  0
  1 11  1  0
  1 12  1  0
  3 13  1  0
  4 14  1  0
  4 15  1  0
  5 16  1  0
  5 17  1  0
  7 18  1  0
  8 19  1  0
M  END
