
     RDKit          3D

 17 17  0  0  0  0  0  0  0  0999 V2000
   -0.4452    1.5136    0.6566 C   0  0  0  0  0  0  0  0  0  0  0  0
    0.0504    0.2863   -0.0592 C   0  0  0  0  0  0  0  0  0  0  0  0
   -1.0867   -0.3553   -0.8479 C   0  0  0  0  0  0  0  0  0  0  0  0
   -2.1306   -0.6630   -0.0142 O   0  0  0  0  0  0  0  0  0  0  0  0
    0.6922   -0.6924    0.8922 C   0  0  0  0  0  0  0  0  0  0  0  0
    1.8732   -1.1568    0.2768 O   0  0  0  0  0  0  0  0  0  0  0  0
    2.0693   -0.3992   -0.8513 C   0  0  0  0  0  0  0  0  0  0  0  0
    2.9917   -0.5750   -1.6799 O   0  0  0  0  0  0  0  0  0  0  0  0
    1.1080    0.5891   -0.9518 O   0  0  0  0  0  0  0  0  0  0  0  0
   -0.0411    1.5907    1.6952 H   0  0  0  0  0  0  0  0  0  0  0  0
   -1.5534    1.4753    0.7391 H   0  0  0  0  0  0  0  0  0  0  0  0
   -0.1127    2.4028    0.0722 H   0  0  0  0  0  0  0  0  0  0  0  0
   -0.7402   -1.1604   -1.4947 H   0  0  0  0  0  0  0  0  0  0  0  0
   -1.4519    0.4612   -1.5367 H   0  0  0  0  0  0  0  0  0  0  0  0
   -2.2364   -1.6339    0.1539 H   0  0  0  0  0  0  0  0  0  0  0  0
    0.0123   -1.5346    1.1379 H   0  0  0  0  0  0  0  0  0  0  0  0
    1.0011   -0.1486    1.8118 H   0  0  0  0  0  0  0  0  0  0  0  0
  1  2  1  0
  2  3  1  0
  3  4  1  0
  2  5  1  0
  5  6  1  0
  6  7  1  0
  7  8  2  0
  7  9  1  0
  9  2  1  0
  1 10  1  0
  1 11  1  0
  1 12  1  0
  3 13  1  0
  3 14  1  0
  4 15  1  0
  5 16  1  0
  5 17  1  0
M  END
