
     RDKit          3D

 19 20  0  0  0  0  0  0  0  0999 V2000
    2.4058    0.0818   -0.4864 C   0  0  0  0  0  0  0  0  0  0  0  0
    1.0486   -0.1047    0.0549 C   0  0  0  0  0  0  0  0  0  0  0  0
    0.9164   -0.8589    1.2184 O   0  0  0  0  0  0  0  0  0  0  0  0
   -0.0126   -0.5860   -0.9468 C   0  0  0  0  0  0  0  0  0  0  0  0
   -0.9231    0.2477   -0.1505 C   0  0  0  0  0  0  0  0  0  0  0  0
   -1.8681   -0.2413    0.8491 C   0  0  0  0  0  0  0  0  0  0  0  0
   -2.2716    0.6163   -0.3809 C   0  0  0  0  0  0  0  0  0  0  0  0
    0.2046    1.1429    0.1675 C   0  0  0  0  0  0  0  0  0  0  0  0
    0.3366    2.3124    0.3993 O   0  0  0  0  0  0  0  0  0  0  0  0
    2.5906   -0.3012   -1.4916 H   0  0  0  0  0  0  0  0  0  0  0  0
    3.1231   -0.4695    0.1907 H   0  0  0  0  0  0  0  0  0  0  0  0
    2.7138    1.1564   -0.3845 H   0  0  0  0  0  0  0  0  0  0  0  0
    1.3312   -1.7301    1.0431 H   0  0  0  0  0  0  0  0  0  0  0  0
   -0.2270   -1.6590   -0.8766 H   0  0  0  0  0  0  0  0  0  0  0  0
    0.1973   -0.2819   -1.9909 H   0  0  0  0  0  0  0  0  0  0  0  0
   -2.1256   -1.3046    0.8292 H   0  0  0  0  0  0  0  0  0  0  0  0
   -1.8710    0.2580    1.8296 H   0  0  0  0  0  0  0  0  0  0  0  0
   -2.9064    0.1018   -1.1337 H   0  0  0  0  0  0  0  0  0  0  0  0
   -2.6628    1.6198   -0.0943 H   0  0  0  0  0  0  0  0  0  0  0  0
  1  2  1  0
  2  3  1  0
  2  4  1  0
  4  5  1  0
  5  6  1  0
  6  7  1  0
  5  8  1  0
  8  9  2  0
  8  2  1  0
  7  5  1  0
  1 10  1  0
  1 11  1  0
  1 12  1  0
  3 13  1  0
  4 14  1  0
  4 15  1  0
  6 16  1  0
  6 17  1  0
  7 18  1  0
  7 19  1  0
M  END
