
     RDKit          3D

 17 18  0  0  0  0  0  0  0  0999 V2000
    0.5356   -1.4856    0.4375 C   0  0  0  0  0  0  0  0  0  0  0  0
    0.0393   -0.0870    0.3191 C   0  0  0  0  0  0  0  0  0  0  0  0
    0.9548    0.9395    0.6524 O   0  0  0  0  0  0  0  0  0  0  0  0
    2.1357    1.0765   -0.0268 C   0  0  0  0  0  0  0  0  0  0  0  0
    2.4454    0.3051   -0.9594 O   0  0  0  0  0  0  0  0  0  0  0  0
   -0.5924    0.2370   -1.0399 C   0  0  0  0  0  0  0  0  0  0  0  0
   -1.8052    0.7522   -0.3355 C   0  0  0  0  0  0  0  0  0  0  0  0
   -1.7176    1.5018    0.8089 O   0  0  0  0  0  0  0  0  0  0  0  0
   -1.3188    0.1986    0.9164 C   0  0  0  0  0  0  0  0  0  0  0  0
    0.3479   -1.8875    1.4727 H   0  0  0  0  0  0  0  0  0  0  0  0
   -0.0090   -2.1486   -0.2732 H   0  0  0  0  0  0  0  0  0  0  0  0
    1.6076   -1.5145    0.2448 H   0  0  0  0  0  0  0  0  0  0  0  0
    2.8239    1.8833    0.2567 H   0  0  0  0  0  0  0  0  0  0  0  0
   -0.0138    0.9653   -1.6349 H   0  0  0  0  0  0  0  0  0  0  0  0
   -0.8352   -0.7169   -1.5641 H   0  0  0  0  0  0  0  0  0  0  0  0
   -2.7685    0.5185   -0.8017 H   0  0  0  0  0  0  0  0  0  0  0  0
   -1.8297   -0.5377    1.5268 H   0  0  0  0  0  0  0  0  0  0  0  0
  1  2  1  0
  2  3  1  0
  3  4  1  0
  4  5  2  0
  2  6  1  0
  6  7  1  0
  7  8  1  0
  8  9  1  0
  9  2  1  0
  9  7  1  0
  1 10  1  0
  1 11  1  0
  1 12  1  0
  4 13  1  0
  6 14  1  0
  6 15  1  0
  7 16  1  0
  9 17  1  0
M  END
