
     RDKit          3D

 19 20  0  0  0  0  0  0  0  0999 V2000
   -2.0163   -1.1150   -0.0135 C   0  0  0  0  0  0  0  0  0  0  0  0
   -1.1227    0.0603    0.2907 C   0  0  0  0  0  0  0  0  0  0  0  0
    0.3465   -0.2555    0.4143 C   0  0  0  0  0  0  0  0  0  0  0  0
    1.1657    0.9701    0.3642 C   0  0  0  0  0  0  0  0  0  0  0  0
    2.3197    0.6131   -0.2288 C   0  0  0  0  0  0  0  0  0  0  0  0
    2.1887   -0.8356   -0.5348 C   0  0  0  0  0  0  0  0  0  0  0  0
    0.8147   -0.9791   -0.6818 O   0  0  0  0  0  0  0  0  0  0  0  0
   -1.6139    1.3782    0.1583 C   0  0  0  0  0  0  0  0  0  0  0  0
   -1.5232    0.8243    1.4920 O   0  0  0  0  0  0  0  0  0  0  0  0
   -2.6688   -1.3647    0.8529 H   0  0  0  0  0  0  0  0  0  0  0  0
   -1.4334   -2.0410   -0.2230 H   0  0  0  0  0  0  0  0  0  0  0  0
   -2.6723   -0.9422   -0.8977 H   0  0  0  0  0  0  0  0  0  0  0  0
    0.5709   -0.8424    1.3475 H   0  0  0  0  0  0  0  0  0  0  0  0
    0.9034    1.9388    0.7217 H   0  0  0  0  0  0  0  0  0  0  0  0
    3.1381    1.3000   -0.4136 H   0  0  0  0  0  0  0  0  0  0  0  0
    2.7574   -1.1292   -1.4340 H   0  0  0  0  0  0  0  0  0  0  0  0
    2.5043   -1.4198    0.3727 H   0  0  0  0  0  0  0  0  0  0  0  0
   -2.6788    1.5516   -0.1039 H   0  0  0  0  0  0  0  0  0  0  0  0
   -0.9802    2.2883    0.0235 H   0  0  0  0  0  0  0  0  0  0  0  0
  1  2  1  0
  2  3  1  0
  3  4  1  0
  4  5  2  0
  5  6  1  0
  6  7  1  0
  2  8  1  0
  8  9  1  0
  9  2  1  0
  7  3  1  0
  1 10  1  0
  1 11  1  0
  1 12  1  0
  3 13  1  0
  4 14  1  0
  5 15  1  0
  6 16  1  0
  6 17  1  0
  8 18  1  0
  8 19  1  0
M  END
