
     RDKit          3D

 23 24  0  0  0  0  0  0  0  0999 V2000
   -1.4349   -0.4657    1.3753 C   0  0  0  0  0  0  0  0  0  0  0  0
   -0.7421   -0.0601    0.1061 C   0  0  0  0  0  0  0  0  0  0  0  0
   -1.8223   -0.0159   -0.9844 C   0  0  0  0  0  0  0  0  0  0  0  0
   -0.2837    1.3778    0.2832 C   0  0  0  0  0  0  0  0  0  0  0  0
    1.0354    1.3446    0.7366 O   0  0  0  0  0  0  0  0  0  0  0  0
    1.8238    1.0437   -0.3871 C   0  0  0  0  0  0  0  0  0  0  0  0
    1.6000   -0.3907   -0.7411 C   0  0  0  0  0  0  0  0  0  0  0  0
    1.5158   -1.3135    0.4721 C   0  0  0  0  0  0  0  0  0  0  0  0
    0.3276   -0.9784   -0.3410 C   0  0  0  0  0  0  0  0  0  0  0  0
   -0.8627   -0.1341    2.2524 H   0  0  0  0  0  0  0  0  0  0  0  0
   -2.3990    0.1227    1.4067 H   0  0  0  0  0  0  0  0  0  0  0  0
   -1.7352   -1.5206    1.4097 H   0  0  0  0  0  0  0  0  0  0  0  0
   -1.2497   -0.0234   -1.9465 H   0  0  0  0  0  0  0  0  0  0  0  0
   -2.3548    0.9430   -0.9305 H   0  0  0  0  0  0  0  0  0  0  0  0
   -2.4876   -0.8983   -0.9271 H   0  0  0  0  0  0  0  0  0  0  0  0
   -0.9506    1.9379    0.9501 H   0  0  0  0  0  0  0  0  0  0  0  0
   -0.2977    1.8642   -0.7167 H   0  0  0  0  0  0  0  0  0  0  0  0
    1.6255    1.7576   -1.1865 H   0  0  0  0  0  0  0  0  0  0  0  0
    2.8875    1.1229   -0.0166 H   0  0  0  0  0  0  0  0  0  0  0  0
    2.1644   -0.7333   -1.6301 H   0  0  0  0  0  0  0  0  0  0  0  0
    1.6447   -0.8855    1.4788 H   0  0  0  0  0  0  0  0  0  0  0  0
    2.0356   -2.2657    0.3239 H   0  0  0  0  0  0  0  0  0  0  0  0
   -0.0403   -1.8292   -0.9875 H   0  0  0  0  0  0  0  0  0  0  0  0
  1  2  1  0
  2  3  1  0
  2  4  1  0
  4  5  1  0
  5  6  1  0
  6  7  1  0
  7  8  1  0
  8  9  1  0
  9  2  1  0
  9  7  1  0
  1 10  1  0
  1 11  1  0
  1 12  1  0
  3 13  1  0
  3 14  1  0
  3 15  1  0
  4 16  1  0
  4 17  1  0
  6 18  1  0
  6 19  1  0
  7 20  1  0
  8 21  1  0
  8 22  1  0
  9 23  1  0
M  END
