
     RDKit          3D

 19 20  0  0  0  0  0  0  0  0999 V2000
    1.7852    0.1705   -0.6722 C   0  0  0  0  0  0  0  0  0  0  0  0
    0.6756   -0.5488    0.0420 C   0  0  0  0  0  0  0  0  0  0  0  0
    1.0333   -1.8750    0.3289 O   0  0  0  0  0  0  0  0  0  0  0  0
    0.1528    0.2210    1.2455 C   0  0  0  0  0  0  0  0  0  0  0  0
   -1.2084    0.2117    0.6279 C   0  0  0  0  0  0  0  0  0  0  0  0
   -1.3883    0.8107   -0.7645 C   0  0  0  0  0  0  0  0  0  0  0  0
   -0.7692    2.0403   -0.9009 O   0  0  0  0  0  0  0  0  0  0  0  0
   -0.6594   -0.4455   -0.5936 C   0  0  0  0  0  0  0  0  0  0  0  0
   -1.2739   -1.6239   -1.0213 O   0  0  0  0  0  0  0  0  0  0  0  0
    2.4210   -0.5319   -1.2635 H   0  0  0  0  0  0  0  0  0  0  0  0
    1.3770    0.9614   -1.3372 H   0  0  0  0  0  0  0  0  0  0  0  0
    2.4207    0.6901    0.0889 H   0  0  0  0  0  0  0  0  0  0  0  0
    1.7462   -1.9270    1.0200 H   0  0  0  0  0  0  0  0  0  0  0  0
    0.1988   -0.4158    2.1342 H   0  0  0  0  0  0  0  0  0  0  0  0
    0.5959    1.2269    1.3151 H   0  0  0  0  0  0  0  0  0  0  0  0
   -2.0837   -0.1869    1.1576 H   0  0  0  0  0  0  0  0  0  0  0  0
   -2.4246    0.7419   -1.1326 H   0  0  0  0  0  0  0  0  0  0  0  0
   -0.9876    2.5522   -0.0572 H   0  0  0  0  0  0  0  0  0  0  0  0
   -1.6114   -2.0719   -0.2171 H   0  0  0  0  0  0  0  0  0  0  0  0
  1  2  1  0
  2  3  1  0
  2  4  1  0
  4  5  1  0
  5  6  1  0
  6  7  1  0
  6  8  1  0
  8  9  1  0
  8  2  1  0
  8  5  1  0
  1 10  1  0
  1 11  1  0
  1 12  1  0
  3 13  1  0
  4 14  1  0
  4 15  1  0
  5 16  1  0
  6 17  1  0
  7 18  1  0
  9 19  1  0
M  END
