
     RDKit          3D

 19 20  0  0  0  0  0  0  0  0999 V2000
   -1.5575   -0.1500   -0.9648 C   0  0  0  0  0  0  0  0  0  0  0  0
   -0.8053    0.1314    0.3433 C   0  0  0  0  0  0  0  0  0  0  0  0
   -1.4697   -0.5140    1.4768 C   0  0  0  0  0  0  0  0  0  0  0  0
   -1.9081    0.0630    2.4570 O   0  0  0  0  0  0  0  0  0  0  0  0
   -0.7042    1.5297    0.4721 O   0  0  0  0  0  0  0  0  0  0  0  0
    0.5578    1.3880   -0.1490 C   0  0  0  0  0  0  0  0  0  0  0  0
    1.6326    0.9571    0.7610 C   0  0  0  0  0  0  0  0  0  0  0  0
    0.6694   -0.0225    0.2306 C   0  0  0  0  0  0  0  0  0  0  0  0
    1.2083   -1.0831   -0.6702 C   0  0  0  0  0  0  0  0  0  0  0  0
   -1.0101    0.4655   -1.7351 H   0  0  0  0  0  0  0  0  0  0  0  0
   -2.5712    0.3061   -0.9115 H   0  0  0  0  0  0  0  0  0  0  0  0
   -1.5770   -1.2130   -1.2082 H   0  0  0  0  0  0  0  0  0  0  0  0
   -1.5894   -1.5917    1.4586 H   0  0  0  0  0  0  0  0  0  0  0  0
    0.7134    1.7870   -1.1478 H   0  0  0  0  0  0  0  0  0  0  0  0
    2.6552    0.9552    0.3203 H   0  0  0  0  0  0  0  0  0  0  0  0
    1.6322    1.2227    1.8280 H   0  0  0  0  0  0  0  0  0  0  0  0
    2.0625   -0.7421   -1.2854 H   0  0  0  0  0  0  0  0  0  0  0  0
    0.4275   -1.5989   -1.2703 H   0  0  0  0  0  0  0  0  0  0  0  0
    1.6336   -1.8902   -0.0052 H   0  0  0  0  0  0  0  0  0  0  0  0
  1  2  1  0
  2  3  1  0
  3  4  2  0
  2  5  1  0
  5  6  1  0
  6  7  1  0
  7  8  1  0
  8  9  1  0
  8  2  1  0
  8  6  1  0
  1 10  1  0
  1 11  1  0
  1 12  1  0
  3 13  1  0
  6 14  1  0
  7 15  1  0
  7 16  1  0
  9 17  1  0
  9 18  1  0
  9 19  1  0
M  END
