
     RDKit          3D

 23 23  0  0  0  0  0  0  0  0999 V2000
   -1.9113    0.8583   -0.9721 C   0  0  0  0  0  0  0  0  0  0  0  0
   -0.9138    0.1250   -0.0713 C   0  0  0  0  0  0  0  0  0  0  0  0
   -1.7141   -0.4912    1.0803 C   0  0  0  0  0  0  0  0  0  0  0  0
    0.0609    1.1636    0.4361 C   0  0  0  0  0  0  0  0  0  0  0  0
    1.3363    0.5830    0.9507 C   0  0  0  0  0  0  0  0  0  0  0  0
    1.8748   -0.3692   -0.1172 C   0  0  0  0  0  0  0  0  0  0  0  0
    3.0638   -0.9669    0.3281 O   0  0  0  0  0  0  0  0  0  0  0  0
    0.7850   -1.4356   -0.2861 C   0  0  0  0  0  0  0  0  0  0  0  0
   -0.3107   -0.8347   -0.8423 O   0  0  0  0  0  0  0  0  0  0  0  0
   -2.9559    0.7370   -0.5946 H   0  0  0  0  0  0  0  0  0  0  0  0
   -1.7217    1.9417   -1.0029 H   0  0  0  0  0  0  0  0  0  0  0  0
   -1.9070    0.4722   -1.9980 H   0  0  0  0  0  0  0  0  0  0  0  0
   -1.3539   -0.1546    2.0609 H   0  0  0  0  0  0  0  0  0  0  0  0
   -2.7902   -0.1903    1.0238 H   0  0  0  0  0  0  0  0  0  0  0  0
   -1.7179   -1.5997    0.9646 H   0  0  0  0  0  0  0  0  0  0  0  0
    0.3194    1.7991   -0.4597 H   0  0  0  0  0  0  0  0  0  0  0  0
   -0.3928    1.7696    1.2304 H   0  0  0  0  0  0  0  0  0  0  0  0
    1.1991   -0.0149    1.8629 H   0  0  0  0  0  0  0  0  0  0  0  0
    2.0706    1.3798    1.0871 H   0  0  0  0  0  0  0  0  0  0  0  0
    2.0449    0.1709   -1.0805 H   0  0  0  0  0  0  0  0  0  0  0  0
    3.1424   -0.9055    1.3241 H   0  0  0  0  0  0  0  0  0  0  0  0
    0.6008   -1.8750    0.7022 H   0  0  0  0  0  0  0  0  0  0  0  0
    1.1911   -2.1625   -1.0064 H   0  0  0  0  0  0  0  0  0  0  0  0
  1  2  1  0
  2  3  1  0
  2  4  1  0
  4  5  1  0
  5  6  1  0
  6  7  1  0
  6  8  1  0
  8  9  1  0
  9  2  1  0
  1 10  1  0
  1 11  1  0
  1 12  1  0
  3 13  1  0
  3 14  1  0
  3 15  1  0
  4 16  1  0
  4 17  1  0
  5 18  1  0
  5 19  1  0
  6 20  1  0
  7 21  1  0
  8 22  1  0
  8 23  1  0
M  END
