
     RDKit          3D

 18 18  0  0  0  0  0  0  0  0999 V2000
   -1.2600   -1.0189   -0.2317 C   0  0  0  0  0  0  0  0  0  0  0  0
   -0.4782    0.2149    0.0841 C   0  0  0  0  0  0  0  0  0  0  0  0
   -1.1471    1.4544   -0.4321 C   0  0  0  0  0  0  0  0  0  0  0  0
   -0.2751    0.3127    1.4704 O   0  0  0  0  0  0  0  0  0  0  0  0
    1.1173    0.2009    1.4109 C   0  0  0  0  0  0  0  0  0  0  0  0
    1.0055    0.1314   -0.0847 C   0  0  0  0  0  0  0  0  0  0  0  0
    1.5396   -1.0745   -0.7290 C   0  0  0  0  0  0  0  0  0  0  0  0
    1.2368   -1.3579   -1.8619 O   0  0  0  0  0  0  0  0  0  0  0  0
   -2.3292   -0.8063    0.0200 H   0  0  0  0  0  0  0  0  0  0  0  0
   -0.9207   -1.8376    0.4483 H   0  0  0  0  0  0  0  0  0  0  0  0
   -1.1827   -1.3033   -1.3055 H   0  0  0  0  0  0  0  0  0  0  0  0
   -2.2458    1.2712   -0.4151 H   0  0  0  0  0  0  0  0  0  0  0  0
   -0.8519    1.7085   -1.4742 H   0  0  0  0  0  0  0  0  0  0  0  0
   -0.9713    2.3463    0.1924 H   0  0  0  0  0  0  0  0  0  0  0  0
    1.5430   -0.7118    1.8472 H   0  0  0  0  0  0  0  0  0  0  0  0
    1.5619    1.1432    1.8086 H   0  0  0  0  0  0  0  0  0  0  0  0
    1.4484    1.0496   -0.5492 H   0  0  0  0  0  0  0  0  0  0  0  0
    2.2094   -1.7229   -0.1985 H   0  0  0  0  0  0  0  0  0  0  0  0
  1  2  1  0
  2  3  1  0
  2  4  1  0
  4  5  1  0
  5  6  1  0
  6  7  1  0
  7  8  2  0
  6  2  1  0
  1  9  1  0
  1 10  1  0
  1 11  1  0
  3 12  1  0
  3 13  1  0
  3 14  1  0
  5 15  1  0
  5 16  1  0
  6 17  1  0
  7 18  1  0
M  END
