
     RDKit          3D

 25 25  0  0  0  0  0  0  0  0999 V2000
    1.3265   -0.2576    1.3637 C   0  0  0  0  0  0  0  0  0  0  0  0
    0.7929   -0.1204   -0.0546 C   0  0  0  0  0  0  0  0  0  0  0  0
    1.5709   -1.0608   -0.9297 C   0  0  0  0  0  0  0  0  0  0  0  0
    0.9616    1.3278   -0.5021 C   0  0  0  0  0  0  0  0  0  0  0  0
   -0.5246    1.4125   -0.6366 C   0  0  0  0  0  0  0  0  0  0  0  0
   -0.6667   -0.0497   -0.2127 C   0  0  0  0  0  0  0  0  0  0  0  0
   -1.3336   -0.8287   -1.2881 C   0  0  0  0  0  0  0  0  0  0  0  0
   -1.4881   -0.1888    1.0757 C   0  0  0  0  0  0  0  0  0  0  0  0
   -1.1960    0.7892    1.9898 O   0  0  0  0  0  0  0  0  0  0  0  0
    1.0378   -1.1988    1.8410 H   0  0  0  0  0  0  0  0  0  0  0  0
    1.1365    0.6452    1.9730 H   0  0  0  0  0  0  0  0  0  0  0  0
    2.4506   -0.3030    1.2575 H   0  0  0  0  0  0  0  0  0  0  0  0
    1.5191   -2.0672   -0.4551 H   0  0  0  0  0  0  0  0  0  0  0  0
    2.6463   -0.7174   -0.8795 H   0  0  0  0  0  0  0  0  0  0  0  0
    1.2955   -1.0562   -1.9758 H   0  0  0  0  0  0  0  0  0  0  0  0
    1.5444    1.4137   -1.4336 H   0  0  0  0  0  0  0  0  0  0  0  0
    1.3467    2.0136    0.2616 H   0  0  0  0  0  0  0  0  0  0  0  0
   -0.8110    1.6102   -1.6887 H   0  0  0  0  0  0  0  0  0  0  0  0
   -0.9952    2.1313    0.0737 H   0  0  0  0  0  0  0  0  0  0  0  0
   -2.2215   -0.2239   -1.6375 H   0  0  0  0  0  0  0  0  0  0  0  0
   -0.7399   -1.0492   -2.1644 H   0  0  0  0  0  0  0  0  0  0  0  0
   -1.7956   -1.7606   -0.8588 H   0  0  0  0  0  0  0  0  0  0  0  0
   -1.3361   -1.2099    1.4421 H   0  0  0  0  0  0  0  0  0  0  0  0
   -2.5641   -0.0986    0.8130 H   0  0  0  0  0  0  0  0  0  0  0  0
   -1.9565    0.8473    2.6263 H   0  0  0  0  0  0  0  0  0  0  0  0
  1  2  1  0
  2  3  1  0
  2  4  1  0
  4  5  1  0
  5  6  1  0
  6  7  1  0
  6  8  1  0
  8  9  1  0
  6  2  1  0
  1 10  1  0
  1 11  1  0
  1 12  1  0
  3 13  1  0
  3 14  1  0
  3 15  1  0
  4 16  1  0
  4 17  1  0
  5 18  1  0
  5 19  1  0
  7 20  1  0
  7 21  1  0
  7 22  1  0
  8 23  1  0
  8 24  1  0
  9 25  1  0
M  END
