
     RDKit          3D

 19 19  0  0  0  0  0  0  0  0999 V2000
   -0.7654   -1.7098   -1.8107 C   0  0  0  0  0  0  0  0  0  0  0  0
   -0.5305   -0.5564   -0.8701 C   0  0  0  0  0  0  0  0  0  0  0  0
   -1.4494   -0.4873    0.3128 C   0  0  0  0  0  0  0  0  0  0  0  0
   -0.1369    0.7281   -1.5686 C   0  0  0  0  0  0  0  0  0  0  0  0
    0.8478   -0.0457   -0.6523 C   0  0  0  0  0  0  0  0  0  0  0  0
    1.1637    0.5846    0.6375 C   0  0  0  0  0  0  0  0  0  0  0  0
    1.4458    1.1034    1.7009 C   0  0  0  0  0  0  0  0  0  0  0  0
    1.8016    1.7143    2.9451 C   0  0  0  0  0  0  0  0  0  0  0  0
    1.1627    2.7002    3.3831 O   0  0  0  0  0  0  0  0  0  0  0  0
   -1.2407   -1.2845   -2.7250 H   0  0  0  0  0  0  0  0  0  0  0  0
    0.2176   -2.1249   -2.1657 H   0  0  0  0  0  0  0  0  0  0  0  0
   -1.4184   -2.4895   -1.3891 H   0  0  0  0  0  0  0  0  0  0  0  0
   -1.0259   -1.0180    1.2108 H   0  0  0  0  0  0  0  0  0  0  0  0
   -2.4042   -0.9892    0.0555 H   0  0  0  0  0  0  0  0  0  0  0  0
   -1.5845    0.5642    0.6409 H   0  0  0  0  0  0  0  0  0  0  0  0
    0.0617    0.7317   -2.6382 H   0  0  0  0  0  0  0  0  0  0  0  0
   -0.4902    1.7017   -1.1218 H   0  0  0  0  0  0  0  0  0  0  0  0
    1.7228   -0.4694   -1.1551 H   0  0  0  0  0  0  0  0  0  0  0  0
    2.6225    1.3464    3.5357 H   0  0  0  0  0  0  0  0  0  0  0  0
  1  2  1  0
  2  3  1  0
  2  4  1  0
  4  5  1  0
  5  6  1  0
  6  7  3  0
  7  8  1  0
  8  9  2  0
  5  2  1  0
  1 10  1  0
  1 11  1  0
  1 12  1  0
  3 13  1  0
  3 14  1  0
  3 15  1  0
  4 16  1  0
  4 17  1  0
  5 18  1  0
  8 19  1  0
M  END
