
     RDKit          3D

 20 21  0  0  0  0  0  0  0  0999 V2000
    2.1158    0.7877    0.5744 C   0  0  0  0  0  0  0  0  0  0  0  0
    1.1698   -0.3130    0.1790 C   0  0  0  0  0  0  0  0  0  0  0  0
    1.6627   -1.5928    0.4440 O   0  0  0  0  0  0  0  0  0  0  0  0
    0.5584   -0.1132   -1.2281 C   0  0  0  0  0  0  0  0  0  0  0  0
   -0.2164   -0.0999    0.0024 C   0  0  0  0  0  0  0  0  0  0  0  0
   -1.3400   -1.0462    0.1560 C   0  0  0  0  0  0  0  0  0  0  0  0
   -2.2679    0.1697    0.0037 C   0  0  0  0  0  0  0  0  0  0  0  0
   -1.0691    1.0135    0.4664 C   0  0  0  0  0  0  0  0  0  0  0  0
    1.7412    1.7385    0.1003 H   0  0  0  0  0  0  0  0  0  0  0  0
    3.0813    0.5816    0.0258 H   0  0  0  0  0  0  0  0  0  0  0  0
    2.2557    0.8728    1.6544 H   0  0  0  0  0  0  0  0  0  0  0  0
    1.6155   -2.1959   -0.3221 H   0  0  0  0  0  0  0  0  0  0  0  0
    0.7415    0.8375   -1.7359 H   0  0  0  0  0  0  0  0  0  0  0  0
    0.5390   -0.9982   -1.8951 H   0  0  0  0  0  0  0  0  0  0  0  0
   -1.4134   -1.7473   -0.6766 H   0  0  0  0  0  0  0  0  0  0  0  0
   -1.4121   -1.5114    1.1643 H   0  0  0  0  0  0  0  0  0  0  0  0
   -3.1249    0.1824    0.6693 H   0  0  0  0  0  0  0  0  0  0  0  0
   -2.4556    0.3329   -1.0680 H   0  0  0  0  0  0  0  0  0  0  0  0
   -1.1335    1.1449    1.5768 H   0  0  0  0  0  0  0  0  0  0  0  0
   -1.0479    1.9564   -0.0908 H   0  0  0  0  0  0  0  0  0  0  0  0
  1  2  1  0
  2  3  1  0
  2  4  1  0
  4  5  1  0
  5  6  1  0
  6  7  1  0
  7  8  1  0
  5  2  1  0
  8  5  1  0
  1  9  1  0
  1 10  1  0
  1 11  1  0
  3 12  1  0
  4 13  1  0
  4 14  1  0
  6 15  1  0
  6 16  1  0
  7 17  1  0
  7 18  1  0
  8 19  1  0
  8 20  1  0
M  END
