
     RDKit          3D

 21 22  0  0  0  0  0  0  0  0999 V2000
   -1.3182    1.5709    0.0179 C   0  0  0  0  0  0  0  0  0  0  0  0
   -0.7964    0.2177    0.2059 C   0  0  0  0  0  0  0  0  0  0  0  0
   -1.8938   -0.8342    0.0592 C   0  0  0  0  0  0  0  0  0  0  0  0
   -0.0149   -0.0607    1.3558 O   0  0  0  0  0  0  0  0  0  0  0  0
    0.9326    0.7277    0.7348 C   0  0  0  0  0  0  0  0  0  0  0  0
    1.7576    0.4763   -0.4108 C   0  0  0  0  0  0  0  0  0  0  0  0
    2.9899   -0.1664   -0.1295 O   0  0  0  0  0  0  0  0  0  0  0  0
    0.4928   -0.1847   -0.4753 C   0  0  0  0  0  0  0  0  0  0  0  0
    0.6749   -1.6990   -0.1992 C   0  0  0  0  0  0  0  0  0  0  0  0
   -2.3633    1.5436   -0.4186 H   0  0  0  0  0  0  0  0  0  0  0  0
   -0.7312    2.0952   -0.7931 H   0  0  0  0  0  0  0  0  0  0  0  0
   -1.4278    2.1983    0.9258 H   0  0  0  0  0  0  0  0  0  0  0  0
   -1.7264   -1.7062    0.6973 H   0  0  0  0  0  0  0  0  0  0  0  0
   -2.8659   -0.3829    0.2788 H   0  0  0  0  0  0  0  0  0  0  0  0
   -1.9130   -1.2106   -0.9940 H   0  0  0  0  0  0  0  0  0  0  0  0
    0.5519    1.7757    0.7493 H   0  0  0  0  0  0  0  0  0  0  0  0
    1.9391    1.2517   -1.2152 H   0  0  0  0  0  0  0  0  0  0  0  0
    3.6189    0.5986    0.0710 H   0  0  0  0  0  0  0  0  0  0  0  0
   -0.2113   -2.2571   -0.5528 H   0  0  0  0  0  0  0  0  0  0  0  0
    0.7685   -1.8735    0.8806 H   0  0  0  0  0  0  0  0  0  0  0  0
    1.5360   -2.0804   -0.7881 H   0  0  0  0  0  0  0  0  0  0  0  0
  1  2  1  0
  2  3  1  0
  2  4  1  0
  4  5  1  0
  5  6  1  0
  6  7  1  0
  6  8  1  0
  8  9  1  0
  8  2  1  0
  8  5  1  0
  1 10  1  0
  1 11  1  0
  1 12  1  0
  3 13  1  0
  3 14  1  0
  3 15  1  0
  5 16  1  0
  6 17  1  0
  7 18  1  0
  9 19  1  0
  9 20  1  0
  9 21  1  0
M  END
