
     RDKit          3D

 21 21  0  0  0  0  0  0  0  0999 V2000
   -1.6697   -1.0384   -0.2226 C   0  0  0  0  0  0  0  0  0  0  0  0
   -0.5596   -0.0658    0.1277 C   0  0  0  0  0  0  0  0  0  0  0  0
   -0.8944    1.3654   -0.2227 C   0  0  0  0  0  0  0  0  0  0  0  0
   -2.0380    1.7555    0.4756 O   0  0  0  0  0  0  0  0  0  0  0  0
    0.3268   -0.3847    1.2672 C   0  0  0  0  0  0  0  0  0  0  0  0
   -0.0398   -1.5283    2.0025 O   0  0  0  0  0  0  0  0  0  0  0  0
    0.8390   -0.5708   -0.0841 C   0  0  0  0  0  0  0  0  0  0  0  0
    1.7838    0.3880   -0.7520 C   0  0  0  0  0  0  0  0  0  0  0  0
    3.0505   -0.1206   -0.9232 O   0  0  0  0  0  0  0  0  0  0  0  0
   -2.3739   -1.0224    0.6457 H   0  0  0  0  0  0  0  0  0  0  0  0
   -1.2938   -2.0522   -0.4471 H   0  0  0  0  0  0  0  0  0  0  0  0
   -2.2353   -0.6592   -1.0968 H   0  0  0  0  0  0  0  0  0  0  0  0
   -0.0893    2.0688    0.0732 H   0  0  0  0  0  0  0  0  0  0  0  0
   -1.1469    1.4258   -1.3044 H   0  0  0  0  0  0  0  0  0  0  0  0
   -2.8336    1.3560    0.0597 H   0  0  0  0  0  0  0  0  0  0  0  0
    0.7080    0.4228    1.9477 H   0  0  0  0  0  0  0  0  0  0  0  0
    0.5845   -2.2690    1.8581 H   0  0  0  0  0  0  0  0  0  0  0  0
    0.9627   -1.6283   -0.4350 H   0  0  0  0  0  0  0  0  0  0  0  0
    1.8459    1.3664   -0.2693 H   0  0  0  0  0  0  0  0  0  0  0  0
    1.3705    0.5674   -1.7872 H   0  0  0  0  0  0  0  0  0  0  0  0
    3.7028    0.6234   -0.9129 H   0  0  0  0  0  0  0  0  0  0  0  0
  1  2  1  0
  2  3  1  0
  3  4  1  0
  2  5  1  0
  5  6  1  0
  5  7  1  0
  7  8  1  0
  8  9  1  0
  7  2  1  0
  1 10  1  0
  1 11  1  0
  1 12  1  0
  3 13  1  0
  3 14  1  0
  4 15  1  0
  5 16  1  0
  6 17  1  0
  7 18  1  0
  8 19  1  0
  8 20  1  0
  9 21  1  0
M  END
