
     RDKit          3D

 19 19  0  0  0  0  0  0  0  0999 V2000
   -2.2585   -0.5051   -0.0833 C   0  0  0  0  0  0  0  0  0  0  0  0
   -0.9637    0.2291    0.0191 C   0  0  0  0  0  0  0  0  0  0  0  0
   -1.1465    1.6055   -0.0486 O   0  0  0  0  0  0  0  0  0  0  0  0
    0.1078   -0.2105   -0.9540 C   0  0  0  0  0  0  0  0  0  0  0  0
    1.0572    0.1786    0.1867 C   0  0  0  0  0  0  0  0  0  0  0  0
    2.3104   -0.6040    0.2698 C   0  0  0  0  0  0  0  0  0  0  0  0
    1.2291    1.5806    0.1456 O   0  0  0  0  0  0  0  0  0  0  0  0
   -0.0449   -0.2001    1.1013 C   0  0  0  0  0  0  0  0  0  0  0  0
   -0.1200   -0.6496    2.2130 O   0  0  0  0  0  0  0  0  0  0  0  0
   -2.9889    0.0058    0.5865 H   0  0  0  0  0  0  0  0  0  0  0  0
   -2.2179   -1.5575    0.2169 H   0  0  0  0  0  0  0  0  0  0  0  0
   -2.6359   -0.3638   -1.1319 H   0  0  0  0  0  0  0  0  0  0  0  0
   -1.9662    1.8378    0.4583 H   0  0  0  0  0  0  0  0  0  0  0  0
    0.0851   -1.3144   -1.0855 H   0  0  0  0  0  0  0  0  0  0  0  0
    0.2185    0.3967   -1.8514 H   0  0  0  0  0  0  0  0  0  0  0  0
    3.1545    0.0801   -0.0417 H   0  0  0  0  0  0  0  0  0  0  0  0
    2.3332   -1.4313   -0.4817 H   0  0  0  0  0  0  0  0  0  0  0  0
    2.5806   -0.9454    1.2878 H   0  0  0  0  0  0  0  0  0  0  0  0
    1.2661    1.8675   -0.8068 H   0  0  0  0  0  0  0  0  0  0  0  0
  1  2  1  0
  2  3  1  0
  2  4  1  0
  4  5  1  0
  5  6  1  0
  5  7  1  0
  5  8  1  0
  8  9  2  0
  8  2  1  0
  1 10  1  0
  1 11  1  0
  1 12  1  0
  3 13  1  0
  4 14  1  0
  4 15  1  0
  6 16  1  0
  6 17  1  0
  6 18  1  0
  7 19  1  0
M  END
