
     RDKit          3D

 19 21  0  0  0  0  0  0  0  0999 V2000
    0.2097    1.8266    0.7446 C   0  0  0  0  0  0  0  0  0  0  0  0
   -0.3678    0.7345   -0.1236 C   0  0  0  0  0  0  0  0  0  0  0  0
   -1.0305    1.3250   -1.2231 O   0  0  0  0  0  0  0  0  0  0  0  0
    0.7554   -0.0875   -0.6541 C   0  0  0  0  0  0  0  0  0  0  0  0
    1.5005   -1.0194    0.2718 C   0  0  0  0  0  0  0  0  0  0  0  0
    0.3392   -1.4838   -0.5417 C   0  0  0  0  0  0  0  0  0  0  0  0
   -1.0066   -1.5338    0.1186 C   0  0  0  0  0  0  0  0  0  0  0  0
   -1.0320   -1.1192    1.4393 O   0  0  0  0  0  0  0  0  0  0  0  0
   -1.3458   -0.1379    0.5575 C   0  0  0  0  0  0  0  0  0  0  0  0
   -0.3883    2.7472    0.6352 H   0  0  0  0  0  0  0  0  0  0  0  0
    1.2404    2.0957    0.3825 H   0  0  0  0  0  0  0  0  0  0  0  0
    0.2950    1.5057    1.8024 H   0  0  0  0  0  0  0  0  0  0  0  0
   -0.6216    1.1067   -2.0729 H   0  0  0  0  0  0  0  0  0  0  0  0
    1.2537    0.1988   -1.6167 H   0  0  0  0  0  0  0  0  0  0  0  0
    2.5236   -1.3259    0.0638 H   0  0  0  0  0  0  0  0  0  0  0  0
    1.3484   -0.7335    1.3521 H   0  0  0  0  0  0  0  0  0  0  0  0
    0.5683   -2.1803   -1.3778 H   0  0  0  0  0  0  0  0  0  0  0  0
   -1.8298   -2.1215   -0.3101 H   0  0  0  0  0  0  0  0  0  0  0  0
   -2.4116    0.2027    0.5523 H   0  0  0  0  0  0  0  0  0  0  0  0
  1  2  1  0
  2  3  1  0
  2  4  1  0
  4  5  1  0
  5  6  1  0
  6  7  1  0
  7  8  1  0
  8  9  1  0
  9  2  1  0
  6  4  1  0
  9  7  1  0
  1 10  1  0
  1 11  1  0
  1 12  1  0
  3 13  1  0
  4 14  1  0
  5 15  1  0
  5 16  1  0
  6 17  1  0
  7 18  1  0
  9 19  1  0
M  END
