
     RDKit          3D

 20 20  0  0  0  0  0  0  0  0999 V2000
   -0.8592   -0.7747    1.4487 C   0  0  0  0  0  0  0  0  0  0  0  0
   -0.3783   -0.2208    0.1411 C   0  0  0  0  0  0  0  0  0  0  0  0
   -1.4602    0.6096   -0.5125 C   0  0  0  0  0  0  0  0  0  0  0  0
   -1.7563    1.6553    0.3914 O   0  0  0  0  0  0  0  0  0  0  0  0
    0.9108    0.5421    0.3344 C   0  0  0  0  0  0  0  0  0  0  0  0
    1.4092   -0.0762   -0.9530 C   0  0  0  0  0  0  0  0  0  0  0  0
    2.7099   -0.4989   -0.8324 O   0  0  0  0  0  0  0  0  0  0  0  0
    0.3515   -1.1616   -0.7595 C   0  0  0  0  0  0  0  0  0  0  0  0
   -1.3535    0.0777    1.9917 H   0  0  0  0  0  0  0  0  0  0  0  0
    0.0447   -1.0700    2.0463 H   0  0  0  0  0  0  0  0  0  0  0  0
   -1.5698   -1.6145    1.3475 H   0  0  0  0  0  0  0  0  0  0  0  0
   -1.1759    0.9966   -1.5007 H   0  0  0  0  0  0  0  0  0  0  0  0
   -2.4065    0.0416   -0.6157 H   0  0  0  0  0  0  0  0  0  0  0  0
   -1.8346    2.5130   -0.0916 H   0  0  0  0  0  0  0  0  0  0  0  0
    0.8362    1.6348    0.3264 H   0  0  0  0  0  0  0  0  0  0  0  0
    1.5221    0.2120    1.2099 H   0  0  0  0  0  0  0  0  0  0  0  0
    1.2285    0.5120   -1.8604 H   0  0  0  0  0  0  0  0  0  0  0  0
    3.1957    0.0949   -0.2041 H   0  0  0  0  0  0  0  0  0  0  0  0
   -0.1662   -1.4477   -1.7050 H   0  0  0  0  0  0  0  0  0  0  0  0
    0.7521   -2.0255   -0.2025 H   0  0  0  0  0  0  0  0  0  0  0  0
  1  2  1  0
  2  3  1  0
  3  4  1  0
  2  5  1  0
  5  6  1  0
  6  7  1  0
  6  8  1  0
  8  2  1  0
  1  9  1  0
  1 10  1  0
  1 11  1  0
  3 12  1  0
  3 13  1  0
  4 14  1  0
  5 15  1  0
  5 16  1  0
  6 17  1  0
  7 18  1  0
  8 19  1  0
  8 20  1  0
M  END
