
     RDKit          3D

 21 22  0  0  0  0  0  0  0  0999 V2000
   -2.3937   -1.2108    0.2887 C   0  0  0  0  0  0  0  0  0  0  0  0
   -1.2902   -0.2036    0.0438 C   0  0  0  0  0  0  0  0  0  0  0  0
   -1.7110    1.2287    0.1459 C   0  0  0  0  0  0  0  0  0  0  0  0
   -0.5294   -0.4570   -1.1708 O   0  0  0  0  0  0  0  0  0  0  0  0
    0.0796   -0.6459    0.0583 C   0  0  0  0  0  0  0  0  0  0  0  0
    1.2498    0.2052    0.4199 C   0  0  0  0  0  0  0  0  0  0  0  0
    2.5431   -0.5759    0.3267 C   0  0  0  0  0  0  0  0  0  0  0  0
    2.6591   -0.1748   -1.0162 O   0  0  0  0  0  0  0  0  0  0  0  0
    1.9176    0.9497   -0.6899 C   0  0  0  0  0  0  0  0  0  0  0  0
   -3.0127   -1.2550   -0.6359 H   0  0  0  0  0  0  0  0  0  0  0  0
   -3.0284   -0.7843    1.0996 H   0  0  0  0  0  0  0  0  0  0  0  0
   -2.0009   -2.2047    0.5744 H   0  0  0  0  0  0  0  0  0  0  0  0
   -1.2160    1.7737    0.9804 H   0  0  0  0  0  0  0  0  0  0  0  0
   -1.5420    1.8040   -0.8075 H   0  0  0  0  0  0  0  0  0  0  0  0
   -2.8061    1.3234    0.3382 H   0  0  0  0  0  0  0  0  0  0  0  0
    0.2391   -1.7428    0.2809 H   0  0  0  0  0  0  0  0  0  0  0  0
    1.1882    0.7476    1.3864 H   0  0  0  0  0  0  0  0  0  0  0  0
    3.3684   -0.2067    0.9490 H   0  0  0  0  0  0  0  0  0  0  0  0
    2.4020   -1.6849    0.3335 H   0  0  0  0  0  0  0  0  0  0  0  0
    2.5945    1.7403   -0.2722 H   0  0  0  0  0  0  0  0  0  0  0  0
    1.2887    1.3739   -1.4688 H   0  0  0  0  0  0  0  0  0  0  0  0
  1  2  1  0
  2  3  1  0
  2  4  1  0
  4  5  1  0
  5  6  1  0
  6  7  1  0
  7  8  1  0
  8  9  1  0
  5  2  1  0
  9  6  1  0
  1 10  1  0
  1 11  1  0
  1 12  1  0
  3 13  1  0
  3 14  1  0
  3 15  1  0
  5 16  1  0
  6 17  1  0
  7 18  1  0
  7 19  1  0
  9 20  1  0
  9 21  1  0
M  END
