
     RDKit          3D

 17 17  0  0  0  0  0  0  0  0999 V2000
   -1.7324    0.2593   -0.4441 C   0  0  0  0  0  0  0  0  0  0  0  0
   -0.3859   -0.0223    0.2160 C   0  0  0  0  0  0  0  0  0  0  0  0
   -0.6914   -0.3734    1.5516 O   0  0  0  0  0  0  0  0  0  0  0  0
    0.3117   -1.1748   -0.4082 C   0  0  0  0  0  0  0  0  0  0  0  0
    1.6248   -0.9268   -0.8152 O   0  0  0  0  0  0  0  0  0  0  0  0
    2.3947   -0.0222   -0.1259 C   0  0  0  0  0  0  0  0  0  0  0  0
    3.6379   -0.1510    0.0745 O   0  0  0  0  0  0  0  0  0  0  0  0
    1.7629    1.1042    0.3814 O   0  0  0  0  0  0  0  0  0  0  0  0
    0.3843    1.2541    0.2328 C   0  0  0  0  0  0  0  0  0  0  0  0
   -2.4526    0.6565    0.3281 H   0  0  0  0  0  0  0  0  0  0  0  0
   -1.5955    1.0938   -1.1641 H   0  0  0  0  0  0  0  0  0  0  0  0
   -2.1431   -0.6423   -0.9353 H   0  0  0  0  0  0  0  0  0  0  0  0
   -1.3442   -1.1385    1.4829 H   0  0  0  0  0  0  0  0  0  0  0  0
    0.3383   -2.0743    0.2702 H   0  0  0  0  0  0  0  0  0  0  0  0
   -0.2416   -1.5458   -1.3199 H   0  0  0  0  0  0  0  0  0  0  0  0
    0.0129    1.8501    1.1163 H   0  0  0  0  0  0  0  0  0  0  0  0
    0.1191    1.8534   -0.6557 H   0  0  0  0  0  0  0  0  0  0  0  0
  1  2  1  0
  2  3  1  0
  2  4  1  0
  4  5  1  0
  5  6  1  0
  6  7  2  0
  6  8  1  0
  8  9  1  0
  9  2  1  0
  1 10  1  0
  1 11  1  0
  1 12  1  0
  3 13  1  0
  4 14  1  0
  4 15  1  0
  9 16  1  0
  9 17  1  0
M  END
