
     RDKit          3D

 17 17  0  0  0  0  0  0  0  0999 V2000
   -0.8775   -0.7946    0.9881 C   0  0  0  0  0  0  0  0  0  0  0  0
   -0.5244   -0.1802   -0.3593 C   0  0  0  0  0  0  0  0  0  0  0  0
   -1.1568   -0.7789   -1.4073 O   0  0  0  0  0  0  0  0  0  0  0  0
   -0.8649    1.3108   -0.2307 C   0  0  0  0  0  0  0  0  0  0  0  0
    0.0756    1.6675    0.7791 O   0  0  0  0  0  0  0  0  0  0  0  0
    1.2767    0.9886    0.5140 C   0  0  0  0  0  0  0  0  0  0  0  0
    2.3971    1.2162    1.0148 O   0  0  0  0  0  0  0  0  0  0  0  0
    0.9718   -0.0843   -0.5005 C   0  0  0  0  0  0  0  0  0  0  0  0
    1.6377   -1.2509   -0.2462 O   0  0  0  0  0  0  0  0  0  0  0  0
   -0.4804   -1.8217    1.0209 H   0  0  0  0  0  0  0  0  0  0  0  0
   -0.4045   -0.1292    1.7515 H   0  0  0  0  0  0  0  0  0  0  0  0
   -1.9677   -0.7314    1.1251 H   0  0  0  0  0  0  0  0  0  0  0  0
   -1.3383   -1.7346   -1.1340 H   0  0  0  0  0  0  0  0  0  0  0  0
   -1.8985    1.4683    0.0793 H   0  0  0  0  0  0  0  0  0  0  0  0
   -0.5600    1.8573   -1.1391 H   0  0  0  0  0  0  0  0  0  0  0  0
    1.2266    0.3201   -1.4930 H   0  0  0  0  0  0  0  0  0  0  0  0
    2.4875   -1.3229   -0.7628 H   0  0  0  0  0  0  0  0  0  0  0  0
  1  2  1  0
  2  3  1  0
  2  4  1  0
  4  5  1  0
  5  6  1  0
  6  7  2  0
  6  8  1  0
  8  9  1  0
  8  2  1  0
  1 10  1  0
  1 11  1  0
  1 12  1  0
  3 13  1  0
  4 14  1  0
  4 15  1  0
  8 16  1  0
  9 17  1  0
M  END
