
     RDKit          3D

 23 24  0  0  0  0  0  0  0  0999 V2000
   -1.5753   -1.0513   -0.6549 C   0  0  0  0  0  0  0  0  0  0  0  0
   -0.9547    0.1439   -0.0058 C   0  0  0  0  0  0  0  0  0  0  0  0
   -1.5903    1.4788   -0.4170 C   0  0  0  0  0  0  0  0  0  0  0  0
   -0.4974    0.1201    1.4131 C   0  0  0  0  0  0  0  0  0  0  0  0
   -0.6812   -1.0651    2.1494 O   0  0  0  0  0  0  0  0  0  0  0  0
    0.4459    0.0951    0.3403 C   0  0  0  0  0  0  0  0  0  0  0  0
    1.3873   -1.0195    0.1444 C   0  0  0  0  0  0  0  0  0  0  0  0
    2.1967   -0.0831   -0.7612 C   0  0  0  0  0  0  0  0  0  0  0  0
    1.4641    1.0705   -0.0541 C   0  0  0  0  0  0  0  0  0  0  0  0
   -2.3547   -0.7792   -1.4153 H   0  0  0  0  0  0  0  0  0  0  0  0
   -0.7629   -1.5434   -1.2667 H   0  0  0  0  0  0  0  0  0  0  0  0
   -2.0417   -1.7454    0.0460 H   0  0  0  0  0  0  0  0  0  0  0  0
   -0.9048    2.3112   -0.1058 H   0  0  0  0  0  0  0  0  0  0  0  0
   -1.7445    1.5140   -1.5012 H   0  0  0  0  0  0  0  0  0  0  0  0
   -2.5543    1.5961    0.1407 H   0  0  0  0  0  0  0  0  0  0  0  0
   -0.6297    1.0246    2.0657 H   0  0  0  0  0  0  0  0  0  0  0  0
   -0.6247   -1.8646    1.5831 H   0  0  0  0  0  0  0  0  0  0  0  0
    1.0104   -1.9174   -0.3297 H   0  0  0  0  0  0  0  0  0  0  0  0
    1.9695   -1.2353    1.0792 H   0  0  0  0  0  0  0  0  0  0  0  0
    1.8834   -0.2495   -1.7974 H   0  0  0  0  0  0  0  0  0  0  0  0
    3.2649   -0.1422   -0.5445 H   0  0  0  0  0  0  0  0  0  0  0  0
    1.1828    1.8311   -0.8261 H   0  0  0  0  0  0  0  0  0  0  0  0
    2.1110    1.5105    0.7177 H   0  0  0  0  0  0  0  0  0  0  0  0
  1  2  1  0
  2  3  1  0
  2  4  1  0
  4  5  1  0
  4  6  1  0
  6  7  1  0
  7  8  1  0
  8  9  1  0
  6  2  1  0
  9  6  1  0
  1 10  1  0
  1 11  1  0
  1 12  1  0
  3 13  1  0
  3 14  1  0
  3 15  1  0
  4 16  1  0
  5 17  1  0
  7 18  1  0
  7 19  1  0
  8 20  1  0
  8 21  1  0
  9 22  1  0
  9 23  1  0
M  END
