
     RDKit          3D

 21 23  0  0  0  0  0  0  0  0999 V2000
   -1.5210    1.0276    0.6266 C   0  0  0  0  0  0  0  0  0  0  0  0
   -0.6227    0.0571   -0.0925 C   0  0  0  0  0  0  0  0  0  0  0  0
   -1.4228   -0.9005   -0.9093 C   0  0  0  0  0  0  0  0  0  0  0  0
    0.4075    0.7976   -0.9633 C   0  0  0  0  0  0  0  0  0  0  0  0
    1.6741    0.3530   -0.2947 C   0  0  0  0  0  0  0  0  0  0  0  0
    1.4120    0.2378    1.1726 C   0  0  0  0  0  0  0  0  0  0  0  0
    2.2546   -0.8667    1.1618 O   0  0  0  0  0  0  0  0  0  0  0  0
    1.5094   -1.0913    0.0229 C   0  0  0  0  0  0  0  0  0  0  0  0
    0.3050   -0.6858    0.8234 C   0  0  0  0  0  0  0  0  0  0  0  0
   -1.5394    2.0326    0.1813 H   0  0  0  0  0  0  0  0  0  0  0  0
   -2.5824    0.6779    0.6491 H   0  0  0  0  0  0  0  0  0  0  0  0
   -1.1947    1.0297    1.6978 H   0  0  0  0  0  0  0  0  0  0  0  0
   -1.9159   -1.6184   -0.2343 H   0  0  0  0  0  0  0  0  0  0  0  0
   -2.1830   -0.3270   -1.4832 H   0  0  0  0  0  0  0  0  0  0  0  0
   -0.7809   -1.4606   -1.6278 H   0  0  0  0  0  0  0  0  0  0  0  0
    0.2964    1.8805   -0.8985 H   0  0  0  0  0  0  0  0  0  0  0  0
    0.3986    0.3818   -1.9817 H   0  0  0  0  0  0  0  0  0  0  0  0
    2.6150    0.7288   -0.6403 H   0  0  0  0  0  0  0  0  0  0  0  0
    1.4140    0.9844    1.8507 H   0  0  0  0  0  0  0  0  0  0  0  0
    1.5719   -1.8758   -0.6078 H   0  0  0  0  0  0  0  0  0  0  0  0
   -0.0958   -1.3629    1.5472 H   0  0  0  0  0  0  0  0  0  0  0  0
  1  2  1  0
  2  3  1  0
  2  4  1  0
  4  5  1  0
  5  6  1  0
  6  7  1  0
  7  8  1  0
  8  9  1  0
  9  2  1  0
  8  5  1  0
  9  6  1  0
  1 10  1  0
  1 11  1  0
  1 12  1  0
  3 13  1  0
  3 14  1  0
  3 15  1  0
  4 16  1  0
  4 17  1  0
  5 18  1  0
  6 19  1  0
  8 20  1  0
  9 21  1  0
M  END
