
     RDKit          3D

 19 20  0  0  0  0  0  0  0  0999 V2000
   -1.0313    1.1763    0.6798 C   0  0  0  0  0  0  0  0  0  0  0  0
   -0.6934   -0.0978   -0.0184 C   0  0  0  0  0  0  0  0  0  0  0  0
   -1.9284   -0.9831   -0.2438 C   0  0  0  0  0  0  0  0  0  0  0  0
   -2.3693   -1.4962    0.9977 O   0  0  0  0  0  0  0  0  0  0  0  0
    0.3515   -0.8776    0.5763 O   0  0  0  0  0  0  0  0  0  0  0  0
    0.4515   -0.3587   -0.7984 C   0  0  0  0  0  0  0  0  0  0  0  0
    1.6481    0.4868   -0.9910 C   0  0  0  0  0  0  0  0  0  0  0  0
    2.6413    0.5211    0.1470 C   0  0  0  0  0  0  0  0  0  0  0  0
    1.8540    1.6427   -0.2458 O   0  0  0  0  0  0  0  0  0  0  0  0
   -1.2865    0.9869    1.7601 H   0  0  0  0  0  0  0  0  0  0  0  0
   -0.2711    1.9497    0.6682 H   0  0  0  0  0  0  0  0  0  0  0  0
   -1.9708    1.5707    0.2154 H   0  0  0  0  0  0  0  0  0  0  0  0
   -1.6311   -1.8855   -0.8375 H   0  0  0  0  0  0  0  0  0  0  0  0
   -2.7145   -0.4217   -0.7615 H   0  0  0  0  0  0  0  0  0  0  0  0
   -1.7396   -2.1536    1.3256 H   0  0  0  0  0  0  0  0  0  0  0  0
    0.4093   -1.2202   -1.5316 H   0  0  0  0  0  0  0  0  0  0  0  0
    2.1586    0.4761   -1.9912 H   0  0  0  0  0  0  0  0  0  0  0  0
    3.7193    0.6366   -0.0610 H   0  0  0  0  0  0  0  0  0  0  0  0
    2.4023    0.0472    1.1101 H   0  0  0  0  0  0  0  0  0  0  0  0
  1  2  1  0
  2  3  1  0
  3  4  1  0
  2  5  1  0
  5  6  1  0
  6  7  1  0
  7  8  1  0
  8  9  1  0
  6  2  1  0
  9  7  1  0
  1 10  1  0
  1 11  1  0
  1 12  1  0
  3 13  1  0
  3 14  1  0
  4 15  1  0
  6 16  1  0
  7 17  1  0
  8 18  1  0
  8 19  1  0
M  END
