
     RDKit          3D

 19 19  0  0  0  0  0  0  0  0999 V2000
   -0.5203    1.1415    1.1170 C   0  0  0  0  0  0  0  0  0  0  0  0
   -0.5120    0.0587    0.1059 C   0  0  0  0  0  0  0  0  0  0  0  0
    0.7038   -0.1627   -0.7056 C   0  0  0  0  0  0  0  0  0  0  0  0
    1.9389   -0.4976    0.0596 C   0  0  0  0  0  0  0  0  0  0  0  0
    2.3382    0.4536    0.9597 O   0  0  0  0  0  0  0  0  0  0  0  0
   -1.7470    0.1384   -0.7782 C   0  0  0  0  0  0  0  0  0  0  0  0
   -1.9508   -1.2884   -0.4107 C   0  0  0  0  0  0  0  0  0  0  0  0
   -2.6847   -2.1755   -0.9088 O   0  0  0  0  0  0  0  0  0  0  0  0
   -1.0514   -1.1528    0.6076 O   0  0  0  0  0  0  0  0  0  0  0  0
    0.2868    1.1414    1.8413 H   0  0  0  0  0  0  0  0  0  0  0  0
   -1.4768    1.0632    1.7013 H   0  0  0  0  0  0  0  0  0  0  0  0
   -0.6212    2.1198    0.5653 H   0  0  0  0  0  0  0  0  0  0  0  0
    0.8915    0.7433   -1.3206 H   0  0  0  0  0  0  0  0  0  0  0  0
    0.5089   -0.9869   -1.4217 H   0  0  0  0  0  0  0  0  0  0  0  0
    2.7697   -0.6019   -0.6958 H   0  0  0  0  0  0  0  0  0  0  0  0
    1.8427   -1.5194    0.4974 H   0  0  0  0  0  0  0  0  0  0  0  0
    3.3261    0.4043    1.0588 H   0  0  0  0  0  0  0  0  0  0  0  0
   -1.5016    0.3064   -1.8593 H   0  0  0  0  0  0  0  0  0  0  0  0
   -2.5405    0.8147   -0.4133 H   0  0  0  0  0  0  0  0  0  0  0  0
  1  2  1  0
  2  3  1  0
  3  4  1  0
  4  5  1  0
  2  6  1  0
  6  7  1  0
  7  8  2  0
  7  9  1  0
  9  2  1  0
  1 10  1  0
  1 11  1  0
  1 12  1  0
  3 13  1  0
  3 14  1  0
  4 15  1  0
  4 16  1  0
  5 17  1  0
  6 18  1  0
  6 19  1  0
M  END
