
     RDKit          3D

 19 21  0  0  0  0  0  0  0  0999 V2000
    2.0421   -0.2759   -0.7662 C   0  0  0  0  0  0  0  0  0  0  0  0
    1.1673    0.3987    0.2436 C   0  0  0  0  0  0  0  0  0  0  0  0
    1.9515    1.2248    1.0933 O   0  0  0  0  0  0  0  0  0  0  0  0
   -0.1554    0.9291   -0.0317 C   0  0  0  0  0  0  0  0  0  0  0  0
   -1.1928    0.2532   -0.8765 C   0  0  0  0  0  0  0  0  0  0  0  0
   -2.1609   -0.3917    0.1177 C   0  0  0  0  0  0  0  0  0  0  0  0
   -0.8817   -1.2263    0.2849 C   0  0  0  0  0  0  0  0  0  0  0  0
   -0.7403   -1.0605   -1.0941 O   0  0  0  0  0  0  0  0  0  0  0  0
    0.0753   -0.2797    0.9518 C   0  0  0  0  0  0  0  0  0  0  0  0
    2.5954    0.5006   -1.3478 H   0  0  0  0  0  0  0  0  0  0  0  0
    1.5544   -0.9296   -1.4756 H   0  0  0  0  0  0  0  0  0  0  0  0
    2.7699   -0.9157   -0.1843 H   0  0  0  0  0  0  0  0  0  0  0  0
    1.6465    2.1493    1.0850 H   0  0  0  0  0  0  0  0  0  0  0  0
   -0.5205    1.8573    0.4627 H   0  0  0  0  0  0  0  0  0  0  0  0
   -1.6238    0.7744   -1.7075 H   0  0  0  0  0  0  0  0  0  0  0  0
   -2.4296    0.2151    0.9739 H   0  0  0  0  0  0  0  0  0  0  0  0
   -2.9271   -0.9518   -0.4132 H   0  0  0  0  0  0  0  0  0  0  0  0
   -1.0016   -2.2147    0.6721 H   0  0  0  0  0  0  0  0  0  0  0  0
   -0.1687   -0.0567    2.0121 H   0  0  0  0  0  0  0  0  0  0  0  0
  1  2  1  0
  2  3  1  0
  2  4  1  0
  4  5  1  0
  5  6  1  0
  6  7  1  0
  7  8  1  0
  7  9  1  0
  9  2  1  0
  9  4  1  0
  8  5  1  0
  1 10  1  0
  1 11  1  0
  1 12  1  0
  3 13  1  0
  4 14  1  0
  5 15  1  0
  6 16  1  0
  6 17  1  0
  7 18  1  0
  9 19  1  0
M  END
