
     RDKit          3D

 21 21  0  0  0  0  0  0  0  0999 V2000
   -2.1383   -0.9720   -0.1641 C   0  0  0  0  0  0  0  0  0  0  0  0
   -1.3084    0.3160   -0.2466 C   0  0  0  0  0  0  0  0  0  0  0  0
   -2.1128    1.5772   -0.0272 C   0  0  0  0  0  0  0  0  0  0  0  0
   -0.3805    0.4192   -1.2852 O   0  0  0  0  0  0  0  0  0  0  0  0
    0.0694    0.2870    0.1245 C   0  0  0  0  0  0  0  0  0  0  0  0
    0.9108   -0.9325    0.2851 C   0  0  0  0  0  0  0  0  0  0  0  0
    2.3393   -0.5497    0.6980 C   0  0  0  0  0  0  0  0  0  0  0  0
    2.9584    0.3259   -0.3503 C   0  0  0  0  0  0  0  0  0  0  0  0
    2.9352   -0.1196   -1.5095 O   0  0  0  0  0  0  0  0  0  0  0  0
   -1.5968   -1.6495    0.5461 H   0  0  0  0  0  0  0  0  0  0  0  0
   -2.2748   -1.4290   -1.1515 H   0  0  0  0  0  0  0  0  0  0  0  0
   -3.1304   -0.7875    0.2832 H   0  0  0  0  0  0  0  0  0  0  0  0
   -1.6748    2.1325    0.8429 H   0  0  0  0  0  0  0  0  0  0  0  0
   -2.1276    2.2299   -0.9025 H   0  0  0  0  0  0  0  0  0  0  0  0
   -3.1954    1.3293    0.1966 H   0  0  0  0  0  0  0  0  0  0  0  0
    0.5494    1.2276    0.4895 H   0  0  0  0  0  0  0  0  0  0  0  0
    0.5078   -1.6329    1.0694 H   0  0  0  0  0  0  0  0  0  0  0  0
    1.0296   -1.5637   -0.6105 H   0  0  0  0  0  0  0  0  0  0  0  0
    2.9256   -1.4869    0.8645 H   0  0  0  0  0  0  0  0  0  0  0  0
    2.3179    0.0105    1.6422 H   0  0  0  0  0  0  0  0  0  0  0  0
    3.3964    1.2683   -0.1382 H   0  0  0  0  0  0  0  0  0  0  0  0
  1  2  1  0
  2  3  1  0
  2  4  1  0
  4  5  1  0
  5  6  1  0
  6  7  1  0
  7  8  1  0
  8  9  2  0
  5  2  1  0
  1 10  1  0
  1 11  1  0
  1 12  1  0
  3 13  1  0
  3 14  1  0
  3 15  1  0
  5 16  1  0
  6 17  1  0
  6 18  1  0
  7 19  1  0
  7 20  1  0
  8 21  1  0
M  END
