
     RDKit          3D

 23 24  0  0  0  0  0  0  0  0999 V2000
   -1.1879   -1.1281    1.3089 C   0  0  0  0  0  0  0  0  0  0  0  0
   -1.1823   -0.2667    0.0936 C   0  0  0  0  0  0  0  0  0  0  0  0
   -2.4098    0.1211   -0.3922 O   0  0  0  0  0  0  0  0  0  0  0  0
   -0.0661   -0.2629   -0.8810 C   0  0  0  0  0  0  0  0  0  0  0  0
    1.0261   -1.2501   -0.6219 C   0  0  0  0  0  0  0  0  0  0  0  0
    1.9666   -0.5372    0.2928 C   0  0  0  0  0  0  0  0  0  0  0  0
    1.1344    0.5015    0.9884 C   0  0  0  0  0  0  0  0  0  0  0  0
   -0.0613    0.7849    0.1274 C   0  0  0  0  0  0  0  0  0  0  0  0
   -0.5447    2.1736   -0.0829 C   0  0  0  0  0  0  0  0  0  0  0  0
   -1.5970   -0.5009    2.1542 H   0  0  0  0  0  0  0  0  0  0  0  0
   -0.1854   -1.4664    1.6169 H   0  0  0  0  0  0  0  0  0  0  0  0
   -1.8829   -1.9748    1.2132 H   0  0  0  0  0  0  0  0  0  0  0  0
   -2.5541   -0.3814   -1.2538 H   0  0  0  0  0  0  0  0  0  0  0  0
   -0.2379    0.0192   -1.9221 H   0  0  0  0  0  0  0  0  0  0  0  0
    0.6189   -2.1783   -0.1221 H   0  0  0  0  0  0  0  0  0  0  0  0
    1.5115   -1.6332   -1.5530 H   0  0  0  0  0  0  0  0  0  0  0  0
    2.7954   -0.1251   -0.3020 H   0  0  0  0  0  0  0  0  0  0  0  0
    2.4055   -1.2092    1.0758 H   0  0  0  0  0  0  0  0  0  0  0  0
    0.8493    0.2471    2.0104 H   0  0  0  0  0  0  0  0  0  0  0  0
    1.7374    1.4308    1.0326 H   0  0  0  0  0  0  0  0  0  0  0  0
    0.0024    2.8416    0.6393 H   0  0  0  0  0  0  0  0  0  0  0  0
   -0.5149    2.5364   -1.1117 H   0  0  0  0  0  0  0  0  0  0  0  0
   -1.6232    2.2580    0.2440 H   0  0  0  0  0  0  0  0  0  0  0  0
  1  2  1  0
  2  3  1  0
  2  4  1  0
  4  5  1  0
  5  6  1  0
  6  7  1  0
  7  8  1  0
  8  9  1  0
  8  2  1  0
  8  4  1  0
  1 10  1  0
  1 11  1  0
  1 12  1  0
  3 13  1  0
  4 14  1  0
  5 15  1  0
  5 16  1  0
  6 17  1  0
  6 18  1  0
  7 19  1  0
  7 20  1  0
  9 21  1  0
  9 22  1  0
  9 23  1  0
M  END
