
     RDKit          3D

 20 20  0  0  0  0  0  0  0  0999 V2000
    0.2159    1.5655    0.5291 C   0  0  0  0  0  0  0  0  0  0  0  0
    0.2498    0.1187    0.1306 C   0  0  0  0  0  0  0  0  0  0  0  0
    1.6430   -0.4655    0.1515 C   0  0  0  0  0  0  0  0  0  0  0  0
    2.5019    0.1905   -0.7116 O   0  0  0  0  0  0  0  0  0  0  0  0
   -0.4339   -0.0960   -1.2073 C   0  0  0  0  0  0  0  0  0  0  0  0
   -1.8836   -0.1851   -0.7940 C   0  0  0  0  0  0  0  0  0  0  0  0
   -1.9601   -0.5626    0.4678 C   0  0  0  0  0  0  0  0  0  0  0  0
   -0.6231   -0.7567    1.0007 C   0  0  0  0  0  0  0  0  0  0  0  0
   -0.8289    1.8428    0.7589 H   0  0  0  0  0  0  0  0  0  0  0  0
    0.8872    1.7770    1.3575 H   0  0  0  0  0  0  0  0  0  0  0  0
    0.4943    2.1771   -0.3713 H   0  0  0  0  0  0  0  0  0  0  0  0
    1.9915   -0.3870    1.2158 H   0  0  0  0  0  0  0  0  0  0  0  0
    1.5674   -1.5197   -0.1729 H   0  0  0  0  0  0  0  0  0  0  0  0
    3.0420   -0.4563   -1.2181 H   0  0  0  0  0  0  0  0  0  0  0  0
   -0.1090   -0.9987   -1.7183 H   0  0  0  0  0  0  0  0  0  0  0  0
   -0.3436    0.7695   -1.8801 H   0  0  0  0  0  0  0  0  0  0  0  0
   -2.7148    0.0326   -1.4510 H   0  0  0  0  0  0  0  0  0  0  0  0
   -2.8706   -0.7193    1.0659 H   0  0  0  0  0  0  0  0  0  0  0  0
   -0.3157   -1.8057    0.7700 H   0  0  0  0  0  0  0  0  0  0  0  0
   -0.5097   -0.5211    2.0769 H   0  0  0  0  0  0  0  0  0  0  0  0
  1  2  1  0
  2  3  1  0
  3  4  1  0
  2  5  1  0
  5  6  1  0
  6  7  2  0
  7  8  1  0
  8  2  1  0
  1  9  1  0
  1 10  1  0
  1 11  1  0
  3 12  1  0
  3 13  1  0
  4 14  1  0
  5 15  1  0
  5 16  1  0
  6 17  1  0
  7 18  1  0
  8 19  1  0
  8 20  1  0
M  END
