
     RDKit          3D

 17 17  0  0  0  0  0  0  0  0999 V2000
   -1.9985   -0.1456    0.3650 C   0  0  0  0  0  0  0  0  0  0  0  0
   -0.5945    0.0055   -0.1617 C   0  0  0  0  0  0  0  0  0  0  0  0
   -0.6711    0.4977   -1.4789 O   0  0  0  0  0  0  0  0  0  0  0  0
    0.2078    0.9803    0.6176 C   0  0  0  0  0  0  0  0  0  0  0  0
    1.5172    0.9074    0.6206 C   0  0  0  0  0  0  0  0  0  0  0  0
    2.1517   -0.1845   -0.1834 C   0  0  0  0  0  0  0  0  0  0  0  0
    1.4190   -1.3874   -0.0934 O   0  0  0  0  0  0  0  0  0  0  0  0
    0.0388   -1.3247   -0.2355 C   0  0  0  0  0  0  0  0  0  0  0  0
   -0.6786   -2.3195   -0.4191 O   0  0  0  0  0  0  0  0  0  0  0  0
   -2.4047   -1.1443    0.0598 H   0  0  0  0  0  0  0  0  0  0  0  0
   -2.6210    0.6944    0.0033 H   0  0  0  0  0  0  0  0  0  0  0  0
   -1.9924   -0.1209    1.4654 H   0  0  0  0  0  0  0  0  0  0  0  0
   -1.5746    0.4143   -1.8371 H   0  0  0  0  0  0  0  0  0  0  0  0
   -0.2851    1.7472    1.1802 H   0  0  0  0  0  0  0  0  0  0  0  0
    2.1601    1.6083    1.1838 H   0  0  0  0  0  0  0  0  0  0  0  0
    2.1411    0.1725   -1.2478 H   0  0  0  0  0  0  0  0  0  0  0  0
    3.1851   -0.4009    0.1612 H   0  0  0  0  0  0  0  0  0  0  0  0
  1  2  1  0
  2  3  1  0
  2  4  1  0
  4  5  2  0
  5  6  1  0
  6  7  1  0
  7  8  1  0
  8  9  2  0
  8  2  1  0
  1 10  1  0
  1 11  1  0
  1 12  1  0
  3 13  1  0
  4 14  1  0
  5 15  1  0
  6 16  1  0
  6 17  1  0
M  END
