
     RDKit          3D

 21 22  0  0  0  0  0  0  0  0999 V2000
   -1.6520    1.2261   -0.1616 C   0  0  0  0  0  0  0  0  0  0  0  0
   -0.8010   -0.0174   -0.3745 C   0  0  0  0  0  0  0  0  0  0  0  0
   -0.9626   -0.3232   -1.7490 O   0  0  0  0  0  0  0  0  0  0  0  0
   -1.2789   -1.1365    0.4469 C   0  0  0  0  0  0  0  0  0  0  0  0
   -0.2776   -1.6322    1.1451 C   0  0  0  0  0  0  0  0  0  0  0  0
    0.9879   -0.9138    0.8825 C   0  0  0  0  0  0  0  0  0  0  0  0
    1.6226   -0.8806   -0.4468 C   0  0  0  0  0  0  0  0  0  0  0  0
    0.6151    0.1805   -0.0087 C   0  0  0  0  0  0  0  0  0  0  0  0
    1.2230    1.5542    0.0926 C   0  0  0  0  0  0  0  0  0  0  0  0
   -2.6819    0.9391   -0.5254 H   0  0  0  0  0  0  0  0  0  0  0  0
   -1.6902    1.4873    0.9103 H   0  0  0  0  0  0  0  0  0  0  0  0
   -1.2851    2.0171   -0.8176 H   0  0  0  0  0  0  0  0  0  0  0  0
   -1.0014   -1.3050   -1.8847 H   0  0  0  0  0  0  0  0  0  0  0  0
   -2.3307   -1.4722    0.4428 H   0  0  0  0  0  0  0  0  0  0  0  0
   -0.3853   -2.4672    1.8263 H   0  0  0  0  0  0  0  0  0  0  0  0
    1.6877   -0.7425    1.7553 H   0  0  0  0  0  0  0  0  0  0  0  0
    1.2504   -1.4906   -1.2960 H   0  0  0  0  0  0  0  0  0  0  0  0
    2.6768   -0.6239   -0.5204 H   0  0  0  0  0  0  0  0  0  0  0  0
    0.5044    2.3696    0.0959 H   0  0  0  0  0  0  0  0  0  0  0  0
    1.8965    1.5483    0.9800 H   0  0  0  0  0  0  0  0  0  0  0  0
    1.8823    1.6831   -0.7928 H   0  0  0  0  0  0  0  0  0  0  0  0
  1  2  1  0
  2  3  1  0
  2  4  1  0
  4  5  2  0
  5  6  1  0
  6  7  1  0
  7  8  1  0
  8  9  1  0
  8  2  1  0
  8  6  1  0
  1 10  1  0
  1 11  1  0
  1 12  1  0
  3 13  1  0
  4 14  1  0
  5 15  1  0
  6 16  1  0
  7 17  1  0
  7 18  1  0
  9 19  1  0
  9 20  1  0
  9 21  1  0
M  END
