
     RDKit          3D

 21 23  0  0  0  0  0  0  0  0999 V2000
    2.1212   -0.5751   -0.0280 C   0  0  0  0  0  0  0  0  0  0  0  0
    0.9855    0.2144    0.5672 C   0  0  0  0  0  0  0  0  0  0  0  0
    1.2789    0.7257    1.8068 O   0  0  0  0  0  0  0  0  0  0  0  0
    0.5424    1.3199   -0.4096 C   0  0  0  0  0  0  0  0  0  0  0  0
   -0.8033    0.7635   -0.8028 C   0  0  0  0  0  0  0  0  0  0  0  0
   -0.6757   -0.7227   -0.8949 C   0  0  0  0  0  0  0  0  0  0  0  0
   -2.0731   -0.7996   -0.3587 C   0  0  0  0  0  0  0  0  0  0  0  0
   -1.4370    0.2788    0.4649 C   0  0  0  0  0  0  0  0  0  0  0  0
   -0.2459   -0.6381    0.5472 C   0  0  0  0  0  0  0  0  0  0  0  0
    2.3680   -1.3812    0.6877 H   0  0  0  0  0  0  0  0  0  0  0  0
    2.9855    0.0704   -0.2584 H   0  0  0  0  0  0  0  0  0  0  0  0
    1.7102   -1.0806   -0.9501 H   0  0  0  0  0  0  0  0  0  0  0  0
    0.4685    1.0722    2.2302 H   0  0  0  0  0  0  0  0  0  0  0  0
    1.2457    1.3921   -1.2430 H   0  0  0  0  0  0  0  0  0  0  0  0
    0.4366    2.2633    0.1720 H   0  0  0  0  0  0  0  0  0  0  0  0
   -1.3938    1.2947   -1.5210 H   0  0  0  0  0  0  0  0  0  0  0  0
   -0.2588   -1.2707   -1.6182 H   0  0  0  0  0  0  0  0  0  0  0  0
   -2.2224   -1.7116    0.2698 H   0  0  0  0  0  0  0  0  0  0  0  0
   -2.8896   -0.5191   -1.0206 H   0  0  0  0  0  0  0  0  0  0  0  0
   -1.8413    0.8167    1.2017 H   0  0  0  0  0  0  0  0  0  0  0  0
   -0.3015   -1.5129    1.1579 H   0  0  0  0  0  0  0  0  0  0  0  0
  1  2  1  0
  2  3  1  0
  2  4  1  0
  4  5  1  0
  5  6  1  0
  6  7  1  0
  7  8  1  0
  8  9  1  0
  9  2  1  0
  8  5  1  0
  9  6  1  0
  1 10  1  0
  1 11  1  0
  1 12  1  0
  3 13  1  0
  4 14  1  0
  4 15  1  0
  5 16  1  0
  6 17  1  0
  7 18  1  0
  7 19  1  0
  8 20  1  0
  9 21  1  0
M  END
