
     RDKit          3D

 21 21  0  0  0  0  0  0  0  0999 V2000
   -1.3953    1.5130   -0.7104 C   0  0  0  0  0  0  0  0  0  0  0  0
   -0.8949    0.2084   -0.1130 C   0  0  0  0  0  0  0  0  0  0  0  0
   -1.7355   -0.3151    1.0028 C   0  0  0  0  0  0  0  0  0  0  0  0
   -0.4664   -0.8657   -1.1367 C   0  0  0  0  0  0  0  0  0  0  0  0
    0.5358   -0.1580   -0.2707 C   0  0  0  0  0  0  0  0  0  0  0  0
    1.2242   -1.0029    0.7611 C   0  0  0  0  0  0  0  0  0  0  0  0
    1.3166    0.8438   -0.9345 O   0  0  0  0  0  0  0  0  0  0  0  0
    2.6734    0.6653   -1.1654 C   0  0  0  0  0  0  0  0  0  0  0  0
    3.1861   -0.4081   -0.7691 O   0  0  0  0  0  0  0  0  0  0  0  0
   -0.9839    1.7020   -1.7114 H   0  0  0  0  0  0  0  0  0  0  0  0
   -2.4999    1.4970   -0.7357 H   0  0  0  0  0  0  0  0  0  0  0  0
   -1.0925    2.3611   -0.0300 H   0  0  0  0  0  0  0  0  0  0  0  0
   -1.7659    0.3971    1.8598 H   0  0  0  0  0  0  0  0  0  0  0  0
   -2.7951   -0.3674    0.6150 H   0  0  0  0  0  0  0  0  0  0  0  0
   -1.4750   -1.3074    1.3655 H   0  0  0  0  0  0  0  0  0  0  0  0
   -0.5665   -0.5803   -2.2149 H   0  0  0  0  0  0  0  0  0  0  0  0
   -0.7626   -1.8999   -0.9398 H   0  0  0  0  0  0  0  0  0  0  0  0
    1.6906   -1.8953    0.2519 H   0  0  0  0  0  0  0  0  0  0  0  0
    2.0444   -0.4547    1.2730 H   0  0  0  0  0  0  0  0  0  0  0  0
    0.5557   -1.3761    1.5450 H   0  0  0  0  0  0  0  0  0  0  0  0
    3.2068    1.4432   -1.6638 H   0  0  0  0  0  0  0  0  0  0  0  0
  1  2  1  0
  2  3  1  0
  2  4  1  0
  4  5  1  0
  5  6  1  0
  5  7  1  0
  7  8  1  0
  8  9  2  0
  5  2  1  0
  1 10  1  0
  1 11  1  0
  1 12  1  0
  3 13  1  0
  3 14  1  0
  3 15  1  0
  4 16  1  0
  4 17  1  0
  6 18  1  0
  6 19  1  0
  6 20  1  0
  8 21  1  0
M  END
