
     RDKit          3D

 21 22  0  0  0  0  0  0  0  0999 V2000
   -0.2490   -1.7256    0.6222 C   0  0  0  0  0  0  0  0  0  0  0  0
   -0.3460   -0.2492    0.2952 C   0  0  0  0  0  0  0  0  0  0  0  0
    0.9775    0.4022    0.5813 C   0  0  0  0  0  0  0  0  0  0  0  0
    2.2007   -0.1019   -0.1781 C   0  0  0  0  0  0  0  0  0  0  0  0
    1.6593    1.2897   -0.3520 C   0  0  0  0  0  0  0  0  0  0  0  0
   -0.8747   -0.0123   -1.0679 C   0  0  0  0  0  0  0  0  0  0  0  0
   -2.2729   -0.0655   -0.8555 O   0  0  0  0  0  0  0  0  0  0  0  0
   -2.3559    0.7219    0.3167 C   0  0  0  0  0  0  0  0  0  0  0  0
   -1.3135    0.2895    1.1327 O   0  0  0  0  0  0  0  0  0  0  0  0
   -1.1025   -2.2407    0.1321 H   0  0  0  0  0  0  0  0  0  0  0  0
   -0.3590   -1.9058    1.7188 H   0  0  0  0  0  0  0  0  0  0  0  0
    0.7266   -2.1544    0.3103 H   0  0  0  0  0  0  0  0  0  0  0  0
    1.1438    0.5779    1.6749 H   0  0  0  0  0  0  0  0  0  0  0  0
    2.0598   -0.8253   -0.9968 H   0  0  0  0  0  0  0  0  0  0  0  0
    3.1368   -0.2566    0.3994 H   0  0  0  0  0  0  0  0  0  0  0  0
    2.3333    2.0790    0.0893 H   0  0  0  0  0  0  0  0  0  0  0  0
    1.3015    1.5664   -1.3475 H   0  0  0  0  0  0  0  0  0  0  0  0
   -0.6044   -0.8148   -1.8000 H   0  0  0  0  0  0  0  0  0  0  0  0
   -0.6543    0.9959   -1.4412 H   0  0  0  0  0  0  0  0  0  0  0  0
   -2.0682    1.7555   -0.0183 H   0  0  0  0  0  0  0  0  0  0  0  0
   -3.3387    0.6740    0.7843 H   0  0  0  0  0  0  0  0  0  0  0  0
  1  2  1  0
  2  3  1  0
  3  4  1  0
  4  5  1  0
  2  6  1  0
  6  7  1  0
  7  8  1  0
  8  9  1  0
  9  2  1  0
  5  3  1  0
  1 10  1  0
  1 11  1  0
  1 12  1  0
  3 13  1  0
  4 14  1  0
  4 15  1  0
  5 16  1  0
  5 17  1  0
  6 18  1  0
  6 19  1  0
  8 20  1  0
  8 21  1  0
M  END
