
     RDKit          3D

 23 25  0  0  0  0  0  0  0  0999 V2000
   -1.2750   -1.1840   -1.1326 C   0  0  0  0  0  0  0  0  0  0  0  0
   -0.9981   -0.2030   -0.0120 C   0  0  0  0  0  0  0  0  0  0  0  0
   -2.2101    0.4322    0.5769 C   0  0  0  0  0  0  0  0  0  0  0  0
    0.1096   -0.4360    0.9435 C   0  0  0  0  0  0  0  0  0  0  0  0
    1.2511   -1.2622    0.3814 C   0  0  0  0  0  0  0  0  0  0  0  0
    2.5563   -0.6111    0.3838 C   0  0  0  0  0  0  0  0  0  0  0  0
    1.4975   -0.1658   -0.6096 C   0  0  0  0  0  0  0  0  0  0  0  0
    0.2825    0.5324   -0.1380 C   0  0  0  0  0  0  0  0  0  0  0  0
    0.3330    1.9999    0.0242 C   0  0  0  0  0  0  0  0  0  0  0  0
   -0.6520   -0.9240   -2.0386 H   0  0  0  0  0  0  0  0  0  0  0  0
   -1.0223   -2.1952   -0.7889 H   0  0  0  0  0  0  0  0  0  0  0  0
   -2.3295   -1.0987   -1.4843 H   0  0  0  0  0  0  0  0  0  0  0  0
   -2.6059   -0.2774    1.3615 H   0  0  0  0  0  0  0  0  0  0  0  0
   -2.0227    1.3782    1.1126 H   0  0  0  0  0  0  0  0  0  0  0  0
   -3.0197    0.6349   -0.1494 H   0  0  0  0  0  0  0  0  0  0  0  0
    0.0590   -0.2007    2.0028 H   0  0  0  0  0  0  0  0  0  0  0  0
    1.0488   -2.2469   -0.0586 H   0  0  0  0  0  0  0  0  0  0  0  0
    3.4564   -1.0654   -0.0250 H   0  0  0  0  0  0  0  0  0  0  0  0
    2.7598    0.0691    1.2601 H   0  0  0  0  0  0  0  0  0  0  0  0
    1.6708   -0.3721   -1.6672 H   0  0  0  0  0  0  0  0  0  0  0  0
    1.3940    2.3033    0.2145 H   0  0  0  0  0  0  0  0  0  0  0  0
   -0.3008    2.4279    0.7990 H   0  0  0  0  0  0  0  0  0  0  0  0
    0.0174    2.4648   -0.9560 H   0  0  0  0  0  0  0  0  0  0  0  0
  1  2  1  0
  2  3  1  0
  2  4  1  0
  4  5  1  0
  5  6  1  0
  6  7  1  0
  7  8  1  0
  8  9  1  0
  8  2  1  0
  8  4  1  0
  7  5  1  0
  1 10  1  0
  1 11  1  0
  1 12  1  0
  3 13  1  0
  3 14  1  0
  3 15  1  0
  4 16  1  0
  5 17  1  0
  6 18  1  0
  6 19  1  0
  7 20  1  0
  9 21  1  0
  9 22  1  0
  9 23  1  0
M  END
