
     RDKit          3D

 21 22  0  0  0  0  0  0  0  0999 V2000
   -1.5536   -0.5737    1.0653 C   0  0  0  0  0  0  0  0  0  0  0  0
   -0.5344   -0.1823    0.0322 C   0  0  0  0  0  0  0  0  0  0  0  0
   -1.1968    0.6062   -1.1031 C   0  0  0  0  0  0  0  0  0  0  0  0
    0.6232    0.6034    0.5945 C   0  0  0  0  0  0  0  0  0  0  0  0
    0.6162    2.0467    0.3591 C   0  0  0  0  0  0  0  0  0  0  0  0
    0.7620    2.8397    1.2731 O   0  0  0  0  0  0  0  0  0  0  0  0
    1.4943   -0.2150   -0.3556 C   0  0  0  0  0  0  0  0  0  0  0  0
    1.6558   -1.6152    0.0580 C   0  0  0  0  0  0  0  0  0  0  0  0
    0.3459   -1.2560   -0.4937 C   0  0  0  0  0  0  0  0  0  0  0  0
   -1.1367   -0.7635    2.0578 H   0  0  0  0  0  0  0  0  0  0  0  0
   -2.2472    0.3061    1.1730 H   0  0  0  0  0  0  0  0  0  0  0  0
   -2.1873   -1.4181    0.7526 H   0  0  0  0  0  0  0  0  0  0  0  0
   -1.9768   -0.0777   -1.5138 H   0  0  0  0  0  0  0  0  0  0  0  0
   -0.4628    0.7422   -1.9392 H   0  0  0  0  0  0  0  0  0  0  0  0
   -1.5839    1.5682   -0.7749 H   0  0  0  0  0  0  0  0  0  0  0  0
    0.8428    0.3367    1.6551 H   0  0  0  0  0  0  0  0  0  0  0  0
    0.4809    2.4532   -0.6359 H   0  0  0  0  0  0  0  0  0  0  0  0
    1.8118    0.2010   -1.3034 H   0  0  0  0  0  0  0  0  0  0  0  0
    2.3110   -2.2428   -0.5498 H   0  0  0  0  0  0  0  0  0  0  0  0
    1.8252   -1.7564    1.1602 H   0  0  0  0  0  0  0  0  0  0  0  0
    0.1105   -1.6027   -1.5115 H   0  0  0  0  0  0  0  0  0  0  0  0
  1  2  1  0
  2  3  1  0
  2  4  1  0
  4  5  1  0
  5  6  2  0
  4  7  1  0
  7  8  1  0
  8  9  1  0
  9  2  1  0
  9  7  1  0
  1 10  1  0
  1 11  1  0
  1 12  1  0
  3 13  1  0
  3 14  1  0
  3 15  1  0
  4 16  1  0
  5 17  1  0
  7 18  1  0
  8 19  1  0
  8 20  1  0
  9 21  1  0
M  END
