
     RDKit          3D

 21 21  0  0  0  0  0  0  0  0999 V2000
   -1.2644    1.6064   -0.0026 C   0  0  0  0  0  0  0  0  0  0  0  0
   -1.0856    0.1051    0.0699 C   0  0  0  0  0  0  0  0  0  0  0  0
    0.2106   -0.3901    0.1249 O   0  0  0  0  0  0  0  0  0  0  0  0
    0.9841   -0.0771   -0.9582 C   0  0  0  0  0  0  0  0  0  0  0  0
    2.3670   -0.6839   -0.7396 C   0  0  0  0  0  0  0  0  0  0  0  0
    3.0075   -0.1420    0.4935 C   0  0  0  0  0  0  0  0  0  0  0  0
    2.7510   -0.5330    1.6185 O   0  0  0  0  0  0  0  0  0  0  0  0
   -2.1783   -0.7351   -0.4875 C   0  0  0  0  0  0  0  0  0  0  0  0
   -2.0529   -0.6015    1.0002 C   0  0  0  0  0  0  0  0  0  0  0  0
   -1.9260    1.8622   -0.8773 H   0  0  0  0  0  0  0  0  0  0  0  0
   -1.8068    1.9338    0.9273 H   0  0  0  0  0  0  0  0  0  0  0  0
   -0.3068    2.1528   -0.0904 H   0  0  0  0  0  0  0  0  0  0  0  0
    0.5866   -0.4255   -1.9266 H   0  0  0  0  0  0  0  0  0  0  0  0
    1.0914    1.0236   -1.0313 H   0  0  0  0  0  0  0  0  0  0  0  0
    3.0026   -0.5087   -1.6222 H   0  0  0  0  0  0  0  0  0  0  0  0
    2.2997   -1.7810   -0.5979 H   0  0  0  0  0  0  0  0  0  0  0  0
    3.7467    0.6479    0.3888 H   0  0  0  0  0  0  0  0  0  0  0  0
   -2.9989   -0.2116   -1.0185 H   0  0  0  0  0  0  0  0  0  0  0  0
   -1.9107   -1.7131   -0.9665 H   0  0  0  0  0  0  0  0  0  0  0  0
   -2.7952   -0.0125    1.5782 H   0  0  0  0  0  0  0  0  0  0  0  0
   -1.7215   -1.5164    1.5316 H   0  0  0  0  0  0  0  0  0  0  0  0
  1  2  1  0
  2  3  1  0
  3  4  1  0
  4  5  1  0
  5  6  1  0
  6  7  2  0
  2  8  1  0
  8  9  1  0
  9  2  1  0
  1 10  1  0
  1 11  1  0
  1 12  1  0
  4 13  1  0
  4 14  1  0
  5 15  1  0
  5 16  1  0
  6 17  1  0
  8 18  1  0
  8 19  1  0
  9 20  1  0
  9 21  1  0
M  END
