
     RDKit          3D

 21 22  0  0  0  0  0  0  0  0999 V2000
    1.3376   -0.9375    0.6797 C   0  0  0  0  0  0  0  0  0  0  0  0
    0.5457   -0.2748   -0.4501 C   0  0  0  0  0  0  0  0  0  0  0  0
    1.2808    0.9060   -1.0059 C   0  0  0  0  0  0  0  0  0  0  0  0
    1.6210    1.7223    0.0993 O   0  0  0  0  0  0  0  0  0  0  0  0
    0.1048   -1.2231   -1.3295 O   0  0  0  0  0  0  0  0  0  0  0  0
   -1.0905   -1.2673   -0.5727 C   0  0  0  0  0  0  0  0  0  0  0  0
   -2.0335   -0.2023   -0.9121 C   0  0  0  0  0  0  0  0  0  0  0  0
   -0.8570    0.0851   -0.1028 C   0  0  0  0  0  0  0  0  0  0  0  0
   -1.0654    0.5691    1.2946 C   0  0  0  0  0  0  0  0  0  0  0  0
    1.4480   -0.2901    1.5478 H   0  0  0  0  0  0  0  0  0  0  0  0
    2.2863   -1.2962    0.2408 H   0  0  0  0  0  0  0  0  0  0  0  0
    0.7752   -1.8642    0.9779 H   0  0  0  0  0  0  0  0  0  0  0  0
    0.5914    1.5486   -1.6155 H   0  0  0  0  0  0  0  0  0  0  0  0
    2.1495    0.6553   -1.6148 H   0  0  0  0  0  0  0  0  0  0  0  0
    2.5992    1.8058    0.1967 H   0  0  0  0  0  0  0  0  0  0  0  0
   -1.3000   -2.1284    0.0510 H   0  0  0  0  0  0  0  0  0  0  0  0
   -2.1219    0.0946   -1.9826 H   0  0  0  0  0  0  0  0  0  0  0  0
   -3.0114   -0.2187   -0.3918 H   0  0  0  0  0  0  0  0  0  0  0  0
   -0.3904    1.4686    1.4203 H   0  0  0  0  0  0  0  0  0  0  0  0
   -0.7765   -0.1279    2.0804 H   0  0  0  0  0  0  0  0  0  0  0  0
   -2.0929    0.9750    1.3893 H   0  0  0  0  0  0  0  0  0  0  0  0
  1  2  1  0
  2  3  1  0
  3  4  1  0
  2  5  1  0
  5  6  1  0
  6  7  1  0
  7  8  1  0
  8  9  1  0
  8  2  1  0
  8  6  1  0
  1 10  1  0
  1 11  1  0
  1 12  1  0
  3 13  1  0
  3 14  1  0
  4 15  1  0
  6 16  1  0
  7 17  1  0
  7 18  1  0
  9 19  1  0
  9 20  1  0
  9 21  1  0
M  END
