
     RDKit          3D

 21 21  0  0  0  0  0  0  0  0999 V2000
   -0.9389    1.6726    0.5226 C   0  0  0  0  0  0  0  0  0  0  0  0
   -0.6257    0.2613    0.1853 C   0  0  0  0  0  0  0  0  0  0  0  0
   -1.8509   -0.5259   -0.1850 C   0  0  0  0  0  0  0  0  0  0  0  0
   -1.4840   -1.8329   -0.4873 O   0  0  0  0  0  0  0  0  0  0  0  0
    0.4567    0.0859   -0.8889 C   0  0  0  0  0  0  0  0  0  0  0  0
    1.4495    0.1819    0.2708 C   0  0  0  0  0  0  0  0  0  0  0  0
    2.6485   -0.6396    0.1295 C   0  0  0  0  0  0  0  0  0  0  0  0
    3.7178   -0.2736    0.6101 O   0  0  0  0  0  0  0  0  0  0  0  0
    0.3327   -0.4398    1.1223 C   0  0  0  0  0  0  0  0  0  0  0  0
   -0.0790    2.3655    0.4338 H   0  0  0  0  0  0  0  0  0  0  0  0
   -1.3670    1.7219    1.5393 H   0  0  0  0  0  0  0  0  0  0  0  0
   -1.7181    2.0357   -0.1739 H   0  0  0  0  0  0  0  0  0  0  0  0
   -2.5561   -0.5712    0.6727 H   0  0  0  0  0  0  0  0  0  0  0  0
   -2.3259   -0.0603   -1.0713 H   0  0  0  0  0  0  0  0  0  0  0  0
   -1.5491   -1.9666   -1.4841 H   0  0  0  0  0  0  0  0  0  0  0  0
    0.4124   -0.9403   -1.2856 H   0  0  0  0  0  0  0  0  0  0  0  0
    0.4973    0.9030   -1.6023 H   0  0  0  0  0  0  0  0  0  0  0  0
    1.6457    1.2054    0.5956 H   0  0  0  0  0  0  0  0  0  0  0  0
    2.6656   -1.5896   -0.3907 H   0  0  0  0  0  0  0  0  0  0  0  0
    0.3782   -0.0481    2.1487 H   0  0  0  0  0  0  0  0  0  0  0  0
    0.2905   -1.5454    1.0397 H   0  0  0  0  0  0  0  0  0  0  0  0
  1  2  1  0
  2  3  1  0
  3  4  1  0
  2  5  1  0
  5  6  1  0
  6  7  1  0
  7  8  2  0
  6  9  1  0
  9  2  1  0
  1 10  1  0
  1 11  1  0
  1 12  1  0
  3 13  1  0
  3 14  1  0
  4 15  1  0
  5 16  1  0
  5 17  1  0
  6 18  1  0
  7 19  1  0
  9 20  1  0
  9 21  1  0
M  END
