
     RDKit          3D

 21 22  0  0  0  0  0  0  0  0999 V2000
   -0.2975   -1.5964   -0.4678 C   0  0  0  0  0  0  0  0  0  0  0  0
   -0.1154   -0.1078   -0.2450 C   0  0  0  0  0  0  0  0  0  0  0  0
   -1.3505    0.6912   -0.4390 C   0  0  0  0  0  0  0  0  0  0  0  0
   -2.4316    0.2472    0.5212 C   0  0  0  0  0  0  0  0  0  0  0  0
   -2.2546   -0.6467    1.3191 O   0  0  0  0  0  0  0  0  0  0  0  0
    0.6563    0.2629    0.9798 C   0  0  0  0  0  0  0  0  0  0  0  0
    1.1887    1.4260    0.2371 C   0  0  0  0  0  0  0  0  0  0  0  0
    1.1732    0.3407   -0.7957 C   0  0  0  0  0  0  0  0  0  0  0  0
    1.7934   -0.4900    0.3149 C   0  0  0  0  0  0  0  0  0  0  0  0
    0.3777   -1.9531   -1.2698 H   0  0  0  0  0  0  0  0  0  0  0  0
   -1.3370   -1.7437   -0.8858 H   0  0  0  0  0  0  0  0  0  0  0  0
   -0.2338   -2.1911    0.4421 H   0  0  0  0  0  0  0  0  0  0  0  0
   -1.7718    0.3902   -1.4467 H   0  0  0  0  0  0  0  0  0  0  0  0
   -1.2317    1.7675   -0.3971 H   0  0  0  0  0  0  0  0  0  0  0  0
   -3.4009    0.7308    0.5109 H   0  0  0  0  0  0  0  0  0  0  0  0
    0.3826    0.1781    1.9366 H   0  0  0  0  0  0  0  0  0  0  0  0
    2.2762    1.6174    0.5105 H   0  0  0  0  0  0  0  0  0  0  0  0
    0.6117    2.3228    0.0824 H   0  0  0  0  0  0  0  0  0  0  0  0
    1.5034    0.3881   -1.7366 H   0  0  0  0  0  0  0  0  0  0  0  0
    1.6947   -1.5677    0.2368 H   0  0  0  0  0  0  0  0  0  0  0  0
    2.7669   -0.0661    0.5922 H   0  0  0  0  0  0  0  0  0  0  0  0
  1  2  1  0
  2  3  1  0
  3  4  1  0
  4  5  2  0
  2  6  1  0
  6  7  1  0
  7  8  1  0
  8  9  1  0
  8  2  1  0
  9  6  1  0
  1 10  1  0
  1 11  1  0
  1 12  1  0
  3 13  1  0
  3 14  1  0
  4 15  1  0
  6 16  1  0
  7 17  1  0
  7 18  1  0
  8 19  1  0
  9 20  1  0
  9 21  1  0
M  END
