
     RDKit          3D

 21 21  0  0  0  0  0  0  0  0999 V2000
   -1.8402   -1.1501    0.6832 C   0  0  0  0  0  0  0  0  0  0  0  0
   -0.8391   -0.1579    0.1915 C   0  0  0  0  0  0  0  0  0  0  0  0
   -1.5733    0.8713   -0.6479 C   0  0  0  0  0  0  0  0  0  0  0  0
    0.3093   -0.7765   -0.5545 C   0  0  0  0  0  0  0  0  0  0  0  0
    1.4095    0.2443   -0.4237 C   0  0  0  0  0  0  0  0  0  0  0  0
    2.7167   -0.3518   -0.1033 C   0  0  0  0  0  0  0  0  0  0  0  0
    3.0395   -0.5022    1.0474 O   0  0  0  0  0  0  0  0  0  0  0  0
    0.8915    1.1358    0.6895 C   0  0  0  0  0  0  0  0  0  0  0  0
   -0.1844    0.4775    1.2528 O   0  0  0  0  0  0  0  0  0  0  0  0
   -1.4219   -2.1498    0.8890 H   0  0  0  0  0  0  0  0  0  0  0  0
   -2.6941   -1.2675   -0.0360 H   0  0  0  0  0  0  0  0  0  0  0  0
   -2.3173   -0.7323    1.6143 H   0  0  0  0  0  0  0  0  0  0  0  0
   -2.4082    1.2495   -0.0010 H   0  0  0  0  0  0  0  0  0  0  0  0
   -1.9414    0.4137   -1.5739 H   0  0  0  0  0  0  0  0  0  0  0  0
   -0.9274    1.7525   -0.8341 H   0  0  0  0  0  0  0  0  0  0  0  0
    0.0342   -0.8837   -1.6225 H   0  0  0  0  0  0  0  0  0  0  0  0
    0.5713   -1.7582   -0.1644 H   0  0  0  0  0  0  0  0  0  0  0  0
    1.4242    0.8725   -1.3497 H   0  0  0  0  0  0  0  0  0  0  0  0
    3.3810   -0.6519   -0.8851 H   0  0  0  0  0  0  0  0  0  0  0  0
    1.6888    1.2101    1.4741 H   0  0  0  0  0  0  0  0  0  0  0  0
    0.6813    2.1546    0.3544 H   0  0  0  0  0  0  0  0  0  0  0  0
  1  2  1  0
  2  3  1  0
  2  4  1  0
  4  5  1  0
  5  6  1  0
  6  7  2  0
  5  8  1  0
  8  9  1  0
  9  2  1  0
  1 10  1  0
  1 11  1  0
  1 12  1  0
  3 13  1  0
  3 14  1  0
  3 15  1  0
  4 16  1  0
  4 17  1  0
  5 18  1  0
  6 19  1  0
  8 20  1  0
  8 21  1  0
M  END
