
     RDKit          3D

 23 24  0  0  0  0  0  0  0  0999 V2000
   -1.8943   -0.6981   -1.1035 C   0  0  0  0  0  0  0  0  0  0  0  0
   -0.8266   -0.1216   -0.1957 C   0  0  0  0  0  0  0  0  0  0  0  0
   -1.0455   -0.4558    1.2454 C   0  0  0  0  0  0  0  0  0  0  0  0
   -0.6686    1.3912   -0.3664 C   0  0  0  0  0  0  0  0  0  0  0  0
    0.8041    1.1375   -0.5987 C   0  0  0  0  0  0  0  0  0  0  0  0
    1.6427    1.1713    0.6171 C   0  0  0  0  0  0  0  0  0  0  0  0
    2.0522   -0.0200    1.0005 C   0  0  0  0  0  0  0  0  0  0  0  0
    1.5311   -1.0435    0.0701 C   0  0  0  0  0  0  0  0  0  0  0  0
    0.5268   -0.3374   -0.7595 C   0  0  0  0  0  0  0  0  0  0  0  0
   -1.5367   -0.8876   -2.1263 H   0  0  0  0  0  0  0  0  0  0  0  0
   -2.8038   -0.0445   -1.1311 H   0  0  0  0  0  0  0  0  0  0  0  0
   -2.1890   -1.6914   -0.6746 H   0  0  0  0  0  0  0  0  0  0  0  0
   -0.4198    0.1811    1.9067 H   0  0  0  0  0  0  0  0  0  0  0  0
   -2.1183   -0.2063    1.4767 H   0  0  0  0  0  0  0  0  0  0  0  0
   -0.8747   -1.5439    1.4305 H   0  0  0  0  0  0  0  0  0  0  0  0
   -0.8470    1.9679    0.5579 H   0  0  0  0  0  0  0  0  0  0  0  0
   -1.1354    1.8059   -1.2583 H   0  0  0  0  0  0  0  0  0  0  0  0
    1.2376    1.6338   -1.4878 H   0  0  0  0  0  0  0  0  0  0  0  0
    1.9176    2.1017    1.1759 H   0  0  0  0  0  0  0  0  0  0  0  0
    2.6977   -0.2188    1.8977 H   0  0  0  0  0  0  0  0  0  0  0  0
    1.0701   -1.8881    0.6609 H   0  0  0  0  0  0  0  0  0  0  0  0
    2.3462   -1.5246   -0.5367 H   0  0  0  0  0  0  0  0  0  0  0  0
    0.5336   -0.7087   -1.8008 H   0  0  0  0  0  0  0  0  0  0  0  0
  1  2  1  0
  2  3  1  0
  2  4  1  0
  4  5  1  0
  5  6  1  0
  6  7  2  0
  7  8  1  0
  8  9  1  0
  9  2  1  0
  9  5  1  0
  1 10  1  0
  1 11  1  0
  1 12  1  0
  3 13  1  0
  3 14  1  0
  3 15  1  0
  4 16  1  0
  4 17  1  0
  5 18  1  0
  6 19  1  0
  7 20  1  0
  8 21  1  0
  8 22  1  0
  9 23  1  0
M  END
