
     RDKit          3D

 23 24  0  0  0  0  0  0  0  0999 V2000
   -0.4795    1.6375    0.1297 C   0  0  0  0  0  0  0  0  0  0  0  0
   -0.0977    0.2507   -0.3780 C   0  0  0  0  0  0  0  0  0  0  0  0
    1.3598    0.2736   -0.7091 C   0  0  0  0  0  0  0  0  0  0  0  0
    2.2464    0.6153    0.4998 C   0  0  0  0  0  0  0  0  0  0  0  0
    2.3219   -0.7076   -0.2000 C   0  0  0  0  0  0  0  0  0  0  0  0
   -0.4316   -0.7206    0.7307 C   0  0  0  0  0  0  0  0  0  0  0  0
   -1.9328   -0.9173    0.4829 C   0  0  0  0  0  0  0  0  0  0  0  0
   -2.0199   -0.7189   -0.9940 C   0  0  0  0  0  0  0  0  0  0  0  0
   -0.9039   -0.0688   -1.4330 O   0  0  0  0  0  0  0  0  0  0  0  0
   -1.3388    2.0557   -0.4187 H   0  0  0  0  0  0  0  0  0  0  0  0
    0.3590    2.3656   -0.0168 H   0  0  0  0  0  0  0  0  0  0  0  0
   -0.6783    1.6370    1.2208 H   0  0  0  0  0  0  0  0  0  0  0  0
    1.5944    0.8185   -1.6544 H   0  0  0  0  0  0  0  0  0  0  0  0
    2.9928    1.4038    0.3188 H   0  0  0  0  0  0  0  0  0  0  0  0
    1.7997    0.5878    1.4973 H   0  0  0  0  0  0  0  0  0  0  0  0
    2.0487   -1.6130    0.3562 H   0  0  0  0  0  0  0  0  0  0  0  0
    3.2282   -0.8773   -0.8525 H   0  0  0  0  0  0  0  0  0  0  0  0
   -0.3415   -0.2800    1.7360 H   0  0  0  0  0  0  0  0  0  0  0  0
    0.0270   -1.7051    0.6116 H   0  0  0  0  0  0  0  0  0  0  0  0
   -2.4929   -0.1169    1.0395 H   0  0  0  0  0  0  0  0  0  0  0  0
   -2.2670   -1.9190    0.8064 H   0  0  0  0  0  0  0  0  0  0  0  0
   -2.0116   -1.7476   -1.4606 H   0  0  0  0  0  0  0  0  0  0  0  0
   -2.9822   -0.2533   -1.3125 H   0  0  0  0  0  0  0  0  0  0  0  0
  1  2  1  0
  2  3  1  0
  3  4  1  0
  4  5  1  0
  2  6  1  0
  6  7  1  0
  7  8  1  0
  8  9  1  0
  9  2  1  0
  5  3  1  0
  1 10  1  0
  1 11  1  0
  1 12  1  0
  3 13  1  0
  4 14  1  0
  4 15  1  0
  5 16  1  0
  5 17  1  0
  6 18  1  0
  6 19  1  0
  7 20  1  0
  7 21  1  0
  8 22  1  0
  8 23  1  0
M  END
