
     RDKit          3D

 19 19  0  0  0  0  0  0  0  0999 V2000
   -1.0311    0.6192   -1.2044 C   0  0  0  0  0  0  0  0  0  0  0  0
   -0.5585   -0.0924    0.0486 C   0  0  0  0  0  0  0  0  0  0  0  0
   -1.2962   -1.3622    0.3713 C   0  0  0  0  0  0  0  0  0  0  0  0
    0.1838    0.6735    1.0384 C   0  0  0  0  0  0  0  0  0  0  0  0
    0.3590    2.0531    0.6899 O   0  0  0  0  0  0  0  0  0  0  0  0
    0.9730   -0.2521    0.2431 C   0  0  0  0  0  0  0  0  0  0  0  0
    1.2741   -1.5579    0.7277 O   0  0  0  0  0  0  0  0  0  0  0  0
    1.6933    0.2055   -0.9979 C   0  0  0  0  0  0  0  0  0  0  0  0
    2.5058    1.1734   -0.8588 O   0  0  0  0  0  0  0  0  0  0  0  0
   -0.2619    1.1685   -1.7160 H   0  0  0  0  0  0  0  0  0  0  0  0
   -1.8403    1.3250   -0.9648 H   0  0  0  0  0  0  0  0  0  0  0  0
   -1.4544   -0.1148   -1.9555 H   0  0  0  0  0  0  0  0  0  0  0  0
   -2.2655   -1.4399   -0.1580 H   0  0  0  0  0  0  0  0  0  0  0  0
   -0.6864   -2.2350    0.0264 H   0  0  0  0  0  0  0  0  0  0  0  0
   -1.5018   -1.5063    1.4200 H   0  0  0  0  0  0  0  0  0  0  0  0
   -0.0006    0.5436    2.1101 H   0  0  0  0  0  0  0  0  0  0  0  0
    0.8327    2.4703    1.4365 H   0  0  0  0  0  0  0  0  0  0  0  0
    1.5894   -1.4165    1.6766 H   0  0  0  0  0  0  0  0  0  0  0  0
    1.4856   -0.2550   -1.9331 H   0  0  0  0  0  0  0  0  0  0  0  0
  1  2  1  0
  2  3  1  0
  2  4  1  0
  4  5  1  0
  4  6  1  0
  6  7  1  0
  6  8  1  0
  8  9  2  0
  6  2  1  0
  1 10  1  0
  1 11  1  0
  1 12  1  0
  3 13  1  0
  3 14  1  0
  3 15  1  0
  4 16  1  0
  5 17  1  0
  7 18  1  0
  8 19  1  0
M  END
