
     RDKit          3D

 21 22  0  0  0  0  0  0  0  0999 V2000
   -2.0358   -0.2904    1.0679 C   0  0  0  0  0  0  0  0  0  0  0  0
   -1.1753   -0.1164   -0.1596 C   0  0  0  0  0  0  0  0  0  0  0  0
    0.2384    0.2897    0.1216 C   0  0  0  0  0  0  0  0  0  0  0  0
    0.9681   -0.7403    0.9874 C   0  0  0  0  0  0  0  0  0  0  0  0
    2.3893   -0.3336    0.7232 C   0  0  0  0  0  0  0  0  0  0  0  0
    2.4721    0.2728   -0.4545 C   0  0  0  0  0  0  0  0  0  0  0  0
    1.1218    0.3267   -1.0820 C   0  0  0  0  0  0  0  0  0  0  0  0
   -1.8441    0.6501   -1.2708 C   0  0  0  0  0  0  0  0  0  0  0  0
   -1.5117   -0.7560   -1.3345 O   0  0  0  0  0  0  0  0  0  0  0  0
   -1.4730   -0.2101    2.0079 H   0  0  0  0  0  0  0  0  0  0  0  0
   -2.5723   -1.2780    1.0235 H   0  0  0  0  0  0  0  0  0  0  0  0
   -2.8405    0.4915    1.1232 H   0  0  0  0  0  0  0  0  0  0  0  0
    0.3040    1.2659    0.6473 H   0  0  0  0  0  0  0  0  0  0  0  0
    0.8402   -1.7462    0.5447 H   0  0  0  0  0  0  0  0  0  0  0  0
    0.6899   -0.6605    2.0370 H   0  0  0  0  0  0  0  0  0  0  0  0
    3.1981   -0.5233    1.4128 H   0  0  0  0  0  0  0  0  0  0  0  0
    3.3877    0.6625   -0.8791 H   0  0  0  0  0  0  0  0  0  0  0  0
    0.9909   -0.6236   -1.6414 H   0  0  0  0  0  0  0  0  0  0  0  0
    0.9842    1.2177   -1.7183 H   0  0  0  0  0  0  0  0  0  0  0  0
   -2.9314    0.8777   -1.2057 H   0  0  0  0  0  0  0  0  0  0  0  0
   -1.2009    1.2236   -1.9505 H   0  0  0  0  0  0  0  0  0  0  0  0
  1  2  1  0
  2  3  1  0
  3  4  1  0
  4  5  1  0
  5  6  2  0
  6  7  1  0
  2  8  1  0
  8  9  1  0
  9  2  1  0
  7  3  1  0
  1 10  1  0
  1 11  1  0
  1 12  1  0
  3 13  1  0
  4 14  1  0
  4 15  1  0
  5 16  1  0
  6 17  1  0
  7 18  1  0
  7 19  1  0
  8 20  1  0
  8 21  1  0
M  END
