
     RDKit          3D

 19 19  0  0  0  0  0  0  0  0999 V2000
    2.0531    0.7240    0.4456 C   0  0  0  0  0  0  0  0  0  0  0  0
    0.8412    0.1228   -0.2458 C   0  0  0  0  0  0  0  0  0  0  0  0
    1.1215   -0.6167   -1.4836 C   0  0  0  0  0  0  0  0  0  0  0  0
    0.9196   -1.8416   -1.4067 O   0  0  0  0  0  0  0  0  0  0  0  0
   -0.0823    1.2087   -0.4059 O   0  0  0  0  0  0  0  0  0  0  0  0
   -0.5502    0.1075    0.2341 C   0  0  0  0  0  0  0  0  0  0  0  0
   -0.7767   -0.0342    1.6683 C   0  0  0  0  0  0  0  0  0  0  0  0
   -1.5742   -0.6436   -0.6366 C   0  0  0  0  0  0  0  0  0  0  0  0
   -2.6476    0.1975   -0.9283 O   0  0  0  0  0  0  0  0  0  0  0  0
    2.5568    1.4049   -0.2368 H   0  0  0  0  0  0  0  0  0  0  0  0
    2.7812   -0.0614    0.7606 H   0  0  0  0  0  0  0  0  0  0  0  0
    1.7405    1.3262    1.3495 H   0  0  0  0  0  0  0  0  0  0  0  0
    1.4684   -0.2435   -2.4533 H   0  0  0  0  0  0  0  0  0  0  0  0
   -0.4418   -1.0828    1.9475 H   0  0  0  0  0  0  0  0  0  0  0  0
   -0.1900    0.6176    2.3348 H   0  0  0  0  0  0  0  0  0  0  0  0
   -1.8428    0.0981    1.9297 H   0  0  0  0  0  0  0  0  0  0  0  0
   -1.9745   -1.5108   -0.1051 H   0  0  0  0  0  0  0  0  0  0  0  0
   -1.1081   -0.8933   -1.6395 H   0  0  0  0  0  0  0  0  0  0  0  0
   -2.2941    1.1205   -1.1284 H   0  0  0  0  0  0  0  0  0  0  0  0
  1  2  1  0
  2  3  1  0
  3  4  2  0
  2  5  1  0
  5  6  1  0
  6  7  1  0
  6  8  1  0
  8  9  1  0
  6  2  1  0
  1 10  1  0
  1 11  1  0
  1 12  1  0
  3 13  1  0
  7 14  1  0
  7 15  1  0
  7 16  1  0
  8 17  1  0
  8 18  1  0
  9 19  1  0
M  END
