
     RDKit          3D

 19 19  0  0  0  0  0  0  0  0999 V2000
   -1.1738   -1.2534   -0.2056 C   0  0  0  0  0  0  0  0  0  0  0  0
   -0.9554    0.2249   -0.0547 C   0  0  0  0  0  0  0  0  0  0  0  0
    0.2568    0.7865   -0.7447 C   0  0  0  0  0  0  0  0  0  0  0  0
    1.4647    0.1471   -0.2224 C   0  0  0  0  0  0  0  0  0  0  0  0
    2.4571   -0.3733    0.2278 C   0  0  0  0  0  0  0  0  0  0  0  0
    3.6302   -0.9959    0.7810 C   0  0  0  0  0  0  0  0  0  0  0  0
    3.9756   -2.1759    0.5126 O   0  0  0  0  0  0  0  0  0  0  0  0
   -2.1638    1.0494    0.1698 C   0  0  0  0  0  0  0  0  0  0  0  0
   -1.2192    0.8564    1.3068 C   0  0  0  0  0  0  0  0  0  0  0  0
   -0.5636   -1.8224    0.5166 H   0  0  0  0  0  0  0  0  0  0  0  0
   -0.8635   -1.5250   -1.2398 H   0  0  0  0  0  0  0  0  0  0  0  0
   -2.2542   -1.5250   -0.1239 H   0  0  0  0  0  0  0  0  0  0  0  0
    0.2379    0.6587   -1.8433 H   0  0  0  0  0  0  0  0  0  0  0  0
    0.3083    1.9014   -0.5751 H   0  0  0  0  0  0  0  0  0  0  0  0
    4.2469   -0.4224    1.4617 H   0  0  0  0  0  0  0  0  0  0  0  0
   -2.1778    2.0246   -0.3449 H   0  0  0  0  0  0  0  0  0  0  0  0
   -3.1425    0.5720    0.2819 H   0  0  0  0  0  0  0  0  0  0  0  0
   -0.6472    1.7524    1.5957 H   0  0  0  0  0  0  0  0  0  0  0  0
   -1.4167    0.1199    2.0946 H   0  0  0  0  0  0  0  0  0  0  0  0
  1  2  1  0
  2  3  1  0
  3  4  1  0
  4  5  3  0
  5  6  1  0
  6  7  2  0
  2  8  1  0
  8  9  1  0
  9  2  1  0
  1 10  1  0
  1 11  1  0
  1 12  1  0
  3 13  1  0
  3 14  1  0
  6 15  1  0
  8 16  1  0
  8 17  1  0
  9 18  1  0
  9 19  1  0
M  END
