
     RDKit          3D

 25 26  0  0  0  0  0  0  0  0999 V2000
   -1.9310   -0.7591    1.2997 C   0  0  0  0  0  0  0  0  0  0  0  0
   -1.1418   -0.1075    0.1645 C   0  0  0  0  0  0  0  0  0  0  0  0
   -1.9328    0.7708   -0.7353 C   0  0  0  0  0  0  0  0  0  0  0  0
   -0.4005   -1.1769   -0.6384 C   0  0  0  0  0  0  0  0  0  0  0  0
    0.7959   -0.9177    0.2451 C   0  0  0  0  0  0  0  0  0  0  0  0
    2.0390   -0.6095   -0.5264 C   0  0  0  0  0  0  0  0  0  0  0  0
    2.3229    0.8309   -0.0900 C   0  0  0  0  0  0  0  0  0  0  0  0
    0.8945    1.3920   -0.1730 C   0  0  0  0  0  0  0  0  0  0  0  0
    0.1665    0.3776    0.6587 C   0  0  0  0  0  0  0  0  0  0  0  0
   -2.3330    0.0156    1.9722 H   0  0  0  0  0  0  0  0  0  0  0  0
   -2.6582   -1.4896    0.9443 H   0  0  0  0  0  0  0  0  0  0  0  0
   -1.1540   -1.3060    1.9104 H   0  0  0  0  0  0  0  0  0  0  0  0
   -2.8399    1.1762   -0.2185 H   0  0  0  0  0  0  0  0  0  0  0  0
   -1.3823    1.6032   -1.1714 H   0  0  0  0  0  0  0  0  0  0  0  0
   -2.3427    0.1652   -1.5892 H   0  0  0  0  0  0  0  0  0  0  0  0
   -0.2094   -0.8847   -1.6984 H   0  0  0  0  0  0  0  0  0  0  0  0
   -0.8342   -2.1899   -0.5052 H   0  0  0  0  0  0  0  0  0  0  0  0
    0.9158   -1.5829    1.1107 H   0  0  0  0  0  0  0  0  0  0  0  0
    1.8148   -0.5935   -1.6280 H   0  0  0  0  0  0  0  0  0  0  0  0
    2.8869   -1.2469   -0.2751 H   0  0  0  0  0  0  0  0  0  0  0  0
    2.5768    0.8221    0.9773 H   0  0  0  0  0  0  0  0  0  0  0  0
    3.0134    1.3453   -0.7447 H   0  0  0  0  0  0  0  0  0  0  0  0
    0.9007    2.3975    0.2382 H   0  0  0  0  0  0  0  0  0  0  0  0
    0.6387    1.3377   -1.2540 H   0  0  0  0  0  0  0  0  0  0  0  0
    0.1939    0.6299    1.7266 H   0  0  0  0  0  0  0  0  0  0  0  0
  1  2  1  0
  2  3  1  0
  2  4  1  0
  4  5  1  0
  5  6  1  0
  6  7  1  0
  7  8  1  0
  8  9  1  0
  9  2  1  0
  9  5  1  0
  1 10  1  0
  1 11  1  0
  1 12  1  0
  3 13  1  0
  3 14  1  0
  3 15  1  0
  4 16  1  0
  4 17  1  0
  5 18  1  0
  6 19  1  0
  6 20  1  0
  7 21  1  0
  7 22  1  0
  8 23  1  0
  8 24  1  0
  9 25  1  0
M  END
