
     RDKit          3D

 25 26  0  0  0  0  0  0  0  0999 V2000
   -1.8363   -0.3122   -1.1229 C   0  0  0  0  0  0  0  0  0  0  0  0
   -1.0414   -0.1827    0.1443 C   0  0  0  0  0  0  0  0  0  0  0  0
   -1.8930   -0.7616    1.2699 C   0  0  0  0  0  0  0  0  0  0  0  0
   -0.6996    1.2565    0.4340 C   0  0  0  0  0  0  0  0  0  0  0  0
    0.6979    1.4951   -0.0733 C   0  0  0  0  0  0  0  0  0  0  0  0
    1.3523    0.1491   -0.0513 C   0  0  0  0  0  0  0  0  0  0  0  0
    2.7363    0.0131    0.4611 C   0  0  0  0  0  0  0  0  0  0  0  0
    1.0277   -0.8143   -1.2070 C   0  0  0  0  0  0  0  0  0  0  0  0
    0.3075   -0.8552    0.0705 C   0  0  0  0  0  0  0  0  0  0  0  0
   -2.7593   -0.9397   -0.9826 H   0  0  0  0  0  0  0  0  0  0  0  0
   -2.2211    0.6941   -1.4239 H   0  0  0  0  0  0  0  0  0  0  0  0
   -1.2816   -0.7968   -1.9496 H   0  0  0  0  0  0  0  0  0  0  0  0
   -1.9627   -0.0142    2.0917 H   0  0  0  0  0  0  0  0  0  0  0  0
   -1.5103   -1.7433    1.6066 H   0  0  0  0  0  0  0  0  0  0  0  0
   -2.9456   -0.9362    0.9353 H   0  0  0  0  0  0  0  0  0  0  0  0
   -1.4129    1.9460   -0.0706 H   0  0  0  0  0  0  0  0  0  0  0  0
   -0.7476    1.3869    1.5360 H   0  0  0  0  0  0  0  0  0  0  0  0
    0.7213    1.9045   -1.1087 H   0  0  0  0  0  0  0  0  0  0  0  0
    1.2753    2.1612    0.5965 H   0  0  0  0  0  0  0  0  0  0  0  0
    3.1063   -1.0163    0.3482 H   0  0  0  0  0  0  0  0  0  0  0  0
    3.4002    0.6612   -0.1831 H   0  0  0  0  0  0  0  0  0  0  0  0
    2.8901    0.3883    1.4917 H   0  0  0  0  0  0  0  0  0  0  0  0
    0.6844   -0.2743   -2.0974 H   0  0  0  0  0  0  0  0  0  0  0  0
    1.7287   -1.6389   -1.4065 H   0  0  0  0  0  0  0  0  0  0  0  0
    0.3834   -1.7701    0.6909 H   0  0  0  0  0  0  0  0  0  0  0  0
  1  2  1  0
  2  3  1  0
  2  4  1  0
  4  5  1  0
  5  6  1  0
  6  7  1  0
  6  8  1  0
  8  9  1  0
  9  2  1  0
  9  6  1  0
  1 10  1  0
  1 11  1  0
  1 12  1  0
  3 13  1  0
  3 14  1  0
  3 15  1  0
  4 16  1  0
  4 17  1  0
  5 18  1  0
  5 19  1  0
  7 20  1  0
  7 21  1  0
  7 22  1  0
  8 23  1  0
  8 24  1  0
  9 25  1  0
M  END
