
     RDKit          3D

 19 20  0  0  0  0  0  0  0  0999 V2000
   -2.2253    0.0063    1.3995 C   0  0  0  0  0  0  0  0  0  0  0  0
   -1.3126    0.1602    0.2085 C   0  0  0  0  0  0  0  0  0  0  0  0
   -1.9111   -0.0410   -1.1080 C   0  0  0  0  0  0  0  0  0  0  0  0
   -1.2183    0.0715   -2.1004 O   0  0  0  0  0  0  0  0  0  0  0  0
   -0.6387    1.4915    0.3404 O   0  0  0  0  0  0  0  0  0  0  0  0
    0.1120    0.2136    0.4596 C   0  0  0  0  0  0  0  0  0  0  0  0
    1.1468    0.1599   -0.6239 C   0  0  0  0  0  0  0  0  0  0  0  0
    2.6088    0.2344   -0.1042 C   0  0  0  0  0  0  0  0  0  0  0  0
    2.0698   -0.9788   -0.7534 C   0  0  0  0  0  0  0  0  0  0  0  0
   -1.6809    0.0122    2.3512 H   0  0  0  0  0  0  0  0  0  0  0  0
   -2.8746    0.9304    1.4089 H   0  0  0  0  0  0  0  0  0  0  0  0
   -2.8970   -0.8417    1.3276 H   0  0  0  0  0  0  0  0  0  0  0  0
   -2.9552   -0.2881   -1.2313 H   0  0  0  0  0  0  0  0  0  0  0  0
    0.4580    0.1349    1.5057 H   0  0  0  0  0  0  0  0  0  0  0  0
    0.9718    0.7298   -1.5838 H   0  0  0  0  0  0  0  0  0  0  0  0
    3.2592    0.9496   -0.6022 H   0  0  0  0  0  0  0  0  0  0  0  0
    2.7469    0.1710    0.9933 H   0  0  0  0  0  0  0  0  0  0  0  0
    2.4790   -1.2429   -1.7547 H   0  0  0  0  0  0  0  0  0  0  0  0
    1.8614   -1.8727   -0.1329 H   0  0  0  0  0  0  0  0  0  0  0  0
  1  2  1  0
  2  3  1  0
  3  4  2  0
  2  5  1  0
  5  6  1  0
  6  7  1  0
  7  8  1  0
  8  9  1  0
  6  2  1  0
  9  7  1  0
  1 10  1  0
  1 11  1  0
  1 12  1  0
  3 13  1  0
  6 14  1  0
  7 15  1  0
  8 16  1  0
  8 17  1  0
  9 18  1  0
  9 19  1  0
M  END
