
     RDKit          3D

 21 22  0  0  0  0  0  0  0  0999 V2000
   -1.4935   -1.0903    0.9904 C   0  0  0  0  0  0  0  0  0  0  0  0
   -0.8518   -0.0946    0.0203 C   0  0  0  0  0  0  0  0  0  0  0  0
   -1.8138    0.3970   -1.0081 C   0  0  0  0  0  0  0  0  0  0  0  0
   -1.2470    1.1272   -2.0359 O   0  0  0  0  0  0  0  0  0  0  0  0
   -0.1758    0.9281    0.6360 O   0  0  0  0  0  0  0  0  0  0  0  0
    1.0859    0.5007    0.2293 C   0  0  0  0  0  0  0  0  0  0  0  0
    2.1676    0.2224    1.2120 C   0  0  0  0  0  0  0  0  0  0  0  0
    1.3719    0.3017   -1.1935 C   0  0  0  0  0  0  0  0  0  0  0  0
    0.4169   -0.6158   -0.5305 C   0  0  0  0  0  0  0  0  0  0  0  0
   -2.1164   -1.7630    0.3360 H   0  0  0  0  0  0  0  0  0  0  0  0
   -2.1935   -0.5839    1.6871 H   0  0  0  0  0  0  0  0  0  0  0  0
   -0.7213   -1.6224    1.5440 H   0  0  0  0  0  0  0  0  0  0  0  0
   -2.5240    1.0876   -0.4887 H   0  0  0  0  0  0  0  0  0  0  0  0
   -2.3634   -0.4796   -1.4413 H   0  0  0  0  0  0  0  0  0  0  0  0
   -1.0890    2.0653   -1.7548 H   0  0  0  0  0  0  0  0  0  0  0  0
    2.4401   -0.8475    1.2766 H   0  0  0  0  0  0  0  0  0  0  0  0
    3.0906    0.7917    0.8972 H   0  0  0  0  0  0  0  0  0  0  0  0
    1.9457    0.6158    2.2380 H   0  0  0  0  0  0  0  0  0  0  0  0
    2.3527   -0.1749   -1.4351 H   0  0  0  0  0  0  0  0  0  0  0  0
    1.0050    0.9160   -2.0091 H   0  0  0  0  0  0  0  0  0  0  0  0
    0.7130   -1.6818   -0.3419 H   0  0  0  0  0  0  0  0  0  0  0  0
  1  2  1  0
  2  3  1  0
  3  4  1  0
  2  5  1  0
  5  6  1  0
  6  7  1  0
  6  8  1  0
  8  9  1  0
  9  2  1  0
  9  6  1  0
  1 10  1  0
  1 11  1  0
  1 12  1  0
  3 13  1  0
  3 14  1  0
  4 15  1  0
  7 16  1  0
  7 17  1  0
  7 18  1  0
  8 19  1  0
  8 20  1  0
  9 21  1  0
M  END
