
     RDKit          3D

 23 24  0  0  0  0  0  0  0  0999 V2000
   -1.6600    1.2268   -0.3804 C   0  0  0  0  0  0  0  0  0  0  0  0
   -1.3268   -0.1360    0.0653 C   0  0  0  0  0  0  0  0  0  0  0  0
   -2.4588   -0.9770   -0.0209 O   0  0  0  0  0  0  0  0  0  0  0  0
   -0.7925   -0.1153    1.5039 C   0  0  0  0  0  0  0  0  0  0  0  0
    0.5272   -0.6125    0.9998 C   0  0  0  0  0  0  0  0  0  0  0  0
    1.5809    0.4153    0.7381 C   0  0  0  0  0  0  0  0  0  0  0  0
    2.1072    0.0012   -0.6223 C   0  0  0  0  0  0  0  0  0  0  0  0
    0.7934   -0.2705   -1.3673 C   0  0  0  0  0  0  0  0  0  0  0  0
   -0.1150   -0.8221   -0.3555 C   0  0  0  0  0  0  0  0  0  0  0  0
   -2.6116    1.2659   -0.9896 H   0  0  0  0  0  0  0  0  0  0  0  0
   -1.9043    1.8679    0.5182 H   0  0  0  0  0  0  0  0  0  0  0  0
   -0.9112    1.7668   -0.9476 H   0  0  0  0  0  0  0  0  0  0  0  0
   -2.3072   -1.6950   -0.7139 H   0  0  0  0  0  0  0  0  0  0  0  0
   -0.6769    0.9061    1.9227 H   0  0  0  0  0  0  0  0  0  0  0  0
   -1.3494   -0.7822    2.1726 H   0  0  0  0  0  0  0  0  0  0  0  0
    0.9327   -1.5083    1.4854 H   0  0  0  0  0  0  0  0  0  0  0  0
    2.3712    0.4384    1.5109 H   0  0  0  0  0  0  0  0  0  0  0  0
    1.1068    1.4013    0.6431 H   0  0  0  0  0  0  0  0  0  0  0  0
    2.6354    0.8761   -1.0433 H   0  0  0  0  0  0  0  0  0  0  0  0
    2.7309   -0.9093   -0.5620 H   0  0  0  0  0  0  0  0  0  0  0  0
    1.0778   -1.0261   -2.1582 H   0  0  0  0  0  0  0  0  0  0  0  0
    0.4897    0.6240   -1.8924 H   0  0  0  0  0  0  0  0  0  0  0  0
   -0.2395   -1.9356   -0.5068 H   0  0  0  0  0  0  0  0  0  0  0  0
  1  2  1  0
  2  3  1  0
  2  4  1  0
  4  5  1  0
  5  6  1  0
  6  7  1  0
  7  8  1  0
  8  9  1  0
  9  2  1  0
  9  5  1  0
  1 10  1  0
  1 11  1  0
  1 12  1  0
  3 13  1  0
  4 14  1  0
  4 15  1  0
  5 16  1  0
  6 17  1  0
  6 18  1  0
  7 19  1  0
  7 20  1  0
  8 21  1  0
  8 22  1  0
  9 23  1  0
M  END
