
     RDKit          3D

 19 19  0  0  0  0  0  0  0  0999 V2000
   -1.6789    0.4738    0.6130 C   0  0  0  0  0  0  0  0  0  0  0  0
   -0.4582   -0.0606   -0.1144 C   0  0  0  0  0  0  0  0  0  0  0  0
   -0.9414   -1.1977   -1.0135 C   0  0  0  0  0  0  0  0  0  0  0  0
    0.5696   -0.6110    0.8453 C   0  0  0  0  0  0  0  0  0  0  0  0
    1.8831   -0.0920    0.3808 C   0  0  0  0  0  0  0  0  0  0  0  0
    2.9848   -0.4580    0.7050 O   0  0  0  0  0  0  0  0  0  0  0  0
    1.6349    1.0152   -0.6050 C   0  0  0  0  0  0  0  0  0  0  0  0
    0.2009    0.9940   -0.8973 C   0  0  0  0  0  0  0  0  0  0  0  0
   -0.3633    1.7367   -1.6717 O   0  0  0  0  0  0  0  0  0  0  0  0
   -2.6314    0.1430    0.1185 H   0  0  0  0  0  0  0  0  0  0  0  0
   -1.6963    0.1589    1.6724 H   0  0  0  0  0  0  0  0  0  0  0  0
   -1.6269    1.5871    0.5947 H   0  0  0  0  0  0  0  0  0  0  0  0
   -1.7079   -0.8307   -1.7220 H   0  0  0  0  0  0  0  0  0  0  0  0
   -1.3445   -1.9767   -0.3172 H   0  0  0  0  0  0  0  0  0  0  0  0
   -0.0606   -1.6193   -1.5572 H   0  0  0  0  0  0  0  0  0  0  0  0
    0.4117   -0.2989    1.8852 H   0  0  0  0  0  0  0  0  0  0  0  0
    0.5962   -1.7170    0.7910 H   0  0  0  0  0  0  0  0  0  0  0  0
    1.9893    1.9326   -0.1394 H   0  0  0  0  0  0  0  0  0  0  0  0
    2.2386    0.8208   -1.5237 H   0  0  0  0  0  0  0  0  0  0  0  0
  1  2  1  0
  2  3  1  0
  2  4  1  0
  4  5  1  0
  5  6  2  0
  5  7  1  0
  7  8  1  0
  8  9  2  0
  8  2  1  0
  1 10  1  0
  1 11  1  0
  1 12  1  0
  3 13  1  0
  3 14  1  0
  3 15  1  0
  4 16  1  0
  4 17  1  0
  7 18  1  0
  7 19  1  0
M  END
