
     RDKit          3D

 21 21  0  0  0  0  0  0  0  0999 V2000
   -1.7375    0.2634    1.0334 C   0  0  0  0  0  0  0  0  0  0  0  0
   -0.8428    0.0559   -0.1387 C   0  0  0  0  0  0  0  0  0  0  0  0
   -1.2468    0.6057   -1.3418 O   0  0  0  0  0  0  0  0  0  0  0  0
   -0.5006   -1.4241   -0.3628 C   0  0  0  0  0  0  0  0  0  0  0  0
    0.8801   -0.9068   -0.7885 C   0  0  0  0  0  0  0  0  0  0  0  0
    1.8732   -1.7848   -0.4810 O   0  0  0  0  0  0  0  0  0  0  0  0
    0.6461    0.2449    0.1402 C   0  0  0  0  0  0  0  0  0  0  0  0
    1.1944    1.5711   -0.2769 C   0  0  0  0  0  0  0  0  0  0  0  0
    0.8883    0.0054    1.4832 O   0  0  0  0  0  0  0  0  0  0  0  0
   -1.4316    1.1727    1.5981 H   0  0  0  0  0  0  0  0  0  0  0  0
   -1.7484   -0.6487    1.6825 H   0  0  0  0  0  0  0  0  0  0  0  0
   -2.7791    0.3765    0.6514 H   0  0  0  0  0  0  0  0  0  0  0  0
   -1.6847   -0.1003   -1.9038 H   0  0  0  0  0  0  0  0  0  0  0  0
   -1.0507   -1.9088   -1.1658 H   0  0  0  0  0  0  0  0  0  0  0  0
   -0.3679   -1.9875    0.5836 H   0  0  0  0  0  0  0  0  0  0  0  0
    0.8113   -0.5577   -1.8445 H   0  0  0  0  0  0  0  0  0  0  0  0
    2.4365   -1.5708    0.2736 H   0  0  0  0  0  0  0  0  0  0  0  0
    1.2863    1.6459   -1.3781 H   0  0  0  0  0  0  0  0  0  0  0  0
    2.2045    1.6728    0.1960 H   0  0  0  0  0  0  0  0  0  0  0  0
    0.5582    2.4218    0.0820 H   0  0  0  0  0  0  0  0  0  0  0  0
    0.6111    0.8535    1.9579 H   0  0  0  0  0  0  0  0  0  0  0  0
  1  2  1  0
  2  3  1  0
  2  4  1  0
  4  5  1  0
  5  6  1  0
  5  7  1  0
  7  8  1  0
  7  9  1  0
  7  2  1  0
  1 10  1  0
  1 11  1  0
  1 12  1  0
  3 13  1  0
  4 14  1  0
  4 15  1  0
  5 16  1  0
  6 17  1  0
  8 18  1  0
  8 19  1  0
  8 20  1  0
  9 21  1  0
M  END
