
     RDKit          3D

 23 24  0  0  0  0  0  0  0  0999 V2000
   -2.6101   -0.3176   -0.3401 C   0  0  0  0  0  0  0  0  0  0  0  0
   -1.3629    0.1656    0.4139 C   0  0  0  0  0  0  0  0  0  0  0  0
   -1.6539    0.4122    1.7249 O   0  0  0  0  0  0  0  0  0  0  0  0
   -0.7925    1.3937   -0.3067 C   0  0  0  0  0  0  0  0  0  0  0  0
    0.1830    0.4356   -0.9461 C   0  0  0  0  0  0  0  0  0  0  0  0
   -0.1774   -0.6597    0.0879 C   0  0  0  0  0  0  0  0  0  0  0  0
    1.1905   -0.1577   -0.0406 C   0  0  0  0  0  0  0  0  0  0  0  0
    2.1982   -1.0716   -0.7166 C   0  0  0  0  0  0  0  0  0  0  0  0
    1.8233    0.6691    1.0663 C   0  0  0  0  0  0  0  0  0  0  0  0
   -3.3902    0.4562   -0.3576 H   0  0  0  0  0  0  0  0  0  0  0  0
   -2.9278   -1.2568    0.1464 H   0  0  0  0  0  0  0  0  0  0  0  0
   -2.2934   -0.6177   -1.3818 H   0  0  0  0  0  0  0  0  0  0  0  0
   -1.4196   -0.3647    2.2892 H   0  0  0  0  0  0  0  0  0  0  0  0
   -1.4854    1.8309   -1.0506 H   0  0  0  0  0  0  0  0  0  0  0  0
   -0.3374    2.1357    0.3822 H   0  0  0  0  0  0  0  0  0  0  0  0
    0.0685    0.1123   -1.9771 H   0  0  0  0  0  0  0  0  0  0  0  0
   -0.3899   -1.6696   -0.3019 H   0  0  0  0  0  0  0  0  0  0  0  0
    1.9150   -1.2718   -1.7758 H   0  0  0  0  0  0  0  0  0  0  0  0
    3.2056   -0.6470   -0.7350 H   0  0  0  0  0  0  0  0  0  0  0  0
    2.1491   -2.0757   -0.2136 H   0  0  0  0  0  0  0  0  0  0  0  0
    2.5278    1.4257    0.6616 H   0  0  0  0  0  0  0  0  0  0  0  0
    2.4783   -0.0548    1.6342 H   0  0  0  0  0  0  0  0  0  0  0  0
    1.1014    1.1275    1.7370 H   0  0  0  0  0  0  0  0  0  0  0  0
  1  2  1  0
  2  3  1  0
  2  4  1  0
  4  5  1  0
  5  6  1  0
  6  7  1  0
  7  8  1  0
  7  9  1  0
  6  2  1  0
  7  5  1  0
  1 10  1  0
  1 11  1  0
  1 12  1  0
  3 13  1  0
  4 14  1  0
  4 15  1  0
  5 16  1  0
  6 17  1  0
  8 18  1  0
  8 19  1  0
  8 20  1  0
  9 21  1  0
  9 22  1  0
  9 23  1  0
M  END
