
     RDKit          3D

 16 16  0  0  0  0  0  0  0  0999 V2000
   -1.5420   -0.6373   -0.0078 C   0  0  0  0  0  0  0  0  0  0  0  0
   -0.2971    0.2420   -0.0904 C   0  0  0  0  0  0  0  0  0  0  0  0
   -0.6203    1.6704   -0.0850 C   0  0  0  0  0  0  0  0  0  0  0  0
   -0.2590    2.3958   -0.9871 O   0  0  0  0  0  0  0  0  0  0  0  0
    0.5823   -0.1391    1.0769 C   0  0  0  0  0  0  0  0  0  0  0  0
    1.7612   -0.5533    0.5227 O   0  0  0  0  0  0  0  0  0  0  0  0
    1.6438   -0.5800   -0.8387 C   0  0  0  0  0  0  0  0  0  0  0  0
    0.4221   -0.0783   -1.2051 O   0  0  0  0  0  0  0  0  0  0  0  0
   -1.3766   -1.5114    0.6596 H   0  0  0  0  0  0  0  0  0  0  0  0
   -2.4190   -0.0783    0.3530 H   0  0  0  0  0  0  0  0  0  0  0  0
   -1.7422   -1.0482   -1.0248 H   0  0  0  0  0  0  0  0  0  0  0  0
   -1.1858    2.1108    0.7190 H   0  0  0  0  0  0  0  0  0  0  0  0
    0.1645   -0.9738    1.6752 H   0  0  0  0  0  0  0  0  0  0  0  0
    0.7045    0.7178    1.7913 H   0  0  0  0  0  0  0  0  0  0  0  0
    1.7355   -1.5996   -1.2867 H   0  0  0  0  0  0  0  0  0  0  0  0
    2.4281    0.0625   -1.2722 H   0  0  0  0  0  0  0  0  0  0  0  0
  1  2  1  0
  2  3  1  0
  3  4  2  0
  2  5  1  0
  5  6  1  0
  6  7  1  0
  7  8  1  0
  8  2  1  0
  1  9  1  0
  1 10  1  0
  1 11  1  0
  3 12  1  0
  5 13  1  0
  5 14  1  0
  7 15  1  0
  7 16  1  0
M  END
