
     RDKit          3D

 18 19  0  0  0  0  0  0  0  0999 V2000
   -0.7865    1.0936    0.7693 C   0  0  0  0  0  0  0  0  0  0  0  0
   -0.4337   -0.0647   -0.1034 C   0  0  0  0  0  0  0  0  0  0  0  0
   -1.6165   -0.7126   -0.7455 C   0  0  0  0  0  0  0  0  0  0  0  0
    0.5497   -1.0457    0.4587 C   0  0  0  0  0  0  0  0  0  0  0  0
    1.6909   -0.1829    0.9233 C   0  0  0  0  0  0  0  0  0  0  0  0
    1.8253    0.6355   -0.1243 C   0  0  0  0  0  0  0  0  0  0  0  0
    0.7300    0.1182   -1.0210 C   0  0  0  0  0  0  0  0  0  0  0  0
    0.9572   -1.2714   -0.8770 O   0  0  0  0  0  0  0  0  0  0  0  0
   -1.7448    1.5293    0.3725 H   0  0  0  0  0  0  0  0  0  0  0  0
   -0.9915    0.8137    1.8179 H   0  0  0  0  0  0  0  0  0  0  0  0
   -0.0306    1.8956    0.6724 H   0  0  0  0  0  0  0  0  0  0  0  0
   -1.2679   -1.4887   -1.4822 H   0  0  0  0  0  0  0  0  0  0  0  0
   -2.2683   -1.2523   -0.0299 H   0  0  0  0  0  0  0  0  0  0  0  0
   -2.2359    0.0663   -1.2399 H   0  0  0  0  0  0  0  0  0  0  0  0
    0.2468   -1.8638    1.0448 H   0  0  0  0  0  0  0  0  0  0  0  0
    2.2333   -0.2357    1.8563 H   0  0  0  0  0  0  0  0  0  0  0  0
    2.5157    1.4474   -0.3040 H   0  0  0  0  0  0  0  0  0  0  0  0
    0.6269    0.5183   -1.9879 H   0  0  0  0  0  0  0  0  0  0  0  0
  1  2  1  0
  2  3  1  0
  2  4  1  0
  4  5  1  0
  5  6  2  0
  6  7  1  0
  7  8  1  0
  7  2  1  0
  8  4  1  0
  1  9  1  0
  1 10  1  0
  1 11  1  0
  3 12  1  0
  3 13  1  0
  3 14  1  0
  4 15  1  0
  5 16  1  0
  6 17  1  0
  7 18  1  0
M  END
