
     RDKit          3D

 21 21  0  0  0  0  0  0  0  0999 V2000
   -1.0781    0.6141   -1.1216 C   0  0  0  0  0  0  0  0  0  0  0  0
   -0.6709    0.0792    0.2162 C   0  0  0  0  0  0  0  0  0  0  0  0
   -1.4134    0.7968    1.3053 C   0  0  0  0  0  0  0  0  0  0  0  0
   -0.8681    1.3561    2.2236 O   0  0  0  0  0  0  0  0  0  0  0  0
   -0.8805   -1.4116    0.3908 C   0  0  0  0  0  0  0  0  0  0  0  0
    0.6262   -1.5501    0.4970 C   0  0  0  0  0  0  0  0  0  0  0  0
    0.7955   -0.0435    0.4246 C   0  0  0  0  0  0  0  0  0  0  0  0
    1.6834    0.3723   -0.7210 C   0  0  0  0  0  0  0  0  0  0  0  0
    1.5208    1.6978   -1.0842 O   0  0  0  0  0  0  0  0  0  0  0  0
   -0.6532    0.0516   -1.9678 H   0  0  0  0  0  0  0  0  0  0  0  0
   -2.1948    0.5239   -1.2328 H   0  0  0  0  0  0  0  0  0  0  0  0
   -0.8162    1.6984   -1.1368 H   0  0  0  0  0  0  0  0  0  0  0  0
   -2.4926    0.7901    1.2282 H   0  0  0  0  0  0  0  0  0  0  0  0
   -1.3600   -1.7145    1.3378 H   0  0  0  0  0  0  0  0  0  0  0  0
   -1.3413   -1.9319   -0.4602 H   0  0  0  0  0  0  0  0  0  0  0  0
    0.9709   -1.9543    1.4797 H   0  0  0  0  0  0  0  0  0  0  0  0
    1.0138   -2.1136   -0.3629 H   0  0  0  0  0  0  0  0  0  0  0  0
    1.1622    0.4020    1.3643 H   0  0  0  0  0  0  0  0  0  0  0  0
    2.7408    0.2498   -0.4065 H   0  0  0  0  0  0  0  0  0  0  0  0
    1.5497   -0.2439   -1.6230 H   0  0  0  0  0  0  0  0  0  0  0  0
    1.7056    2.3313   -0.3508 H   0  0  0  0  0  0  0  0  0  0  0  0
  1  2  1  0
  2  3  1  0
  3  4  2  0
  2  5  1  0
  5  6  1  0
  6  7  1  0
  7  8  1  0
  8  9  1  0
  7  2  1  0
  1 10  1  0
  1 11  1  0
  1 12  1  0
  3 13  1  0
  5 14  1  0
  5 15  1  0
  6 16  1  0
  6 17  1  0
  7 18  1  0
  8 19  1  0
  8 20  1  0
  9 21  1  0
M  END
