
     RDKit          3D

 15 15  0  0  0  0  0  0  0  0999 V2000
    1.5688   -0.2062   -0.4282 C   0  0  0  0  0  0  0  0  0  0  0  0
    0.1313    0.0612   -0.1573 C   0  0  0  0  0  0  0  0  0  0  0  0
   -0.2086    1.4923    0.2416 C   0  0  0  0  0  0  0  0  0  0  0  0
   -0.5870   -0.9320    0.7214 C   0  0  0  0  0  0  0  0  0  0  0  0
   -1.4943   -0.9993   -0.4448 C   0  0  0  0  0  0  0  0  0  0  0  0
   -2.6213   -1.5228   -0.6199 O   0  0  0  0  0  0  0  0  0  0  0  0
   -0.6708   -0.2788   -1.2955 O   0  0  0  0  0  0  0  0  0  0  0  0
    2.1583   -0.4583    0.4711 H   0  0  0  0  0  0  0  0  0  0  0  0
    1.7579   -0.9643   -1.2106 H   0  0  0  0  0  0  0  0  0  0  0  0
    2.0181    0.7488   -0.8259 H   0  0  0  0  0  0  0  0  0  0  0  0
    0.1253    1.7233    1.2528 H   0  0  0  0  0  0  0  0  0  0  0  0
    0.2004    2.1560   -0.5336 H   0  0  0  0  0  0  0  0  0  0  0  0
   -1.3356    1.5231    0.2610 H   0  0  0  0  0  0  0  0  0  0  0  0
   -0.0310   -1.8665    0.9333 H   0  0  0  0  0  0  0  0  0  0  0  0
   -1.0115   -0.4766    1.6346 H   0  0  0  0  0  0  0  0  0  0  0  0
  1  2  1  0
  2  3  1  0
  2  4  1  0
  4  5  1  0
  5  6  2  0
  5  7  1  0
  7  2  1  0
  1  8  1  0
  1  9  1  0
  1 10  1  0
  3 11  1  0
  3 12  1  0
  3 13  1  0
  4 14  1  0
  4 15  1  0
M  END
