
     RDKit          3D

 21 22  0  0  0  0  0  0  0  0999 V2000
   -1.1631    0.7391   -1.6377 C   0  0  0  0  0  0  0  0  0  0  0  0
   -0.6414    0.1796   -0.3519 C   0  0  0  0  0  0  0  0  0  0  0  0
    0.7937    0.4438   -0.0306 C   0  0  0  0  0  0  0  0  0  0  0  0
    1.3060   -0.1144    1.2475 C   0  0  0  0  0  0  0  0  0  0  0  0
    1.8485   -0.5657   -0.1322 C   0  0  0  0  0  0  0  0  0  0  0  0
    3.1497   -0.1279   -0.3982 O   0  0  0  0  0  0  0  0  0  0  0  0
   -1.2077   -1.1381   -0.0133 C   0  0  0  0  0  0  0  0  0  0  0  0
   -2.3387   -0.4873    0.5314 O   0  0  0  0  0  0  0  0  0  0  0  0
   -1.5178    0.5767    0.8430 C   0  0  0  0  0  0  0  0  0  0  0  0
   -1.1215    0.0042   -2.4799 H   0  0  0  0  0  0  0  0  0  0  0  0
   -0.6156    1.6391   -1.9867 H   0  0  0  0  0  0  0  0  0  0  0  0
   -2.2441    0.9669   -1.5035 H   0  0  0  0  0  0  0  0  0  0  0  0
    1.0978    1.5097   -0.2148 H   0  0  0  0  0  0  0  0  0  0  0  0
    0.7660   -0.8854    1.8155 H   0  0  0  0  0  0  0  0  0  0  0  0
    1.9961    0.4838    1.8796 H   0  0  0  0  0  0  0  0  0  0  0  0
    1.5360   -1.5659   -0.4873 H   0  0  0  0  0  0  0  0  0  0  0  0
    3.6186   -0.0906    0.4790 H   0  0  0  0  0  0  0  0  0  0  0  0
   -1.5585   -1.7839   -0.8574 H   0  0  0  0  0  0  0  0  0  0  0  0
   -0.7346   -1.7565    0.7421 H   0  0  0  0  0  0  0  0  0  0  0  0
   -1.0035    0.3917    1.8055 H   0  0  0  0  0  0  0  0  0  0  0  0
   -1.9659    1.5810    0.7499 H   0  0  0  0  0  0  0  0  0  0  0  0
  1  2  1  0
  2  3  1  0
  3  4  1  0
  4  5  1  0
  5  6  1  0
  2  7  1  0
  7  8  1  0
  8  9  1  0
  9  2  1  0
  5  3  1  0
  1 10  1  0
  1 11  1  0
  1 12  1  0
  3 13  1  0
  4 14  1  0
  4 15  1  0
  5 16  1  0
  6 17  1  0
  7 18  1  0
  7 19  1  0
  9 20  1  0
  9 21  1  0
M  END
