
     RDKit          3D

 23 24  0  0  0  0  0  0  0  0999 V2000
   -1.8372   -0.8820    0.3309 C   0  0  0  0  0  0  0  0  0  0  0  0
   -0.7166    0.0704    0.0440 C   0  0  0  0  0  0  0  0  0  0  0  0
   -1.3191    1.4304   -0.1436 C   0  0  0  0  0  0  0  0  0  0  0  0
    0.0787   -0.3699   -1.2017 C   0  0  0  0  0  0  0  0  0  0  0  0
    1.4146   -0.5898   -0.5760 C   0  0  0  0  0  0  0  0  0  0  0  0
    1.0415   -1.3227    0.7122 C   0  0  0  0  0  0  0  0  0  0  0  0
    0.3915    0.0298    1.0500 C   0  0  0  0  0  0  0  0  0  0  0  0
    1.6028    0.6113    0.3603 C   0  0  0  0  0  0  0  0  0  0  0  0
    1.4444    1.7996   -0.2803 O   0  0  0  0  0  0  0  0  0  0  0  0
   -1.6266   -1.9256    0.1174 H   0  0  0  0  0  0  0  0  0  0  0  0
   -2.6868   -0.5861   -0.3528 H   0  0  0  0  0  0  0  0  0  0  0  0
   -2.2061   -0.6786    1.3501 H   0  0  0  0  0  0  0  0  0  0  0  0
   -2.3657    1.4788    0.2752 H   0  0  0  0  0  0  0  0  0  0  0  0
   -0.7698    2.2474    0.3206 H   0  0  0  0  0  0  0  0  0  0  0  0
   -1.4702    1.5652   -1.2513 H   0  0  0  0  0  0  0  0  0  0  0  0
   -0.3316   -1.3365   -1.5082 H   0  0  0  0  0  0  0  0  0  0  0  0
    0.0467    0.3993   -1.9773 H   0  0  0  0  0  0  0  0  0  0  0  0
    2.2455   -0.9272   -1.1286 H   0  0  0  0  0  0  0  0  0  0  0  0
    0.3510   -2.1438    0.5683 H   0  0  0  0  0  0  0  0  0  0  0  0
    1.9315   -1.4998    1.3379 H   0  0  0  0  0  0  0  0  0  0  0  0
    0.2127    0.2438    2.0726 H   0  0  0  0  0  0  0  0  0  0  0  0
    2.5338    0.4613    0.9311 H   0  0  0  0  0  0  0  0  0  0  0  0
    2.0347    1.9249   -1.0505 H   0  0  0  0  0  0  0  0  0  0  0  0
  1  2  1  0
  2  3  1  0
  2  4  1  0
  4  5  1  0
  5  6  1  0
  6  7  1  0
  7  8  1  0
  8  9  1  0
  7  2  1  0
  8  5  1  0
  1 10  1  0
  1 11  1  0
  1 12  1  0
  3 13  1  0
  3 14  1  0
  3 15  1  0
  4 16  1  0
  4 17  1  0
  5 18  1  0
  6 19  1  0
  6 20  1  0
  7 21  1  0
  8 22  1  0
  9 23  1  0
M  END
