
     RDKit          3D

 25 25  0  0  0  0  0  0  0  0999 V2000
   -1.9496   -0.7372   -0.8782 C   0  0  0  0  0  0  0  0  0  0  0  0
   -0.7815   -0.1604   -0.0847 C   0  0  0  0  0  0  0  0  0  0  0  0
   -1.4285    0.5985    1.0825 C   0  0  0  0  0  0  0  0  0  0  0  0
   -0.0313    0.7725   -0.9860 C   0  0  0  0  0  0  0  0  0  0  0  0
    0.8711    1.6141   -0.0830 C   0  0  0  0  0  0  0  0  0  0  0  0
    2.0121    0.7041    0.3657 C   0  0  0  0  0  0  0  0  0  0  0  0
    2.1369   -0.3464   -0.5050 O   0  0  0  0  0  0  0  0  0  0  0  0
    1.3772   -1.4392   -0.2443 C   0  0  0  0  0  0  0  0  0  0  0  0
    0.1057   -1.1949    0.4931 C   0  0  0  0  0  0  0  0  0  0  0  0
   -1.6902   -0.9005   -1.9267 H   0  0  0  0  0  0  0  0  0  0  0  0
   -2.7669    0.0404   -0.8693 H   0  0  0  0  0  0  0  0  0  0  0  0
   -2.3843   -1.6183   -0.3768 H   0  0  0  0  0  0  0  0  0  0  0  0
   -1.6901    1.6085    0.7380 H   0  0  0  0  0  0  0  0  0  0  0  0
   -2.4023    0.1137    1.3693 H   0  0  0  0  0  0  0  0  0  0  0  0
   -0.7865    0.5918    1.9747 H   0  0  0  0  0  0  0  0  0  0  0  0
    0.6402    0.1303   -1.6233 H   0  0  0  0  0  0  0  0  0  0  0  0
   -0.6901    1.3708   -1.6068 H   0  0  0  0  0  0  0  0  0  0  0  0
    1.2156    2.4890   -0.6336 H   0  0  0  0  0  0  0  0  0  0  0  0
    0.3268    1.8920    0.8526 H   0  0  0  0  0  0  0  0  0  0  0  0
    1.9435    0.4262    1.4194 H   0  0  0  0  0  0  0  0  0  0  0  0
    2.9415    1.3361    0.2481 H   0  0  0  0  0  0  0  0  0  0  0  0
    1.1522   -1.9991   -1.1797 H   0  0  0  0  0  0  0  0  0  0  0  0
    1.9922   -2.1402    0.3915 H   0  0  0  0  0  0  0  0  0  0  0  0
   -0.4623   -2.1664    0.5049 H   0  0  0  0  0  0  0  0  0  0  0  0
    0.3486   -0.9854    1.5575 H   0  0  0  0  0  0  0  0  0  0  0  0
  1  2  1  0
  2  3  1  0
  2  4  1  0
  4  5  1  0
  5  6  1  0
  6  7  1  0
  7  8  1  0
  8  9  1  0
  9  2  1  0
  1 10  1  0
  1 11  1  0
  1 12  1  0
  3 13  1  0
  3 14  1  0
  3 15  1  0
  4 16  1  0
  4 17  1  0
  5 18  1  0
  5 19  1  0
  6 20  1  0
  6 21  1  0
  8 22  1  0
  8 23  1  0
  9 24  1  0
  9 25  1  0
M  END
