
     RDKit          3D

 23 24  0  0  0  0  0  0  0  0999 V2000
   -2.5751   -0.7232   -0.2959 C   0  0  0  0  0  0  0  0  0  0  0  0
   -1.2013   -0.1299   -0.0861 C   0  0  0  0  0  0  0  0  0  0  0  0
   -1.2093    1.1563    0.7010 C   0  0  0  0  0  0  0  0  0  0  0  0
   -0.0159   -0.9951   -0.1634 C   0  0  0  0  0  0  0  0  0  0  0  0
    1.2236   -0.7558    0.6419 C   0  0  0  0  0  0  0  0  0  0  0  0
    2.2649   -0.1607   -0.2765 C   0  0  0  0  0  0  0  0  0  0  0  0
    1.7808    0.9830   -1.0698 C   0  0  0  0  0  0  0  0  0  0  0  0
    0.5032    0.9643   -1.4927 O   0  0  0  0  0  0  0  0  0  0  0  0
   -0.2507   -0.1260   -1.2876 C   0  0  0  0  0  0  0  0  0  0  0  0
   -2.5553   -1.8195   -0.4072 H   0  0  0  0  0  0  0  0  0  0  0  0
   -3.1003   -0.2506   -1.1640 H   0  0  0  0  0  0  0  0  0  0  0  0
   -3.1784   -0.4941    0.6030 H   0  0  0  0  0  0  0  0  0  0  0  0
   -1.7084    1.9269    0.0467 H   0  0  0  0  0  0  0  0  0  0  0  0
   -0.1569    1.5307    0.8084 H   0  0  0  0  0  0  0  0  0  0  0  0
   -1.7495    1.0849    1.6416 H   0  0  0  0  0  0  0  0  0  0  0  0
   -0.2443   -2.0935   -0.3003 H   0  0  0  0  0  0  0  0  0  0  0  0
    1.0424   -0.1158    1.5450 H   0  0  0  0  0  0  0  0  0  0  0  0
    1.6660   -1.6978    1.0468 H   0  0  0  0  0  0  0  0  0  0  0  0
    3.1099    0.1809    0.3681 H   0  0  0  0  0  0  0  0  0  0  0  0
    2.6607   -0.9358   -0.9385 H   0  0  0  0  0  0  0  0  0  0  0  0
    1.9363    1.9208   -0.4578 H   0  0  0  0  0  0  0  0  0  0  0  0
    2.4576    1.1278   -1.9569 H   0  0  0  0  0  0  0  0  0  0  0  0
   -0.7001   -0.5780   -2.2171 H   0  0  0  0  0  0  0  0  0  0  0  0
  1  2  1  0
  2  3  1  0
  2  4  1  0
  4  5  1  0
  5  6  1  0
  6  7  1  0
  7  8  1  0
  8  9  1  0
  9  2  1  0
  9  4  1  0
  1 10  1  0
  1 11  1  0
  1 12  1  0
  3 13  1  0
  3 14  1  0
  3 15  1  0
  4 16  1  0
  5 17  1  0
  5 18  1  0
  6 19  1  0
  6 20  1  0
  7 21  1  0
  7 22  1  0
  9 23  1  0
M  END
