
     RDKit          3D

 17 18  0  0  0  0  0  0  0  0999 V2000
   -1.7428    0.8475    0.6585 C   0  0  0  0  0  0  0  0  0  0  0  0
   -0.6361    0.2595   -0.2175 C   0  0  0  0  0  0  0  0  0  0  0  0
   -0.4414    0.9197   -1.4070 O   0  0  0  0  0  0  0  0  0  0  0  0
   -0.8322   -1.2113   -0.3074 C   0  0  0  0  0  0  0  0  0  0  0  0
   -1.6078   -1.8952   -0.9309 O   0  0  0  0  0  0  0  0  0  0  0  0
    0.2537   -1.4982    0.6306 C   0  0  0  0  0  0  0  0  0  0  0  0
    0.5008   -0.6787    1.7150 O   0  0  0  0  0  0  0  0  0  0  0  0
    0.6440   -0.0158    0.5281 C   0  0  0  0  0  0  0  0  0  0  0  0
    1.9690    0.1858   -0.1215 C   0  0  0  0  0  0  0  0  0  0  0  0
   -2.2374    0.0603    1.2691 H   0  0  0  0  0  0  0  0  0  0  0  0
   -1.3094    1.5668    1.3903 H   0  0  0  0  0  0  0  0  0  0  0  0
   -2.5010    1.3034    0.0232 H   0  0  0  0  0  0  0  0  0  0  0  0
   -0.0368    1.8061   -1.1964 H   0  0  0  0  0  0  0  0  0  0  0  0
    1.0042   -2.2594    0.4464 H   0  0  0  0  0  0  0  0  0  0  0  0
    2.1015   -0.6039   -0.9182 H   0  0  0  0  0  0  0  0  0  0  0  0
    2.7520    0.0453    0.6545 H   0  0  0  0  0  0  0  0  0  0  0  0
    2.1195    1.1681   -0.5793 H   0  0  0  0  0  0  0  0  0  0  0  0
  1  2  1  0
  2  3  1  0
  2  4  1  0
  4  5  2  0
  4  6  1  0
  6  7  1  0
  7  8  1  0
  8  9  1  0
  8  2  1  0
  8  6  1  0
  1 10  1  0
  1 11  1  0
  1 12  1  0
  3 13  1  0
  6 14  1  0
  9 15  1  0
  9 16  1  0
  9 17  1  0
M  END
