
     RDKit          3D

 23 24  0  0  0  0  0  0  0  0999 V2000
   -2.7036    1.1033   -0.3556 C   0  0  0  0  0  0  0  0  0  0  0  0
   -1.5699    0.2224    0.1310 C   0  0  0  0  0  0  0  0  0  0  0  0
   -1.9376   -1.2309    0.2250 C   0  0  0  0  0  0  0  0  0  0  0  0
   -1.0741    0.7943    1.4090 O   0  0  0  0  0  0  0  0  0  0  0  0
   -0.2631    0.7521    0.1654 C   0  0  0  0  0  0  0  0  0  0  0  0
    1.0175    0.0890    0.4350 C   0  0  0  0  0  0  0  0  0  0  0  0
    1.4566   -1.0345   -0.4608 C   0  0  0  0  0  0  0  0  0  0  0  0
    2.8892   -0.5647   -0.1479 C   0  0  0  0  0  0  0  0  0  0  0  0
    2.2643    0.8339   -0.0461 C   0  0  0  0  0  0  0  0  0  0  0  0
   -2.4603    2.1877   -0.1609 H   0  0  0  0  0  0  0  0  0  0  0  0
   -2.8791    0.9910   -1.4406 H   0  0  0  0  0  0  0  0  0  0  0  0
   -3.6315    0.9071    0.2308 H   0  0  0  0  0  0  0  0  0  0  0  0
   -1.5170   -1.6791    1.1629 H   0  0  0  0  0  0  0  0  0  0  0  0
   -1.6667   -1.8098   -0.6779 H   0  0  0  0  0  0  0  0  0  0  0  0
   -3.0498   -1.3459    0.3351 H   0  0  0  0  0  0  0  0  0  0  0  0
   -0.1322    1.8285   -0.1627 H   0  0  0  0  0  0  0  0  0  0  0  0
    1.1573   -0.2166    1.4847 H   0  0  0  0  0  0  0  0  0  0  0  0
    1.3006   -0.8949   -1.5361 H   0  0  0  0  0  0  0  0  0  0  0  0
    1.2731   -2.0512   -0.1204 H   0  0  0  0  0  0  0  0  0  0  0  0
    3.5896   -0.6933   -0.9716 H   0  0  0  0  0  0  0  0  0  0  0  0
    3.1670   -0.9479    0.8354 H   0  0  0  0  0  0  0  0  0  0  0  0
    2.7240    1.4827    0.6997 H   0  0  0  0  0  0  0  0  0  0  0  0
    2.0455    1.2768   -1.0336 H   0  0  0  0  0  0  0  0  0  0  0  0
  1  2  1  0
  2  3  1  0
  2  4  1  0
  4  5  1  0
  5  6  1  0
  6  7  1  0
  7  8  1  0
  8  9  1  0
  5  2  1  0
  9  6  1  0
  1 10  1  0
  1 11  1  0
  1 12  1  0
  3 13  1  0
  3 14  1  0
  3 15  1  0
  5 16  1  0
  6 17  1  0
  7 18  1  0
  7 19  1  0
  8 20  1  0
  8 21  1  0
  9 22  1  0
  9 23  1  0
M  END
