
     RDKit          3D

 18 18  0  0  0  0  0  0  0  0999 V2000
   -1.2794   -0.6675   -0.8211 C   0  0  0  0  0  0  0  0  0  0  0  0
   -0.8393    0.1438    0.3484 C   0  0  0  0  0  0  0  0  0  0  0  0
   -1.3598   -0.1766    1.5721 O   0  0  0  0  0  0  0  0  0  0  0  0
   -0.7800    1.6139    0.0003 C   0  0  0  0  0  0  0  0  0  0  0  0
    0.4214    1.3005   -0.6853 O   0  0  0  0  0  0  0  0  0  0  0  0
    0.6554    0.3823    0.3374 C   0  0  0  0  0  0  0  0  0  0  0  0
    1.4040   -0.8540   -0.0560 C   0  0  0  0  0  0  0  0  0  0  0  0
    2.6561   -0.5662   -0.5614 O   0  0  0  0  0  0  0  0  0  0  0  0
   -0.6179   -0.4608   -1.6891 H   0  0  0  0  0  0  0  0  0  0  0  0
   -2.3560   -0.4385   -1.0808 H   0  0  0  0  0  0  0  0  0  0  0  0
   -1.2168   -1.7523   -0.5415 H   0  0  0  0  0  0  0  0  0  0  0  0
   -0.9481   -1.0529    1.8534 H   0  0  0  0  0  0  0  0  0  0  0  0
   -1.5736    1.9864   -0.6488 H   0  0  0  0  0  0  0  0  0  0  0  0
   -0.5119    2.2268    0.8845 H   0  0  0  0  0  0  0  0  0  0  0  0
    1.0225    0.9134    1.2336 H   0  0  0  0  0  0  0  0  0  0  0  0
    0.8014   -1.5277   -0.6923 H   0  0  0  0  0  0  0  0  0  0  0  0
    1.5822   -1.4352    0.8968 H   0  0  0  0  0  0  0  0  0  0  0  0
    2.9398    0.3644   -0.3504 H   0  0  0  0  0  0  0  0  0  0  0  0
  1  2  1  0
  2  3  1  0
  2  4  1  0
  4  5  1  0
  5  6  1  0
  6  7  1  0
  7  8  1  0
  6  2  1  0
  1  9  1  0
  1 10  1  0
  1 11  1  0
  3 12  1  0
  4 13  1  0
  4 14  1  0
  6 15  1  0
  7 16  1  0
  7 17  1  0
  8 18  1  0
M  END
