
     RDKit          3D

 25 25  0  0  0  0  0  0  0  0999 V2000
   -2.2811    0.5396   -0.7677 C   0  0  0  0  0  0  0  0  0  0  0  0
   -1.0725    0.1471    0.0357 C   0  0  0  0  0  0  0  0  0  0  0  0
   -1.5721   -0.1916    1.4410 C   0  0  0  0  0  0  0  0  0  0  0  0
   -0.4251   -0.9959   -0.5448 C   0  0  0  0  0  0  0  0  0  0  0  0
    0.8076   -1.4583   -0.6503 C   0  0  0  0  0  0  0  0  0  0  0  0
    2.1503   -1.1103   -0.2688 C   0  0  0  0  0  0  0  0  0  0  0  0
    2.4055    0.4195   -0.0280 C   0  0  0  0  0  0  0  0  0  0  0  0
    1.0974    0.9023    0.0843 C   0  0  0  0  0  0  0  0  0  0  0  0
   -0.1887    1.4293    0.1973 C   0  0  0  0  0  0  0  0  0  0  0  0
   -2.6054    1.5307   -0.3643 H   0  0  0  0  0  0  0  0  0  0  0  0
   -2.0421    0.7271   -1.8393 H   0  0  0  0  0  0  0  0  0  0  0  0
   -3.0612   -0.2240   -0.6481 H   0  0  0  0  0  0  0  0  0  0  0  0
   -0.6999   -0.3927    2.1029 H   0  0  0  0  0  0  0  0  0  0  0  0
   -2.2906   -1.0117    1.3922 H   0  0  0  0  0  0  0  0  0  0  0  0
   -2.0584    0.7304    1.8204 H   0  0  0  0  0  0  0  0  0  0  0  0
   -1.1765   -1.6647   -1.0341 H   0  0  0  0  0  0  0  0  0  0  0  0
    0.8240   -2.4232   -1.2078 H   0  0  0  0  0  0  0  0  0  0  0  0
    2.4122   -1.6569    0.6790 H   0  0  0  0  0  0  0  0  0  0  0  0
    2.8738   -1.4161   -1.0347 H   0  0  0  0  0  0  0  0  0  0  0  0
    3.0482    0.8062   -0.8499 H   0  0  0  0  0  0  0  0  0  0  0  0
    3.0861    0.4875    0.8701 H   0  0  0  0  0  0  0  0  0  0  0  0
    0.9027    0.1882    0.9652 H   0  0  0  0  0  0  0  0  0  0  0  0
    0.8550    0.5213   -0.9757 H   0  0  0  0  0  0  0  0  0  0  0  0
   -0.5368    2.1857   -0.5517 H   0  0  0  0  0  0  0  0  0  0  0  0
   -0.4524    1.9305    1.1768 H   0  0  0  0  0  0  0  0  0  0  0  0
  1  2  1  0
  2  3  1  0
  2  4  1  0
  4  5  2  0
  5  6  1  0
  6  7  1  0
  7  8  1  0
  8  9  1  0
  9  2  1  0
  1 10  1  0
  1 11  1  0
  1 12  1  0
  3 13  1  0
  3 14  1  0
  3 15  1  0
  4 16  1  0
  5 17  1  0
  6 18  1  0
  6 19  1  0
  7 20  1  0
  7 21  1  0
  8 22  1  0
  8 23  1  0
  9 24  1  0
  9 25  1  0
M  END
