
     RDKit          3D

 21 23  0  0  0  0  0  0  0  0999 V2000
    2.0286   -0.3742   -0.7274 C   0  0  0  0  0  0  0  0  0  0  0  0
    0.7437    0.2171   -0.2247 C   0  0  0  0  0  0  0  0  0  0  0  0
    1.0904    1.0331    1.0234 C   0  0  0  0  0  0  0  0  0  0  0  0
    0.1147    1.0471   -1.1143 O   0  0  0  0  0  0  0  0  0  0  0  0
   -1.2294    0.7399   -1.1591 C   0  0  0  0  0  0  0  0  0  0  0  0
   -1.9546    0.2114    0.0252 C   0  0  0  0  0  0  0  0  0  0  0  0
   -1.1862   -0.4618    1.1568 C   0  0  0  0  0  0  0  0  0  0  0  0
   -0.1976   -0.9195    0.1048 C   0  0  0  0  0  0  0  0  0  0  0  0
   -1.2897   -0.6961   -0.9046 C   0  0  0  0  0  0  0  0  0  0  0  0
    1.9406   -0.9251   -1.6675 H   0  0  0  0  0  0  0  0  0  0  0  0
    2.4027   -1.0585    0.0786 H   0  0  0  0  0  0  0  0  0  0  0  0
    2.7933    0.4490   -0.7671 H   0  0  0  0  0  0  0  0  0  0  0  0
    1.2193    0.3574    1.8754 H   0  0  0  0  0  0  0  0  0  0  0  0
    0.3043    1.7847    1.1310 H   0  0  0  0  0  0  0  0  0  0  0  0
    2.0993    1.4986    0.8275 H   0  0  0  0  0  0  0  0  0  0  0  0
   -1.8253    1.2639   -1.8932 H   0  0  0  0  0  0  0  0  0  0  0  0
   -3.0369    0.2851    0.0601 H   0  0  0  0  0  0  0  0  0  0  0  0
   -1.6933   -1.3394    1.5915 H   0  0  0  0  0  0  0  0  0  0  0  0
   -0.8210    0.2588    1.8845 H   0  0  0  0  0  0  0  0  0  0  0  0
    0.2190   -1.9112    0.2035 H   0  0  0  0  0  0  0  0  0  0  0  0
   -1.7218   -1.4604   -1.5045 H   0  0  0  0  0  0  0  0  0  0  0  0
  1  2  1  0
  2  3  1  0
  2  4  1  0
  4  5  1  0
  5  6  1  0
  6  7  1  0
  7  8  1  0
  8  9  1  0
  8  2  1  0
  9  5  1  0
  9  6  1  0
  1 10  1  0
  1 11  1  0
  1 12  1  0
  3 13  1  0
  3 14  1  0
  3 15  1  0
  5 16  1  0
  6 17  1  0
  7 18  1  0
  7 19  1  0
  8 20  1  0
  9 21  1  0
M  END
