
     RDKit          3D

 17 17  0  0  0  0  0  0  0  0999 V2000
    1.7563   -0.4274   -0.3801 C   0  0  0  0  0  0  0  0  0  0  0  0
    0.4135   -0.1690    0.2046 C   0  0  0  0  0  0  0  0  0  0  0  0
    0.3746   -0.3488    1.5635 O   0  0  0  0  0  0  0  0  0  0  0  0
   -0.6967   -0.9650   -0.4670 C   0  0  0  0  0  0  0  0  0  0  0  0
   -1.8975   -0.1750   -0.0072 C   0  0  0  0  0  0  0  0  0  0  0  0
   -1.5369    1.0839    0.2153 C   0  0  0  0  0  0  0  0  0  0  0  0
   -0.0796    1.2585   -0.0695 C   0  0  0  0  0  0  0  0  0  0  0  0
    1.7609   -0.7156   -1.4399 H   0  0  0  0  0  0  0  0  0  0  0  0
    2.2459   -1.2626    0.1804 H   0  0  0  0  0  0  0  0  0  0  0  0
    2.3874    0.4979   -0.2594 H   0  0  0  0  0  0  0  0  0  0  0  0
    1.2127   -0.6083    1.9848 H   0  0  0  0  0  0  0  0  0  0  0  0
   -0.7378   -2.0095   -0.1197 H   0  0  0  0  0  0  0  0  0  0  0  0
   -0.6402   -0.8480   -1.5580 H   0  0  0  0  0  0  0  0  0  0  0  0
   -2.8934   -0.5844    0.1175 H   0  0  0  0  0  0  0  0  0  0  0  0
   -2.1921    1.8753    0.5530 H   0  0  0  0  0  0  0  0  0  0  0  0
    0.1039    1.4594   -1.1372 H   0  0  0  0  0  0  0  0  0  0  0  0
    0.4191    1.9386    0.6192 H   0  0  0  0  0  0  0  0  0  0  0  0
  1  2  1  0
  2  3  1  0
  2  4  1  0
  4  5  1  0
  5  6  2  0
  6  7  1  0
  7  2  1  0
  1  8  1  0
  1  9  1  0
  1 10  1  0
  3 11  1  0
  4 12  1  0
  4 13  1  0
  5 14  1  0
  6 15  1  0
  7 16  1  0
  7 17  1  0
M  END
