
     RDKit          3D

 19 22  0  0  0  0  0  0  0  0999 V2000
   -1.7818   -0.8445    0.0529 C   0  0  0  0  0  0  0  0  0  0  0  0
   -0.8146    0.2843    0.3859 C   0  0  0  0  0  0  0  0  0  0  0  0
   -1.4695    1.3304    0.9678 O   0  0  0  0  0  0  0  0  0  0  0  0
    0.3582   -0.2152    1.2097 C   0  0  0  0  0  0  0  0  0  0  0  0
    1.1606   -0.9690    0.2635 C   0  0  0  0  0  0  0  0  0  0  0  0
    1.5577    0.4457    0.6999 C   0  0  0  0  0  0  0  0  0  0  0  0
    1.2760    0.9092   -0.6734 C   0  0  0  0  0  0  0  0  0  0  0  0
    0.8730   -0.4271   -1.0854 C   0  0  0  0  0  0  0  0  0  0  0  0
   -0.1327    0.6377   -0.9213 C   0  0  0  0  0  0  0  0  0  0  0  0
   -2.4483   -1.0929    0.8887 H   0  0  0  0  0  0  0  0  0  0  0  0
   -2.3943   -0.4572   -0.8093 H   0  0  0  0  0  0  0  0  0  0  0  0
   -1.1746   -1.6940   -0.3043 H   0  0  0  0  0  0  0  0  0  0  0  0
   -1.8770    1.9760    0.3500 H   0  0  0  0  0  0  0  0  0  0  0  0
    0.1963   -0.4676    2.2612 H   0  0  0  0  0  0  0  0  0  0  0  0
    1.9064   -1.7133    0.4803 H   0  0  0  0  0  0  0  0  0  0  0  0
    2.4825    0.5982    1.2292 H   0  0  0  0  0  0  0  0  0  0  0  0
    1.8932    1.6009   -1.2300 H   0  0  0  0  0  0  0  0  0  0  0  0
    1.1117   -0.9240   -2.0108 H   0  0  0  0  0  0  0  0  0  0  0  0
   -0.7228    1.0223   -1.7545 H   0  0  0  0  0  0  0  0  0  0  0  0
  1  2  1  0
  2  3  1  0
  2  4  1  0
  4  5  1  0
  5  6  1  0
  6  7  1  0
  7  8  1  0
  8  9  1  0
  9  2  1  0
  6  4  1  0
  9  7  1  0
  8  5  1  0
  1 10  1  0
  1 11  1  0
  1 12  1  0
  3 13  1  0
  4 14  1  0
  5 15  1  0
  6 16  1  0
  7 17  1  0
  8 18  1  0
  9 19  1  0
M  END
