
     RDKit          3D

 23 23  0  0  0  0  0  0  0  0999 V2000
    0.0211   -0.1472   -1.5915 C   0  0  0  0  0  0  0  0  0  0  0  0
   -0.0613   -0.0755   -0.0781 C   0  0  0  0  0  0  0  0  0  0  0  0
    1.3404   -0.0080    0.4802 C   0  0  0  0  0  0  0  0  0  0  0  0
    2.0948    1.1990   -0.0143 C   0  0  0  0  0  0  0  0  0  0  0  0
    3.3686    1.1480    0.5694 O   0  0  0  0  0  0  0  0  0  0  0  0
   -0.7986   -1.2618    0.5047 C   0  0  0  0  0  0  0  0  0  0  0  0
   -2.1937   -0.7641    0.7863 C   0  0  0  0  0  0  0  0  0  0  0  0
   -2.1501    0.6376    0.2422 C   0  0  0  0  0  0  0  0  0  0  0  0
   -0.8310    1.0174    0.2772 O   0  0  0  0  0  0  0  0  0  0  0  0
    0.4269    0.8249   -1.9382 H   0  0  0  0  0  0  0  0  0  0  0  0
   -0.9594   -0.2713   -2.0637 H   0  0  0  0  0  0  0  0  0  0  0  0
    0.6900   -1.0003   -1.8255 H   0  0  0  0  0  0  0  0  0  0  0  0
    1.3955   -0.1023    1.5605 H   0  0  0  0  0  0  0  0  0  0  0  0
    1.8800   -0.9038    0.0555 H   0  0  0  0  0  0  0  0  0  0  0  0
    2.2662    1.1382   -1.1123 H   0  0  0  0  0  0  0  0  0  0  0  0
    1.6225    2.1517    0.2934 H   0  0  0  0  0  0  0  0  0  0  0  0
    3.7351    0.2306    0.4523 H   0  0  0  0  0  0  0  0  0  0  0  0
   -0.8189   -2.0601   -0.2771 H   0  0  0  0  0  0  0  0  0  0  0  0
   -0.2961   -1.6207    1.4303 H   0  0  0  0  0  0  0  0  0  0  0  0
   -2.4264   -0.7213    1.8684 H   0  0  0  0  0  0  0  0  0  0  0  0
   -2.9779   -1.3748    0.3025 H   0  0  0  0  0  0  0  0  0  0  0  0
   -2.7460    1.3453    0.8527 H   0  0  0  0  0  0  0  0  0  0  0  0
   -2.5817    0.6183   -0.7747 H   0  0  0  0  0  0  0  0  0  0  0  0
  1  2  1  0
  2  3  1  0
  3  4  1  0
  4  5  1  0
  2  6  1  0
  6  7  1  0
  7  8  1  0
  8  9  1  0
  9  2  1  0
  1 10  1  0
  1 11  1  0
  1 12  1  0
  3 13  1  0
  3 14  1  0
  4 15  1  0
  4 16  1  0
  5 17  1  0
  6 18  1  0
  6 19  1  0
  7 20  1  0
  7 21  1  0
  8 22  1  0
  8 23  1  0
M  END
