
     RDKit          3D

 21 22  0  0  0  0  0  0  0  0999 V2000
    0.5259   -1.6133    0.6983 C   0  0  0  0  0  0  0  0  0  0  0  0
    0.3681   -0.3794   -0.1725 C   0  0  0  0  0  0  0  0  0  0  0  0
   -0.9673   -0.3331   -0.7923 C   0  0  0  0  0  0  0  0  0  0  0  0
   -2.1412   -0.2960    0.2270 C   0  0  0  0  0  0  0  0  0  0  0  0
   -1.8692    0.8110   -0.8024 C   0  0  0  0  0  0  0  0  0  0  0  0
    1.3735   -0.3849   -1.1655 O   0  0  0  0  0  0  0  0  0  0  0  0
    2.2101    0.3036   -0.3181 C   0  0  0  0  0  0  0  0  0  0  0  0
    0.9660    0.8275    0.4097 C   0  0  0  0  0  0  0  0  0  0  0  0
    0.6297    2.0524   -0.0928 O   0  0  0  0  0  0  0  0  0  0  0  0
    1.0859   -1.3983    1.6270 H   0  0  0  0  0  0  0  0  0  0  0  0
   -0.4986   -1.9449    1.0397 H   0  0  0  0  0  0  0  0  0  0  0  0
    0.9317   -2.4747    0.1294 H   0  0  0  0  0  0  0  0  0  0  0  0
   -1.1249   -1.1005   -1.6062 H   0  0  0  0  0  0  0  0  0  0  0  0
   -1.8776   -0.1055    1.2804 H   0  0  0  0  0  0  0  0  0  0  0  0
   -3.0144   -0.9338    0.0011 H   0  0  0  0  0  0  0  0  0  0  0  0
   -1.6768    1.7734   -0.3357 H   0  0  0  0  0  0  0  0  0  0  0  0
   -2.6115    0.8884   -1.6503 H   0  0  0  0  0  0  0  0  0  0  0  0
    2.8299   -0.3803    0.2783 H   0  0  0  0  0  0  0  0  0  0  0  0
    2.8065    1.1177   -0.7804 H   0  0  0  0  0  0  0  0  0  0  0  0
    1.1916    0.7994    1.5075 H   0  0  0  0  0  0  0  0  0  0  0  0
    0.8626    2.7712    0.5178 H   0  0  0  0  0  0  0  0  0  0  0  0
  1  2  1  0
  2  3  1  0
  3  4  1  0
  4  5  1  0
  2  6  1  0
  6  7  1  0
  7  8  1  0
  8  9  1  0
  8  2  1  0
  5  3  1  0
  1 10  1  0
  1 11  1  0
  1 12  1  0
  3 13  1  0
  4 14  1  0
  4 15  1  0
  5 16  1  0
  5 17  1  0
  7 18  1  0
  7 19  1  0
  8 20  1  0
  9 21  1  0
M  END
