
     RDKit          3D

 21 22  0  0  0  0  0  0  0  0999 V2000
   -1.8589   -0.5471    1.0138 C   0  0  0  0  0  0  0  0  0  0  0  0
   -0.8998    0.2127    0.1605 C   0  0  0  0  0  0  0  0  0  0  0  0
   -0.6654    1.6461    0.6193 C   0  0  0  0  0  0  0  0  0  0  0  0
   -0.6383   -0.1165   -1.2502 C   0  0  0  0  0  0  0  0  0  0  0  0
   -1.4018   -1.0612   -1.9348 O   0  0  0  0  0  0  0  0  0  0  0  0
    0.3225   -0.6002   -0.2626 C   0  0  0  0  0  0  0  0  0  0  0  0
    1.6292    0.0788    0.0234 C   0  0  0  0  0  0  0  0  0  0  0  0
    2.9151   -0.5511   -0.3141 C   0  0  0  0  0  0  0  0  0  0  0  0
    2.3673    0.6580   -0.9843 O   0  0  0  0  0  0  0  0  0  0  0  0
   -1.4058   -0.6134    2.0409 H   0  0  0  0  0  0  0  0  0  0  0  0
   -2.8081    0.0187    1.1461 H   0  0  0  0  0  0  0  0  0  0  0  0
   -2.0644   -1.5666    0.6602 H   0  0  0  0  0  0  0  0  0  0  0  0
   -0.0826    1.6116    1.5639 H   0  0  0  0  0  0  0  0  0  0  0  0
   -0.0849    2.1819   -0.1567 H   0  0  0  0  0  0  0  0  0  0  0  0
   -1.6584    2.0972    0.7739 H   0  0  0  0  0  0  0  0  0  0  0  0
   -0.3534    0.7485   -1.9063 H   0  0  0  0  0  0  0  0  0  0  0  0
   -2.0932   -1.4655   -1.3800 H   0  0  0  0  0  0  0  0  0  0  0  0
    0.3261   -1.6900   -0.0608 H   0  0  0  0  0  0  0  0  0  0  0  0
    1.6209    0.6299    1.0098 H   0  0  0  0  0  0  0  0  0  0  0  0
    3.8001   -0.3347    0.2997 H   0  0  0  0  0  0  0  0  0  0  0  0
    3.0339   -1.3369   -1.0617 H   0  0  0  0  0  0  0  0  0  0  0  0
  1  2  1  0
  2  3  1  0
  2  4  1  0
  4  5  1  0
  4  6  1  0
  6  7  1  0
  7  8  1  0
  8  9  1  0
  6  2  1  0
  9  7  1  0
  1 10  1  0
  1 11  1  0
  1 12  1  0
  3 13  1  0
  3 14  1  0
  3 15  1  0
  4 16  1  0
  5 17  1  0
  6 18  1  0
  7 19  1  0
  8 20  1  0
  8 21  1  0
M  END
