
     RDKit          3D

 17 17  0  0  0  0  0  0  0  0999 V2000
   -1.3803    0.6622   -1.2686 C   0  0  0  0  0  0  0  0  0  0  0  0
   -0.3997    0.1180   -0.2658 C   0  0  0  0  0  0  0  0  0  0  0  0
   -1.1962   -0.2091    0.9953 C   0  0  0  0  0  0  0  0  0  0  0  0
    0.2911   -0.9893   -0.7204 O   0  0  0  0  0  0  0  0  0  0  0  0
    1.5521   -0.9686   -0.1560 C   0  0  0  0  0  0  0  0  0  0  0  0
    1.6368    0.3535    0.5784 C   0  0  0  0  0  0  0  0  0  0  0  0
    0.5738    1.0717    0.0235 O   0  0  0  0  0  0  0  0  0  0  0  0
   -2.3591    0.9526   -0.7964 H   0  0  0  0  0  0  0  0  0  0  0  0
   -1.6231   -0.0558   -2.0772 H   0  0  0  0  0  0  0  0  0  0  0  0
   -0.9967    1.5978   -1.7361 H   0  0  0  0  0  0  0  0  0  0  0  0
   -2.2172   -0.5679    0.6946 H   0  0  0  0  0  0  0  0  0  0  0  0
   -0.6382   -1.0095    1.5203 H   0  0  0  0  0  0  0  0  0  0  0  0
   -1.3553    0.6954    1.5966 H   0  0  0  0  0  0  0  0  0  0  0  0
    1.7239   -1.8374    0.5270 H   0  0  0  0  0  0  0  0  0  0  0  0
    2.3697   -0.9533   -0.9194 H   0  0  0  0  0  0  0  0  0  0  0  0
    1.4544    0.2335    1.6566 H   0  0  0  0  0  0  0  0  0  0  0  0
    2.5640    0.9062    0.3476 H   0  0  0  0  0  0  0  0  0  0  0  0
  1  2  1  0
  2  3  1  0
  2  4  1  0
  4  5  1  0
  5  6  1  0
  6  7  1  0
  7  2  1  0
  1  8  1  0
  1  9  1  0
  1 10  1  0
  3 11  1  0
  3 12  1  0
  3 13  1  0
  5 14  1  0
  5 15  1  0
  6 16  1  0
  6 17  1  0
M  END
