
     RDKit          3D

 17 17  0  0  0  0  0  0  0  0999 V2000
   -0.2399    1.8476   -0.0028 C   0  0  0  0  0  0  0  0  0  0  0  0
   -0.0450    0.3509    0.1042 C   0  0  0  0  0  0  0  0  0  0  0  0
    1.3108   -0.0394   -0.4341 C   0  0  0  0  0  0  0  0  0  0  0  0
    1.5603   -1.4897   -0.3568 C   0  0  0  0  0  0  0  0  0  0  0  0
    2.6026   -1.9356   -0.7522 O   0  0  0  0  0  0  0  0  0  0  0  0
   -0.3379   -0.1744    1.3596 O   0  0  0  0  0  0  0  0  0  0  0  0
   -1.5063   -0.7524    0.8705 C   0  0  0  0  0  0  0  0  0  0  0  0
   -1.1913   -0.3536   -0.5119 C   0  0  0  0  0  0  0  0  0  0  0  0
   -1.6869   -0.5497   -1.5975 O   0  0  0  0  0  0  0  0  0  0  0  0
   -1.2893    2.0763    0.3041 H   0  0  0  0  0  0  0  0  0  0  0  0
   -0.0756    2.1152   -1.0730 H   0  0  0  0  0  0  0  0  0  0  0  0
    0.4999    2.3476    0.6704 H   0  0  0  0  0  0  0  0  0  0  0  0
    1.5040    0.3891   -1.4180 H   0  0  0  0  0  0  0  0  0  0  0  0
    2.0606    0.4433    0.2599 H   0  0  0  0  0  0  0  0  0  0  0  0
    0.8117   -2.1297    0.0500 H   0  0  0  0  0  0  0  0  0  0  0  0
   -2.4444   -0.3000    1.2824 H   0  0  0  0  0  0  0  0  0  0  0  0
   -1.5333   -1.8455    1.0166 H   0  0  0  0  0  0  0  0  0  0  0  0
  1  2  1  0
  2  3  1  0
  3  4  1  0
  4  5  2  0
  2  6  1  0
  6  7  1  0
  7  8  1  0
  8  9  2  0
  8  2  1  0
  1 10  1  0
  1 11  1  0
  1 12  1  0
  3 13  1  0
  3 14  1  0
  4 15  1  0
  7 16  1  0
  7 17  1  0
M  END
