
     RDKit          3D

 21 22  0  0  0  0  0  0  0  0999 V2000
   -1.4648    0.7808   -1.0102 C   0  0  0  0  0  0  0  0  0  0  0  0
   -0.9697   -0.0804    0.1104 C   0  0  0  0  0  0  0  0  0  0  0  0
   -2.0190   -0.6650    0.9875 C   0  0  0  0  0  0  0  0  0  0  0  0
    0.1558    0.5254    0.9372 C   0  0  0  0  0  0  0  0  0  0  0  0
    1.0764   -0.1783    0.0242 C   0  0  0  0  0  0  0  0  0  0  0  0
    2.4652   -0.4585    0.2130 C   0  0  0  0  0  0  0  0  0  0  0  0
    1.9854    0.5783   -0.8396 C   0  0  0  0  0  0  0  0  0  0  0  0
    0.0330   -1.0687   -0.4250 C   0  0  0  0  0  0  0  0  0  0  0  0
   -0.1852   -2.1372   -0.9816 O   0  0  0  0  0  0  0  0  0  0  0  0
   -0.5951    1.0881   -1.6225 H   0  0  0  0  0  0  0  0  0  0  0  0
   -2.1203    1.5970   -0.7064 H   0  0  0  0  0  0  0  0  0  0  0  0
   -2.0696    0.1073   -1.6863 H   0  0  0  0  0  0  0  0  0  0  0  0
   -1.6681   -0.7737    2.0385 H   0  0  0  0  0  0  0  0  0  0  0  0
   -2.3809   -1.6584    0.6750 H   0  0  0  0  0  0  0  0  0  0  0  0
   -2.8720    0.0650    1.0231 H   0  0  0  0  0  0  0  0  0  0  0  0
    0.1852    1.6303    0.9306 H   0  0  0  0  0  0  0  0  0  0  0  0
    0.1835    0.1012    1.9798 H   0  0  0  0  0  0  0  0  0  0  0  0
    3.0875   -0.0561    1.0302 H   0  0  0  0  0  0  0  0  0  0  0  0
    2.9222   -1.3669   -0.2555 H   0  0  0  0  0  0  0  0  0  0  0  0
    2.1112    0.3168   -1.8964 H   0  0  0  0  0  0  0  0  0  0  0  0
    2.1396    1.6531   -0.5261 H   0  0  0  0  0  0  0  0  0  0  0  0
  1  2  1  0
  2  3  1  0
  2  4  1  0
  4  5  1  0
  5  6  1  0
  6  7  1  0
  5  8  1  0
  8  9  2  0
  8  2  1  0
  7  5  1  0
  1 10  1  0
  1 11  1  0
  1 12  1  0
  3 13  1  0
  3 14  1  0
  3 15  1  0
  4 16  1  0
  4 17  1  0
  6 18  1  0
  6 19  1  0
  7 20  1  0
  7 21  1  0
M  END
