
     RDKit          3D

 19 20  0  0  0  0  0  0  0  0999 V2000
   -2.1663   -0.4493    0.2728 C   0  0  0  0  0  0  0  0  0  0  0  0
   -0.7731   -0.0539   -0.1210 C   0  0  0  0  0  0  0  0  0  0  0  0
   -0.5850    0.0777   -1.4862 O   0  0  0  0  0  0  0  0  0  0  0  0
   -0.1101    0.9988    0.6964 C   0  0  0  0  0  0  0  0  0  0  0  0
    1.1182    1.4414   -0.0357 C   0  0  0  0  0  0  0  0  0  0  0  0
    1.9474    0.4819   -0.4015 C   0  0  0  0  0  0  0  0  0  0  0  0
    1.5825   -0.9168   -0.0883 C   0  0  0  0  0  0  0  0  0  0  0  0
    0.2368   -0.9227    0.5926 C   0  0  0  0  0  0  0  0  0  0  0  0
    0.2679    0.0151    1.6069 O   0  0  0  0  0  0  0  0  0  0  0  0
   -2.9322    0.2840   -0.0334 H   0  0  0  0  0  0  0  0  0  0  0  0
   -2.3936   -1.4303   -0.2097 H   0  0  0  0  0  0  0  0  0  0  0  0
   -2.1909   -0.6298    1.3647 H   0  0  0  0  0  0  0  0  0  0  0  0
   -1.1481    0.8695   -1.7639 H   0  0  0  0  0  0  0  0  0  0  0  0
   -0.7085    1.8074    1.0971 H   0  0  0  0  0  0  0  0  0  0  0  0
    1.2650    2.4853   -0.2244 H   0  0  0  0  0  0  0  0  0  0  0  0
    2.8622    0.6946   -0.9113 H   0  0  0  0  0  0  0  0  0  0  0  0
    2.3096   -1.3620    0.6464 H   0  0  0  0  0  0  0  0  0  0  0  0
    1.5769   -1.5042   -1.0336 H   0  0  0  0  0  0  0  0  0  0  0  0
   -0.1587   -1.8868    0.8975 H   0  0  0  0  0  0  0  0  0  0  0  0
  1  2  1  0
  2  3  1  0
  2  4  1  0
  4  5  1  0
  5  6  2  0
  6  7  1  0
  7  8  1  0
  8  9  1  0
  8  2  1  0
  9  4  1  0
  1 10  1  0
  1 11  1  0
  1 12  1  0
  3 13  1  0
  4 14  1  0
  5 15  1  0
  6 16  1  0
  7 17  1  0
  7 18  1  0
  8 19  1  0
M  END
