
     RDKit          3D

 23 24  0  0  0  0  0  0  0  0999 V2000
   -1.3592   -0.8944    0.9561 C   0  0  0  0  0  0  0  0  0  0  0  0
   -0.5862   -0.2612   -0.1569 C   0  0  0  0  0  0  0  0  0  0  0  0
   -0.8207   -0.9832   -1.4530 C   0  0  0  0  0  0  0  0  0  0  0  0
   -0.9009    1.2271   -0.2861 C   0  0  0  0  0  0  0  0  0  0  0  0
   -1.7851    1.6706    0.6796 O   0  0  0  0  0  0  0  0  0  0  0  0
    0.5314    1.5511    0.1350 C   0  0  0  0  0  0  0  0  0  0  0  0
    0.8245    0.0899    0.0822 C   0  0  0  0  0  0  0  0  0  0  0  0
    1.7493   -0.5909    0.9620 C   0  0  0  0  0  0  0  0  0  0  0  0
    1.9761   -0.5043   -0.5605 C   0  0  0  0  0  0  0  0  0  0  0  0
   -1.2586   -1.9932    0.9408 H   0  0  0  0  0  0  0  0  0  0  0  0
   -1.1486   -0.4538    1.9551 H   0  0  0  0  0  0  0  0  0  0  0  0
   -2.4578   -0.6971    0.7852 H   0  0  0  0  0  0  0  0  0  0  0  0
   -0.4487   -0.3601   -2.2878 H   0  0  0  0  0  0  0  0  0  0  0  0
   -0.2721   -1.9421   -1.4592 H   0  0  0  0  0  0  0  0  0  0  0  0
   -1.9100   -1.0900   -1.5973 H   0  0  0  0  0  0  0  0  0  0  0  0
   -1.1013    1.5525   -1.3246 H   0  0  0  0  0  0  0  0  0  0  0  0
   -1.4448    2.5333    1.0616 H   0  0  0  0  0  0  0  0  0  0  0  0
    1.1059    2.1452   -0.5830 H   0  0  0  0  0  0  0  0  0  0  0  0
    0.6160    1.9179    1.1902 H   0  0  0  0  0  0  0  0  0  0  0  0
    2.4713    0.0346    1.5538 H   0  0  0  0  0  0  0  0  0  0  0  0
    1.5603   -1.5785    1.4001 H   0  0  0  0  0  0  0  0  0  0  0  0
    1.8487   -1.4863   -1.0704 H   0  0  0  0  0  0  0  0  0  0  0  0
    2.8105    0.1129   -0.9231 H   0  0  0  0  0  0  0  0  0  0  0  0
  1  2  1  0
  2  3  1  0
  2  4  1  0
  4  5  1  0
  4  6  1  0
  6  7  1  0
  7  8  1  0
  8  9  1  0
  7  2  1  0
  9  7  1  0
  1 10  1  0
  1 11  1  0
  1 12  1  0
  3 13  1  0
  3 14  1  0
  3 15  1  0
  4 16  1  0
  5 17  1  0
  6 18  1  0
  6 19  1  0
  8 20  1  0
  8 21  1  0
  9 22  1  0
  9 23  1  0
M  END
