
     RDKit          3D

 17 17  0  0  0  0  0  0  0  0999 V2000
   -2.4761    0.5687   -0.4499 C   0  0  0  0  0  0  0  0  0  0  0  0
   -1.0725   -0.0213   -0.5156 C   0  0  0  0  0  0  0  0  0  0  0  0
   -0.6546   -0.3257   -1.7948 O   0  0  0  0  0  0  0  0  0  0  0  0
   -0.8286   -1.0591    0.5613 C   0  0  0  0  0  0  0  0  0  0  0  0
   -0.1014    0.3101    0.5215 C   0  0  0  0  0  0  0  0  0  0  0  0
    1.3349    0.2208    0.2310 C   0  0  0  0  0  0  0  0  0  0  0  0
    2.5315    0.1639    0.0016 C   0  0  0  0  0  0  0  0  0  0  0  0
    3.9404    0.1071   -0.2906 C   0  0  0  0  0  0  0  0  0  0  0  0
    4.7744   -0.3576    0.5326 O   0  0  0  0  0  0  0  0  0  0  0  0
   -2.5458    1.5441   -0.9527 H   0  0  0  0  0  0  0  0  0  0  0  0
   -3.1221   -0.1469   -1.0260 H   0  0  0  0  0  0  0  0  0  0  0  0
   -2.8806    0.5693    0.5800 H   0  0  0  0  0  0  0  0  0  0  0  0
   -1.1129    0.1668   -2.4995 H   0  0  0  0  0  0  0  0  0  0  0  0
   -0.2230   -1.9362    0.2340 H   0  0  0  0  0  0  0  0  0  0  0  0
   -1.5735   -1.2146    1.3484 H   0  0  0  0  0  0  0  0  0  0  0  0
   -0.3467    0.9479    1.3883 H   0  0  0  0  0  0  0  0  0  0  0  0
    4.3565    0.4626   -1.2373 H   0  0  0  0  0  0  0  0  0  0  0  0
  1  2  1  0
  2  3  1  0
  2  4  1  0
  4  5  1  0
  5  6  1  0
  6  7  3  0
  7  8  1  0
  8  9  2  0
  5  2  1  0
  1 10  1  0
  1 11  1  0
  1 12  1  0
  3 13  1  0
  4 14  1  0
  4 15  1  0
  5 16  1  0
  8 17  1  0
M  END
