
     RDKit          3D

 23 24  0  0  0  0  0  0  0  0999 V2000
   -1.4310   -0.8587    0.9565 C   0  0  0  0  0  0  0  0  0  0  0  0
   -0.7073    0.0221   -0.0404 C   0  0  0  0  0  0  0  0  0  0  0  0
   -1.6498    0.9329   -0.7143 C   0  0  0  0  0  0  0  0  0  0  0  0
    0.0491   -0.8945   -1.0140 C   0  0  0  0  0  0  0  0  0  0  0  0
    1.4871   -0.8542   -0.5648 C   0  0  0  0  0  0  0  0  0  0  0  0
    1.2994   -0.5590    0.9359 C   0  0  0  0  0  0  0  0  0  0  0  0
    0.4277    0.6872    0.6763 C   0  0  0  0  0  0  0  0  0  0  0  0
    1.3851    1.3674   -0.2960 C   0  0  0  0  0  0  0  0  0  0  0  0
    2.0447    0.3547   -0.9757 O   0  0  0  0  0  0  0  0  0  0  0  0
   -1.1868   -0.5400    1.9968 H   0  0  0  0  0  0  0  0  0  0  0  0
   -1.1991   -1.9194    0.8327 H   0  0  0  0  0  0  0  0  0  0  0  0
   -2.5281   -0.7359    0.8522 H   0  0  0  0  0  0  0  0  0  0  0  0
   -1.5221    0.9542   -1.8082 H   0  0  0  0  0  0  0  0  0  0  0  0
   -1.6632    1.9738   -0.3347 H   0  0  0  0  0  0  0  0  0  0  0  0
   -2.7006    0.5530   -0.5470 H   0  0  0  0  0  0  0  0  0  0  0  0
    0.0147   -0.5087   -2.0443 H   0  0  0  0  0  0  0  0  0  0  0  0
   -0.3814   -1.9155   -0.9558 H   0  0  0  0  0  0  0  0  0  0  0  0
    2.0743   -1.7223   -0.7612 H   0  0  0  0  0  0  0  0  0  0  0  0
    0.7287   -1.3254    1.4406 H   0  0  0  0  0  0  0  0  0  0  0  0
    2.2108   -0.2155    1.4062 H   0  0  0  0  0  0  0  0  0  0  0  0
    0.1973    1.2440    1.5577 H   0  0  0  0  0  0  0  0  0  0  0  0
    2.1581    1.8716    0.3473 H   0  0  0  0  0  0  0  0  0  0  0  0
    0.8925    2.0881   -0.9458 H   0  0  0  0  0  0  0  0  0  0  0  0
  1  2  1  0
  2  3  1  0
  2  4  1  0
  4  5  1  0
  5  6  1  0
  6  7  1  0
  7  8  1  0
  8  9  1  0
  7  2  1  0
  9  5  1  0
  1 10  1  0
  1 11  1  0
  1 12  1  0
  3 13  1  0
  3 14  1  0
  3 15  1  0
  4 16  1  0
  4 17  1  0
  5 18  1  0
  6 19  1  0
  6 20  1  0
  7 21  1  0
  8 22  1  0
  8 23  1  0
M  END
