
     RDKit          3D

 16 16  0  0  0  0  0  0  0  0999 V2000
    0.4072    1.3604   -0.8856 C   0  0  0  0  0  0  0  0  0  0  0  0
    0.1171    0.0066   -0.3424 C   0  0  0  0  0  0  0  0  0  0  0  0
    1.2212   -0.6245    0.4399 C   0  0  0  0  0  0  0  0  0  0  0  0
   -1.2296   -0.0073    0.3726 C   0  0  0  0  0  0  0  0  0  0  0  0
   -1.3428   -1.3479   -0.0537 O   0  0  0  0  0  0  0  0  0  0  0  0
   -0.6475   -0.9380   -1.2162 C   0  0  0  0  0  0  0  0  0  0  0  0
    0.2500    2.0977   -0.0499 H   0  0  0  0  0  0  0  0  0  0  0  0
   -0.2447    1.5759   -1.7564 H   0  0  0  0  0  0  0  0  0  0  0  0
    1.4760    1.4891   -1.1926 H   0  0  0  0  0  0  0  0  0  0  0  0
    1.7590    0.2121    0.9749 H   0  0  0  0  0  0  0  0  0  0  0  0
    0.7980   -1.3295    1.1783 H   0  0  0  0  0  0  0  0  0  0  0  0
    1.9582   -1.0845   -0.2414 H   0  0  0  0  0  0  0  0  0  0  0  0
   -1.1708    0.1175    1.4704 H   0  0  0  0  0  0  0  0  0  0  0  0
   -1.9577    0.6817   -0.0961 H   0  0  0  0  0  0  0  0  0  0  0  0
   -0.0398   -1.7581   -1.6747 H   0  0  0  0  0  0  0  0  0  0  0  0
   -1.3539   -0.4512   -1.9019 H   0  0  0  0  0  0  0  0  0  0  0  0
  1  2  1  0
  2  3  1  0
  2  4  1  0
  4  5  1  0
  5  6  1  0
  6  2  1  0
  1  7  1  0
  1  8  1  0
  1  9  1  0
  3 10  1  0
  3 11  1  0
  3 12  1  0
  4 13  1  0
  4 14  1  0
  6 15  1  0
  6 16  1  0
M  END
