
     RDKit          3D

 20 21  0  0  0  0  0  0  0  0999 V2000
    2.0658   -0.7815   -0.1167 C   0  0  0  0  0  0  0  0  0  0  0  0
    0.7321   -0.0719    0.1035 C   0  0  0  0  0  0  0  0  0  0  0  0
    0.8728    1.3316    0.5912 C   0  0  0  0  0  0  0  0  0  0  0  0
   -0.3847   -0.9500    0.4755 C   0  0  0  0  0  0  0  0  0  0  0  0
   -1.7346   -0.4621    0.8559 C   0  0  0  0  0  0  0  0  0  0  0  0
   -1.8992    0.7993    0.3102 O   0  0  0  0  0  0  0  0  0  0  0  0
   -1.4157    0.7004   -0.9701 C   0  0  0  0  0  0  0  0  0  0  0  0
   -0.2786   -0.3082   -0.9503 C   0  0  0  0  0  0  0  0  0  0  0  0
    1.8554   -1.7311   -0.6377 H   0  0  0  0  0  0  0  0  0  0  0  0
    2.4776   -1.0033    0.8894 H   0  0  0  0  0  0  0  0  0  0  0  0
    2.7711   -0.1371   -0.6835 H   0  0  0  0  0  0  0  0  0  0  0  0
    1.8363    1.4757    1.1414 H   0  0  0  0  0  0  0  0  0  0  0  0
    0.9801    1.9861   -0.3239 H   0  0  0  0  0  0  0  0  0  0  0  0
    0.0601    1.6995    1.2121 H   0  0  0  0  0  0  0  0  0  0  0  0
   -0.2315   -2.0318    0.5299 H   0  0  0  0  0  0  0  0  0  0  0  0
   -2.4882   -1.1233    0.3351 H   0  0  0  0  0  0  0  0  0  0  0  0
   -1.9724   -0.5234    1.9206 H   0  0  0  0  0  0  0  0  0  0  0  0
   -0.9107    1.6830   -1.2068 H   0  0  0  0  0  0  0  0  0  0  0  0
   -2.1677    0.4830   -1.7273 H   0  0  0  0  0  0  0  0  0  0  0  0
   -0.1682   -1.0350   -1.7487 H   0  0  0  0  0  0  0  0  0  0  0  0
  1  2  1  0
  2  3  1  0
  2  4  1  0
  4  5  1  0
  5  6  1  0
  6  7  1  0
  7  8  1  0
  8  2  1  0
  8  4  1  0
  1  9  1  0
  1 10  1  0
  1 11  1  0
  3 12  1  0
  3 13  1  0
  3 14  1  0
  4 15  1  0
  5 16  1  0
  5 17  1  0
  7 18  1  0
  7 19  1  0
  8 20  1  0
M  END
