
     RDKit          3D

 20 21  0  0  0  0  0  0  0  0999 V2000
   -2.3113    1.1502    0.0092 C   0  0  0  0  0  0  0  0  0  0  0  0
   -1.1152    0.2701   -0.1838 C   0  0  0  0  0  0  0  0  0  0  0  0
    0.0344    0.4241    0.7913 C   0  0  0  0  0  0  0  0  0  0  0  0
    1.1686   -0.5013    0.5031 C   0  0  0  0  0  0  0  0  0  0  0  0
    1.9007   -0.4731   -0.7861 C   0  0  0  0  0  0  0  0  0  0  0  0
    2.5647    0.0066    0.5282 C   0  0  0  0  0  0  0  0  0  0  0  0
   -1.4195   -1.1263   -0.6523 C   0  0  0  0  0  0  0  0  0  0  0  0
   -0.7485   -0.1486   -1.4442 O   0  0  0  0  0  0  0  0  0  0  0  0
   -2.5158    1.8125   -0.8569 H   0  0  0  0  0  0  0  0  0  0  0  0
   -2.1664    1.8000    0.8826 H   0  0  0  0  0  0  0  0  0  0  0  0
   -3.2468    0.5768    0.1870 H   0  0  0  0  0  0  0  0  0  0  0  0
    0.3614    1.4995    0.8535 H   0  0  0  0  0  0  0  0  0  0  0  0
   -0.3540    0.1811    1.8019 H   0  0  0  0  0  0  0  0  0  0  0  0
    1.0272   -1.5335    0.9385 H   0  0  0  0  0  0  0  0  0  0  0  0
    1.6898    0.3228   -1.5467 H   0  0  0  0  0  0  0  0  0  0  0  0
    2.2797   -1.4260   -1.2031 H   0  0  0  0  0  0  0  0  0  0  0  0
    3.4027   -0.6388    0.8843 H   0  0  0  0  0  0  0  0  0  0  0  0
    2.6669    1.1140    0.6523 H   0  0  0  0  0  0  0  0  0  0  0  0
   -2.4265   -1.3397   -1.0743 H   0  0  0  0  0  0  0  0  0  0  0  0
   -0.7919   -1.9704   -0.2848 H   0  0  0  0  0  0  0  0  0  0  0  0
  1  2  1  0
  2  3  1  0
  3  4  1  0
  4  5  1  0
  5  6  1  0
  2  7  1  0
  7  8  1  0
  8  2  1  0
  6  4  1  0
  1  9  1  0
  1 10  1  0
  1 11  1  0
  3 12  1  0
  3 13  1  0
  4 14  1  0
  5 15  1  0
  5 16  1  0
  6 17  1  0
  6 18  1  0
  7 19  1  0
  7 20  1  0
M  END
