
     RDKit          3D

 19 20  0  0  0  0  0  0  0  0999 V2000
   -1.4473   -0.8697    0.8114 C   0  0  0  0  0  0  0  0  0  0  0  0
   -0.7297   -0.0564   -0.1904 C   0  0  0  0  0  0  0  0  0  0  0  0
   -1.4476    0.3685   -1.2651 O   0  0  0  0  0  0  0  0  0  0  0  0
    0.5359   -0.7537   -0.7294 C   0  0  0  0  0  0  0  0  0  0  0  0
    1.2932   -0.8678    0.5437 C   0  0  0  0  0  0  0  0  0  0  0  0
    1.0503    0.2522    1.2211 C   0  0  0  0  0  0  0  0  0  0  0  0
    0.1070    1.0723    0.4468 C   0  0  0  0  0  0  0  0  0  0  0  0
    0.8346    1.5109   -0.7723 C   0  0  0  0  0  0  0  0  0  0  0  0
    1.1224    0.4120   -1.4617 C   0  0  0  0  0  0  0  0  0  0  0  0
   -0.8275   -1.6985    1.2617 H   0  0  0  0  0  0  0  0  0  0  0  0
   -2.2970   -1.3828    0.3034 H   0  0  0  0  0  0  0  0  0  0  0  0
   -1.8451   -0.2729    1.6748 H   0  0  0  0  0  0  0  0  0  0  0  0
   -2.3930    0.4591   -1.0506 H   0  0  0  0  0  0  0  0  0  0  0  0
    0.3628   -1.6319   -1.2838 H   0  0  0  0  0  0  0  0  0  0  0  0
    1.9039   -1.7096    0.8186 H   0  0  0  0  0  0  0  0  0  0  0  0
    1.4650    0.5301    2.1772 H   0  0  0  0  0  0  0  0  0  0  0  0
   -0.4608    1.8023    0.9571 H   0  0  0  0  0  0  0  0  0  0  0  0
    1.1018    2.5072   -1.0839 H   0  0  0  0  0  0  0  0  0  0  0  0
    1.6711    0.3288   -2.3786 H   0  0  0  0  0  0  0  0  0  0  0  0
  1  2  1  0
  2  3  1  0
  2  4  1  0
  4  5  1  0
  5  6  2  0
  6  7  1  0
  7  8  1  0
  8  9  2  0
  7  2  1  0
  9  4  1  0
  1 10  1  0
  1 11  1  0
  1 12  1  0
  3 13  1  0
  4 14  1  0
  5 15  1  0
  6 16  1  0
  7 17  1  0
  8 18  1  0
  9 19  1  0
M  END
