
     RDKit          3D

 23 24  0  0  0  0  0  0  0  0999 V2000
   -1.3619    1.8527    0.5230 C   0  0  0  0  0  0  0  0  0  0  0  0
   -0.8712    0.5136    0.0691 C   0  0  0  0  0  0  0  0  0  0  0  0
   -1.8972   -0.4377   -0.4568 C   0  0  0  0  0  0  0  0  0  0  0  0
   -1.2666   -1.6170   -0.8270 O   0  0  0  0  0  0  0  0  0  0  0  0
    0.3349    0.7094   -0.8615 C   0  0  0  0  0  0  0  0  0  0  0  0
    1.0690   -0.2343    0.0196 C   0  0  0  0  0  0  0  0  0  0  0  0
    1.7625   -1.4225   -0.4186 C   0  0  0  0  0  0  0  0  0  0  0  0
    2.4974   -0.2365    0.2475 C   0  0  0  0  0  0  0  0  0  0  0  0
    0.0299   -0.1734    1.0783 C   0  0  0  0  0  0  0  0  0  0  0  0
   -0.4436    2.4904    0.6877 H   0  0  0  0  0  0  0  0  0  0  0  0
   -1.9141    1.7937    1.4716 H   0  0  0  0  0  0  0  0  0  0  0  0
   -1.9141    2.3442   -0.2966 H   0  0  0  0  0  0  0  0  0  0  0  0
   -2.3942   -0.0475   -1.3825 H   0  0  0  0  0  0  0  0  0  0  0  0
   -2.6154   -0.6659    0.3274 H   0  0  0  0  0  0  0  0  0  0  0  0
   -1.5833   -2.3940   -0.2681 H   0  0  0  0  0  0  0  0  0  0  0  0
    0.1492    0.4012   -1.9060 H   0  0  0  0  0  0  0  0  0  0  0  0
    0.7536    1.7280   -0.8491 H   0  0  0  0  0  0  0  0  0  0  0  0
    1.7316   -2.3762    0.1389 H   0  0  0  0  0  0  0  0  0  0  0  0
    1.9330   -1.5293   -1.5279 H   0  0  0  0  0  0  0  0  0  0  0  0
    3.1294    0.3961   -0.4039 H   0  0  0  0  0  0  0  0  0  0  0  0
    2.8373   -0.4115    1.3093 H   0  0  0  0  0  0  0  0  0  0  0  0
    0.3641    0.4911    1.9132 H   0  0  0  0  0  0  0  0  0  0  0  0
   -0.3303   -1.1748    1.4125 H   0  0  0  0  0  0  0  0  0  0  0  0
  1  2  1  0
  2  3  1  0
  3  4  1  0
  2  5  1  0
  5  6  1  0
  6  7  1  0
  7  8  1  0
  6  9  1  0
  9  2  1  0
  8  6  1  0
  1 10  1  0
  1 11  1  0
  1 12  1  0
  3 13  1  0
  3 14  1  0
  4 15  1  0
  5 16  1  0
  5 17  1  0
  7 18  1  0
  7 19  1  0
  8 20  1  0
  8 21  1  0
  9 22  1  0
  9 23  1  0
M  END
