
     RDKit          3D

 21 22  0  0  0  0  0  0  0  0999 V2000
   -1.3408   -1.5484    0.3109 C   0  0  0  0  0  0  0  0  0  0  0  0
   -0.9143   -0.0769    0.1625 C   0  0  0  0  0  0  0  0  0  0  0  0
   -2.1363    0.8104    0.4762 C   0  0  0  0  0  0  0  0  0  0  0  0
    0.3294    0.4131    0.6580 C   0  0  0  0  0  0  0  0  0  0  0  0
    1.3070    1.3777    0.0240 C   0  0  0  0  0  0  0  0  0  0  0  0
    1.5108    0.1642   -0.9071 C   0  0  0  0  0  0  0  0  0  0  0  0
    2.2143   -0.9647   -0.3254 C   0  0  0  0  0  0  0  0  0  0  0  0
    2.0642   -2.1237   -0.6039 O   0  0  0  0  0  0  0  0  0  0  0  0
    0.0083    0.2009   -0.8801 C   0  0  0  0  0  0  0  0  0  0  0  0
   -1.9406   -1.6232    1.2649 H   0  0  0  0  0  0  0  0  0  0  0  0
   -0.4971   -2.2218    0.3867 H   0  0  0  0  0  0  0  0  0  0  0  0
   -1.9909   -1.8345   -0.5334 H   0  0  0  0  0  0  0  0  0  0  0  0
   -1.9359    1.7954   -0.0008 H   0  0  0  0  0  0  0  0  0  0  0  0
   -3.0325    0.4027   -0.0018 H   0  0  0  0  0  0  0  0  0  0  0  0
   -2.2281    0.9900    1.5583 H   0  0  0  0  0  0  0  0  0  0  0  0
    0.9416   -0.4198    1.1251 H   0  0  0  0  0  0  0  0  0  0  0  0
    0.8622    2.2142   -0.5268 H   0  0  0  0  0  0  0  0  0  0  0  0
    2.1566    1.6047    0.6584 H   0  0  0  0  0  0  0  0  0  0  0  0
    1.9366    0.4235   -1.8877 H   0  0  0  0  0  0  0  0  0  0  0  0
    2.9682   -0.7530    0.4547 H   0  0  0  0  0  0  0  0  0  0  0  0
   -0.2828    1.1690   -1.4124 H   0  0  0  0  0  0  0  0  0  0  0  0
  1  2  1  0
  2  3  1  0
  2  4  1  0
  4  5  1  0
  5  6  1  0
  6  7  1  0
  7  8  2  0
  6  9  1  0
  9  2  1  0
  9  4  1  0
  1 10  1  0
  1 11  1  0
  1 12  1  0
  3 13  1  0
  3 14  1  0
  3 15  1  0
  4 16  1  0
  5 17  1  0
  5 18  1  0
  6 19  1  0
  7 20  1  0
  9 21  1  0
M  END
