
     RDKit          3D

 21 21  0  0  0  0  0  0  0  0999 V2000
   -1.8055    1.0494   -0.4031 C   0  0  0  0  0  0  0  0  0  0  0  0
   -1.0001   -0.0852    0.1863 C   0  0  0  0  0  0  0  0  0  0  0  0
   -1.9164   -1.1364    0.7422 C   0  0  0  0  0  0  0  0  0  0  0  0
    0.0691    0.3974    1.1645 C   0  0  0  0  0  0  0  0  0  0  0  0
    0.9787    0.4478   -0.0439 C   0  0  0  0  0  0  0  0  0  0  0  0
    2.3978    0.0144    0.2320 C   0  0  0  0  0  0  0  0  0  0  0  0
    3.1966    0.0718   -0.8845 O   0  0  0  0  0  0  0  0  0  0  0  0
    0.1071   -0.5722   -0.6646 C   0  0  0  0  0  0  0  0  0  0  0  0
    0.2471   -1.4253   -1.4999 O   0  0  0  0  0  0  0  0  0  0  0  0
   -1.1776    1.9084   -0.6951 H   0  0  0  0  0  0  0  0  0  0  0  0
   -2.4850    1.4123    0.3970 H   0  0  0  0  0  0  0  0  0  0  0  0
   -2.4182    0.6743   -1.2230 H   0  0  0  0  0  0  0  0  0  0  0  0
   -2.2851   -1.7440   -0.1292 H   0  0  0  0  0  0  0  0  0  0  0  0
   -1.4696   -1.7544    1.5323 H   0  0  0  0  0  0  0  0  0  0  0  0
   -2.7915   -0.6220    1.1844 H   0  0  0  0  0  0  0  0  0  0  0  0
   -0.1395    1.3519    1.6469 H   0  0  0  0  0  0  0  0  0  0  0  0
    0.3394   -0.4567    1.8259 H   0  0  0  0  0  0  0  0  0  0  0  0
    0.9736    1.4130   -0.5871 H   0  0  0  0  0  0  0  0  0  0  0  0
    2.4436   -1.0047    0.6694 H   0  0  0  0  0  0  0  0  0  0  0  0
    2.8412    0.6894    1.0049 H   0  0  0  0  0  0  0  0  0  0  0  0
    3.8945   -0.6292   -0.8237 H   0  0  0  0  0  0  0  0  0  0  0  0
  1  2  1  0
  2  3  1  0
  2  4  1  0
  4  5  1  0
  5  6  1  0
  6  7  1  0
  5  8  1  0
  8  9  2  0
  8  2  1  0
  1 10  1  0
  1 11  1  0
  1 12  1  0
  3 13  1  0
  3 14  1  0
  3 15  1  0
  4 16  1  0
  4 17  1  0
  5 18  1  0
  6 19  1  0
  6 20  1  0
  7 21  1  0
M  END
