
     RDKit          3D

 20 21  0  0  0  0  0  0  0  0999 V2000
   -1.0918   -0.2954    1.3238 C   0  0  0  0  0  0  0  0  0  0  0  0
   -0.5254    0.0547   -0.0120 C   0  0  0  0  0  0  0  0  0  0  0  0
   -1.6121    0.4195   -0.9823 C   0  0  0  0  0  0  0  0  0  0  0  0
    0.5160    1.1869    0.0935 C   0  0  0  0  0  0  0  0  0  0  0  0
    1.6916    0.4125   -0.4610 C   0  0  0  0  0  0  0  0  0  0  0  0
    1.6161   -0.8889    0.2890 C   0  0  0  0  0  0  0  0  0  0  0  0
    0.4035   -0.9983   -0.5697 C   0  0  0  0  0  0  0  0  0  0  0  0
    1.1035   -0.2501   -1.5374 O   0  0  0  0  0  0  0  0  0  0  0  0
   -0.4702   -1.0076    1.9050 H   0  0  0  0  0  0  0  0  0  0  0  0
   -1.3207    0.6081    1.9349 H   0  0  0  0  0  0  0  0  0  0  0  0
   -2.0592   -0.8399    1.1368 H   0  0  0  0  0  0  0  0  0  0  0  0
   -2.0915    1.3624   -0.6399 H   0  0  0  0  0  0  0  0  0  0  0  0
   -1.2427    0.4796   -2.0162 H   0  0  0  0  0  0  0  0  0  0  0  0
   -2.3782   -0.3604   -0.9399 H   0  0  0  0  0  0  0  0  0  0  0  0
    0.2866    2.0114   -0.5806 H   0  0  0  0  0  0  0  0  0  0  0  0
    0.6768    1.4941    1.1277 H   0  0  0  0  0  0  0  0  0  0  0  0
    2.6245    0.8999   -0.5910 H   0  0  0  0  0  0  0  0  0  0  0  0
    1.4725   -0.7046    1.3599 H   0  0  0  0  0  0  0  0  0  0  0  0
    2.3878   -1.6390    0.0132 H   0  0  0  0  0  0  0  0  0  0  0  0
    0.0128   -1.9446   -0.8538 H   0  0  0  0  0  0  0  0  0  0  0  0
  1  2  1  0
  2  3  1  0
  2  4  1  0
  4  5  1  0
  5  6  1  0
  6  7  1  0
  7  8  1  0
  7  2  1  0
  8  5  1  0
  1  9  1  0
  1 10  1  0
  1 11  1  0
  3 12  1  0
  3 13  1  0
  3 14  1  0
  4 15  1  0
  4 16  1  0
  5 17  1  0
  6 18  1  0
  6 19  1  0
  7 20  1  0
M  END
