
     RDKit          3D

 23 23  0  0  0  0  0  0  0  0999 V2000
    1.8165   -0.3311   -0.7235 C   0  0  0  0  0  0  0  0  0  0  0  0
    0.8394   -0.0759    0.4107 C   0  0  0  0  0  0  0  0  0  0  0  0
    1.1715   -0.8872    1.4997 O   0  0  0  0  0  0  0  0  0  0  0  0
    0.9885    1.3554    0.7785 C   0  0  0  0  0  0  0  0  0  0  0  0
    0.0273    2.0697    0.2099 C   0  0  0  0  0  0  0  0  0  0  0  0
   -0.8646    1.1610   -0.6019 C   0  0  0  0  0  0  0  0  0  0  0  0
   -0.5794   -0.1981   -0.0028 C   0  0  0  0  0  0  0  0  0  0  0  0
   -0.8449   -1.2365   -1.0483 C   0  0  0  0  0  0  0  0  0  0  0  0
   -1.4862   -0.4381    1.1597 C   0  0  0  0  0  0  0  0  0  0  0  0
    2.7391    0.2507   -0.5166 H   0  0  0  0  0  0  0  0  0  0  0  0
    1.4010    0.0002   -1.6790 H   0  0  0  0  0  0  0  0  0  0  0  0
    2.0861   -1.3984   -0.6876 H   0  0  0  0  0  0  0  0  0  0  0  0
    1.6046   -1.6907    1.1291 H   0  0  0  0  0  0  0  0  0  0  0  0
    1.7855    1.7281    1.4250 H   0  0  0  0  0  0  0  0  0  0  0  0
   -0.1137    3.1485    0.3027 H   0  0  0  0  0  0  0  0  0  0  0  0
   -1.9253    1.4076   -0.4605 H   0  0  0  0  0  0  0  0  0  0  0  0
   -0.6055    1.2201   -1.6772 H   0  0  0  0  0  0  0  0  0  0  0  0
   -0.2771   -1.1251   -1.9684 H   0  0  0  0  0  0  0  0  0  0  0  0
   -0.7289   -2.2746   -0.6616 H   0  0  0  0  0  0  0  0  0  0  0  0
   -1.9308   -1.1517   -1.3205 H   0  0  0  0  0  0  0  0  0  0  0  0
   -1.0282   -0.0707    2.1125 H   0  0  0  0  0  0  0  0  0  0  0  0
   -2.4404    0.0784    0.9929 H   0  0  0  0  0  0  0  0  0  0  0  0
   -1.6345   -1.5418    1.3270 H   0  0  0  0  0  0  0  0  0  0  0  0
  1  2  1  0
  2  3  1  0
  2  4  1  0
  4  5  2  0
  5  6  1  0
  6  7  1  0
  7  8  1  0
  7  9  1  0
  7  2  1  0
  1 10  1  0
  1 11  1  0
  1 12  1  0
  3 13  1  0
  4 14  1  0
  5 15  1  0
  6 16  1  0
  6 17  1  0
  8 18  1  0
  8 19  1  0
  8 20  1  0
  9 21  1  0
  9 22  1  0
  9 23  1  0
M  END
