
     RDKit          3D

 21 21  0  0  0  0  0  0  0  0999 V2000
   -1.2130   -1.1786    0.7390 C   0  0  0  0  0  0  0  0  0  0  0  0
   -0.8509    0.1041    0.0755 C   0  0  0  0  0  0  0  0  0  0  0  0
   -1.9198    0.5707   -0.8915 C   0  0  0  0  0  0  0  0  0  0  0  0
   -0.3735    1.2140    0.9497 C   0  0  0  0  0  0  0  0  0  0  0  0
    0.5474    1.5656   -0.0355 O   0  0  0  0  0  0  0  0  0  0  0  0
    0.5042    0.2568   -0.5079 C   0  0  0  0  0  0  0  0  0  0  0  0
    1.6130   -0.5484    0.1280 C   0  0  0  0  0  0  0  0  0  0  0  0
    2.9171   -0.3066   -0.5440 C   0  0  0  0  0  0  0  0  0  0  0  0
    3.6152    0.6687   -0.3504 O   0  0  0  0  0  0  0  0  0  0  0  0
   -0.3837   -1.7448    1.1827 H   0  0  0  0  0  0  0  0  0  0  0  0
   -1.6587   -1.8466   -0.0548 H   0  0  0  0  0  0  0  0  0  0  0  0
   -1.9745   -1.0550    1.5377 H   0  0  0  0  0  0  0  0  0  0  0  0
   -1.9311   -0.0818   -1.7962 H   0  0  0  0  0  0  0  0  0  0  0  0
   -1.6840    1.5882   -1.2450 H   0  0  0  0  0  0  0  0  0  0  0  0
   -2.9204    0.5949   -0.4255 H   0  0  0  0  0  0  0  0  0  0  0  0
   -1.1148    2.0593    1.0515 H   0  0  0  0  0  0  0  0  0  0  0  0
    0.0462    0.9359    1.9278 H   0  0  0  0  0  0  0  0  0  0  0  0
    0.4684    0.1678   -1.6180 H   0  0  0  0  0  0  0  0  0  0  0  0
    1.7356   -0.2975    1.1812 H   0  0  0  0  0  0  0  0  0  0  0  0
    1.3123   -1.6199    0.0662 H   0  0  0  0  0  0  0  0  0  0  0  0
    3.2650   -1.0469   -1.2498 H   0  0  0  0  0  0  0  0  0  0  0  0
  1  2  1  0
  2  3  1  0
  2  4  1  0
  4  5  1  0
  5  6  1  0
  6  7  1  0
  7  8  1  0
  8  9  2  0
  6  2  1  0
  1 10  1  0
  1 11  1  0
  1 12  1  0
  3 13  1  0
  3 14  1  0
  3 15  1  0
  4 16  1  0
  4 17  1  0
  6 18  1  0
  7 19  1  0
  7 20  1  0
  8 21  1  0
M  END
