
     RDKit          3D

 17 18  0  0  0  0  0  0  0  0999 V2000
    1.2434    1.1898   -0.4320 C   0  0  0  0  0  0  0  0  0  0  0  0
    0.6829   -0.1499    0.0315 C   0  0  0  0  0  0  0  0  0  0  0  0
    1.4766   -0.7711    1.1201 C   0  0  0  0  0  0  0  0  0  0  0  0
    1.8977   -1.9290    1.0475 O   0  0  0  0  0  0  0  0  0  0  0  0
    0.4442   -0.9478   -1.0691 O   0  0  0  0  0  0  0  0  0  0  0  0
   -0.8710   -0.4338   -1.0356 C   0  0  0  0  0  0  0  0  0  0  0  0
   -1.7312   -1.1490   -0.0732 C   0  0  0  0  0  0  0  0  0  0  0  0
   -0.7784   -0.1162    0.3885 C   0  0  0  0  0  0  0  0  0  0  0  0
   -1.3155    0.9786    1.0002 O   0  0  0  0  0  0  0  0  0  0  0  0
    0.6549    2.0072    0.0151 H   0  0  0  0  0  0  0  0  0  0  0  0
    2.3140    1.3034   -0.1073 H   0  0  0  0  0  0  0  0  0  0  0  0
    1.1728    1.3123   -1.5307 H   0  0  0  0  0  0  0  0  0  0  0  0
    1.6926   -0.2042    1.9942 H   0  0  0  0  0  0  0  0  0  0  0  0
   -1.2232    0.2193   -1.8170 H   0  0  0  0  0  0  0  0  0  0  0  0
   -2.8033   -0.8741   -0.1077 H   0  0  0  0  0  0  0  0  0  0  0  0
   -1.5326   -2.2396    0.0746 H   0  0  0  0  0  0  0  0  0  0  0  0
   -1.3239    1.8041    0.5008 H   0  0  0  0  0  0  0  0  0  0  0  0
  1  2  1  0
  2  3  1  0
  3  4  2  0
  2  5  1  0
  5  6  1  0
  6  7  1  0
  7  8  1  0
  8  9  1  0
  8  2  1  0
  8  6  1  0
  1 10  1  0
  1 11  1  0
  1 12  1  0
  3 13  1  0
  6 14  1  0
  7 15  1  0
  7 16  1  0
  9 17  1  0
M  END
