
     RDKit          3D

 21 22  0  0  0  0  0  0  0  0999 V2000
   -0.5806   -1.7733    0.5553 C   0  0  0  0  0  0  0  0  0  0  0  0
   -0.9774   -0.3798    0.1989 C   0  0  0  0  0  0  0  0  0  0  0  0
   -2.3271   -0.1818    0.5852 O   0  0  0  0  0  0  0  0  0  0  0  0
   -0.8306    0.0399   -1.2248 C   0  0  0  0  0  0  0  0  0  0  0  0
   -0.4157    1.4047   -0.7137 C   0  0  0  0  0  0  0  0  0  0  0  0
   -0.1325    0.7442    0.6235 C   0  0  0  0  0  0  0  0  0  0  0  0
    1.3191    0.5197    0.8925 C   0  0  0  0  0  0  0  0  0  0  0  0
    2.2960    0.0470   -0.0132 C   0  0  0  0  0  0  0  0  0  0  0  0
    2.2144    1.5226    0.2495 O   0  0  0  0  0  0  0  0  0  0  0  0
    0.4480   -1.8619    0.9449 H   0  0  0  0  0  0  0  0  0  0  0  0
   -0.7293   -2.4178   -0.3534 H   0  0  0  0  0  0  0  0  0  0  0  0
   -1.2430   -2.2102    1.3339 H   0  0  0  0  0  0  0  0  0  0  0  0
   -2.8701   -0.4597   -0.1910 H   0  0  0  0  0  0  0  0  0  0  0  0
   -0.0346   -0.4137   -1.8173 H   0  0  0  0  0  0  0  0  0  0  0  0
   -1.7752    0.0372   -1.8074 H   0  0  0  0  0  0  0  0  0  0  0  0
   -1.2878    2.0923   -0.7156 H   0  0  0  0  0  0  0  0  0  0  0  0
    0.4895    1.8022   -1.2232 H   0  0  0  0  0  0  0  0  0  0  0  0
   -0.6166    1.3781    1.4212 H   0  0  0  0  0  0  0  0  0  0  0  0
    1.5811    0.5480    1.9736 H   0  0  0  0  0  0  0  0  0  0  0  0
    2.2270   -0.0553   -1.1037 H   0  0  0  0  0  0  0  0  0  0  0  0
    3.2456   -0.3824    0.3847 H   0  0  0  0  0  0  0  0  0  0  0  0
  1  2  1  0
  2  3  1  0
  2  4  1  0
  4  5  1  0
  5  6  1  0
  6  7  1  0
  7  8  1  0
  8  9  1  0
  6  2  1  0
  9  7  1  0
  1 10  1  0
  1 11  1  0
  1 12  1  0
  3 13  1  0
  4 14  1  0
  4 15  1  0
  5 16  1  0
  5 17  1  0
  6 18  1  0
  7 19  1  0
  8 20  1  0
  8 21  1  0
M  END
