
     RDKit          3D

 23 24  0  0  0  0  0  0  0  0999 V2000
    0.1926   -0.4789    1.7075 C   0  0  0  0  0  0  0  0  0  0  0  0
    0.1393    0.0873    0.3033 C   0  0  0  0  0  0  0  0  0  0  0  0
   -1.1126    0.8048   -0.0495 C   0  0  0  0  0  0  0  0  0  0  0  0
   -2.3819    0.0418    0.0262 C   0  0  0  0  0  0  0  0  0  0  0  0
   -2.4434   -1.0662   -0.8015 O   0  0  0  0  0  0  0  0  0  0  0  0
    0.5131   -0.9328   -0.7248 C   0  0  0  0  0  0  0  0  0  0  0  0
    1.4547    0.1323   -1.3059 C   0  0  0  0  0  0  0  0  0  0  0  0
    2.6155    0.4235   -0.4612 C   0  0  0  0  0  0  0  0  0  0  0  0
    1.3346    0.9619   -0.0110 C   0  0  0  0  0  0  0  0  0  0  0  0
   -0.1234    0.2429    2.4636 H   0  0  0  0  0  0  0  0  0  0  0  0
    1.2556   -0.7246    1.9097 H   0  0  0  0  0  0  0  0  0  0  0  0
   -0.3658   -1.4360    1.7835 H   0  0  0  0  0  0  0  0  0  0  0  0
   -1.1998    1.6840    0.6321 H   0  0  0  0  0  0  0  0  0  0  0  0
   -1.0317    1.2279   -1.0870 H   0  0  0  0  0  0  0  0  0  0  0  0
   -3.1869    0.7421   -0.3520 H   0  0  0  0  0  0  0  0  0  0  0  0
   -2.6811   -0.1944    1.0724 H   0  0  0  0  0  0  0  0  0  0  0  0
   -2.6231   -1.8591   -0.2101 H   0  0  0  0  0  0  0  0  0  0  0  0
    1.1402   -1.7652   -0.3429 H   0  0  0  0  0  0  0  0  0  0  0  0
   -0.2528   -1.2635   -1.4353 H   0  0  0  0  0  0  0  0  0  0  0  0
    1.1696    0.6693   -2.2014 H   0  0  0  0  0  0  0  0  0  0  0  0
    3.0909   -0.4743    0.0278 H   0  0  0  0  0  0  0  0  0  0  0  0
    3.3524    1.1312   -0.8420 H   0  0  0  0  0  0  0  0  0  0  0  0
    1.1440    2.0460   -0.1015 H   0  0  0  0  0  0  0  0  0  0  0  0
  1  2  1  0
  2  3  1  0
  3  4  1  0
  4  5  1  0
  2  6  1  0
  6  7  1  0
  7  8  1  0
  8  9  1  0
  9  2  1  0
  9  7  1  0
  1 10  1  0
  1 11  1  0
  1 12  1  0
  3 13  1  0
  3 14  1  0
  4 15  1  0
  4 16  1  0
  5 17  1  0
  6 18  1  0
  6 19  1  0
  7 20  1  0
  8 21  1  0
  8 22  1  0
  9 23  1  0
M  END
