
     RDKit          3D

 21 22  0  0  0  0  0  0  0  0999 V2000
   -1.5263   -0.9181   -0.7601 C   0  0  0  0  0  0  0  0  0  0  0  0
   -0.6595   -0.1875    0.2386 C   0  0  0  0  0  0  0  0  0  0  0  0
   -1.3927    0.3309    1.4448 C   0  0  0  0  0  0  0  0  0  0  0  0
    0.5583   -1.0371    0.5890 C   0  0  0  0  0  0  0  0  0  0  0  0
    1.3644   -0.1532   -0.3225 C   0  0  0  0  0  0  0  0  0  0  0  0
    2.0805   -0.6521   -1.3657 O   0  0  0  0  0  0  0  0  0  0  0  0
    1.5043    1.2646    0.1439 C   0  0  0  0  0  0  0  0  0  0  0  0
    0.2409    0.7800   -0.4443 C   0  0  0  0  0  0  0  0  0  0  0  0
   -0.1920    1.2896   -1.6568 O   0  0  0  0  0  0  0  0  0  0  0  0
   -1.8718   -0.2379   -1.5760 H   0  0  0  0  0  0  0  0  0  0  0  0
   -0.9306   -1.7088   -1.2736 H   0  0  0  0  0  0  0  0  0  0  0  0
   -2.4049   -1.3917   -0.2960 H   0  0  0  0  0  0  0  0  0  0  0  0
   -0.7091    0.9182    2.0620 H   0  0  0  0  0  0  0  0  0  0  0  0
   -2.2735    0.8864    1.1283 H   0  0  0  0  0  0  0  0  0  0  0  0
   -1.7467   -0.5358    2.0455 H   0  0  0  0  0  0  0  0  0  0  0  0
    0.8779   -0.8974    1.6387 H   0  0  0  0  0  0  0  0  0  0  0  0
    0.4819   -2.0969    0.2798 H   0  0  0  0  0  0  0  0  0  0  0  0
    2.8235   -1.2140   -1.0103 H   0  0  0  0  0  0  0  0  0  0  0  0
    2.0965    1.9508   -0.4673 H   0  0  0  0  0  0  0  0  0  0  0  0
    1.6585    1.3440    1.2437 H   0  0  0  0  0  0  0  0  0  0  0  0
    0.0203    2.2661   -1.6417 H   0  0  0  0  0  0  0  0  0  0  0  0
  1  2  1  0
  2  3  1  0
  2  4  1  0
  4  5  1  0
  5  6  1  0
  5  7  1  0
  7  8  1  0
  8  9  1  0
  8  2  1  0
  8  5  1  0
  1 10  1  0
  1 11  1  0
  1 12  1  0
  3 13  1  0
  3 14  1  0
  3 15  1  0
  4 16  1  0
  4 17  1  0
  6 18  1  0
  7 19  1  0
  7 20  1  0
  9 21  1  0
M  END
