
     RDKit          3D

 21 23  0  0  0  0  0  0  0  0999 V2000
   -2.2145   -0.9573   -0.1299 C   0  0  0  0  0  0  0  0  0  0  0  0
   -1.2028    0.0676    0.3760 C   0  0  0  0  0  0  0  0  0  0  0  0
    0.0882    0.0642   -0.3532 C   0  0  0  0  0  0  0  0  0  0  0  0
    0.8739   -1.2301   -0.3268 C   0  0  0  0  0  0  0  0  0  0  0  0
    2.1414   -0.4997   -0.0518 C   0  0  0  0  0  0  0  0  0  0  0  0
    2.4537    0.8253   -0.6068 C   0  0  0  0  0  0  0  0  0  0  0  0
    1.2540    0.7447    0.2794 C   0  0  0  0  0  0  0  0  0  0  0  0
   -1.7385    1.3289    0.8726 C   0  0  0  0  0  0  0  0  0  0  0  0
   -1.2515    0.2378    1.7523 O   0  0  0  0  0  0  0  0  0  0  0  0
   -3.1086   -0.4331   -0.5322 H   0  0  0  0  0  0  0  0  0  0  0  0
   -2.4701   -1.6745    0.6696 H   0  0  0  0  0  0  0  0  0  0  0  0
   -1.8076   -1.5508   -0.9773 H   0  0  0  0  0  0  0  0  0  0  0  0
   -0.0556    0.4765   -1.3942 H   0  0  0  0  0  0  0  0  0  0  0  0
    0.5555   -1.8064    0.5906 H   0  0  0  0  0  0  0  0  0  0  0  0
    0.8113   -1.8465   -1.2242 H   0  0  0  0  0  0  0  0  0  0  0  0
    2.7760   -0.8720    0.7747 H   0  0  0  0  0  0  0  0  0  0  0  0
    2.1972    1.0853   -1.6736 H   0  0  0  0  0  0  0  0  0  0  0  0
    3.3492    1.3239   -0.2417 H   0  0  0  0  0  0  0  0  0  0  0  0
    1.2744    1.0326    1.3240 H   0  0  0  0  0  0  0  0  0  0  0  0
   -1.0976    2.2232    0.9989 H   0  0  0  0  0  0  0  0  0  0  0  0
   -2.8282    1.4604    0.9128 H   0  0  0  0  0  0  0  0  0  0  0  0
  1  2  1  0
  2  3  1  0
  3  4  1  0
  4  5  1  0
  5  6  1  0
  6  7  1  0
  2  8  1  0
  8  9  1  0
  9  2  1  0
  7  3  1  0
  7  5  1  0
  1 10  1  0
  1 11  1  0
  1 12  1  0
  3 13  1  0
  4 14  1  0
  4 15  1  0
  5 16  1  0
  6 17  1  0
  6 18  1  0
  7 19  1  0
  8 20  1  0
  8 21  1  0
M  END
