
     RDKit          3D

 19 19  0  0  0  0  0  0  0  0999 V2000
   -1.5293    0.1741   -1.2398 C   0  0  0  0  0  0  0  0  0  0  0  0
   -0.8076    0.0890    0.0883 C   0  0  0  0  0  0  0  0  0  0  0  0
   -1.0176   -1.2767    0.6945 C   0  0  0  0  0  0  0  0  0  0  0  0
   -1.1226    1.0813    0.9997 O   0  0  0  0  0  0  0  0  0  0  0  0
    0.2255    1.1998    1.3618 C   0  0  0  0  0  0  0  0  0  0  0  0
    0.6093    0.5695    0.0515 C   0  0  0  0  0  0  0  0  0  0  0  0
    1.5878   -0.4184    0.0875 O   0  0  0  0  0  0  0  0  0  0  0  0
    2.6922   -0.4828   -0.7517 C   0  0  0  0  0  0  0  0  0  0  0  0
    2.8164    0.4188   -1.6072 O   0  0  0  0  0  0  0  0  0  0  0  0
   -2.6096    0.3238   -1.0599 H   0  0  0  0  0  0  0  0  0  0  0  0
   -1.3399   -0.8006   -1.7578 H   0  0  0  0  0  0  0  0  0  0  0  0
   -1.1483    1.0388   -1.8007 H   0  0  0  0  0  0  0  0  0  0  0  0
   -1.7715   -1.1943    1.5212 H   0  0  0  0  0  0  0  0  0  0  0  0
   -0.1018   -1.7245    1.0969 H   0  0  0  0  0  0  0  0  0  0  0  0
   -1.4808   -1.9941   -0.0338 H   0  0  0  0  0  0  0  0  0  0  0  0
    0.4617    2.2992    1.4155 H   0  0  0  0  0  0  0  0  0  0  0  0
    0.4273    0.6327    2.2681 H   0  0  0  0  0  0  0  0  0  0  0  0
    0.7348    1.3707   -0.7210 H   0  0  0  0  0  0  0  0  0  0  0  0
    3.3738   -1.3064   -0.6131 H   0  0  0  0  0  0  0  0  0  0  0  0
  1  2  1  0
  2  3  1  0
  2  4  1  0
  4  5  1  0
  5  6  1  0
  6  7  1  0
  7  8  1  0
  8  9  2  0
  6  2  1  0
  1 10  1  0
  1 11  1  0
  1 12  1  0
  3 13  1  0
  3 14  1  0
  3 15  1  0
  5 16  1  0
  5 17  1  0
  6 18  1  0
  8 19  1  0
M  END
