
     RDKit          3D

 21 21  0  0  0  0  0  0  0  0999 V2000
   -2.1938    1.1700    1.1774 C   0  0  0  0  0  0  0  0  0  0  0  0
   -1.6960    0.1579    0.1757 C   0  0  0  0  0  0  0  0  0  0  0  0
   -0.2261    0.2319   -0.1740 C   0  0  0  0  0  0  0  0  0  0  0  0
    0.5888    0.1353    0.9190 O   0  0  0  0  0  0  0  0  0  0  0  0
    1.9183    0.2125    0.5953 C   0  0  0  0  0  0  0  0  0  0  0  0
    2.4329   -0.8366   -0.3320 C   0  0  0  0  0  0  0  0  0  0  0  0
    3.8122   -0.5980   -0.5464 O   0  0  0  0  0  0  0  0  0  0  0  0
   -2.5790   -0.8752   -0.2575 C   0  0  0  0  0  0  0  0  0  0  0  0
   -2.5017    0.2712   -1.0686 O   0  0  0  0  0  0  0  0  0  0  0  0
   -2.4722    2.1274    0.6483 H   0  0  0  0  0  0  0  0  0  0  0  0
   -1.4008    1.4671    1.9039 H   0  0  0  0  0  0  0  0  0  0  0  0
   -3.1218    0.8522    1.6935 H   0  0  0  0  0  0  0  0  0  0  0  0
    0.0564   -0.5854   -0.8897 H   0  0  0  0  0  0  0  0  0  0  0  0
   -0.0561    1.1879   -0.6976 H   0  0  0  0  0  0  0  0  0  0  0  0
    2.5569    0.1849    1.5129 H   0  0  0  0  0  0  0  0  0  0  0  0
    2.0613    1.2020    0.0700 H   0  0  0  0  0  0  0  0  0  0  0  0
    2.2984   -1.8641    0.0121 H   0  0  0  0  0  0  0  0  0  0  0  0
    2.0071   -0.7540   -1.3756 H   0  0  0  0  0  0  0  0  0  0  0  0
    4.3478   -0.8983    0.2102 H   0  0  0  0  0  0  0  0  0  0  0  0
   -2.2736   -1.8089   -0.7840 H   0  0  0  0  0  0  0  0  0  0  0  0
   -3.5588   -0.9797    0.2365 H   0  0  0  0  0  0  0  0  0  0  0  0
  1  2  1  0
  2  3  1  0
  3  4  1  0
  4  5  1  0
  5  6  1  0
  6  7  1  0
  2  8  1  0
  8  9  1  0
  9  2  1  0
  1 10  1  0
  1 11  1  0
  1 12  1  0
  3 13  1  0
  3 14  1  0
  5 15  1  0
  5 16  1  0
  6 17  1  0
  6 18  1  0
  7 19  1  0
  8 20  1  0
  8 21  1  0
M  END
