
     RDKit          3D

 19 19  0  0  0  0  0  0  0  0999 V2000
   -1.1048    1.3365    0.2073 C   0  0  0  0  0  0  0  0  0  0  0  0
   -0.6757   -0.0985   -0.0208 C   0  0  0  0  0  0  0  0  0  0  0  0
   -1.7459   -0.9077   -0.7549 C   0  0  0  0  0  0  0  0  0  0  0  0
   -0.0316   -0.8600    1.1095 C   0  0  0  0  0  0  0  0  0  0  0  0
    0.7285   -0.4770   -0.1570 C   0  0  0  0  0  0  0  0  0  0  0  0
    1.8320    0.4988    0.0331 C   0  0  0  0  0  0  0  0  0  0  0  0
    3.0858   -0.1076   -0.1511 O   0  0  0  0  0  0  0  0  0  0  0  0
   -2.1712    1.2713    0.5752 H   0  0  0  0  0  0  0  0  0  0  0  0
   -1.1980    1.8179   -0.8051 H   0  0  0  0  0  0  0  0  0  0  0  0
   -0.4498    1.8790    0.8872 H   0  0  0  0  0  0  0  0  0  0  0  0
   -2.6043   -0.9839   -0.0311 H   0  0  0  0  0  0  0  0  0  0  0  0
   -1.3867   -1.8886   -1.0602 H   0  0  0  0  0  0  0  0  0  0  0  0
   -2.1380   -0.2995   -1.6050 H   0  0  0  0  0  0  0  0  0  0  0  0
    0.1723   -0.2781    2.0340 H   0  0  0  0  0  0  0  0  0  0  0  0
   -0.2643   -1.9315    1.2449 H   0  0  0  0  0  0  0  0  0  0  0  0
    0.9934   -1.3226   -0.8554 H   0  0  0  0  0  0  0  0  0  0  0  0
    1.7214    1.3735   -0.6369 H   0  0  0  0  0  0  0  0  0  0  0  0
    1.8206    0.8999    1.0662 H   0  0  0  0  0  0  0  0  0  0  0  0
    3.4164    0.0783   -1.0799 H   0  0  0  0  0  0  0  0  0  0  0  0
  1  2  1  0
  2  3  1  0
  2  4  1  0
  4  5  1  0
  5  6  1  0
  6  7  1  0
  5  2  1  0
  1  8  1  0
  1  9  1  0
  1 10  1  0
  3 11  1  0
  3 12  1  0
  3 13  1  0
  4 14  1  0
  4 15  1  0
  5 16  1  0
  6 17  1  0
  6 18  1  0
  7 19  1  0
M  END
