
     RDKit          3D

 21 22  0  0  0  0  0  0  0  0999 V2000
   -0.8626   -1.0736   -1.3434 C   0  0  0  0  0  0  0  0  0  0  0  0
   -0.4406   -0.3872   -0.0367 C   0  0  0  0  0  0  0  0  0  0  0  0
    0.9485   -0.7174    0.3891 C   0  0  0  0  0  0  0  0  0  0  0  0
    2.0125   -0.3114   -0.6411 C   0  0  0  0  0  0  0  0  0  0  0  0
    1.9625    0.2662    0.7449 C   0  0  0  0  0  0  0  0  0  0  0  0
   -0.8380    1.0533    0.1301 C   0  0  0  0  0  0  0  0  0  0  0  0
   -1.4590    1.6279   -0.9762 O   0  0  0  0  0  0  0  0  0  0  0  0
   -1.5207   -0.0420    0.8782 C   0  0  0  0  0  0  0  0  0  0  0  0
   -1.3627   -0.1225    2.2702 O   0  0  0  0  0  0  0  0  0  0  0  0
   -1.2847   -2.0596   -1.0127 H   0  0  0  0  0  0  0  0  0  0  0  0
    0.0053   -1.2796   -1.9921 H   0  0  0  0  0  0  0  0  0  0  0  0
   -1.6466   -0.4814   -1.8103 H   0  0  0  0  0  0  0  0  0  0  0  0
    1.0903   -1.7637    0.7563 H   0  0  0  0  0  0  0  0  0  0  0  0
    2.7781   -1.0404   -0.9209 H   0  0  0  0  0  0  0  0  0  0  0  0
    1.7132    0.3624   -1.4610 H   0  0  0  0  0  0  0  0  0  0  0  0
    2.7998   -0.0756    1.3980 H   0  0  0  0  0  0  0  0  0  0  0  0
    1.7814    1.3464    0.8217 H   0  0  0  0  0  0  0  0  0  0  0  0
   -0.2409    1.7361    0.7491 H   0  0  0  0  0  0  0  0  0  0  0  0
   -1.0711    2.5102   -1.1839 H   0  0  0  0  0  0  0  0  0  0  0  0
   -2.5695   -0.2324    0.5570 H   0  0  0  0  0  0  0  0  0  0  0  0
   -1.7954    0.6844    2.6837 H   0  0  0  0  0  0  0  0  0  0  0  0
  1  2  1  0
  2  3  1  0
  3  4  1  0
  4  5  1  0
  2  6  1  0
  6  7  1  0
  6  8  1  0
  8  9  1  0
  8  2  1  0
  5  3  1  0
  1 10  1  0
  1 11  1  0
  1 12  1  0
  3 13  1  0
  4 14  1  0
  4 15  1  0
  5 16  1  0
  5 17  1  0
  6 18  1  0
  7 19  1  0
  8 20  1  0
  9 21  1  0
M  END
