
     RDKit          3D

 19 19  0  0  0  0  0  0  0  0999 V2000
   -1.2058    0.4436   -1.2356 C   0  0  0  0  0  0  0  0  0  0  0  0
   -0.8120    0.4221    0.2140 C   0  0  0  0  0  0  0  0  0  0  0  0
   -1.2399    1.5300    0.9509 O   0  0  0  0  0  0  0  0  0  0  0  0
   -0.9967   -0.9579    0.8679 C   0  0  0  0  0  0  0  0  0  0  0  0
    0.3441   -0.3644    0.7048 C   0  0  0  0  0  0  0  0  0  0  0  0
    0.9707    0.0967    1.8754 O   0  0  0  0  0  0  0  0  0  0  0  0
    1.3289   -0.8788   -0.3045 C   0  0  0  0  0  0  0  0  0  0  0  0
    2.1922    0.2731   -0.7130 C   0  0  0  0  0  0  0  0  0  0  0  0
    2.0299    1.4006   -0.2494 O   0  0  0  0  0  0  0  0  0  0  0  0
   -2.3078    0.6241   -1.3092 H   0  0  0  0  0  0  0  0  0  0  0  0
   -1.0194   -0.5455   -1.7230 H   0  0  0  0  0  0  0  0  0  0  0  0
   -0.6871    1.2042   -1.8336 H   0  0  0  0  0  0  0  0  0  0  0  0
   -2.1105    1.8059    0.5492 H   0  0  0  0  0  0  0  0  0  0  0  0
   -1.4871   -0.9368    1.8724 H   0  0  0  0  0  0  0  0  0  0  0  0
   -1.2330   -1.8130    0.2086 H   0  0  0  0  0  0  0  0  0  0  0  0
    0.3130    0.5237    2.4609 H   0  0  0  0  0  0  0  0  0  0  0  0
    2.0202   -1.5873    0.2150 H   0  0  0  0  0  0  0  0  0  0  0  0
    0.8817   -1.4072   -1.1529 H   0  0  0  0  0  0  0  0  0  0  0  0
    3.0186    0.1672   -1.3980 H   0  0  0  0  0  0  0  0  0  0  0  0
  1  2  1  0
  2  3  1  0
  2  4  1  0
  4  5  1  0
  5  6  1  0
  5  7  1  0
  7  8  1  0
  8  9  2  0
  5  2  1  0
  1 10  1  0
  1 11  1  0
  1 12  1  0
  3 13  1  0
  4 14  1  0
  4 15  1  0
  6 16  1  0
  7 17  1  0
  7 18  1  0
  8 19  1  0
M  END
