
     RDKit          3D

 21 22  0  0  0  0  0  0  0  0999 V2000
   -0.8798    0.2196   -1.6194 C   0  0  0  0  0  0  0  0  0  0  0  0
   -0.9213   -0.2633   -0.1722 C   0  0  0  0  0  0  0  0  0  0  0  0
    0.4195   -0.3670    0.4678 C   0  0  0  0  0  0  0  0  0  0  0  0
    1.0170    1.0101    0.4325 C   0  0  0  0  0  0  0  0  0  0  0  0
    2.3240    0.8481    0.2723 C   0  0  0  0  0  0  0  0  0  0  0  0
    2.5433   -0.6236    0.2077 C   0  0  0  0  0  0  0  0  0  0  0  0
    1.3366   -1.0674   -0.3211 O   0  0  0  0  0  0  0  0  0  0  0  0
   -2.1085   -0.9993    0.2657 C   0  0  0  0  0  0  0  0  0  0  0  0
   -1.9729    0.3926    0.7421 C   0  0  0  0  0  0  0  0  0  0  0  0
    0.1062    0.6599   -1.8771 H   0  0  0  0  0  0  0  0  0  0  0  0
   -1.1766   -0.5845   -2.3264 H   0  0  0  0  0  0  0  0  0  0  0  0
   -1.6153    1.0669   -1.7153 H   0  0  0  0  0  0  0  0  0  0  0  0
    0.3634   -0.7502    1.4924 H   0  0  0  0  0  0  0  0  0  0  0  0
    0.5391    1.9771    0.5149 H   0  0  0  0  0  0  0  0  0  0  0  0
    3.0845    1.6319    0.2020 H   0  0  0  0  0  0  0  0  0  0  0  0
    3.4182   -0.8901   -0.3973 H   0  0  0  0  0  0  0  0  0  0  0  0
    2.7192   -1.0401    1.2279 H   0  0  0  0  0  0  0  0  0  0  0  0
   -2.0742   -1.7836    1.0514 H   0  0  0  0  0  0  0  0  0  0  0  0
   -2.8613   -1.2298   -0.5190 H   0  0  0  0  0  0  0  0  0  0  0  0
   -1.7205    0.5615    1.7978 H   0  0  0  0  0  0  0  0  0  0  0  0
   -2.5404    1.2313    0.2733 H   0  0  0  0  0  0  0  0  0  0  0  0
  1  2  1  0
  2  3  1  0
  3  4  1  0
  4  5  2  0
  5  6  1  0
  6  7  1  0
  2  8  1  0
  8  9  1  0
  9  2  1  0
  7  3  1  0
  1 10  1  0
  1 11  1  0
  1 12  1  0
  3 13  1  0
  4 14  1  0
  5 15  1  0
  6 16  1  0
  6 17  1  0
  8 18  1  0
  8 19  1  0
  9 20  1  0
  9 21  1  0
M  END
