
     RDKit          3D

 18 18  0  0  0  0  0  0  0  0999 V2000
    0.0651    1.4416    0.8262 C   0  0  0  0  0  0  0  0  0  0  0  0
    0.0301    0.1707    0.0479 C   0  0  0  0  0  0  0  0  0  0  0  0
    1.2918   -0.2187   -0.6565 C   0  0  0  0  0  0  0  0  0  0  0  0
    2.3745   -0.3995    0.1666 O   0  0  0  0  0  0  0  0  0  0  0  0
   -0.5914   -1.0201    0.7177 C   0  0  0  0  0  0  0  0  0  0  0  0
   -1.4479   -1.2519   -0.4781 C   0  0  0  0  0  0  0  0  0  0  0  0
   -2.0758   -2.2190   -0.8468 O   0  0  0  0  0  0  0  0  0  0  0  0
   -1.1507    0.1412   -0.8999 C   0  0  0  0  0  0  0  0  0  0  0  0
   -0.6644    1.4336    1.6645 H   0  0  0  0  0  0  0  0  0  0  0  0
    1.0538    1.6592    1.2874 H   0  0  0  0  0  0  0  0  0  0  0  0
   -0.1198    2.2795    0.1095 H   0  0  0  0  0  0  0  0  0  0  0  0
    1.0919   -1.2151   -1.1469 H   0  0  0  0  0  0  0  0  0  0  0  0
    1.4938    0.4778   -1.5052 H   0  0  0  0  0  0  0  0  0  0  0  0
    2.5829    0.3702    0.7423 H   0  0  0  0  0  0  0  0  0  0  0  0
   -1.1148   -0.8350    1.6567 H   0  0  0  0  0  0  0  0  0  0  0  0
    0.1018   -1.9007    0.8374 H   0  0  0  0  0  0  0  0  0  0  0  0
   -2.0046    0.7982   -0.5603 H   0  0  0  0  0  0  0  0  0  0  0  0
   -0.9162    0.2884   -1.9626 H   0  0  0  0  0  0  0  0  0  0  0  0
  1  2  1  0
  2  3  1  0
  3  4  1  0
  2  5  1  0
  5  6  1  0
  6  7  2  0
  6  8  1  0
  8  2  1  0
  1  9  1  0
  1 10  1  0
  1 11  1  0
  3 12  1  0
  3 13  1  0
  4 14  1  0
  5 15  1  0
  5 16  1  0
  8 17  1  0
  8 18  1  0
M  END
