
     RDKit          3D

 23 24  0  0  0  0  0  0  0  0999 V2000
   -1.2983   -0.8921   -1.1982 C   0  0  0  0  0  0  0  0  0  0  0  0
   -0.8346   -0.0799   -0.0276 C   0  0  0  0  0  0  0  0  0  0  0  0
   -1.2979   -0.6834    1.2640 C   0  0  0  0  0  0  0  0  0  0  0  0
   -1.3281    1.3500   -0.1391 C   0  0  0  0  0  0  0  0  0  0  0  0
   -0.0406    1.8337   -0.3557 O   0  0  0  0  0  0  0  0  0  0  0  0
    0.4575    0.5852   -0.0826 C   0  0  0  0  0  0  0  0  0  0  0  0
    1.4918    0.1325   -1.0502 C   0  0  0  0  0  0  0  0  0  0  0  0
    2.3377   -0.3329    0.1143 C   0  0  0  0  0  0  0  0  0  0  0  0
    1.4169    0.4497    1.0467 C   0  0  0  0  0  0  0  0  0  0  0  0
   -2.3808   -1.1409   -0.9885 H   0  0  0  0  0  0  0  0  0  0  0  0
   -1.2845   -0.3097   -2.1399 H   0  0  0  0  0  0  0  0  0  0  0  0
   -0.7952   -1.8752   -1.2891 H   0  0  0  0  0  0  0  0  0  0  0  0
   -2.3477   -1.0489    1.0887 H   0  0  0  0  0  0  0  0  0  0  0  0
   -0.6966   -1.5431    1.6020 H   0  0  0  0  0  0  0  0  0  0  0  0
   -1.3766    0.0914    2.0428 H   0  0  0  0  0  0  0  0  0  0  0  0
   -1.7777    1.7540    0.8055 H   0  0  0  0  0  0  0  0  0  0  0  0
   -2.0480    1.5070   -0.9565 H   0  0  0  0  0  0  0  0  0  0  0  0
    1.2035   -0.6297   -1.7786 H   0  0  0  0  0  0  0  0  0  0  0  0
    1.9749    1.0042   -1.5657 H   0  0  0  0  0  0  0  0  0  0  0  0
    2.3018   -1.4388    0.2669 H   0  0  0  0  0  0  0  0  0  0  0  0
    3.3774    0.0449    0.0979 H   0  0  0  0  0  0  0  0  0  0  0  0
    1.8247    1.4414    1.3579 H   0  0  0  0  0  0  0  0  0  0  0  0
    1.1203   -0.2193    1.8848 H   0  0  0  0  0  0  0  0  0  0  0  0
  1  2  1  0
  2  3  1  0
  2  4  1  0
  4  5  1  0
  5  6  1  0
  6  7  1  0
  7  8  1  0
  8  9  1  0
  6  2  1  0
  9  6  1  0
  1 10  1  0
  1 11  1  0
  1 12  1  0
  3 13  1  0
  3 14  1  0
  3 15  1  0
  4 16  1  0
  4 17  1  0
  7 18  1  0
  7 19  1  0
  8 20  1  0
  8 21  1  0
  9 22  1  0
  9 23  1  0
M  END
