
     RDKit          3D

 23 24  0  0  0  0  0  0  0  0999 V2000
   -1.6157    0.9714    0.6810 C   0  0  0  0  0  0  0  0  0  0  0  0
   -0.7332   -0.0857    0.0522 C   0  0  0  0  0  0  0  0  0  0  0  0
   -1.5330   -0.8840   -0.9653 C   0  0  0  0  0  0  0  0  0  0  0  0
   -0.1520   -1.0312    1.0830 C   0  0  0  0  0  0  0  0  0  0  0  0
    1.1073   -0.6719    1.4994 O   0  0  0  0  0  0  0  0  0  0  0  0
    1.9026   -0.1113    0.5352 C   0  0  0  0  0  0  0  0  0  0  0  0
    1.4794   -0.4748   -0.8798 C   0  0  0  0  0  0  0  0  0  0  0  0
    0.3857    0.5877   -0.7023 C   0  0  0  0  0  0  0  0  0  0  0  0
    1.3620    1.2910    0.2189 C   0  0  0  0  0  0  0  0  0  0  0  0
   -1.7425    1.7663   -0.1014 H   0  0  0  0  0  0  0  0  0  0  0  0
   -2.6285    0.5731    0.9225 H   0  0  0  0  0  0  0  0  0  0  0  0
   -1.1333    1.4174    1.5586 H   0  0  0  0  0  0  0  0  0  0  0  0
   -1.2174   -0.6684   -2.0083 H   0  0  0  0  0  0  0  0  0  0  0  0
   -1.4504   -1.9698   -0.8151 H   0  0  0  0  0  0  0  0  0  0  0  0
   -2.5964   -0.5766   -0.8995 H   0  0  0  0  0  0  0  0  0  0  0  0
   -0.1032   -2.0693    0.6862 H   0  0  0  0  0  0  0  0  0  0  0  0
   -0.8364   -1.0948    1.9718 H   0  0  0  0  0  0  0  0  0  0  0  0
    2.9730   -0.1554    0.7331 H   0  0  0  0  0  0  0  0  0  0  0  0
    1.1201   -1.4862   -1.0318 H   0  0  0  0  0  0  0  0  0  0  0  0
    2.2459   -0.0933   -1.5846 H   0  0  0  0  0  0  0  0  0  0  0  0
    0.1071    1.1196   -1.6097 H   0  0  0  0  0  0  0  0  0  0  0  0
    2.1178    1.8188   -0.4038 H   0  0  0  0  0  0  0  0  0  0  0  0
    0.9411    1.8275    1.0597 H   0  0  0  0  0  0  0  0  0  0  0  0
  1  2  1  0
  2  3  1  0
  2  4  1  0
  4  5  1  0
  5  6  1  0
  6  7  1  0
  7  8  1  0
  8  9  1  0
  8  2  1  0
  9  6  1  0
  1 10  1  0
  1 11  1  0
  1 12  1  0
  3 13  1  0
  3 14  1  0
  3 15  1  0
  4 16  1  0
  4 17  1  0
  6 18  1  0
  7 19  1  0
  7 20  1  0
  8 21  1  0
  9 22  1  0
  9 23  1  0
M  END
