
     RDKit          3D

 19 20  0  0  0  0  0  0  0  0999 V2000
    0.2144    1.6578   -0.0881 C   0  0  0  0  0  0  0  0  0  0  0  0
    0.4262    0.1497   -0.0485 C   0  0  0  0  0  0  0  0  0  0  0  0
    1.8761   -0.2033   -0.2748 C   0  0  0  0  0  0  0  0  0  0  0  0
    1.9995   -1.5783   -0.2123 O   0  0  0  0  0  0  0  0  0  0  0  0
   -0.0309   -0.2859    1.1892 O   0  0  0  0  0  0  0  0  0  0  0  0
   -1.4033   -0.2593    1.1289 C   0  0  0  0  0  0  0  0  0  0  0  0
   -1.8160   -0.6394   -0.2666 C   0  0  0  0  0  0  0  0  0  0  0  0
   -1.6397    0.2224   -1.3199 O   0  0  0  0  0  0  0  0  0  0  0  0
   -0.4945   -0.5056   -1.0190 C   0  0  0  0  0  0  0  0  0  0  0  0
    1.0163    2.1763   -0.6415 H   0  0  0  0  0  0  0  0  0  0  0  0
   -0.7685    1.9017   -0.5330 H   0  0  0  0  0  0  0  0  0  0  0  0
    0.2176    2.0706    0.9539 H   0  0  0  0  0  0  0  0  0  0  0  0
    2.5020    0.3432    0.4389 H   0  0  0  0  0  0  0  0  0  0  0  0
    2.1020    0.0922   -1.3402 H   0  0  0  0  0  0  0  0  0  0  0  0
    2.1123   -1.8027    0.7624 H   0  0  0  0  0  0  0  0  0  0  0  0
   -1.7694   -1.0916    1.7991 H   0  0  0  0  0  0  0  0  0  0  0  0
   -1.8613    0.6564    1.5014 H   0  0  0  0  0  0  0  0  0  0  0  0
   -2.4590   -1.5046   -0.4544 H   0  0  0  0  0  0  0  0  0  0  0  0
   -0.2239   -1.3996   -1.5756 H   0  0  0  0  0  0  0  0  0  0  0  0
  1  2  1  0
  2  3  1  0
  3  4  1  0
  2  5  1  0
  5  6  1  0
  6  7  1  0
  7  8  1  0
  8  9  1  0
  9  2  1  0
  9  7  1  0
  1 10  1  0
  1 11  1  0
  1 12  1  0
  3 13  1  0
  3 14  1  0
  4 15  1  0
  6 16  1  0
  6 17  1  0
  7 18  1  0
  9 19  1  0
M  END
