
     RDKit          3D

 24 24  0  0  0  0  0  0  0  0999 V2000
   -0.9453    1.3652    1.1082 C   0  0  0  0  0  0  0  0  0  0  0  0
   -0.6803    0.3078    0.0856 C   0  0  0  0  0  0  0  0  0  0  0  0
   -1.8985   -0.5576   -0.0625 C   0  0  0  0  0  0  0  0  0  0  0  0
   -0.3705    0.9757   -1.2627 C   0  0  0  0  0  0  0  0  0  0  0  0
    0.8683    0.1101   -1.4071 C   0  0  0  0  0  0  0  0  0  0  0  0
    0.6397   -0.3300    0.0393 C   0  0  0  0  0  0  0  0  0  0  0  0
    0.7007   -1.8362    0.1068 C   0  0  0  0  0  0  0  0  0  0  0  0
    1.7355    0.2480    0.8999 C   0  0  0  0  0  0  0  0  0  0  0  0
   -1.6647    0.9710    1.8832 H   0  0  0  0  0  0  0  0  0  0  0  0
   -1.4724    2.2308    0.6207 H   0  0  0  0  0  0  0  0  0  0  0  0
   -0.0787    1.7389    1.6373 H   0  0  0  0  0  0  0  0  0  0  0  0
   -2.5043   -0.2589   -0.9623 H   0  0  0  0  0  0  0  0  0  0  0  0
   -1.7004   -1.6224   -0.1428 H   0  0  0  0  0  0  0  0  0  0  0  0
   -2.6192   -0.4348    0.7982 H   0  0  0  0  0  0  0  0  0  0  0  0
   -0.0985    2.0281   -1.1944 H   0  0  0  0  0  0  0  0  0  0  0  0
   -1.0809    0.7553   -2.0584 H   0  0  0  0  0  0  0  0  0  0  0  0
    0.7502   -0.7074   -2.1522 H   0  0  0  0  0  0  0  0  0  0  0  0
    1.7975    0.6477   -1.5921 H   0  0  0  0  0  0  0  0  0  0  0  0
    0.4935   -2.1865    1.1385 H   0  0  0  0  0  0  0  0  0  0  0  0
    1.7848   -2.1056   -0.0716 H   0  0  0  0  0  0  0  0  0  0  0  0
    0.1339   -2.3448   -0.6692 H   0  0  0  0  0  0  0  0  0  0  0  0
    2.7053   -0.1067    0.4410 H   0  0  0  0  0  0  0  0  0  0  0  0
    1.7228   -0.2203    1.9118 H   0  0  0  0  0  0  0  0  0  0  0  0
    1.7815    1.3326    0.9047 H   0  0  0  0  0  0  0  0  0  0  0  0
  1  2  1  0
  2  3  1  0
  2  4  1  0
  4  5  1  0
  5  6  1  0
  6  7  1  0
  6  8  1  0
  6  2  1  0
  1  9  1  0
  1 10  1  0
  1 11  1  0
  3 12  1  0
  3 13  1  0
  3 14  1  0
  4 15  1  0
  4 16  1  0
  5 17  1  0
  5 18  1  0
  7 19  1  0
  7 20  1  0
  7 21  1  0
  8 22  1  0
  8 23  1  0
  8 24  1  0
M  END
