
     RDKit          3D

 23 23  0  0  0  0  0  0  0  0999 V2000
   -0.6578    2.0885    0.0371 C   0  0  0  0  0  0  0  0  0  0  0  0
   -0.2144    0.6411    0.0324 C   0  0  0  0  0  0  0  0  0  0  0  0
    1.0705    0.5613   -0.7104 C   0  0  0  0  0  0  0  0  0  0  0  0
    1.6737   -0.7955   -0.8257 C   0  0  0  0  0  0  0  0  0  0  0  0
    1.9436   -1.3340    0.4383 O   0  0  0  0  0  0  0  0  0  0  0  0
   -0.1589    0.0659    1.3922 C   0  0  0  0  0  0  0  0  0  0  0  0
   -0.7838   -1.0944    1.4696 C   0  0  0  0  0  0  0  0  0  0  0  0
   -1.3406   -1.4417    0.1522 C   0  0  0  0  0  0  0  0  0  0  0  0
   -1.2915   -0.1832   -0.6388 C   0  0  0  0  0  0  0  0  0  0  0  0
    0.0610    2.7554   -0.4874 H   0  0  0  0  0  0  0  0  0  0  0  0
   -0.7199    2.4903    1.0810 H   0  0  0  0  0  0  0  0  0  0  0  0
   -1.6495    2.2014   -0.4355 H   0  0  0  0  0  0  0  0  0  0  0  0
    1.8132    1.2119   -0.1784 H   0  0  0  0  0  0  0  0  0  0  0  0
    0.9479    0.9777   -1.7256 H   0  0  0  0  0  0  0  0  0  0  0  0
    1.1582   -1.4903   -1.4908 H   0  0  0  0  0  0  0  0  0  0  0  0
    2.6949   -0.6462   -1.2881 H   0  0  0  0  0  0  0  0  0  0  0  0
    2.5478   -0.6765    0.8880 H   0  0  0  0  0  0  0  0  0  0  0  0
    0.3378    0.5319    2.2505 H   0  0  0  0  0  0  0  0  0  0  0  0
   -0.9041   -1.7484    2.3542 H   0  0  0  0  0  0  0  0  0  0  0  0
   -0.7766   -2.2821   -0.3250 H   0  0  0  0  0  0  0  0  0  0  0  0
   -2.3908   -1.8390    0.2293 H   0  0  0  0  0  0  0  0  0  0  0  0
   -1.0888   -0.3380   -1.7169 H   0  0  0  0  0  0  0  0  0  0  0  0
   -2.2720    0.3439   -0.5023 H   0  0  0  0  0  0  0  0  0  0  0  0
  1  2  1  0
  2  3  1  0
  3  4  1  0
  4  5  1  0
  2  6  1  0
  6  7  2  0
  7  8  1  0
  8  9  1  0
  9  2  1  0
  1 10  1  0
  1 11  1  0
  1 12  1  0
  3 13  1  0
  3 14  1  0
  4 15  1  0
  4 16  1  0
  5 17  1  0
  6 18  1  0
  7 19  1  0
  8 20  1  0
  8 21  1  0
  9 22  1  0
  9 23  1  0
M  END
