
     RDKit          3D

 23 24  0  0  0  0  0  0  0  0999 V2000
   -1.1436    1.0395    1.0951 C   0  0  0  0  0  0  0  0  0  0  0  0
   -0.6999    0.1157   -0.0305 C   0  0  0  0  0  0  0  0  0  0  0  0
   -1.8505   -0.0677   -0.9739 C   0  0  0  0  0  0  0  0  0  0  0  0
   -0.2241   -1.2217    0.5555 C   0  0  0  0  0  0  0  0  0  0  0  0
    1.2482   -1.1552    0.2959 C   0  0  0  0  0  0  0  0  0  0  0  0
    1.8329    0.0693    0.9529 C   0  0  0  0  0  0  0  0  0  0  0  0
    1.4488    1.1623    0.2777 C   0  0  0  0  0  0  0  0  0  0  0  0
    0.4869    0.6581   -0.7587 C   0  0  0  0  0  0  0  0  0  0  0  0
    1.2179   -0.6357   -1.1541 C   0  0  0  0  0  0  0  0  0  0  0  0
   -0.2902    1.4142    1.6862 H   0  0  0  0  0  0  0  0  0  0  0  0
   -1.7346    1.8631    0.6866 H   0  0  0  0  0  0  0  0  0  0  0  0
   -1.7968    0.4662    1.7908 H   0  0  0  0  0  0  0  0  0  0  0  0
   -1.4986   -0.1915   -2.0172 H   0  0  0  0  0  0  0  0  0  0  0  0
   -2.4955    0.8564   -0.9747 H   0  0  0  0  0  0  0  0  0  0  0  0
   -2.5236   -0.9028   -0.6996 H   0  0  0  0  0  0  0  0  0  0  0  0
   -0.6455   -2.0061   -0.1322 H   0  0  0  0  0  0  0  0  0  0  0  0
   -0.5118   -1.3490    1.5930 H   0  0  0  0  0  0  0  0  0  0  0  0
    1.8143   -2.0463    0.4264 H   0  0  0  0  0  0  0  0  0  0  0  0
    2.4668    0.1203    1.8290 H   0  0  0  0  0  0  0  0  0  0  0  0
    1.7602    2.1913    0.4385 H   0  0  0  0  0  0  0  0  0  0  0  0
    0.3072    1.3221   -1.5699 H   0  0  0  0  0  0  0  0  0  0  0  0
    2.2255   -0.4298   -1.5217 H   0  0  0  0  0  0  0  0  0  0  0  0
    0.6059   -1.2726   -1.7953 H   0  0  0  0  0  0  0  0  0  0  0  0
  1  2  1  0
  2  3  1  0
  2  4  1  0
  4  5  1  0
  5  6  1  0
  6  7  2  0
  7  8  1  0
  8  9  1  0
  8  2  1  0
  9  5  1  0
  1 10  1  0
  1 11  1  0
  1 12  1  0
  3 13  1  0
  3 14  1  0
  3 15  1  0
  4 16  1  0
  4 17  1  0
  5 18  1  0
  6 19  1  0
  7 20  1  0
  8 21  1  0
  9 22  1  0
  9 23  1  0
M  END
