
     RDKit          3D

 21 22  0  0  0  0  0  0  0  0999 V2000
    0.3642    0.8601   -1.4610 C   0  0  0  0  0  0  0  0  0  0  0  0
    0.3861    0.2206   -0.0744 C   0  0  0  0  0  0  0  0  0  0  0  0
    1.7518    0.2858    0.4725 C   0  0  0  0  0  0  0  0  0  0  0  0
    2.6077   -0.4195   -0.4057 O   0  0  0  0  0  0  0  0  0  0  0  0
   -0.7628    0.5904    0.7937 C   0  0  0  0  0  0  0  0  0  0  0  0
   -0.5749   -0.7264    1.5094 C   0  0  0  0  0  0  0  0  0  0  0  0
   -0.3742   -1.0570    0.0523 C   0  0  0  0  0  0  0  0  0  0  0  0
   -1.6373   -0.2582   -0.0977 C   0  0  0  0  0  0  0  0  0  0  0  0
   -2.0069    0.2043   -1.3030 O   0  0  0  0  0  0  0  0  0  0  0  0
   -0.2882    1.7682   -1.4816 H   0  0  0  0  0  0  0  0  0  0  0  0
    0.1198    0.1285   -2.2533 H   0  0  0  0  0  0  0  0  0  0  0  0
    1.3790    1.2602   -1.7565 H   0  0  0  0  0  0  0  0  0  0  0  0
    1.9543   -0.0666    1.4632 H   0  0  0  0  0  0  0  0  0  0  0  0
    2.0979    1.3556    0.4056 H   0  0  0  0  0  0  0  0  0  0  0  0
    2.9016   -1.2699   -0.0343 H   0  0  0  0  0  0  0  0  0  0  0  0
   -0.9992    1.4685    1.2066 H   0  0  0  0  0  0  0  0  0  0  0  0
   -1.5347   -1.0882    1.9373 H   0  0  0  0  0  0  0  0  0  0  0  0
    0.2322   -0.8442    2.1985 H   0  0  0  0  0  0  0  0  0  0  0  0
   -0.1696   -1.9547   -0.3384 H   0  0  0  0  0  0  0  0  0  0  0  0
   -2.4517   -0.7084    0.5370 H   0  0  0  0  0  0  0  0  0  0  0  0
   -2.9951    0.2508   -1.3700 H   0  0  0  0  0  0  0  0  0  0  0  0
  1  2  1  0
  2  3  1  0
  3  4  1  0
  2  5  1  0
  5  6  1  0
  6  7  1  0
  7  8  1  0
  8  9  1  0
  7  2  1  0
  8  5  1  0
  1 10  1  0
  1 11  1  0
  1 12  1  0
  3 13  1  0
  3 14  1  0
  4 15  1  0
  5 16  1  0
  6 17  1  0
  6 18  1  0
  7 19  1  0
  8 20  1  0
  9 21  1  0
M  END
