
     RDKit          3D

 23 24  0  0  0  0  0  0  0  0999 V2000
   -0.4334    1.7660   -0.9318 C   0  0  0  0  0  0  0  0  0  0  0  0
   -0.3552    0.3929   -0.3039 C   0  0  0  0  0  0  0  0  0  0  0  0
    1.0336   -0.1795   -0.3661 C   0  0  0  0  0  0  0  0  0  0  0  0
    1.3638   -1.5072    0.1802 C   0  0  0  0  0  0  0  0  0  0  0  0
    1.9222   -0.2281    0.8022 C   0  0  0  0  0  0  0  0  0  0  0  0
    3.3133   -0.0898    0.6169 O   0  0  0  0  0  0  0  0  0  0  0  0
   -1.0915    0.2806    0.9689 C   0  0  0  0  0  0  0  0  0  0  0  0
   -2.2153   -0.4784    0.2624 C   0  0  0  0  0  0  0  0  0  0  0  0
   -1.3292   -0.5888   -0.9563 C   0  0  0  0  0  0  0  0  0  0  0  0
    0.1539    1.7391   -1.8617 H   0  0  0  0  0  0  0  0  0  0  0  0
   -1.4903    2.0577   -1.0989 H   0  0  0  0  0  0  0  0  0  0  0  0
   -0.0298    2.5098   -0.1988 H   0  0  0  0  0  0  0  0  0  0  0  0
    1.5400    0.0895   -1.3360 H   0  0  0  0  0  0  0  0  0  0  0  0
    2.0546   -2.1562   -0.3981 H   0  0  0  0  0  0  0  0  0  0  0  0
    0.6419   -2.0975    0.7813 H   0  0  0  0  0  0  0  0  0  0  0  0
    1.5949   -0.0474    1.8280 H   0  0  0  0  0  0  0  0  0  0  0  0
    3.6710    0.6938    1.0746 H   0  0  0  0  0  0  0  0  0  0  0  0
   -0.6664   -0.2971    1.7889 H   0  0  0  0  0  0  0  0  0  0  0  0
   -1.4835    1.2576    1.3636 H   0  0  0  0  0  0  0  0  0  0  0  0
   -2.4270   -1.4614    0.7357 H   0  0  0  0  0  0  0  0  0  0  0  0
   -3.0871    0.1535    0.0371 H   0  0  0  0  0  0  0  0  0  0  0  0
   -0.9352   -1.6032   -1.0969 H   0  0  0  0  0  0  0  0  0  0  0  0
   -1.7452   -0.2059   -1.8912 H   0  0  0  0  0  0  0  0  0  0  0  0
  1  2  1  0
  2  3  1  0
  3  4  1  0
  4  5  1  0
  5  6  1  0
  2  7  1  0
  7  8  1  0
  8  9  1  0
  9  2  1  0
  5  3  1  0
  1 10  1  0
  1 11  1  0
  1 12  1  0
  3 13  1  0
  4 14  1  0
  4 15  1  0
  5 16  1  0
  6 17  1  0
  7 18  1  0
  7 19  1  0
  8 20  1  0
  8 21  1  0
  9 22  1  0
  9 23  1  0
M  END
