
     RDKit          3D

 21 21  0  0  0  0  0  0  0  0999 V2000
   -1.5004   -1.1525    0.5141 C   0  0  0  0  0  0  0  0  0  0  0  0
   -0.6715    0.0236    0.0311 C   0  0  0  0  0  0  0  0  0  0  0  0
   -1.6688    1.1334   -0.3300 C   0  0  0  0  0  0  0  0  0  0  0  0
    0.1744    0.5699    1.1127 C   0  0  0  0  0  0  0  0  0  0  0  0
    1.4702    0.4869    1.2006 C   0  0  0  0  0  0  0  0  0  0  0  0
    2.2731   -0.2085    0.1565 C   0  0  0  0  0  0  0  0  0  0  0  0
    1.5350   -0.0893   -1.1161 C   0  0  0  0  0  0  0  0  0  0  0  0
    2.1070    0.2654   -2.1400 O   0  0  0  0  0  0  0  0  0  0  0  0
    0.0876   -0.3963   -1.1807 C   0  0  0  0  0  0  0  0  0  0  0  0
   -1.2760   -1.4102    1.5761 H   0  0  0  0  0  0  0  0  0  0  0  0
   -2.5860   -1.0047    0.3377 H   0  0  0  0  0  0  0  0  0  0  0  0
   -1.2421   -2.0887   -0.0607 H   0  0  0  0  0  0  0  0  0  0  0  0
   -2.4809    0.7724   -0.9599 H   0  0  0  0  0  0  0  0  0  0  0  0
   -2.1140    1.5276    0.6139 H   0  0  0  0  0  0  0  0  0  0  0  0
   -1.1491    1.9789   -0.8209 H   0  0  0  0  0  0  0  0  0  0  0  0
   -0.3525    1.0977    1.9199 H   0  0  0  0  0  0  0  0  0  0  0  0
    2.0161    0.9235    2.0421 H   0  0  0  0  0  0  0  0  0  0  0  0
    2.4592   -1.2677    0.4551 H   0  0  0  0  0  0  0  0  0  0  0  0
    3.2697    0.2773    0.0646 H   0  0  0  0  0  0  0  0  0  0  0  0
   -0.3631    0.0714   -2.0710 H   0  0  0  0  0  0  0  0  0  0  0  0
    0.0120   -1.5101   -1.3451 H   0  0  0  0  0  0  0  0  0  0  0  0
  1  2  1  0
  2  3  1  0
  2  4  1  0
  4  5  2  0
  5  6  1  0
  6  7  1  0
  7  8  2  0
  7  9  1  0
  9  2  1  0
  1 10  1  0
  1 11  1  0
  1 12  1  0
  3 13  1  0
  3 14  1  0
  3 15  1  0
  4 16  1  0
  5 17  1  0
  6 18  1  0
  6 19  1  0
  9 20  1  0
  9 21  1  0
M  END
