
     RDKit          3D

 21 22  0  0  0  0  0  0  0  0999 V2000
    2.1652   -0.1203    0.6873 C   0  0  0  0  0  0  0  0  0  0  0  0
    1.1809    0.4007   -0.3601 C   0  0  0  0  0  0  0  0  0  0  0  0
    1.3974    1.7185   -0.7680 O   0  0  0  0  0  0  0  0  0  0  0  0
    0.6825   -0.6105   -1.3346 C   0  0  0  0  0  0  0  0  0  0  0  0
   -0.2161   -0.0447   -0.3410 C   0  0  0  0  0  0  0  0  0  0  0  0
   -0.7723   -0.7874    0.8223 C   0  0  0  0  0  0  0  0  0  0  0  0
   -2.2337   -0.3437    0.8238 C   0  0  0  0  0  0  0  0  0  0  0  0
   -2.1440    0.9711    0.3378 O   0  0  0  0  0  0  0  0  0  0  0  0
   -1.3525    0.8317   -0.7925 C   0  0  0  0  0  0  0  0  0  0  0  0
    2.4700   -1.1778    0.4330 H   0  0  0  0  0  0  0  0  0  0  0  0
    3.0933    0.4623    0.6907 H   0  0  0  0  0  0  0  0  0  0  0  0
    1.6645   -0.1890    1.6656 H   0  0  0  0  0  0  0  0  0  0  0  0
    1.6757    2.2467    0.0070 H   0  0  0  0  0  0  0  0  0  0  0  0
    0.5696   -0.2534   -2.3977 H   0  0  0  0  0  0  0  0  0  0  0  0
    1.1230   -1.6162   -1.2884 H   0  0  0  0  0  0  0  0  0  0  0  0
   -0.3575   -0.4211    1.8002 H   0  0  0  0  0  0  0  0  0  0  0  0
   -0.6642   -1.8762    0.7696 H   0  0  0  0  0  0  0  0  0  0  0  0
   -2.6469   -0.3805    1.8418 H   0  0  0  0  0  0  0  0  0  0  0  0
   -2.7821   -0.9730    0.0924 H   0  0  0  0  0  0  0  0  0  0  0  0
   -0.9569    1.8207   -1.0699 H   0  0  0  0  0  0  0  0  0  0  0  0
   -1.8958    0.3422   -1.6195 H   0  0  0  0  0  0  0  0  0  0  0  0
  1  2  1  0
  2  3  1  0
  2  4  1  0
  4  5  1  0
  5  6  1  0
  6  7  1  0
  7  8  1  0
  8  9  1  0
  5  2  1  0
  9  5  1  0
  1 10  1  0
  1 11  1  0
  1 12  1  0
  3 13  1  0
  4 14  1  0
  4 15  1  0
  6 16  1  0
  6 17  1  0
  7 18  1  0
  7 19  1  0
  9 20  1  0
  9 21  1  0
M  END
