
     RDKit          3D

 19 20  0  0  0  0  0  0  0  0999 V2000
   -1.6783    0.0587    1.1211 C   0  0  0  0  0  0  0  0  0  0  0  0
   -0.9432    0.0040   -0.1953 C   0  0  0  0  0  0  0  0  0  0  0  0
   -1.8343   -0.3131   -1.1872 O   0  0  0  0  0  0  0  0  0  0  0  0
   -0.3682    1.3462   -0.4636 C   0  0  0  0  0  0  0  0  0  0  0  0
    0.9151    1.2549   -0.7892 C   0  0  0  0  0  0  0  0  0  0  0  0
    1.3707   -0.1396   -0.7842 C   0  0  0  0  0  0  0  0  0  0  0  0
    2.0631   -0.6180    0.4651 C   0  0  0  0  0  0  0  0  0  0  0  0
    0.8779   -1.1247    0.9923 O   0  0  0  0  0  0  0  0  0  0  0  0
    0.2220   -0.9247   -0.1927 C   0  0  0  0  0  0  0  0  0  0  0  0
   -1.8122   -0.9334    1.5853 H   0  0  0  0  0  0  0  0  0  0  0  0
   -1.1691    0.7163    1.8567 H   0  0  0  0  0  0  0  0  0  0  0  0
   -2.6673    0.5249    0.9136 H   0  0  0  0  0  0  0  0  0  0  0  0
   -2.7017   -0.5945   -0.8481 H   0  0  0  0  0  0  0  0  0  0  0  0
   -0.9295    2.2665   -0.3993 H   0  0  0  0  0  0  0  0  0  0  0  0
    1.5386    2.1093   -1.0269 H   0  0  0  0  0  0  0  0  0  0  0  0
    1.7692   -0.5478   -1.7253 H   0  0  0  0  0  0  0  0  0  0  0  0
    2.8287   -1.4055    0.3077 H   0  0  0  0  0  0  0  0  0  0  0  0
    2.4500    0.1752    1.1258 H   0  0  0  0  0  0  0  0  0  0  0  0
    0.0686   -1.8546   -0.7558 H   0  0  0  0  0  0  0  0  0  0  0  0
  1  2  1  0
  2  3  1  0
  2  4  1  0
  4  5  2  0
  5  6  1  0
  6  7  1  0
  7  8  1  0
  8  9  1  0
  9  2  1  0
  9  6  1  0
  1 10  1  0
  1 11  1  0
  1 12  1  0
  3 13  1  0
  4 14  1  0
  5 15  1  0
  6 16  1  0
  7 17  1  0
  7 18  1  0
  9 19  1  0
M  END
