
     RDKit          3D

 21 21  0  0  0  0  0  0  0  0999 V2000
   -0.6355   -0.0406    1.5222 C   0  0  0  0  0  0  0  0  0  0  0  0
   -0.4612   -0.4668    0.0847 C   0  0  0  0  0  0  0  0  0  0  0  0
   -1.3272   -1.6132   -0.3443 C   0  0  0  0  0  0  0  0  0  0  0  0
   -0.3409    0.6254   -0.9849 C   0  0  0  0  0  0  0  0  0  0  0  0
   -0.6172    1.9683   -0.4691 C   0  0  0  0  0  0  0  0  0  0  0  0
   -1.2235    2.7645   -1.1612 O   0  0  0  0  0  0  0  0  0  0  0  0
    0.8252   -0.1657   -0.5360 C   0  0  0  0  0  0  0  0  0  0  0  0
    1.9089    0.5501    0.2301 C   0  0  0  0  0  0  0  0  0  0  0  0
    1.3285   -1.1385   -1.4130 O   0  0  0  0  0  0  0  0  0  0  0  0
   -0.9720   -0.9138    2.1003 H   0  0  0  0  0  0  0  0  0  0  0  0
    0.3247    0.2877    1.9790 H   0  0  0  0  0  0  0  0  0  0  0  0
   -1.3471    0.7896    1.6492 H   0  0  0  0  0  0  0  0  0  0  0  0
   -1.3402   -1.7274   -1.4655 H   0  0  0  0  0  0  0  0  0  0  0  0
   -1.0247   -2.5583    0.1208 H   0  0  0  0  0  0  0  0  0  0  0  0
   -2.3763   -1.3517   -0.0657 H   0  0  0  0  0  0  0  0  0  0  0  0
   -0.7079    0.4085   -1.9964 H   0  0  0  0  0  0  0  0  0  0  0  0
   -0.3142    2.3199    0.5124 H   0  0  0  0  0  0  0  0  0  0  0  0
    2.4892   -0.1283    0.8930 H   0  0  0  0  0  0  0  0  0  0  0  0
    1.5607    1.4085    0.8054 H   0  0  0  0  0  0  0  0  0  0  0  0
    2.6408    0.9398   -0.5213 H   0  0  0  0  0  0  0  0  0  0  0  0
    1.6099   -1.9578   -0.9399 H   0  0  0  0  0  0  0  0  0  0  0  0
  1  2  1  0
  2  3  1  0
  2  4  1  0
  4  5  1  0
  5  6  2  0
  4  7  1  0
  7  8  1  0
  7  9  1  0
  7  2  1  0
  1 10  1  0
  1 11  1  0
  1 12  1  0
  3 13  1  0
  3 14  1  0
  3 15  1  0
  4 16  1  0
  5 17  1  0
  8 18  1  0
  8 19  1  0
  8 20  1  0
  9 21  1  0
M  END
