
     RDKit          3D

 21 22  0  0  0  0  0  0  0  0999 V2000
   -1.9266    1.1295   -0.0032 C   0  0  0  0  0  0  0  0  0  0  0  0
   -1.2383   -0.1973   -0.0938 C   0  0  0  0  0  0  0  0  0  0  0  0
   -2.1876   -1.1855   -0.4483 O   0  0  0  0  0  0  0  0  0  0  0  0
   -0.5227   -0.6525    1.1552 C   0  0  0  0  0  0  0  0  0  0  0  0
    0.6044   -1.1139    0.2404 C   0  0  0  0  0  0  0  0  0  0  0  0
    0.0010   -0.2692   -0.9063 C   0  0  0  0  0  0  0  0  0  0  0  0
    1.3546   -0.0231   -0.4255 C   0  0  0  0  0  0  0  0  0  0  0  0
    1.7438    1.1817    0.3880 C   0  0  0  0  0  0  0  0  0  0  0  0
    2.3939   -0.4681   -1.2534 O   0  0  0  0  0  0  0  0  0  0  0  0
   -1.4599    1.8389   -0.7387 H   0  0  0  0  0  0  0  0  0  0  0  0
   -3.0055    1.0868   -0.3086 H   0  0  0  0  0  0  0  0  0  0  0  0
   -1.8941    1.5945    0.9861 H   0  0  0  0  0  0  0  0  0  0  0  0
   -1.8079   -1.7568   -1.1832 H   0  0  0  0  0  0  0  0  0  0  0  0
   -1.0153   -1.4991    1.6989 H   0  0  0  0  0  0  0  0  0  0  0  0
   -0.2513    0.1208    1.8736 H   0  0  0  0  0  0  0  0  0  0  0  0
    0.7280   -2.1670    0.0070 H   0  0  0  0  0  0  0  0  0  0  0  0
   -0.1291   -0.8047   -1.8896 H   0  0  0  0  0  0  0  0  0  0  0  0
    0.9812    1.5361    1.0739 H   0  0  0  0  0  0  0  0  0  0  0  0
    2.6607    0.8948    0.9804 H   0  0  0  0  0  0  0  0  0  0  0  0
    2.0917    1.9733   -0.3139 H   0  0  0  0  0  0  0  0  0  0  0  0
    2.8789   -1.2192   -0.8391 H   0  0  0  0  0  0  0  0  0  0  0  0
  1  2  1  0
  2  3  1  0
  2  4  1  0
  4  5  1  0
  5  6  1  0
  6  7  1  0
  7  8  1  0
  7  9  1  0
  6  2  1  0
  7  5  1  0
  1 10  1  0
  1 11  1  0
  1 12  1  0
  3 13  1  0
  4 14  1  0
  4 15  1  0
  5 16  1  0
  6 17  1  0
  8 18  1  0
  8 19  1  0
  8 20  1  0
  9 21  1  0
M  END
