
     RDKit          3D

 22 22  0  0  0  0  0  0  0  0999 V2000
   -1.3123    1.3195   -0.2087 C   0  0  0  0  0  0  0  0  0  0  0  0
   -0.7281   -0.0803    0.0256 C   0  0  0  0  0  0  0  0  0  0  0  0
   -1.9449   -0.9671    0.3287 C   0  0  0  0  0  0  0  0  0  0  0  0
   -0.1126   -0.5653   -1.2282 C   0  0  0  0  0  0  0  0  0  0  0  0
    1.1734   -0.3397   -1.4669 C   0  0  0  0  0  0  0  0  0  0  0  0
    2.0114    0.3974   -0.4883 C   0  0  0  0  0  0  0  0  0  0  0  0
    1.6500   -0.0968    0.8792 C   0  0  0  0  0  0  0  0  0  0  0  0
    0.1954   -0.0868    1.1915 C   0  0  0  0  0  0  0  0  0  0  0  0
   -0.5209    2.0759   -0.2293 H   0  0  0  0  0  0  0  0  0  0  0  0
   -2.0488    1.4727    0.6103 H   0  0  0  0  0  0  0  0  0  0  0  0
   -1.8569    1.2936   -1.1795 H   0  0  0  0  0  0  0  0  0  0  0  0
   -2.5208   -0.5591    1.1643 H   0  0  0  0  0  0  0  0  0  0  0  0
   -2.5857   -0.9096   -0.5892 H   0  0  0  0  0  0  0  0  0  0  0  0
   -1.5526   -1.9769    0.5042 H   0  0  0  0  0  0  0  0  0  0  0  0
   -0.7021   -1.1155   -1.9773 H   0  0  0  0  0  0  0  0  0  0  0  0
    1.6258   -0.6937   -2.3835 H   0  0  0  0  0  0  0  0  0  0  0  0
    1.9085    1.4965   -0.5960 H   0  0  0  0  0  0  0  0  0  0  0  0
    3.0999    0.1847   -0.6311 H   0  0  0  0  0  0  0  0  0  0  0  0
    2.2155    0.5404    1.6206 H   0  0  0  0  0  0  0  0  0  0  0  0
    2.0484   -1.1516    0.9513 H   0  0  0  0  0  0  0  0  0  0  0  0
   -0.0113    0.7656    1.8933 H   0  0  0  0  0  0  0  0  0  0  0  0
   -0.0313   -1.0040    1.8092 H   0  0  0  0  0  0  0  0  0  0  0  0
  1  2  1  0
  2  3  1  0
  2  4  1  0
  4  5  2  0
  5  6  1  0
  6  7  1  0
  7  8  1  0
  8  2  1  0
  1  9  1  0
  1 10  1  0
  1 11  1  0
  3 12  1  0
  3 13  1  0
  3 14  1  0
  4 15  1  0
  5 16  1  0
  6 17  1  0
  6 18  1  0
  7 19  1  0
  7 20  1  0
  8 21  1  0
  8 22  1  0
M  END
