
     RDKit          3D

 21 23  0  0  0  0  0  0  0  0999 V2000
   -1.3323    1.3925   -0.0137 C   0  0  0  0  0  0  0  0  0  0  0  0
   -0.9522   -0.0430   -0.1594 C   0  0  0  0  0  0  0  0  0  0  0  0
    0.4674   -0.4874   -0.0883 C   0  0  0  0  0  0  0  0  0  0  0  0
    1.0046   -0.1354    1.1829 O   0  0  0  0  0  0  0  0  0  0  0  0
    2.2070   -0.3727    0.5140 C   0  0  0  0  0  0  0  0  0  0  0  0
    2.9159    0.4744   -0.3756 C   0  0  0  0  0  0  0  0  0  0  0  0
    1.4836    0.5746   -0.5296 C   0  0  0  0  0  0  0  0  0  0  0  0
   -1.8631   -0.9181   -1.0088 C   0  0  0  0  0  0  0  0  0  0  0  0
   -1.9318   -1.0424    0.4571 C   0  0  0  0  0  0  0  0  0  0  0  0
   -2.4243    1.4805   -0.2824 H   0  0  0  0  0  0  0  0  0  0  0  0
   -1.2770    1.7411    1.0587 H   0  0  0  0  0  0  0  0  0  0  0  0
   -0.8002    2.0754   -0.6773 H   0  0  0  0  0  0  0  0  0  0  0  0
    0.6580   -1.5013   -0.4206 H   0  0  0  0  0  0  0  0  0  0  0  0
    2.2003   -1.4697    0.2201 H   0  0  0  0  0  0  0  0  0  0  0  0
    3.5576    1.2891    0.0797 H   0  0  0  0  0  0  0  0  0  0  0  0
    3.4674    0.0445   -1.2639 H   0  0  0  0  0  0  0  0  0  0  0  0
    1.0982    1.5443   -0.0756 H   0  0  0  0  0  0  0  0  0  0  0  0
   -2.7402   -0.3972   -1.4811 H   0  0  0  0  0  0  0  0  0  0  0  0
   -1.3984   -1.7049   -1.6015 H   0  0  0  0  0  0  0  0  0  0  0  0
   -1.5383   -1.9411    0.9540 H   0  0  0  0  0  0  0  0  0  0  0  0
   -2.8022   -0.6034    1.0277 H   0  0  0  0  0  0  0  0  0  0  0  0
  1  2  1  0
  2  3  1  0
  3  4  1  0
  4  5  1  0
  5  6  1  0
  6  7  1  0
  2  8  1  0
  8  9  1  0
  9  2  1  0
  7  3  1  0
  7  5  1  0
  1 10  1  0
  1 11  1  0
  1 12  1  0
  3 13  1  0
  5 14  1  0
  6 15  1  0
  6 16  1  0
  7 17  1  0
  8 18  1  0
  8 19  1  0
  9 20  1  0
  9 21  1  0
M  END
