
     RDKit          3D

 17 17  0  0  0  0  0  0  0  0999 V2000
   -1.1465   -1.1879    0.1206 C   0  0  0  0  0  0  0  0  0  0  0  0
   -0.4294    0.1451   -0.0168 C   0  0  0  0  0  0  0  0  0  0  0  0
   -1.3829    1.2612   -0.1405 C   0  0  0  0  0  0  0  0  0  0  0  0
   -1.5058    2.1443    0.6915 O   0  0  0  0  0  0  0  0  0  0  0  0
    0.5519    0.1122   -1.1922 C   0  0  0  0  0  0  0  0  0  0  0  0
    1.7359    0.6695   -0.7034 O   0  0  0  0  0  0  0  0  0  0  0  0
    1.8624   -0.0099    0.5312 C   0  0  0  0  0  0  0  0  0  0  0  0
    0.5107    0.3125    1.1212 C   0  0  0  0  0  0  0  0  0  0  0  0
    0.3348    0.6243    2.2654 O   0  0  0  0  0  0  0  0  0  0  0  0
   -2.1320   -0.9537    0.6106 H   0  0  0  0  0  0  0  0  0  0  0  0
   -1.3762   -1.5848   -0.9002 H   0  0  0  0  0  0  0  0  0  0  0  0
   -0.5709   -1.9097    0.7258 H   0  0  0  0  0  0  0  0  0  0  0  0
   -2.0086    1.3044   -1.0122 H   0  0  0  0  0  0  0  0  0  0  0  0
    0.7929   -0.9274   -1.4822 H   0  0  0  0  0  0  0  0  0  0  0  0
    0.1477    0.7189   -2.0238 H   0  0  0  0  0  0  0  0  0  0  0  0
    1.9344   -1.0868    0.2682 H   0  0  0  0  0  0  0  0  0  0  0  0
    2.6818    0.3679    1.1367 H   0  0  0  0  0  0  0  0  0  0  0  0
  1  2  1  0
  2  3  1  0
  3  4  2  0
  2  5  1  0
  5  6  1  0
  6  7  1  0
  7  8  1  0
  8  9  2  0
  8  2  1  0
  1 10  1  0
  1 11  1  0
  1 12  1  0
  3 13  1  0
  5 14  1  0
  5 15  1  0
  7 16  1  0
  7 17  1  0
M  END
