
     RDKit          3D

 21 23  0  0  0  0  0  0  0  0999 V2000
   -1.9606   -0.9370    0.6495 C   0  0  0  0  0  0  0  0  0  0  0  0
   -0.9654    0.0941    0.1000 C   0  0  0  0  0  0  0  0  0  0  0  0
   -1.7115    1.4074   -0.1892 C   0  0  0  0  0  0  0  0  0  0  0  0
    0.3282    0.0286    0.7704 C   0  0  0  0  0  0  0  0  0  0  0  0
    1.6729   -0.4813    0.2793 C   0  0  0  0  0  0  0  0  0  0  0  0
    2.6257    0.5453   -0.0865 C   0  0  0  0  0  0  0  0  0  0  0  0
    1.4492    0.3608   -0.9462 C   0  0  0  0  0  0  0  0  0  0  0  0
    0.1160   -0.2058   -0.7293 C   0  0  0  0  0  0  0  0  0  0  0  0
    0.1034   -1.5996   -1.0680 O   0  0  0  0  0  0  0  0  0  0  0  0
   -1.4681   -1.8119    1.0617 H   0  0  0  0  0  0  0  0  0  0  0  0
   -2.7095   -1.1371   -0.1358 H   0  0  0  0  0  0  0  0  0  0  0  0
   -2.4479   -0.4088    1.5223 H   0  0  0  0  0  0  0  0  0  0  0  0
   -1.0185    2.1349   -0.6399 H   0  0  0  0  0  0  0  0  0  0  0  0
   -2.5134    1.2146   -0.8970 H   0  0  0  0  0  0  0  0  0  0  0  0
   -2.0278    1.7942    0.7808 H   0  0  0  0  0  0  0  0  0  0  0  0
    0.4601    0.9738    1.2709 H   0  0  0  0  0  0  0  0  0  0  0  0
    1.8984   -1.5316    0.2332 H   0  0  0  0  0  0  0  0  0  0  0  0
    2.6602    1.4421    0.6043 H   0  0  0  0  0  0  0  0  0  0  0  0
    3.6493    0.2053   -0.3215 H   0  0  0  0  0  0  0  0  0  0  0  0
    1.8336    0.0664   -1.9744 H   0  0  0  0  0  0  0  0  0  0  0  0
    0.0258   -2.1546   -0.2847 H   0  0  0  0  0  0  0  0  0  0  0  0
  1  2  1  0
  2  3  1  0
  2  4  1  0
  4  5  1  0
  5  6  1  0
  6  7  1  0
  7  8  1  0
  8  9  1  0
  8  2  1  0
  8  4  1  0
  7  5  1  0
  1 10  1  0
  1 11  1  0
  1 12  1  0
  3 13  1  0
  3 14  1  0
  3 15  1  0
  4 16  1  0
  5 17  1  0
  6 18  1  0
  6 19  1  0
  7 20  1  0
  9 21  1  0
M  END
