
     RDKit          3D

 19 20  0  0  0  0  0  0  0  0999 V2000
   -2.4931    0.0663    0.6142 C   0  0  0  0  0  0  0  0  0  0  0  0
   -0.9611    0.1746    0.5965 C   0  0  0  0  0  0  0  0  0  0  0  0
   -0.5145    1.3608    1.1105 O   0  0  0  0  0  0  0  0  0  0  0  0
   -0.2682   -1.1067    0.7474 C   0  0  0  0  0  0  0  0  0  0  0  0
    1.1015   -1.2452    0.6247 O   0  0  0  0  0  0  0  0  0  0  0  0
    1.1230   -0.7624   -0.6952 C   0  0  0  0  0  0  0  0  0  0  0  0
    2.1384    0.3227   -0.8121 C   0  0  0  0  0  0  0  0  0  0  0  0
    1.8707    1.3938    0.0327 O   0  0  0  0  0  0  0  0  0  0  0  0
   -0.3099   -0.4164   -0.5678 C   0  0  0  0  0  0  0  0  0  0  0  0
   -2.8228   -0.9473    0.9217 H   0  0  0  0  0  0  0  0  0  0  0  0
   -2.8017    0.2446   -0.4537 H   0  0  0  0  0  0  0  0  0  0  0  0
   -2.9509    0.8119    1.2741 H   0  0  0  0  0  0  0  0  0  0  0  0
   -0.7462    2.1135    0.4973 H   0  0  0  0  0  0  0  0  0  0  0  0
   -0.8275   -2.0144    0.9621 H   0  0  0  0  0  0  0  0  0  0  0  0
    1.3188   -1.5726   -1.4507 H   0  0  0  0  0  0  0  0  0  0  0  0
    3.1183   -0.1075   -0.4479 H   0  0  0  0  0  0  0  0  0  0  0  0
    2.2792    0.6872   -1.8488 H   0  0  0  0  0  0  0  0  0  0  0  0
    2.7144    1.8561    0.2697 H   0  0  0  0  0  0  0  0  0  0  0  0
   -0.9685   -0.8591   -1.3747 H   0  0  0  0  0  0  0  0  0  0  0  0
  1  2  1  0
  2  3  1  0
  2  4  1  0
  4  5  1  0
  5  6  1  0
  6  7  1  0
  7  8  1  0
  6  9  1  0
  9  2  1  0
  9  4  1  0
  1 10  1  0
  1 11  1  0
  1 12  1  0
  3 13  1  0
  4 14  1  0
  6 15  1  0
  7 16  1  0
  7 17  1  0
  8 18  1  0
  9 19  1  0
M  END
