
     RDKit          3D

 22 22  0  0  0  0  0  0  0  0999 V2000
    1.4009   -0.4922   -1.2135 C   0  0  0  0  0  0  0  0  0  0  0  0
    0.6272   -0.2321    0.0365 C   0  0  0  0  0  0  0  0  0  0  0  0
    0.6166   -1.4527    0.9156 C   0  0  0  0  0  0  0  0  0  0  0  0
    1.0505    1.0492    0.6850 C   0  0  0  0  0  0  0  0  0  0  0  0
    0.0947    1.7298   -0.0955 O   0  0  0  0  0  0  0  0  0  0  0  0
   -0.6414    0.5261   -0.0874 C   0  0  0  0  0  0  0  0  0  0  0  0
   -1.4080    0.3895   -1.3689 C   0  0  0  0  0  0  0  0  0  0  0  0
   -1.5309    0.4822    1.1003 C   0  0  0  0  0  0  0  0  0  0  0  0
    1.6047    0.4203   -1.8173 H   0  0  0  0  0  0  0  0  0  0  0  0
    2.4244   -0.8504   -0.8933 H   0  0  0  0  0  0  0  0  0  0  0  0
    0.9881   -1.3258   -1.8313 H   0  0  0  0  0  0  0  0  0  0  0  0
   -0.0953   -1.4171    1.7373 H   0  0  0  0  0  0  0  0  0  0  0  0
    0.3861   -2.3232    0.2424 H   0  0  0  0  0  0  0  0  0  0  0  0
    1.6642   -1.6500    1.2689 H   0  0  0  0  0  0  0  0  0  0  0  0
    0.9083    1.1388    1.7649 H   0  0  0  0  0  0  0  0  0  0  0  0
    2.0634    1.3721    0.3555 H   0  0  0  0  0  0  0  0  0  0  0  0
   -0.7164    0.4989   -2.2300 H   0  0  0  0  0  0  0  0  0  0  0  0
   -1.9587   -0.5676   -1.3791 H   0  0  0  0  0  0  0  0  0  0  0  0
   -2.0965    1.2759   -1.4259 H   0  0  0  0  0  0  0  0  0  0  0  0
   -2.1927    1.3958    1.1272 H   0  0  0  0  0  0  0  0  0  0  0  0
   -0.9720    0.4067    2.0662 H   0  0  0  0  0  0  0  0  0  0  0  0
   -2.2172   -0.3741    1.0425 H   0  0  0  0  0  0  0  0  0  0  0  0
  1  2  1  0
  2  3  1  0
  2  4  1  0
  4  5  1  0
  5  6  1  0
  6  7  1  0
  6  8  1  0
  6  2  1  0
  1  9  1  0
  1 10  1  0
  1 11  1  0
  3 12  1  0
  3 13  1  0
  3 14  1  0
  4 15  1  0
  4 16  1  0
  7 17  1  0
  7 18  1  0
  7 19  1  0
  8 20  1  0
  8 21  1  0
  8 22  1  0
M  END
