
     RDKit          3D

 19 19  0  0  0  0  0  0  0  0999 V2000
    1.6670    0.2313   -0.9687 C   0  0  0  0  0  0  0  0  0  0  0  0
    0.8957    0.1354    0.3564 C   0  0  0  0  0  0  0  0  0  0  0  0
    1.7656    0.1355    1.4253 O   0  0  0  0  0  0  0  0  0  0  0  0
   -0.0299    1.3433    0.3676 C   0  0  0  0  0  0  0  0  0  0  0  0
   -0.9433    1.1231   -0.6912 O   0  0  0  0  0  0  0  0  0  0  0  0
   -1.8766    0.2313   -0.1691 C   0  0  0  0  0  0  0  0  0  0  0  0
   -1.2651   -1.1628   -0.2386 C   0  0  0  0  0  0  0  0  0  0  0  0
    0.1143   -1.1243    0.2797 C   0  0  0  0  0  0  0  0  0  0  0  0
    0.6607   -2.1364    0.6651 O   0  0  0  0  0  0  0  0  0  0  0  0
    2.4082    1.0433   -0.9029 H   0  0  0  0  0  0  0  0  0  0  0  0
    2.1306   -0.7648   -1.1092 H   0  0  0  0  0  0  0  0  0  0  0  0
    0.9094    0.3866   -1.7703 H   0  0  0  0  0  0  0  0  0  0  0  0
    1.5546   -0.5344    2.1201 H   0  0  0  0  0  0  0  0  0  0  0  0
    0.6015    2.2295    0.1448 H   0  0  0  0  0  0  0  0  0  0  0  0
   -0.5758    1.4330    1.3281 H   0  0  0  0  0  0  0  0  0  0  0  0
   -2.0742    0.4730    0.9086 H   0  0  0  0  0  0  0  0  0  0  0  0
   -2.7797    0.3083   -0.7763 H   0  0  0  0  0  0  0  0  0  0  0  0
   -1.3083   -1.4498   -1.3202 H   0  0  0  0  0  0  0  0  0  0  0  0
   -1.8545   -1.9011    0.3507 H   0  0  0  0  0  0  0  0  0  0  0  0
  1  2  1  0
  2  3  1  0
  2  4  1  0
  4  5  1  0
  5  6  1  0
  6  7  1  0
  7  8  1  0
  8  9  2  0
  8  2  1  0
  1 10  1  0
  1 11  1  0
  1 12  1  0
  3 13  1  0
  4 14  1  0
  4 15  1  0
  6 16  1  0
  6 17  1  0
  7 18  1  0
  7 19  1  0
M  END
