
     RDKit          3D

 17 18  0  0  0  0  0  0  0  0999 V2000
   -0.7421   -1.6287    0.6176 C   0  0  0  0  0  0  0  0  0  0  0  0
   -0.3818   -0.2013    0.3049 C   0  0  0  0  0  0  0  0  0  0  0  0
    1.1312   -0.0288    0.3582 C   0  0  0  0  0  0  0  0  0  0  0  0
    1.9646    0.0727   -0.7882 C   0  0  0  0  0  0  0  0  0  0  0  0
    1.6608    1.2154    0.0156 O   0  0  0  0  0  0  0  0  0  0  0  0
   -0.9500    0.7305    1.2039 O   0  0  0  0  0  0  0  0  0  0  0  0
   -1.2121    1.5576    0.0869 C   0  0  0  0  0  0  0  0  0  0  0  0
   -1.0575    0.4105   -0.8324 C   0  0  0  0  0  0  0  0  0  0  0  0
   -1.3402    0.1075   -1.9627 O   0  0  0  0  0  0  0  0  0  0  0  0
   -1.5595   -1.6679    1.3700 H   0  0  0  0  0  0  0  0  0  0  0  0
   -1.1243   -2.1807   -0.2830 H   0  0  0  0  0  0  0  0  0  0  0  0
    0.1234   -2.1959    1.0427 H   0  0  0  0  0  0  0  0  0  0  0  0
    1.5602   -0.4331    1.3105 H   0  0  0  0  0  0  0  0  0  0  0  0
    1.5520    0.1762   -1.8165 H   0  0  0  0  0  0  0  0  0  0  0  0
    3.0179   -0.2932   -0.7359 H   0  0  0  0  0  0  0  0  0  0  0  0
   -0.4149    2.3499   -0.0194 H   0  0  0  0  0  0  0  0  0  0  0  0
   -2.2279    2.0093    0.1278 H   0  0  0  0  0  0  0  0  0  0  0  0
  1  2  1  0
  2  3  1  0
  3  4  1  0
  4  5  1  0
  2  6  1  0
  6  7  1  0
  7  8  1  0
  8  9  2  0
  8  2  1  0
  5  3  1  0
  1 10  1  0
  1 11  1  0
  1 12  1  0
  3 13  1  0
  4 14  1  0
  4 15  1  0
  7 16  1  0
  7 17  1  0
M  END
