
     RDKit          3D

 19 20  0  0  0  0  0  0  0  0999 V2000
   -0.6576    1.2576    0.8130 C   0  0  0  0  0  0  0  0  0  0  0  0
    0.0007    0.1634   -0.0322 C   0  0  0  0  0  0  0  0  0  0  0  0
    1.4579    0.4018   -0.0826 C   0  0  0  0  0  0  0  0  0  0  0  0
    2.3025   -0.5098   -0.8290 C   0  0  0  0  0  0  0  0  0  0  0  0
    3.5022   -0.2915   -0.8648 O   0  0  0  0  0  0  0  0  0  0  0  0
   -0.5486   -1.1883    0.1680 C   0  0  0  0  0  0  0  0  0  0  0  0
   -1.8571   -0.6619   -0.3517 C   0  0  0  0  0  0  0  0  0  0  0  0
   -0.7509   -0.1854   -1.2601 C   0  0  0  0  0  0  0  0  0  0  0  0
   -0.2626   -1.4547   -1.1510 O   0  0  0  0  0  0  0  0  0  0  0  0
   -1.1740    0.8504    1.6919 H   0  0  0  0  0  0  0  0  0  0  0  0
   -1.3454    1.8511    0.1616 H   0  0  0  0  0  0  0  0  0  0  0  0
    0.0845    1.9881    1.1930 H   0  0  0  0  0  0  0  0  0  0  0  0
    1.5850    1.4777   -0.4438 H   0  0  0  0  0  0  0  0  0  0  0  0
    1.8290    0.4749    0.9815 H   0  0  0  0  0  0  0  0  0  0  0  0
    1.9491   -1.3658   -1.3544 H   0  0  0  0  0  0  0  0  0  0  0  0
   -0.4298   -1.8146    0.9531 H   0  0  0  0  0  0  0  0  0  0  0  0
   -2.3746    0.0950    0.2304 H   0  0  0  0  0  0  0  0  0  0  0  0
   -2.4352   -1.4589   -0.8214 H   0  0  0  0  0  0  0  0  0  0  0  0
   -0.8751    0.3710   -2.0927 H   0  0  0  0  0  0  0  0  0  0  0  0
  1  2  1  0
  2  3  1  0
  3  4  1  0
  4  5  2  0
  2  6  1  0
  6  7  1  0
  7  8  1  0
  8  9  1  0
  8  2  1  0
  9  6  1  0
  1 10  1  0
  1 11  1  0
  1 12  1  0
  3 13  1  0
  3 14  1  0
  4 15  1  0
  6 16  1  0
  7 17  1  0
  7 18  1  0
  8 19  1  0
M  END
