
     RDKit          3D

 18 18  0  0  0  0  0  0  0  0999 V2000
   -1.6048   -0.8608    0.4855 C   0  0  0  0  0  0  0  0  0  0  0  0
   -0.7417   -0.0398   -0.4675 C   0  0  0  0  0  0  0  0  0  0  0  0
   -1.4388    0.1433   -1.6567 O   0  0  0  0  0  0  0  0  0  0  0  0
   -0.4810    1.2778    0.1440 C   0  0  0  0  0  0  0  0  0  0  0  0
    0.7085    1.2840    0.7103 C   0  0  0  0  0  0  0  0  0  0  0  0
    1.3751   -0.0541    0.5299 C   0  0  0  0  0  0  0  0  0  0  0  0
    2.7181    0.0991    0.1841 O   0  0  0  0  0  0  0  0  0  0  0  0
    0.6107   -0.6279   -0.6602 C   0  0  0  0  0  0  0  0  0  0  0  0
   -2.6539   -0.9072    0.0797 H   0  0  0  0  0  0  0  0  0  0  0  0
   -1.1889   -1.8715    0.6568 H   0  0  0  0  0  0  0  0  0  0  0  0
   -1.6895   -0.3513    1.4681 H   0  0  0  0  0  0  0  0  0  0  0  0
   -1.4471   -0.7410   -2.1112 H   0  0  0  0  0  0  0  0  0  0  0  0
   -1.2138    2.0988    0.1005 H   0  0  0  0  0  0  0  0  0  0  0  0
    1.1522    2.1440    1.2397 H   0  0  0  0  0  0  0  0  0  0  0  0
    1.3131   -0.6794    1.4191 H   0  0  0  0  0  0  0  0  0  0  0  0
    2.9156    1.0600    0.1332 H   0  0  0  0  0  0  0  0  0  0  0  0
    0.6316   -1.7363   -0.6483 H   0  0  0  0  0  0  0  0  0  0  0  0
    1.0345   -0.2377   -1.6069 H   0  0  0  0  0  0  0  0  0  0  0  0
  1  2  1  0
  2  3  1  0
  2  4  1  0
  4  5  2  0
  5  6  1  0
  6  7  1  0
  6  8  1  0
  8  2  1  0
  1  9  1  0
  1 10  1  0
  1 11  1  0
  3 12  1  0
  4 13  1  0
  5 14  1  0
  6 15  1  0
  7 16  1  0
  8 17  1  0
  8 18  1  0
M  END
