
     RDKit          3D

 18 19  0  0  0  0  0  0  0  0999 V2000
   -1.6770   -1.0887    0.2348 C   0  0  0  0  0  0  0  0  0  0  0  0
   -0.5778   -0.1964   -0.1876 C   0  0  0  0  0  0  0  0  0  0  0  0
   -0.4771   -0.0649   -1.5723 O   0  0  0  0  0  0  0  0  0  0  0  0
   -0.6879    1.2177    0.3762 C   0  0  0  0  0  0  0  0  0  0  0  0
    0.5616    1.7184   -0.0554 O   0  0  0  0  0  0  0  0  0  0  0  0
    1.4779    0.7828    0.3423 C   0  0  0  0  0  0  0  0  0  0  0  0
    1.9379   -0.3203   -0.5198 C   0  0  0  0  0  0  0  0  0  0  0  0
    0.7790   -0.5689    0.3592 C   0  0  0  0  0  0  0  0  0  0  0  0
   -2.2236   -1.4246   -0.6953 H   0  0  0  0  0  0  0  0  0  0  0  0
   -1.2582   -2.0207    0.6669 H   0  0  0  0  0  0  0  0  0  0  0  0
   -2.4548   -0.6229    0.8677 H   0  0  0  0  0  0  0  0  0  0  0  0
   -0.8729    0.7758   -1.8790 H   0  0  0  0  0  0  0  0  0  0  0  0
   -0.6166    1.1449    1.4718 H   0  0  0  0  0  0  0  0  0  0  0  0
   -1.5281    1.7750   -0.0115 H   0  0  0  0  0  0  0  0  0  0  0  0
    2.1158    1.0763    1.1829 H   0  0  0  0  0  0  0  0  0  0  0  0
    2.9264   -0.7528   -0.2941 H   0  0  0  0  0  0  0  0  0  0  0  0
    1.7079   -0.3509   -1.6172 H   0  0  0  0  0  0  0  0  0  0  0  0
    0.8675   -1.0797    1.3305 H   0  0  0  0  0  0  0  0  0  0  0  0
  1  2  1  0
  2  3  1  0
  2  4  1  0
  4  5  1  0
  5  6  1  0
  6  7  1  0
  7  8  1  0
  8  2  1  0
  8  6  1  0
  1  9  1  0
  1 10  1  0
  1 11  1  0
  3 12  1  0
  4 13  1  0
  4 14  1  0
  6 15  1  0
  7 16  1  0
  7 17  1  0
  8 18  1  0
M  END
