
     RDKit          3D

 23 24  0  0  0  0  0  0  0  0999 V2000
   -2.5471    1.1736   -0.4960 C   0  0  0  0  0  0  0  0  0  0  0  0
   -1.4986    0.0997   -0.1664 C   0  0  0  0  0  0  0  0  0  0  0  0
   -0.2629    0.6285    0.0543 O   0  0  0  0  0  0  0  0  0  0  0  0
    0.7264   -0.2805    0.3536 C   0  0  0  0  0  0  0  0  0  0  0  0
    2.0664    0.3388    0.5845 C   0  0  0  0  0  0  0  0  0  0  0  0
    2.6899    1.1422   -0.5641 C   0  0  0  0  0  0  0  0  0  0  0  0
    3.1821   -0.2185   -0.2729 C   0  0  0  0  0  0  0  0  0  0  0  0
   -1.7435   -1.2206   -0.7619 C   0  0  0  0  0  0  0  0  0  0  0  0
   -2.0712   -0.9935    0.7132 C   0  0  0  0  0  0  0  0  0  0  0  0
   -2.0657    2.1020   -0.8660 H   0  0  0  0  0  0  0  0  0  0  0  0
   -3.1406    1.4137    0.3995 H   0  0  0  0  0  0  0  0  0  0  0  0
   -3.2440    0.7951   -1.2891 H   0  0  0  0  0  0  0  0  0  0  0  0
    0.4298   -0.7431    1.3429 H   0  0  0  0  0  0  0  0  0  0  0  0
    0.8274   -1.1046   -0.3376 H   0  0  0  0  0  0  0  0  0  0  0  0
    2.3318    0.7405    1.5893 H   0  0  0  0  0  0  0  0  0  0  0  0
    1.9939    1.3505   -1.3881 H   0  0  0  0  0  0  0  0  0  0  0  0
    3.3702    1.9685   -0.3125 H   0  0  0  0  0  0  0  0  0  0  0  0
    4.1514   -0.3256    0.2519 H   0  0  0  0  0  0  0  0  0  0  0  0
    2.9692   -1.0537   -0.9661 H   0  0  0  0  0  0  0  0  0  0  0  0
   -0.9645   -1.9858   -0.9000 H   0  0  0  0  0  0  0  0  0  0  0  0
   -2.5812   -1.3255   -1.4814 H   0  0  0  0  0  0  0  0  0  0  0  0
   -3.1612   -1.0227    0.9160 H   0  0  0  0  0  0  0  0  0  0  0  0
   -1.4579   -1.4793    1.4812 H   0  0  0  0  0  0  0  0  0  0  0  0
  1  2  1  0
  2  3  1  0
  3  4  1  0
  4  5  1  0
  5  6  1  0
  6  7  1  0
  2  8  1  0
  8  9  1  0
  9  2  1  0
  7  5  1  0
  1 10  1  0
  1 11  1  0
  1 12  1  0
  4 13  1  0
  4 14  1  0
  5 15  1  0
  6 16  1  0
  6 17  1  0
  7 18  1  0
  7 19  1  0
  8 20  1  0
  8 21  1  0
  9 22  1  0
  9 23  1  0
M  END
