
     RDKit          3D

 21 22  0  0  0  0  0  0  0  0999 V2000
   -1.6851   -1.2123    0.1274 C   0  0  0  0  0  0  0  0  0  0  0  0
   -0.7891   -0.0055   -0.0847 C   0  0  0  0  0  0  0  0  0  0  0  0
   -1.6206    1.2498   -0.0796 C   0  0  0  0  0  0  0  0  0  0  0  0
    0.1050   -0.0773   -1.2909 C   0  0  0  0  0  0  0  0  0  0  0  0
    1.2664   -0.3302   -0.3706 C   0  0  0  0  0  0  0  0  0  0  0  0
    2.0268   -1.4633   -0.4731 O   0  0  0  0  0  0  0  0  0  0  0  0
    1.6146    0.7605    0.5606 C   0  0  0  0  0  0  0  0  0  0  0  0
    2.6929    0.4899    1.4126 O   0  0  0  0  0  0  0  0  0  0  0  0
    0.4050   -0.0308    0.7924 C   0  0  0  0  0  0  0  0  0  0  0  0
   -2.3718   -0.9736    0.9545 H   0  0  0  0  0  0  0  0  0  0  0  0
   -1.0907   -2.0905    0.4060 H   0  0  0  0  0  0  0  0  0  0  0  0
   -2.2512   -1.4568   -0.7870 H   0  0  0  0  0  0  0  0  0  0  0  0
   -2.1994    1.2455   -1.0497 H   0  0  0  0  0  0  0  0  0  0  0  0
   -2.3682    1.2665    0.7177 H   0  0  0  0  0  0  0  0  0  0  0  0
   -0.9710    2.1564   -0.0487 H   0  0  0  0  0  0  0  0  0  0  0  0
    0.2317    0.9311   -1.7654 H   0  0  0  0  0  0  0  0  0  0  0  0
   -0.1478   -0.8577   -2.0045 H   0  0  0  0  0  0  0  0  0  0  0  0
    2.7181   -1.3124   -1.1849 H   0  0  0  0  0  0  0  0  0  0  0  0
    1.6055    1.7824    0.1256 H   0  0  0  0  0  0  0  0  0  0  0  0
    2.4717    0.6072    2.3569 H   0  0  0  0  0  0  0  0  0  0  0  0
    0.3570   -0.6789    1.6854 H   0  0  0  0  0  0  0  0  0  0  0  0
  1  2  1  0
  2  3  1  0
  2  4  1  0
  4  5  1  0
  5  6  1  0
  5  7  1  0
  7  8  1  0
  7  9  1  0
  9  2  1  0
  9  5  1  0
  1 10  1  0
  1 11  1  0
  1 12  1  0
  3 13  1  0
  3 14  1  0
  3 15  1  0
  4 16  1  0
  4 17  1  0
  6 18  1  0
  7 19  1  0
  8 20  1  0
  9 21  1  0
M  END
