
     RDKit          3D

 21 21  0  0  0  0  0  0  0  0999 V2000
   -1.3593   -0.4414    1.2092 C   0  0  0  0  0  0  0  0  0  0  0  0
   -0.4468   -0.3824    0.0206 C   0  0  0  0  0  0  0  0  0  0  0  0
   -0.3886   -1.7267   -0.6317 C   0  0  0  0  0  0  0  0  0  0  0  0
   -0.9323    0.6831   -0.8862 C   0  0  0  0  0  0  0  0  0  0  0  0
   -0.2745    1.8116   -0.7007 C   0  0  0  0  0  0  0  0  0  0  0  0
    0.7345    1.6089    0.3679 C   0  0  0  0  0  0  0  0  0  0  0  0
    0.9129    0.1100    0.4693 C   0  0  0  0  0  0  0  0  0  0  0  0
    1.9998   -0.3872   -0.3855 C   0  0  0  0  0  0  0  0  0  0  0  0
    2.4204    0.3154   -1.2795 O   0  0  0  0  0  0  0  0  0  0  0  0
   -2.2971   -0.9346    0.8831 H   0  0  0  0  0  0  0  0  0  0  0  0
   -0.8896   -1.0094    2.0311 H   0  0  0  0  0  0  0  0  0  0  0  0
   -1.5429    0.5985    1.5428 H   0  0  0  0  0  0  0  0  0  0  0  0
   -1.3616   -1.8729   -1.1747 H   0  0  0  0  0  0  0  0  0  0  0  0
   -0.3521   -2.4954    0.1563 H   0  0  0  0  0  0  0  0  0  0  0  0
    0.4059   -1.8208   -1.3872 H   0  0  0  0  0  0  0  0  0  0  0  0
   -1.7451    0.5813   -1.6396 H   0  0  0  0  0  0  0  0  0  0  0  0
   -0.4537    2.7584   -1.2608 H   0  0  0  0  0  0  0  0  0  0  0  0
    0.3603    2.0653    1.3003 H   0  0  0  0  0  0  0  0  0  0  0  0
    1.7148    2.0388    0.0467 H   0  0  0  0  0  0  0  0  0  0  0  0
    1.0743   -0.1359    1.5411 H   0  0  0  0  0  0  0  0  0  0  0  0
    2.4207   -1.3649   -0.2226 H   0  0  0  0  0  0  0  0  0  0  0  0
  1  2  1  0
  2  3  1  0
  2  4  1  0
  4  5  2  0
  5  6  1  0
  6  7  1  0
  7  8  1  0
  8  9  2  0
  7  2  1  0
  1 10  1  0
  1 11  1  0
  1 12  1  0
  3 13  1  0
  3 14  1  0
  3 15  1  0
  4 16  1  0
  5 17  1  0
  6 18  1  0
  6 19  1  0
  7 20  1  0
  8 21  1  0
M  END
