
     RDKit          3D

 19 19  0  0  0  0  0  0  0  0999 V2000
   -0.7016    1.4854    0.2384 C   0  0  0  0  0  0  0  0  0  0  0  0
   -0.3724    0.0401    0.0629 C   0  0  0  0  0  0  0  0  0  0  0  0
    1.0892   -0.3152    0.0585 C   0  0  0  0  0  0  0  0  0  0  0  0
    1.6538    0.0655    1.2695 O   0  0  0  0  0  0  0  0  0  0  0  0
    1.8218    0.2261   -1.1007 C   0  0  0  0  0  0  0  0  0  0  0  0
    1.5054    0.0209   -2.2528 O   0  0  0  0  0  0  0  0  0  0  0  0
   -1.1168   -0.8645    1.0299 C   0  0  0  0  0  0  0  0  0  0  0  0
   -2.1912   -0.8312    0.1425 O   0  0  0  0  0  0  0  0  0  0  0  0
   -1.2451   -0.6818   -0.8937 C   0  0  0  0  0  0  0  0  0  0  0  0
   -1.6056    1.5762    0.8766 H   0  0  0  0  0  0  0  0  0  0  0  0
   -0.9848    1.9412   -0.7527 H   0  0  0  0  0  0  0  0  0  0  0  0
    0.1095    2.0515    0.7308 H   0  0  0  0  0  0  0  0  0  0  0  0
    1.1413   -1.4366    0.0350 H   0  0  0  0  0  0  0  0  0  0  0  0
    2.6117   -0.2091    1.3112 H   0  0  0  0  0  0  0  0  0  0  0  0
    2.6918    0.8420   -0.9338 H   0  0  0  0  0  0  0  0  0  0  0  0
   -1.2771   -0.3428    1.9763 H   0  0  0  0  0  0  0  0  0  0  0  0
   -0.6631   -1.8597    1.1829 H   0  0  0  0  0  0  0  0  0  0  0  0
   -0.8263   -1.6443   -1.2413 H   0  0  0  0  0  0  0  0  0  0  0  0
   -1.6404   -0.0640   -1.7395 H   0  0  0  0  0  0  0  0  0  0  0  0
  1  2  1  0
  2  3  1  0
  3  4  1  0
  3  5  1  0
  5  6  2  0
  2  7  1  0
  7  8  1  0
  8  9  1  0
  9  2  1  0
  1 10  1  0
  1 11  1  0
  1 12  1  0
  3 13  1  0
  4 14  1  0
  5 15  1  0
  7 16  1  0
  7 17  1  0
  9 18  1  0
  9 19  1  0
M  END
