
     RDKit          3D

 19 19  0  0  0  0  0  0  0  0999 V2000
    1.1074   -0.8618    0.9491 C   0  0  0  0  0  0  0  0  0  0  0  0
    0.7735    0.0599   -0.2025 C   0  0  0  0  0  0  0  0  0  0  0  0
    1.8344    0.8996   -0.4973 O   0  0  0  0  0  0  0  0  0  0  0  0
    0.3725   -0.7910   -1.3445 C   0  0  0  0  0  0  0  0  0  0  0  0
   -0.9395   -0.8038   -1.4729 C   0  0  0  0  0  0  0  0  0  0  0  0
   -1.6069    0.0315   -0.4431 C   0  0  0  0  0  0  0  0  0  0  0  0
   -0.4340    0.8972    0.0488 C   0  0  0  0  0  0  0  0  0  0  0  0
   -0.6204    1.2907    1.4455 C   0  0  0  0  0  0  0  0  0  0  0  0
   -0.5668    2.4530    1.7715 O   0  0  0  0  0  0  0  0  0  0  0  0
    0.2325   -1.4578    1.2125 H   0  0  0  0  0  0  0  0  0  0  0  0
    1.8956   -1.5581    0.5815 H   0  0  0  0  0  0  0  0  0  0  0  0
    1.4407   -0.3056    1.8498 H   0  0  0  0  0  0  0  0  0  0  0  0
    2.6784    0.4390   -0.6721 H   0  0  0  0  0  0  0  0  0  0  0  0
    1.0103   -1.3590   -2.0299 H   0  0  0  0  0  0  0  0  0  0  0  0
   -1.5401   -1.3490   -2.2335 H   0  0  0  0  0  0  0  0  0  0  0  0
   -2.4035    0.6764   -0.8886 H   0  0  0  0  0  0  0  0  0  0  0  0
   -2.0230   -0.5619    0.3893 H   0  0  0  0  0  0  0  0  0  0  0  0
   -0.4039    1.7563   -0.6571 H   0  0  0  0  0  0  0  0  0  0  0  0
   -0.8070    0.5444    2.1935 H   0  0  0  0  0  0  0  0  0  0  0  0
  1  2  1  0
  2  3  1  0
  2  4  1  0
  4  5  2  0
  5  6  1  0
  6  7  1  0
  7  8  1  0
  8  9  2  0
  7  2  1  0
  1 10  1  0
  1 11  1  0
  1 12  1  0
  3 13  1  0
  4 14  1  0
  5 15  1  0
  6 16  1  0
  6 17  1  0
  7 18  1  0
  8 19  1  0
M  END
