
     RDKit          3D

 19 20  0  0  0  0  0  0  0  0999 V2000
   -0.5458    1.4702    0.7112 C   0  0  0  0  0  0  0  0  0  0  0  0
   -0.4679    0.1830   -0.0783 C   0  0  0  0  0  0  0  0  0  0  0  0
   -1.8994   -0.2633   -0.4002 C   0  0  0  0  0  0  0  0  0  0  0  0
   -2.5357   -0.5437    0.8102 O   0  0  0  0  0  0  0  0  0  0  0  0
    0.1610   -0.8356    0.5801 O   0  0  0  0  0  0  0  0  0  0  0  0
    1.3207   -1.1601   -0.0785 C   0  0  0  0  0  0  0  0  0  0  0  0
    2.3892   -0.0950   -0.0949 C   0  0  0  0  0  0  0  0  0  0  0  0
    1.4251   -0.2094   -1.1980 C   0  0  0  0  0  0  0  0  0  0  0  0
    0.2319    0.4571   -1.2433 O   0  0  0  0  0  0  0  0  0  0  0  0
   -1.4008    2.0631    0.3207 H   0  0  0  0  0  0  0  0  0  0  0  0
   -0.6743    1.3257    1.7844 H   0  0  0  0  0  0  0  0  0  0  0  0
    0.3591    2.1065    0.5405 H   0  0  0  0  0  0  0  0  0  0  0  0
   -1.8857   -1.2066   -0.9814 H   0  0  0  0  0  0  0  0  0  0  0  0
   -2.4680    0.5496   -0.8942 H   0  0  0  0  0  0  0  0  0  0  0  0
   -3.1320   -1.3238    0.7391 H   0  0  0  0  0  0  0  0  0  0  0  0
    1.5881   -2.2026   -0.2937 H   0  0  0  0  0  0  0  0  0  0  0  0
    3.4172   -0.4530   -0.2959 H   0  0  0  0  0  0  0  0  0  0  0  0
    2.3225    0.7094    0.6742 H   0  0  0  0  0  0  0  0  0  0  0  0
    1.7948   -0.5715   -2.1866 H   0  0  0  0  0  0  0  0  0  0  0  0
  1  2  1  0
  2  3  1  0
  3  4  1  0
  2  5  1  0
  5  6  1  0
  6  7  1  0
  7  8  1  0
  8  9  1  0
  9  2  1  0
  8  6  1  0
  1 10  1  0
  1 11  1  0
  1 12  1  0
  3 13  1  0
  3 14  1  0
  4 15  1  0
  6 16  1  0
  7 17  1  0
  7 18  1  0
  8 19  1  0
M  END
