
     RDKit          3D

 19 19  0  0  0  0  0  0  0  0999 V2000
   -1.9346   -0.4763    0.3753 C   0  0  0  0  0  0  0  0  0  0  0  0
   -0.5508    0.0391    0.0802 C   0  0  0  0  0  0  0  0  0  0  0  0
   -0.6034    1.5497   -0.0578 C   0  0  0  0  0  0  0  0  0  0  0  0
    0.4234   -0.2891    1.1442 C   0  0  0  0  0  0  0  0  0  0  0  0
    0.1867   -0.3307    2.3227 O   0  0  0  0  0  0  0  0  0  0  0  0
    1.7386   -0.5579    0.5178 C   0  0  0  0  0  0  0  0  0  0  0  0
    1.5096   -0.3677   -0.9872 C   0  0  0  0  0  0  0  0  0  0  0  0
    0.0602   -0.6034   -1.0993 C   0  0  0  0  0  0  0  0  0  0  0  0
   -0.5082   -1.1957   -1.9698 O   0  0  0  0  0  0  0  0  0  0  0  0
   -2.6649    0.2869    0.0377 H   0  0  0  0  0  0  0  0  0  0  0  0
   -2.1184   -0.6775    1.4396 H   0  0  0  0  0  0  0  0  0  0  0  0
   -2.1033   -1.3702   -0.2767 H   0  0  0  0  0  0  0  0  0  0  0  0
    0.3896    2.0214    0.1061 H   0  0  0  0  0  0  0  0  0  0  0  0
   -1.2688    1.9239    0.7353 H   0  0  0  0  0  0  0  0  0  0  0  0
   -1.0641    1.8516   -1.0245 H   0  0  0  0  0  0  0  0  0  0  0  0
    2.4854    0.2366    0.8116 H   0  0  0  0  0  0  0  0  0  0  0  0
    2.1236   -1.5749    0.7277 H   0  0  0  0  0  0  0  0  0  0  0  0
    1.8059    0.6392   -1.3127 H   0  0  0  0  0  0  0  0  0  0  0  0
    2.0936   -1.1051   -1.5703 H   0  0  0  0  0  0  0  0  0  0  0  0
  1  2  1  0
  2  3  1  0
  2  4  1  0
  4  5  2  0
  4  6  1  0
  6  7  1  0
  7  8  1  0
  8  9  2  0
  8  2  1  0
  1 10  1  0
  1 11  1  0
  1 12  1  0
  3 13  1  0
  3 14  1  0
  3 15  1  0
  6 16  1  0
  6 17  1  0
  7 18  1  0
  7 19  1  0
M  END
