
     RDKit          3D

 18 18  0  0  0  0  0  0  0  0999 V2000
   -0.1793    1.7077   -0.1439 C   0  0  0  0  0  0  0  0  0  0  0  0
   -0.1886    0.2140   -0.0687 C   0  0  0  0  0  0  0  0  0  0  0  0
   -1.6231   -0.2618   -0.0714 C   0  0  0  0  0  0  0  0  0  0  0  0
   -1.7167   -1.6469    0.0344 O   0  0  0  0  0  0  0  0  0  0  0  0
    0.4948   -0.3411    1.1382 C   0  0  0  0  0  0  0  0  0  0  0  0
    1.8285   -0.3386    0.7334 O   0  0  0  0  0  0  0  0  0  0  0  0
    1.8176   -0.5962   -0.6198 C   0  0  0  0  0  0  0  0  0  0  0  0
    0.5537   -0.2965   -1.1030 O   0  0  0  0  0  0  0  0  0  0  0  0
    0.8213    2.1329   -0.3964 H   0  0  0  0  0  0  0  0  0  0  0  0
   -0.6243    2.1990    0.7426 H   0  0  0  0  0  0  0  0  0  0  0  0
   -0.8373    1.9958   -1.0049 H   0  0  0  0  0  0  0  0  0  0  0  0
   -2.1367    0.1570    0.8186 H   0  0  0  0  0  0  0  0  0  0  0  0
   -2.1889    0.1037   -0.9557 H   0  0  0  0  0  0  0  0  0  0  0  0
   -1.1089   -2.1305   -0.5678 H   0  0  0  0  0  0  0  0  0  0  0  0
    0.1641   -1.4153    1.2390 H   0  0  0  0  0  0  0  0  0  0  0  0
    0.3130    0.1982    2.0684 H   0  0  0  0  0  0  0  0  0  0  0  0
    1.9991   -1.6967   -0.7496 H   0  0  0  0  0  0  0  0  0  0  0  0
    2.6119    0.0154   -1.0934 H   0  0  0  0  0  0  0  0  0  0  0  0
  1  2  1  0
  2  3  1  0
  3  4  1  0
  2  5  1  0
  5  6  1  0
  6  7  1  0
  7  8  1  0
  8  2  1  0
  1  9  1  0
  1 10  1  0
  1 11  1  0
  3 12  1  0
  3 13  1  0
  4 14  1  0
  5 15  1  0
  5 16  1  0
  7 17  1  0
  7 18  1  0
M  END
