
     RDKit          3D

 21 22  0  0  0  0  0  0  0  0999 V2000
   -1.8999   -0.8813   -0.7621 C   0  0  0  0  0  0  0  0  0  0  0  0
   -0.8357   -0.4642    0.2683 C   0  0  0  0  0  0  0  0  0  0  0  0
   -1.4833   -0.1242    1.4846 O   0  0  0  0  0  0  0  0  0  0  0  0
    0.4067   -1.1200    0.4175 C   0  0  0  0  0  0  0  0  0  0  0  0
    1.8173   -0.6520    0.5619 C   0  0  0  0  0  0  0  0  0  0  0  0
    1.5404   -0.2287   -0.8958 C   0  0  0  0  0  0  0  0  0  0  0  0
    0.2708    0.2745   -0.2716 C   0  0  0  0  0  0  0  0  0  0  0  0
    0.4967    1.5372    0.4921 C   0  0  0  0  0  0  0  0  0  0  0  0
   -0.7177    2.2720    0.3497 O   0  0  0  0  0  0  0  0  0  0  0  0
   -1.4829   -0.8871   -1.7829 H   0  0  0  0  0  0  0  0  0  0  0  0
   -2.6596   -0.0584   -0.7385 H   0  0  0  0  0  0  0  0  0  0  0  0
   -2.4022   -1.8083   -0.4771 H   0  0  0  0  0  0  0  0  0  0  0  0
   -2.3043    0.3909    1.3245 H   0  0  0  0  0  0  0  0  0  0  0  0
    0.4573   -2.0068   -0.3050 H   0  0  0  0  0  0  0  0  0  0  0  0
    2.5616   -1.4680    0.6440 H   0  0  0  0  0  0  0  0  0  0  0  0
    2.0438    0.1406    1.2526 H   0  0  0  0  0  0  0  0  0  0  0  0
    1.4043   -1.1252   -1.5201 H   0  0  0  0  0  0  0  0  0  0  0  0
    2.1694    0.5706   -1.2667 H   0  0  0  0  0  0  0  0  0  0  0  0
    1.2548    2.2114    0.0799 H   0  0  0  0  0  0  0  0  0  0  0  0
    0.5549    1.4092    1.6025 H   0  0  0  0  0  0  0  0  0  0  0  0
   -1.1924    2.0178   -0.4581 H   0  0  0  0  0  0  0  0  0  0  0  0
  1  2  1  0
  2  3  1  0
  2  4  1  0
  4  5  1  0
  5  6  1  0
  6  7  1  0
  7  8  1  0
  8  9  1  0
  7  2  1  0
  7  4  1  0
  1 10  1  0
  1 11  1  0
  1 12  1  0
  3 13  1  0
  4 14  1  0
  5 15  1  0
  5 16  1  0
  6 17  1  0
  6 18  1  0
  8 19  1  0
  8 20  1  0
  9 21  1  0
M  END
