
     RDKit          3D

 23 24  0  0  0  0  0  0  0  0999 V2000
   -1.0238    0.6017   -1.3142 C   0  0  0  0  0  0  0  0  0  0  0  0
   -0.8575   -0.0528    0.0329 C   0  0  0  0  0  0  0  0  0  0  0  0
   -1.8849   -1.0915    0.3324 C   0  0  0  0  0  0  0  0  0  0  0  0
   -0.8254    0.9841    1.1503 C   0  0  0  0  0  0  0  0  0  0  0  0
    0.6302    1.3967    1.2155 C   0  0  0  0  0  0  0  0  0  0  0  0
    1.3882    0.5051    0.6222 C   0  0  0  0  0  0  0  0  0  0  0  0
    2.4669   -0.3106    0.0340 C   0  0  0  0  0  0  0  0  0  0  0  0
    1.4166   -0.5790   -1.0740 C   0  0  0  0  0  0  0  0  0  0  0  0
    0.5099   -0.6411    0.1260 C   0  0  0  0  0  0  0  0  0  0  0  0
   -0.6896   -0.0972   -2.1078 H   0  0  0  0  0  0  0  0  0  0  0  0
   -2.0812    0.8962   -1.5076 H   0  0  0  0  0  0  0  0  0  0  0  0
   -0.3570    1.5099   -1.3012 H   0  0  0  0  0  0  0  0  0  0  0  0
   -2.7630   -0.5784    0.8195 H   0  0  0  0  0  0  0  0  0  0  0  0
   -1.4689   -1.7609    1.1339 H   0  0  0  0  0  0  0  0  0  0  0  0
   -2.1988   -1.6729   -0.5477 H   0  0  0  0  0  0  0  0  0  0  0  0
   -1.1134    0.5219    2.0968 H   0  0  0  0  0  0  0  0  0  0  0  0
   -1.4700    1.8262    0.8310 H   0  0  0  0  0  0  0  0  0  0  0  0
    0.8954    2.3231    1.7100 H   0  0  0  0  0  0  0  0  0  0  0  0
    3.3570    0.1954   -0.3224 H   0  0  0  0  0  0  0  0  0  0  0  0
    2.5942   -1.2586    0.5903 H   0  0  0  0  0  0  0  0  0  0  0  0
    1.5876   -1.5094   -1.6161 H   0  0  0  0  0  0  0  0  0  0  0  0
    1.2547    0.3196   -1.6675 H   0  0  0  0  0  0  0  0  0  0  0  0
    0.6327   -1.5276    0.7637 H   0  0  0  0  0  0  0  0  0  0  0  0
  1  2  1  0
  2  3  1  0
  2  4  1  0
  4  5  1  0
  5  6  2  0
  6  7  1  0
  7  8  1  0
  8  9  1  0
  9  2  1  0
  9  6  1  0
  1 10  1  0
  1 11  1  0
  1 12  1  0
  3 13  1  0
  3 14  1  0
  3 15  1  0
  4 16  1  0
  4 17  1  0
  5 18  1  0
  7 19  1  0
  7 20  1  0
  8 21  1  0
  8 22  1  0
  9 23  1  0
M  END
