
     RDKit          3D

 19 19  0  0  0  0  0  0  0  0999 V2000
   -1.1373    1.1662   -0.5813 C   0  0  0  0  0  0  0  0  0  0  0  0
   -0.5422   -0.1040   -0.0579 C   0  0  0  0  0  0  0  0  0  0  0  0
    0.6185    0.0360    0.8570 C   0  0  0  0  0  0  0  0  0  0  0  0
    1.8017    0.7413    0.2435 C   0  0  0  0  0  0  0  0  0  0  0  0
    2.2468    0.0359   -0.8716 O   0  0  0  0  0  0  0  0  0  0  0  0
   -1.6036   -0.9887    0.5575 C   0  0  0  0  0  0  0  0  0  0  0  0
   -1.8522   -1.4468   -0.7507 O   0  0  0  0  0  0  0  0  0  0  0  0
   -0.4969   -1.2221   -1.0227 C   0  0  0  0  0  0  0  0  0  0  0  0
    0.2884   -1.8130   -1.7926 O   0  0  0  0  0  0  0  0  0  0  0  0
   -1.9521    1.5181    0.0734 H   0  0  0  0  0  0  0  0  0  0  0  0
   -1.5763    0.9490   -1.5762 H   0  0  0  0  0  0  0  0  0  0  0  0
   -0.4101    1.9979   -0.6561 H   0  0  0  0  0  0  0  0  0  0  0  0
    0.9633   -0.9846    1.1429 H   0  0  0  0  0  0  0  0  0  0  0  0
    0.2731    0.5414    1.7820 H   0  0  0  0  0  0  0  0  0  0  0  0
    2.6101    0.7434    1.0243 H   0  0  0  0  0  0  0  0  0  0  0  0
    1.6070    1.7942   -0.0072 H   0  0  0  0  0  0  0  0  0  0  0  0
    2.7748   -0.7681   -0.6204 H   0  0  0  0  0  0  0  0  0  0  0  0
   -1.2177   -1.7848    1.2206 H   0  0  0  0  0  0  0  0  0  0  0  0
   -2.3953   -0.4115    1.0353 H   0  0  0  0  0  0  0  0  0  0  0  0
  1  2  1  0
  2  3  1  0
  3  4  1  0
  4  5  1  0
  2  6  1  0
  6  7  1  0
  7  8  1  0
  8  9  2  0
  8  2  1  0
  1 10  1  0
  1 11  1  0
  1 12  1  0
  3 13  1  0
  3 14  1  0
  4 15  1  0
  4 16  1  0
  5 17  1  0
  6 18  1  0
  6 19  1  0
M  END
