
     RDKit          3D

 23 24  0  0  0  0  0  0  0  0999 V2000
    3.0032    0.4662    0.1136 C   0  0  0  0  0  0  0  0  0  0  0  0
    1.5175    0.2176    0.2531 C   0  0  0  0  0  0  0  0  0  0  0  0
    0.9135    0.9631    1.2421 O   0  0  0  0  0  0  0  0  0  0  0  0
    1.1073   -1.2310    0.0408 C   0  0  0  0  0  0  0  0  0  0  0  0
    0.7708   -0.1450   -0.9665 C   0  0  0  0  0  0  0  0  0  0  0  0
   -0.6574    0.1590   -1.1825 C   0  0  0  0  0  0  0  0  0  0  0  0
   -1.5294   -0.5030   -0.1490 C   0  0  0  0  0  0  0  0  0  0  0  0
   -3.0077   -0.2767   -0.2033 C   0  0  0  0  0  0  0  0  0  0  0  0
   -2.2006    0.3429    0.8948 C   0  0  0  0  0  0  0  0  0  0  0  0
    3.4996    0.3759    1.0966 H   0  0  0  0  0  0  0  0  0  0  0  0
    3.1724    1.4751   -0.3522 H   0  0  0  0  0  0  0  0  0  0  0  0
    3.4193   -0.2792   -0.5816 H   0  0  0  0  0  0  0  0  0  0  0  0
    0.7898    1.9213    0.9781 H   0  0  0  0  0  0  0  0  0  0  0  0
    1.9176   -1.9558   -0.2394 H   0  0  0  0  0  0  0  0  0  0  0  0
    0.4399   -1.5804    0.8137 H   0  0  0  0  0  0  0  0  0  0  0  0
    1.3827   -0.1992   -1.9220 H   0  0  0  0  0  0  0  0  0  0  0  0
   -0.8782    1.2625   -1.1852 H   0  0  0  0  0  0  0  0  0  0  0  0
   -1.0134   -0.1600   -2.2136 H   0  0  0  0  0  0  0  0  0  0  0  0
   -1.3060   -1.5783    0.1196 H   0  0  0  0  0  0  0  0  0  0  0  0
   -3.4272    0.4309   -0.9559 H   0  0  0  0  0  0  0  0  0  0  0  0
   -3.6914   -1.0943    0.0523 H   0  0  0  0  0  0  0  0  0  0  0  0
   -2.2366   -0.0570    1.9200 H   0  0  0  0  0  0  0  0  0  0  0  0
   -1.9858    1.4454    0.8655 H   0  0  0  0  0  0  0  0  0  0  0  0
  1  2  1  0
  2  3  1  0
  2  4  1  0
  4  5  1  0
  5  6  1  0
  6  7  1  0
  7  8  1  0
  8  9  1  0
  5  2  1  0
  9  7  1  0
  1 10  1  0
  1 11  1  0
  1 12  1  0
  3 13  1  0
  4 14  1  0
  4 15  1  0
  5 16  1  0
  6 17  1  0
  6 18  1  0
  7 19  1  0
  8 20  1  0
  8 21  1  0
  9 22  1  0
  9 23  1  0
M  END
