
     RDKit          3D

 25 26  0  0  0  0  0  0  0  0999 V2000
    1.6492    0.5927    0.9270 C   0  0  0  0  0  0  0  0  0  0  0  0
    0.7079   -0.0626   -0.0942 C   0  0  0  0  0  0  0  0  0  0  0  0
    1.3357    0.1985   -1.4477 C   0  0  0  0  0  0  0  0  0  0  0  0
    0.6831   -1.5545    0.1554 C   0  0  0  0  0  0  0  0  0  0  0  0
   -0.7390   -1.9250    0.4747 C   0  0  0  0  0  0  0  0  0  0  0  0
   -1.4916   -0.6544    0.7411 C   0  0  0  0  0  0  0  0  0  0  0  0
   -0.6889    0.4014    0.0266 C   0  0  0  0  0  0  0  0  0  0  0  0
   -1.0096    1.8170    0.3181 C   0  0  0  0  0  0  0  0  0  0  0  0
   -1.4038    1.1708   -0.9985 C   0  0  0  0  0  0  0  0  0  0  0  0
    1.4064    1.6636    0.9090 H   0  0  0  0  0  0  0  0  0  0  0  0
    1.5708    0.1208    1.9158 H   0  0  0  0  0  0  0  0  0  0  0  0
    2.7037    0.4261    0.5879 H   0  0  0  0  0  0  0  0  0  0  0  0
    1.3227    1.2896   -1.6658 H   0  0  0  0  0  0  0  0  0  0  0  0
    0.7780   -0.3753   -2.1906 H   0  0  0  0  0  0  0  0  0  0  0  0
    2.4074   -0.0875   -1.3679 H   0  0  0  0  0  0  0  0  0  0  0  0
    1.2979   -1.7993    1.0360 H   0  0  0  0  0  0  0  0  0  0  0  0
    1.0181   -2.1363   -0.7202 H   0  0  0  0  0  0  0  0  0  0  0  0
   -1.1893   -2.4619   -0.3965 H   0  0  0  0  0  0  0  0  0  0  0  0
   -0.8246   -2.5503    1.4018 H   0  0  0  0  0  0  0  0  0  0  0  0
   -2.5168   -0.7765    0.3263 H   0  0  0  0  0  0  0  0  0  0  0  0
   -1.5868   -0.4008    1.8031 H   0  0  0  0  0  0  0  0  0  0  0  0
   -1.7992    2.0354    1.0674 H   0  0  0  0  0  0  0  0  0  0  0  0
   -0.2466    2.6219    0.1942 H   0  0  0  0  0  0  0  0  0  0  0  0
   -0.8671    1.4190   -1.9134 H   0  0  0  0  0  0  0  0  0  0  0  0
   -2.5179    1.0275   -1.0896 H   0  0  0  0  0  0  0  0  0  0  0  0
  1  2  1  0
  2  3  1  0
  2  4  1  0
  4  5  1  0
  5  6  1  0
  6  7  1  0
  7  8  1  0
  8  9  1  0
  7  2  1  0
  9  7  1  0
  1 10  1  0
  1 11  1  0
  1 12  1  0
  3 13  1  0
  3 14  1  0
  3 15  1  0
  4 16  1  0
  4 17  1  0
  5 18  1  0
  5 19  1  0
  6 20  1  0
  6 21  1  0
  8 22  1  0
  8 23  1  0
  9 24  1  0
  9 25  1  0
M  END
