
     RDKit          3D

 23 23  0  0  0  0  0  0  0  0999 V2000
   -1.7664    0.4183    1.4056 C   0  0  0  0  0  0  0  0  0  0  0  0
   -1.0643    0.1093    0.1096 C   0  0  0  0  0  0  0  0  0  0  0  0
   -1.9896    0.1654   -1.0843 C   0  0  0  0  0  0  0  0  0  0  0  0
   -0.1877   -1.1115    0.1756 C   0  0  0  0  0  0  0  0  0  0  0  0
    0.9381   -0.3226   -0.4087 C   0  0  0  0  0  0  0  0  0  0  0  0
    1.1291   -0.5618   -1.7726 O   0  0  0  0  0  0  0  0  0  0  0  0
    2.2147   -0.2838    0.3988 C   0  0  0  0  0  0  0  0  0  0  0  0
    2.9885    0.7656   -0.1495 O   0  0  0  0  0  0  0  0  0  0  0  0
    0.1500    0.9614   -0.1370 C   0  0  0  0  0  0  0  0  0  0  0  0
   -2.4928    1.2262    1.2868 H   0  0  0  0  0  0  0  0  0  0  0  0
   -2.2876   -0.4508    1.8432 H   0  0  0  0  0  0  0  0  0  0  0  0
   -0.9936    0.7730    2.1165 H   0  0  0  0  0  0  0  0  0  0  0  0
   -2.3637    1.2207   -1.1532 H   0  0  0  0  0  0  0  0  0  0  0  0
   -1.3893    0.0101   -2.0151 H   0  0  0  0  0  0  0  0  0  0  0  0
   -2.8505   -0.4989   -1.0122 H   0  0  0  0  0  0  0  0  0  0  0  0
   -0.5676   -1.9135   -0.4936 H   0  0  0  0  0  0  0  0  0  0  0  0
    0.0330   -1.4756    1.1915 H   0  0  0  0  0  0  0  0  0  0  0  0
    1.2562   -1.5490   -1.9143 H   0  0  0  0  0  0  0  0  0  0  0  0
    2.7702   -1.2475    0.3664 H   0  0  0  0  0  0  0  0  0  0  0  0
    1.9463    0.0054    1.4312 H   0  0  0  0  0  0  0  0  0  0  0  0
    3.9363    0.6858    0.0860 H   0  0  0  0  0  0  0  0  0  0  0  0
    0.4583    1.4925    0.7842 H   0  0  0  0  0  0  0  0  0  0  0  0
    0.1324    1.5812   -1.0549 H   0  0  0  0  0  0  0  0  0  0  0  0
  1  2  1  0
  2  3  1  0
  2  4  1  0
  4  5  1  0
  5  6  1  0
  5  7  1  0
  7  8  1  0
  5  9  1  0
  9  2  1  0
  1 10  1  0
  1 11  1  0
  1 12  1  0
  3 13  1  0
  3 14  1  0
  3 15  1  0
  4 16  1  0
  4 17  1  0
  6 18  1  0
  7 19  1  0
  7 20  1  0
  8 21  1  0
  9 22  1  0
  9 23  1  0
M  END
