
     RDKit          3D

 21 22  0  0  0  0  0  0  0  0999 V2000
   -1.5932   -1.3225   -0.7341 C   0  0  0  0  0  0  0  0  0  0  0  0
   -0.5727   -0.3064   -0.3460 C   0  0  0  0  0  0  0  0  0  0  0  0
   -1.2224    1.0001    0.0456 C   0  0  0  0  0  0  0  0  0  0  0  0
   -2.1777    0.8713    1.0226 O   0  0  0  0  0  0  0  0  0  0  0  0
    0.3108   -0.8404    0.7787 C   0  0  0  0  0  0  0  0  0  0  0  0
    1.4493    0.1508    0.7271 C   0  0  0  0  0  0  0  0  0  0  0  0
    2.5692    0.0074   -0.2021 C   0  0  0  0  0  0  0  0  0  0  0  0
    1.3127    0.7208   -0.6484 C   0  0  0  0  0  0  0  0  0  0  0  0
    0.3578   -0.0383   -1.3256 O   0  0  0  0  0  0  0  0  0  0  0  0
   -2.2284   -0.9548   -1.5372 H   0  0  0  0  0  0  0  0  0  0  0  0
   -2.2190   -1.5300    0.1674 H   0  0  0  0  0  0  0  0  0  0  0  0
   -1.0911   -2.2705   -1.0096 H   0  0  0  0  0  0  0  0  0  0  0  0
   -1.7176    1.3907   -0.8758 H   0  0  0  0  0  0  0  0  0  0  0  0
   -0.4699    1.7477    0.3336 H   0  0  0  0  0  0  0  0  0  0  0  0
   -2.3494    1.7753    1.3957 H   0  0  0  0  0  0  0  0  0  0  0  0
   -0.2028   -0.8609    1.7450 H   0  0  0  0  0  0  0  0  0  0  0  0
    0.6705   -1.8358    0.4516 H   0  0  0  0  0  0  0  0  0  0  0  0
    1.5577    0.8217    1.6047 H   0  0  0  0  0  0  0  0  0  0  0  0
    2.7664   -0.9216   -0.7740 H   0  0  0  0  0  0  0  0  0  0  0  0
    3.4707    0.5957   -0.0031 H   0  0  0  0  0  0  0  0  0  0  0  0
    1.3791    1.7996   -0.8162 H   0  0  0  0  0  0  0  0  0  0  0  0
  1  2  1  0
  2  3  1  0
  3  4  1  0
  2  5  1  0
  5  6  1  0
  6  7  1  0
  7  8  1  0
  8  9  1  0
  9  2  1  0
  8  6  1  0
  1 10  1  0
  1 11  1  0
  1 12  1  0
  3 13  1  0
  3 14  1  0
  4 15  1  0
  5 16  1  0
  5 17  1  0
  6 18  1  0
  7 19  1  0
  7 20  1  0
  8 21  1  0
M  END
