
     RDKit          3D

 21 23  0  0  0  0  0  0  0  0999 V2000
   -2.0289    1.0910   -0.3281 C   0  0  0  0  0  0  0  0  0  0  0  0
   -1.2698   -0.0963    0.1931 C   0  0  0  0  0  0  0  0  0  0  0  0
   -1.6646   -0.5139    1.4787 O   0  0  0  0  0  0  0  0  0  0  0  0
   -0.9319   -1.2364   -0.7349 C   0  0  0  0  0  0  0  0  0  0  0  0
    0.0884   -0.3237   -0.2428 C   0  0  0  0  0  0  0  0  0  0  0  0
    0.8957    0.5902   -1.0884 C   0  0  0  0  0  0  0  0  0  0  0  0
    2.1322    0.1194   -0.3103 C   0  0  0  0  0  0  0  0  0  0  0  0
    2.1057    0.4262    1.1252 C   0  0  0  0  0  0  0  0  0  0  0  0
    1.2285   -0.7053    0.6252 C   0  0  0  0  0  0  0  0  0  0  0  0
   -2.1004    1.8221    0.5150 H   0  0  0  0  0  0  0  0  0  0  0  0
   -1.5297    1.5628   -1.1977 H   0  0  0  0  0  0  0  0  0  0  0  0
   -3.0878    0.8517   -0.5911 H   0  0  0  0  0  0  0  0  0  0  0  0
   -2.2448   -1.3238    1.3910 H   0  0  0  0  0  0  0  0  0  0  0  0
   -1.2713   -1.1863   -1.7843 H   0  0  0  0  0  0  0  0  0  0  0  0
   -0.9036   -2.2806   -0.3271 H   0  0  0  0  0  0  0  0  0  0  0  0
    0.7150    1.6656   -0.9069 H   0  0  0  0  0  0  0  0  0  0  0  0
    0.9947    0.2823   -2.1459 H   0  0  0  0  0  0  0  0  0  0  0  0
    2.8808   -0.4850   -0.8099 H   0  0  0  0  0  0  0  0  0  0  0  0
    1.5815    1.3696    1.4290 H   0  0  0  0  0  0  0  0  0  0  0  0
    2.9071    0.1145    1.8014 H   0  0  0  0  0  0  0  0  0  0  0  0
    1.5030   -1.7440    0.8337 H   0  0  0  0  0  0  0  0  0  0  0  0
  1  2  1  0
  2  3  1  0
  2  4  1  0
  4  5  1  0
  5  6  1  0
  6  7  1  0
  7  8  1  0
  8  9  1  0
  5  2  1  0
  9  7  1  0
  9  5  1  0
  1 10  1  0
  1 11  1  0
  1 12  1  0
  3 13  1  0
  4 14  1  0
  4 15  1  0
  6 16  1  0
  6 17  1  0
  7 18  1  0
  8 19  1  0
  8 20  1  0
  9 21  1  0
M  END
