
     RDKit          3D

 21 22  0  0  0  0  0  0  0  0999 V2000
   -1.6143   -0.1551   -1.4351 C   0  0  0  0  0  0  0  0  0  0  0  0
   -1.1615    0.2543   -0.0723 C   0  0  0  0  0  0  0  0  0  0  0  0
    0.0657    1.0582    0.1547 C   0  0  0  0  0  0  0  0  0  0  0  0
    1.3446    0.4768   -0.3036 C   0  0  0  0  0  0  0  0  0  0  0  0
    2.4422    1.3350   -0.0332 O   0  0  0  0  0  0  0  0  0  0  0  0
    1.6165   -0.9373    0.1325 C   0  0  0  0  0  0  0  0  0  0  0  0
    1.5445   -0.5073   -1.3388 C   0  0  0  0  0  0  0  0  0  0  0  0
   -1.8467   -0.3945    1.0626 C   0  0  0  0  0  0  0  0  0  0  0  0
   -2.2682    0.8686    0.7141 O   0  0  0  0  0  0  0  0  0  0  0  0
   -1.0825    0.3835   -2.2618 H   0  0  0  0  0  0  0  0  0  0  0  0
   -2.7023    0.0923   -1.6221 H   0  0  0  0  0  0  0  0  0  0  0  0
   -1.5709   -1.2617   -1.5523 H   0  0  0  0  0  0  0  0  0  0  0  0
   -0.1289    2.0895   -0.2289 H   0  0  0  0  0  0  0  0  0  0  0  0
    0.1574    1.2007    1.2738 H   0  0  0  0  0  0  0  0  0  0  0  0
    2.3598    1.5200    0.9509 H   0  0  0  0  0  0  0  0  0  0  0  0
    0.8073   -1.5542    0.5440 H   0  0  0  0  0  0  0  0  0  0  0  0
    2.6278   -1.2250    0.4837 H   0  0  0  0  0  0  0  0  0  0  0  0
    0.7909   -1.0610   -1.8919 H   0  0  0  0  0  0  0  0  0  0  0  0
    2.5310   -0.4972   -1.8916 H   0  0  0  0  0  0  0  0  0  0  0  0
   -1.3935   -0.4472    2.0792 H   0  0  0  0  0  0  0  0  0  0  0  0
   -2.5190   -1.2383    0.8534 H   0  0  0  0  0  0  0  0  0  0  0  0
  1  2  1  0
  2  3  1  0
  3  4  1  0
  4  5  1  0
  4  6  1  0
  6  7  1  0
  2  8  1  0
  8  9  1  0
  9  2  1  0
  7  4  1  0
  1 10  1  0
  1 11  1  0
  1 12  1  0
  3 13  1  0
  3 14  1  0
  5 15  1  0
  6 16  1  0
  6 17  1  0
  7 18  1  0
  7 19  1  0
  8 20  1  0
  8 21  1  0
M  END
