
     RDKit          3D

 19 20  0  0  0  0  0  0  0  0999 V2000
    0.9253   -1.7469   -0.2555 C   0  0  0  0  0  0  0  0  0  0  0  0
    0.5160   -0.2936   -0.3364 C   0  0  0  0  0  0  0  0  0  0  0  0
    1.7003    0.6301   -0.0632 C   0  0  0  0  0  0  0  0  0  0  0  0
    1.2544    1.9450    0.0741 O   0  0  0  0  0  0  0  0  0  0  0  0
   -0.1351    0.0784   -1.5025 O   0  0  0  0  0  0  0  0  0  0  0  0
   -1.0375    0.7882   -0.6854 C   0  0  0  0  0  0  0  0  0  0  0  0
   -2.0651   -0.0544   -0.0479 C   0  0  0  0  0  0  0  0  0  0  0  0
   -3.0453    0.5001    0.7593 O   0  0  0  0  0  0  0  0  0  0  0  0
   -0.6921   -0.0309    0.4953 C   0  0  0  0  0  0  0  0  0  0  0  0
    1.7020   -1.7994    0.5624 H   0  0  0  0  0  0  0  0  0  0  0  0
    0.0765   -2.3759    0.0821 H   0  0  0  0  0  0  0  0  0  0  0  0
    1.3116   -2.1385   -1.2055 H   0  0  0  0  0  0  0  0  0  0  0  0
    2.3712    0.5894   -0.9462 H   0  0  0  0  0  0  0  0  0  0  0  0
    2.2368    0.2850    0.8551 H   0  0  0  0  0  0  0  0  0  0  0  0
    2.0182    2.4620    0.4661 H   0  0  0  0  0  0  0  0  0  0  0  0
   -1.0305    1.8720   -0.6766 H   0  0  0  0  0  0  0  0  0  0  0  0
   -2.4281   -0.9582   -0.6025 H   0  0  0  0  0  0  0  0  0  0  0  0
   -3.1621   -0.1283    1.5366 H   0  0  0  0  0  0  0  0  0  0  0  0
   -0.5166    0.3758    1.4904 H   0  0  0  0  0  0  0  0  0  0  0  0
  1  2  1  0
  2  3  1  0
  3  4  1  0
  2  5  1  0
  5  6  1  0
  6  7  1  0
  7  8  1  0
  7  9  1  0
  9  2  1  0
  9  6  1  0
  1 10  1  0
  1 11  1  0
  1 12  1  0
  3 13  1  0
  3 14  1  0
  4 15  1  0
  6 16  1  0
  7 17  1  0
  8 18  1  0
  9 19  1  0
M  END
