
     RDKit          3D

 19 19  0  0  0  0  0  0  0  0999 V2000
   -1.7216   -0.4227   -1.0019 C   0  0  0  0  0  0  0  0  0  0  0  0
   -0.7770    0.3189   -0.0980 C   0  0  0  0  0  0  0  0  0  0  0  0
    0.5626   -0.2749   -0.0290 C   0  0  0  0  0  0  0  0  0  0  0  0
    1.6715   -0.7848    0.0287 C   0  0  0  0  0  0  0  0  0  0  0  0
    3.0106   -1.3734    0.1044 C   0  0  0  0  0  0  0  0  0  0  0  0
    3.8443   -0.8692   -0.9191 O   0  0  0  0  0  0  0  0  0  0  0  0
   -1.3012    0.6476    1.2660 C   0  0  0  0  0  0  0  0  0  0  0  0
   -1.7204    1.9092    0.5818 C   0  0  0  0  0  0  0  0  0  0  0  0
   -0.7522    1.6974   -0.4069 O   0  0  0  0  0  0  0  0  0  0  0  0
   -2.6960    0.0793   -0.9837 H   0  0  0  0  0  0  0  0  0  0  0  0
   -1.3378   -0.3218   -2.0502 H   0  0  0  0  0  0  0  0  0  0  0  0
   -1.7763   -1.4835   -0.6911 H   0  0  0  0  0  0  0  0  0  0  0  0
    3.4617   -0.9881    1.0524 H   0  0  0  0  0  0  0  0  0  0  0  0
    2.9954   -2.4604    0.0404 H   0  0  0  0  0  0  0  0  0  0  0  0
    3.4991   -1.3146   -1.7536 H   0  0  0  0  0  0  0  0  0  0  0  0
   -2.1596    0.0730    1.6211 H   0  0  0  0  0  0  0  0  0  0  0  0
   -0.4910    0.8321    1.9971 H   0  0  0  0  0  0  0  0  0  0  0  0
   -1.5817    2.8504    1.1383 H   0  0  0  0  0  0  0  0  0  0  0  0
   -2.7305    1.8854    0.1036 H   0  0  0  0  0  0  0  0  0  0  0  0
  1  2  1  0
  2  3  1  0
  3  4  3  0
  4  5  1  0
  5  6  1  0
  2  7  1  0
  7  8  1  0
  8  9  1  0
  9  2  1  0
  1 10  1  0
  1 11  1  0
  1 12  1  0
  5 13  1  0
  5 14  1  0
  6 15  1  0
  7 16  1  0
  7 17  1  0
  8 18  1  0
  8 19  1  0
M  END
