
     RDKit          3D

 21 22  0  0  0  0  0  0  0  0999 V2000
   -1.6915   -1.3649    0.4411 C   0  0  0  0  0  0  0  0  0  0  0  0
   -1.0188   -0.0310    0.1078 C   0  0  0  0  0  0  0  0  0  0  0  0
    0.3333   -0.1995   -0.5111 C   0  0  0  0  0  0  0  0  0  0  0  0
    0.9604    0.9783   -0.8205 O   0  0  0  0  0  0  0  0  0  0  0  0
    2.3206    0.6977   -0.7168 C   0  0  0  0  0  0  0  0  0  0  0  0
    2.4015   -0.7622   -0.2725 C   0  0  0  0  0  0  0  0  0  0  0  0
    1.1607   -0.8909    0.3812 O   0  0  0  0  0  0  0  0  0  0  0  0
   -1.9168    1.0622   -0.4721 C   0  0  0  0  0  0  0  0  0  0  0  0
   -1.3900    1.1368    0.9069 C   0  0  0  0  0  0  0  0  0  0  0  0
   -2.7553   -1.2553    0.6589 H   0  0  0  0  0  0  0  0  0  0  0  0
   -1.4984   -2.1135   -0.3607 H   0  0  0  0  0  0  0  0  0  0  0  0
   -1.2093   -1.7109    1.3954 H   0  0  0  0  0  0  0  0  0  0  0  0
    0.2382   -0.7897   -1.4511 H   0  0  0  0  0  0  0  0  0  0  0  0
    2.8512    0.7893   -1.6853 H   0  0  0  0  0  0  0  0  0  0  0  0
    2.7701    1.3742    0.0318 H   0  0  0  0  0  0  0  0  0  0  0  0
    3.2514   -0.9208    0.3936 H   0  0  0  0  0  0  0  0  0  0  0  0
    2.3802   -1.4315   -1.1588 H   0  0  0  0  0  0  0  0  0  0  0  0
   -1.4005    1.7294   -1.2199 H   0  0  0  0  0  0  0  0  0  0  0  0
   -2.9687    0.8255   -0.6869 H   0  0  0  0  0  0  0  0  0  0  0  0
   -2.1618    0.9642    1.7081 H   0  0  0  0  0  0  0  0  0  0  0  0
   -0.6565    1.9126    1.2137 H   0  0  0  0  0  0  0  0  0  0  0  0
  1  2  1  0
  2  3  1  0
  3  4  1  0
  4  5  1  0
  5  6  1  0
  6  7  1  0
  2  8  1  0
  8  9  1  0
  9  2  1  0
  7  3  1  0
  1 10  1  0
  1 11  1  0
  1 12  1  0
  3 13  1  0
  5 14  1  0
  5 15  1  0
  6 16  1  0
  6 17  1  0
  8 18  1  0
  8 19  1  0
  9 20  1  0
  9 21  1  0
M  END
