
     RDKit          3D

 19 20  0  0  0  0  0  0  0  0999 V2000
   -1.7581   -0.1424    0.6994 C   0  0  0  0  0  0  0  0  0  0  0  0
   -0.7623   -0.0162   -0.4338 C   0  0  0  0  0  0  0  0  0  0  0  0
   -1.5210   -0.0334   -1.6216 O   0  0  0  0  0  0  0  0  0  0  0  0
   -0.0062    1.2674   -0.4116 C   0  0  0  0  0  0  0  0  0  0  0  0
    1.1789    1.2807    0.4698 C   0  0  0  0  0  0  0  0  0  0  0  0
    1.8378    0.1777    0.7178 C   0  0  0  0  0  0  0  0  0  0  0  0
    1.4222   -1.0967    0.1320 C   0  0  0  0  0  0  0  0  0  0  0  0
    0.3751   -1.7203    0.9349 O   0  0  0  0  0  0  0  0  0  0  0  0
    0.1559   -1.2026   -0.4341 C   0  0  0  0  0  0  0  0  0  0  0  0
   -1.8474   -1.2328    0.9269 H   0  0  0  0  0  0  0  0  0  0  0  0
   -1.4436    0.3683    1.6130 H   0  0  0  0  0  0  0  0  0  0  0  0
   -2.7848    0.1796    0.3912 H   0  0  0  0  0  0  0  0  0  0  0  0
   -0.9409   -0.0614   -2.4238 H   0  0  0  0  0  0  0  0  0  0  0  0
    0.3692    1.4689   -1.4581 H   0  0  0  0  0  0  0  0  0  0  0  0
   -0.6221    2.1444   -0.1481 H   0  0  0  0  0  0  0  0  0  0  0  0
    1.5296    2.2030    0.9308 H   0  0  0  0  0  0  0  0  0  0  0  0
    2.6996    0.2021    1.3618 H   0  0  0  0  0  0  0  0  0  0  0  0
    2.2483   -1.7657   -0.1578 H   0  0  0  0  0  0  0  0  0  0  0  0
   -0.1304   -2.0205   -1.0887 H   0  0  0  0  0  0  0  0  0  0  0  0
  1  2  1  0
  2  3  1  0
  2  4  1  0
  4  5  1  0
  5  6  2  0
  6  7  1  0
  7  8  1  0
  8  9  1  0
  9  2  1  0
  9  7  1  0
  1 10  1  0
  1 11  1  0
  1 12  1  0
  3 13  1  0
  4 14  1  0
  4 15  1  0
  5 16  1  0
  6 17  1  0
  7 18  1  0
  9 19  1  0
M  END
