
     RDKit          3D

 17 18  0  0  0  0  0  0  0  0999 V2000
   -1.8942    0.2276   -1.7180 C   0  0  0  0  0  0  0  0  0  0  0  0
   -0.7240   -0.6541   -1.2640 C   0  0  0  0  0  0  0  0  0  0  0  0
   -0.0836   -0.1997   -0.0182 C   0  0  0  0  0  0  0  0  0  0  0  0
    0.4380    0.1917    0.9963 C   0  0  0  0  0  0  0  0  0  0  0  0
    1.0831    0.6806    2.2451 C   0  0  0  0  0  0  0  0  0  0  0  0
    2.3606    1.4902    2.0844 C   0  0  0  0  0  0  0  0  0  0  0  0
    1.1302    2.0771    2.2792 O   0  0  0  0  0  0  0  0  0  0  0  0
   -0.8038   -2.0374   -1.5569 C   0  0  0  0  0  0  0  0  0  0  0  0
    0.0724   -1.1335   -2.2877 O   0  0  0  0  0  0  0  0  0  0  0  0
   -2.5315   -0.2996   -2.4387 H   0  0  0  0  0  0  0  0  0  0  0  0
   -1.4041    1.1039   -2.2155 H   0  0  0  0  0  0  0  0  0  0  0  0
   -2.4593    0.5403   -0.8209 H   0  0  0  0  0  0  0  0  0  0  0  0
    0.8652    0.2043    3.1913 H   0  0  0  0  0  0  0  0  0  0  0  0
    3.0651    1.4398    2.9443 H   0  0  0  0  0  0  0  0  0  0  0  0
    2.7902    1.6188    1.0704 H   0  0  0  0  0  0  0  0  0  0  0  0
   -1.6303   -2.4419   -2.1900 H   0  0  0  0  0  0  0  0  0  0  0  0
   -0.2739   -2.8079   -0.9828 H   0  0  0  0  0  0  0  0  0  0  0  0
  1  2  1  0
  2  3  1  0
  3  4  3  0
  4  5  1  0
  5  6  1  0
  6  7  1  0
  2  8  1  0
  8  9  1  0
  9  2  1  0
  7  5  1  0
  1 10  1  0
  1 11  1  0
  1 12  1  0
  5 13  1  0
  6 14  1  0
  6 15  1  0
  8 16  1  0
  8 17  1  0
M  END
