
     RDKit          3D

 19 20  0  0  0  0  0  0  0  0999 V2000
    1.6293   -0.6645    0.1853 C   0  0  0  0  0  0  0  0  0  0  0  0
    0.5460    0.3375   -0.0662 C   0  0  0  0  0  0  0  0  0  0  0  0
    1.0274    1.6357   -0.5336 C   0  0  0  0  0  0  0  0  0  0  0  0
    1.5005    1.7118   -1.6485 O   0  0  0  0  0  0  0  0  0  0  0  0
   -0.3804    0.4669    1.1567 C   0  0  0  0  0  0  0  0  0  0  0  0
   -1.6539   -0.0252    0.4649 C   0  0  0  0  0  0  0  0  0  0  0  0
   -1.2651   -1.2268   -0.3241 C   0  0  0  0  0  0  0  0  0  0  0  0
   -0.4951   -0.1655   -1.0452 C   0  0  0  0  0  0  0  0  0  0  0  0
   -1.5694    0.7048   -0.7421 O   0  0  0  0  0  0  0  0  0  0  0  0
    1.9391   -1.2036   -0.7343 H   0  0  0  0  0  0  0  0  0  0  0  0
    2.4755   -0.1361    0.6764 H   0  0  0  0  0  0  0  0  0  0  0  0
    1.2877   -1.4322    0.9352 H   0  0  0  0  0  0  0  0  0  0  0  0
    0.9893    2.5378    0.0528 H   0  0  0  0  0  0  0  0  0  0  0  0
   -0.0594   -0.2120    1.9607 H   0  0  0  0  0  0  0  0  0  0  0  0
   -0.4954    1.5143    1.4667 H   0  0  0  0  0  0  0  0  0  0  0  0
   -2.5638    0.0125    1.0070 H   0  0  0  0  0  0  0  0  0  0  0  0
   -2.0924   -1.6205   -0.9011 H   0  0  0  0  0  0  0  0  0  0  0  0
   -0.5886   -1.9491    0.1565 H   0  0  0  0  0  0  0  0  0  0  0  0
   -0.2312   -0.2858   -2.0669 H   0  0  0  0  0  0  0  0  0  0  0  0
  1  2  1  0
  2  3  1  0
  3  4  2  0
  2  5  1  0
  5  6  1  0
  6  7  1  0
  7  8  1  0
  8  9  1  0
  8  2  1  0
  9  6  1  0
  1 10  1  0
  1 11  1  0
  1 12  1  0
  3 13  1  0
  5 14  1  0
  5 15  1  0
  6 16  1  0
  7 17  1  0
  7 18  1  0
  8 19  1  0
M  END
