
     RDKit          3D

 23 24  0  0  0  0  0  0  0  0999 V2000
   -2.3516   -0.8866    0.3490 C   0  0  0  0  0  0  0  0  0  0  0  0
   -1.3174   -0.1349   -0.5013 C   0  0  0  0  0  0  0  0  0  0  0  0
    0.0735   -0.6724   -0.3033 C   0  0  0  0  0  0  0  0  0  0  0  0
    0.5440   -0.5651    1.1327 C   0  0  0  0  0  0  0  0  0  0  0  0
    1.6128    0.5132    1.0926 C   0  0  0  0  0  0  0  0  0  0  0  0
    2.3147    0.2131   -0.2188 C   0  0  0  0  0  0  0  0  0  0  0  0
    1.1095    0.0289   -1.1475 C   0  0  0  0  0  0  0  0  0  0  0  0
   -1.5899    1.2992   -0.6586 C   0  0  0  0  0  0  0  0  0  0  0  0
   -1.6770    0.3156   -1.7467 O   0  0  0  0  0  0  0  0  0  0  0  0
   -2.2675   -0.4298    1.3656 H   0  0  0  0  0  0  0  0  0  0  0  0
   -3.3243   -0.6935   -0.1252 H   0  0  0  0  0  0  0  0  0  0  0  0
   -2.0849   -1.9524    0.3956 H   0  0  0  0  0  0  0  0  0  0  0  0
    0.1335   -1.7616   -0.5908 H   0  0  0  0  0  0  0  0  0  0  0  0
   -0.2821   -0.2970    1.8203 H   0  0  0  0  0  0  0  0  0  0  0  0
    0.9999   -1.4852    1.4943 H   0  0  0  0  0  0  0  0  0  0  0  0
    1.1867    1.5288    0.9939 H   0  0  0  0  0  0  0  0  0  0  0  0
    2.2758    0.4759    1.9589 H   0  0  0  0  0  0  0  0  0  0  0  0
    2.9302    1.0670   -0.4959 H   0  0  0  0  0  0  0  0  0  0  0  0
    2.8766   -0.7339   -0.1060 H   0  0  0  0  0  0  0  0  0  0  0  0
    0.7890    1.0217   -1.4942 H   0  0  0  0  0  0  0  0  0  0  0  0
    1.4789   -0.6049   -1.9800 H   0  0  0  0  0  0  0  0  0  0  0  0
   -0.8431    2.0627   -0.8648 H   0  0  0  0  0  0  0  0  0  0  0  0
   -2.5874    1.6912   -0.3699 H   0  0  0  0  0  0  0  0  0  0  0  0
  1  2  1  0
  2  3  1  0
  3  4  1  0
  4  5  1  0
  5  6  1  0
  6  7  1  0
  2  8  1  0
  8  9  1  0
  9  2  1  0
  7  3  1  0
  1 10  1  0
  1 11  1  0
  1 12  1  0
  3 13  1  0
  4 14  1  0
  4 15  1  0
  5 16  1  0
  5 17  1  0
  6 18  1  0
  6 19  1  0
  7 20  1  0
  7 21  1  0
  8 22  1  0
  8 23  1  0
M  END
