
     RDKit          3D

 19 19  0  0  0  0  0  0  0  0999 V2000
   -1.9659   -0.4472    0.6641 C   0  0  0  0  0  0  0  0  0  0  0  0
   -0.6236   -0.2726    0.0650 C   0  0  0  0  0  0  0  0  0  0  0  0
   -0.4105   -1.0688   -1.0708 O   0  0  0  0  0  0  0  0  0  0  0  0
   -0.3072    1.1504   -0.3400 C   0  0  0  0  0  0  0  0  0  0  0  0
    1.1208    1.1189   -0.8975 C   0  0  0  0  0  0  0  0  0  0  0  0
    2.0388    0.7023    0.0247 O   0  0  0  0  0  0  0  0  0  0  0  0
    1.8326   -0.6101    0.4365 C   0  0  0  0  0  0  0  0  0  0  0  0
    0.4630   -0.6663    1.0328 C   0  0  0  0  0  0  0  0  0  0  0  0
    0.2312   -0.9908    2.1692 O   0  0  0  0  0  0  0  0  0  0  0  0
   -1.9055   -0.5168    1.7824 H   0  0  0  0  0  0  0  0  0  0  0  0
   -2.6259    0.3655    0.3552 H   0  0  0  0  0  0  0  0  0  0  0  0
   -2.3554   -1.4558    0.3458 H   0  0  0  0  0  0  0  0  0  0  0  0
   -1.1161   -0.9255   -1.7247 H   0  0  0  0  0  0  0  0  0  0  0  0
   -0.9771    1.5425   -1.1074 H   0  0  0  0  0  0  0  0  0  0  0  0
   -0.3122    1.7808    0.5735 H   0  0  0  0  0  0  0  0  0  0  0  0
    1.0971    0.4047   -1.7356 H   0  0  0  0  0  0  0  0  0  0  0  0
    1.4087    2.1475   -1.2235 H   0  0  0  0  0  0  0  0  0  0  0  0
    2.6163   -0.9527    1.1040 H   0  0  0  0  0  0  0  0  0  0  0  0
    1.7907   -1.3060   -0.4536 H   0  0  0  0  0  0  0  0  0  0  0  0
  1  2  1  0
  2  3  1  0
  2  4  1  0
  4  5  1  0
  5  6  1  0
  6  7  1  0
  7  8  1  0
  8  9  2  0
  8  2  1  0
  1 10  1  0
  1 11  1  0
  1 12  1  0
  3 13  1  0
  4 14  1  0
  4 15  1  0
  5 16  1  0
  5 17  1  0
  7 18  1  0
  7 19  1  0
M  END
