
     RDKit          3D

 23 23  0  0  0  0  0  0  0  0999 V2000
    1.8919    0.3073   -0.9009 C   0  0  0  0  0  0  0  0  0  0  0  0
    0.6861    0.1224    0.0784 C   0  0  0  0  0  0  0  0  0  0  0  0
    1.3830    0.0879    1.3202 O   0  0  0  0  0  0  0  0  0  0  0  0
    0.0066    1.4894   -0.1038 C   0  0  0  0  0  0  0  0  0  0  0  0
   -1.4691    1.4480    0.4369 C   0  0  0  0  0  0  0  0  0  0  0  0
   -1.7518    0.0851    0.5210 C   0  0  0  0  0  0  0  0  0  0  0  0
   -2.1409   -1.1346    0.6794 O   0  0  0  0  0  0  0  0  0  0  0  0
   -0.9721   -1.9205    0.3289 C   0  0  0  0  0  0  0  0  0  0  0  0
    0.0979   -1.1143   -0.3361 C   0  0  0  0  0  0  0  0  0  0  0  0
    2.6238    0.9913   -0.4787 H   0  0  0  0  0  0  0  0  0  0  0  0
    2.3549   -0.6497   -1.1205 H   0  0  0  0  0  0  0  0  0  0  0  0
    1.5213    0.7403   -1.8513 H   0  0  0  0  0  0  0  0  0  0  0  0
    2.2203   -0.4039    1.2474 H   0  0  0  0  0  0  0  0  0  0  0  0
   -0.0063    1.7733   -1.1734 H   0  0  0  0  0  0  0  0  0  0  0  0
    0.5922    2.1853    0.5159 H   0  0  0  0  0  0  0  0  0  0  0  0
   -1.4829    2.0729    1.3812 H   0  0  0  0  0  0  0  0  0  0  0  0
   -2.0475    2.0710   -0.2837 H   0  0  0  0  0  0  0  0  0  0  0  0
   -1.5655   -0.0874   -0.5876 H   0  0  0  0  0  0  0  0  0  0  0  0
   -0.9100   -0.0774    1.2706 H   0  0  0  0  0  0  0  0  0  0  0  0
   -0.6090   -2.4232    1.2285 H   0  0  0  0  0  0  0  0  0  0  0  0
   -1.3528   -2.6276   -0.4074 H   0  0  0  0  0  0  0  0  0  0  0  0
    0.9766   -1.8517   -0.2996 H   0  0  0  0  0  0  0  0  0  0  0  0
   -0.0466   -1.0840   -1.4653 H   0  0  0  0  0  0  0  0  0  0  0  0
  1  2  1  0
  2  3  1  0
  2  4  1  0
  4  5  1  0
  5  6  1  0
  6  7  1  0
  7  8  1  0
  8  9  1  0
  9  2  1  0
  1 10  1  0
  1 11  1  0
  1 12  1  0
  3 13  1  0
  4 14  1  0
  4 15  1  0
  5 16  1  0
  5 17  1  0
  6 18  1  0
  6 19  1  0
  8 20  1  0
  8 21  1  0
  9 22  1  0
  9 23  1  0
M  END
