
     RDKit          3D

 16 16  0  0  0  0  0  0  0  0999 V2000
   -1.5984   -0.7953   -0.2940 C   0  0  0  0  0  0  0  0  0  0  0  0
   -0.4892    0.2540   -0.1250 C   0  0  0  0  0  0  0  0  0  0  0  0
   -1.1217    1.5873   -0.1904 C   0  0  0  0  0  0  0  0  0  0  0  0
   -1.6724    2.0143   -1.2037 O   0  0  0  0  0  0  0  0  0  0  0  0
    0.0412    0.0504    1.1210 O   0  0  0  0  0  0  0  0  0  0  0  0
    1.3189   -0.4571    0.9744 C   0  0  0  0  0  0  0  0  0  0  0  0
    1.6897   -0.1340   -0.4335 C   0  0  0  0  0  0  0  0  0  0  0  0
    0.4964    0.0695   -1.0692 O   0  0  0  0  0  0  0  0  0  0  0  0
   -1.1055   -1.7718   -0.0738 H   0  0  0  0  0  0  0  0  0  0  0  0
   -2.3581   -0.5460    0.4926 H   0  0  0  0  0  0  0  0  0  0  0  0
   -2.0138   -0.7836   -1.3092 H   0  0  0  0  0  0  0  0  0  0  0  0
   -1.1201    2.2459    0.6717 H   0  0  0  0  0  0  0  0  0  0  0  0
    2.0346    0.0145    1.6905 H   0  0  0  0  0  0  0  0  0  0  0  0
    1.3541   -1.5675    1.1157 H   0  0  0  0  0  0  0  0  0  0  0  0
    2.2563   -0.9910   -0.8700 H   0  0  0  0  0  0  0  0  0  0  0  0
    2.2881    0.8103   -0.4972 H   0  0  0  0  0  0  0  0  0  0  0  0
  1  2  1  0
  2  3  1  0
  3  4  2  0
  2  5  1  0
  5  6  1  0
  6  7  1  0
  7  8  1  0
  8  2  1  0
  1  9  1  0
  1 10  1  0
  1 11  1  0
  3 12  1  0
  6 13  1  0
  6 14  1  0
  7 15  1  0
  7 16  1  0
M  END
