
     RDKit          3D

 23 24  0  0  0  0  0  0  0  0999 V2000
   -1.6437    1.3997    0.1271 C   0  0  0  0  0  0  0  0  0  0  0  0
   -1.1260    0.0063   -0.1300 C   0  0  0  0  0  0  0  0  0  0  0  0
   -2.2096   -1.0094   -0.3336 C   0  0  0  0  0  0  0  0  0  0  0  0
   -0.1618    0.0820   -1.2702 C   0  0  0  0  0  0  0  0  0  0  0  0
    1.0858    0.1542   -0.8488 C   0  0  0  0  0  0  0  0  0  0  0  0
    2.5556    0.2427   -0.6782 C   0  0  0  0  0  0  0  0  0  0  0  0
    2.3172   -0.5743    0.6219 C   0  0  0  0  0  0  0  0  0  0  0  0
    1.0479    0.1911    0.6834 C   0  0  0  0  0  0  0  0  0  0  0  0
   -0.2329   -0.4947    1.0081 C   0  0  0  0  0  0  0  0  0  0  0  0
   -0.8904    2.1497   -0.2392 H   0  0  0  0  0  0  0  0  0  0  0  0
   -1.8744    1.5811    1.1869 H   0  0  0  0  0  0  0  0  0  0  0  0
   -2.5559    1.5297   -0.5185 H   0  0  0  0  0  0  0  0  0  0  0  0
   -2.1588   -1.5015   -1.3262 H   0  0  0  0  0  0  0  0  0  0  0  0
   -2.1943   -1.8304    0.4145 H   0  0  0  0  0  0  0  0  0  0  0  0
   -3.2404   -0.5618   -0.2840 H   0  0  0  0  0  0  0  0  0  0  0  0
   -0.4785    0.0763   -2.3027 H   0  0  0  0  0  0  0  0  0  0  0  0
    2.8643    1.2874   -0.4472 H   0  0  0  0  0  0  0  0  0  0  0  0
    3.1683   -0.2905   -1.4026 H   0  0  0  0  0  0  0  0  0  0  0  0
    3.1233   -0.2877    1.3235 H   0  0  0  0  0  0  0  0  0  0  0  0
    2.2516   -1.6458    0.3601 H   0  0  0  0  0  0  0  0  0  0  0  0
    1.1965    1.1964    1.0912 H   0  0  0  0  0  0  0  0  0  0  0  0
   -0.1807   -1.5823    1.0276 H   0  0  0  0  0  0  0  0  0  0  0  0
   -0.6628   -0.1180    1.9368 H   0  0  0  0  0  0  0  0  0  0  0  0
  1  2  1  0
  2  3  1  0
  2  4  1  0
  4  5  2  0
  5  6  1  0
  6  7  1  0
  7  8  1  0
  8  9  1  0
  9  2  1  0
  8  5  1  0
  1 10  1  0
  1 11  1  0
  1 12  1  0
  3 13  1  0
  3 14  1  0
  3 15  1  0
  4 16  1  0
  6 17  1  0
  6 18  1  0
  7 19  1  0
  7 20  1  0
  8 21  1  0
  9 22  1  0
  9 23  1  0
M  END
