
     RDKit          3D

 23 24  0  0  0  0  0  0  0  0999 V2000
    0.6726    1.6630   -0.2458 C   0  0  0  0  0  0  0  0  0  0  0  0
    0.5607    0.1539    0.0224 C   0  0  0  0  0  0  0  0  0  0  0  0
    1.9328   -0.4031    0.1427 C   0  0  0  0  0  0  0  0  0  0  0  0
    2.0538   -1.7408    0.3838 O   0  0  0  0  0  0  0  0  0  0  0  0
   -0.3943   -0.5555   -0.8840 C   0  0  0  0  0  0  0  0  0  0  0  0
   -1.5978    0.3745   -0.8431 C   0  0  0  0  0  0  0  0  0  0  0  0
   -1.6688    0.6025    0.6723 C   0  0  0  0  0  0  0  0  0  0  0  0
   -0.4459   -0.1745    1.0833 C   0  0  0  0  0  0  0  0  0  0  0  0
   -0.7461   -1.4540    0.2857 C   0  0  0  0  0  0  0  0  0  0  0  0
    1.7432    2.0138   -0.1432 H   0  0  0  0  0  0  0  0  0  0  0  0
    0.4332    1.8979   -1.3115 H   0  0  0  0  0  0  0  0  0  0  0  0
    0.1261    2.2692    0.4823 H   0  0  0  0  0  0  0  0  0  0  0  0
    2.5744    0.2103    0.8437 H   0  0  0  0  0  0  0  0  0  0  0  0
    2.4319   -0.2212   -0.8594 H   0  0  0  0  0  0  0  0  0  0  0  0
    2.8669   -2.1227   -0.0259 H   0  0  0  0  0  0  0  0  0  0  0  0
   -0.0873   -0.9760   -1.7989 H   0  0  0  0  0  0  0  0  0  0  0  0
   -2.4905   -0.1738   -1.2112 H   0  0  0  0  0  0  0  0  0  0  0  0
   -1.4980    1.2841   -1.4173 H   0  0  0  0  0  0  0  0  0  0  0  0
   -2.5504   -0.0059    1.0343 H   0  0  0  0  0  0  0  0  0  0  0  0
   -1.7251    1.6297    0.9740 H   0  0  0  0  0  0  0  0  0  0  0  0
   -0.1737   -0.2708    2.0956 H   0  0  0  0  0  0  0  0  0  0  0  0
   -1.8534   -1.6779    0.2304 H   0  0  0  0  0  0  0  0  0  0  0  0
   -0.1643   -2.3227    0.4899 H   0  0  0  0  0  0  0  0  0  0  0  0
  1  2  1  0
  2  3  1  0
  3  4  1  0
  2  5  1  0
  5  6  1  0
  6  7  1  0
  7  8  1  0
  8  9  1  0
  8  2  1  0
  9  5  1  0
  1 10  1  0
  1 11  1  0
  1 12  1  0
  3 13  1  0
  3 14  1  0
  4 15  1  0
  5 16  1  0
  6 17  1  0
  6 18  1  0
  7 19  1  0
  7 20  1  0
  8 21  1  0
  9 22  1  0
  9 23  1  0
M  END
