
     RDKit          3D

 23 23  0  0  0  0  0  0  0  0999 V2000
   -1.4461    1.2819    0.0417 C   0  0  0  0  0  0  0  0  0  0  0  0
   -0.6953   -0.0117   -0.0689 C   0  0  0  0  0  0  0  0  0  0  0  0
   -1.4457   -1.1198    0.6205 C   0  0  0  0  0  0  0  0  0  0  0  0
   -0.3336   -0.4308   -1.4833 C   0  0  0  0  0  0  0  0  0  0  0  0
    1.0272   -0.8981   -0.9553 C   0  0  0  0  0  0  0  0  0  0  0  0
    0.7682    0.0314    0.2308 C   0  0  0  0  0  0  0  0  0  0  0  0
    1.4559    1.3432   -0.0188 C   0  0  0  0  0  0  0  0  0  0  0  0
    1.1922   -0.5595    1.5076 C   0  0  0  0  0  0  0  0  0  0  0  0
    1.4517   -1.7433    1.6230 O   0  0  0  0  0  0  0  0  0  0  0  0
   -1.0039    1.9218    0.8266 H   0  0  0  0  0  0  0  0  0  0  0  0
   -1.5343    1.8005   -0.9391 H   0  0  0  0  0  0  0  0  0  0  0  0
   -2.5150    1.1163    0.3698 H   0  0  0  0  0  0  0  0  0  0  0  0
   -0.8748   -1.5851    1.4503 H   0  0  0  0  0  0  0  0  0  0  0  0
   -1.6830   -1.9708   -0.0834 H   0  0  0  0  0  0  0  0  0  0  0  0
   -2.4411   -0.7889    1.0046 H   0  0  0  0  0  0  0  0  0  0  0  0
   -0.2604    0.3921   -2.2150 H   0  0  0  0  0  0  0  0  0  0  0  0
   -0.8934   -1.3026   -1.8469 H   0  0  0  0  0  0  0  0  0  0  0  0
    1.0422   -1.9307   -0.6088 H   0  0  0  0  0  0  0  0  0  0  0  0
    1.8117   -0.5693   -1.6330 H   0  0  0  0  0  0  0  0  0  0  0  0
    0.9960    2.1838    0.5109 H   0  0  0  0  0  0  0  0  0  0  0  0
    1.5947    1.5358   -1.1155 H   0  0  0  0  0  0  0  0  0  0  0  0
    2.5039    1.2298    0.3868 H   0  0  0  0  0  0  0  0  0  0  0  0
    1.2828    0.0741    2.3954 H   0  0  0  0  0  0  0  0  0  0  0  0
  1  2  1  0
  2  3  1  0
  2  4  1  0
  4  5  1  0
  5  6  1  0
  6  7  1  0
  6  8  1  0
  8  9  2  0
  6  2  1  0
  1 10  1  0
  1 11  1  0
  1 12  1  0
  3 13  1  0
  3 14  1  0
  3 15  1  0
  4 16  1  0
  4 17  1  0
  5 18  1  0
  5 19  1  0
  7 20  1  0
  7 21  1  0
  7 22  1  0
  8 23  1  0
M  END
