
     RDKit          3D

 19 20  0  0  0  0  0  0  0  0999 V2000
   -1.7318    0.7522   -0.4364 C   0  0  0  0  0  0  0  0  0  0  0  0
   -0.7179    0.0352    0.3856 C   0  0  0  0  0  0  0  0  0  0  0  0
   -0.8547    0.1732    1.7638 O   0  0  0  0  0  0  0  0  0  0  0  0
   -0.3508   -1.3513   -0.0201 C   0  0  0  0  0  0  0  0  0  0  0  0
    0.3526   -0.7297   -1.2019 C   0  0  0  0  0  0  0  0  0  0  0  0
    0.7210    0.1641   -0.0594 C   0  0  0  0  0  0  0  0  0  0  0  0
    1.4746    1.2749   -0.0458 C   0  0  0  0  0  0  0  0  0  0  0  0
    2.7063    1.2751    0.1173 O   0  0  0  0  0  0  0  0  0  0  0  0
    0.9424   -1.1023    0.7291 C   0  0  0  0  0  0  0  0  0  0  0  0
   -1.2873    1.3720   -1.2267 H   0  0  0  0  0  0  0  0  0  0  0  0
   -2.4827    0.0902   -0.8904 H   0  0  0  0  0  0  0  0  0  0  0  0
   -2.3028    1.4325    0.2615 H   0  0  0  0  0  0  0  0  0  0  0  0
   -0.1850    0.7845    2.1585 H   0  0  0  0  0  0  0  0  0  0  0  0
   -0.8968   -2.1854   -0.0076 H   0  0  0  0  0  0  0  0  0  0  0  0
   -0.3130   -0.2988   -1.9709 H   0  0  0  0  0  0  0  0  0  0  0  0
    1.2156   -1.3142   -1.5728 H   0  0  0  0  0  0  0  0  0  0  0  0
    1.0775    2.3002   -0.1779 H   0  0  0  0  0  0  0  0  0  0  0  0
    0.8185   -1.0028    1.8165 H   0  0  0  0  0  0  0  0  0  0  0  0
    1.8144   -1.6697    0.3778 H   0  0  0  0  0  0  0  0  0  0  0  0
  1  2  1  0
  2  3  1  0
  2  4  1  0
  4  5  1  0
  5  6  1  0
  6  7  1  0
  7  8  2  0
  6  9  1  0
  6  2  1  0
  9  4  1  0
  1 10  1  0
  1 11  1  0
  1 12  1  0
  3 13  1  0
  4 14  1  0
  5 15  1  0
  5 16  1  0
  7 17  1  0
  9 18  1  0
  9 19  1  0
M  END
