
     RDKit          3D

 19 21  0  0  0  0  0  0  0  0999 V2000
    2.1076    0.2238   -0.7415 C   0  0  0  0  0  0  0  0  0  0  0  0
    0.8294    0.2301    0.0597 C   0  0  0  0  0  0  0  0  0  0  0  0
    0.9825    0.7990    1.3235 O   0  0  0  0  0  0  0  0  0  0  0  0
   -0.3906    0.7268   -0.6916 C   0  0  0  0  0  0  0  0  0  0  0  0
   -1.3736    1.2207    0.3216 C   0  0  0  0  0  0  0  0  0  0  0  0
   -1.8899    0.1818    0.9713 C   0  0  0  0  0  0  0  0  0  0  0  0
   -1.3018   -1.0851    0.4518 C   0  0  0  0  0  0  0  0  0  0  0  0
   -0.8167   -0.6946   -0.8692 C   0  0  0  0  0  0  0  0  0  0  0  0
    0.1355   -1.1034    0.1795 C   0  0  0  0  0  0  0  0  0  0  0  0
    2.7434   -0.5903   -0.3337 H   0  0  0  0  0  0  0  0  0  0  0  0
    2.6108    1.2117   -0.5288 H   0  0  0  0  0  0  0  0  0  0  0  0
    1.9176    0.1341   -1.8237 H   0  0  0  0  0  0  0  0  0  0  0  0
    0.9499    0.0913    2.0274 H   0  0  0  0  0  0  0  0  0  0  0  0
   -0.2250    1.3411   -1.5610 H   0  0  0  0  0  0  0  0  0  0  0  0
   -1.6011    2.2696    0.4715 H   0  0  0  0  0  0  0  0  0  0  0  0
   -2.6311    0.2783    1.7611 H   0  0  0  0  0  0  0  0  0  0  0  0
   -1.7969   -2.0230    0.6966 H   0  0  0  0  0  0  0  0  0  0  0  0
   -0.9776   -1.1788   -1.8072 H   0  0  0  0  0  0  0  0  0  0  0  0
    0.7276   -2.0333    0.0928 H   0  0  0  0  0  0  0  0  0  0  0  0
  1  2  1  0
  2  3  1  0
  2  4  1  0
  4  5  1  0
  5  6  2  0
  6  7  1  0
  7  8  1  0
  8  9  1  0
  9  2  1  0
  8  4  1  0
  9  7  1  0
  1 10  1  0
  1 11  1  0
  1 12  1  0
  3 13  1  0
  4 14  1  0
  5 15  1  0
  6 16  1  0
  7 17  1  0
  8 18  1  0
  9 19  1  0
M  END
