
     RDKit          3D

 15 15  0  0  0  0  0  0  0  0999 V2000
   -0.3577    1.1378   -0.9317 C   0  0  0  0  0  0  0  0  0  0  0  0
   -0.3453    0.0823    0.1264 C   0  0  0  0  0  0  0  0  0  0  0  0
   -1.6587   -0.5836    0.3962 C   0  0  0  0  0  0  0  0  0  0  0  0
    0.3314    0.5981    1.3320 O   0  0  0  0  0  0  0  0  0  0  0  0
    0.8589   -0.5157    0.6605 C   0  0  0  0  0  0  0  0  0  0  0  0
    2.1468   -0.3987   -0.0254 C   0  0  0  0  0  0  0  0  0  0  0  0
    2.9814   -1.2714    0.0913 O   0  0  0  0  0  0  0  0  0  0  0  0
   -0.7124    2.1056   -0.4718 H   0  0  0  0  0  0  0  0  0  0  0  0
   -1.0810    0.9079   -1.7376 H   0  0  0  0  0  0  0  0  0  0  0  0
    0.6268    1.3398   -1.3874 H   0  0  0  0  0  0  0  0  0  0  0  0
   -1.5567   -1.6429    0.0279 H   0  0  0  0  0  0  0  0  0  0  0  0
   -2.4870   -0.1439   -0.1761 H   0  0  0  0  0  0  0  0  0  0  0  0
   -1.8452   -0.6496    1.4749 H   0  0  0  0  0  0  0  0  0  0  0  0
    0.7288   -1.4412    1.2702 H   0  0  0  0  0  0  0  0  0  0  0  0
    2.3701    0.4756   -0.6495 H   0  0  0  0  0  0  0  0  0  0  0  0
  1  2  1  0
  2  3  1  0
  2  4  1  0
  4  5  1  0
  5  6  1  0
  6  7  2  0
  5  2  1  0
  1  8  1  0
  1  9  1  0
  1 10  1  0
  3 11  1  0
  3 12  1  0
  3 13  1  0
  5 14  1  0
  6 15  1  0
M  END
