
     RDKit          3D

 15 16  0  0  0  0  0  0  0  0999 V2000
    1.7453   -0.0667   -0.2833 C   0  0  0  0  0  0  0  0  0  0  0  0
    0.3503    0.2570    0.0986 C   0  0  0  0  0  0  0  0  0  0  0  0
    0.2318    1.4236    0.8299 O   0  0  0  0  0  0  0  0  0  0  0  0
   -0.6553    0.0534   -0.9921 C   0  0  0  0  0  0  0  0  0  0  0  0
   -1.6957    0.0039    0.0642 C   0  0  0  0  0  0  0  0  0  0  0  0
   -0.5472   -0.8505    0.5122 C   0  0  0  0  0  0  0  0  0  0  0  0
   -0.4846   -1.3132   -0.7917 O   0  0  0  0  0  0  0  0  0  0  0  0
    1.9381   -1.1079   -0.5592 H   0  0  0  0  0  0  0  0  0  0  0  0
    1.9987    0.5451   -1.1976 H   0  0  0  0  0  0  0  0  0  0  0  0
    2.4336    0.3081    0.5181 H   0  0  0  0  0  0  0  0  0  0  0  0
    0.3711    1.2065    1.7947 H   0  0  0  0  0  0  0  0  0  0  0  0
   -0.6851    0.5245   -1.8830 H   0  0  0  0  0  0  0  0  0  0  0  0
   -1.8526    0.9070    0.6800 H   0  0  0  0  0  0  0  0  0  0  0  0
   -2.6425   -0.4836   -0.1449 H   0  0  0  0  0  0  0  0  0  0  0  0
   -0.5059   -1.4073    1.3541 H   0  0  0  0  0  0  0  0  0  0  0  0
  1  2  1  0
  2  3  1  0
  2  4  1  0
  4  5  1  0
  5  6  1  0
  6  7  1  0
  6  2  1  0
  7  4  1  0
  1  8  1  0
  1  9  1  0
  1 10  1  0
  3 11  1  0
  4 12  1  0
  5 13  1  0
  5 14  1  0
  6 15  1  0
M  END
