
     RDKit          3D

 20 20  0  0  0  0  0  0  0  0999 V2000
   -1.0875    1.1592   -0.6618 C   0  0  0  0  0  0  0  0  0  0  0  0
   -0.7010   -0.1682   -0.0982 C   0  0  0  0  0  0  0  0  0  0  0  0
   -1.3868   -1.3439   -0.7902 C   0  0  0  0  0  0  0  0  0  0  0  0
   -0.4380   -0.2161    1.3564 C   0  0  0  0  0  0  0  0  0  0  0  0
    0.6574   -0.4696    0.3929 C   0  0  0  0  0  0  0  0  0  0  0  0
    1.1101   -1.7982    0.3666 O   0  0  0  0  0  0  0  0  0  0  0  0
    1.7668    0.5252    0.1846 C   0  0  0  0  0  0  0  0  0  0  0  0
    1.3324    1.8430    0.2089 O   0  0  0  0  0  0  0  0  0  0  0  0
   -0.5597    1.4176   -1.6080 H   0  0  0  0  0  0  0  0  0  0  0  0
   -0.9979    1.9685    0.1042 H   0  0  0  0  0  0  0  0  0  0  0  0
   -2.1969    1.1078   -0.8738 H   0  0  0  0  0  0  0  0  0  0  0  0
   -2.3929   -1.1009   -1.1399 H   0  0  0  0  0  0  0  0  0  0  0  0
   -1.3462   -2.2156   -0.1200 H   0  0  0  0  0  0  0  0  0  0  0  0
   -0.7445   -1.5647   -1.6884 H   0  0  0  0  0  0  0  0  0  0  0  0
   -0.8411   -1.0406    1.9908 H   0  0  0  0  0  0  0  0  0  0  0  0
   -0.3882    0.7449    1.9059 H   0  0  0  0  0  0  0  0  0  0  0  0
    1.9166   -1.8929    0.9625 H   0  0  0  0  0  0  0  0  0  0  0  0
    2.5617    0.4124    0.9528 H   0  0  0  0  0  0  0  0  0  0  0  0
    2.2667    0.3615   -0.7912 H   0  0  0  0  0  0  0  0  0  0  0  0
    1.4690    2.2705   -0.6540 H   0  0  0  0  0  0  0  0  0  0  0  0
  1  2  1  0
  2  3  1  0
  2  4  1  0
  4  5  1  0
  5  6  1  0
  5  7  1  0
  7  8  1  0
  5  2  1  0
  1  9  1  0
  1 10  1  0
  1 11  1  0
  3 12  1  0
  3 13  1  0
  3 14  1  0
  4 15  1  0
  4 16  1  0
  6 17  1  0
  7 18  1  0
  7 19  1  0
  8 20  1  0
M  END
