
     RDKit          3D

 23 24  0  0  0  0  0  0  0  0999 V2000
   -1.1436   -1.0800    1.3048 C   0  0  0  0  0  0  0  0  0  0  0  0
   -1.1929   -0.0691    0.1895 C   0  0  0  0  0  0  0  0  0  0  0  0
   -2.3889   -0.1579   -0.6980 C   0  0  0  0  0  0  0  0  0  0  0  0
   -0.5009    1.2109    0.4701 C   0  0  0  0  0  0  0  0  0  0  0  0
   -1.1175    2.3900    0.0322 O   0  0  0  0  0  0  0  0  0  0  0  0
    0.0814    0.3103   -0.5161 C   0  0  0  0  0  0  0  0  0  0  0  0
    1.2415   -0.5963   -0.2389 C   0  0  0  0  0  0  0  0  0  0  0  0
    2.5185   -0.1869   -0.9671 C   0  0  0  0  0  0  0  0  0  0  0  0
    2.4265   -0.1797    0.5149 C   0  0  0  0  0  0  0  0  0  0  0  0
   -1.5004   -2.0384    0.9273 H   0  0  0  0  0  0  0  0  0  0  0  0
   -0.0984   -1.1170    1.7032 H   0  0  0  0  0  0  0  0  0  0  0  0
   -1.8175   -0.6758    2.1168 H   0  0  0  0  0  0  0  0  0  0  0  0
   -2.2948   -1.0981   -1.3161 H   0  0  0  0  0  0  0  0  0  0  0  0
   -2.3179    0.6907   -1.4334 H   0  0  0  0  0  0  0  0  0  0  0  0
   -3.3448   -0.2097   -0.1829 H   0  0  0  0  0  0  0  0  0  0  0  0
   -0.0073    1.3527    1.4672 H   0  0  0  0  0  0  0  0  0  0  0  0
   -0.4515    2.8331   -0.5699 H   0  0  0  0  0  0  0  0  0  0  0  0
    0.0216    0.6315   -1.5890 H   0  0  0  0  0  0  0  0  0  0  0  0
    0.9860   -1.6800   -0.2140 H   0  0  0  0  0  0  0  0  0  0  0  0
    2.5403    0.7869   -1.4936 H   0  0  0  0  0  0  0  0  0  0  0  0
    2.9816   -1.0010   -1.5328 H   0  0  0  0  0  0  0  0  0  0  0  0
    3.0187   -0.9581    1.0395 H   0  0  0  0  0  0  0  0  0  0  0  0
    2.3603    0.8418    0.9866 H   0  0  0  0  0  0  0  0  0  0  0  0
  1  2  1  0
  2  3  1  0
  2  4  1  0
  4  5  1  0
  4  6  1  0
  6  7  1  0
  7  8  1  0
  8  9  1  0
  6  2  1  0
  9  7  1  0
  1 10  1  0
  1 11  1  0
  1 12  1  0
  3 13  1  0
  3 14  1  0
  3 15  1  0
  4 16  1  0
  5 17  1  0
  6 18  1  0
  7 19  1  0
  8 20  1  0
  8 21  1  0
  9 22  1  0
  9 23  1  0
M  END
