
     RDKit          3D

 23 24  0  0  0  0  0  0  0  0999 V2000
    1.4018   -0.5947    1.1746 C   0  0  0  0  0  0  0  0  0  0  0  0
    0.5869   -0.0464    0.0307 C   0  0  0  0  0  0  0  0  0  0  0  0
    1.4536    1.0068   -0.6584 C   0  0  0  0  0  0  0  0  0  0  0  0
    0.3470   -1.1361   -0.9773 C   0  0  0  0  0  0  0  0  0  0  0  0
   -1.0722   -0.8018   -1.4418 C   0  0  0  0  0  0  0  0  0  0  0  0
   -1.7121   -0.5393   -0.0692 C   0  0  0  0  0  0  0  0  0  0  0  0
   -0.7262    0.4907    0.4672 C   0  0  0  0  0  0  0  0  0  0  0  0
   -1.0538    1.3410    1.4864 C   0  0  0  0  0  0  0  0  0  0  0  0
   -1.1016    1.8060    0.0768 O   0  0  0  0  0  0  0  0  0  0  0  0
    0.8896   -1.3601    1.7629 H   0  0  0  0  0  0  0  0  0  0  0  0
    2.3379   -1.0320    0.7208 H   0  0  0  0  0  0  0  0  0  0  0  0
    1.7441    0.1920    1.8610 H   0  0  0  0  0  0  0  0  0  0  0  0
    2.5162    0.7204   -0.6553 H   0  0  0  0  0  0  0  0  0  0  0  0
    1.3047    1.9399   -0.0831 H   0  0  0  0  0  0  0  0  0  0  0  0
    1.0324    1.1181   -1.6838 H   0  0  0  0  0  0  0  0  0  0  0  0
    0.2791   -2.1447   -0.5225 H   0  0  0  0  0  0  0  0  0  0  0  0
    1.0590   -1.1534   -1.8023 H   0  0  0  0  0  0  0  0  0  0  0  0
   -1.5483   -1.6208   -1.9723 H   0  0  0  0  0  0  0  0  0  0  0  0
   -0.9830    0.1419   -2.0147 H   0  0  0  0  0  0  0  0  0  0  0  0
   -1.6227   -1.5069    0.4751 H   0  0  0  0  0  0  0  0  0  0  0  0
   -2.7261   -0.1581   -0.1519 H   0  0  0  0  0  0  0  0  0  0  0  0
   -0.3446    2.0003    2.0139 H   0  0  0  0  0  0  0  0  0  0  0  0
   -2.0617    1.3369    1.9634 H   0  0  0  0  0  0  0  0  0  0  0  0
  1  2  1  0
  2  3  1  0
  2  4  1  0
  4  5  1  0
  5  6  1  0
  6  7  1  0
  7  8  1  0
  8  9  1  0
  7  2  1  0
  9  7  1  0
  1 10  1  0
  1 11  1  0
  1 12  1  0
  3 13  1  0
  3 14  1  0
  3 15  1  0
  4 16  1  0
  4 17  1  0
  5 18  1  0
  5 19  1  0
  6 20  1  0
  6 21  1  0
  8 22  1  0
  8 23  1  0
M  END
