
     RDKit          3D

 23 24  0  0  0  0  0  0  0  0999 V2000
   -1.7232    1.4584    0.0634 C   0  0  0  0  0  0  0  0  0  0  0  0
   -1.0816    0.0723   -0.0882 C   0  0  0  0  0  0  0  0  0  0  0  0
    0.3263    0.1619   -0.6087 C   0  0  0  0  0  0  0  0  0  0  0  0
    0.9927   -1.1229   -0.7755 C   0  0  0  0  0  0  0  0  0  0  0  0
    2.2577   -0.9972   -0.4242 C   0  0  0  0  0  0  0  0  0  0  0  0
    2.5516    0.4009    0.0151 C   0  0  0  0  0  0  0  0  0  0  0  0
    1.1617    0.8331    0.4571 C   0  0  0  0  0  0  0  0  0  0  0  0
   -1.9755   -1.0378   -0.3975 C   0  0  0  0  0  0  0  0  0  0  0  0
   -1.3906   -0.8721    1.0254 C   0  0  0  0  0  0  0  0  0  0  0  0
   -1.4298    2.0178   -0.8657 H   0  0  0  0  0  0  0  0  0  0  0  0
   -2.8094    1.4082    0.0842 H   0  0  0  0  0  0  0  0  0  0  0  0
   -1.2465    1.9621    0.9020 H   0  0  0  0  0  0  0  0  0  0  0  0
    0.2944    0.7781   -1.5299 H   0  0  0  0  0  0  0  0  0  0  0  0
    0.5785   -2.0814   -1.1294 H   0  0  0  0  0  0  0  0  0  0  0  0
    3.0067   -1.7717   -0.4379 H   0  0  0  0  0  0  0  0  0  0  0  0
    3.2383    0.4577    0.8581 H   0  0  0  0  0  0  0  0  0  0  0  0
    2.8573    1.0508   -0.8316 H   0  0  0  0  0  0  0  0  0  0  0  0
    0.9393    0.3016    1.4145 H   0  0  0  0  0  0  0  0  0  0  0  0
    1.0414    1.9122    0.5061 H   0  0  0  0  0  0  0  0  0  0  0  0
   -1.6965   -1.9479   -0.9278 H   0  0  0  0  0  0  0  0  0  0  0  0
   -3.0740   -0.8002   -0.4923 H   0  0  0  0  0  0  0  0  0  0  0  0
   -2.1325   -0.5551    1.8130 H   0  0  0  0  0  0  0  0  0  0  0  0
   -0.6862   -1.6288    1.3697 H   0  0  0  0  0  0  0  0  0  0  0  0
  1  2  1  0
  2  3  1  0
  3  4  1  0
  4  5  2  0
  5  6  1  0
  6  7  1  0
  2  8  1  0
  8  9  1  0
  9  2  1  0
  7  3  1  0
  1 10  1  0
  1 11  1  0
  1 12  1  0
  3 13  1  0
  4 14  1  0
  5 15  1  0
  6 16  1  0
  6 17  1  0
  7 18  1  0
  7 19  1  0
  8 20  1  0
  8 21  1  0
  9 22  1  0
  9 23  1  0
M  END
