
     RDKit          3D

 23 24  0  0  0  0  0  0  0  0999 V2000
   -1.4415    0.6201    1.1110 C   0  0  0  0  0  0  0  0  0  0  0  0
   -1.1383   -0.3548    0.0278 C   0  0  0  0  0  0  0  0  0  0  0  0
   -2.2535   -1.0557   -0.4014 O   0  0  0  0  0  0  0  0  0  0  0  0
    0.0400   -1.2637    0.2365 C   0  0  0  0  0  0  0  0  0  0  0  0
    1.1504   -0.6230    1.0035 C   0  0  0  0  0  0  0  0  0  0  0  0
    1.6090    0.6470    0.3715 C   0  0  0  0  0  0  0  0  0  0  0  0
    0.6560    1.2554   -0.5912 C   0  0  0  0  0  0  0  0  0  0  0  0
   -0.3515    0.2751   -1.1065 C   0  0  0  0  0  0  0  0  0  0  0  0
    0.3592   -1.0688   -1.2531 C   0  0  0  0  0  0  0  0  0  0  0  0
   -1.8051    1.5683    0.6222 H   0  0  0  0  0  0  0  0  0  0  0  0
   -2.3429    0.2387    1.6628 H   0  0  0  0  0  0  0  0  0  0  0  0
   -0.6032    0.8635    1.7650 H   0  0  0  0  0  0  0  0  0  0  0  0
   -2.6231   -0.5674   -1.1871 H   0  0  0  0  0  0  0  0  0  0  0  0
   -0.2133   -2.2894    0.4846 H   0  0  0  0  0  0  0  0  0  0  0  0
    0.8789   -0.5030    2.0830 H   0  0  0  0  0  0  0  0  0  0  0  0
    2.0095   -1.3378    1.0038 H   0  0  0  0  0  0  0  0  0  0  0  0
    1.7982    1.3795    1.2111 H   0  0  0  0  0  0  0  0  0  0  0  0
    2.6210    0.5367   -0.1128 H   0  0  0  0  0  0  0  0  0  0  0  0
    0.1744    2.1610   -0.1439 H   0  0  0  0  0  0  0  0  0  0  0  0
    1.2067    1.6516   -1.4908 H   0  0  0  0  0  0  0  0  0  0  0  0
   -0.9530    0.5893   -1.9516 H   0  0  0  0  0  0  0  0  0  0  0  0
   -0.1902   -1.8052   -1.8616 H   0  0  0  0  0  0  0  0  0  0  0  0
    1.4123   -0.9175   -1.4826 H   0  0  0  0  0  0  0  0  0  0  0  0
  1  2  1  0
  2  3  1  0
  2  4  1  0
  4  5  1  0
  5  6  1  0
  6  7  1  0
  7  8  1  0
  8  9  1  0
  8  2  1  0
  9  4  1  0
  1 10  1  0
  1 11  1  0
  1 12  1  0
  3 13  1  0
  4 14  1  0
  5 15  1  0
  5 16  1  0
  6 17  1  0
  6 18  1  0
  7 19  1  0
  7 20  1  0
  8 21  1  0
  9 22  1  0
  9 23  1  0
M  END
