
     RDKit          3D

 16 16  0  0  0  0  0  0  0  0999 V2000
   -0.6771   -1.4123   -0.3873 C   0  0  0  0  0  0  0  0  0  0  0  0
   -0.3148   -0.1366    0.3408 C   0  0  0  0  0  0  0  0  0  0  0  0
   -1.3973    0.9048    0.3451 C   0  0  0  0  0  0  0  0  0  0  0  0
   -0.8373    2.1254    0.7052 O   0  0  0  0  0  0  0  0  0  0  0  0
    0.3853   -0.3932    1.5254 O   0  0  0  0  0  0  0  0  0  0  0  0
    1.0639    0.3132    0.4622 C   0  0  0  0  0  0  0  0  0  0  0  0
    2.2010   -0.3750   -0.1610 C   0  0  0  0  0  0  0  0  0  0  0  0
    2.1890   -1.5220   -0.5525 O   0  0  0  0  0  0  0  0  0  0  0  0
   -1.6820   -1.7235    0.0162 H   0  0  0  0  0  0  0  0  0  0  0  0
    0.0053   -2.2522   -0.1499 H   0  0  0  0  0  0  0  0  0  0  0  0
   -0.7510   -1.2591   -1.4918 H   0  0  0  0  0  0  0  0  0  0  0  0
   -2.2419    0.6366    1.0285 H   0  0  0  0  0  0  0  0  0  0  0  0
   -1.8437    0.9600   -0.6655 H   0  0  0  0  0  0  0  0  0  0  0  0
   -0.4468    2.6013   -0.0704 H   0  0  0  0  0  0  0  0  0  0  0  0
    1.2162    1.3661    0.7737 H   0  0  0  0  0  0  0  0  0  0  0  0
    3.1312    0.1664   -0.2900 H   0  0  0  0  0  0  0  0  0  0  0  0
  1  2  1  0
  2  3  1  0
  3  4  1  0
  2  5  1  0
  5  6  1  0
  6  7  1  0
  7  8  2  0
  6  2  1  0
  1  9  1  0
  1 10  1  0
  1 11  1  0
  3 12  1  0
  3 13  1  0
  4 14  1  0
  6 15  1  0
  7 16  1  0
M  END
