
     RDKit          3D

 21 22  0  0  0  0  0  0  0  0999 V2000
   -0.9741   -0.6154   -1.4247 C   0  0  0  0  0  0  0  0  0  0  0  0
   -0.3997   -0.0830   -0.1492 C   0  0  0  0  0  0  0  0  0  0  0  0
   -1.5137    0.0114    0.9017 C   0  0  0  0  0  0  0  0  0  0  0  0
   -2.0298   -1.2581    1.1006 O   0  0  0  0  0  0  0  0  0  0  0  0
    0.3073    1.2396   -0.2345 C   0  0  0  0  0  0  0  0  0  0  0  0
    0.9043    1.3805   -1.5024 O   0  0  0  0  0  0  0  0  0  0  0  0
    1.3542    0.6427    0.7074 C   0  0  0  0  0  0  0  0  0  0  0  0
    2.1772   -0.4093    0.0931 C   0  0  0  0  0  0  0  0  0  0  0  0
    0.7931   -0.7661    0.4088 C   0  0  0  0  0  0  0  0  0  0  0  0
   -1.3034   -1.6615   -1.2333 H   0  0  0  0  0  0  0  0  0  0  0  0
   -0.2102   -0.5818   -2.2140 H   0  0  0  0  0  0  0  0  0  0  0  0
   -1.8841   -0.0409   -1.6552 H   0  0  0  0  0  0  0  0  0  0  0  0
   -1.0845    0.4526    1.8234 H   0  0  0  0  0  0  0  0  0  0  0  0
   -2.3119    0.6909    0.5024 H   0  0  0  0  0  0  0  0  0  0  0  0
   -1.5697   -1.7288    1.8551 H   0  0  0  0  0  0  0  0  0  0  0  0
   -0.2190    2.1103    0.1419 H   0  0  0  0  0  0  0  0  0  0  0  0
    0.5402    2.1973   -1.8841 H   0  0  0  0  0  0  0  0  0  0  0  0
    1.3448    0.8943    1.7594 H   0  0  0  0  0  0  0  0  0  0  0  0
    2.9683   -0.8445    0.7084 H   0  0  0  0  0  0  0  0  0  0  0  0
    2.4939   -0.1977   -0.9701 H   0  0  0  0  0  0  0  0  0  0  0  0
    0.6171   -1.4325    1.2651 H   0  0  0  0  0  0  0  0  0  0  0  0
  1  2  1  0
  2  3  1  0
  3  4  1  0
  2  5  1  0
  5  6  1  0
  5  7  1  0
  7  8  1  0
  8  9  1  0
  9  2  1  0
  9  7  1  0
  1 10  1  0
  1 11  1  0
  1 12  1  0
  3 13  1  0
  3 14  1  0
  4 15  1  0
  5 16  1  0
  6 17  1  0
  7 18  1  0
  8 19  1  0
  8 20  1  0
  9 21  1  0
M  END
