
     RDKit          3D

 19 19  0  0  0  0  0  0  0  0999 V2000
   -1.4169   -0.7329    0.9080 C   0  0  0  0  0  0  0  0  0  0  0  0
   -0.6337    0.0758   -0.0976 C   0  0  0  0  0  0  0  0  0  0  0  0
   -1.6332    0.8254   -0.9405 C   0  0  0  0  0  0  0  0  0  0  0  0
   -2.3156    1.7057   -0.4460 O   0  0  0  0  0  0  0  0  0  0  0  0
    0.1871    1.1148    0.5866 C   0  0  0  0  0  0  0  0  0  0  0  0
    1.4926    0.8642    0.6463 C   0  0  0  0  0  0  0  0  0  0  0  0
    2.1492   -0.3272    0.1005 C   0  0  0  0  0  0  0  0  0  0  0  0
    1.3651   -1.2124   -0.5402 O   0  0  0  0  0  0  0  0  0  0  0  0
    0.1614   -0.7851   -1.0168 C   0  0  0  0  0  0  0  0  0  0  0  0
   -1.6309   -1.7375    0.4501 H   0  0  0  0  0  0  0  0  0  0  0  0
   -2.4191   -0.2762    1.0928 H   0  0  0  0  0  0  0  0  0  0  0  0
   -0.8422   -0.8767    1.8449 H   0  0  0  0  0  0  0  0  0  0  0  0
   -1.7794    0.6158   -1.9906 H   0  0  0  0  0  0  0  0  0  0  0  0
   -0.2462    2.0115    1.0063 H   0  0  0  0  0  0  0  0  0  0  0  0
    2.1230    1.6045    1.1406 H   0  0  0  0  0  0  0  0  0  0  0  0
    2.6275   -0.8628    0.9743 H   0  0  0  0  0  0  0  0  0  0  0  0
    3.0341    0.0330   -0.5002 H   0  0  0  0  0  0  0  0  0  0  0  0
    0.2459   -0.3283   -2.0378 H   0  0  0  0  0  0  0  0  0  0  0  0
   -0.4688   -1.7114   -1.1808 H   0  0  0  0  0  0  0  0  0  0  0  0
  1  2  1  0
  2  3  1  0
  3  4  2  0
  2  5  1  0
  5  6  2  0
  6  7  1  0
  7  8  1  0
  8  9  1  0
  9  2  1  0
  1 10  1  0
  1 11  1  0
  1 12  1  0
  3 13  1  0
  5 14  1  0
  6 15  1  0
  7 16  1  0
  7 17  1  0
  9 18  1  0
  9 19  1  0
M  END
