
     RDKit          3D

 18 19  0  0  0  0  0  0  0  0999 V2000
    1.6868   -1.1565    0.2275 C   0  0  0  0  0  0  0  0  0  0  0  0
    0.7943    0.0533   -0.0439 C   0  0  0  0  0  0  0  0  0  0  0  0
    1.6506    1.2113   -0.4811 C   0  0  0  0  0  0  0  0  0  0  0  0
    1.5745    1.5684   -1.6549 O   0  0  0  0  0  0  0  0  0  0  0  0
   -0.4459   -0.0912   -0.7340 C   0  0  0  0  0  0  0  0  0  0  0  0
   -1.7684    0.6030   -0.4701 C   0  0  0  0  0  0  0  0  0  0  0  0
   -1.7255   -0.3863    0.6985 C   0  0  0  0  0  0  0  0  0  0  0  0
   -0.3339    0.2250    0.8082 C   0  0  0  0  0  0  0  0  0  0  0  0
    2.5094   -1.1932   -0.5199 H   0  0  0  0  0  0  0  0  0  0  0  0
    1.1354   -2.1125    0.1139 H   0  0  0  0  0  0  0  0  0  0  0  0
    2.1618   -1.0680    1.2134 H   0  0  0  0  0  0  0  0  0  0  0  0
    2.2751    1.7040    0.2471 H   0  0  0  0  0  0  0  0  0  0  0  0
   -0.6952   -1.1636   -0.9639 H   0  0  0  0  0  0  0  0  0  0  0  0
   -2.5152    0.3931   -1.2381 H   0  0  0  0  0  0  0  0  0  0  0  0
   -1.6589    1.6294   -0.1064 H   0  0  0  0  0  0  0  0  0  0  0  0
   -2.3848   -0.1143    1.5247 H   0  0  0  0  0  0  0  0  0  0  0  0
   -1.7637   -1.4076    0.3071 H   0  0  0  0  0  0  0  0  0  0  0  0
   -0.4963    1.3057    1.0718 H   0  0  0  0  0  0  0  0  0  0  0  0
  1  2  1  0
  2  3  1  0
  3  4  2  0
  2  5  1  0
  5  6  1  0
  6  7  1  0
  7  8  1  0
  8  2  1  0
  8  5  1  0
  1  9  1  0
  1 10  1  0
  1 11  1  0
  3 12  1  0
  5 13  1  0
  6 14  1  0
  6 15  1  0
  7 16  1  0
  7 17  1  0
  8 18  1  0
M  END
