
     RDKit          3D

 19 20  0  0  0  0  0  0  0  0999 V2000
   -0.7479   -1.0772   -0.6577 C   0  0  0  0  0  0  0  0  0  0  0  0
   -0.5972    0.3175   -0.1619 C   0  0  0  0  0  0  0  0  0  0  0  0
    0.6541    0.8121    0.4315 C   0  0  0  0  0  0  0  0  0  0  0  0
    0.6465    2.0043    0.8163 O   0  0  0  0  0  0  0  0  0  0  0  0
    1.9108    0.1031    0.6360 C   0  0  0  0  0  0  0  0  0  0  0  0
    2.2793   -1.2119    0.2852 C   0  0  0  0  0  0  0  0  0  0  0  0
    1.6867   -1.0346    1.5706 O   0  0  0  0  0  0  0  0  0  0  0  0
   -1.8757    0.8477    0.5297 C   0  0  0  0  0  0  0  0  0  0  0  0
   -1.5415    1.3015   -0.8186 C   0  0  0  0  0  0  0  0  0  0  0  0
   -0.5496   -1.7665    0.1934 H   0  0  0  0  0  0  0  0  0  0  0  0
   -0.1670   -1.3051   -1.5487 H   0  0  0  0  0  0  0  0  0  0  0  0
   -1.8170   -1.2746   -0.9509 H   0  0  0  0  0  0  0  0  0  0  0  0
    2.7150    0.7315    1.1350 H   0  0  0  0  0  0  0  0  0  0  0  0
    3.3638   -1.5060    0.4281 H   0  0  0  0  0  0  0  0  0  0  0  0
    1.7554   -1.9373   -0.3205 H   0  0  0  0  0  0  0  0  0  0  0  0
   -1.7233    1.5937    1.3453 H   0  0  0  0  0  0  0  0  0  0  0  0
   -2.6908    0.1426    0.7263 H   0  0  0  0  0  0  0  0  0  0  0  0
   -2.1887    0.9554   -1.6491 H   0  0  0  0  0  0  0  0  0  0  0  0
   -1.1128    2.3039   -1.0070 H   0  0  0  0  0  0  0  0  0  0  0  0
  1  2  1  0
  2  3  1  0
  3  4  2  0
  3  5  1  0
  5  6  1  0
  6  7  1  0
  2  8  1  0
  8  9  1  0
  9  2  1  0
  7  5  1  0
  1 10  1  0
  1 11  1  0
  1 12  1  0
  5 13  1  0
  6 14  1  0
  6 15  1  0
  8 16  1  0
  8 17  1  0
  9 18  1  0
  9 19  1  0
M  END
