
     RDKit          3D

 21 21  0  0  0  0  0  0  0  0999 V2000
    0.2767    1.6814    0.6114 C   0  0  0  0  0  0  0  0  0  0  0  0
    0.3778    0.4142   -0.1822 C   0  0  0  0  0  0  0  0  0  0  0  0
    1.8487    0.2282   -0.5470 C   0  0  0  0  0  0  0  0  0  0  0  0
    1.9878   -0.9522   -1.3032 O   0  0  0  0  0  0  0  0  0  0  0  0
   -0.3923    0.5114   -1.3137 O   0  0  0  0  0  0  0  0  0  0  0  0
   -1.6935    0.1587   -0.9689 C   0  0  0  0  0  0  0  0  0  0  0  0
   -1.5686   -0.9780    0.0370 C   0  0  0  0  0  0  0  0  0  0  0  0
   -0.1471   -0.7935    0.5125 C   0  0  0  0  0  0  0  0  0  0  0  0
   -0.1151   -0.7309    1.8803 O   0  0  0  0  0  0  0  0  0  0  0  0
    0.8400    1.6204    1.5691 H   0  0  0  0  0  0  0  0  0  0  0  0
   -0.7832    1.9949    0.7847 H   0  0  0  0  0  0  0  0  0  0  0  0
    0.7682    2.4828    0.0226 H   0  0  0  0  0  0  0  0  0  0  0  0
    2.1359    1.0906   -1.1867 H   0  0  0  0  0  0  0  0  0  0  0  0
    2.4421    0.1902    0.3786 H   0  0  0  0  0  0  0  0  0  0  0  0
    2.4635   -1.5981   -0.7219 H   0  0  0  0  0  0  0  0  0  0  0  0
   -2.1923   -0.1845   -1.9078 H   0  0  0  0  0  0  0  0  0  0  0  0
   -2.2312    0.9922   -0.4813 H   0  0  0  0  0  0  0  0  0  0  0  0
   -1.7300   -1.9653   -0.4237 H   0  0  0  0  0  0  0  0  0  0  0  0
   -2.2948   -0.8834    0.8645 H   0  0  0  0  0  0  0  0  0  0  0  0
    0.4332   -1.6750    0.1443 H   0  0  0  0  0  0  0  0  0  0  0  0
   -0.4257   -1.6043    2.2311 H   0  0  0  0  0  0  0  0  0  0  0  0
  1  2  1  0
  2  3  1  0
  3  4  1  0
  2  5  1  0
  5  6  1  0
  6  7  1  0
  7  8  1  0
  8  9  1  0
  8  2  1  0
  1 10  1  0
  1 11  1  0
  1 12  1  0
  3 13  1  0
  3 14  1  0
  4 15  1  0
  6 16  1  0
  6 17  1  0
  7 18  1  0
  7 19  1  0
  8 20  1  0
  9 21  1  0
M  END
