
     RDKit          3D

 21 23  0  0  0  0  0  0  0  0999 V2000
    0.8474    0.9008   -1.3843 C   0  0  0  0  0  0  0  0  0  0  0  0
    0.6396    0.0268   -0.1943 C   0  0  0  0  0  0  0  0  0  0  0  0
   -0.7372   -0.3335    0.2754 C   0  0  0  0  0  0  0  0  0  0  0  0
   -1.6758   -1.0710   -0.6334 C   0  0  0  0  0  0  0  0  0  0  0  0
   -2.7740   -0.3413   -0.1967 O   0  0  0  0  0  0  0  0  0  0  0  0
   -1.8555    0.6324    0.2581 C   0  0  0  0  0  0  0  0  0  0  0  0
   -1.1936    0.3140    1.5239 C   0  0  0  0  0  0  0  0  0  0  0  0
    1.6924   -1.0613    0.0943 C   0  0  0  0  0  0  0  0  0  0  0  0
    1.6830    0.2179    0.9081 C   0  0  0  0  0  0  0  0  0  0  0  0
    1.8892    0.7001   -1.7644 H   0  0  0  0  0  0  0  0  0  0  0  0
    0.1746    0.7153   -2.2161 H   0  0  0  0  0  0  0  0  0  0  0  0
    0.8607    1.9792   -1.0673 H   0  0  0  0  0  0  0  0  0  0  0  0
   -1.4670   -0.7780   -1.7025 H   0  0  0  0  0  0  0  0  0  0  0  0
   -1.7134   -2.1556   -0.4852 H   0  0  0  0  0  0  0  0  0  0  0  0
   -1.8168    1.5993   -0.2470 H   0  0  0  0  0  0  0  0  0  0  0  0
   -0.5568    1.0721    1.9757 H   0  0  0  0  0  0  0  0  0  0  0  0
   -1.7418   -0.3437    2.2499 H   0  0  0  0  0  0  0  0  0  0  0  0
    2.4431   -1.1783   -0.7056 H   0  0  0  0  0  0  0  0  0  0  0  0
    1.3832   -1.9466    0.6596 H   0  0  0  0  0  0  0  0  0  0  0  0
    1.3677    0.1759    1.9558 H   0  0  0  0  0  0  0  0  0  0  0  0
    2.5509    0.8754    0.6961 H   0  0  0  0  0  0  0  0  0  0  0  0
  1  2  1  0
  2  3  1  0
  3  4  1  0
  4  5  1  0
  5  6  1  0
  6  7  1  0
  2  8  1  0
  8  9  1  0
  9  2  1  0
  6  3  1  0
  7  3  1  0
  1 10  1  0
  1 11  1  0
  1 12  1  0
  4 13  1  0
  4 14  1  0
  6 15  1  0
  7 16  1  0
  7 17  1  0
  8 18  1  0
  8 19  1  0
  9 20  1  0
  9 21  1  0
M  END
