
     RDKit          3D

 19 19  0  0  0  0  0  0  0  0999 V2000
    2.1187    0.3178    0.2462 C   0  0  0  0  0  0  0  0  0  0  0  0
    0.7577   -0.0954   -0.1779 C   0  0  0  0  0  0  0  0  0  0  0  0
    0.8740   -1.1014   -1.1246 O   0  0  0  0  0  0  0  0  0  0  0  0
   -0.1634   -0.4631    0.9569 C   0  0  0  0  0  0  0  0  0  0  0  0
   -1.5098   -0.4321    0.2576 C   0  0  0  0  0  0  0  0  0  0  0  0
   -1.6440   -1.4877   -0.6275 O   0  0  0  0  0  0  0  0  0  0  0  0
   -1.4212    0.9098   -0.4692 C   0  0  0  0  0  0  0  0  0  0  0  0
    0.0320    1.0694   -0.7623 C   0  0  0  0  0  0  0  0  0  0  0  0
    0.4587    2.0279   -1.3836 O   0  0  0  0  0  0  0  0  0  0  0  0
    2.7907    0.2338   -0.6581 H   0  0  0  0  0  0  0  0  0  0  0  0
    2.1582    1.3720    0.5472 H   0  0  0  0  0  0  0  0  0  0  0  0
    2.5527   -0.3239    1.0541 H   0  0  0  0  0  0  0  0  0  0  0  0
    1.7772   -1.5087   -1.1317 H   0  0  0  0  0  0  0  0  0  0  0  0
   -0.1662    0.3881    1.6662 H   0  0  0  0  0  0  0  0  0  0  0  0
    0.0544   -1.4223    1.4211 H   0  0  0  0  0  0  0  0  0  0  0  0
   -2.3171   -0.3937    1.0187 H   0  0  0  0  0  0  0  0  0  0  0  0
   -2.6078   -1.6461   -0.7842 H   0  0  0  0  0  0  0  0  0  0  0  0
   -1.8122    1.6940    0.1774 H   0  0  0  0  0  0  0  0  0  0  0  0
   -1.9326    0.8619   -1.4544 H   0  0  0  0  0  0  0  0  0  0  0  0
  1  2  1  0
  2  3  1  0
  2  4  1  0
  4  5  1  0
  5  6  1  0
  5  7  1  0
  7  8  1  0
  8  9  2  0
  8  2  1  0
  1 10  1  0
  1 11  1  0
  1 12  1  0
  3 13  1  0
  4 14  1  0
  4 15  1  0
  5 16  1  0
  6 17  1  0
  7 18  1  0
  7 19  1  0
M  END
