
     RDKit          3D

 23 23  0  0  0  0  0  0  0  0999 V2000
   -1.6488   -0.1899    1.3193 C   0  0  0  0  0  0  0  0  0  0  0  0
   -0.7059    0.0244    0.1284 C   0  0  0  0  0  0  0  0  0  0  0  0
   -1.5151    0.6227   -1.0045 C   0  0  0  0  0  0  0  0  0  0  0  0
    0.2847    1.0587    0.5782 C   0  0  0  0  0  0  0  0  0  0  0  0
    1.4821    1.1732   -0.3266 C   0  0  0  0  0  0  0  0  0  0  0  0
    2.1357   -0.1510   -0.3126 C   0  0  0  0  0  0  0  0  0  0  0  0
    3.3390   -0.2068   -0.4429 O   0  0  0  0  0  0  0  0  0  0  0  0
    1.3663   -1.3997   -0.1452 C   0  0  0  0  0  0  0  0  0  0  0  0
   -0.0986   -1.2644   -0.3142 C   0  0  0  0  0  0  0  0  0  0  0  0
   -1.7481    0.7492    1.9057 H   0  0  0  0  0  0  0  0  0  0  0  0
   -2.6116   -0.5224    0.9133 H   0  0  0  0  0  0  0  0  0  0  0  0
   -1.1670   -0.9749    1.9348 H   0  0  0  0  0  0  0  0  0  0  0  0
   -1.0983    0.2506   -1.9823 H   0  0  0  0  0  0  0  0  0  0  0  0
   -2.5419    0.2040   -0.9430 H   0  0  0  0  0  0  0  0  0  0  0  0
   -1.5088    1.7186   -1.0070 H   0  0  0  0  0  0  0  0  0  0  0  0
   -0.2434    2.0546    0.5233 H   0  0  0  0  0  0  0  0  0  0  0  0
    0.5733    0.9517    1.6493 H   0  0  0  0  0  0  0  0  0  0  0  0
    1.0959    1.4458   -1.3398 H   0  0  0  0  0  0  0  0  0  0  0  0
    2.1227    1.9799    0.0819 H   0  0  0  0  0  0  0  0  0  0  0  0
    1.6633   -1.8480    0.8265 H   0  0  0  0  0  0  0  0  0  0  0  0
    1.7686   -2.1199   -0.9191 H   0  0  0  0  0  0  0  0  0  0  0  0
   -0.3575   -1.4683   -1.3832 H   0  0  0  0  0  0  0  0  0  0  0  0
   -0.5865   -2.0884    0.2596 H   0  0  0  0  0  0  0  0  0  0  0  0
  1  2  1  0
  2  3  1  0
  2  4  1  0
  4  5  1  0
  5  6  1  0
  6  7  2  0
  6  8  1  0
  8  9  1  0
  9  2  1  0
  1 10  1  0
  1 11  1  0
  1 12  1  0
  3 13  1  0
  3 14  1  0
  3 15  1  0
  4 16  1  0
  4 17  1  0
  5 18  1  0
  5 19  1  0
  8 20  1  0
  8 21  1  0
  9 22  1  0
  9 23  1  0
M  END
