
     RDKit          3D

 23 23  0  0  0  0  0  0  0  0999 V2000
    1.8997   -0.3773   -0.4928 C   0  0  0  0  0  0  0  0  0  0  0  0
    0.7228   -0.0153    0.3937 C   0  0  0  0  0  0  0  0  0  0  0  0
    0.9959   -0.5693    1.6532 O   0  0  0  0  0  0  0  0  0  0  0  0
    0.5160    1.4740    0.4934 C   0  0  0  0  0  0  0  0  0  0  0  0
   -0.3697    1.7274   -0.7343 C   0  0  0  0  0  0  0  0  0  0  0  0
   -1.4377    0.6538   -0.4853 C   0  0  0  0  0  0  0  0  0  0  0  0
   -0.5665   -0.5463   -0.1532 C   0  0  0  0  0  0  0  0  0  0  0  0
   -1.2712   -1.4677    0.7979 C   0  0  0  0  0  0  0  0  0  0  0  0
   -0.3448   -1.2226   -1.3460 O   0  0  0  0  0  0  0  0  0  0  0  0
    2.8176    0.0587   -0.0731 H   0  0  0  0  0  0  0  0  0  0  0  0
    1.7842   -0.0358   -1.5274 H   0  0  0  0  0  0  0  0  0  0  0  0
    2.0128   -1.4796   -0.4315 H   0  0  0  0  0  0  0  0  0  0  0  0
    1.9350   -0.3180    1.8601 H   0  0  0  0  0  0  0  0  0  0  0  0
   -0.1510    1.6466    1.3682 H   0  0  0  0  0  0  0  0  0  0  0  0
    1.4237    2.0632    0.4869 H   0  0  0  0  0  0  0  0  0  0  0  0
   -0.7931    2.7364   -0.7364 H   0  0  0  0  0  0  0  0  0  0  0  0
    0.1787    1.4853   -1.6661 H   0  0  0  0  0  0  0  0  0  0  0  0
   -2.0250    0.9756    0.3980 H   0  0  0  0  0  0  0  0  0  0  0  0
   -2.0348    0.4554   -1.3788 H   0  0  0  0  0  0  0  0  0  0  0  0
   -1.6270   -0.9865    1.7175 H   0  0  0  0  0  0  0  0  0  0  0  0
   -2.1708   -1.8671    0.2672 H   0  0  0  0  0  0  0  0  0  0  0  0
   -0.6195   -2.3423    0.9822 H   0  0  0  0  0  0  0  0  0  0  0  0
   -0.8752   -2.0485   -1.3933 H   0  0  0  0  0  0  0  0  0  0  0  0
  1  2  1  0
  2  3  1  0
  2  4  1  0
  4  5  1  0
  5  6  1  0
  6  7  1  0
  7  8  1  0
  7  9  1  0
  7  2  1  0
  1 10  1  0
  1 11  1  0
  1 12  1  0
  3 13  1  0
  4 14  1  0
  4 15  1  0
  5 16  1  0
  5 17  1  0
  6 18  1  0
  6 19  1  0
  8 20  1  0
  8 21  1  0
  8 22  1  0
  9 23  1  0
M  END
