
     RDKit          3D

 19 20  0  0  0  0  0  0  0  0999 V2000
    1.7831    0.0244   -0.9398 C   0  0  0  0  0  0  0  0  0  0  0  0
    0.6462    0.3398   -0.0331 C   0  0  0  0  0  0  0  0  0  0  0  0
    0.9025    1.4679    0.7793 O   0  0  0  0  0  0  0  0  0  0  0  0
    0.0498   -0.8154    0.7313 C   0  0  0  0  0  0  0  0  0  0  0  0
    0.4104   -0.9129    2.0509 O   0  0  0  0  0  0  0  0  0  0  0  0
   -1.3291   -0.3921    0.4038 C   0  0  0  0  0  0  0  0  0  0  0  0
   -1.7637    0.9940    0.2356 C   0  0  0  0  0  0  0  0  0  0  0  0
   -0.7032    0.5351   -0.6901 C   0  0  0  0  0  0  0  0  0  0  0  0
   -0.9328    0.1386   -1.9699 O   0  0  0  0  0  0  0  0  0  0  0  0
    2.7262    0.1527   -0.3636 H   0  0  0  0  0  0  0  0  0  0  0  0
    1.8415    0.7402   -1.7952 H   0  0  0  0  0  0  0  0  0  0  0  0
    1.6619   -1.0111   -1.3198 H   0  0  0  0  0  0  0  0  0  0  0  0
    1.1450    1.2057    1.6983 H   0  0  0  0  0  0  0  0  0  0  0  0
    0.3225   -1.7768    0.2036 H   0  0  0  0  0  0  0  0  0  0  0  0
    0.8694   -1.7780    2.2749 H   0  0  0  0  0  0  0  0  0  0  0  0
   -2.0127   -1.1849    0.0217 H   0  0  0  0  0  0  0  0  0  0  0  0
   -2.7432    1.1821   -0.1981 H   0  0  0  0  0  0  0  0  0  0  0  0
   -1.4372    1.8124    0.9372 H   0  0  0  0  0  0  0  0  0  0  0  0
   -1.4366   -0.7217   -2.0269 H   0  0  0  0  0  0  0  0  0  0  0  0
  1  2  1  0
  2  3  1  0
  2  4  1  0
  4  5  1  0
  4  6  1  0
  6  7  1  0
  7  8  1  0
  8  9  1  0
  8  2  1  0
  8  6  1  0
  1 10  1  0
  1 11  1  0
  1 12  1  0
  3 13  1  0
  4 14  1  0
  5 15  1  0
  6 16  1  0
  7 17  1  0
  7 18  1  0
  9 19  1  0
M  END
