
     RDKit          3D

 21 22  0  0  0  0  0  0  0  0999 V2000
   -1.7976    0.3931   -1.2736 C   0  0  0  0  0  0  0  0  0  0  0  0
   -0.7636    0.1471   -0.2164 C   0  0  0  0  0  0  0  0  0  0  0  0
   -1.3422   -0.6628    0.9242 C   0  0  0  0  0  0  0  0  0  0  0  0
    0.0004    1.3746    0.1826 C   0  0  0  0  0  0  0  0  0  0  0  0
    1.2481    0.7735   -0.4256 C   0  0  0  0  0  0  0  0  0  0  0  0
    2.2490    0.4555    0.4713 O   0  0  0  0  0  0  0  0  0  0  0  0
    2.2641   -0.9162    0.6270 C   0  0  0  0  0  0  0  0  0  0  0  0
    1.0596   -1.4164    0.1816 O   0  0  0  0  0  0  0  0  0  0  0  0
    0.5130   -0.5058   -0.7001 C   0  0  0  0  0  0  0  0  0  0  0  0
   -1.3836    0.6786   -2.2518 H   0  0  0  0  0  0  0  0  0  0  0  0
   -2.4332   -0.4997   -1.4209 H   0  0  0  0  0  0  0  0  0  0  0  0
   -2.4246    1.2576   -0.9399 H   0  0  0  0  0  0  0  0  0  0  0  0
   -0.5885   -0.8905    1.6960 H   0  0  0  0  0  0  0  0  0  0  0  0
   -2.2252   -0.1794    1.3837 H   0  0  0  0  0  0  0  0  0  0  0  0
   -1.6998   -1.6225    0.4717 H   0  0  0  0  0  0  0  0  0  0  0  0
   -0.3314    2.2802   -0.3731 H   0  0  0  0  0  0  0  0  0  0  0  0
    0.0614    1.5142    1.2736 H   0  0  0  0  0  0  0  0  0  0  0  0
    1.6334    1.3133   -1.3018 H   0  0  0  0  0  0  0  0  0  0  0  0
    2.3721   -1.2316    1.6966 H   0  0  0  0  0  0  0  0  0  0  0  0
    3.0851   -1.4101    0.0733 H   0  0  0  0  0  0  0  0  0  0  0  0
    0.5037   -0.8528   -1.7449 H   0  0  0  0  0  0  0  0  0  0  0  0
  1  2  1  0
  2  3  1  0
  2  4  1  0
  4  5  1  0
  5  6  1  0
  6  7  1  0
  7  8  1  0
  8  9  1  0
  9  2  1  0
  9  5  1  0
  1 10  1  0
  1 11  1  0
  1 12  1  0
  3 13  1  0
  3 14  1  0
  3 15  1  0
  4 16  1  0
  4 17  1  0
  5 18  1  0
  7 19  1  0
  7 20  1  0
  9 21  1  0
M  END
