
     RDKit          3D

 21 23  0  0  0  0  0  0  0  0999 V2000
    0.3141   -1.5920    0.4974 C   0  0  0  0  0  0  0  0  0  0  0  0
    0.0923   -0.2349   -0.0953 C   0  0  0  0  0  0  0  0  0  0  0  0
    1.3297    0.4924   -0.4280 C   0  0  0  0  0  0  0  0  0  0  0  0
    2.3715    0.8710    0.4635 C   0  0  0  0  0  0  0  0  0  0  0  0
    2.5195   -0.3700   -0.2252 O   0  0  0  0  0  0  0  0  0  0  0  0
   -0.9650    0.5022    0.6679 C   0  0  0  0  0  0  0  0  0  0  0  0
   -1.2218    1.2735   -0.6015 C   0  0  0  0  0  0  0  0  0  0  0  0
   -1.0452   -0.1302   -1.0710 C   0  0  0  0  0  0  0  0  0  0  0  0
   -1.9293   -0.5072    0.1003 C   0  0  0  0  0  0  0  0  0  0  0  0
    1.4208   -1.8025    0.5759 H   0  0  0  0  0  0  0  0  0  0  0  0
   -0.0999   -2.3869   -0.1539 H   0  0  0  0  0  0  0  0  0  0  0  0
   -0.0566   -1.6638    1.5499 H   0  0  0  0  0  0  0  0  0  0  0  0
    1.3869    0.8538   -1.4938 H   0  0  0  0  0  0  0  0  0  0  0  0
    3.1333    1.6034    0.1181 H   0  0  0  0  0  0  0  0  0  0  0  0
    2.3432    0.7515    1.5466 H   0  0  0  0  0  0  0  0  0  0  0  0
   -0.9315    0.8558    1.5989 H   0  0  0  0  0  0  0  0  0  0  0  0
   -2.2804    1.6058   -0.6344 H   0  0  0  0  0  0  0  0  0  0  0  0
   -0.4683    2.0095   -0.8819 H   0  0  0  0  0  0  0  0  0  0  0  0
   -1.0978   -0.5006   -1.9959 H   0  0  0  0  0  0  0  0  0  0  0  0
   -1.8448   -1.5283    0.4622 H   0  0  0  0  0  0  0  0  0  0  0  0
   -2.9706   -0.1023    0.0004 H   0  0  0  0  0  0  0  0  0  0  0  0
  1  2  1  0
  2  3  1  0
  3  4  1  0
  4  5  1  0
  2  6  1  0
  6  7  1  0
  7  8  1  0
  8  9  1  0
  8  2  1  0
  5  3  1  0
  9  6  1  0
  1 10  1  0
  1 11  1  0
  1 12  1  0
  3 13  1  0
  4 14  1  0
  4 15  1  0
  6 16  1  0
  7 17  1  0
  7 18  1  0
  8 19  1  0
  9 20  1  0
  9 21  1  0
M  END
