
     RDKit          3D

 21 22  0  0  0  0  0  0  0  0999 V2000
   -2.0429   -0.9116   -0.1198 C   0  0  0  0  0  0  0  0  0  0  0  0
   -1.0694    0.2102    0.1045 C   0  0  0  0  0  0  0  0  0  0  0  0
    0.3280   -0.0596   -0.3238 C   0  0  0  0  0  0  0  0  0  0  0  0
    1.2990    1.0907   -0.0876 C   0  0  0  0  0  0  0  0  0  0  0  0
    2.3525    0.0247    0.2111 C   0  0  0  0  0  0  0  0  0  0  0  0
    1.1786   -0.8717    0.6298 C   0  0  0  0  0  0  0  0  0  0  0  0
    1.3300   -2.1776    0.2047 O   0  0  0  0  0  0  0  0  0  0  0  0
   -1.6744    1.5882   -0.0950 C   0  0  0  0  0  0  0  0  0  0  0  0
   -1.2831    1.1103    1.1405 O   0  0  0  0  0  0  0  0  0  0  0  0
   -3.0982   -0.5700    0.0461 H   0  0  0  0  0  0  0  0  0  0  0  0
   -1.8015   -1.8356    0.4121 H   0  0  0  0  0  0  0  0  0  0  0  0
   -2.0028   -1.1455   -1.2241 H   0  0  0  0  0  0  0  0  0  0  0  0
    0.3736   -0.4878   -1.3234 H   0  0  0  0  0  0  0  0  0  0  0  0
    1.4483    1.6385   -1.0271 H   0  0  0  0  0  0  0  0  0  0  0  0
    1.0731    1.7052    0.7819 H   0  0  0  0  0  0  0  0  0  0  0  0
    2.8088   -0.3444   -0.7445 H   0  0  0  0  0  0  0  0  0  0  0  0
    3.0441    0.2811    1.0101 H   0  0  0  0  0  0  0  0  0  0  0  0
    0.9565   -0.7654    1.6919 H   0  0  0  0  0  0  0  0  0  0  0  0
    0.5733   -2.4231   -0.3994 H   0  0  0  0  0  0  0  0  0  0  0  0
   -1.0222    2.2626   -0.6765 H   0  0  0  0  0  0  0  0  0  0  0  0
   -2.7711    1.6807   -0.2116 H   0  0  0  0  0  0  0  0  0  0  0  0
  1  2  1  0
  2  3  1  0
  3  4  1  0
  4  5  1  0
  5  6  1  0
  6  7  1  0
  2  8  1  0
  8  9  1  0
  9  2  1  0
  6  3  1  0
  1 10  1  0
  1 11  1  0
  1 12  1  0
  3 13  1  0
  4 14  1  0
  4 15  1  0
  5 16  1  0
  5 17  1  0
  6 18  1  0
  7 19  1  0
  8 20  1  0
  8 21  1  0
M  END
