
     RDKit          2D

 21 23  0  0  0  0  0  0  0  0999 V2000
    1.8302    1.1491    0.0000 C   0  0  0  0  0  0  0  0  0  0  0  0
    0.8660    0.0000    0.0000 C   0  0  0  0  0  0  0  0  0  0  0  0
    1.8302   -1.1491    0.0000 O   0  0  0  0  0  0  0  0  0  0  0  0
   -0.4330    0.7500    0.0000 C   0  0  0  0  0  0  0  0  0  0  0  0
   -1.8596    1.2135    0.0000 C   0  0  0  0  0  0  0  0  0  0  0  0
   -2.7413    0.0000    0.0000 C   0  0  0  0  0  0  0  0  0  0  0  0
   -1.8596   -1.2135    0.0000 C   0  0  0  0  0  0  0  0  0  0  0  0
   -0.9779   -0.0000    0.0000 C   0  0  0  0  0  0  0  0  0  0  0  0
   -0.4330   -0.7500    0.0000 C   0  0  0  0  0  0  0  0  0  0  0  0
    2.7944    2.2981    0.0000 H   0  0  0  0  0  0  0  0  0  0  0  0
    0.9095    2.1364    0.0000 H   0  0  0  0  0  0  0  0  0  0  0  0
    2.9793    0.1849    0.0000 H   0  0  0  0  0  0  0  0  0  0  0  0
    1.3172   -2.5586    0.0000 H   0  0  0  0  0  0  0  0  0  0  0  0
   -0.0383    2.0410    0.0000 H   0  0  0  0  0  0  0  0  0  0  0  0
   -2.3231    2.6401    0.0000 H   0  0  0  0  0  0  0  0  0  0  0  0
   -3.8560    1.0037    0.0000 H   0  0  0  0  0  0  0  0  0  0  0  0
   -3.8560   -1.0037    0.0000 H   0  0  0  0  0  0  0  0  0  0  0  0
   -2.3231   -2.6401    0.0000 H   0  0  0  0  0  0  0  0  0  0  0  0
   -0.2740   -0.3742    0.0000 H   0  0  0  0  0  0  0  0  0  0  0  0
    0.3465    0.7041    0.0000 H   0  0  0  0  0  0  0  0  0  0  0  0
    0.1771   -2.1203    0.0000 H   0  0  0  0  0  0  0  0  0  0  0  0
  1  2  1  0
  2  3  1  0
  2  4  1  0
  4  5  1  0
  5  6  1  0
  6  7  1  0
  7  8  1  0
  7  9  1  0
  9  2  1  0
  9  4  1  0
  8  5  1  0
  1 10  1  0
  1 11  1  0
  1 12  1  0
  3 13  1  0
  4 14  1  0
  5 15  1  0
  6 16  1  0
  6 17  1  0
  7 18  1  0
  8 19  1  0
  8 20  1  0
  9 21  1  0
M  END
