
     RDKit          3D

 19 19  0  0  0  0  0  0  0  0999 V2000
   -1.3108   -1.4307    0.4511 C   0  0  0  0  0  0  0  0  0  0  0  0
   -0.5533   -0.1882    0.1110 C   0  0  0  0  0  0  0  0  0  0  0  0
   -0.8758    1.0440    0.9272 C   0  0  0  0  0  0  0  0  0  0  0  0
   -2.2080    1.3911    0.7950 O   0  0  0  0  0  0  0  0  0  0  0  0
   -0.2365   -0.0143   -1.3603 C   0  0  0  0  0  0  0  0  0  0  0  0
    0.8488   -0.2416   -0.3944 C   0  0  0  0  0  0  0  0  0  0  0  0
    1.7777    0.7395   -0.0534 O   0  0  0  0  0  0  0  0  0  0  0  0
    3.0766    0.4147    0.2662 C   0  0  0  0  0  0  0  0  0  0  0  0
    3.3731   -0.7948    0.2339 O   0  0  0  0  0  0  0  0  0  0  0  0
   -2.1266   -1.2182    1.1758 H   0  0  0  0  0  0  0  0  0  0  0  0
   -1.8120   -1.8340   -0.4656 H   0  0  0  0  0  0  0  0  0  0  0  0
   -0.6897   -2.2212    0.9131 H   0  0  0  0  0  0  0  0  0  0  0  0
   -0.2361    1.8766    0.5792 H   0  0  0  0  0  0  0  0  0  0  0  0
   -0.6824    0.8777    2.0005 H   0  0  0  0  0  0  0  0  0  0  0  0
   -2.4584    1.5435   -0.1556 H   0  0  0  0  0  0  0  0  0  0  0  0
   -0.4795   -0.8187   -2.0750 H   0  0  0  0  0  0  0  0  0  0  0  0
   -0.4991    0.9914   -1.7372 H   0  0  0  0  0  0  0  0  0  0  0  0
    1.2622   -1.2750   -0.3790 H   0  0  0  0  0  0  0  0  0  0  0  0
    3.8300    1.1582    0.5380 H   0  0  0  0  0  0  0  0  0  0  0  0
  1  2  1  0
  2  3  1  0
  3  4  1  0
  2  5  1  0
  5  6  1  0
  6  7  1  0
  7  8  1  0
  8  9  2  0
  6  2  1  0
  1 10  1  0
  1 11  1  0
  1 12  1  0
  3 13  1  0
  3 14  1  0
  4 15  1  0
  5 16  1  0
  5 17  1  0
  6 18  1  0
  8 19  1  0
M  END
