
     RDKit          3D

 23 25  0  0  0  0  0  0  0  0999 V2000
   -1.8081    1.5057    0.0954 C   0  0  0  0  0  0  0  0  0  0  0  0
   -1.0623    0.2572   -0.0670 C   0  0  0  0  0  0  0  0  0  0  0  0
   -1.7138   -0.8187    0.6090 C   0  0  0  0  0  0  0  0  0  0  0  0
    0.1726    0.8197   -0.5894 C   0  0  0  0  0  0  0  0  0  0  0  0
    1.5188    0.6681    0.1259 C   0  0  0  0  0  0  0  0  0  0  0  0
    1.2480   -0.5043    1.0290 C   0  0  0  0  0  0  0  0  0  0  0  0
    1.0176   -1.2390   -0.2646 C   0  0  0  0  0  0  0  0  0  0  0  0
    2.1811   -0.3779   -0.7849 C   0  0  0  0  0  0  0  0  0  0  0  0
   -0.1369   -0.4598   -0.8943 C   0  0  0  0  0  0  0  0  0  0  0  0
   -1.3902    2.2258    0.8647 H   0  0  0  0  0  0  0  0  0  0  0  0
   -2.8520    1.3798    0.4539 H   0  0  0  0  0  0  0  0  0  0  0  0
   -1.9905    2.0803   -0.8685 H   0  0  0  0  0  0  0  0  0  0  0  0
   -1.3385   -1.8165    0.7875 H   0  0  0  0  0  0  0  0  0  0  0  0
   -2.7329   -1.0043    0.1378 H   0  0  0  0  0  0  0  0  0  0  0  0
   -2.0029   -0.4691    1.6536 H   0  0  0  0  0  0  0  0  0  0  0  0
    0.2436    1.5552   -1.4251 H   0  0  0  0  0  0  0  0  0  0  0  0
    2.0564    1.5036    0.4299 H   0  0  0  0  0  0  0  0  0  0  0  0
    0.4248   -0.4216    1.7332 H   0  0  0  0  0  0  0  0  0  0  0  0
    2.2148   -0.8814    1.4746 H   0  0  0  0  0  0  0  0  0  0  0  0
    1.0692   -2.2705   -0.3412 H   0  0  0  0  0  0  0  0  0  0  0  0
    2.1305   -0.1549   -1.8479 H   0  0  0  0  0  0  0  0  0  0  0  0
    3.1362   -0.7670   -0.3916 H   0  0  0  0  0  0  0  0  0  0  0  0
   -0.3855   -0.8105   -1.9199 H   0  0  0  0  0  0  0  0  0  0  0  0
  1  2  1  0
  2  3  1  0
  2  4  1  0
  4  5  1  0
  5  6  1  0
  6  7  1  0
  7  8  1  0
  7  9  1  0
  9  2  1  0
  9  4  1  0
  8  5  1  0
  1 10  1  0
  1 11  1  0
  1 12  1  0
  3 13  1  0
  3 14  1  0
  3 15  1  0
  4 16  1  0
  5 17  1  0
  6 18  1  0
  6 19  1  0
  7 20  1  0
  8 21  1  0
  8 22  1  0
  9 23  1  0
M  END
