
     RDKit          3D

 19 21  0  0  0  0  0  0  0  0999 V2000
    1.5925   -1.1164   -0.1153 C   0  0  0  0  0  0  0  0  0  0  0  0
    0.7948    0.0801    0.3061 C   0  0  0  0  0  0  0  0  0  0  0  0
   -0.6851    0.1035    0.0946 C   0  0  0  0  0  0  0  0  0  0  0  0
   -1.5927   -0.8945    0.7042 C   0  0  0  0  0  0  0  0  0  0  0  0
   -2.0302   -1.2347   -0.5919 O   0  0  0  0  0  0  0  0  0  0  0  0
   -1.2473   -0.2697   -1.2043 C   0  0  0  0  0  0  0  0  0  0  0  0
   -1.3461    1.1756   -0.6884 C   0  0  0  0  0  0  0  0  0  0  0  0
    1.5298    1.3381    0.4588 C   0  0  0  0  0  0  0  0  0  0  0  0
    1.1143    0.6034    1.6429 O   0  0  0  0  0  0  0  0  0  0  0  0
    1.1072   -2.0761    0.0375 H   0  0  0  0  0  0  0  0  0  0  0  0
    1.9091   -0.9883   -1.1846 H   0  0  0  0  0  0  0  0  0  0  0  0
    2.5445   -1.1160    0.4693 H   0  0  0  0  0  0  0  0  0  0  0  0
   -2.4437   -0.4044    1.2260 H   0  0  0  0  0  0  0  0  0  0  0  0
   -1.1881   -1.7003    1.2987 H   0  0  0  0  0  0  0  0  0  0  0  0
   -0.6708   -0.4750   -2.1004 H   0  0  0  0  0  0  0  0  0  0  0  0
   -0.6838    1.8776   -1.2081 H   0  0  0  0  0  0  0  0  0  0  0  0
   -2.3888    1.4432   -0.4388 H   0  0  0  0  0  0  0  0  0  0  0  0
    2.6314    1.3184    0.3880 H   0  0  0  0  0  0  0  0  0  0  0  0
    1.0532    2.3354    0.4181 H   0  0  0  0  0  0  0  0  0  0  0  0
  1  2  1  0
  2  3  1  0
  3  4  1  0
  4  5  1  0
  5  6  1  0
  6  7  1  0
  2  8  1  0
  8  9  1  0
  9  2  1  0
  6  3  1  0
  7  3  1  0
  1 10  1  0
  1 11  1  0
  1 12  1  0
  4 13  1  0
  4 14  1  0
  6 15  1  0
  7 16  1  0
  7 17  1  0
  8 18  1  0
  8 19  1  0
M  END
