
     RDKit          3D

 19 19  0  0  0  0  0  0  0  0999 V2000
   -1.5328   -1.2137    0.4293 C   0  0  0  0  0  0  0  0  0  0  0  0
   -0.3985   -0.2171    0.2835 C   0  0  0  0  0  0  0  0  0  0  0  0
    0.9115   -0.8555   -0.1013 C   0  0  0  0  0  0  0  0  0  0  0  0
    2.0196    0.1713   -0.2372 C   0  0  0  0  0  0  0  0  0  0  0  0
    3.1747   -0.5586   -0.5969 O   0  0  0  0  0  0  0  0  0  0  0  0
   -0.2887    0.8276    1.1825 O   0  0  0  0  0  0  0  0  0  0  0  0
   -0.7382    1.1375   -0.1657 C   0  0  0  0  0  0  0  0  0  0  0  0
   -2.1489    1.5756   -0.1564 C   0  0  0  0  0  0  0  0  0  0  0  0
   -2.5617    2.5255   -0.7929 O   0  0  0  0  0  0  0  0  0  0  0  0
   -2.2729   -0.8932    1.1812 H   0  0  0  0  0  0  0  0  0  0  0  0
   -2.0513   -1.2529   -0.5546 H   0  0  0  0  0  0  0  0  0  0  0  0
   -1.1335   -2.2269    0.6371 H   0  0  0  0  0  0  0  0  0  0  0  0
    0.8367   -1.4416   -1.0208 H   0  0  0  0  0  0  0  0  0  0  0  0
    1.1811   -1.5662    0.7158 H   0  0  0  0  0  0  0  0  0  0  0  0
    1.8096    0.8249   -1.1126 H   0  0  0  0  0  0  0  0  0  0  0  0
    2.1710    0.7402    0.6923 H   0  0  0  0  0  0  0  0  0  0  0  0
    3.9475   -0.3116   -0.0538 H   0  0  0  0  0  0  0  0  0  0  0  0
   -0.0382    1.7027   -0.7792 H   0  0  0  0  0  0  0  0  0  0  0  0
   -2.8872    1.0320    0.4496 H   0  0  0  0  0  0  0  0  0  0  0  0
  1  2  1  0
  2  3  1  0
  3  4  1  0
  4  5  1  0
  2  6  1  0
  6  7  1  0
  7  8  1  0
  8  9  2  0
  7  2  1  0
  1 10  1  0
  1 11  1  0
  1 12  1  0
  3 13  1  0
  3 14  1  0
  4 15  1  0
  4 16  1  0
  5 17  1  0
  7 18  1  0
  8 19  1  0
M  END
