
     RDKit          3D

 18 18  0  0  0  0  0  0  0  0999 V2000
    1.8052   -0.4031   -0.6450 C   0  0  0  0  0  0  0  0  0  0  0  0
    0.5597   -0.1799    0.1533 C   0  0  0  0  0  0  0  0  0  0  0  0
    0.6629   -0.6997    1.4331 O   0  0  0  0  0  0  0  0  0  0  0  0
   -0.5961   -0.9055   -0.5466 C   0  0  0  0  0  0  0  0  0  0  0  0
   -1.7542   -0.3162    0.2566 C   0  0  0  0  0  0  0  0  0  0  0  0
   -1.4307    1.1444    0.1531 C   0  0  0  0  0  0  0  0  0  0  0  0
   -2.2186    2.0391    0.0753 O   0  0  0  0  0  0  0  0  0  0  0  0
    0.0755    1.2260    0.1689 C   0  0  0  0  0  0  0  0  0  0  0  0
    2.7241   -0.2849   -0.0419 H   0  0  0  0  0  0  0  0  0  0  0  0
    1.7999    0.2156   -1.5599 H   0  0  0  0  0  0  0  0  0  0  0  0
    1.7983   -1.4857   -0.9658 H   0  0  0  0  0  0  0  0  0  0  0  0
    1.3202   -0.1968    1.9726 H   0  0  0  0  0  0  0  0  0  0  0  0
   -0.5241   -1.9867   -0.4586 H   0  0  0  0  0  0  0  0  0  0  0  0
   -0.6771   -0.5371   -1.6008 H   0  0  0  0  0  0  0  0  0  0  0  0
   -1.5802   -0.6004    1.3007 H   0  0  0  0  0  0  0  0  0  0  0  0
   -2.7263   -0.5634   -0.1535 H   0  0  0  0  0  0  0  0  0  0  0  0
    0.3974    1.8345   -0.6823 H   0  0  0  0  0  0  0  0  0  0  0  0
    0.3639    1.6996    1.1410 H   0  0  0  0  0  0  0  0  0  0  0  0
  1  2  1  0
  2  3  1  0
  2  4  1  0
  4  5  1  0
  5  6  1  0
  6  7  2  0
  6  8  1  0
  8  2  1  0
  1  9  1  0
  1 10  1  0
  1 11  1  0
  3 12  1  0
  4 13  1  0
  4 14  1  0
  5 15  1  0
  5 16  1  0
  8 17  1  0
  8 18  1  0
M  END
