
     RDKit          3D

 25 25  0  0  0  0  0  0  0  0999 V2000
    1.6728    1.4246   -0.0210 C   0  0  0  0  0  0  0  0  0  0  0  0
    1.1277    0.0233    0.1475 C   0  0  0  0  0  0  0  0  0  0  0  0
    2.2797   -0.8324    0.6439 C   0  0  0  0  0  0  0  0  0  0  0  0
    0.6663   -0.5049   -1.2195 C   0  0  0  0  0  0  0  0  0  0  0  0
   -0.8170   -0.7117   -1.0785 C   0  0  0  0  0  0  0  0  0  0  0  0
   -1.1066   -0.0807    0.2557 C   0  0  0  0  0  0  0  0  0  0  0  0
   -2.1991   -0.9339    0.9008 C   0  0  0  0  0  0  0  0  0  0  0  0
   -1.6774    1.3128    0.1347 C   0  0  0  0  0  0  0  0  0  0  0  0
    0.0462   -0.0493    0.9838 O   0  0  0  0  0  0  0  0  0  0  0  0
    2.2254    1.4380   -0.9898 H   0  0  0  0  0  0  0  0  0  0  0  0
    0.9387    2.2099    0.0959 H   0  0  0  0  0  0  0  0  0  0  0  0
    2.4721    1.6015    0.7577 H   0  0  0  0  0  0  0  0  0  0  0  0
    2.6091   -1.5492   -0.1590 H   0  0  0  0  0  0  0  0  0  0  0  0
    2.0144   -1.3768    1.5831 H   0  0  0  0  0  0  0  0  0  0  0  0
    3.1794   -0.2357    0.8876 H   0  0  0  0  0  0  0  0  0  0  0  0
    1.1522   -1.4508   -1.4672 H   0  0  0  0  0  0  0  0  0  0  0  0
    0.8586    0.2430   -2.0038 H   0  0  0  0  0  0  0  0  0  0  0  0
   -1.0285   -1.8179   -1.0256 H   0  0  0  0  0  0  0  0  0  0  0  0
   -1.4084   -0.3088   -1.9027 H   0  0  0  0  0  0  0  0  0  0  0  0
   -3.0401   -0.9535    0.1526 H   0  0  0  0  0  0  0  0  0  0  0  0
   -1.8944   -1.9741    1.0387 H   0  0  0  0  0  0  0  0  0  0  0  0
   -2.6071   -0.4831    1.8057 H   0  0  0  0  0  0  0  0  0  0  0  0
   -2.7998    1.3093    0.1500 H   0  0  0  0  0  0  0  0  0  0  0  0
   -1.3830    1.8545    1.0697 H   0  0  0  0  0  0  0  0  0  0  0  0
   -1.2813    1.8458   -0.7402 H   0  0  0  0  0  0  0  0  0  0  0  0
  1  2  1  0
  2  3  1  0
  2  4  1  0
  4  5  1  0
  5  6  1  0
  6  7  1  0
  6  8  1  0
  6  9  1  0
  9  2  1  0
  1 10  1  0
  1 11  1  0
  1 12  1  0
  3 13  1  0
  3 14  1  0
  3 15  1  0
  4 16  1  0
  4 17  1  0
  5 18  1  0
  5 19  1  0
  7 20  1  0
  7 21  1  0
  7 22  1  0
  8 23  1  0
  8 24  1  0
  8 25  1  0
M  END
