
     RDKit          3D

 23 23  0  0  0  0  0  0  0  0999 V2000
   -0.0759   -1.9149   -0.1913 C   0  0  0  0  0  0  0  0  0  0  0  0
   -0.2276   -0.4238   -0.2989 C   0  0  0  0  0  0  0  0  0  0  0  0
    1.0621    0.2371   -0.6413 C   0  0  0  0  0  0  0  0  0  0  0  0
    2.1418   -0.0141    0.3907 C   0  0  0  0  0  0  0  0  0  0  0  0
    3.3087    0.6345   -0.0019 O   0  0  0  0  0  0  0  0  0  0  0  0
   -1.3127    0.0256   -1.2791 C   0  0  0  0  0  0  0  0  0  0  0  0
   -1.5985    1.1636   -0.2891 C   0  0  0  0  0  0  0  0  0  0  0  0
   -2.9363    1.4579   -0.1468 O   0  0  0  0  0  0  0  0  0  0  0  0
   -1.0510    0.2223    0.7868 C   0  0  0  0  0  0  0  0  0  0  0  0
    0.9250   -2.2607   -0.5364 H   0  0  0  0  0  0  0  0  0  0  0  0
   -0.2898   -2.1974    0.8543 H   0  0  0  0  0  0  0  0  0  0  0  0
   -0.8447   -2.3846   -0.8326 H   0  0  0  0  0  0  0  0  0  0  0  0
    1.4189   -0.1790   -1.6106 H   0  0  0  0  0  0  0  0  0  0  0  0
    0.9783    1.3323   -0.7864 H   0  0  0  0  0  0  0  0  0  0  0  0
    1.8079    0.4128    1.3504 H   0  0  0  0  0  0  0  0  0  0  0  0
    2.3650   -1.0998    0.4386 H   0  0  0  0  0  0  0  0  0  0  0  0
    3.8104    0.8556    0.8196 H   0  0  0  0  0  0  0  0  0  0  0  0
   -0.9129    0.4129   -2.2441 H   0  0  0  0  0  0  0  0  0  0  0  0
   -2.0899   -0.7369   -1.3381 H   0  0  0  0  0  0  0  0  0  0  0  0
   -0.9450    2.0216   -0.4719 H   0  0  0  0  0  0  0  0  0  0  0  0
   -3.1486    2.1910   -0.7726 H   0  0  0  0  0  0  0  0  0  0  0  0
   -1.8721   -0.4616    1.0900 H   0  0  0  0  0  0  0  0  0  0  0  0
   -0.5132    0.7058    1.5991 H   0  0  0  0  0  0  0  0  0  0  0  0
  1  2  1  0
  2  3  1  0
  3  4  1  0
  4  5  1  0
  2  6  1  0
  6  7  1  0
  7  8  1  0
  7  9  1  0
  9  2  1  0
  1 10  1  0
  1 11  1  0
  1 12  1  0
  3 13  1  0
  3 14  1  0
  4 15  1  0
  4 16  1  0
  5 17  1  0
  6 18  1  0
  6 19  1  0
  7 20  1  0
  8 21  1  0
  9 22  1  0
  9 23  1  0
M  END
