
     RDKit          3D

 21 23  0  0  0  0  0  0  0  0999 V2000
    1.5626   -0.7886   -0.6478 C   0  0  0  0  0  0  0  0  0  0  0  0
    0.6356    0.1141    0.0930 C   0  0  0  0  0  0  0  0  0  0  0  0
    1.3299    0.9791    1.0928 C   0  0  0  0  0  0  0  0  0  0  0  0
   -0.3002    0.8920   -0.7936 C   0  0  0  0  0  0  0  0  0  0  0  0
   -1.1645   -0.2171   -1.3590 C   0  0  0  0  0  0  0  0  0  0  0  0
   -1.5790   -0.8613   -0.0272 C   0  0  0  0  0  0  0  0  0  0  0  0
   -1.5523    0.2820    0.8849 C   0  0  0  0  0  0  0  0  0  0  0  0
   -1.1624    1.4291    0.1511 O   0  0  0  0  0  0  0  0  0  0  0  0
   -0.4324   -0.6767    0.8640 C   0  0  0  0  0  0  0  0  0  0  0  0
    2.0832   -0.2121   -1.4343 H   0  0  0  0  0  0  0  0  0  0  0  0
    2.3060   -1.1823    0.0634 H   0  0  0  0  0  0  0  0  0  0  0  0
    1.0517   -1.6392   -1.1130 H   0  0  0  0  0  0  0  0  0  0  0  0
    1.6157    0.3353    1.9568 H   0  0  0  0  0  0  0  0  0  0  0  0
    0.5754    1.7005    1.5057 H   0  0  0  0  0  0  0  0  0  0  0  0
    2.1896    1.5336    0.6799 H   0  0  0  0  0  0  0  0  0  0  0  0
    0.1344    1.5570   -1.4946 H   0  0  0  0  0  0  0  0  0  0  0  0
   -2.0528    0.2640   -1.8365 H   0  0  0  0  0  0  0  0  0  0  0  0
   -0.6302   -0.9079   -2.0062 H   0  0  0  0  0  0  0  0  0  0  0  0
   -2.2717   -1.6818   -0.0137 H   0  0  0  0  0  0  0  0  0  0  0  0
   -2.1942    0.4002    1.7553 H   0  0  0  0  0  0  0  0  0  0  0  0
   -0.1445   -1.3197    1.6789 H   0  0  0  0  0  0  0  0  0  0  0  0
  1  2  1  0
  2  3  1  0
  2  4  1  0
  4  5  1  0
  5  6  1  0
  6  7  1  0
  7  8  1  0
  7  9  1  0
  9  2  1  0
  8  4  1  0
  9  6  1  0
  1 10  1  0
  1 11  1  0
  1 12  1  0
  3 13  1  0
  3 14  1  0
  3 15  1  0
  4 16  1  0
  5 17  1  0
  5 18  1  0
  6 19  1  0
  7 20  1  0
  9 21  1  0
M  END
