
     RDKit          3D

 21 22  0  0  0  0  0  0  0  0999 V2000
   -1.1768    1.3638   -0.5088 C   0  0  0  0  0  0  0  0  0  0  0  0
   -0.6818    0.0520    0.0567 C   0  0  0  0  0  0  0  0  0  0  0  0
    0.7704   -0.2992   -0.1403 C   0  0  0  0  0  0  0  0  0  0  0  0
    1.2898   -1.5723    0.3985 C   0  0  0  0  0  0  0  0  0  0  0  0
    2.4631   -1.8435    0.2325 O   0  0  0  0  0  0  0  0  0  0  0  0
    1.4580    0.2701   -1.3556 C   0  0  0  0  0  0  0  0  0  0  0  0
    1.7212    0.8957   -0.0281 C   0  0  0  0  0  0  0  0  0  0  0  0
   -1.2392   -0.3259    1.4453 C   0  0  0  0  0  0  0  0  0  0  0  0
   -1.7002   -1.0177    0.1729 C   0  0  0  0  0  0  0  0  0  0  0  0
   -1.9698    1.1016   -1.2514 H   0  0  0  0  0  0  0  0  0  0  0  0
   -0.4079    1.9603   -0.9930 H   0  0  0  0  0  0  0  0  0  0  0  0
   -1.7131    1.9257    0.3052 H   0  0  0  0  0  0  0  0  0  0  0  0
    0.6961   -2.2926    0.9379 H   0  0  0  0  0  0  0  0  0  0  0  0
    0.9036    0.8544   -2.0969 H   0  0  0  0  0  0  0  0  0  0  0  0
    2.2666   -0.3554   -1.8318 H   0  0  0  0  0  0  0  0  0  0  0  0
    1.2878    1.8951    0.1394 H   0  0  0  0  0  0  0  0  0  0  0  0
    2.6904    0.7375    0.4896 H   0  0  0  0  0  0  0  0  0  0  0  0
   -1.9179    0.4185    1.9140 H   0  0  0  0  0  0  0  0  0  0  0  0
   -0.5710   -0.8682    2.1229 H   0  0  0  0  0  0  0  0  0  0  0  0
   -2.7375   -0.8110   -0.1286 H   0  0  0  0  0  0  0  0  0  0  0  0
   -1.4316   -2.0889    0.1197 H   0  0  0  0  0  0  0  0  0  0  0  0
  1  2  1  0
  2  3  1  0
  3  4  1  0
  4  5  2  0
  3  6  1  0
  6  7  1  0
  2  8  1  0
  8  9  1  0
  9  2  1  0
  7  3  1  0
  1 10  1  0
  1 11  1  0
  1 12  1  0
  4 13  1  0
  6 14  1  0
  6 15  1  0
  7 16  1  0
  7 17  1  0
  8 18  1  0
  8 19  1  0
  9 20  1  0
  9 21  1  0
M  END
