
     RDKit          3D

 19 20  0  0  0  0  0  0  0  0999 V2000
   -1.2375    1.2756   -0.1883 C   0  0  0  0  0  0  0  0  0  0  0  0
   -0.5546   -0.0099    0.1092 C   0  0  0  0  0  0  0  0  0  0  0  0
   -1.4654   -1.1785    0.2707 C   0  0  0  0  0  0  0  0  0  0  0  0
    0.4125    0.1138    1.2701 C   0  0  0  0  0  0  0  0  0  0  0  0
    0.2200    0.4924    2.3882 O   0  0  0  0  0  0  0  0  0  0  0  0
    1.6473   -0.3762    0.5840 C   0  0  0  0  0  0  0  0  0  0  0  0
    1.6902    0.4776   -0.6532 C   0  0  0  0  0  0  0  0  0  0  0  0
    0.4873   -0.3663   -0.9336 C   0  0  0  0  0  0  0  0  0  0  0  0
    1.1758   -1.4044   -0.2604 O   0  0  0  0  0  0  0  0  0  0  0  0
   -1.9656    1.5089    0.5868 H   0  0  0  0  0  0  0  0  0  0  0  0
   -0.4545    2.0684   -0.2590 H   0  0  0  0  0  0  0  0  0  0  0  0
   -1.7106    1.1937   -1.1831 H   0  0  0  0  0  0  0  0  0  0  0  0
   -2.3760   -0.9280    0.8157 H   0  0  0  0  0  0  0  0  0  0  0  0
   -0.8770   -1.9940    0.7866 H   0  0  0  0  0  0  0  0  0  0  0  0
   -1.7029   -1.5626   -0.7636 H   0  0  0  0  0  0  0  0  0  0  0  0
    2.5218   -0.5479    1.1493 H   0  0  0  0  0  0  0  0  0  0  0  0
    1.5079    1.5468   -0.4525 H   0  0  0  0  0  0  0  0  0  0  0  0
    2.5061    0.2418   -1.3341 H   0  0  0  0  0  0  0  0  0  0  0  0
    0.1751   -0.5513   -1.9327 H   0  0  0  0  0  0  0  0  0  0  0  0
  1  2  1  0
  2  3  1  0
  2  4  1  0
  4  5  2  0
  4  6  1  0
  6  7  1  0
  7  8  1  0
  8  9  1  0
  8  2  1  0
  9  6  1  0
  1 10  1  0
  1 11  1  0
  1 12  1  0
  3 13  1  0
  3 14  1  0
  3 15  1  0
  6 16  1  0
  7 17  1  0
  7 18  1  0
  8 19  1  0
M  END
