
     RDKit          3D

 17 18  0  0  0  0  0  0  0  0999 V2000
   -1.6107   -0.0970   -0.8538 C   0  0  0  0  0  0  0  0  0  0  0  0
   -0.6380    0.3466    0.1585 C   0  0  0  0  0  0  0  0  0  0  0  0
   -1.2758    0.9509    1.2556 O   0  0  0  0  0  0  0  0  0  0  0  0
    0.4254    1.3090   -0.3127 C   0  0  0  0  0  0  0  0  0  0  0  0
    0.5697    2.1592   -1.1573 O   0  0  0  0  0  0  0  0  0  0  0  0
    1.2676    0.7088    0.7924 C   0  0  0  0  0  0  0  0  0  0  0  0
    0.4703   -0.4988    0.5649 C   0  0  0  0  0  0  0  0  0  0  0  0
    1.1104   -1.4573   -0.4283 C   0  0  0  0  0  0  0  0  0  0  0  0
    0.6181   -1.7453    0.8340 O   0  0  0  0  0  0  0  0  0  0  0  0
   -2.6511   -0.1313   -0.4147 H   0  0  0  0  0  0  0  0  0  0  0  0
   -1.4532   -1.1476   -1.2273 H   0  0  0  0  0  0  0  0  0  0  0  0
   -1.6779    0.6034   -1.7074 H   0  0  0  0  0  0  0  0  0  0  0  0
   -1.3476    0.2464    1.9454 H   0  0  0  0  0  0  0  0  0  0  0  0
    2.3338    0.6564    0.5731 H   0  0  0  0  0  0  0  0  0  0  0  0
    1.1015    1.2076    1.7742 H   0  0  0  0  0  0  0  0  0  0  0  0
    0.5280   -1.6226   -1.3283 H   0  0  0  0  0  0  0  0  0  0  0  0
    2.2295   -1.4884   -0.4684 H   0  0  0  0  0  0  0  0  0  0  0  0
  1  2  1  0
  2  3  1  0
  2  4  1  0
  4  5  2  0
  4  6  1  0
  6  7  1  0
  7  8  1  0
  8  9  1  0
  7  2  1  0
  9  7  1  0
  1 10  1  0
  1 11  1  0
  1 12  1  0
  3 13  1  0
  6 14  1  0
  6 15  1  0
  8 16  1  0
  8 17  1  0
M  END
