
     RDKit          3D

 19 20  0  0  0  0  0  0  0  0999 V2000
   -1.2560   -0.7625    1.2258 C   0  0  0  0  0  0  0  0  0  0  0  0
   -0.4872   -0.1551    0.0394 C   0  0  0  0  0  0  0  0  0  0  0  0
   -1.4657    0.2005   -1.0778 C   0  0  0  0  0  0  0  0  0  0  0  0
   -2.3668    1.1327   -0.5319 O   0  0  0  0  0  0  0  0  0  0  0  0
    0.5862    0.7175    0.2695 C   0  0  0  0  0  0  0  0  0  0  0  0
    1.6836    1.1237   -0.4363 O   0  0  0  0  0  0  0  0  0  0  0  0
    2.6385    0.2004    0.0616 C   0  0  0  0  0  0  0  0  0  0  0  0
    1.9092   -0.9659    0.4050 O   0  0  0  0  0  0  0  0  0  0  0  0
    0.7475   -0.7667   -0.2632 C   0  0  0  0  0  0  0  0  0  0  0  0
   -0.6619   -0.5528    2.1331 H   0  0  0  0  0  0  0  0  0  0  0  0
   -2.2472   -0.3216    1.3157 H   0  0  0  0  0  0  0  0  0  0  0  0
   -1.3328   -1.8622    1.1141 H   0  0  0  0  0  0  0  0  0  0  0  0
   -2.0904   -0.6867   -1.3626 H   0  0  0  0  0  0  0  0  0  0  0  0
   -0.9697    0.5609   -1.9785 H   0  0  0  0  0  0  0  0  0  0  0  0
   -2.9269    1.5608   -1.2020 H   0  0  0  0  0  0  0  0  0  0  0  0
    0.8425    0.8580    1.3693 H   0  0  0  0  0  0  0  0  0  0  0  0
    3.0693    0.6542    0.9839 H   0  0  0  0  0  0  0  0  0  0  0  0
    3.3747   -0.0795   -0.6891 H   0  0  0  0  0  0  0  0  0  0  0  0
    0.9530   -0.8558   -1.3760 H   0  0  0  0  0  0  0  0  0  0  0  0
  1  2  1  0
  2  3  1  0
  3  4  1  0
  2  5  1  0
  5  6  1  0
  6  7  1  0
  7  8  1  0
  8  9  1  0
  9  2  1  0
  9  5  1  0
  1 10  1  0
  1 11  1  0
  1 12  1  0
  3 13  1  0
  3 14  1  0
  4 15  1  0
  5 16  1  0
  7 17  1  0
  7 18  1  0
  9 19  1  0
M  END
