
     RDKit          3D

 25 26  0  0  0  0  0  0  0  0999 V2000
   -2.2778    0.4474    1.2319 C   0  0  0  0  0  0  0  0  0  0  0  0
   -1.2778    0.1011    0.1308 C   0  0  0  0  0  0  0  0  0  0  0  0
   -1.6861    0.6693   -1.1547 C   0  0  0  0  0  0  0  0  0  0  0  0
   -0.9050   -1.3978    0.1326 C   0  0  0  0  0  0  0  0  0  0  0  0
    0.3119   -0.8507   -0.5786 C   0  0  0  0  0  0  0  0  0  0  0  0
    0.1501    0.2096    0.5916 C   0  0  0  0  0  0  0  0  0  0  0  0
    1.3783   -0.0605   -0.0662 C   0  0  0  0  0  0  0  0  0  0  0  0
    2.0026    1.0965   -0.8607 C   0  0  0  0  0  0  0  0  0  0  0  0
    2.5351   -0.8626    0.5689 C   0  0  0  0  0  0  0  0  0  0  0  0
   -2.6489    1.4544    1.0316 H   0  0  0  0  0  0  0  0  0  0  0  0
   -1.7124    0.4911    2.2077 H   0  0  0  0  0  0  0  0  0  0  0  0
   -3.0388   -0.3246    1.3618 H   0  0  0  0  0  0  0  0  0  0  0  0
   -0.9713    1.3321   -1.6704 H   0  0  0  0  0  0  0  0  0  0  0  0
   -2.6187    1.3051   -1.0544 H   0  0  0  0  0  0  0  0  0  0  0  0
   -2.0361   -0.1648   -1.8315 H   0  0  0  0  0  0  0  0  0  0  0  0
   -1.5258   -2.0241   -0.4993 H   0  0  0  0  0  0  0  0  0  0  0  0
   -0.6928   -1.7366    1.1494 H   0  0  0  0  0  0  0  0  0  0  0  0
   -0.0412   -0.4724   -1.5900 H   0  0  0  0  0  0  0  0  0  0  0  0
    0.1607   -0.2675    1.6293 H   0  0  0  0  0  0  0  0  0  0  0  0
    2.7585    1.5775   -0.1718 H   0  0  0  0  0  0  0  0  0  0  0  0
    1.2902    1.8756   -1.1063 H   0  0  0  0  0  0  0  0  0  0  0  0
    2.5844    0.7035   -1.7088 H   0  0  0  0  0  0  0  0  0  0  0  0
    3.2230   -1.2323   -0.1907 H   0  0  0  0  0  0  0  0  0  0  0  0
    2.9981   -0.1922    1.3171 H   0  0  0  0  0  0  0  0  0  0  0  0
    2.0398   -1.6773    1.1309 H   0  0  0  0  0  0  0  0  0  0  0  0
  1  2  1  0
  2  3  1  0
  2  4  1  0
  4  5  1  0
  5  6  1  0
  6  7  1  0
  7  8  1  0
  7  9  1  0
  6  2  1  0
  7  5  1  0
  1 10  1  0
  1 11  1  0
  1 12  1  0
  3 13  1  0
  3 14  1  0
  3 15  1  0
  4 16  1  0
  4 17  1  0
  5 18  1  0
  6 19  1  0
  8 20  1  0
  8 21  1  0
  8 22  1  0
  9 23  1  0
  9 24  1  0
  9 25  1  0
M  END
