
     RDKit          3D

 19 19  0  0  0  0  0  0  0  0999 V2000
    1.2404    1.1254   -0.2962 C   0  0  0  0  0  0  0  0  0  0  0  0
    0.5554   -0.1941   -0.0436 C   0  0  0  0  0  0  0  0  0  0  0  0
    1.5538   -1.2732   -0.0545 C   0  0  0  0  0  0  0  0  0  0  0  0
    2.2921   -1.4184    0.8936 O   0  0  0  0  0  0  0  0  0  0  0  0
   -0.5353   -0.3565   -1.0511 C   0  0  0  0  0  0  0  0  0  0  0  0
   -1.7778    0.1998   -0.4278 C   0  0  0  0  0  0  0  0  0  0  0  0
   -1.4738    0.3980    1.0278 C   0  0  0  0  0  0  0  0  0  0  0  0
   -2.1773    0.9669    1.8119 O   0  0  0  0  0  0  0  0  0  0  0  0
   -0.1670   -0.2381    1.2715 C   0  0  0  0  0  0  0  0  0  0  0  0
    1.7595    1.0280   -1.2804 H   0  0  0  0  0  0  0  0  0  0  0  0
    0.5024    1.9420   -0.4027 H   0  0  0  0  0  0  0  0  0  0  0  0
    2.0356    1.3511    0.4398 H   0  0  0  0  0  0  0  0  0  0  0  0
    1.6236   -1.9257   -0.9005 H   0  0  0  0  0  0  0  0  0  0  0  0
   -0.6290   -1.4173   -1.3172 H   0  0  0  0  0  0  0  0  0  0  0  0
   -0.2432    0.2163   -1.9779 H   0  0  0  0  0  0  0  0  0  0  0  0
   -1.9773    1.2218   -0.8294 H   0  0  0  0  0  0  0  0  0  0  0  0
   -2.6489   -0.4662   -0.4738 H   0  0  0  0  0  0  0  0  0  0  0  0
    0.3988    0.1719    2.1070 H   0  0  0  0  0  0  0  0  0  0  0  0
   -0.3319   -1.3316    1.5034 H   0  0  0  0  0  0  0  0  0  0  0  0
  1  2  1  0
  2  3  1  0
  3  4  2  0
  2  5  1  0
  5  6  1  0
  6  7  1  0
  7  8  2  0
  7  9  1  0
  9  2  1  0
  1 10  1  0
  1 11  1  0
  1 12  1  0
  3 13  1  0
  5 14  1  0
  5 15  1  0
  6 16  1  0
  6 17  1  0
  9 18  1  0
  9 19  1  0
M  END
