
     RDKit          3D

 21 22  0  0  0  0  0  0  0  0999 V2000
    1.6667   -1.0328    0.4831 C   0  0  0  0  0  0  0  0  0  0  0  0
    0.6848    0.0044   -0.0254 C   0  0  0  0  0  0  0  0  0  0  0  0
    1.3377    1.3297   -0.1860 C   0  0  0  0  0  0  0  0  0  0  0  0
   -0.2353   -0.4532   -1.1094 C   0  0  0  0  0  0  0  0  0  0  0  0
   -0.9067   -1.3105   -0.0632 C   0  0  0  0  0  0  0  0  0  0  0  0
   -0.6612   -0.0094    0.6456 C   0  0  0  0  0  0  0  0  0  0  0  0
   -0.9575    0.3170    1.8125 O   0  0  0  0  0  0  0  0  0  0  0  0
   -1.1887    0.6093   -0.6411 C   0  0  0  0  0  0  0  0  0  0  0  0
   -2.4947    0.2441   -0.9612 O   0  0  0  0  0  0  0  0  0  0  0  0
    1.5659   -1.1824    1.5793 H   0  0  0  0  0  0  0  0  0  0  0  0
    1.6233   -1.9786   -0.0911 H   0  0  0  0  0  0  0  0  0  0  0  0
    2.7233   -0.6585    0.3429 H   0  0  0  0  0  0  0  0  0  0  0  0
    1.0825    1.8838   -1.0877 H   0  0  0  0  0  0  0  0  0  0  0  0
    2.4614    1.2153   -0.1981 H   0  0  0  0  0  0  0  0  0  0  0  0
    1.0634    1.9488    0.7154 H   0  0  0  0  0  0  0  0  0  0  0  0
   -0.0199   -0.7119   -2.0496 H   0  0  0  0  0  0  0  0  0  0  0  0
   -0.3715   -2.1832    0.2858 H   0  0  0  0  0  0  0  0  0  0  0  0
   -1.9729   -1.4972   -0.2428 H   0  0  0  0  0  0  0  0  0  0  0  0
   -1.3080    1.2235    1.9675 H   0  0  0  0  0  0  0  0  0  0  0  0
   -0.9256    1.6443   -0.8220 H   0  0  0  0  0  0  0  0  0  0  0  0
   -3.1669    0.5975   -0.3544 H   0  0  0  0  0  0  0  0  0  0  0  0
  1  2  1  0
  2  3  1  0
  2  4  1  0
  4  5  1  0
  5  6  1  0
  6  7  1  0
  6  8  1  0
  8  9  1  0
  6  2  1  0
  8  4  1  0
  1 10  1  0
  1 11  1  0
  1 12  1  0
  3 13  1  0
  3 14  1  0
  3 15  1  0
  4 16  1  0
  5 17  1  0
  5 18  1  0
  7 19  1  0
  8 20  1  0
  9 21  1  0
M  END
