
     RDKit          3D

 18 19  0  0  0  0  0  0  0  0999 V2000
   -0.4627    1.4804    0.1699 C   0  0  0  0  0  0  0  0  0  0  0  0
   -0.3399    0.0267    0.0351 C   0  0  0  0  0  0  0  0  0  0  0  0
   -1.6563   -0.5929   -0.4513 C   0  0  0  0  0  0  0  0  0  0  0  0
   -2.6110   -0.6145    0.5423 O   0  0  0  0  0  0  0  0  0  0  0  0
    0.1779   -0.7199    1.1204 O   0  0  0  0  0  0  0  0  0  0  0  0
    1.3774   -0.1467    0.7545 C   0  0  0  0  0  0  0  0  0  0  0  0
    2.2514   -0.4039   -0.3325 C   0  0  0  0  0  0  0  0  0  0  0  0
    0.8591   -0.5501   -0.6797 C   0  0  0  0  0  0  0  0  0  0  0  0
   -1.4319    1.8622   -0.2742 H   0  0  0  0  0  0  0  0  0  0  0  0
   -0.5101    1.8633    1.2318 H   0  0  0  0  0  0  0  0  0  0  0  0
    0.3162    2.0731   -0.3922 H   0  0  0  0  0  0  0  0  0  0  0  0
   -1.3900   -1.6044   -0.8246 H   0  0  0  0  0  0  0  0  0  0  0  0
   -1.9815    0.0349   -1.3042 H   0  0  0  0  0  0  0  0  0  0  0  0
   -2.3099   -1.1765    1.2898 H   0  0  0  0  0  0  0  0  0  0  0  0
    1.2954    0.9569    0.9967 H   0  0  0  0  0  0  0  0  0  0  0  0
    2.9893   -1.2536   -0.1994 H   0  0  0  0  0  0  0  0  0  0  0  0
    2.7883    0.4246   -0.8867 H   0  0  0  0  0  0  0  0  0  0  0  0
    0.6383   -1.6597   -0.7957 H   0  0  0  0  0  0  0  0  0  0  0  0
  1  2  1  0
  2  3  1  0
  3  4  1  0
  2  5  1  0
  5  6  1  0
  6  7  1  0
  7  8  1  0
  8  2  1  0
  8  6  1  0
  1  9  1  0
  1 10  1  0
  1 11  1  0
  3 12  1  0
  3 13  1  0
  4 14  1  0
  6 15  1  0
  7 16  1  0
  7 17  1  0
  8 18  1  0
M  END
