
     RDKit          3D

 21 22  0  0  0  0  0  0  0  0999 V2000
   -0.7024    1.7712    0.0491 C   0  0  0  0  0  0  0  0  0  0  0  0
   -0.4239    0.3323    0.3159 C   0  0  0  0  0  0  0  0  0  0  0  0
   -1.2611   -0.6698   -0.4279 C   0  0  0  0  0  0  0  0  0  0  0  0
   -1.1459   -0.5756   -1.7960 O   0  0  0  0  0  0  0  0  0  0  0  0
   -0.2642   -0.0718    1.7522 C   0  0  0  0  0  0  0  0  0  0  0  0
    1.1521   -0.5227    1.3674 C   0  0  0  0  0  0  0  0  0  0  0  0
    1.9731    0.5222    1.0233 O   0  0  0  0  0  0  0  0  0  0  0  0
    1.0562    0.0451    0.1262 C   0  0  0  0  0  0  0  0  0  0  0  0
    1.4498   -0.4396   -1.2224 C   0  0  0  0  0  0  0  0  0  0  0  0
   -0.6504    1.9292   -1.0516 H   0  0  0  0  0  0  0  0  0  0  0  0
    0.1578    2.3607    0.4674 H   0  0  0  0  0  0  0  0  0  0  0  0
   -1.6758    2.1316    0.3825 H   0  0  0  0  0  0  0  0  0  0  0  0
   -0.8596   -1.6858   -0.1420 H   0  0  0  0  0  0  0  0  0  0  0  0
   -2.2943   -0.6230   -0.0509 H   0  0  0  0  0  0  0  0  0  0  0  0
   -1.5471   -1.3631   -2.2017 H   0  0  0  0  0  0  0  0  0  0  0  0
   -0.2515    0.8222    2.4115 H   0  0  0  0  0  0  0  0  0  0  0  0
   -0.9160   -0.8995    2.0975 H   0  0  0  0  0  0  0  0  0  0  0  0
    1.5165   -1.4831    1.7099 H   0  0  0  0  0  0  0  0  0  0  0  0
    1.1155   -1.4664   -1.4436 H   0  0  0  0  0  0  0  0  0  0  0  0
    2.5499   -0.3963   -1.3906 H   0  0  0  0  0  0  0  0  0  0  0  0
    1.0214    0.2821   -1.9761 H   0  0  0  0  0  0  0  0  0  0  0  0
  1  2  1  0
  2  3  1  0
  3  4  1  0
  2  5  1  0
  5  6  1  0
  6  7  1  0
  7  8  1  0
  8  9  1  0
  8  2  1  0
  8  6  1  0
  1 10  1  0
  1 11  1  0
  1 12  1  0
  3 13  1  0
  3 14  1  0
  4 15  1  0
  5 16  1  0
  5 17  1  0
  6 18  1  0
  9 19  1  0
  9 20  1  0
  9 21  1  0
M  END
