
     RDKit          3D

 19 19  0  0  0  0  0  0  0  0999 V2000
   -1.4753    0.8193   -0.8896 C   0  0  0  0  0  0  0  0  0  0  0  0
   -0.5078    0.2191    0.1377 C   0  0  0  0  0  0  0  0  0  0  0  0
   -1.2296   -0.6072    1.1575 C   0  0  0  0  0  0  0  0  0  0  0  0
    0.1238    1.3452    0.7541 O   0  0  0  0  0  0  0  0  0  0  0  0
    1.4736    1.3691    0.3933 C   0  0  0  0  0  0  0  0  0  0  0  0
    2.2329    2.3604    0.2317 O   0  0  0  0  0  0  0  0  0  0  0  0
    1.8202   -0.0901    0.2385 C   0  0  0  0  0  0  0  0  0  0  0  0
    0.5827   -0.5685   -0.5305 C   0  0  0  0  0  0  0  0  0  0  0  0
    0.4500   -1.9370   -0.3801 O   0  0  0  0  0  0  0  0  0  0  0  0
   -1.5859    0.1695   -1.7572 H   0  0  0  0  0  0  0  0  0  0  0  0
   -1.0848    1.8180   -1.2347 H   0  0  0  0  0  0  0  0  0  0  0  0
   -2.4278    1.0278   -0.3910 H   0  0  0  0  0  0  0  0  0  0  0  0
   -0.7014   -0.6321    2.1286 H   0  0  0  0  0  0  0  0  0  0  0  0
   -1.3475   -1.6604    0.7931 H   0  0  0  0  0  0  0  0  0  0  0  0
   -2.2573   -0.2287    1.3300 H   0  0  0  0  0  0  0  0  0  0  0  0
    2.7381   -0.2273   -0.3295 H   0  0  0  0  0  0  0  0  0  0  0  0
    1.7930   -0.5660    1.2179 H   0  0  0  0  0  0  0  0  0  0  0  0
    0.6709   -0.2648   -1.6127 H   0  0  0  0  0  0  0  0  0  0  0  0
    0.7324   -2.3464   -1.2572 H   0  0  0  0  0  0  0  0  0  0  0  0
  1  2  1  0
  2  3  1  0
  2  4  1  0
  4  5  1  0
  5  6  2  0
  5  7  1  0
  7  8  1  0
  8  9  1  0
  8  2  1  0
  1 10  1  0
  1 11  1  0
  1 12  1  0
  3 13  1  0
  3 14  1  0
  3 15  1  0
  7 16  1  0
  7 17  1  0
  8 18  1  0
  9 19  1  0
M  END
