
     RDKit          3D

 21 22  0  0  0  0  0  0  0  0999 V2000
   -2.4513    0.1455   -0.5399 C   0  0  0  0  0  0  0  0  0  0  0  0
   -1.1047    0.1853    0.1481 C   0  0  0  0  0  0  0  0  0  0  0  0
   -0.7852    1.3877    0.7513 O   0  0  0  0  0  0  0  0  0  0  0  0
   -0.7621   -1.0583    0.9704 C   0  0  0  0  0  0  0  0  0  0  0  0
   -0.0811   -0.7471   -0.3580 C   0  0  0  0  0  0  0  0  0  0  0  0
    1.3794   -0.4746   -0.2707 C   0  0  0  0  0  0  0  0  0  0  0  0
    2.2030   -1.4672   -0.7979 O   0  0  0  0  0  0  0  0  0  0  0  0
    1.9750    0.4959    0.6638 C   0  0  0  0  0  0  0  0  0  0  0  0
    1.7619    0.9373   -0.7492 C   0  0  0  0  0  0  0  0  0  0  0  0
   -2.7495    1.1532   -0.8737 H   0  0  0  0  0  0  0  0  0  0  0  0
   -2.4001   -0.5140   -1.4524 H   0  0  0  0  0  0  0  0  0  0  0  0
   -3.2439   -0.2411    0.1317 H   0  0  0  0  0  0  0  0  0  0  0  0
   -1.5254    2.0565    0.6440 H   0  0  0  0  0  0  0  0  0  0  0  0
   -1.5185   -1.8717    0.9999 H   0  0  0  0  0  0  0  0  0  0  0  0
   -0.1607   -0.8994    1.8966 H   0  0  0  0  0  0  0  0  0  0  0  0
   -0.3776   -1.4281   -1.1816 H   0  0  0  0  0  0  0  0  0  0  0  0
    1.8514   -1.6616   -1.7124 H   0  0  0  0  0  0  0  0  0  0  0  0
    3.0292    0.3000    0.9542 H   0  0  0  0  0  0  0  0  0  0  0  0
    1.4011    0.9859    1.4734 H   0  0  0  0  0  0  0  0  0  0  0  0
    0.9595    1.6724   -0.8966 H   0  0  0  0  0  0  0  0  0  0  0  0
    2.5997    1.0432   -1.4481 H   0  0  0  0  0  0  0  0  0  0  0  0
  1  2  1  0
  2  3  1  0
  2  4  1  0
  4  5  1  0
  5  6  1  0
  6  7  1  0
  6  8  1  0
  8  9  1  0
  5  2  1  0
  9  6  1  0
  1 10  1  0
  1 11  1  0
  1 12  1  0
  3 13  1  0
  4 14  1  0
  4 15  1  0
  5 16  1  0
  7 17  1  0
  8 18  1  0
  8 19  1  0
  9 20  1  0
  9 21  1  0
M  END
