
     RDKit          3D

 18 18  0  0  0  0  0  0  0  0999 V2000
    1.1842   -0.9870   -0.8140 C   0  0  0  0  0  0  0  0  0  0  0  0
    0.6484   -0.1988    0.3386 C   0  0  0  0  0  0  0  0  0  0  0  0
    1.5033    0.9159    0.8442 C   0  0  0  0  0  0  0  0  0  0  0  0
   -0.1953   -0.7438    1.2669 O   0  0  0  0  0  0  0  0  0  0  0  0
   -0.8681   -0.0304    0.2983 C   0  0  0  0  0  0  0  0  0  0  0  0
   -1.6662   -0.8890   -0.6441 C   0  0  0  0  0  0  0  0  0  0  0  0
   -1.2760    1.3584    0.4863 C   0  0  0  0  0  0  0  0  0  0  0  0
   -0.7074    2.1351    1.2211 O   0  0  0  0  0  0  0  0  0  0  0  0
    1.9238   -1.7505   -0.4966 H   0  0  0  0  0  0  0  0  0  0  0  0
    0.4161   -1.4941   -1.4114 H   0  0  0  0  0  0  0  0  0  0  0  0
    1.6959   -0.2717   -1.4978 H   0  0  0  0  0  0  0  0  0  0  0  0
    1.2933    1.1486    1.9064 H   0  0  0  0  0  0  0  0  0  0  0  0
    1.4093    1.8610    0.2770 H   0  0  0  0  0  0  0  0  0  0  0  0
    2.5596    0.5438    0.8310 H   0  0  0  0  0  0  0  0  0  0  0  0
   -2.7386   -0.8352   -0.2932 H   0  0  0  0  0  0  0  0  0  0  0  0
   -1.3996   -1.9594   -0.5593 H   0  0  0  0  0  0  0  0  0  0  0  0
   -1.6448   -0.5222   -1.6917 H   0  0  0  0  0  0  0  0  0  0  0  0
   -2.1376    1.7192   -0.0619 H   0  0  0  0  0  0  0  0  0  0  0  0
  1  2  1  0
  2  3  1  0
  2  4  1  0
  4  5  1  0
  5  6  1  0
  5  7  1  0
  7  8  2  0
  5  2  1  0
  1  9  1  0
  1 10  1  0
  1 11  1  0
  3 12  1  0
  3 13  1  0
  3 14  1  0
  6 15  1  0
  6 16  1  0
  6 17  1  0
  7 18  1  0
M  END
