
     RDKit          3D

 20 20  0  0  0  0  0  0  0  0999 V2000
   -2.0484   -0.9268   -0.2120 C   0  0  0  0  0  0  0  0  0  0  0  0
   -0.9241    0.0249    0.1143 C   0  0  0  0  0  0  0  0  0  0  0  0
   -1.4327    1.3529    0.6594 C   0  0  0  0  0  0  0  0  0  0  0  0
    0.1364    0.1608   -0.9392 C   0  0  0  0  0  0  0  0  0  0  0  0
    0.9290   -0.7156   -0.0535 C   0  0  0  0  0  0  0  0  0  0  0  0
    2.2601   -0.2050    0.4232 C   0  0  0  0  0  0  0  0  0  0  0  0
    3.2623   -0.2966   -0.5104 O   0  0  0  0  0  0  0  0  0  0  0  0
   -0.0190   -0.5763    0.9721 O   0  0  0  0  0  0  0  0  0  0  0  0
   -2.6001   -0.6447   -1.1086 H   0  0  0  0  0  0  0  0  0  0  0  0
   -2.7766   -0.8451    0.6466 H   0  0  0  0  0  0  0  0  0  0  0  0
   -1.7050   -1.9727   -0.2119 H   0  0  0  0  0  0  0  0  0  0  0  0
   -2.2292    1.1247    1.3781 H   0  0  0  0  0  0  0  0  0  0  0  0
   -1.8203    1.9845   -0.1703 H   0  0  0  0  0  0  0  0  0  0  0  0
   -0.5829    1.8333    1.1746 H   0  0  0  0  0  0  0  0  0  0  0  0
    0.4301    1.1947   -1.0817 H   0  0  0  0  0  0  0  0  0  0  0  0
   -0.1231   -0.3097   -1.9197 H   0  0  0  0  0  0  0  0  0  0  0  0
    0.9585   -1.7514   -0.3834 H   0  0  0  0  0  0  0  0  0  0  0  0
    2.1969    0.8360    0.8005 H   0  0  0  0  0  0  0  0  0  0  0  0
    2.5368   -0.8393    1.3156 H   0  0  0  0  0  0  0  0  0  0  0  0
    3.5511    0.5714   -0.8937 H   0  0  0  0  0  0  0  0  0  0  0  0
  1  2  1  0
  2  3  1  0
  2  4  1  0
  4  5  1  0
  5  6  1  0
  6  7  1  0
  5  8  1  0
  8  2  1  0
  1  9  1  0
  1 10  1  0
  1 11  1  0
  3 12  1  0
  3 13  1  0
  3 14  1  0
  4 15  1  0
  4 16  1  0
  5 17  1  0
  6 18  1  0
  6 19  1  0
  7 20  1  0
M  END
