
     RDKit          3D

 19 19  0  0  0  0  0  0  0  0999 V2000
   -1.2985   -0.3337    0.9506 C   0  0  0  0  0  0  0  0  0  0  0  0
   -0.4451   -0.2447   -0.2723 C   0  0  0  0  0  0  0  0  0  0  0  0
   -1.2403   -0.1426   -1.5173 C   0  0  0  0  0  0  0  0  0  0  0  0
   -2.1179    0.7045   -1.5439 O   0  0  0  0  0  0  0  0  0  0  0  0
    0.5163   -1.4092   -0.2860 C   0  0  0  0  0  0  0  0  0  0  0  0
    1.3607   -1.0892    0.7754 O   0  0  0  0  0  0  0  0  0  0  0  0
    1.5697    0.2636    0.7618 C   0  0  0  0  0  0  0  0  0  0  0  0
    0.5824    0.8920   -0.1758 C   0  0  0  0  0  0  0  0  0  0  0  0
    0.0208    2.0558    0.2902 O   0  0  0  0  0  0  0  0  0  0  0  0
   -1.4852   -1.4192    1.1839 H   0  0  0  0  0  0  0  0  0  0  0  0
   -2.2880    0.1445    0.8545 H   0  0  0  0  0  0  0  0  0  0  0  0
   -0.7205    0.0559    1.8155 H   0  0  0  0  0  0  0  0  0  0  0  0
   -1.0895   -0.7602   -2.3786 H   0  0  0  0  0  0  0  0  0  0  0  0
    0.0183   -2.3698   -0.1456 H   0  0  0  0  0  0  0  0  0  0  0  0
    1.1371   -1.3709   -1.2188 H   0  0  0  0  0  0  0  0  0  0  0  0
    2.6264    0.4506    0.4771 H   0  0  0  0  0  0  0  0  0  0  0  0
    1.4567    0.7042    1.7956 H   0  0  0  0  0  0  0  0  0  0  0  0
    0.9822    1.0006   -1.2131 H   0  0  0  0  0  0  0  0  0  0  0  0
    0.4144    2.8678   -0.1531 H   0  0  0  0  0  0  0  0  0  0  0  0
  1  2  1  0
  2  3  1  0
  3  4  2  0
  2  5  1  0
  5  6  1  0
  6  7  1  0
  7  8  1  0
  8  9  1  0
  8  2  1  0
  1 10  1  0
  1 11  1  0
  1 12  1  0
  3 13  1  0
  5 14  1  0
  5 15  1  0
  7 16  1  0
  7 17  1  0
  8 18  1  0
  9 19  1  0
M  END
