
     RDKit          3D

 21 22  0  0  0  0  0  0  0  0999 V2000
   -2.6561    0.6938    0.8986 C   0  0  0  0  0  0  0  0  0  0  0  0
   -1.5544    0.2876   -0.0317 C   0  0  0  0  0  0  0  0  0  0  0  0
   -1.9158   -0.7433   -1.0800 C   0  0  0  0  0  0  0  0  0  0  0  0
   -0.7992    1.4069   -0.5011 O   0  0  0  0  0  0  0  0  0  0  0  0
   -0.1976    0.4052    0.3851 C   0  0  0  0  0  0  0  0  0  0  0  0
    0.9737   -0.2338   -0.2927 C   0  0  0  0  0  0  0  0  0  0  0  0
    2.2346    0.1440    0.4688 C   0  0  0  0  0  0  0  0  0  0  0  0
    3.5527   -0.3937   -0.0402 C   0  0  0  0  0  0  0  0  0  0  0  0
    2.9451   -0.8247    1.1366 O   0  0  0  0  0  0  0  0  0  0  0  0
   -2.8216   -0.0510    1.7167 H   0  0  0  0  0  0  0  0  0  0  0  0
   -2.4761    1.6660    1.3966 H   0  0  0  0  0  0  0  0  0  0  0  0
   -3.6039    0.7923    0.3052 H   0  0  0  0  0  0  0  0  0  0  0  0
   -2.3754   -0.2718   -1.9670 H   0  0  0  0  0  0  0  0  0  0  0  0
   -0.9876   -1.2525   -1.4626 H   0  0  0  0  0  0  0  0  0  0  0  0
   -2.5525   -1.4918   -0.5917 H   0  0  0  0  0  0  0  0  0  0  0  0
   -0.0048    0.7782    1.4194 H   0  0  0  0  0  0  0  0  0  0  0  0
    0.8698   -1.3373   -0.3573 H   0  0  0  0  0  0  0  0  0  0  0  0
    1.1450    0.1113   -1.3350 H   0  0  0  0  0  0  0  0  0  0  0  0
    2.2837    1.2072    0.7662 H   0  0  0  0  0  0  0  0  0  0  0  0
    3.4764   -1.1246   -0.8734 H   0  0  0  0  0  0  0  0  0  0  0  0
    4.4641    0.2319    0.0396 H   0  0  0  0  0  0  0  0  0  0  0  0
  1  2  1  0
  2  3  1  0
  2  4  1  0
  4  5  1  0
  5  6  1  0
  6  7  1  0
  7  8  1  0
  8  9  1  0
  5  2  1  0
  9  7  1  0
  1 10  1  0
  1 11  1  0
  1 12  1  0
  3 13  1  0
  3 14  1  0
  3 15  1  0
  5 16  1  0
  6 17  1  0
  6 18  1  0
  7 19  1  0
  8 20  1  0
  8 21  1  0
M  END
