
     RDKit          3D

 19 19  0  0  0  0  0  0  0  0999 V2000
   -0.0929    1.3288    0.6759 C   0  0  0  0  0  0  0  0  0  0  0  0
    0.0830    0.0421   -0.1022 C   0  0  0  0  0  0  0  0  0  0  0  0
    1.2598   -0.7908    0.3393 C   0  0  0  0  0  0  0  0  0  0  0  0
    2.5466   -0.0806    0.2060 C   0  0  0  0  0  0  0  0  0  0  0  0
    3.5629   -0.6451    0.5281 O   0  0  0  0  0  0  0  0  0  0  0  0
   -0.4608   -0.0263   -1.4582 C   0  0  0  0  0  0  0  0  0  0  0  0
   -1.1654   -0.7846   -0.3978 C   0  0  0  0  0  0  0  0  0  0  0  0
   -2.3910   -0.2863    0.2310 C   0  0  0  0  0  0  0  0  0  0  0  0
   -2.6886    0.8893    0.3470 O   0  0  0  0  0  0  0  0  0  0  0  0
   -0.7131    1.0953    1.5643 H   0  0  0  0  0  0  0  0  0  0  0  0
   -0.6763    2.0305    0.0523 H   0  0  0  0  0  0  0  0  0  0  0  0
    0.8763    1.7500    1.0020 H   0  0  0  0  0  0  0  0  0  0  0  0
    1.3298   -1.7233   -0.2752 H   0  0  0  0  0  0  0  0  0  0  0  0
    1.0693   -1.1444    1.3887 H   0  0  0  0  0  0  0  0  0  0  0  0
    2.5644    0.9205   -0.1723 H   0  0  0  0  0  0  0  0  0  0  0  0
   -0.9257    0.9203   -1.8641 H   0  0  0  0  0  0  0  0  0  0  0  0
   -0.0055   -0.6209   -2.2773 H   0  0  0  0  0  0  0  0  0  0  0  0
   -1.0597   -1.8884   -0.4234 H   0  0  0  0  0  0  0  0  0  0  0  0
   -3.1130   -0.9862    0.6359 H   0  0  0  0  0  0  0  0  0  0  0  0
  1  2  1  0
  2  3  1  0
  3  4  1  0
  4  5  2  0
  2  6  1  0
  6  7  1  0
  7  8  1  0
  8  9  2  0
  7  2  1  0
  1 10  1  0
  1 11  1  0
  1 12  1  0
  3 13  1  0
  3 14  1  0
  4 15  1  0
  6 16  1  0
  6 17  1  0
  7 18  1  0
  8 19  1  0
M  END
