
     RDKit          3D

 19 20  0  0  0  0  0  0  0  0999 V2000
    1.6780   -0.7761   -0.1543 C   0  0  0  0  0  0  0  0  0  0  0  0
    0.6775    0.2135    0.3374 C   0  0  0  0  0  0  0  0  0  0  0  0
    0.8669    0.6215    1.6498 O   0  0  0  0  0  0  0  0  0  0  0  0
    0.6672    1.4395   -0.5875 C   0  0  0  0  0  0  0  0  0  0  0  0
   -0.8377    1.3541   -0.6629 C   0  0  0  0  0  0  0  0  0  0  0  0
   -1.7500    2.0315   -1.0549 O   0  0  0  0  0  0  0  0  0  0  0  0
   -0.7359    0.0335   -0.0278 C   0  0  0  0  0  0  0  0  0  0  0  0
   -1.7705   -0.5272    0.8436 C   0  0  0  0  0  0  0  0  0  0  0  0
   -1.3686   -1.1729   -0.5099 C   0  0  0  0  0  0  0  0  0  0  0  0
    1.2315   -1.5547   -0.8059 H   0  0  0  0  0  0  0  0  0  0  0  0
    2.2220   -1.2247    0.7194 H   0  0  0  0  0  0  0  0  0  0  0  0
    2.4881   -0.2864   -0.7646 H   0  0  0  0  0  0  0  0  0  0  0  0
    1.8131    0.6023    1.8974 H   0  0  0  0  0  0  0  0  0  0  0  0
    1.0356    2.3533   -0.1217 H   0  0  0  0  0  0  0  0  0  0  0  0
    1.0642    1.2021   -1.6073 H   0  0  0  0  0  0  0  0  0  0  0  0
   -2.7691   -0.0368    0.8628 H   0  0  0  0  0  0  0  0  0  0  0  0
   -1.4592   -1.0455    1.7596 H   0  0  0  0  0  0  0  0  0  0  0  0
   -2.1267   -1.0552   -1.3396 H   0  0  0  0  0  0  0  0  0  0  0  0
   -0.9263   -2.1716   -0.4334 H   0  0  0  0  0  0  0  0  0  0  0  0
  1  2  1  0
  2  3  1  0
  2  4  1  0
  4  5  1  0
  5  6  2  0
  5  7  1  0
  7  8  1  0
  8  9  1  0
  7  2  1  0
  9  7  1  0
  1 10  1  0
  1 11  1  0
  1 12  1  0
  3 13  1  0
  4 14  1  0
  4 15  1  0
  8 16  1  0
  8 17  1  0
  9 18  1  0
  9 19  1  0
M  END
