
     RDKit          3D

 23 23  0  0  0  0  0  0  0  0999 V2000
   -0.4425    1.2778    0.9902 C   0  0  0  0  0  0  0  0  0  0  0  0
   -0.2233    0.2341   -0.0415 C   0  0  0  0  0  0  0  0  0  0  0  0
    1.1923    0.0678   -0.4877 C   0  0  0  0  0  0  0  0  0  0  0  0
    2.1440   -0.3089    0.6038 C   0  0  0  0  0  0  0  0  0  0  0  0
    3.4164   -0.4232    0.0182 O   0  0  0  0  0  0  0  0  0  0  0  0
   -0.8236   -1.0924    0.3415 C   0  0  0  0  0  0  0  0  0  0  0  0
   -2.2750   -0.8669   -0.0920 C   0  0  0  0  0  0  0  0  0  0  0  0
   -2.2472   -0.0384   -1.1777 O   0  0  0  0  0  0  0  0  0  0  0  0
   -1.0501    0.6035   -1.2610 C   0  0  0  0  0  0  0  0  0  0  0  0
   -1.2511    0.9698    1.7122 H   0  0  0  0  0  0  0  0  0  0  0  0
    0.4254    1.5452    1.5952 H   0  0  0  0  0  0  0  0  0  0  0  0
   -0.8337    2.2337    0.5425 H   0  0  0  0  0  0  0  0  0  0  0  0
    1.5971    0.9441   -1.0254 H   0  0  0  0  0  0  0  0  0  0  0  0
    1.2036   -0.7707   -1.2321 H   0  0  0  0  0  0  0  0  0  0  0  0
    1.8938   -1.3133    1.0232 H   0  0  0  0  0  0  0  0  0  0  0  0
    2.2393    0.4546    1.3926 H   0  0  0  0  0  0  0  0  0  0  0  0
    3.4339   -0.1491   -0.9157 H   0  0  0  0  0  0  0  0  0  0  0  0
   -0.3926   -1.8608   -0.3383 H   0  0  0  0  0  0  0  0  0  0  0  0
   -0.7357   -1.3397    1.3981 H   0  0  0  0  0  0  0  0  0  0  0  0
   -2.7757   -1.8157   -0.3534 H   0  0  0  0  0  0  0  0  0  0  0  0
   -2.7763   -0.4047    0.8032 H   0  0  0  0  0  0  0  0  0  0  0  0
   -1.2212    1.6992   -1.2948 H   0  0  0  0  0  0  0  0  0  0  0  0
   -0.4978    0.3537   -2.2010 H   0  0  0  0  0  0  0  0  0  0  0  0
  1  2  1  0
  2  3  1  0
  3  4  1  0
  4  5  1  0
  2  6  1  0
  6  7  1  0
  7  8  1  0
  8  9  1  0
  9  2  1  0
  1 10  1  0
  1 11  1  0
  1 12  1  0
  3 13  1  0
  3 14  1  0
  4 15  1  0
  4 16  1  0
  5 17  1  0
  6 18  1  0
  6 19  1  0
  7 20  1  0
  7 21  1  0
  9 22  1  0
  9 23  1  0
M  END
