
     RDKit          3D

 16 16  0  0  0  0  0  0  0  0999 V2000
   -0.5090    1.4920    0.3142 C   0  0  0  0  0  0  0  0  0  0  0  0
   -0.1688    0.0807   -0.0790 C   0  0  0  0  0  0  0  0  0  0  0  0
   -1.3988   -0.7186   -0.4151 C   0  0  0  0  0  0  0  0  0  0  0  0
    0.6442   -0.6535    0.9277 C   0  0  0  0  0  0  0  0  0  0  0  0
    1.9733   -0.7581    0.3923 O   0  0  0  0  0  0  0  0  0  0  0  0
    1.9503   -0.2574   -0.8995 C   0  0  0  0  0  0  0  0  0  0  0  0
    2.9702   -0.2015   -1.6308 O   0  0  0  0  0  0  0  0  0  0  0  0
    0.6698    0.1545   -1.2378 O   0  0  0  0  0  0  0  0  0  0  0  0
    0.0751    2.2357   -0.2625 H   0  0  0  0  0  0  0  0  0  0  0  0
   -1.5853    1.6673    0.0167 H   0  0  0  0  0  0  0  0  0  0  0  0
   -0.4563    1.6830    1.3839 H   0  0  0  0  0  0  0  0  0  0  0  0
   -1.6677   -1.4349    0.4090 H   0  0  0  0  0  0  0  0  0  0  0  0
   -2.2307   -0.0116   -0.5571 H   0  0  0  0  0  0  0  0  0  0  0  0
   -1.2027   -1.3478   -1.2994 H   0  0  0  0  0  0  0  0  0  0  0  0
    0.2894   -1.7172    1.0055 H   0  0  0  0  0  0  0  0  0  0  0  0
    0.6469   -0.2128    1.9320 H   0  0  0  0  0  0  0  0  0  0  0  0
  1  2  1  0
  2  3  1  0
  2  4  1  0
  4  5  1  0
  5  6  1  0
  6  7  2  0
  6  8  1  0
  8  2  1  0
  1  9  1  0
  1 10  1  0
  1 11  1  0
  3 12  1  0
  3 13  1  0
  3 14  1  0
  4 15  1  0
  4 16  1  0
M  END
