
     RDKit          3D

 21 22  0  0  0  0  0  0  0  0999 V2000
   -1.6132   -0.8183    0.9911 C   0  0  0  0  0  0  0  0  0  0  0  0
   -1.0714   -0.0219   -0.1574 C   0  0  0  0  0  0  0  0  0  0  0  0
   -2.0095    0.7158   -0.8469 O   0  0  0  0  0  0  0  0  0  0  0  0
    0.1561   -0.3868   -0.8656 C   0  0  0  0  0  0  0  0  0  0  0  0
    0.9523   -1.5438   -0.2437 C   0  0  0  0  0  0  0  0  0  0  0  0
    1.9257   -0.7249    0.6160 C   0  0  0  0  0  0  0  0  0  0  0  0
    1.0004    0.1405    1.2446 O   0  0  0  0  0  0  0  0  0  0  0  0
    0.2793    0.6514    0.1741 C   0  0  0  0  0  0  0  0  0  0  0  0
    0.2946    2.1049   -0.1066 C   0  0  0  0  0  0  0  0  0  0  0  0
   -2.3220   -0.1646    1.5424 H   0  0  0  0  0  0  0  0  0  0  0  0
   -0.8177   -1.0938    1.7074 H   0  0  0  0  0  0  0  0  0  0  0  0
   -2.0871   -1.7272    0.5779 H   0  0  0  0  0  0  0  0  0  0  0  0
   -2.5414    1.3025   -0.2648 H   0  0  0  0  0  0  0  0  0  0  0  0
    0.3242   -0.1915   -1.9262 H   0  0  0  0  0  0  0  0  0  0  0  0
    1.4596   -2.1489   -0.9886 H   0  0  0  0  0  0  0  0  0  0  0  0
    0.2998   -2.1776    0.3769 H   0  0  0  0  0  0  0  0  0  0  0  0
    2.4770   -1.3379    1.3224 H   0  0  0  0  0  0  0  0  0  0  0  0
    2.5250   -0.1198   -0.0719 H   0  0  0  0  0  0  0  0  0  0  0  0
   -0.6985    2.5256    0.2309 H   0  0  0  0  0  0  0  0  0  0  0  0
    0.3982    2.3891   -1.1596 H   0  0  0  0  0  0  0  0  0  0  0  0
    1.0685    2.6273    0.5050 H   0  0  0  0  0  0  0  0  0  0  0  0
  1  2  1  0
  2  3  1  0
  2  4  1  0
  4  5  1  0
  5  6  1  0
  6  7  1  0
  7  8  1  0
  8  9  1  0
  8  2  1  0
  8  4  1  0
  1 10  1  0
  1 11  1  0
  1 12  1  0
  3 13  1  0
  4 14  1  0
  5 15  1  0
  5 16  1  0
  6 17  1  0
  6 18  1  0
  9 19  1  0
  9 20  1  0
  9 21  1  0
M  END
