
     RDKit          3D

 21 21  0  0  0  0  0  0  0  0999 V2000
   -2.2810    0.0787    0.0671 C   0  0  0  0  0  0  0  0  0  0  0  0
   -0.7723    0.0542   -0.1701 C   0  0  0  0  0  0  0  0  0  0  0  0
   -0.6051    0.2108   -1.5545 O   0  0  0  0  0  0  0  0  0  0  0  0
   -0.1911    1.2118    0.5842 C   0  0  0  0  0  0  0  0  0  0  0  0
    1.1976    1.5318    0.1330 C   0  0  0  0  0  0  0  0  0  0  0  0
    2.1806    0.7170   -0.1677 C   0  0  0  0  0  0  0  0  0  0  0  0
    2.1983   -0.7221   -0.1475 C   0  0  0  0  0  0  0  0  0  0  0  0
    1.1484   -1.5149    0.0516 C   0  0  0  0  0  0  0  0  0  0  0  0
   -0.2712   -1.2765    0.2997 C   0  0  0  0  0  0  0  0  0  0  0  0
   -2.7500    0.9249   -0.4461 H   0  0  0  0  0  0  0  0  0  0  0  0
   -2.4368    0.2236    1.1589 H   0  0  0  0  0  0  0  0  0  0  0  0
   -2.7312   -0.9069   -0.1855 H   0  0  0  0  0  0  0  0  0  0  0  0
   -1.4055   -0.1198   -2.0408 H   0  0  0  0  0  0  0  0  0  0  0  0
   -0.2033    0.9441    1.6648 H   0  0  0  0  0  0  0  0  0  0  0  0
   -0.8022    2.1129    0.3716 H   0  0  0  0  0  0  0  0  0  0  0  0
    1.4684    2.5831    0.0272 H   0  0  0  0  0  0  0  0  0  0  0  0
    3.0977    1.1885   -0.4704 H   0  0  0  0  0  0  0  0  0  0  0  0
    3.1552   -1.2350   -0.3090 H   0  0  0  0  0  0  0  0  0  0  0  0
    1.4242   -2.5621    0.0197 H   0  0  0  0  0  0  0  0  0  0  0  0
   -0.8477   -2.0580   -0.2537 H   0  0  0  0  0  0  0  0  0  0  0  0
   -0.5730   -1.3860    1.3676 H   0  0  0  0  0  0  0  0  0  0  0  0
  1  2  1  0
  2  3  1  0
  2  4  1  0
  4  5  1  0
  5  6  2  0
  6  7  1  0
  7  8  2  0
  8  9  1  0
  9  2  1  0
  1 10  1  0
  1 11  1  0
  1 12  1  0
  3 13  1  0
  4 14  1  0
  4 15  1  0
  5 16  1  0
  6 17  1  0
  7 18  1  0
  8 19  1  0
  9 20  1  0
  9 21  1  0
M  END
