
     RDKit          3D

 23 23  0  0  0  0  0  0  0  0999 V2000
    1.2886   -1.4593    0.9964 C   0  0  0  0  0  0  0  0  0  0  0  0
    0.5713   -0.2754    0.3443 C   0  0  0  0  0  0  0  0  0  0  0  0
    1.6652    0.6500   -0.1612 C   0  0  0  0  0  0  0  0  0  0  0  0
    1.1645    1.7737   -0.7796 O   0  0  0  0  0  0  0  0  0  0  0  0
   -0.2529   -0.8243   -0.8002 C   0  0  0  0  0  0  0  0  0  0  0  0
   -1.6817   -0.7387   -0.2404 C   0  0  0  0  0  0  0  0  0  0  0  0
   -1.6003    0.6162    0.4481 C   0  0  0  0  0  0  0  0  0  0  0  0
   -1.4489    1.5781   -0.5235 O   0  0  0  0  0  0  0  0  0  0  0  0
   -0.3579    0.4100    1.2896 C   0  0  0  0  0  0  0  0  0  0  0  0
    0.5347   -2.1808    1.3573 H   0  0  0  0  0  0  0  0  0  0  0  0
    1.9077   -1.1175    1.8316 H   0  0  0  0  0  0  0  0  0  0  0  0
    1.8796   -1.9536    0.2050 H   0  0  0  0  0  0  0  0  0  0  0  0
    2.2965    0.9779    0.6891 H   0  0  0  0  0  0  0  0  0  0  0  0
    2.3230    0.0588   -0.8251 H   0  0  0  0  0  0  0  0  0  0  0  0
    1.4534    2.6172   -0.3244 H   0  0  0  0  0  0  0  0  0  0  0  0
    0.0159   -1.8386   -1.0911 H   0  0  0  0  0  0  0  0  0  0  0  0
   -0.2484   -0.1027   -1.6643 H   0  0  0  0  0  0  0  0  0  0  0  0
   -1.8344   -1.5584    0.4930 H   0  0  0  0  0  0  0  0  0  0  0  0
   -2.4296   -0.6996   -1.0317 H   0  0  0  0  0  0  0  0  0  0  0  0
   -2.4783    0.7946    1.0997 H   0  0  0  0  0  0  0  0  0  0  0  0
   -2.1629    2.2384   -0.5770 H   0  0  0  0  0  0  0  0  0  0  0  0
   -0.6337   -0.3214    2.0874 H   0  0  0  0  0  0  0  0  0  0  0  0
    0.0286    1.3553    1.6957 H   0  0  0  0  0  0  0  0  0  0  0  0
  1  2  1  0
  2  3  1  0
  3  4  1  0
  2  5  1  0
  5  6  1  0
  6  7  1  0
  7  8  1  0
  7  9  1  0
  9  2  1  0
  1 10  1  0
  1 11  1  0
  1 12  1  0
  3 13  1  0
  3 14  1  0
  4 15  1  0
  5 16  1  0
  5 17  1  0
  6 18  1  0
  6 19  1  0
  7 20  1  0
  8 21  1  0
  9 22  1  0
  9 23  1  0
M  END
