
     RDKit          3D

 12 12  0  0  0  0  0  0  0  0999 V2000
   -1.3007    0.4024   -0.2079 C   0  0  0  0  0  0  0  0  0  0  0  0
    0.0916    0.1762    0.2832 C   0  0  0  0  0  0  0  0  0  0  0  0
    1.2067    0.8943   -0.3664 C   0  0  0  0  0  0  0  0  0  0  0  0
    1.8345    1.6673    0.3945 O   0  0  0  0  0  0  0  0  0  0  0  0
    0.4237   -1.3379    0.3511 C   0  0  0  0  0  0  0  0  0  0  0  0
    0.2392   -0.4932    1.4961 O   0  0  0  0  0  0  0  0  0  0  0  0
   -1.7134   -0.4029   -0.8391 H   0  0  0  0  0  0  0  0  0  0  0  0
   -2.0158    0.5149    0.6848 H   0  0  0  0  0  0  0  0  0  0  0  0
   -1.3659    1.4338   -0.6748 H   0  0  0  0  0  0  0  0  0  0  0  0
    1.5205    0.7947   -1.4030 H   0  0  0  0  0  0  0  0  0  0  0  0
    1.4599   -1.6241    0.2083 H   0  0  0  0  0  0  0  0  0  0  0  0
   -0.3804   -2.0256    0.0732 H   0  0  0  0  0  0  0  0  0  0  0  0
  1  2  1  0
  2  3  1  0
  3  4  2  0
  2  5  1  0
  5  6  1  0
  6  2  1  0
  1  7  1  0
  1  8  1  0
  1  9  1  0
  3 10  1  0
  5 11  1  0
  5 12  1  0
M  END
