
     RDKit          3D

 18 18  0  0  0  0  0  0  0  0999 V2000
   -1.9418   -0.4442    0.9096 C   0  0  0  0  0  0  0  0  0  0  0  0
   -0.7437   -0.2354    0.0329 C   0  0  0  0  0  0  0  0  0  0  0  0
   -0.8396   -0.8403   -1.2156 O   0  0  0  0  0  0  0  0  0  0  0  0
   -0.1435    1.1481    0.1290 C   0  0  0  0  0  0  0  0  0  0  0  0
    0.0764    1.7372   -1.1175 O   0  0  0  0  0  0  0  0  0  0  0  0
    0.6091   -0.0287    0.5804 C   0  0  0  0  0  0  0  0  0  0  0  0
    1.7666   -0.5496   -0.2471 C   0  0  0  0  0  0  0  0  0  0  0  0
    2.9925   -0.3193    0.3287 O   0  0  0  0  0  0  0  0  0  0  0  0
   -2.7126    0.3126    0.5882 H   0  0  0  0  0  0  0  0  0  0  0  0
   -1.6691   -0.3148    1.9745 H   0  0  0  0  0  0  0  0  0  0  0  0
   -2.4368   -1.4328    0.7320 H   0  0  0  0  0  0  0  0  0  0  0  0
   -1.3552   -1.6582   -1.1337 H   0  0  0  0  0  0  0  0  0  0  0  0
   -0.5237    1.8494    0.8968 H   0  0  0  0  0  0  0  0  0  0  0  0
   -0.7745    2.2305   -1.3293 H   0  0  0  0  0  0  0  0  0  0  0  0
    0.8170   -0.0953    1.6810 H   0  0  0  0  0  0  0  0  0  0  0  0
    1.6446   -1.6434   -0.4178 H   0  0  0  0  0  0  0  0  0  0  0  0
    1.7462   -0.0858   -1.2568 H   0  0  0  0  0  0  0  0  0  0  0  0
    3.4882    0.3702   -0.1810 H   0  0  0  0  0  0  0  0  0  0  0  0
  1  2  1  0
  2  3  1  0
  2  4  1  0
  4  5  1  0
  4  6  1  0
  6  7  1  0
  7  8  1  0
  6  2  1  0
  1  9  1  0
  1 10  1  0
  1 11  1  0
  3 12  1  0
  4 13  1  0
  5 14  1  0
  6 15  1  0
  7 16  1  0
  7 17  1  0
  8 18  1  0
M  END
