
     RDKit          3D

 22 22  0  0  0  0  0  0  0  0999 V2000
   -2.3226   -0.2348    0.9518 C   0  0  0  0  0  0  0  0  0  0  0  0
   -1.0170    0.0309    0.1613 C   0  0  0  0  0  0  0  0  0  0  0  0
   -1.0029    1.3700   -0.4628 C   0  0  0  0  0  0  0  0  0  0  0  0
   -0.6052   -1.0832   -0.8048 C   0  0  0  0  0  0  0  0  0  0  0  0
    0.0978   -0.8263    0.4905 C   0  0  0  0  0  0  0  0  0  0  0  0
    1.5334   -0.5216    0.5656 C   0  0  0  0  0  0  0  0  0  0  0  0
    2.2659   -0.0375   -0.6158 C   0  0  0  0  0  0  0  0  0  0  0  0
    1.8393    1.1562   -1.1742 O   0  0  0  0  0  0  0  0  0  0  0  0
   -2.5454   -1.3156    0.9005 H   0  0  0  0  0  0  0  0  0  0  0  0
   -3.1301    0.4178    0.6138 H   0  0  0  0  0  0  0  0  0  0  0  0
   -2.0522    0.0001    2.0025 H   0  0  0  0  0  0  0  0  0  0  0  0
   -0.3828    2.1008    0.0723 H   0  0  0  0  0  0  0  0  0  0  0  0
   -2.0401    1.8255   -0.4152 H   0  0  0  0  0  0  0  0  0  0  0  0
   -0.8320    1.3587   -1.5789 H   0  0  0  0  0  0  0  0  0  0  0  0
   -0.0378   -0.8161   -1.7079 H   0  0  0  0  0  0  0  0  0  0  0  0
   -1.3519   -1.8572   -0.9467 H   0  0  0  0  0  0  0  0  0  0  0  0
   -0.1632   -1.6701    1.2225 H   0  0  0  0  0  0  0  0  0  0  0  0
    1.6890    0.2193    1.3895 H   0  0  0  0  0  0  0  0  0  0  0  0
    2.1042   -1.4299    0.9332 H   0  0  0  0  0  0  0  0  0  0  0  0
    3.3229    0.1850   -0.2658 H   0  0  0  0  0  0  0  0  0  0  0  0
    2.4365   -0.8221   -1.3994 H   0  0  0  0  0  0  0  0  0  0  0  0
    2.1942    1.9503   -0.7129 H   0  0  0  0  0  0  0  0  0  0  0  0
  1  2  1  0
  2  3  1  0
  2  4  1  0
  4  5  1  0
  5  6  1  0
  6  7  1  0
  7  8  1  0
  5  2  1  0
  1  9  1  0
  1 10  1  0
  1 11  1  0
  3 12  1  0
  3 13  1  0
  3 14  1  0
  4 15  1  0
  4 16  1  0
  5 17  1  0
  6 18  1  0
  6 19  1  0
  7 20  1  0
  7 21  1  0
  8 22  1  0
M  END
