
     RDKit          3D

 19 20  0  0  0  0  0  0  0  0999 V2000
    2.0164    0.1341   -0.2932 C   0  0  0  0  0  0  0  0  0  0  0  0
    0.6176   -0.4276   -0.0634 C   0  0  0  0  0  0  0  0  0  0  0  0
    0.5080   -1.7192   -0.5831 O   0  0  0  0  0  0  0  0  0  0  0  0
    0.3674   -0.5346    1.4018 C   0  0  0  0  0  0  0  0  0  0  0  0
   -0.6744    0.1943    1.7700 C   0  0  0  0  0  0  0  0  0  0  0  0
   -1.2485    0.8797    0.5874 C   0  0  0  0  0  0  0  0  0  0  0  0
   -2.3810    0.2400    0.1085 O   0  0  0  0  0  0  0  0  0  0  0  0
   -1.7047   -0.0483   -1.0723 C   0  0  0  0  0  0  0  0  0  0  0  0
   -0.4150    0.4909   -0.5768 C   0  0  0  0  0  0  0  0  0  0  0  0
    2.5136    0.3139    0.6830 H   0  0  0  0  0  0  0  0  0  0  0  0
    2.5936   -0.6135   -0.8955 H   0  0  0  0  0  0  0  0  0  0  0  0
    1.9823    1.1122   -0.8202 H   0  0  0  0  0  0  0  0  0  0  0  0
    1.1101   -1.8430   -1.3391 H   0  0  0  0  0  0  0  0  0  0  0  0
    0.9675   -1.1394    2.0927 H   0  0  0  0  0  0  0  0  0  0  0  0
   -1.0293    0.2583    2.7945 H   0  0  0  0  0  0  0  0  0  0  0  0
   -1.3202    1.9831    0.6584 H   0  0  0  0  0  0  0  0  0  0  0  0
   -1.7457   -1.1216   -1.3387 H   0  0  0  0  0  0  0  0  0  0  0  0
   -2.1447    0.5549   -1.8949 H   0  0  0  0  0  0  0  0  0  0  0  0
   -0.0129    1.2858   -1.2191 H   0  0  0  0  0  0  0  0  0  0  0  0
  1  2  1  0
  2  3  1  0
  2  4  1  0
  4  5  2  0
  5  6  1  0
  6  7  1  0
  7  8  1  0
  8  9  1  0
  9  2  1  0
  9  6  1  0
  1 10  1  0
  1 11  1  0
  1 12  1  0
  3 13  1  0
  4 14  1  0
  5 15  1  0
  6 16  1  0
  8 17  1  0
  8 18  1  0
  9 19  1  0
M  END
