
     RDKit          3D

 19 20  0  0  0  0  0  0  0  0999 V2000
   -1.4000   -0.3615   -1.0770 C   0  0  0  0  0  0  0  0  0  0  0  0
   -0.6180   -0.1594    0.2215 C   0  0  0  0  0  0  0  0  0  0  0  0
   -1.4330    0.4041    1.3511 C   0  0  0  0  0  0  0  0  0  0  0  0
    0.5297   -1.0473    0.4325 C   0  0  0  0  0  0  0  0  0  0  0  0
    1.6004   -0.7226    1.4010 C   0  0  0  0  0  0  0  0  0  0  0  0
    2.3510   -1.4385    2.1062 O   0  0  0  0  0  0  0  0  0  0  0  0
    1.4742    0.6514    1.2474 O   0  0  0  0  0  0  0  0  0  0  0  0
    0.7367    0.3798    0.0555 C   0  0  0  0  0  0  0  0  0  0  0  0
    1.3194    0.7564   -1.2647 C   0  0  0  0  0  0  0  0  0  0  0  0
   -2.4700   -0.5664   -0.8724 H   0  0  0  0  0  0  0  0  0  0  0  0
   -0.9725   -1.1686   -1.6818 H   0  0  0  0  0  0  0  0  0  0  0  0
   -1.3095    0.6052   -1.6280 H   0  0  0  0  0  0  0  0  0  0  0  0
   -2.1732    1.1164    0.8811 H   0  0  0  0  0  0  0  0  0  0  0  0
   -0.8145    1.0597    2.0200 H   0  0  0  0  0  0  0  0  0  0  0  0
   -1.9483   -0.3488    1.9504 H   0  0  0  0  0  0  0  0  0  0  0  0
    0.7622   -1.7977   -0.3759 H   0  0  0  0  0  0  0  0  0  0  0  0
    0.6524    1.5222   -1.7307 H   0  0  0  0  0  0  0  0  0  0  0  0
    1.4050   -0.1232   -1.9384 H   0  0  0  0  0  0  0  0  0  0  0  0
    2.3081    1.2387   -1.0979 H   0  0  0  0  0  0  0  0  0  0  0  0
  1  2  1  0
  2  3  1  0
  2  4  1  0
  4  5  1  0
  5  6  2  0
  5  7  1  0
  7  8  1  0
  8  9  1  0
  8  2  1  0
  8  4  1  0
  1 10  1  0
  1 11  1  0
  1 12  1  0
  3 13  1  0
  3 14  1  0
  3 15  1  0
  4 16  1  0
  9 17  1  0
  9 18  1  0
  9 19  1  0
M  END
