
     RDKit          3D

 21 21  0  0  0  0  0  0  0  0999 V2000
    2.0954   -0.4532    0.3809 C   0  0  0  0  0  0  0  0  0  0  0  0
    0.9722    0.3617   -0.2488 C   0  0  0  0  0  0  0  0  0  0  0  0
    1.5787    1.2562   -1.1634 O   0  0  0  0  0  0  0  0  0  0  0  0
    0.1572   -0.5584   -1.0567 C   0  0  0  0  0  0  0  0  0  0  0  0
   -1.0342   -1.1013   -0.9275 C   0  0  0  0  0  0  0  0  0  0  0  0
   -1.9840   -0.9218    0.1754 C   0  0  0  0  0  0  0  0  0  0  0  0
   -1.8913    0.5187    0.6391 C   0  0  0  0  0  0  0  0  0  0  0  0
   -0.7348    0.5478    1.4515 O   0  0  0  0  0  0  0  0  0  0  0  0
    0.2656    1.1622    0.7576 C   0  0  0  0  0  0  0  0  0  0  0  0
    2.3402   -1.2888   -0.3083 H   0  0  0  0  0  0  0  0  0  0  0  0
    1.8028   -0.8820    1.3388 H   0  0  0  0  0  0  0  0  0  0  0  0
    3.0205    0.1640    0.4790 H   0  0  0  0  0  0  0  0  0  0  0  0
    2.4688    0.9769   -1.4239 H   0  0  0  0  0  0  0  0  0  0  0  0
    0.6571   -0.8617   -1.9780 H   0  0  0  0  0  0  0  0  0  0  0  0
   -1.3837   -1.7626   -1.7095 H   0  0  0  0  0  0  0  0  0  0  0  0
   -3.0330   -1.1806   -0.1066 H   0  0  0  0  0  0  0  0  0  0  0  0
   -1.6883   -1.6250    1.0070 H   0  0  0  0  0  0  0  0  0  0  0  0
   -2.7767    0.8726    1.1595 H   0  0  0  0  0  0  0  0  0  0  0  0
   -1.7223    1.1418   -0.2862 H   0  0  0  0  0  0  0  0  0  0  0  0
   -0.1332    2.1131    0.3037 H   0  0  0  0  0  0  0  0  0  0  0  0
    1.0230    1.5202    1.5166 H   0  0  0  0  0  0  0  0  0  0  0  0
  1  2  1  0
  2  3  1  0
  2  4  1  0
  4  5  2  0
  5  6  1  0
  6  7  1  0
  7  8  1  0
  8  9  1  0
  9  2  1  0
  1 10  1  0
  1 11  1  0
  1 12  1  0
  3 13  1  0
  4 14  1  0
  5 15  1  0
  6 16  1  0
  6 17  1  0
  7 18  1  0
  7 19  1  0
  9 20  1  0
  9 21  1  0
M  END
