
     RDKit          3D

 23 24  0  0  0  0  0  0  0  0999 V2000
    2.7884   -0.6614    0.3871 C   0  0  0  0  0  0  0  0  0  0  0  0
    1.6429    0.2930    0.3051 C   0  0  0  0  0  0  0  0  0  0  0  0
    1.9309    1.6323    0.5038 O   0  0  0  0  0  0  0  0  0  0  0  0
    0.4395   -0.0835    1.1719 C   0  0  0  0  0  0  0  0  0  0  0  0
   -0.4250    0.3913    0.0062 C   0  0  0  0  0  0  0  0  0  0  0  0
   -1.6383   -0.4775   -0.1038 C   0  0  0  0  0  0  0  0  0  0  0  0
   -2.6536   -0.1996   -1.1947 C   0  0  0  0  0  0  0  0  0  0  0  0
   -2.9425    0.2493    0.1858 C   0  0  0  0  0  0  0  0  0  0  0  0
    0.7296    0.0249   -0.8991 C   0  0  0  0  0  0  0  0  0  0  0  0
    3.0043   -0.9652    1.4491 H   0  0  0  0  0  0  0  0  0  0  0  0
    3.6655   -0.1986   -0.0881 H   0  0  0  0  0  0  0  0  0  0  0  0
    2.5566   -1.5864   -0.1639 H   0  0  0  0  0  0  0  0  0  0  0  0
    2.7417    1.9459    0.0675 H   0  0  0  0  0  0  0  0  0  0  0  0
    0.2806    0.5527    2.0422 H   0  0  0  0  0  0  0  0  0  0  0  0
    0.4068   -1.1651    1.3053 H   0  0  0  0  0  0  0  0  0  0  0  0
   -0.6082    1.4625   -0.0260 H   0  0  0  0  0  0  0  0  0  0  0  0
   -1.5877   -1.4924    0.3353 H   0  0  0  0  0  0  0  0  0  0  0  0
   -2.3022    0.5686   -1.9357 H   0  0  0  0  0  0  0  0  0  0  0  0
   -3.1702   -1.0640   -1.6456 H   0  0  0  0  0  0  0  0  0  0  0  0
   -3.7249   -0.2814    0.7784 H   0  0  0  0  0  0  0  0  0  0  0  0
   -2.9165    1.3333    0.3800 H   0  0  0  0  0  0  0  0  0  0  0  0
    0.8121   -1.0371   -1.1713 H   0  0  0  0  0  0  0  0  0  0  0  0
    0.9700    0.7582   -1.6897 H   0  0  0  0  0  0  0  0  0  0  0  0
  1  2  1  0
  2  3  1  0
  2  4  1  0
  4  5  1  0
  5  6  1  0
  6  7  1  0
  7  8  1  0
  5  9  1  0
  9  2  1  0
  8  6  1  0
  1 10  1  0
  1 11  1  0
  1 12  1  0
  3 13  1  0
  4 14  1  0
  4 15  1  0
  5 16  1  0
  6 17  1  0
  7 18  1  0
  7 19  1  0
  8 20  1  0
  8 21  1  0
  9 22  1  0
  9 23  1  0
M  END
