
     RDKit          3D

 20 21  0  0  0  0  0  0  0  0999 V2000
   -1.2401    1.1015    0.8057 C   0  0  0  0  0  0  0  0  0  0  0  0
   -0.4154    0.0609    0.0925 C   0  0  0  0  0  0  0  0  0  0  0  0
   -1.3137   -0.8041   -0.7369 C   0  0  0  0  0  0  0  0  0  0  0  0
    0.6528    0.7297   -0.7951 C   0  0  0  0  0  0  0  0  0  0  0  0
    1.6813   -0.3476   -0.6925 C   0  0  0  0  0  0  0  0  0  0  0  0
    2.7351   -0.5208    0.0454 O   0  0  0  0  0  0  0  0  0  0  0  0
    1.7613   -0.2255    0.8634 C   0  0  0  0  0  0  0  0  0  0  0  0
    0.4034   -0.7662    1.0972 C   0  0  0  0  0  0  0  0  0  0  0  0
   -1.7249    1.7206    0.0404 H   0  0  0  0  0  0  0  0  0  0  0  0
   -2.0153    0.5871    1.3711 H   0  0  0  0  0  0  0  0  0  0  0  0
   -0.6137    1.7638    1.4401 H   0  0  0  0  0  0  0  0  0  0  0  0
   -2.0687   -0.1432   -1.2110 H   0  0  0  0  0  0  0  0  0  0  0  0
   -0.7739   -1.3026   -1.5773 H   0  0  0  0  0  0  0  0  0  0  0  0
   -1.7477   -1.6011   -0.1201 H   0  0  0  0  0  0  0  0  0  0  0  0
    0.9604    1.6396   -0.2365 H   0  0  0  0  0  0  0  0  0  0  0  0
    0.2860    0.9323   -1.7956 H   0  0  0  0  0  0  0  0  0  0  0  0
    1.2433   -1.3256   -1.0678 H   0  0  0  0  0  0  0  0  0  0  0  0
    1.8449    0.8299    1.2688 H   0  0  0  0  0  0  0  0  0  0  0  0
    0.2592   -1.8263    0.8775 H   0  0  0  0  0  0  0  0  0  0  0  0
    0.0856   -0.5023    2.1372 H   0  0  0  0  0  0  0  0  0  0  0  0
  1  2  1  0
  2  3  1  0
  2  4  1  0
  4  5  1  0
  5  6  1  0
  6  7  1  0
  7  8  1  0
  8  2  1  0
  7  5  1  0
  1  9  1  0
  1 10  1  0
  1 11  1  0
  3 12  1  0
  3 13  1  0
  3 14  1  0
  4 15  1  0
  4 16  1  0
  5 17  1  0
  7 18  1  0
  8 19  1  0
  8 20  1  0
M  END
