
     RDKit          3D

 19 19  0  0  0  0  0  0  0  0999 V2000
   -1.9742   -0.6672   -0.5448 C   0  0  0  0  0  0  0  0  0  0  0  0
   -0.8866   -0.3806    0.4647 C   0  0  0  0  0  0  0  0  0  0  0  0
    0.0192    0.7588    0.1339 C   0  0  0  0  0  0  0  0  0  0  0  0
    0.7640    0.5854   -1.1483 C   0  0  0  0  0  0  0  0  0  0  0  0
    1.5953   -0.5543   -1.1788 O   0  0  0  0  0  0  0  0  0  0  0  0
    2.6420   -0.7666   -0.2984 C   0  0  0  0  0  0  0  0  0  0  0  0
    2.8529    0.1145    0.5724 O   0  0  0  0  0  0  0  0  0  0  0  0
   -0.6556   -1.3364    1.5063 C   0  0  0  0  0  0  0  0  0  0  0  0
   -1.5065   -0.1360    1.7937 O   0  0  0  0  0  0  0  0  0  0  0  0
   -2.8569   -0.0149   -0.3123 H   0  0  0  0  0  0  0  0  0  0  0  0
   -1.6320   -0.4626   -1.5672 H   0  0  0  0  0  0  0  0  0  0  0  0
   -2.2521   -1.7486   -0.5024 H   0  0  0  0  0  0  0  0  0  0  0  0
    0.7334    1.0136    0.9320 H   0  0  0  0  0  0  0  0  0  0  0  0
   -0.6245    1.6780   -0.0031 H   0  0  0  0  0  0  0  0  0  0  0  0
    1.4651    1.4696   -1.2277 H   0  0  0  0  0  0  0  0  0  0  0  0
    0.1245    0.6621   -2.0463 H   0  0  0  0  0  0  0  0  0  0  0  0
    3.2780   -1.6338   -0.3177 H   0  0  0  0  0  0  0  0  0  0  0  0
    0.2275   -1.3855    2.1593 H   0  0  0  0  0  0  0  0  0  0  0  0
   -1.3133   -2.2125    1.5847 H   0  0  0  0  0  0  0  0  0  0  0  0
  1  2  1  0
  2  3  1  0
  3  4  1  0
  4  5  1  0
  5  6  1  0
  6  7  2  0
  2  8  1  0
  8  9  1  0
  9  2  1  0
  1 10  1  0
  1 11  1  0
  1 12  1  0
  3 13  1  0
  3 14  1  0
  4 15  1  0
  4 16  1  0
  6 17  1  0
  8 18  1  0
  8 19  1  0
M  END
