
     RDKit          3D

 23 24  0  0  0  0  0  0  0  0999 V2000
   -1.6338   -0.9334    1.0325 C   0  0  0  0  0  0  0  0  0  0  0  0
   -0.6671   -0.3527    0.0079 C   0  0  0  0  0  0  0  0  0  0  0  0
   -0.9832   -1.0064   -1.3105 C   0  0  0  0  0  0  0  0  0  0  0  0
   -0.9537    1.1144   -0.1187 C   0  0  0  0  0  0  0  0  0  0  0  0
    0.3930    1.7794   -0.2293 C   0  0  0  0  0  0  0  0  0  0  0  0
    1.3024    0.8616    0.5171 C   0  0  0  0  0  0  0  0  0  0  0  0
    1.9106   -0.2455   -0.3477 C   0  0  0  0  0  0  0  0  0  0  0  0
    3.1324   -0.7480    0.0767 O   0  0  0  0  0  0  0  0  0  0  0  0
    0.7292   -0.5213    0.4627 C   0  0  0  0  0  0  0  0  0  0  0  0
   -1.3151   -0.7202    2.0591 H   0  0  0  0  0  0  0  0  0  0  0  0
   -1.7792   -2.0167    0.9067 H   0  0  0  0  0  0  0  0  0  0  0  0
   -2.6140   -0.4120    0.8354 H   0  0  0  0  0  0  0  0  0  0  0  0
   -0.3970   -0.6152   -2.1520 H   0  0  0  0  0  0  0  0  0  0  0  0
   -2.0559   -0.7389   -1.5386 H   0  0  0  0  0  0  0  0  0  0  0  0
   -0.9738   -2.1184   -1.2581 H   0  0  0  0  0  0  0  0  0  0  0  0
   -1.6295    1.3467   -0.9582 H   0  0  0  0  0  0  0  0  0  0  0  0
   -1.4216    1.4798    0.8183 H   0  0  0  0  0  0  0  0  0  0  0  0
    0.7077    1.8296   -1.3005 H   0  0  0  0  0  0  0  0  0  0  0  0
    0.3880    2.8193    0.1352 H   0  0  0  0  0  0  0  0  0  0  0  0
    1.8442    1.1847    1.4186 H   0  0  0  0  0  0  0  0  0  0  0  0
    1.8695   -0.1095   -1.4591 H   0  0  0  0  0  0  0  0  0  0  0  0
    3.2692   -0.7116    1.0446 H   0  0  0  0  0  0  0  0  0  0  0  0
    0.8777   -1.1656    1.3578 H   0  0  0  0  0  0  0  0  0  0  0  0
  1  2  1  0
  2  3  1  0
  2  4  1  0
  4  5  1  0
  5  6  1  0
  6  7  1  0
  7  8  1  0
  7  9  1  0
  9  2  1  0
  9  6  1  0
  1 10  1  0
  1 11  1  0
  1 12  1  0
  3 13  1  0
  3 14  1  0
  3 15  1  0
  4 16  1  0
  4 17  1  0
  5 18  1  0
  5 19  1  0
  6 20  1  0
  7 21  1  0
  8 22  1  0
  9 23  1  0
M  END
