
     RDKit          3D

 20 21  0  0  0  0  0  0  0  0999 V2000
   -0.7599   -1.5742   -0.0889 C   0  0  0  0  0  0  0  0  0  0  0  0
   -0.2993   -0.1340   -0.1067 C   0  0  0  0  0  0  0  0  0  0  0  0
   -1.4783    0.8118   -0.0477 C   0  0  0  0  0  0  0  0  0  0  0  0
   -2.2388    0.6499    1.0857 O   0  0  0  0  0  0  0  0  0  0  0  0
    0.6335    0.1202   -1.2714 C   0  0  0  0  0  0  0  0  0  0  0  0
    1.7876    0.0252   -0.2777 C   0  0  0  0  0  0  0  0  0  0  0  0
    1.8384    1.1150    0.7137 C   0  0  0  0  0  0  0  0  0  0  0  0
    0.7716    0.1120    0.9025 C   0  0  0  0  0  0  0  0  0  0  0  0
   -1.7803   -1.6912   -0.5031 H   0  0  0  0  0  0  0  0  0  0  0  0
   -0.0993   -2.2100   -0.7143 H   0  0  0  0  0  0  0  0  0  0  0  0
   -0.7295   -2.0138    0.9316 H   0  0  0  0  0  0  0  0  0  0  0  0
   -2.1230    0.5785   -0.9411 H   0  0  0  0  0  0  0  0  0  0  0  0
   -1.1807    1.8665   -0.1467 H   0  0  0  0  0  0  0  0  0  0  0  0
   -3.0704    0.1542    0.8952 H   0  0  0  0  0  0  0  0  0  0  0  0
    0.6485   -0.6696   -2.0475 H   0  0  0  0  0  0  0  0  0  0  0  0
    0.6024    1.1632   -1.6697 H   0  0  0  0  0  0  0  0  0  0  0  0
    2.4095   -0.8641   -0.2527 H   0  0  0  0  0  0  0  0  0  0  0  0
    1.5252    2.1158    0.4023 H   0  0  0  0  0  0  0  0  0  0  0  0
    2.6708    1.0735    1.4366 H   0  0  0  0  0  0  0  0  0  0  0  0
    0.8720   -0.6290    1.6997 H   0  0  0  0  0  0  0  0  0  0  0  0
  1  2  1  0
  2  3  1  0
  3  4  1  0
  2  5  1  0
  5  6  1  0
  6  7  1  0
  7  8  1  0
  8  2  1  0
  8  6  1  0
  1  9  1  0
  1 10  1  0
  1 11  1  0
  3 12  1  0
  3 13  1  0
  4 14  1  0
  5 15  1  0
  5 16  1  0
  6 17  1  0
  7 18  1  0
  7 19  1  0
  8 20  1  0
M  END
