
     RDKit          3D

 21 22  0  0  0  0  0  0  0  0999 V2000
   -1.0170    1.4901   -0.6216 C   0  0  0  0  0  0  0  0  0  0  0  0
   -0.6966    0.1990    0.1006 C   0  0  0  0  0  0  0  0  0  0  0  0
   -1.4744    0.0965    1.3438 C   0  0  0  0  0  0  0  0  0  0  0  0
   -2.6696    0.3322    1.2972 O   0  0  0  0  0  0  0  0  0  0  0  0
   -1.0195   -1.0069   -0.7954 C   0  0  0  0  0  0  0  0  0  0  0  0
    0.2946   -1.6135   -0.2809 C   0  0  0  0  0  0  0  0  0  0  0  0
    0.7017   -0.2302    0.0957 C   0  0  0  0  0  0  0  0  0  0  0  0
    1.7553    0.0817    1.0182 C   0  0  0  0  0  0  0  0  0  0  0  0
    1.8226    0.4942   -0.4784 C   0  0  0  0  0  0  0  0  0  0  0  0
   -0.1767    1.7909   -1.2726 H   0  0  0  0  0  0  0  0  0  0  0  0
   -1.2602    2.2979    0.0846 H   0  0  0  0  0  0  0  0  0  0  0  0
   -1.8872    1.3167   -1.3111 H   0  0  0  0  0  0  0  0  0  0  0  0
   -1.0774   -0.1738    2.3156 H   0  0  0  0  0  0  0  0  0  0  0  0
   -0.9000   -0.7835   -1.8603 H   0  0  0  0  0  0  0  0  0  0  0  0
   -1.9073   -1.5622   -0.4934 H   0  0  0  0  0  0  0  0  0  0  0  0
    0.8860   -2.1260   -1.0519 H   0  0  0  0  0  0  0  0  0  0  0  0
    0.1087   -2.2492    0.6196 H   0  0  0  0  0  0  0  0  0  0  0  0
    1.7807    0.8952    1.7521 H   0  0  0  0  0  0  0  0  0  0  0  0
    2.4599   -0.7573    1.2970 H   0  0  0  0  0  0  0  0  0  0  0  0
    1.7510    1.5734   -0.6414 H   0  0  0  0  0  0  0  0  0  0  0  0
    2.5255   -0.0652   -1.1174 H   0  0  0  0  0  0  0  0  0  0  0  0
  1  2  1  0
  2  3  1  0
  3  4  2  0
  2  5  1  0
  5  6  1  0
  6  7  1  0
  7  8  1  0
  8  9  1  0
  7  2  1  0
  9  7  1  0
  1 10  1  0
  1 11  1  0
  1 12  1  0
  3 13  1  0
  5 14  1  0
  5 15  1  0
  6 16  1  0
  6 17  1  0
  8 18  1  0
  8 19  1  0
  9 20  1  0
  9 21  1  0
M  END
