
     RDKit          3D

 21 23  0  0  0  0  0  0  0  0999 V2000
   -0.3850    1.8401    0.1422 C   0  0  0  0  0  0  0  0  0  0  0  0
   -0.1856    0.4388   -0.3553 C   0  0  0  0  0  0  0  0  0  0  0  0
    1.2622    0.0829   -0.5560 C   0  0  0  0  0  0  0  0  0  0  0  0
    2.2209    0.1223    0.5709 C   0  0  0  0  0  0  0  0  0  0  0  0
    1.8355   -1.1936   -0.1298 C   0  0  0  0  0  0  0  0  0  0  0  0
   -0.9246    0.0969   -1.4917 O   0  0  0  0  0  0  0  0  0  0  0  0
   -1.6482   -0.8922   -0.8240 C   0  0  0  0  0  0  0  0  0  0  0  0
   -2.4709   -0.4295    0.3083 C   0  0  0  0  0  0  0  0  0  0  0  0
   -0.9976   -0.5335    0.4508 C   0  0  0  0  0  0  0  0  0  0  0  0
   -0.8582    1.8670    1.1462 H   0  0  0  0  0  0  0  0  0  0  0  0
   -1.0140    2.3670   -0.6254 H   0  0  0  0  0  0  0  0  0  0  0  0
    0.5955    2.3881    0.2518 H   0  0  0  0  0  0  0  0  0  0  0  0
    1.6620    0.4897   -1.5293 H   0  0  0  0  0  0  0  0  0  0  0  0
    3.2552    0.4748    0.3800 H   0  0  0  0  0  0  0  0  0  0  0  0
    1.8804    0.2421    1.6235 H   0  0  0  0  0  0  0  0  0  0  0  0
    2.6393   -1.6650   -0.7622 H   0  0  0  0  0  0  0  0  0  0  0  0
    1.3135   -1.9248    0.4972 H   0  0  0  0  0  0  0  0  0  0  0  0
   -1.5819   -1.9342   -1.1352 H   0  0  0  0  0  0  0  0  0  0  0  0
   -2.9133    0.5943    0.1803 H   0  0  0  0  0  0  0  0  0  0  0  0
   -3.1612   -1.1547    0.7569 H   0  0  0  0  0  0  0  0  0  0  0  0
   -0.5242   -1.2764    1.1007 H   0  0  0  0  0  0  0  0  0  0  0  0
  1  2  1  0
  2  3  1  0
  3  4  1  0
  4  5  1  0
  2  6  1  0
  6  7  1  0
  7  8  1  0
  8  9  1  0
  9  2  1  0
  5  3  1  0
  9  7  1  0
  1 10  1  0
  1 11  1  0
  1 12  1  0
  3 13  1  0
  4 14  1  0
  4 15  1  0
  5 16  1  0
  5 17  1  0
  7 18  1  0
  8 19  1  0
  8 20  1  0
  9 21  1  0
M  END
