
     RDKit          3D

 17 17  0  0  0  0  0  0  0  0999 V2000
   -1.2808    0.7639   -0.9853 C   0  0  0  0  0  0  0  0  0  0  0  0
   -0.7124   -0.0585    0.1679 C   0  0  0  0  0  0  0  0  0  0  0  0
   -1.8038   -0.3520    0.9897 O   0  0  0  0  0  0  0  0  0  0  0  0
    0.2235    0.8201    0.8986 C   0  0  0  0  0  0  0  0  0  0  0  0
    1.5184    0.7407    0.7234 C   0  0  0  0  0  0  0  0  0  0  0  0
    2.0906   -0.2148   -0.1953 C   0  0  0  0  0  0  0  0  0  0  0  0
    3.3405   -0.2557   -0.3332 O   0  0  0  0  0  0  0  0  0  0  0  0
    1.2229   -1.0471   -0.8858 O   0  0  0  0  0  0  0  0  0  0  0  0
   -0.0850   -1.3210   -0.3494 C   0  0  0  0  0  0  0  0  0  0  0  0
   -1.0693    1.8468   -0.8572 H   0  0  0  0  0  0  0  0  0  0  0  0
   -0.8483    0.3514   -1.9279 H   0  0  0  0  0  0  0  0  0  0  0  0
   -2.3786    0.6617   -1.0676 H   0  0  0  0  0  0  0  0  0  0  0  0
   -1.6435   -1.1471    1.5400 H   0  0  0  0  0  0  0  0  0  0  0  0
   -0.2014    1.5666    1.6172 H   0  0  0  0  0  0  0  0  0  0  0  0
    2.1614    1.4199    1.2933 H   0  0  0  0  0  0  0  0  0  0  0  0
    0.1039   -1.9791    0.5294 H   0  0  0  0  0  0  0  0  0  0  0  0
   -0.6379   -1.7959   -1.1578 H   0  0  0  0  0  0  0  0  0  0  0  0
  1  2  1  0
  2  3  1  0
  2  4  1  0
  4  5  2  0
  5  6  1  0
  6  7  2  0
  6  8  1  0
  8  9  1  0
  9  2  1  0
  1 10  1  0
  1 11  1  0
  1 12  1  0
  3 13  1  0
  4 14  1  0
  5 15  1  0
  9 16  1  0
  9 17  1  0
M  END
