
     RDKit          3D

 20 20  0  0  0  0  0  0  0  0999 V2000
   -2.1120    0.3889   -0.6871 C   0  0  0  0  0  0  0  0  0  0  0  0
   -0.8496    0.1046    0.0940 C   0  0  0  0  0  0  0  0  0  0  0  0
   -1.2327   -0.1689    1.4278 O   0  0  0  0  0  0  0  0  0  0  0  0
   -0.0408    1.3442    0.1432 C   0  0  0  0  0  0  0  0  0  0  0  0
    1.2641    1.3734    0.0994 C   0  0  0  0  0  0  0  0  0  0  0  0
    2.0515    0.1382   -0.0053 C   0  0  0  0  0  0  0  0  0  0  0  0
    1.2495   -1.0984    0.3154 C   0  0  0  0  0  0  0  0  0  0  0  0
   -0.1002   -1.0763   -0.3953 C   0  0  0  0  0  0  0  0  0  0  0  0
   -1.9084    1.1189   -1.4886 H   0  0  0  0  0  0  0  0  0  0  0  0
   -2.8583    0.8372    0.0319 H   0  0  0  0  0  0  0  0  0  0  0  0
   -2.5804   -0.5497   -1.0577 H   0  0  0  0  0  0  0  0  0  0  0  0
   -1.7016   -1.0340    1.4952 H   0  0  0  0  0  0  0  0  0  0  0  0
   -0.5925    2.2778    0.2208 H   0  0  0  0  0  0  0  0  0  0  0  0
    1.7595    2.3344    0.1423 H   0  0  0  0  0  0  0  0  0  0  0  0
    2.8694    0.1923    0.7683 H   0  0  0  0  0  0  0  0  0  0  0  0
    2.5898    0.0593   -0.9805 H   0  0  0  0  0  0  0  0  0  0  0  0
    1.7895   -2.0151    0.0460 H   0  0  0  0  0  0  0  0  0  0  0  0
    1.0192   -1.0901    1.4009 H   0  0  0  0  0  0  0  0  0  0  0  0
   -0.6309   -1.9978   -0.0778 H   0  0  0  0  0  0  0  0  0  0  0  0
    0.0148   -1.1388   -1.4930 H   0  0  0  0  0  0  0  0  0  0  0  0
  1  2  1  0
  2  3  1  0
  2  4  1  0
  4  5  2  0
  5  6  1  0
  6  7  1  0
  7  8  1  0
  8  2  1  0
  1  9  1  0
  1 10  1  0
  1 11  1  0
  3 12  1  0
  4 13  1  0
  5 14  1  0
  6 15  1  0
  6 16  1  0
  7 17  1  0
  7 18  1  0
  8 19  1  0
  8 20  1  0
M  END
