
     RDKit          3D

 19 20  0  0  0  0  0  0  0  0999 V2000
   -1.2286   -0.3650    1.2237 C   0  0  0  0  0  0  0  0  0  0  0  0
   -0.4673   -0.1496   -0.0526 C   0  0  0  0  0  0  0  0  0  0  0  0
   -1.3226    0.5628   -1.0639 C   0  0  0  0  0  0  0  0  0  0  0  0
    0.0914   -1.4573   -0.5197 C   0  0  0  0  0  0  0  0  0  0  0  0
   -0.3819   -2.3555   -1.1673 O   0  0  0  0  0  0  0  0  0  0  0  0
    1.3646   -1.0796    0.1622 C   0  0  0  0  0  0  0  0  0  0  0  0
    0.9122    0.3163    0.1293 C   0  0  0  0  0  0  0  0  0  0  0  0
    1.5187    1.5252    0.1544 C   0  0  0  0  0  0  0  0  0  0  0  0
    1.4159    0.9680   -1.1101 O   0  0  0  0  0  0  0  0  0  0  0  0
   -0.8722   -1.2702    1.7900 H   0  0  0  0  0  0  0  0  0  0  0  0
   -2.2842   -0.5868    0.9467 H   0  0  0  0  0  0  0  0  0  0  0  0
   -1.2710    0.5343    1.8721 H   0  0  0  0  0  0  0  0  0  0  0  0
   -0.7192    1.3369   -1.5628 H   0  0  0  0  0  0  0  0  0  0  0  0
   -1.6710   -0.1841   -1.8050 H   0  0  0  0  0  0  0  0  0  0  0  0
   -2.2562    0.9788   -0.5966 H   0  0  0  0  0  0  0  0  0  0  0  0
    2.2814   -1.3528   -0.3928 H   0  0  0  0  0  0  0  0  0  0  0  0
    1.4098   -1.5625    1.1699 H   0  0  0  0  0  0  0  0  0  0  0  0
    2.5541    1.6681    0.5539 H   0  0  0  0  0  0  0  0  0  0  0  0
    0.9262    2.4729    0.2687 H   0  0  0  0  0  0  0  0  0  0  0  0
  1  2  1  0
  2  3  1  0
  2  4  1  0
  4  5  2  0
  4  6  1  0
  6  7  1  0
  7  8  1  0
  8  9  1  0
  7  2  1  0
  9  7  1  0
  1 10  1  0
  1 11  1  0
  1 12  1  0
  3 13  1  0
  3 14  1  0
  3 15  1  0
  6 16  1  0
  6 17  1  0
  8 18  1  0
  8 19  1  0
M  END
