
     RDKit          3D

 23 24  0  0  0  0  0  0  0  0999 V2000
   -1.4078    0.8421    1.0257 C   0  0  0  0  0  0  0  0  0  0  0  0
   -1.2260   -0.1948   -0.0522 C   0  0  0  0  0  0  0  0  0  0  0  0
   -2.3304   -0.2550   -1.0745 C   0  0  0  0  0  0  0  0  0  0  0  0
   -0.4786   -1.4159    0.3482 C   0  0  0  0  0  0  0  0  0  0  0  0
    0.1690   -0.4805   -0.5763 C   0  0  0  0  0  0  0  0  0  0  0  0
    1.2947    0.4208   -0.1816 C   0  0  0  0  0  0  0  0  0  0  0  0
    1.1309    1.7512   -0.5595 O   0  0  0  0  0  0  0  0  0  0  0  0
    2.1801    0.1438    0.9635 C   0  0  0  0  0  0  0  0  0  0  0  0
    2.6742   -0.1800   -0.4156 C   0  0  0  0  0  0  0  0  0  0  0  0
   -2.1344    0.4768    1.8095 H   0  0  0  0  0  0  0  0  0  0  0  0
   -1.8476    1.7887    0.6460 H   0  0  0  0  0  0  0  0  0  0  0  0
   -0.4788    1.1000    1.5460 H   0  0  0  0  0  0  0  0  0  0  0  0
   -2.0189    0.4168   -1.9270 H   0  0  0  0  0  0  0  0  0  0  0  0
   -2.5161   -1.2915   -1.4388 H   0  0  0  0  0  0  0  0  0  0  0  0
   -3.2666    0.2016   -0.6712 H   0  0  0  0  0  0  0  0  0  0  0  0
   -0.1565   -1.5134    1.4158 H   0  0  0  0  0  0  0  0  0  0  0  0
   -0.7886   -2.4241   -0.0559 H   0  0  0  0  0  0  0  0  0  0  0  0
    0.2349   -0.8155   -1.6519 H   0  0  0  0  0  0  0  0  0  0  0  0
    0.1644    1.9437   -0.6539 H   0  0  0  0  0  0  0  0  0  0  0  0
    2.5778    1.0270    1.5061 H   0  0  0  0  0  0  0  0  0  0  0  0
    2.0477   -0.7332    1.6194 H   0  0  0  0  0  0  0  0  0  0  0  0
    3.4363    0.4452   -0.9087 H   0  0  0  0  0  0  0  0  0  0  0  0
    2.7403   -1.2539   -0.7128 H   0  0  0  0  0  0  0  0  0  0  0  0
  1  2  1  0
  2  3  1  0
  2  4  1  0
  4  5  1  0
  5  6  1  0
  6  7  1  0
  6  8  1  0
  8  9  1  0
  5  2  1  0
  9  6  1  0
  1 10  1  0
  1 11  1  0
  1 12  1  0
  3 13  1  0
  3 14  1  0
  3 15  1  0
  4 16  1  0
  4 17  1  0
  5 18  1  0
  7 19  1  0
  8 20  1  0
  8 21  1  0
  9 22  1  0
  9 23  1  0
M  END
