
     RDKit          3D

 21 22  0  0  0  0  0  0  0  0999 V2000
   -0.9173   -1.4003   -0.3101 C   0  0  0  0  0  0  0  0  0  0  0  0
   -0.5854   -0.0114    0.1010 C   0  0  0  0  0  0  0  0  0  0  0  0
    0.8558    0.4010   -0.0018 C   0  0  0  0  0  0  0  0  0  0  0  0
    1.8327   -0.5244    0.6909 C   0  0  0  0  0  0  0  0  0  0  0  0
    2.6731   -0.0157   -0.4636 C   0  0  0  0  0  0  0  0  0  0  0  0
    1.4875    0.0764   -1.1964 O   0  0  0  0  0  0  0  0  0  0  0  0
   -1.4584    1.0594   -0.5597 C   0  0  0  0  0  0  0  0  0  0  0  0
   -2.2714    0.8237    0.6960 C   0  0  0  0  0  0  0  0  0  0  0  0
   -1.1203    0.3566    1.3256 O   0  0  0  0  0  0  0  0  0  0  0  0
   -1.4016   -1.9693    0.5356 H   0  0  0  0  0  0  0  0  0  0  0  0
   -0.0618   -1.9666   -0.7113 H   0  0  0  0  0  0  0  0  0  0  0  0
   -1.7320   -1.3454   -1.0898 H   0  0  0  0  0  0  0  0  0  0  0  0
    1.0466    1.4671    0.2296 H   0  0  0  0  0  0  0  0  0  0  0  0
    1.6004   -1.5833    0.5780 H   0  0  0  0  0  0  0  0  0  0  0  0
    2.1696   -0.1908    1.6902 H   0  0  0  0  0  0  0  0  0  0  0  0
    3.4161   -0.7257   -0.8606 H   0  0  0  0  0  0  0  0  0  0  0  0
    3.0384    0.9950   -0.2290 H   0  0  0  0  0  0  0  0  0  0  0  0
   -0.9880    2.0515   -0.6216 H   0  0  0  0  0  0  0  0  0  0  0  0
   -1.8932    0.6527   -1.4763 H   0  0  0  0  0  0  0  0  0  0  0  0
   -2.6219    1.7645    1.1176 H   0  0  0  0  0  0  0  0  0  0  0  0
   -3.0691    0.0849    0.5559 H   0  0  0  0  0  0  0  0  0  0  0  0
  1  2  1  0
  2  3  1  0
  3  4  1  0
  4  5  1  0
  5  6  1  0
  2  7  1  0
  7  8  1  0
  8  9  1  0
  9  2  1  0
  6  3  1  0
  1 10  1  0
  1 11  1  0
  1 12  1  0
  3 13  1  0
  4 14  1  0
  4 15  1  0
  5 16  1  0
  5 17  1  0
  7 18  1  0
  7 19  1  0
  8 20  1  0
  8 21  1  0
M  END
