
     RDKit          3D

 21 21  0  0  0  0  0  0  0  0999 V2000
   -0.9601    0.7516    1.4160 C   0  0  0  0  0  0  0  0  0  0  0  0
   -0.5365    0.3221    0.0300 C   0  0  0  0  0  0  0  0  0  0  0  0
   -1.1833   -0.9538   -0.3823 C   0  0  0  0  0  0  0  0  0  0  0  0
   -2.5620   -0.7344   -0.5056 O   0  0  0  0  0  0  0  0  0  0  0  0
   -0.7614    1.3210   -0.9181 O   0  0  0  0  0  0  0  0  0  0  0  0
    0.3948    0.8777   -1.5682 C   0  0  0  0  0  0  0  0  0  0  0  0
    0.9301    0.4599   -0.2568 C   0  0  0  0  0  0  0  0  0  0  0  0
    1.7697   -0.7497   -0.1641 C   0  0  0  0  0  0  0  0  0  0  0  0
    1.6947   -1.2675    1.1486 O   0  0  0  0  0  0  0  0  0  0  0  0
   -1.6891    0.0445    1.8646 H   0  0  0  0  0  0  0  0  0  0  0  0
   -1.3868    1.7595    1.4527 H   0  0  0  0  0  0  0  0  0  0  0  0
   -0.0467    0.6902    2.0587 H   0  0  0  0  0  0  0  0  0  0  0  0
   -1.0273   -1.6899    0.4597 H   0  0  0  0  0  0  0  0  0  0  0  0
   -0.7735   -1.4214   -1.2738 H   0  0  0  0  0  0  0  0  0  0  0  0
   -2.8854   -0.1556    0.2238 H   0  0  0  0  0  0  0  0  0  0  0  0
    0.1176    0.1036   -2.2946 H   0  0  0  0  0  0  0  0  0  0  0  0
    0.9349    1.6971   -2.0976 H   0  0  0  0  0  0  0  0  0  0  0  0
    1.3502    1.3101    0.3048 H   0  0  0  0  0  0  0  0  0  0  0  0
    2.8284   -0.4431   -0.3010 H   0  0  0  0  0  0  0  0  0  0  0  0
    1.5592   -1.5355   -0.8992 H   0  0  0  0  0  0  0  0  0  0  0  0
    2.2325   -0.6216    1.7024 H   0  0  0  0  0  0  0  0  0  0  0  0
  1  2  1  0
  2  3  1  0
  3  4  1  0
  2  5  1  0
  5  6  1  0
  6  7  1  0
  7  8  1  0
  8  9  1  0
  7  2  1  0
  1 10  1  0
  1 11  1  0
  1 12  1  0
  3 13  1  0
  3 14  1  0
  4 15  1  0
  6 16  1  0
  6 17  1  0
  7 18  1  0
  8 19  1  0
  8 20  1  0
  9 21  1  0
M  END
