
     RDKit          3D

 21 22  0  0  0  0  0  0  0  0999 V2000
   -0.9870    0.8583   -1.4684 C   0  0  0  0  0  0  0  0  0  0  0  0
   -0.6934    0.0819   -0.2018 C   0  0  0  0  0  0  0  0  0  0  0  0
    0.7417   -0.2783    0.1036 C   0  0  0  0  0  0  0  0  0  0  0  0
    1.7588    0.8079    0.2698 C   0  0  0  0  0  0  0  0  0  0  0  0
    1.7774    1.3378    1.5588 O   0  0  0  0  0  0  0  0  0  0  0  0
    1.2362   -1.5875   -0.3945 C   0  0  0  0  0  0  0  0  0  0  0  0
    0.8641   -1.4215    0.9185 O   0  0  0  0  0  0  0  0  0  0  0  0
   -1.7595   -0.8550    0.2014 C   0  0  0  0  0  0  0  0  0  0  0  0
   -1.5809    0.3889    1.0260 C   0  0  0  0  0  0  0  0  0  0  0  0
   -1.4075    0.1836   -2.2636 H   0  0  0  0  0  0  0  0  0  0  0  0
   -1.7895    1.5910   -1.2431 H   0  0  0  0  0  0  0  0  0  0  0  0
   -0.1170    1.3515   -1.8955 H   0  0  0  0  0  0  0  0  0  0  0  0
    2.7712    0.4005    0.0729 H   0  0  0  0  0  0  0  0  0  0  0  0
    1.5779    1.5773   -0.5048 H   0  0  0  0  0  0  0  0  0  0  0  0
    2.3609    0.7695    2.1325 H   0  0  0  0  0  0  0  0  0  0  0  0
    0.5660   -2.2449   -1.0105 H   0  0  0  0  0  0  0  0  0  0  0  0
    2.3305   -1.7322   -0.5468 H   0  0  0  0  0  0  0  0  0  0  0  0
   -2.7337   -0.8813   -0.3615 H   0  0  0  0  0  0  0  0  0  0  0  0
   -1.5366   -1.8445    0.6580 H   0  0  0  0  0  0  0  0  0  0  0  0
   -1.1070    0.2643    2.0229 H   0  0  0  0  0  0  0  0  0  0  0  0
   -2.2726    1.2328    0.9260 H   0  0  0  0  0  0  0  0  0  0  0  0
  1  2  1  0
  2  3  1  0
  3  4  1  0
  4  5  1  0
  3  6  1  0
  6  7  1  0
  2  8  1  0
  8  9  1  0
  9  2  1  0
  7  3  1  0
  1 10  1  0
  1 11  1  0
  1 12  1  0
  4 13  1  0
  4 14  1  0
  5 15  1  0
  6 16  1  0
  6 17  1  0
  8 18  1  0
  8 19  1  0
  9 20  1  0
  9 21  1  0
M  END
