
     RDKit          3D

 21 22  0  0  0  0  0  0  0  0999 V2000
    1.9856    0.1674    0.8304 C   0  0  0  0  0  0  0  0  0  0  0  0
    1.0618    0.1800   -0.3677 C   0  0  0  0  0  0  0  0  0  0  0  0
    1.6195    0.8225   -1.4639 O   0  0  0  0  0  0  0  0  0  0  0  0
    0.7637   -1.2189   -0.7445 C   0  0  0  0  0  0  0  0  0  0  0  0
   -0.5043   -1.3289   -1.0168 C   0  0  0  0  0  0  0  0  0  0  0  0
   -1.1929   -0.0594   -0.8622 C   0  0  0  0  0  0  0  0  0  0  0  0
   -2.1451   -0.0866    0.3186 C   0  0  0  0  0  0  0  0  0  0  0  0
   -0.9460    0.3020    1.1894 C   0  0  0  0  0  0  0  0  0  0  0  0
   -0.2805    0.7959   -0.0542 C   0  0  0  0  0  0  0  0  0  0  0  0
    1.9327   -0.8174    1.3426 H   0  0  0  0  0  0  0  0  0  0  0  0
    1.7662    0.9977    1.5078 H   0  0  0  0  0  0  0  0  0  0  0  0
    3.0329    0.2223    0.4138 H   0  0  0  0  0  0  0  0  0  0  0  0
    1.5709    1.8008   -1.3341 H   0  0  0  0  0  0  0  0  0  0  0  0
    1.5001   -2.0216   -0.7838 H   0  0  0  0  0  0  0  0  0  0  0  0
   -1.0411   -2.2502   -1.3311 H   0  0  0  0  0  0  0  0  0  0  0  0
   -1.6134    0.4063   -1.7764 H   0  0  0  0  0  0  0  0  0  0  0  0
   -2.4720   -1.1013    0.5250 H   0  0  0  0  0  0  0  0  0  0  0  0
   -2.9264    0.7016    0.2526 H   0  0  0  0  0  0  0  0  0  0  0  0
   -1.2734    1.1439    1.8561 H   0  0  0  0  0  0  0  0  0  0  0  0
   -0.4760   -0.5372    1.7187 H   0  0  0  0  0  0  0  0  0  0  0  0
   -0.3623    1.8813   -0.2204 H   0  0  0  0  0  0  0  0  0  0  0  0
  1  2  1  0
  2  3  1  0
  2  4  1  0
  4  5  2  0
  5  6  1  0
  6  7  1  0
  7  8  1  0
  8  9  1  0
  9  2  1  0
  9  6  1  0
  1 10  1  0
  1 11  1  0
  1 12  1  0
  3 13  1  0
  4 14  1  0
  5 15  1  0
  6 16  1  0
  7 17  1  0
  7 18  1  0
  8 19  1  0
  8 20  1  0
  9 21  1  0
M  END
