
     RDKit          3D

 21 21  0  0  0  0  0  0  0  0999 V2000
    2.0056    0.2822   -0.8491 C   0  0  0  0  0  0  0  0  0  0  0  0
    0.7895    0.0007   -0.0469 C   0  0  0  0  0  0  0  0  0  0  0  0
    1.1865   -0.3146    1.3495 C   0  0  0  0  0  0  0  0  0  0  0  0
    1.9118   -1.2998    1.4799 O   0  0  0  0  0  0  0  0  0  0  0  0
   -0.0388   -1.1555   -0.5509 C   0  0  0  0  0  0  0  0  0  0  0  0
   -1.4468   -0.8645   -0.0382 C   0  0  0  0  0  0  0  0  0  0  0  0
   -1.4049    0.4850    0.5953 C   0  0  0  0  0  0  0  0  0  0  0  0
   -2.5503    1.2219    0.4757 O   0  0  0  0  0  0  0  0  0  0  0  0
   -0.2133    1.1219   -0.1224 C   0  0  0  0  0  0  0  0  0  0  0  0
    2.5640   -0.6051   -1.1764 H   0  0  0  0  0  0  0  0  0  0  0  0
    1.7794    0.9841   -1.6982 H   0  0  0  0  0  0  0  0  0  0  0  0
    2.7003    0.8795   -0.1872 H   0  0  0  0  0  0  0  0  0  0  0  0
    0.8552    0.2851    2.1768 H   0  0  0  0  0  0  0  0  0  0  0  0
   -0.0154   -1.2692   -1.6386 H   0  0  0  0  0  0  0  0  0  0  0  0
    0.3131   -2.0936   -0.0941 H   0  0  0  0  0  0  0  0  0  0  0  0
   -2.1723   -0.8817   -0.8748 H   0  0  0  0  0  0  0  0  0  0  0  0
   -1.7451   -1.5978    0.7485 H   0  0  0  0  0  0  0  0  0  0  0  0
   -1.1422    0.4262    1.6890 H   0  0  0  0  0  0  0  0  0  0  0  0
   -2.9865    1.1228   -0.3912 H   0  0  0  0  0  0  0  0  0  0  0  0
    0.1103    2.0462    0.3439 H   0  0  0  0  0  0  0  0  0  0  0  0
   -0.5002    1.2261   -1.1906 H   0  0  0  0  0  0  0  0  0  0  0  0
  1  2  1  0
  2  3  1  0
  3  4  2  0
  2  5  1  0
  5  6  1  0
  6  7  1  0
  7  8  1  0
  7  9  1  0
  9  2  1  0
  1 10  1  0
  1 11  1  0
  1 12  1  0
  3 13  1  0
  5 14  1  0
  5 15  1  0
  6 16  1  0
  6 17  1  0
  7 18  1  0
  8 19  1  0
  9 20  1  0
  9 21  1  0
M  END
