
     RDKit          3D

 21 22  0  0  0  0  0  0  0  0999 V2000
   -1.5312   -0.3758   -1.1843 C   0  0  0  0  0  0  0  0  0  0  0  0
   -0.6744    0.1394   -0.0407 C   0  0  0  0  0  0  0  0  0  0  0  0
   -1.3471    1.1654    0.8308 C   0  0  0  0  0  0  0  0  0  0  0  0
    0.0420   -0.9559    0.7693 C   0  0  0  0  0  0  0  0  0  0  0  0
    0.1793   -0.7761    2.1315 O   0  0  0  0  0  0  0  0  0  0  0  0
    0.7432   -0.0702   -0.1207 C   0  0  0  0  0  0  0  0  0  0  0  0
    1.5278   -0.4493   -1.3131 C   0  0  0  0  0  0  0  0  0  0  0  0
    2.3217    0.6950   -1.0970 O   0  0  0  0  0  0  0  0  0  0  0  0
    1.8141    0.8792    0.2107 C   0  0  0  0  0  0  0  0  0  0  0  0
   -1.7266    0.4112   -1.9304 H   0  0  0  0  0  0  0  0  0  0  0  0
   -2.4949   -0.7215   -0.7872 H   0  0  0  0  0  0  0  0  0  0  0  0
   -1.0031   -1.1948   -1.7360 H   0  0  0  0  0  0  0  0  0  0  0  0
   -2.1899    0.6987    1.3822 H   0  0  0  0  0  0  0  0  0  0  0  0
   -0.6303    1.5071    1.6186 H   0  0  0  0  0  0  0  0  0  0  0  0
   -1.7420    2.0227    0.2896 H   0  0  0  0  0  0  0  0  0  0  0  0
   -0.1269   -2.0132    0.4260 H   0  0  0  0  0  0  0  0  0  0  0  0
   -0.2894   -1.4915    2.6131 H   0  0  0  0  0  0  0  0  0  0  0  0
    2.0631   -1.4006   -1.1690 H   0  0  0  0  0  0  0  0  0  0  0  0
    0.9383   -0.4429   -2.2333 H   0  0  0  0  0  0  0  0  0  0  0  0
    2.5680    0.4469    0.9149 H   0  0  0  0  0  0  0  0  0  0  0  0
    1.5582    1.9262    0.4249 H   0  0  0  0  0  0  0  0  0  0  0  0
  1  2  1  0
  2  3  1  0
  2  4  1  0
  4  5  1  0
  4  6  1  0
  6  7  1  0
  7  8  1  0
  8  9  1  0
  6  2  1  0
  9  6  1  0
  1 10  1  0
  1 11  1  0
  1 12  1  0
  3 13  1  0
  3 14  1  0
  3 15  1  0
  4 16  1  0
  5 17  1  0
  7 18  1  0
  7 19  1  0
  9 20  1  0
  9 21  1  0
M  END
