
     RDKit          3D

 18 18  0  0  0  0  0  0  0  0999 V2000
   -1.7025    1.3905   -0.1129 C   0  0  0  0  0  0  0  0  0  0  0  0
   -0.6748    0.2519   -0.0173 C   0  0  0  0  0  0  0  0  0  0  0  0
    0.6138    0.7080    0.0025 O   0  0  0  0  0  0  0  0  0  0  0  0
    1.5844   -0.2465    0.0863 C   0  0  0  0  0  0  0  0  0  0  0  0
    2.9151    0.4205    0.0963 C   0  0  0  0  0  0  0  0  0  0  0  0
    2.9890    1.6292    0.0346 O   0  0  0  0  0  0  0  0  0  0  0  0
   -1.0906   -0.9778    0.7342 C   0  0  0  0  0  0  0  0  0  0  0  0
   -1.0728   -0.9714   -0.7615 C   0  0  0  0  0  0  0  0  0  0  0  0
   -1.4123    2.1175    0.6679 H   0  0  0  0  0  0  0  0  0  0  0  0
   -1.5781    1.8036   -1.1359 H   0  0  0  0  0  0  0  0  0  0  0  0
   -2.7267    1.0212   -0.0196 H   0  0  0  0  0  0  0  0  0  0  0  0
    1.5912   -0.9599   -0.7698 H   0  0  0  0  0  0  0  0  0  0  0  0
    1.5355   -0.8597    1.0118 H   0  0  0  0  0  0  0  0  0  0  0  0
    3.8492   -0.1639    0.1592 H   0  0  0  0  0  0  0  0  0  0  0  0
   -2.0779   -0.9517    1.2713 H   0  0  0  0  0  0  0  0  0  0  0  0
   -0.3500   -1.5928    1.2738 H   0  0  0  0  0  0  0  0  0  0  0  0
   -0.3184   -1.5935   -1.2837 H   0  0  0  0  0  0  0  0  0  0  0  0
   -2.0740   -1.0253   -1.2372 H   0  0  0  0  0  0  0  0  0  0  0  0
  1  2  1  0
  2  3  1  0
  3  4  1  0
  4  5  1  0
  5  6  2  0
  2  7  1  0
  7  8  1  0
  8  2  1  0
  1  9  1  0
  1 10  1  0
  1 11  1  0
  4 12  1  0
  4 13  1  0
  5 14  1  0
  7 15  1  0
  7 16  1  0
  8 17  1  0
  8 18  1  0
M  END
