
     RDKit          3D

 19 20  0  0  0  0  0  0  0  0999 V2000
   -1.3260   -0.3373    1.3414 C   0  0  0  0  0  0  0  0  0  0  0  0
   -0.6461    0.0552    0.0166 C   0  0  0  0  0  0  0  0  0  0  0  0
   -1.6999    0.6728   -0.9222 C   0  0  0  0  0  0  0  0  0  0  0  0
    0.3286   -0.8747   -0.4475 C   0  0  0  0  0  0  0  0  0  0  0  0
    1.7992   -0.9705   -0.1091 C   0  0  0  0  0  0  0  0  0  0  0  0
    1.7969    0.2888   -0.9550 C   0  0  0  0  0  0  0  0  0  0  0  0
    2.4566    0.6824   -1.8706 O   0  0  0  0  0  0  0  0  0  0  0  0
    0.6565    0.6264   -0.0580 C   0  0  0  0  0  0  0  0  0  0  0  0
    1.2086    0.7907    1.2430 O   0  0  0  0  0  0  0  0  0  0  0  0
   -1.9811    0.4489    1.7092 H   0  0  0  0  0  0  0  0  0  0  0  0
   -1.8402   -1.3143    1.1610 H   0  0  0  0  0  0  0  0  0  0  0  0
   -0.5092   -0.5644    2.0590 H   0  0  0  0  0  0  0  0  0  0  0  0
   -1.2280    1.3441   -1.6543 H   0  0  0  0  0  0  0  0  0  0  0  0
   -2.4234    1.2858   -0.3177 H   0  0  0  0  0  0  0  0  0  0  0  0
   -2.2862   -0.1316   -1.4174 H   0  0  0  0  0  0  0  0  0  0  0  0
    0.2470   -1.0389   -1.5723 H   0  0  0  0  0  0  0  0  0  0  0  0
    2.1024   -0.8616    0.9192 H   0  0  0  0  0  0  0  0  0  0  0  0
    2.2828   -1.8329   -0.5857 H   0  0  0  0  0  0  0  0  0  0  0  0
    1.0614    1.7309    1.4604 H   0  0  0  0  0  0  0  0  0  0  0  0
  1  2  1  0
  2  3  1  0
  2  4  1  0
  4  5  1  0
  5  6  1  0
  6  7  2  0
  6  8  1  0
  8  9  1  0
  8  2  1  0
  8  4  1  0
  1 10  1  0
  1 11  1  0
  1 12  1  0
  3 13  1  0
  3 14  1  0
  3 15  1  0
  4 16  1  0
  5 17  1  0
  5 18  1  0
  9 19  1  0
M  END
