
     RDKit          3D

 23 24  0  0  0  0  0  0  0  0999 V2000
   -1.8482    1.0082    0.0272 C   0  0  0  0  0  0  0  0  0  0  0  0
   -0.9741   -0.2275   -0.2035 C   0  0  0  0  0  0  0  0  0  0  0  0
   -1.8655   -1.4241   -0.0372 C   0  0  0  0  0  0  0  0  0  0  0  0
   -0.3591   -0.1207   -1.5262 C   0  0  0  0  0  0  0  0  0  0  0  0
    0.9400    0.1246   -1.4074 C   0  0  0  0  0  0  0  0  0  0  0  0
    1.3656    0.2141   -0.0037 C   0  0  0  0  0  0  0  0  0  0  0  0
    2.7206   -0.3785    0.3892 C   0  0  0  0  0  0  0  0  0  0  0  0
    0.7915    1.1691    0.9467 C   0  0  0  0  0  0  0  0  0  0  0  0
    0.1590   -0.1744    0.7651 C   0  0  0  0  0  0  0  0  0  0  0  0
   -1.8076    1.2117    1.1068 H   0  0  0  0  0  0  0  0  0  0  0  0
   -2.9009    0.8236   -0.2504 H   0  0  0  0  0  0  0  0  0  0  0  0
   -1.4879    1.8545   -0.5925 H   0  0  0  0  0  0  0  0  0  0  0  0
   -2.4694   -1.5642   -0.9521 H   0  0  0  0  0  0  0  0  0  0  0  0
   -2.5356   -1.2045    0.8416 H   0  0  0  0  0  0  0  0  0  0  0  0
   -1.3431   -2.3507    0.1935 H   0  0  0  0  0  0  0  0  0  0  0  0
   -0.8956   -0.2281   -2.4852 H   0  0  0  0  0  0  0  0  0  0  0  0
    1.5996    0.2430   -2.2569 H   0  0  0  0  0  0  0  0  0  0  0  0
    3.0287   -1.1889   -0.2924 H   0  0  0  0  0  0  0  0  0  0  0  0
    3.4405    0.4880    0.3097 H   0  0  0  0  0  0  0  0  0  0  0  0
    2.6204   -0.7132    1.4388 H   0  0  0  0  0  0  0  0  0  0  0  0
    0.2254    2.0742    0.5826 H   0  0  0  0  0  0  0  0  0  0  0  0
    1.2952    1.3342    1.8947 H   0  0  0  0  0  0  0  0  0  0  0  0
    0.3007   -0.9703    1.5115 H   0  0  0  0  0  0  0  0  0  0  0  0
  1  2  1  0
  2  3  1  0
  2  4  1  0
  4  5  2  0
  5  6  1  0
  6  7  1  0
  6  8  1  0
  8  9  1  0
  9  2  1  0
  9  6  1  0
  1 10  1  0
  1 11  1  0
  1 12  1  0
  3 13  1  0
  3 14  1  0
  3 15  1  0
  4 16  1  0
  5 17  1  0
  7 18  1  0
  7 19  1  0
  7 20  1  0
  8 21  1  0
  8 22  1  0
  9 23  1  0
M  END
