
     RDKit          3D

 16 16  0  0  0  0  0  0  0  0999 V2000
   -0.9300   -1.3609   -0.5029 C   0  0  0  0  0  0  0  0  0  0  0  0
   -0.0056   -0.3245    0.0283 C   0  0  0  0  0  0  0  0  0  0  0  0
    1.2344   -0.8221    0.6904 C   0  0  0  0  0  0  0  0  0  0  0  0
    2.1946   -1.1121   -0.0066 O   0  0  0  0  0  0  0  0  0  0  0  0
   -0.6794    0.8095    0.7860 C   0  0  0  0  0  0  0  0  0  0  0  0
    0.4201    1.6905    0.2450 C   0  0  0  0  0  0  0  0  0  0  0  0
    1.0499    2.6665    0.6052 O   0  0  0  0  0  0  0  0  0  0  0  0
    0.3710    0.7842   -0.9632 C   0  0  0  0  0  0  0  0  0  0  0  0
   -1.6679   -0.8996   -1.1593 H   0  0  0  0  0  0  0  0  0  0  0  0
   -0.3362   -2.1593   -0.9699 H   0  0  0  0  0  0  0  0  0  0  0  0
   -1.4681   -1.8269    0.3521 H   0  0  0  0  0  0  0  0  0  0  0  0
    1.3432   -0.9450    1.7542 H   0  0  0  0  0  0  0  0  0  0  0  0
   -0.6815    0.7064    1.8807 H   0  0  0  0  0  0  0  0  0  0  0  0
   -1.6526    1.0455    0.3137 H   0  0  0  0  0  0  0  0  0  0  0  0
   -0.5063    1.1006   -1.5757 H   0  0  0  0  0  0  0  0  0  0  0  0
    1.3143    0.6472   -1.4781 H   0  0  0  0  0  0  0  0  0  0  0  0
  1  2  1  0
  2  3  1  0
  3  4  2  0
  2  5  1  0
  5  6  1  0
  6  7  2  0
  6  8  1  0
  8  2  1  0
  1  9  1  0
  1 10  1  0
  1 11  1  0
  3 12  1  0
  5 13  1  0
  5 14  1  0
  8 15  1  0
  8 16  1  0
M  END
