
     RDKit          3D

 25 25  0  0  0  0  0  0  0  0999 V2000
    1.4837    0.6608   -1.1162 C   0  0  0  0  0  0  0  0  0  0  0  0
    0.7653    0.1338    0.0909 C   0  0  0  0  0  0  0  0  0  0  0  0
    1.6449   -0.7267    0.9384 C   0  0  0  0  0  0  0  0  0  0  0  0
    0.1448    1.3102    0.8559 C   0  0  0  0  0  0  0  0  0  0  0  0
   -1.1042    1.0644   -0.0028 C   0  0  0  0  0  0  0  0  0  0  0  0
   -2.2248    1.2613    0.7637 O   0  0  0  0  0  0  0  0  0  0  0  0
   -0.6288   -0.3619   -0.1476 C   0  0  0  0  0  0  0  0  0  0  0  0
   -1.1681   -1.3405    0.8428 C   0  0  0  0  0  0  0  0  0  0  0  0
   -0.7438   -0.9265   -1.5555 C   0  0  0  0  0  0  0  0  0  0  0  0
    0.8277    0.8386   -1.9868 H   0  0  0  0  0  0  0  0  0  0  0  0
    2.3852    0.0520   -1.3707 H   0  0  0  0  0  0  0  0  0  0  0  0
    1.9011    1.6770   -0.8533 H   0  0  0  0  0  0  0  0  0  0  0  0
    1.2027   -1.0108    1.9039 H   0  0  0  0  0  0  0  0  0  0  0  0
    1.8699   -1.6526    0.3670 H   0  0  0  0  0  0  0  0  0  0  0  0
    2.6007   -0.1642    1.0970 H   0  0  0  0  0  0  0  0  0  0  0  0
    0.5824    2.2845    0.6376 H   0  0  0  0  0  0  0  0  0  0  0  0
    0.0087    1.0571    1.9240 H   0  0  0  0  0  0  0  0  0  0  0  0
   -1.0555    1.6568   -0.9308 H   0  0  0  0  0  0  0  0  0  0  0  0
   -2.1820    2.2153    1.0942 H   0  0  0  0  0  0  0  0  0  0  0  0
   -0.5910   -2.2825    0.7369 H   0  0  0  0  0  0  0  0  0  0  0  0
   -2.2099   -1.5847    0.5440 H   0  0  0  0  0  0  0  0  0  0  0  0
   -1.2182   -0.9683    1.8768 H   0  0  0  0  0  0  0  0  0  0  0  0
   -1.1159   -0.1289   -2.2156 H   0  0  0  0  0  0  0  0  0  0  0  0
   -1.4388   -1.7996   -1.5797 H   0  0  0  0  0  0  0  0  0  0  0  0
    0.2642   -1.2645   -1.9140 H   0  0  0  0  0  0  0  0  0  0  0  0
  1  2  1  0
  2  3  1  0
  2  4  1  0
  4  5  1  0
  5  6  1  0
  5  7  1  0
  7  8  1  0
  7  9  1  0
  7  2  1  0
  1 10  1  0
  1 11  1  0
  1 12  1  0
  3 13  1  0
  3 14  1  0
  3 15  1  0
  4 16  1  0
  4 17  1  0
  5 18  1  0
  6 19  1  0
  8 20  1  0
  8 21  1  0
  8 22  1  0
  9 23  1  0
  9 24  1  0
  9 25  1  0
M  END
