
     RDKit          3D

 18 19  0  0  0  0  0  0  0  0999 V2000
   -1.4371   -0.9195    0.3337 C   0  0  0  0  0  0  0  0  0  0  0  0
   -0.3806    0.0675    0.0015 C   0  0  0  0  0  0  0  0  0  0  0  0
   -0.8396    1.2827   -0.7326 C   0  0  0  0  0  0  0  0  0  0  0  0
    0.8770   -0.5873   -0.4883 C   0  0  0  0  0  0  0  0  0  0  0  0
    1.3763   -0.1778   -1.6902 O   0  0  0  0  0  0  0  0  0  0  0  0
    1.5761   -0.0199    0.7479 C   0  0  0  0  0  0  0  0  0  0  0  0
    1.0593   -0.5044    1.9416 O   0  0  0  0  0  0  0  0  0  0  0  0
    0.4042    0.4926    1.2504 C   0  0  0  0  0  0  0  0  0  0  0  0
   -1.3341   -1.8593   -0.2702 H   0  0  0  0  0  0  0  0  0  0  0  0
   -1.3741   -1.2413    1.3918 H   0  0  0  0  0  0  0  0  0  0  0  0
   -2.4669   -0.5663    0.1685 H   0  0  0  0  0  0  0  0  0  0  0  0
   -1.5195    1.0433   -1.5789 H   0  0  0  0  0  0  0  0  0  0  0  0
   -0.0110    1.9398   -1.0073 H   0  0  0  0  0  0  0  0  0  0  0  0
   -1.4780    1.8759   -0.0150 H   0  0  0  0  0  0  0  0  0  0  0  0
    0.8537   -1.7031   -0.3977 H   0  0  0  0  0  0  0  0  0  0  0  0
    1.9858   -0.8960   -2.0338 H   0  0  0  0  0  0  0  0  0  0  0  0
    2.5991    0.3425    0.6716 H   0  0  0  0  0  0  0  0  0  0  0  0
    0.1095    1.4305    1.7072 H   0  0  0  0  0  0  0  0  0  0  0  0
  1  2  1  0
  2  3  1  0
  2  4  1  0
  4  5  1  0
  4  6  1  0
  6  7  1  0
  7  8  1  0
  8  2  1  0
  8  6  1  0
  1  9  1  0
  1 10  1  0
  1 11  1  0
  3 12  1  0
  3 13  1  0
  3 14  1  0
  4 15  1  0
  5 16  1  0
  6 17  1  0
  8 18  1  0
M  END
