
     RDKit          3D

 25 26  0  0  0  0  0  0  0  0999 V2000
   -2.1264   -1.4491    1.1258 C   0  0  0  0  0  0  0  0  0  0  0  0
   -1.5857   -0.3557    0.2172 C   0  0  0  0  0  0  0  0  0  0  0  0
   -2.3316    0.9507    0.3305 C   0  0  0  0  0  0  0  0  0  0  0  0
   -1.2771   -0.8223   -1.2003 C   0  0  0  0  0  0  0  0  0  0  0  0
   -0.1999   -0.4330   -0.2455 C   0  0  0  0  0  0  0  0  0  0  0  0
    0.6148    0.7768   -0.5871 C   0  0  0  0  0  0  0  0  0  0  0  0
    1.9944    0.4158   -1.0319 C   0  0  0  0  0  0  0  0  0  0  0  0
    2.9340   -0.3196   -0.1733 C   0  0  0  0  0  0  0  0  0  0  0  0
    3.1172    1.2080   -0.3327 C   0  0  0  0  0  0  0  0  0  0  0  0
   -1.3126   -2.1017    1.4799 H   0  0  0  0  0  0  0  0  0  0  0  0
   -2.6686   -0.9828    1.9858 H   0  0  0  0  0  0  0  0  0  0  0  0
   -2.8841   -1.9992    0.5142 H   0  0  0  0  0  0  0  0  0  0  0  0
   -3.4211    0.6961    0.1948 H   0  0  0  0  0  0  0  0  0  0  0  0
   -2.0420    1.6925   -0.4138 H   0  0  0  0  0  0  0  0  0  0  0  0
   -2.2580    1.3130    1.3835 H   0  0  0  0  0  0  0  0  0  0  0  0
   -1.5942   -0.1443   -2.0125 H   0  0  0  0  0  0  0  0  0  0  0  0
   -1.3972   -1.9032   -1.4260 H   0  0  0  0  0  0  0  0  0  0  0  0
    0.4112   -1.2780    0.1828 H   0  0  0  0  0  0  0  0  0  0  0  0
    0.6234    1.4366    0.3048 H   0  0  0  0  0  0  0  0  0  0  0  0
    0.0968    1.3388   -1.3846 H   0  0  0  0  0  0  0  0  0  0  0  0
    2.1172    0.2630   -2.1319 H   0  0  0  0  0  0  0  0  0  0  0  0
    3.7262   -0.9456   -0.6705 H   0  0  0  0  0  0  0  0  0  0  0  0
    2.6795   -0.6835    0.8387 H   0  0  0  0  0  0  0  0  0  0  0  0
    2.8408    1.7866    0.5712 H   0  0  0  0  0  0  0  0  0  0  0  0
    3.9429    1.5402   -0.9837 H   0  0  0  0  0  0  0  0  0  0  0  0
  1  2  1  0
  2  3  1  0
  2  4  1  0
  4  5  1  0
  5  6  1  0
  6  7  1  0
  7  8  1  0
  8  9  1  0
  5  2  1  0
  9  7  1  0
  1 10  1  0
  1 11  1  0
  1 12  1  0
  3 13  1  0
  3 14  1  0
  3 15  1  0
  4 16  1  0
  4 17  1  0
  5 18  1  0
  6 19  1  0
  6 20  1  0
  7 21  1  0
  8 22  1  0
  8 23  1  0
  9 24  1  0
  9 25  1  0
M  END
