
     RDKit          3D

 23 24  0  0  0  0  0  0  0  0999 V2000
    2.0624   -0.4113   -0.9405 C   0  0  0  0  0  0  0  0  0  0  0  0
    1.0871   -0.4165    0.2395 C   0  0  0  0  0  0  0  0  0  0  0  0
    1.7240   -0.3066    1.4560 O   0  0  0  0  0  0  0  0  0  0  0  0
    0.0498   -1.5322    0.1531 C   0  0  0  0  0  0  0  0  0  0  0  0
   -0.9899   -0.5070   -0.1481 C   0  0  0  0  0  0  0  0  0  0  0  0
   -2.3143   -0.4981    0.5303 C   0  0  0  0  0  0  0  0  0  0  0  0
   -0.7405    0.4090   -1.2997 C   0  0  0  0  0  0  0  0  0  0  0  0
   -0.0110    0.5678   -0.0335 C   0  0  0  0  0  0  0  0  0  0  0  0
   -0.1875    1.7915    0.7862 C   0  0  0  0  0  0  0  0  0  0  0  0
    3.1152   -0.4573   -0.5664 H   0  0  0  0  0  0  0  0  0  0  0  0
    2.0045    0.5635   -1.4962 H   0  0  0  0  0  0  0  0  0  0  0  0
    1.8278   -1.1926   -1.6750 H   0  0  0  0  0  0  0  0  0  0  0  0
    2.5603    0.2171    1.2986 H   0  0  0  0  0  0  0  0  0  0  0  0
    0.2671   -2.2392   -0.6893 H   0  0  0  0  0  0  0  0  0  0  0  0
   -0.0049   -2.0373    1.1309 H   0  0  0  0  0  0  0  0  0  0  0  0
   -2.2675   -0.9438    1.5308 H   0  0  0  0  0  0  0  0  0  0  0  0
   -2.6344    0.5736    0.6281 H   0  0  0  0  0  0  0  0  0  0  0  0
   -3.0892   -1.0769   -0.0335 H   0  0  0  0  0  0  0  0  0  0  0  0
   -0.2662   -0.1017   -2.1804 H   0  0  0  0  0  0  0  0  0  0  0  0
   -1.4935    1.1666   -1.5641 H   0  0  0  0  0  0  0  0  0  0  0  0
   -1.2649    2.0975    0.7527 H   0  0  0  0  0  0  0  0  0  0  0  0
    0.3947    2.6170    0.2988 H   0  0  0  0  0  0  0  0  0  0  0  0
    0.1708    1.7170    1.8215 H   0  0  0  0  0  0  0  0  0  0  0  0
  1  2  1  0
  2  3  1  0
  2  4  1  0
  4  5  1  0
  5  6  1  0
  5  7  1  0
  7  8  1  0
  8  9  1  0
  8  2  1  0
  8  5  1  0
  1 10  1  0
  1 11  1  0
  1 12  1  0
  3 13  1  0
  4 14  1  0
  4 15  1  0
  6 16  1  0
  6 17  1  0
  6 18  1  0
  7 19  1  0
  7 20  1  0
  9 21  1  0
  9 22  1  0
  9 23  1  0
M  END
