
     RDKit          3D

 20 20  0  0  0  0  0  0  0  0999 V2000
    1.9872    0.2937   -0.5334 C   0  0  0  0  0  0  0  0  0  0  0  0
    0.6104   -0.0634    0.0090 C   0  0  0  0  0  0  0  0  0  0  0  0
    0.6803   -0.9675    1.2020 C   0  0  0  0  0  0  0  0  0  0  0  0
   -0.1518    1.2106    0.2658 C   0  0  0  0  0  0  0  0  0  0  0  0
   -1.6110    1.0183   -0.1224 C   0  0  0  0  0  0  0  0  0  0  0  0
   -1.9566   -0.2792    0.2254 O   0  0  0  0  0  0  0  0  0  0  0  0
   -1.3196   -1.1553   -0.6635 C   0  0  0  0  0  0  0  0  0  0  0  0
   -0.0510   -0.7456   -1.0067 O   0  0  0  0  0  0  0  0  0  0  0  0
    2.5309   -0.5939   -0.8824 H   0  0  0  0  0  0  0  0  0  0  0  0
    2.5645    0.9215    0.1704 H   0  0  0  0  0  0  0  0  0  0  0  0
    1.7964    0.9244   -1.4385 H   0  0  0  0  0  0  0  0  0  0  0  0
    1.4745   -0.7137    1.9196 H   0  0  0  0  0  0  0  0  0  0  0  0
    0.8768   -2.0023    0.8338 H   0  0  0  0  0  0  0  0  0  0  0  0
   -0.2928   -0.9173    1.7386 H   0  0  0  0  0  0  0  0  0  0  0  0
    0.2514    1.9760   -0.4189 H   0  0  0  0  0  0  0  0  0  0  0  0
   -0.0877    1.5686    1.3005 H   0  0  0  0  0  0  0  0  0  0  0  0
   -1.7594    1.1555   -1.2063 H   0  0  0  0  0  0  0  0  0  0  0  0
   -2.2513    1.6954    0.4787 H   0  0  0  0  0  0  0  0  0  0  0  0
   -1.3546   -2.1952   -0.2754 H   0  0  0  0  0  0  0  0  0  0  0  0
   -1.9366   -1.1305   -1.5965 H   0  0  0  0  0  0  0  0  0  0  0  0
  1  2  1  0
  2  3  1  0
  2  4  1  0
  4  5  1  0
  5  6  1  0
  6  7  1  0
  7  8  1  0
  8  2  1  0
  1  9  1  0
  1 10  1  0
  1 11  1  0
  3 12  1  0
  3 13  1  0
  3 14  1  0
  4 15  1  0
  4 16  1  0
  5 17  1  0
  5 18  1  0
  7 19  1  0
  7 20  1  0
M  END
