
     RDKit          3D

 18 18  0  0  0  0  0  0  0  0999 V2000
   -0.3208   -1.1482    0.8943 C   0  0  0  0  0  0  0  0  0  0  0  0
   -0.3415    0.0451   -0.0115 C   0  0  0  0  0  0  0  0  0  0  0  0
   -1.3551    1.0727    0.3906 C   0  0  0  0  0  0  0  0  0  0  0  0
   -0.4578   -0.2566   -1.4869 C   0  0  0  0  0  0  0  0  0  0  0  0
    0.9054   -0.0643   -1.6788 O   0  0  0  0  0  0  0  0  0  0  0  0
    1.0023    0.5388   -0.4321 C   0  0  0  0  0  0  0  0  0  0  0  0
    2.0970   -0.0703    0.3561 C   0  0  0  0  0  0  0  0  0  0  0  0
    2.3815    0.2900    1.4898 O   0  0  0  0  0  0  0  0  0  0  0  0
    0.4148   -0.9551    1.7028 H   0  0  0  0  0  0  0  0  0  0  0  0
   -1.3107   -1.2492    1.4258 H   0  0  0  0  0  0  0  0  0  0  0  0
   -0.0886   -2.0861    0.3550 H   0  0  0  0  0  0  0  0  0  0  0  0
   -2.3696    0.6068    0.2158 H   0  0  0  0  0  0  0  0  0  0  0  0
   -1.2918    1.3409    1.4599 H   0  0  0  0  0  0  0  0  0  0  0  0
   -1.2948    1.9743   -0.2493 H   0  0  0  0  0  0  0  0  0  0  0  0
   -1.0144    0.4936   -2.0858 H   0  0  0  0  0  0  0  0  0  0  0  0
   -0.7588   -1.2932   -1.7183 H   0  0  0  0  0  0  0  0  0  0  0  0
    1.1175    1.6305   -0.5616 H   0  0  0  0  0  0  0  0  0  0  0  0
    2.6856   -0.8698   -0.0657 H   0  0  0  0  0  0  0  0  0  0  0  0
  1  2  1  0
  2  3  1  0
  2  4  1  0
  4  5  1  0
  5  6  1  0
  6  7  1  0
  7  8  2  0
  6  2  1  0
  1  9  1  0
  1 10  1  0
  1 11  1  0
  3 12  1  0
  3 13  1  0
  3 14  1  0
  4 15  1  0
  4 16  1  0
  6 17  1  0
  7 18  1  0
M  END
