
     RDKit          3D

 21 21  0  0  0  0  0  0  0  0999 V2000
   -1.0326   -1.5641    0.4775 C   0  0  0  0  0  0  0  0  0  0  0  0
   -1.0656   -0.1141    0.0789 C   0  0  0  0  0  0  0  0  0  0  0  0
    0.0651    0.7951    0.3305 C   0  0  0  0  0  0  0  0  0  0  0  0
   -0.3853    2.1121    0.3396 O   0  0  0  0  0  0  0  0  0  0  0  0
    1.2119    0.6985   -0.6185 C   0  0  0  0  0  0  0  0  0  0  0  0
    1.8418   -0.6814   -0.6324 C   0  0  0  0  0  0  0  0  0  0  0  0
    2.3307   -1.0369    0.6206 O   0  0  0  0  0  0  0  0  0  0  0  0
   -2.4201    0.5500   -0.0498 C   0  0  0  0  0  0  0  0  0  0  0  0
   -1.7936    0.0431   -1.1620 O   0  0  0  0  0  0  0  0  0  0  0  0
   -1.0476   -2.2588   -0.3867 H   0  0  0  0  0  0  0  0  0  0  0  0
   -0.2424   -1.8371    1.1639 H   0  0  0  0  0  0  0  0  0  0  0  0
   -2.0057   -1.7595    1.0171 H   0  0  0  0  0  0  0  0  0  0  0  0
    0.4241    0.5974    1.3738 H   0  0  0  0  0  0  0  0  0  0  0  0
    0.3446    2.7656    0.1951 H   0  0  0  0  0  0  0  0  0  0  0  0
    0.9451    1.0328   -1.6249 H   0  0  0  0  0  0  0  0  0  0  0  0
    2.0076    1.3932   -0.2536 H   0  0  0  0  0  0  0  0  0  0  0  0
    1.1124   -1.4359   -1.0303 H   0  0  0  0  0  0  0  0  0  0  0  0
    2.7040   -0.7180   -1.3283 H   0  0  0  0  0  0  0  0  0  0  0  0
    2.7142   -0.2356    1.0243 H   0  0  0  0  0  0  0  0  0  0  0  0
   -2.4759    1.6549    0.0134 H   0  0  0  0  0  0  0  0  0  0  0  0
   -3.2328   -0.0011    0.4516 H   0  0  0  0  0  0  0  0  0  0  0  0
  1  2  1  0
  2  3  1  0
  3  4  1  0
  3  5  1  0
  5  6  1  0
  6  7  1  0
  2  8  1  0
  8  9  1  0
  9  2  1  0
  1 10  1  0
  1 11  1  0
  1 12  1  0
  3 13  1  0
  4 14  1  0
  5 15  1  0
  5 16  1  0
  6 17  1  0
  6 18  1  0
  7 19  1  0
  8 20  1  0
  8 21  1  0
M  END
