
     RDKit          3D

 21 21  0  0  0  0  0  0  0  0999 V2000
   -1.6283    1.1064    0.0229 C   0  0  0  0  0  0  0  0  0  0  0  0
   -0.6534   -0.0443    0.1425 C   0  0  0  0  0  0  0  0  0  0  0  0
   -1.4749   -1.3247    0.0266 C   0  0  0  0  0  0  0  0  0  0  0  0
    0.2960    0.0011   -1.0053 C   0  0  0  0  0  0  0  0  0  0  0  0
    1.6287    0.5779   -0.7056 C   0  0  0  0  0  0  0  0  0  0  0  0
    2.2324   -0.0502    0.5243 C   0  0  0  0  0  0  0  0  0  0  0  0
    1.3474    0.2149    1.6076 O   0  0  0  0  0  0  0  0  0  0  0  0
   -0.0059   -0.0542    1.4579 C   0  0  0  0  0  0  0  0  0  0  0  0
   -0.7011   -0.3145    2.4754 O   0  0  0  0  0  0  0  0  0  0  0  0
   -1.1550    2.0507   -0.2373 H   0  0  0  0  0  0  0  0  0  0  0  0
   -2.4257    0.8440   -0.7311 H   0  0  0  0  0  0  0  0  0  0  0  0
   -2.1826    1.2304    0.9843 H   0  0  0  0  0  0  0  0  0  0  0  0
   -2.5622   -1.1284    0.1262 H   0  0  0  0  0  0  0  0  0  0  0  0
   -1.1208   -2.0789    0.7748 H   0  0  0  0  0  0  0  0  0  0  0  0
   -1.3250   -1.7981   -0.9817 H   0  0  0  0  0  0  0  0  0  0  0  0
    0.4540   -1.0278   -1.4304 H   0  0  0  0  0  0  0  0  0  0  0  0
   -0.1624    0.5964   -1.8470 H   0  0  0  0  0  0  0  0  0  0  0  0
    1.6521    1.6858   -0.6763 H   0  0  0  0  0  0  0  0  0  0  0  0
    2.3175    0.2978   -1.5560 H   0  0  0  0  0  0  0  0  0  0  0  0
    2.2486   -1.1580    0.3315 H   0  0  0  0  0  0  0  0  0  0  0  0
    3.2208    0.3737    0.6970 H   0  0  0  0  0  0  0  0  0  0  0  0
  1  2  1  0
  2  3  1  0
  2  4  1  0
  4  5  1  0
  5  6  1  0
  6  7  1  0
  7  8  1  0
  8  9  2  0
  8  2  1  0
  1 10  1  0
  1 11  1  0
  1 12  1  0
  3 13  1  0
  3 14  1  0
  3 15  1  0
  4 16  1  0
  4 17  1  0
  5 18  1  0
  5 19  1  0
  6 20  1  0
  6 21  1  0
M  END
