
     RDKit          3D

 17 17  0  0  0  0  0  0  0  0999 V2000
   -1.3198    0.6843   -0.4764 C   0  0  0  0  0  0  0  0  0  0  0  0
   -0.1793   -0.0427    0.1614 C   0  0  0  0  0  0  0  0  0  0  0  0
    1.0754    0.7461    0.2505 C   0  0  0  0  0  0  0  0  0  0  0  0
    1.5523    0.9585    1.4151 O   0  0  0  0  0  0  0  0  0  0  0  0
    1.7544    1.2666   -0.9137 C   0  0  0  0  0  0  0  0  0  0  0  0
    1.2755    1.0501   -2.0418 O   0  0  0  0  0  0  0  0  0  0  0  0
    0.0099   -1.4716   -0.2913 C   0  0  0  0  0  0  0  0  0  0  0  0
    0.3824   -1.7834    1.0150 O   0  0  0  0  0  0  0  0  0  0  0  0
   -0.5007   -0.7868    1.4403 C   0  0  0  0  0  0  0  0  0  0  0  0
   -2.2630    0.2137   -0.1707 H   0  0  0  0  0  0  0  0  0  0  0  0
   -1.2467    1.7492   -0.2034 H   0  0  0  0  0  0  0  0  0  0  0  0
   -1.1963    0.5902   -1.5885 H   0  0  0  0  0  0  0  0  0  0  0  0
    2.6540    1.8288   -0.8043 H   0  0  0  0  0  0  0  0  0  0  0  0
   -1.0048   -1.8980   -0.5421 H   0  0  0  0  0  0  0  0  0  0  0  0
    0.7830   -1.6460   -1.0456 H   0  0  0  0  0  0  0  0  0  0  0  0
   -0.2291   -0.2815    2.3718 H   0  0  0  0  0  0  0  0  0  0  0  0
   -1.5473   -1.1776    1.4237 H   0  0  0  0  0  0  0  0  0  0  0  0
  1  2  1  0
  2  3  1  0
  3  4  2  0
  3  5  1  0
  5  6  2  0
  2  7  1  0
  7  8  1  0
  8  9  1  0
  9  2  1  0
  1 10  1  0
  1 11  1  0
  1 12  1  0
  5 13  1  0
  7 14  1  0
  7 15  1  0
  9 16  1  0
  9 17  1  0
M  END
