
     RDKit          3D

 21 22  0  0  0  0  0  0  0  0999 V2000
    1.1911   -1.6989   -0.3108 C   0  0  0  0  0  0  0  0  0  0  0  0
    0.7616   -0.2475   -0.0621 C   0  0  0  0  0  0  0  0  0  0  0  0
    2.0078    0.6370    0.1015 C   0  0  0  0  0  0  0  0  0  0  0  0
    1.6615    1.9596    0.3285 O   0  0  0  0  0  0  0  0  0  0  0  0
   -0.3446   -0.0170    0.7579 C   0  0  0  0  0  0  0  0  0  0  0  0
   -1.7803   -0.4080    0.7239 C   0  0  0  0  0  0  0  0  0  0  0  0
   -2.3030    0.7279   -0.1793 C   0  0  0  0  0  0  0  0  0  0  0  0
   -1.1336    1.3687   -0.6746 O   0  0  0  0  0  0  0  0  0  0  0  0
   -0.3093    0.2859   -0.7975 C   0  0  0  0  0  0  0  0  0  0  0  0
    2.1736   -1.7706   -0.7734 H   0  0  0  0  0  0  0  0  0  0  0  0
    0.4629   -2.1929   -1.0199 H   0  0  0  0  0  0  0  0  0  0  0  0
    1.0911   -2.2648    0.6448 H   0  0  0  0  0  0  0  0  0  0  0  0
    2.6752    0.5160   -0.7880 H   0  0  0  0  0  0  0  0  0  0  0  0
    2.5980    0.2720    0.9669 H   0  0  0  0  0  0  0  0  0  0  0  0
    2.2862    2.5286   -0.2190 H   0  0  0  0  0  0  0  0  0  0  0  0
   -0.2703    0.9019    1.4233 H   0  0  0  0  0  0  0  0  0  0  0  0
   -2.2669   -0.3985    1.6941 H   0  0  0  0  0  0  0  0  0  0  0  0
   -1.8788   -1.3834    0.2468 H   0  0  0  0  0  0  0  0  0  0  0  0
   -2.9296    1.4280    0.3935 H   0  0  0  0  0  0  0  0  0  0  0  0
   -2.8344    0.2250   -1.0112 H   0  0  0  0  0  0  0  0  0  0  0  0
   -0.8583   -0.4691   -1.4457 H   0  0  0  0  0  0  0  0  0  0  0  0
  1  2  1  0
  2  3  1  0
  3  4  1  0
  2  5  1  0
  5  6  1  0
  6  7  1  0
  7  8  1  0
  8  9  1  0
  9  2  1  0
  9  5  1  0
  1 10  1  0
  1 11  1  0
  1 12  1  0
  3 13  1  0
  3 14  1  0
  4 15  1  0
  5 16  1  0
  6 17  1  0
  6 18  1  0
  7 19  1  0
  7 20  1  0
  9 21  1  0
M  END
