
     RDKit          3D

 23 23  0  0  0  0  0  0  0  0999 V2000
   -1.9619   -0.2333   -0.7713 C   0  0  0  0  0  0  0  0  0  0  0  0
   -0.8189   -0.1628    0.2045 C   0  0  0  0  0  0  0  0  0  0  0  0
   -1.4494    0.0269    1.5926 C   0  0  0  0  0  0  0  0  0  0  0  0
   -0.0462    1.0973   -0.0818 C   0  0  0  0  0  0  0  0  0  0  0  0
    1.2712    1.1558    0.6288 C   0  0  0  0  0  0  0  0  0  0  0  0
    2.2608    0.4035   -0.1982 C   0  0  0  0  0  0  0  0  0  0  0  0
    1.9983   -0.7479   -0.8120 C   0  0  0  0  0  0  0  0  0  0  0  0
    0.7184   -1.5489   -0.8365 C   0  0  0  0  0  0  0  0  0  0  0  0
   -0.0541   -1.2936    0.2641 O   0  0  0  0  0  0  0  0  0  0  0  0
   -2.6456   -1.0320   -0.4135 H   0  0  0  0  0  0  0  0  0  0  0  0
   -2.5162    0.7226   -0.6955 H   0  0  0  0  0  0  0  0  0  0  0  0
   -1.6545   -0.3536   -1.8155 H   0  0  0  0  0  0  0  0  0  0  0  0
   -0.6627    0.3769    2.2914 H   0  0  0  0  0  0  0  0  0  0  0  0
   -1.9093   -0.9303    1.8915 H   0  0  0  0  0  0  0  0  0  0  0  0
   -2.2114    0.8302    1.4826 H   0  0  0  0  0  0  0  0  0  0  0  0
   -0.6460    1.9711    0.2320 H   0  0  0  0  0  0  0  0  0  0  0  0
    0.1187    1.1838   -1.1842 H   0  0  0  0  0  0  0  0  0  0  0  0
    1.2461    0.6403    1.6177 H   0  0  0  0  0  0  0  0  0  0  0  0
    1.6149    2.1865    0.8227 H   0  0  0  0  0  0  0  0  0  0  0  0
    3.2524    0.8315   -0.2979 H   0  0  0  0  0  0  0  0  0  0  0  0
    2.8194   -1.1583   -1.3664 H   0  0  0  0  0  0  0  0  0  0  0  0
    0.2120   -1.3458   -1.7973 H   0  0  0  0  0  0  0  0  0  0  0  0
    1.0637   -2.6201   -0.7580 H   0  0  0  0  0  0  0  0  0  0  0  0
  1  2  1  0
  2  3  1  0
  2  4  1  0
  4  5  1  0
  5  6  1  0
  6  7  2  0
  7  8  1  0
  8  9  1  0
  9  2  1  0
  1 10  1  0
  1 11  1  0
  1 12  1  0
  3 13  1  0
  3 14  1  0
  3 15  1  0
  4 16  1  0
  4 17  1  0
  5 18  1  0
  5 19  1  0
  6 20  1  0
  7 21  1  0
  8 22  1  0
  8 23  1  0
M  END
