
     RDKit          3D

 21 23  0  0  0  0  0  0  0  0999 V2000
    1.0200   -1.4807    0.0090 C   0  0  0  0  0  0  0  0  0  0  0  0
    0.7320   -0.0354   -0.1929 C   0  0  0  0  0  0  0  0  0  0  0  0
    1.9509    0.7901   -0.5426 C   0  0  0  0  0  0  0  0  0  0  0  0
   -0.0896    0.6333    0.8923 C   0  0  0  0  0  0  0  0  0  0  0  0
   -1.0640   -0.3057    1.5440 C   0  0  0  0  0  0  0  0  0  0  0  0
   -2.0521   -0.5824    0.7247 C   0  0  0  0  0  0  0  0  0  0  0  0
   -1.8508    0.1339   -0.5540 C   0  0  0  0  0  0  0  0  0  0  0  0
   -0.9313    1.2101   -0.2044 C   0  0  0  0  0  0  0  0  0  0  0  0
   -0.4492    0.1736   -1.1162 C   0  0  0  0  0  0  0  0  0  0  0  0
    2.0667   -1.7187   -0.3172 H   0  0  0  0  0  0  0  0  0  0  0  0
    0.3682   -2.1556   -0.6053 H   0  0  0  0  0  0  0  0  0  0  0  0
    0.8974   -1.7837    1.0679 H   0  0  0  0  0  0  0  0  0  0  0  0
    2.4474    0.4047   -1.4373 H   0  0  0  0  0  0  0  0  0  0  0  0
    1.6594    1.8419   -0.7412 H   0  0  0  0  0  0  0  0  0  0  0  0
    2.6435    0.7135    0.3322 H   0  0  0  0  0  0  0  0  0  0  0  0
    0.4244    1.3257    1.5466 H   0  0  0  0  0  0  0  0  0  0  0  0
   -0.9461   -0.6878    2.5513 H   0  0  0  0  0  0  0  0  0  0  0  0
   -2.8923   -1.2270    0.9248 H   0  0  0  0  0  0  0  0  0  0  0  0
   -2.6338    0.1768   -1.3019 H   0  0  0  0  0  0  0  0  0  0  0  0
   -1.0324    2.2551   -0.4017 H   0  0  0  0  0  0  0  0  0  0  0  0
   -0.2683    0.3184   -2.1782 H   0  0  0  0  0  0  0  0  0  0  0  0
  1  2  1  0
  2  3  1  0
  2  4  1  0
  4  5  1  0
  5  6  2  0
  6  7  1  0
  7  8  1  0
  8  9  1  0
  9  2  1  0
  8  4  1  0
  9  7  1  0
  1 10  1  0
  1 11  1  0
  1 12  1  0
  3 13  1  0
  3 14  1  0
  3 15  1  0
  4 16  1  0
  5 17  1  0
  6 18  1  0
  7 19  1  0
  8 20  1  0
  9 21  1  0
M  END
