
     RDKit          3D

 21 21  0  0  0  0  0  0  0  0999 V2000
   -1.7572    0.8142    1.0104 C   0  0  0  0  0  0  0  0  0  0  0  0
   -0.7646    0.1618    0.0845 C   0  0  0  0  0  0  0  0  0  0  0  0
   -1.4674   -0.0827   -1.2228 C   0  0  0  0  0  0  0  0  0  0  0  0
    0.4807    0.9453   -0.0670 C   0  0  0  0  0  0  0  0  0  0  0  0
    1.5239    0.1399   -0.1848 C   0  0  0  0  0  0  0  0  0  0  0  0
    2.9224    0.5407   -0.3518 C   0  0  0  0  0  0  0  0  0  0  0  0
    3.2251    1.7593   -0.3949 O   0  0  0  0  0  0  0  0  0  0  0  0
    1.0566   -1.2709   -0.1227 C   0  0  0  0  0  0  0  0  0  0  0  0
   -0.2119   -1.1153    0.6902 C   0  0  0  0  0  0  0  0  0  0  0  0
   -2.6330    0.1188    1.0625 H   0  0  0  0  0  0  0  0  0  0  0  0
   -1.3632    0.9986    2.0236 H   0  0  0  0  0  0  0  0  0  0  0  0
   -2.1381    1.7279    0.5096 H   0  0  0  0  0  0  0  0  0  0  0  0
   -0.8569   -0.6454   -1.9446 H   0  0  0  0  0  0  0  0  0  0  0  0
   -1.6560    0.9167   -1.6788 H   0  0  0  0  0  0  0  0  0  0  0  0
   -2.4324   -0.5418   -1.0164 H   0  0  0  0  0  0  0  0  0  0  0  0
    0.5111    2.0220   -0.0772 H   0  0  0  0  0  0  0  0  0  0  0  0
    3.7019   -0.1725   -0.4392 H   0  0  0  0  0  0  0  0  0  0  0  0
    0.8440   -1.5885   -1.1630 H   0  0  0  0  0  0  0  0  0  0  0  0
    1.7972   -1.9076    0.3779 H   0  0  0  0  0  0  0  0  0  0  0  0
   -0.8833   -1.9611    0.6242 H   0  0  0  0  0  0  0  0  0  0  0  0
    0.1012   -0.8593    1.7309 H   0  0  0  0  0  0  0  0  0  0  0  0
  1  2  1  0
  2  3  1  0
  2  4  1  0
  4  5  2  0
  5  6  1  0
  6  7  2  0
  5  8  1  0
  8  9  1  0
  9  2  1  0
  1 10  1  0
  1 11  1  0
  1 12  1  0
  3 13  1  0
  3 14  1  0
  3 15  1  0
  4 16  1  0
  6 17  1  0
  8 18  1  0
  8 19  1  0
  9 20  1  0
  9 21  1  0
M  END
