
     RDKit          3D

 18 19  0  0  0  0  0  0  0  0999 V2000
   -1.9991    0.3342    0.7188 C   0  0  0  0  0  0  0  0  0  0  0  0
   -0.9212   -0.0463   -0.2484 C   0  0  0  0  0  0  0  0  0  0  0  0
   -1.3767   -0.6145   -1.4218 O   0  0  0  0  0  0  0  0  0  0  0  0
    0.1415    1.0413   -0.4437 C   0  0  0  0  0  0  0  0  0  0  0  0
    1.1691    0.0159   -0.1896 C   0  0  0  0  0  0  0  0  0  0  0  0
    2.4758    0.0706    0.1865 C   0  0  0  0  0  0  0  0  0  0  0  0
    2.0310   -0.4532   -1.1375 O   0  0  0  0  0  0  0  0  0  0  0  0
    0.1470   -0.8835    0.4502 C   0  0  0  0  0  0  0  0  0  0  0  0
   -2.5379   -0.5531    1.0675 H   0  0  0  0  0  0  0  0  0  0  0  0
   -2.6654    1.0672    0.1989 H   0  0  0  0  0  0  0  0  0  0  0  0
   -1.5161    0.8860    1.5574 H   0  0  0  0  0  0  0  0  0  0  0  0
   -1.6029   -1.5701   -1.2001 H   0  0  0  0  0  0  0  0  0  0  0  0
    0.0831    1.4624   -1.4785 H   0  0  0  0  0  0  0  0  0  0  0  0
    0.0210    1.8515    0.2851 H   0  0  0  0  0  0  0  0  0  0  0  0
    2.9714   -0.7620    0.7395 H   0  0  0  0  0  0  0  0  0  0  0  0
    3.1906    0.8922   -0.0397 H   0  0  0  0  0  0  0  0  0  0  0  0
    0.2570   -1.9133    0.0423 H   0  0  0  0  0  0  0  0  0  0  0  0
    0.1318   -0.8254    1.5471 H   0  0  0  0  0  0  0  0  0  0  0  0
  1  2  1  0
  2  3  1  0
  2  4  1  0
  4  5  1  0
  5  6  1  0
  6  7  1  0
  5  8  1  0
  8  2  1  0
  7  5  1  0
  1  9  1  0
  1 10  1  0
  1 11  1  0
  3 12  1  0
  4 13  1  0
  4 14  1  0
  6 15  1  0
  6 16  1  0
  8 17  1  0
  8 18  1  0
M  END
