
     RDKit          3D

 21 22  0  0  0  0  0  0  0  0999 V2000
    0.0834    1.2302    1.0441 C   0  0  0  0  0  0  0  0  0  0  0  0
    0.0401    0.1814   -0.0390 C   0  0  0  0  0  0  0  0  0  0  0  0
    1.3693    0.0194   -0.6921 C   0  0  0  0  0  0  0  0  0  0  0  0
    2.5499   -0.3962    0.1546 C   0  0  0  0  0  0  0  0  0  0  0  0
    1.8831   -1.2908   -0.6468 O   0  0  0  0  0  0  0  0  0  0  0  0
   -1.0223    0.6387   -1.0390 C   0  0  0  0  0  0  0  0  0  0  0  0
   -2.2307   -0.0811   -0.6125 C   0  0  0  0  0  0  0  0  0  0  0  0
   -1.9248   -1.0625    0.1893 C   0  0  0  0  0  0  0  0  0  0  0  0
   -0.4886   -1.1342    0.4072 C   0  0  0  0  0  0  0  0  0  0  0  0
   -0.9266    1.3042    1.4942 H   0  0  0  0  0  0  0  0  0  0  0  0
    0.8669    1.0084    1.8014 H   0  0  0  0  0  0  0  0  0  0  0  0
    0.2934    2.1984    0.5454 H   0  0  0  0  0  0  0  0  0  0  0  0
    1.6451    0.6493   -1.5642 H   0  0  0  0  0  0  0  0  0  0  0  0
    3.5678   -0.0797   -0.1640 H   0  0  0  0  0  0  0  0  0  0  0  0
    2.4108   -0.3893    1.2437 H   0  0  0  0  0  0  0  0  0  0  0  0
   -1.2354    1.7358   -0.9203 H   0  0  0  0  0  0  0  0  0  0  0  0
   -0.6918    0.3873   -2.0670 H   0  0  0  0  0  0  0  0  0  0  0  0
   -3.2482    0.1788   -0.9305 H   0  0  0  0  0  0  0  0  0  0  0  0
   -2.6688   -1.7510    0.6438 H   0  0  0  0  0  0  0  0  0  0  0  0
   -0.0823   -1.9301   -0.2834 H   0  0  0  0  0  0  0  0  0  0  0  0
   -0.1902   -1.4168    1.4352 H   0  0  0  0  0  0  0  0  0  0  0  0
  1  2  1  0
  2  3  1  0
  3  4  1  0
  4  5  1  0
  2  6  1  0
  6  7  1  0
  7  8  2  0
  8  9  1  0
  9  2  1  0
  5  3  1  0
  1 10  1  0
  1 11  1  0
  1 12  1  0
  3 13  1  0
  4 14  1  0
  4 15  1  0
  6 16  1  0
  6 17  1  0
  7 18  1  0
  8 19  1  0
  9 20  1  0
  9 21  1  0
M  END
