
     RDKit          3D

 21 22  0  0  0  0  0  0  0  0999 V2000
    1.4221   -0.6257    1.0186 C   0  0  0  0  0  0  0  0  0  0  0  0
    0.5831   -0.2905   -0.1759 C   0  0  0  0  0  0  0  0  0  0  0  0
    1.1634    0.6492   -1.2093 C   0  0  0  0  0  0  0  0  0  0  0  0
    1.4241    1.8605   -0.5239 O   0  0  0  0  0  0  0  0  0  0  0  0
   -0.3247   -1.4156   -0.6338 C   0  0  0  0  0  0  0  0  0  0  0  0
   -0.8495   -0.2468   -0.0127 C   0  0  0  0  0  0  0  0  0  0  0  0
   -1.5171   -0.0823    1.2813 C   0  0  0  0  0  0  0  0  0  0  0  0
   -2.6027    0.4979    0.5961 O   0  0  0  0  0  0  0  0  0  0  0  0
   -1.7844    0.7559   -0.5309 C   0  0  0  0  0  0  0  0  0  0  0  0
    2.2710   -1.3128    0.7829 H   0  0  0  0  0  0  0  0  0  0  0  0
    1.8650    0.2617    1.5052 H   0  0  0  0  0  0  0  0  0  0  0  0
    0.8044   -1.1363    1.7758 H   0  0  0  0  0  0  0  0  0  0  0  0
    2.0632    0.2530   -1.6947 H   0  0  0  0  0  0  0  0  0  0  0  0
    0.3893    0.9114   -1.9618 H   0  0  0  0  0  0  0  0  0  0  0  0
    2.3504    1.7331   -0.1549 H   0  0  0  0  0  0  0  0  0  0  0  0
   -0.3682   -1.5059   -1.7490 H   0  0  0  0  0  0  0  0  0  0  0  0
   -0.2547   -2.4021   -0.1228 H   0  0  0  0  0  0  0  0  0  0  0  0
   -1.7507   -0.9490    1.8894 H   0  0  0  0  0  0  0  0  0  0  0  0
   -1.0599    0.7201    1.9289 H   0  0  0  0  0  0  0  0  0  0  0  0
   -1.5108    1.8190   -0.5148 H   0  0  0  0  0  0  0  0  0  0  0  0
   -2.3134    0.5053   -1.4937 H   0  0  0  0  0  0  0  0  0  0  0  0
  1  2  1  0
  2  3  1  0
  3  4  1  0
  2  5  1  0
  5  6  1  0
  6  7  1  0
  7  8  1  0
  8  9  1  0
  6  2  1  0
  9  6  1  0
  1 10  1  0
  1 11  1  0
  1 12  1  0
  3 13  1  0
  3 14  1  0
  4 15  1  0
  5 16  1  0
  5 17  1  0
  7 18  1  0
  7 19  1  0
  9 20  1  0
  9 21  1  0
M  END
