
     RDKit          3D

 21 21  0  0  0  0  0  0  0  0999 V2000
   -0.9274    1.6556   -0.6563 C   0  0  0  0  0  0  0  0  0  0  0  0
   -0.1853    0.3698   -0.3221 C   0  0  0  0  0  0  0  0  0  0  0  0
    1.2835    0.4595   -0.4894 C   0  0  0  0  0  0  0  0  0  0  0  0
    2.0794   -0.7522   -0.1832 C   0  0  0  0  0  0  0  0  0  0  0  0
    1.9507   -1.1800    1.1153 O   0  0  0  0  0  0  0  0  0  0  0  0
   -0.7785   -0.9304   -0.9012 C   0  0  0  0  0  0  0  0  0  0  0  0
   -0.9021   -0.5412    0.5708 C   0  0  0  0  0  0  0  0  0  0  0  0
   -2.2962   -0.2231    0.9502 C   0  0  0  0  0  0  0  0  0  0  0  0
   -2.7562   -0.6924    1.9633 O   0  0  0  0  0  0  0  0  0  0  0  0
   -1.3629    2.0526    0.3023 H   0  0  0  0  0  0  0  0  0  0  0  0
   -1.7085    1.4742   -1.4215 H   0  0  0  0  0  0  0  0  0  0  0  0
   -0.2420    2.4528   -1.0101 H   0  0  0  0  0  0  0  0  0  0  0  0
    1.4718    0.7181   -1.5753 H   0  0  0  0  0  0  0  0  0  0  0  0
    1.6817    1.3378    0.0641 H   0  0  0  0  0  0  0  0  0  0  0  0
    3.1639   -0.4654   -0.3160 H   0  0  0  0  0  0  0  0  0  0  0  0
    1.9021   -1.5744   -0.9035 H   0  0  0  0  0  0  0  0  0  0  0  0
    2.6487   -0.8107    1.7229 H   0  0  0  0  0  0  0  0  0  0  0  0
   -0.1130   -1.7508   -1.1498 H   0  0  0  0  0  0  0  0  0  0  0  0
   -1.6324   -0.8025   -1.5723 H   0  0  0  0  0  0  0  0  0  0  0  0
   -0.3555   -1.2115    1.2654 H   0  0  0  0  0  0  0  0  0  0  0  0
   -2.9217    0.4143    0.3558 H   0  0  0  0  0  0  0  0  0  0  0  0
  1  2  1  0
  2  3  1  0
  3  4  1  0
  4  5  1  0
  2  6  1  0
  6  7  1  0
  7  8  1  0
  8  9  2  0
  7  2  1  0
  1 10  1  0
  1 11  1  0
  1 12  1  0
  3 13  1  0
  3 14  1  0
  4 15  1  0
  4 16  1  0
  5 17  1  0
  6 18  1  0
  6 19  1  0
  7 20  1  0
  8 21  1  0
M  END
