
     RDKit          3D

 19 19  0  0  0  0  0  0  0  0999 V2000
    1.1841   -1.1925    0.8027 C   0  0  0  0  0  0  0  0  0  0  0  0
    0.7452   -0.2747   -0.2864 C   0  0  0  0  0  0  0  0  0  0  0  0
    1.1606   -0.6640   -1.5603 O   0  0  0  0  0  0  0  0  0  0  0  0
    0.4671    1.1577   -0.1070 C   0  0  0  0  0  0  0  0  0  0  0  0
    0.9142    1.6535    1.1390 O   0  0  0  0  0  0  0  0  0  0  0  0
   -0.6885    0.2808   -0.1405 C   0  0  0  0  0  0  0  0  0  0  0  0
   -1.5594   -0.0768   -1.2814 C   0  0  0  0  0  0  0  0  0  0  0  0
   -1.3440   -0.0110    1.2024 C   0  0  0  0  0  0  0  0  0  0  0  0
   -1.3285    0.8256    2.0016 O   0  0  0  0  0  0  0  0  0  0  0  0
    1.2401   -0.6989    1.7916 H   0  0  0  0  0  0  0  0  0  0  0  0
    2.1938   -1.6540    0.6019 H   0  0  0  0  0  0  0  0  0  0  0  0
    0.4721   -2.0414    0.8723 H   0  0  0  0  0  0  0  0  0  0  0  0
    2.1026   -0.3661   -1.7218 H   0  0  0  0  0  0  0  0  0  0  0  0
    0.6643    1.8378   -0.9515 H   0  0  0  0  0  0  0  0  0  0  0  0
    1.0921    2.6248    1.0936 H   0  0  0  0  0  0  0  0  0  0  0  0
   -2.1515   -0.9652   -1.0663 H   0  0  0  0  0  0  0  0  0  0  0  0
   -2.3415    0.7402   -1.4390 H   0  0  0  0  0  0  0  0  0  0  0  0
   -1.0423   -0.1946   -2.2415 H   0  0  0  0  0  0  0  0  0  0  0  0
   -1.7804   -0.9812    1.2907 H   0  0  0  0  0  0  0  0  0  0  0  0
  1  2  1  0
  2  3  1  0
  2  4  1  0
  4  5  1  0
  4  6  1  0
  6  7  1  0
  6  8  1  0
  8  9  2  0
  6  2  1  0
  1 10  1  0
  1 11  1  0
  1 12  1  0
  3 13  1  0
  4 14  1  0
  5 15  1  0
  7 16  1  0
  7 17  1  0
  7 18  1  0
  8 19  1  0
M  END
