
     RDKit          3D

 19 20  0  0  0  0  0  0  0  0999 V2000
    1.9888   -0.3134   -0.3604 C   0  0  0  0  0  0  0  0  0  0  0  0
    0.7761    0.0904    0.3824 C   0  0  0  0  0  0  0  0  0  0  0  0
    1.0201    0.9822    1.4295 O   0  0  0  0  0  0  0  0  0  0  0  0
   -0.0432   -1.0306    0.8927 C   0  0  0  0  0  0  0  0  0  0  0  0
    0.2665   -1.9662    1.5353 O   0  0  0  0  0  0  0  0  0  0  0  0
   -1.3824   -0.6830    0.3869 C   0  0  0  0  0  0  0  0  0  0  0  0
   -1.0414   -0.5139   -1.1055 C   0  0  0  0  0  0  0  0  0  0  0  0
   -0.2462    0.6847   -0.5624 C   0  0  0  0  0  0  0  0  0  0  0  0
   -1.4287    0.8362    0.3985 C   0  0  0  0  0  0  0  0  0  0  0  0
    1.8152   -0.3917   -1.4490 H   0  0  0  0  0  0  0  0  0  0  0  0
    2.4611   -1.2533   -0.0297 H   0  0  0  0  0  0  0  0  0  0  0  0
    2.7717    0.4848   -0.2011 H   0  0  0  0  0  0  0  0  0  0  0  0
    1.1325    1.9105    1.1224 H   0  0  0  0  0  0  0  0  0  0  0  0
   -2.2363   -1.2358    0.6397 H   0  0  0  0  0  0  0  0  0  0  0  0
   -1.9408   -0.2142   -1.6337 H   0  0  0  0  0  0  0  0  0  0  0  0
   -0.4315   -1.3250   -1.5033 H   0  0  0  0  0  0  0  0  0  0  0  0
   -0.0031    1.4721   -1.2100 H   0  0  0  0  0  0  0  0  0  0  0  0
   -1.1577    1.2548    1.3672 H   0  0  0  0  0  0  0  0  0  0  0  0
   -2.3208    1.2115   -0.0994 H   0  0  0  0  0  0  0  0  0  0  0  0
  1  2  1  0
  2  3  1  0
  2  4  1  0
  4  5  2  0
  4  6  1  0
  6  7  1  0
  7  8  1  0
  8  9  1  0
  8  2  1  0
  9  6  1  0
  1 10  1  0
  1 11  1  0
  1 12  1  0
  3 13  1  0
  6 14  1  0
  7 15  1  0
  7 16  1  0
  8 17  1  0
  9 18  1  0
  9 19  1  0
M  END
