
     RDKit          3D

 21 21  0  0  0  0  0  0  0  0999 V2000
   -2.4008    1.2681    0.3984 C   0  0  0  0  0  0  0  0  0  0  0  0
   -1.3102    0.3030   -0.0858 C   0  0  0  0  0  0  0  0  0  0  0  0
   -1.7958   -1.0378   -0.5031 C   0  0  0  0  0  0  0  0  0  0  0  0
   -0.4401    0.9533   -1.1037 O   0  0  0  0  0  0  0  0  0  0  0  0
    0.0462    0.6459    0.2044 C   0  0  0  0  0  0  0  0  0  0  0  0
    1.1885   -0.3388    0.2736 C   0  0  0  0  0  0  0  0  0  0  0  0
    0.8759   -1.5750   -0.2617 O   0  0  0  0  0  0  0  0  0  0  0  0
    2.3715    0.2183   -0.5305 C   0  0  0  0  0  0  0  0  0  0  0  0
    3.4468   -0.6609   -0.4138 O   0  0  0  0  0  0  0  0  0  0  0  0
   -3.2950    0.6915    0.7100 H   0  0  0  0  0  0  0  0  0  0  0  0
   -2.6372    1.9571   -0.4426 H   0  0  0  0  0  0  0  0  0  0  0  0
   -2.0288    1.8688    1.2398 H   0  0  0  0  0  0  0  0  0  0  0  0
   -1.4212   -1.8821    0.0802 H   0  0  0  0  0  0  0  0  0  0  0  0
   -1.5590   -1.2657   -1.5795 H   0  0  0  0  0  0  0  0  0  0  0  0
   -2.9203   -1.0979   -0.4566 H   0  0  0  0  0  0  0  0  0  0  0  0
    0.2480    1.5823    0.7660 H   0  0  0  0  0  0  0  0  0  0  0  0
    1.5573   -0.4113    1.3169 H   0  0  0  0  0  0  0  0  0  0  0  0
    1.6878   -1.9558   -0.6720 H   0  0  0  0  0  0  0  0  0  0  0  0
    2.7051    1.1724   -0.0452 H   0  0  0  0  0  0  0  0  0  0  0  0
    2.0927    0.4049   -1.5720 H   0  0  0  0  0  0  0  0  0  0  0  0
    3.5888   -0.8402    0.5477 H   0  0  0  0  0  0  0  0  0  0  0  0
  1  2  1  0
  2  3  1  0
  2  4  1  0
  4  5  1  0
  5  6  1  0
  6  7  1  0
  6  8  1  0
  8  9  1  0
  5  2  1  0
  1 10  1  0
  1 11  1  0
  1 12  1  0
  3 13  1  0
  3 14  1  0
  3 15  1  0
  5 16  1  0
  6 17  1  0
  7 18  1  0
  8 19  1  0
  8 20  1  0
  9 21  1  0
M  END
