
     RDKit          3D

 18 18  0  0  0  0  0  0  0  0999 V2000
   -1.3762    1.2532    0.5295 C   0  0  0  0  0  0  0  0  0  0  0  0
   -0.5766    0.0330    0.1917 C   0  0  0  0  0  0  0  0  0  0  0  0
   -1.3683   -1.1856   -0.0162 C   0  0  0  0  0  0  0  0  0  0  0  0
   -1.9357   -1.6864    0.9361 O   0  0  0  0  0  0  0  0  0  0  0  0
    0.4665    0.3221   -0.8880 C   0  0  0  0  0  0  0  0  0  0  0  0
    1.3465   -0.6900   -0.1414 C   0  0  0  0  0  0  0  0  0  0  0  0
    2.6841   -0.4249   -0.1586 O   0  0  0  0  0  0  0  0  0  0  0  0
    0.6012   -0.2398    1.1214 C   0  0  0  0  0  0  0  0  0  0  0  0
   -1.0982    2.1075   -0.1250 H   0  0  0  0  0  0  0  0  0  0  0  0
   -1.3358    1.5516    1.5822 H   0  0  0  0  0  0  0  0  0  0  0  0
   -2.4533    1.0285    0.2986 H   0  0  0  0  0  0  0  0  0  0  0  0
   -1.4369   -1.6207   -1.0079 H   0  0  0  0  0  0  0  0  0  0  0  0
    0.8260    1.3500   -0.8020 H   0  0  0  0  0  0  0  0  0  0  0  0
    0.1261   -0.0259   -1.8625 H   0  0  0  0  0  0  0  0  0  0  0  0
    1.0955   -1.7162   -0.4180 H   0  0  0  0  0  0  0  0  0  0  0  0
    2.9252    0.4143    0.3060 H   0  0  0  0  0  0  0  0  0  0  0  0
    1.0370    0.6474    1.5834 H   0  0  0  0  0  0  0  0  0  0  0  0
    0.4728   -1.1184    1.7776 H   0  0  0  0  0  0  0  0  0  0  0  0
  1  2  1  0
  2  3  1  0
  3  4  2  0
  2  5  1  0
  5  6  1  0
  6  7  1  0
  6  8  1  0
  8  2  1  0
  1  9  1  0
  1 10  1  0
  1 11  1  0
  3 12  1  0
  5 13  1  0
  5 14  1  0
  6 15  1  0
  7 16  1  0
  8 17  1  0
  8 18  1  0
M  END
