
     RDKit          3D

 23 25  0  0  0  0  0  0  0  0999 V2000
   -0.0906    1.3833    0.7509 C   0  0  0  0  0  0  0  0  0  0  0  0
    0.1112    0.1331   -0.0808 C   0  0  0  0  0  0  0  0  0  0  0  0
   -1.1800   -0.4528   -0.5763 C   0  0  0  0  0  0  0  0  0  0  0  0
   -2.2299   -0.9005    0.3855 C   0  0  0  0  0  0  0  0  0  0  0  0
   -2.4534    0.2731   -0.5464 C   0  0  0  0  0  0  0  0  0  0  0  0
    1.0765    0.3529   -1.2524 C   0  0  0  0  0  0  0  0  0  0  0  0
    2.1629   -0.3915   -0.5679 C   0  0  0  0  0  0  0  0  0  0  0  0
    2.4042   -0.2994    0.8896 C   0  0  0  0  0  0  0  0  0  0  0  0
    1.1074   -0.8306    0.4689 C   0  0  0  0  0  0  0  0  0  0  0  0
    0.6946    1.5407    1.5038 H   0  0  0  0  0  0  0  0  0  0  0  0
   -1.0530    1.3596    1.2941 H   0  0  0  0  0  0  0  0  0  0  0  0
   -0.0624    2.2438    0.0204 H   0  0  0  0  0  0  0  0  0  0  0  0
   -1.0421   -1.1307   -1.4695 H   0  0  0  0  0  0  0  0  0  0  0  0
   -2.8288   -1.8028    0.1722 H   0  0  0  0  0  0  0  0  0  0  0  0
   -2.0318   -0.6953    1.4478 H   0  0  0  0  0  0  0  0  0  0  0  0
   -2.6073    1.2302   -0.0175 H   0  0  0  0  0  0  0  0  0  0  0  0
   -3.2082    0.1508   -1.3788 H   0  0  0  0  0  0  0  0  0  0  0  0
    1.2302    1.4234   -1.4568 H   0  0  0  0  0  0  0  0  0  0  0  0
    0.7405   -0.1479   -2.1870 H   0  0  0  0  0  0  0  0  0  0  0  0
    2.6807   -1.1545   -1.1428 H   0  0  0  0  0  0  0  0  0  0  0  0
    3.1244   -1.0593    1.2988 H   0  0  0  0  0  0  0  0  0  0  0  0
    2.5360    0.6952    1.3020 H   0  0  0  0  0  0  0  0  0  0  0  0
    0.9187   -1.9208    0.4406 H   0  0  0  0  0  0  0  0  0  0  0  0
  1  2  1  0
  2  3  1  0
  3  4  1  0
  4  5  1  0
  2  6  1  0
  6  7  1  0
  7  8  1  0
  8  9  1  0
  9  2  1  0
  5  3  1  0
  9  7  1  0
  1 10  1  0
  1 11  1  0
  1 12  1  0
  3 13  1  0
  4 14  1  0
  4 15  1  0
  5 16  1  0
  5 17  1  0
  6 18  1  0
  6 19  1  0
  7 20  1  0
  8 21  1  0
  8 22  1  0
  9 23  1  0
M  END
