
     RDKit          3D

 17 18  0  0  0  0  0  0  0  0999 V2000
   -1.4210   -1.1568   -0.5079 C   0  0  0  0  0  0  0  0  0  0  0  0
   -0.7884    0.1894   -0.1841 C   0  0  0  0  0  0  0  0  0  0  0  0
   -1.7647    1.1873    0.2880 C   0  0  0  0  0  0  0  0  0  0  0  0
   -2.5183    0.9007    1.1866 O   0  0  0  0  0  0  0  0  0  0  0  0
   -0.0134    0.6789   -1.2066 O   0  0  0  0  0  0  0  0  0  0  0  0
    1.0392    0.7943   -0.3369 C   0  0  0  0  0  0  0  0  0  0  0  0
    1.6693   -0.4919    0.1152 C   0  0  0  0  0  0  0  0  0  0  0  0
    2.8733   -0.3330    0.7825 O   0  0  0  0  0  0  0  0  0  0  0  0
    0.4041   -0.0253    0.7170 C   0  0  0  0  0  0  0  0  0  0  0  0
   -0.6624   -1.9561   -0.4797 H   0  0  0  0  0  0  0  0  0  0  0  0
   -2.2125   -1.4039    0.2189 H   0  0  0  0  0  0  0  0  0  0  0  0
   -1.8201   -1.1016   -1.5496 H   0  0  0  0  0  0  0  0  0  0  0  0
   -1.8070    2.1571   -0.1598 H   0  0  0  0  0  0  0  0  0  0  0  0
    1.4607    1.7662   -0.0635 H   0  0  0  0  0  0  0  0  0  0  0  0
    1.6537   -1.3516   -0.5911 H   0  0  0  0  0  0  0  0  0  0  0  0
    3.5666   -0.1334    0.0934 H   0  0  0  0  0  0  0  0  0  0  0  0
    0.3408    0.2797    1.7660 H   0  0  0  0  0  0  0  0  0  0  0  0
  1  2  1  0
  2  3  1  0
  3  4  2  0
  2  5  1  0
  5  6  1  0
  6  7  1  0
  7  8  1  0
  7  9  1  0
  9  2  1  0
  9  6  1  0
  1 10  1  0
  1 11  1  0
  1 12  1  0
  3 13  1  0
  6 14  1  0
  7 15  1  0
  8 16  1  0
  9 17  1  0
M  END
