
     RDKit          3D

 19 19  0  0  0  0  0  0  0  0999 V2000
   -1.2482    1.1586   -0.7173 C   0  0  0  0  0  0  0  0  0  0  0  0
   -0.2512    0.1779   -0.1635 C   0  0  0  0  0  0  0  0  0  0  0  0
   -0.8570   -0.6057    0.9801 C   0  0  0  0  0  0  0  0  0  0  0  0
   -1.2545    0.2084    2.0129 O   0  0  0  0  0  0  0  0  0  0  0  0
    0.4194   -0.7115   -1.1846 C   0  0  0  0  0  0  0  0  0  0  0  0
    1.7084   -0.4540   -0.4034 C   0  0  0  0  0  0  0  0  0  0  0  0
    1.9983   -1.4290    0.5482 O   0  0  0  0  0  0  0  0  0  0  0  0
    1.0731    0.7773    0.1239 C   0  0  0  0  0  0  0  0  0  0  0  0
    1.4899    1.8161    0.5868 O   0  0  0  0  0  0  0  0  0  0  0  0
   -1.3579    1.9713    0.0569 H   0  0  0  0  0  0  0  0  0  0  0  0
   -2.2343    0.6811   -0.8041 H   0  0  0  0  0  0  0  0  0  0  0  0
   -0.8482    1.5839   -1.6369 H   0  0  0  0  0  0  0  0  0  0  0  0
   -1.7803   -1.0934    0.5573 H   0  0  0  0  0  0  0  0  0  0  0  0
   -0.2138   -1.4545    1.3028 H   0  0  0  0  0  0  0  0  0  0  0  0
   -2.1077    0.6440    1.7882 H   0  0  0  0  0  0  0  0  0  0  0  0
    0.1231   -1.7611   -1.1263 H   0  0  0  0  0  0  0  0  0  0  0  0
    0.4910   -0.2736   -2.2029 H   0  0  0  0  0  0  0  0  0  0  0  0
    2.5600   -0.2957   -1.0932 H   0  0  0  0  0  0  0  0  0  0  0  0
    2.2900   -0.9399    1.3751 H   0  0  0  0  0  0  0  0  0  0  0  0
  1  2  1  0
  2  3  1  0
  3  4  1  0
  2  5  1  0
  5  6  1  0
  6  7  1  0
  6  8  1  0
  8  9  2  0
  8  2  1  0
  1 10  1  0
  1 11  1  0
  1 12  1  0
  3 13  1  0
  3 14  1  0
  4 15  1  0
  5 16  1  0
  5 17  1  0
  6 18  1  0
  7 19  1  0
M  END
