
     RDKit          3D

 15 15  0  0  0  0  0  0  0  0999 V2000
    1.8394    0.0109   -0.1446 C   0  0  0  0  0  0  0  0  0  0  0  0
    0.4051   -0.0307    0.3371 C   0  0  0  0  0  0  0  0  0  0  0  0
    0.2837   -0.2493    1.7050 O   0  0  0  0  0  0  0  0  0  0  0  0
   -0.5427    0.9438   -0.3364 C   0  0  0  0  0  0  0  0  0  0  0  0
   -1.4168    1.5623    0.5468 O   0  0  0  0  0  0  0  0  0  0  0  0
   -0.6526   -0.5222   -0.5869 C   0  0  0  0  0  0  0  0  0  0  0  0
   -1.8074   -1.1182   -0.1142 O   0  0  0  0  0  0  0  0  0  0  0  0
    1.9318    0.2868   -1.2073 H   0  0  0  0  0  0  0  0  0  0  0  0
    2.2919   -0.9967   -0.0276 H   0  0  0  0  0  0  0  0  0  0  0  0
    2.4290    0.7350    0.4608 H   0  0  0  0  0  0  0  0  0  0  0  0
    0.2766   -1.2077    1.9310 H   0  0  0  0  0  0  0  0  0  0  0  0
   -0.1365    1.5941   -1.1483 H   0  0  0  0  0  0  0  0  0  0  0  0
   -2.0809    0.9535    0.9222 H   0  0  0  0  0  0  0  0  0  0  0  0
   -0.2890   -0.9400   -1.5373 H   0  0  0  0  0  0  0  0  0  0  0  0
   -2.5317   -1.0214   -0.8003 H   0  0  0  0  0  0  0  0  0  0  0  0
  1  2  1  0
  2  3  1  0
  2  4  1  0
  4  5  1  0
  4  6  1  0
  6  7  1  0
  6  2  1  0
  1  8  1  0
  1  9  1  0
  1 10  1  0
  3 11  1  0
  4 12  1  0
  5 13  1  0
  6 14  1  0
  7 15  1  0
M  END
