
     RDKit          3D

 19 19  0  0  0  0  0  0  0  0999 V2000
   -0.4180    1.4682   -0.9633 C   0  0  0  0  0  0  0  0  0  0  0  0
    0.0019    0.3185   -0.0766 C   0  0  0  0  0  0  0  0  0  0  0  0
    1.5061    0.2428    0.0127 C   0  0  0  0  0  0  0  0  0  0  0  0
    1.8548   -0.8125    0.8258 O   0  0  0  0  0  0  0  0  0  0  0  0
   -0.6245    0.3830    1.2882 C   0  0  0  0  0  0  0  0  0  0  0  0
   -1.7403   -0.4961    1.2376 O   0  0  0  0  0  0  0  0  0  0  0  0
   -1.4112   -1.5275    0.3950 C   0  0  0  0  0  0  0  0  0  0  0  0
   -1.7370   -2.7469    0.4298 O   0  0  0  0  0  0  0  0  0  0  0  0
   -0.5264   -0.9548   -0.6769 C   0  0  0  0  0  0  0  0  0  0  0  0
    0.0210    2.4334   -0.6472 H   0  0  0  0  0  0  0  0  0  0  0  0
   -1.5295    1.4846   -0.9532 H   0  0  0  0  0  0  0  0  0  0  0  0
   -0.1119    1.1946   -1.9997 H   0  0  0  0  0  0  0  0  0  0  0  0
    1.9431    0.0965   -0.9801 H   0  0  0  0  0  0  0  0  0  0  0  0
    1.9183    1.1848    0.4519 H   0  0  0  0  0  0  0  0  0  0  0  0
    2.7192   -1.2216    0.5586 H   0  0  0  0  0  0  0  0  0  0  0  0
    0.0575   -0.0271    2.0619 H   0  0  0  0  0  0  0  0  0  0  0  0
   -0.9522    1.3939    1.5736 H   0  0  0  0  0  0  0  0  0  0  0  0
    0.2509   -1.6492   -0.9957 H   0  0  0  0  0  0  0  0  0  0  0  0
   -1.2218   -0.7645   -1.5423 H   0  0  0  0  0  0  0  0  0  0  0  0
  1  2  1  0
  2  3  1  0
  3  4  1  0
  2  5  1  0
  5  6  1  0
  6  7  1  0
  7  8  2  0
  7  9  1  0
  9  2  1  0
  1 10  1  0
  1 11  1  0
  1 12  1  0
  3 13  1  0
  3 14  1  0
  4 15  1  0
  5 16  1  0
  5 17  1  0
  9 18  1  0
  9 19  1  0
M  END
