
     RDKit          3D

 19 19  0  0  0  0  0  0  0  0999 V2000
   -1.6195    0.9106    0.0472 C   0  0  0  0  0  0  0  0  0  0  0  0
   -0.9340   -0.4109   -0.1178 C   0  0  0  0  0  0  0  0  0  0  0  0
   -1.7072   -1.5292   -0.1746 O   0  0  0  0  0  0  0  0  0  0  0  0
    0.1724   -0.3174   -1.1794 C   0  0  0  0  0  0  0  0  0  0  0  0
    1.0018    0.3153   -0.0723 C   0  0  0  0  0  0  0  0  0  0  0  0
    2.4384    0.0775   -0.1291 C   0  0  0  0  0  0  0  0  0  0  0  0
    2.9044   -1.0328    0.0913 O   0  0  0  0  0  0  0  0  0  0  0  0
    0.2268   -0.6200    0.8665 C   0  0  0  0  0  0  0  0  0  0  0  0
   -0.0073   -0.1319    2.1170 O   0  0  0  0  0  0  0  0  0  0  0  0
   -2.6993    0.7639    0.2483 H   0  0  0  0  0  0  0  0  0  0  0  0
   -1.1645    1.4877    0.8953 H   0  0  0  0  0  0  0  0  0  0  0  0
   -1.5445    1.5078   -0.9023 H   0  0  0  0  0  0  0  0  0  0  0  0
   -2.3862   -1.4576   -0.8870 H   0  0  0  0  0  0  0  0  0  0  0  0
    0.5605   -1.3198   -1.4433 H   0  0  0  0  0  0  0  0  0  0  0  0
   -0.0617    0.3328   -2.0242 H   0  0  0  0  0  0  0  0  0  0  0  0
    0.7127    1.3805    0.0184 H   0  0  0  0  0  0  0  0  0  0  0  0
    3.1086    0.9175   -0.3754 H   0  0  0  0  0  0  0  0  0  0  0  0
    0.6348   -1.6297    0.7602 H   0  0  0  0  0  0  0  0  0  0  0  0
    0.3637    0.7556    2.2613 H   0  0  0  0  0  0  0  0  0  0  0  0
  1  2  1  0
  2  3  1  0
  2  4  1  0
  4  5  1  0
  5  6  1  0
  6  7  2  0
  5  8  1  0
  8  9  1  0
  8  2  1  0
  1 10  1  0
  1 11  1  0
  1 12  1  0
  3 13  1  0
  4 14  1  0
  4 15  1  0
  5 16  1  0
  6 17  1  0
  8 18  1  0
  9 19  1  0
M  END
