
     RDKit          3D

 19 20  0  0  0  0  0  0  0  0999 V2000
   -1.5182   -1.2573    0.1725 C   0  0  0  0  0  0  0  0  0  0  0  0
   -0.8937    0.1013    0.3296 C   0  0  0  0  0  0  0  0  0  0  0  0
   -1.1476    0.7698    1.4989 O   0  0  0  0  0  0  0  0  0  0  0  0
   -0.9791    0.8878   -0.9389 C   0  0  0  0  0  0  0  0  0  0  0  0
    0.2485    1.6172   -0.4938 C   0  0  0  0  0  0  0  0  0  0  0  0
    0.4719    0.1708   -0.2302 C   0  0  0  0  0  0  0  0  0  0  0  0
    1.6225   -0.4332    0.2314 C   0  0  0  0  0  0  0  0  0  0  0  0
    2.7587   -0.1806   -0.5701 O   0  0  0  0  0  0  0  0  0  0  0  0
   -0.1188   -0.0555   -1.4854 O   0  0  0  0  0  0  0  0  0  0  0  0
   -2.4648   -1.2785    0.7713 H   0  0  0  0  0  0  0  0  0  0  0  0
   -0.8325   -2.0357    0.5920 H   0  0  0  0  0  0  0  0  0  0  0  0
   -1.6666   -1.4962   -0.8855 H   0  0  0  0  0  0  0  0  0  0  0  0
   -1.5081    0.1185    2.1809 H   0  0  0  0  0  0  0  0  0  0  0  0
   -1.8050    1.2775   -1.3690 H   0  0  0  0  0  0  0  0  0  0  0  0
    0.1059    2.2720    0.3853 H   0  0  0  0  0  0  0  0  0  0  0  0
    0.8097    2.0541   -1.3357 H   0  0  0  0  0  0  0  0  0  0  0  0
    1.5630   -1.5464    0.2814 H   0  0  0  0  0  0  0  0  0  0  0  0
    1.9181   -0.1118    1.2508 H   0  0  0  0  0  0  0  0  0  0  0  0
    3.4360   -0.8738   -0.3856 H   0  0  0  0  0  0  0  0  0  0  0  0
  1  2  1  0
  2  3  1  0
  2  4  1  0
  4  5  1  0
  5  6  1  0
  6  7  1  0
  7  8  1  0
  6  9  1  0
  6  2  1  0
  9  4  1  0
  1 10  1  0
  1 11  1  0
  1 12  1  0
  3 13  1  0
  4 14  1  0
  5 15  1  0
  5 16  1  0
  7 17  1  0
  7 18  1  0
  8 19  1  0
M  END
