
     RDKit          3D

 21 22  0  0  0  0  0  0  0  0999 V2000
    1.7476    0.6121   -0.9503 C   0  0  0  0  0  0  0  0  0  0  0  0
    1.0664   -0.2822    0.0487 C   0  0  0  0  0  0  0  0  0  0  0  0
    1.8447   -1.3735    0.4329 O   0  0  0  0  0  0  0  0  0  0  0  0
    0.1670    0.2511    1.0857 C   0  0  0  0  0  0  0  0  0  0  0  0
   -0.4461    1.5712    1.0147 C   0  0  0  0  0  0  0  0  0  0  0  0
   -1.2666    1.6861    0.0007 C   0  0  0  0  0  0  0  0  0  0  0  0
   -1.3021    0.4188   -0.7511 C   0  0  0  0  0  0  0  0  0  0  0  0
   -0.3752   -0.5210   -0.0964 C   0  0  0  0  0  0  0  0  0  0  0  0
   -0.8700   -1.9390    0.1450 C   0  0  0  0  0  0  0  0  0  0  0  0
    2.6305    1.1355   -0.5364 H   0  0  0  0  0  0  0  0  0  0  0  0
    1.0702    1.3364   -1.4316 H   0  0  0  0  0  0  0  0  0  0  0  0
    2.1118   -0.0548   -1.7776 H   0  0  0  0  0  0  0  0  0  0  0  0
    1.9443   -1.4077    1.4133 H   0  0  0  0  0  0  0  0  0  0  0  0
    0.0674   -0.2805    2.0454 H   0  0  0  0  0  0  0  0  0  0  0  0
   -0.2438    2.3812    1.7311 H   0  0  0  0  0  0  0  0  0  0  0  0
   -1.8606    2.6039   -0.2691 H   0  0  0  0  0  0  0  0  0  0  0  0
   -1.0494    0.6451   -1.8136 H   0  0  0  0  0  0  0  0  0  0  0  0
   -2.3455    0.0309   -0.7952 H   0  0  0  0  0  0  0  0  0  0  0  0
   -0.6749   -2.5144   -0.7830 H   0  0  0  0  0  0  0  0  0  0  0  0
   -1.9553   -1.9415    0.3363 H   0  0  0  0  0  0  0  0  0  0  0  0
   -0.2606   -2.3577    0.9505 H   0  0  0  0  0  0  0  0  0  0  0  0
  1  2  1  0
  2  3  1  0
  2  4  1  0
  4  5  1  0
  5  6  2  0
  6  7  1  0
  7  8  1  0
  8  9  1  0
  8  2  1  0
  8  4  1  0
  1 10  1  0
  1 11  1  0
  1 12  1  0
  3 13  1  0
  4 14  1  0
  5 15  1  0
  6 16  1  0
  7 17  1  0
  7 18  1  0
  9 19  1  0
  9 20  1  0
  9 21  1  0
M  END
