
     RDKit          3D

 16 16  0  0  0  0  0  0  0  0999 V2000
   -1.2390   -0.4095    0.9569 C   0  0  0  0  0  0  0  0  0  0  0  0
   -0.5144   -0.2289   -0.3727 C   0  0  0  0  0  0  0  0  0  0  0  0
   -1.4006   -0.3272   -1.4190 O   0  0  0  0  0  0  0  0  0  0  0  0
    0.1801    1.1208   -0.3223 C   0  0  0  0  0  0  0  0  0  0  0  0
    1.5755    0.8304    0.1291 C   0  0  0  0  0  0  0  0  0  0  0  0
    1.7949   -0.4689    0.0259 C   0  0  0  0  0  0  0  0  0  0  0  0
    0.6180   -1.1576   -0.4846 C   0  0  0  0  0  0  0  0  0  0  0  0
    0.5713   -2.3306   -0.9391 O   0  0  0  0  0  0  0  0  0  0  0  0
   -1.9674    0.4029    1.0687 H   0  0  0  0  0  0  0  0  0  0  0  0
   -0.5032   -0.3056    1.7765 H   0  0  0  0  0  0  0  0  0  0  0  0
   -1.7422   -1.3705    1.0452 H   0  0  0  0  0  0  0  0  0  0  0  0
   -2.1836    0.2284   -1.2598 H   0  0  0  0  0  0  0  0  0  0  0  0
   -0.3504    1.7751    0.3706 H   0  0  0  0  0  0  0  0  0  0  0  0
    0.1987    1.5712   -1.3343 H   0  0  0  0  0  0  0  0  0  0  0  0
    2.2396    1.6069    0.4711 H   0  0  0  0  0  0  0  0  0  0  0  0
    2.7229   -0.9368    0.2879 H   0  0  0  0  0  0  0  0  0  0  0  0
  1  2  1  0
  2  3  1  0
  2  4  1  0
  4  5  1  0
  5  6  2  0
  6  7  1  0
  7  8  2  0
  7  2  1  0
  1  9  1  0
  1 10  1  0
  1 11  1  0
  3 12  1  0
  4 13  1  0
  4 14  1  0
  5 15  1  0
  6 16  1  0
M  END
