
     RDKit          3D

 18 18  0  0  0  0  0  0  0  0999 V2000
   -1.8492    0.5750    0.1538 C   0  0  0  0  0  0  0  0  0  0  0  0
   -0.5474    0.0075   -0.2784 C   0  0  0  0  0  0  0  0  0  0  0  0
   -0.4158   -0.1030   -1.6563 O   0  0  0  0  0  0  0  0  0  0  0  0
   -0.2486   -1.3481    0.3766 C   0  0  0  0  0  0  0  0  0  0  0  0
    1.2082   -1.4370    0.1058 C   0  0  0  0  0  0  0  0  0  0  0  0
    1.7447   -0.2283    0.0112 C   0  0  0  0  0  0  0  0  0  0  0  0
    0.6491    0.7896    0.2190 C   0  0  0  0  0  0  0  0  0  0  0  0
    0.8740    1.9500   -0.4659 O   0  0  0  0  0  0  0  0  0  0  0  0
   -2.1286    0.3106    1.1692 H   0  0  0  0  0  0  0  0  0  0  0  0
   -2.6303    0.2165   -0.5787 H   0  0  0  0  0  0  0  0  0  0  0  0
   -1.8143    1.6809    0.0121 H   0  0  0  0  0  0  0  0  0  0  0  0
    0.5136   -0.4318   -1.8198 H   0  0  0  0  0  0  0  0  0  0  0  0
   -0.4086   -1.1827    1.4666 H   0  0  0  0  0  0  0  0  0  0  0  0
   -0.8381   -2.1547   -0.0360 H   0  0  0  0  0  0  0  0  0  0  0  0
    1.7677   -2.3498   -0.0019 H   0  0  0  0  0  0  0  0  0  0  0  0
    2.7760    0.0686   -0.1791 H   0  0  0  0  0  0  0  0  0  0  0  0
    0.5588    0.9202    1.3185 H   0  0  0  0  0  0  0  0  0  0  0  0
    0.7889    2.7166    0.1833 H   0  0  0  0  0  0  0  0  0  0  0  0
  1  2  1  0
  2  3  1  0
  2  4  1  0
  4  5  1  0
  5  6  2  0
  6  7  1  0
  7  8  1  0
  7  2  1  0
  1  9  1  0
  1 10  1  0
  1 11  1  0
  3 12  1  0
  4 13  1  0
  4 14  1  0
  5 15  1  0
  6 16  1  0
  7 17  1  0
  8 18  1  0
M  END
