
     RDKit          3D

 19 20  0  0  0  0  0  0  0  0999 V2000
   -0.8672   -1.9851   -0.1727 C   0  0  0  0  0  0  0  0  0  0  0  0
   -0.2450   -0.6147    0.1500 C   0  0  0  0  0  0  0  0  0  0  0  0
   -1.2378    0.3426    0.6935 C   0  0  0  0  0  0  0  0  0  0  0  0
   -1.6347    1.5934    0.1515 C   0  0  0  0  0  0  0  0  0  0  0  0
   -2.3675    0.4338   -0.2981 O   0  0  0  0  0  0  0  0  0  0  0  0
    0.8847   -0.7576    1.0807 O   0  0  0  0  0  0  0  0  0  0  0  0
    1.0678   -0.3738   -0.2699 C   0  0  0  0  0  0  0  0  0  0  0  0
    1.7232    0.9620   -0.5211 C   0  0  0  0  0  0  0  0  0  0  0  0
    3.0193    0.9854    0.0433 O   0  0  0  0  0  0  0  0  0  0  0  0
   -0.1985   -2.6122   -0.7579 H   0  0  0  0  0  0  0  0  0  0  0  0
   -1.1137   -2.4171    0.8367 H   0  0  0  0  0  0  0  0  0  0  0  0
   -1.7977   -1.7628   -0.7178 H   0  0  0  0  0  0  0  0  0  0  0  0
   -1.6393    0.0437    1.7051 H   0  0  0  0  0  0  0  0  0  0  0  0
   -1.1337    2.1671   -0.6268 H   0  0  0  0  0  0  0  0  0  0  0  0
   -2.3289    2.2312    0.7623 H   0  0  0  0  0  0  0  0  0  0  0  0
    1.6108   -1.1966   -0.8245 H   0  0  0  0  0  0  0  0  0  0  0  0
    1.1499    1.7694   -0.0546 H   0  0  0  0  0  0  0  0  0  0  0  0
    1.8604    1.0634   -1.6152 H   0  0  0  0  0  0  0  0  0  0  0  0
    3.2480    0.1278    0.4355 H   0  0  0  0  0  0  0  0  0  0  0  0
  1  2  1  0
  2  3  1  0
  3  4  1  0
  4  5  1  0
  2  6  1  0
  6  7  1  0
  7  8  1  0
  8  9  1  0
  7  2  1  0
  5  3  1  0
  1 10  1  0
  1 11  1  0
  1 12  1  0
  3 13  1  0
  4 14  1  0
  4 15  1  0
  7 16  1  0
  8 17  1  0
  8 18  1  0
  9 19  1  0
M  END
