
     RDKit          3D

 21 22  0  0  0  0  0  0  0  0999 V2000
    1.7415    0.7992    0.7195 C   0  0  0  0  0  0  0  0  0  0  0  0
    0.9314   -0.0416   -0.2414 C   0  0  0  0  0  0  0  0  0  0  0  0
    1.7647   -0.5830   -1.1940 O   0  0  0  0  0  0  0  0  0  0  0  0
    0.1622   -1.1341    0.5175 C   0  0  0  0  0  0  0  0  0  0  0  0
   -1.2716   -0.7936    0.2449 C   0  0  0  0  0  0  0  0  0  0  0  0
   -1.6133    0.5853    0.8109 C   0  0  0  0  0  0  0  0  0  0  0  0
   -0.8559    1.4828    0.0871 O   0  0  0  0  0  0  0  0  0  0  0  0
   -0.1561    0.7819   -0.8880 C   0  0  0  0  0  0  0  0  0  0  0  0
   -1.1585   -0.3386   -1.2237 C   0  0  0  0  0  0  0  0  0  0  0  0
    1.0513    1.4256    1.3277 H   0  0  0  0  0  0  0  0  0  0  0  0
    2.3552    0.1329    1.3622 H   0  0  0  0  0  0  0  0  0  0  0  0
    2.3827    1.4555    0.0934 H   0  0  0  0  0  0  0  0  0  0  0  0
    2.7105   -0.6639   -0.9132 H   0  0  0  0  0  0  0  0  0  0  0  0
    0.3841   -2.1081    0.0688 H   0  0  0  0  0  0  0  0  0  0  0  0
    0.4157   -1.1308    1.5829 H   0  0  0  0  0  0  0  0  0  0  0  0
   -2.0022   -1.5486    0.4126 H   0  0  0  0  0  0  0  0  0  0  0  0
   -1.4968    0.6389    1.8899 H   0  0  0  0  0  0  0  0  0  0  0  0
   -2.6860    0.7578    0.4994 H   0  0  0  0  0  0  0  0  0  0  0  0
    0.1406    1.3540   -1.7452 H   0  0  0  0  0  0  0  0  0  0  0  0
   -0.6967   -1.1279   -1.8150 H   0  0  0  0  0  0  0  0  0  0  0  0
   -2.1027    0.0564   -1.5965 H   0  0  0  0  0  0  0  0  0  0  0  0
  1  2  1  0
  2  3  1  0
  2  4  1  0
  4  5  1  0
  5  6  1  0
  6  7  1  0
  7  8  1  0
  8  9  1  0
  8  2  1  0
  9  5  1  0
  1 10  1  0
  1 11  1  0
  1 12  1  0
  3 13  1  0
  4 14  1  0
  4 15  1  0
  5 16  1  0
  6 17  1  0
  6 18  1  0
  8 19  1  0
  9 20  1  0
  9 21  1  0
M  END
