
     RDKit          3D

 21 21  0  0  0  0  0  0  0  0999 V2000
    0.3330    0.5938    1.5384 C   0  0  0  0  0  0  0  0  0  0  0  0
    0.1636   -0.1558    0.2662 C   0  0  0  0  0  0  0  0  0  0  0  0
    0.9241   -1.4595    0.1855 C   0  0  0  0  0  0  0  0  0  0  0  0
    2.2902   -1.2192    0.3219 O   0  0  0  0  0  0  0  0  0  0  0  0
    0.3308    0.6405   -1.0114 C   0  0  0  0  0  0  0  0  0  0  0  0
   -0.0259    1.9804   -0.9059 O   0  0  0  0  0  0  0  0  0  0  0  0
   -0.8481   -0.1438   -1.5689 C   0  0  0  0  0  0  0  0  0  0  0  0
   -1.2941   -0.3387   -0.1197 C   0  0  0  0  0  0  0  0  0  0  0  0
   -2.0532    0.7522    0.2896 O   0  0  0  0  0  0  0  0  0  0  0  0
   -0.0566    1.6099    1.4597 H   0  0  0  0  0  0  0  0  0  0  0  0
   -0.2332    0.0542    2.3359 H   0  0  0  0  0  0  0  0  0  0  0  0
    1.4028    0.5623    1.8618 H   0  0  0  0  0  0  0  0  0  0  0  0
    0.7079   -1.9926   -0.7538 H   0  0  0  0  0  0  0  0  0  0  0  0
    0.6353   -2.1316    1.0321 H   0  0  0  0  0  0  0  0  0  0  0  0
    2.4374   -0.2742    0.0900 H   0  0  0  0  0  0  0  0  0  0  0  0
    1.2972    0.4401   -1.4997 H   0  0  0  0  0  0  0  0  0  0  0  0
    0.5613    2.4975   -0.3142 H   0  0  0  0  0  0  0  0  0  0  0  0
   -0.5449   -1.0698   -2.0821 H   0  0  0  0  0  0  0  0  0  0  0  0
   -1.5514    0.4895   -2.1638 H   0  0  0  0  0  0  0  0  0  0  0  0
   -1.7086   -1.3259    0.1104 H   0  0  0  0  0  0  0  0  0  0  0  0
   -2.7677    0.4905    0.9279 H   0  0  0  0  0  0  0  0  0  0  0  0
  1  2  1  0
  2  3  1  0
  3  4  1  0
  2  5  1  0
  5  6  1  0
  5  7  1  0
  7  8  1  0
  8  9  1  0
  8  2  1  0
  1 10  1  0
  1 11  1  0
  1 12  1  0
  3 13  1  0
  3 14  1  0
  4 15  1  0
  5 16  1  0
  6 17  1  0
  7 18  1  0
  7 19  1  0
  8 20  1  0
  9 21  1  0
M  END
