
     RDKit          3D

 21 21  0  0  0  0  0  0  0  0999 V2000
   -1.5057    0.8194   -0.7443 C   0  0  0  0  0  0  0  0  0  0  0  0
   -0.5225   -0.0327    0.0173 C   0  0  0  0  0  0  0  0  0  0  0  0
   -1.2967   -0.7810    1.0798 C   0  0  0  0  0  0  0  0  0  0  0  0
    0.0574   -1.1031   -0.8939 C   0  0  0  0  0  0  0  0  0  0  0  0
    1.4046   -0.6277   -1.1910 C   0  0  0  0  0  0  0  0  0  0  0  0
    2.0135   -0.8624   -2.2110 O   0  0  0  0  0  0  0  0  0  0  0  0
    1.8673    0.1748   -0.0337 C   0  0  0  0  0  0  0  0  0  0  0  0
    0.5960    0.7807    0.5381 C   0  0  0  0  0  0  0  0  0  0  0  0
    0.6502    0.8554    1.9254 O   0  0  0  0  0  0  0  0  0  0  0  0
   -0.9108    1.3557   -1.5381 H   0  0  0  0  0  0  0  0  0  0  0  0
   -2.3321    0.2288   -1.1771 H   0  0  0  0  0  0  0  0  0  0  0  0
   -1.8589    1.6265   -0.0613 H   0  0  0  0  0  0  0  0  0  0  0  0
   -0.6702   -1.5567    1.5441 H   0  0  0  0  0  0  0  0  0  0  0  0
   -2.1111   -1.3338    0.5238 H   0  0  0  0  0  0  0  0  0  0  0  0
   -1.8070   -0.1263    1.7844 H   0  0  0  0  0  0  0  0  0  0  0  0
    0.1510   -2.0847   -0.3570 H   0  0  0  0  0  0  0  0  0  0  0  0
   -0.5705   -1.2983   -1.7734 H   0  0  0  0  0  0  0  0  0  0  0  0
    2.4146   -0.4142    0.7214 H   0  0  0  0  0  0  0  0  0  0  0  0
    2.5619    0.9488   -0.4241 H   0  0  0  0  0  0  0  0  0  0  0  0
    0.5675    1.8346    0.1422 H   0  0  0  0  0  0  0  0  0  0  0  0
    1.3014    1.5962    2.1284 H   0  0  0  0  0  0  0  0  0  0  0  0
  1  2  1  0
  2  3  1  0
  2  4  1  0
  4  5  1  0
  5  6  2  0
  5  7  1  0
  7  8  1  0
  8  9  1  0
  8  2  1  0
  1 10  1  0
  1 11  1  0
  1 12  1  0
  3 13  1  0
  3 14  1  0
  3 15  1  0
  4 16  1  0
  4 17  1  0
  7 18  1  0
  7 19  1  0
  8 20  1  0
  9 21  1  0
M  END
