
     RDKit          3D

 21 22  0  0  0  0  0  0  0  0999 V2000
   -1.8757   -0.1078   -1.1075 C   0  0  0  0  0  0  0  0  0  0  0  0
   -0.7951   -0.0387   -0.0141 C   0  0  0  0  0  0  0  0  0  0  0  0
   -1.3750    0.6381    1.2435 C   0  0  0  0  0  0  0  0  0  0  0  0
    0.0877   -1.1339    0.2507 C   0  0  0  0  0  0  0  0  0  0  0  0
    1.5543   -1.1360    0.5001 C   0  0  0  0  0  0  0  0  0  0  0  0
    2.3749   -1.2931    1.3507 O   0  0  0  0  0  0  0  0  0  0  0  0
    1.5441   -0.8111   -0.9846 C   0  0  0  0  0  0  0  0  0  0  0  0
    0.5250    0.2043   -0.4801 C   0  0  0  0  0  0  0  0  0  0  0  0
    1.2726    1.2075    0.4178 C   0  0  0  0  0  0  0  0  0  0  0  0
   -1.4181   -0.1701   -2.1154 H   0  0  0  0  0  0  0  0  0  0  0  0
   -2.5298    0.7612   -1.0903 H   0  0  0  0  0  0  0  0  0  0  0  0
   -2.4819   -1.0416   -0.9754 H   0  0  0  0  0  0  0  0  0  0  0  0
   -0.8004    0.3684    2.1412 H   0  0  0  0  0  0  0  0  0  0  0  0
   -1.4473    1.7268    1.0749 H   0  0  0  0  0  0  0  0  0  0  0  0
   -2.4230    0.2855    1.4127 H   0  0  0  0  0  0  0  0  0  0  0  0
   -0.0971   -2.0023   -0.4629 H   0  0  0  0  0  0  0  0  0  0  0  0
    2.4581   -0.3476   -1.3321 H   0  0  0  0  0  0  0  0  0  0  0  0
    1.0638   -1.5680   -1.6019 H   0  0  0  0  0  0  0  0  0  0  0  0
    1.4300    0.8322    1.4281 H   0  0  0  0  0  0  0  0  0  0  0  0
    0.6923    2.1684    0.4010 H   0  0  0  0  0  0  0  0  0  0  0  0
    2.2408    1.4577   -0.0565 H   0  0  0  0  0  0  0  0  0  0  0  0
  1  2  1  0
  2  3  1  0
  2  4  1  0
  4  5  1  0
  5  6  2  0
  5  7  1  0
  7  8  1  0
  8  9  1  0
  8  2  1  0
  8  4  1  0
  1 10  1  0
  1 11  1  0
  1 12  1  0
  3 13  1  0
  3 14  1  0
  3 15  1  0
  4 16  1  0
  7 17  1  0
  7 18  1  0
  9 19  1  0
  9 20  1  0
  9 21  1  0
M  END
