
     RDKit          3D

 20 20  0  0  0  0  0  0  0  0999 V2000
   -0.7576   -1.1156   -1.1499 C   0  0  0  0  0  0  0  0  0  0  0  0
   -0.2689   -0.1904   -0.0539 C   0  0  0  0  0  0  0  0  0  0  0  0
   -1.4840    0.3357    0.6683 C   0  0  0  0  0  0  0  0  0  0  0  0
   -1.1907    1.1954    1.6973 O   0  0  0  0  0  0  0  0  0  0  0  0
    0.5807    0.8828   -0.6529 C   0  0  0  0  0  0  0  0  0  0  0  0
    1.9826    0.4518   -0.2195 C   0  0  0  0  0  0  0  0  0  0  0  0
    1.8674   -0.9083    0.0821 O   0  0  0  0  0  0  0  0  0  0  0  0
    0.6722   -0.9272    0.8367 C   0  0  0  0  0  0  0  0  0  0  0  0
    0.1435   -1.5604   -1.6508 H   0  0  0  0  0  0  0  0  0  0  0  0
   -1.3386   -1.9208   -0.6698 H   0  0  0  0  0  0  0  0  0  0  0  0
   -1.3936   -0.6017   -1.8844 H   0  0  0  0  0  0  0  0  0  0  0  0
   -2.1626    0.8423   -0.0479 H   0  0  0  0  0  0  0  0  0  0  0  0
   -2.0534   -0.5719    1.0137 H   0  0  0  0  0  0  0  0  0  0  0  0
   -1.6798    2.0706    1.6185 H   0  0  0  0  0  0  0  0  0  0  0  0
    0.5353    0.8904   -1.7603 H   0  0  0  0  0  0  0  0  0  0  0  0
    0.3525    1.8976   -0.2891 H   0  0  0  0  0  0  0  0  0  0  0  0
    2.2893    0.9525    0.7167 H   0  0  0  0  0  0  0  0  0  0  0  0
    2.7135    0.6288   -1.0313 H   0  0  0  0  0  0  0  0  0  0  0  0
    0.8716   -0.4048    1.7943 H   0  0  0  0  0  0  0  0  0  0  0  0
    0.3206   -1.9468    0.9824 H   0  0  0  0  0  0  0  0  0  0  0  0
  1  2  1  0
  2  3  1  0
  3  4  1  0
  2  5  1  0
  5  6  1  0
  6  7  1  0
  7  8  1  0
  8  2  1  0
  1  9  1  0
  1 10  1  0
  1 11  1  0
  3 12  1  0
  3 13  1  0
  4 14  1  0
  5 15  1  0
  5 16  1  0
  6 17  1  0
  6 18  1  0
  8 19  1  0
  8 20  1  0
M  END
