
     RDKit          3D

 21 21  0  0  0  0  0  0  0  0999 V2000
   -0.9385    1.2558   -0.9645 C   0  0  0  0  0  0  0  0  0  0  0  0
   -0.6733    0.0130   -0.1494 C   0  0  0  0  0  0  0  0  0  0  0  0
    0.7587   -0.4750   -0.2139 C   0  0  0  0  0  0  0  0  0  0  0  0
    0.9671   -1.6961    0.6020 C   0  0  0  0  0  0  0  0  0  0  0  0
    1.4843   -1.6197    1.7032 O   0  0  0  0  0  0  0  0  0  0  0  0
    1.7456    0.6156    0.1680 C   0  0  0  0  0  0  0  0  0  0  0  0
    1.6203    1.6830   -0.6914 O   0  0  0  0  0  0  0  0  0  0  0  0
   -1.4647   -0.1424    1.0941 C   0  0  0  0  0  0  0  0  0  0  0  0
   -1.6970   -1.0578   -0.0697 C   0  0  0  0  0  0  0  0  0  0  0  0
   -0.6432    2.1297   -0.3168 H   0  0  0  0  0  0  0  0  0  0  0  0
   -2.0411    1.4148   -1.1385 H   0  0  0  0  0  0  0  0  0  0  0  0
   -0.3622    1.2254   -1.8964 H   0  0  0  0  0  0  0  0  0  0  0  0
    0.9603   -0.6799   -1.3063 H   0  0  0  0  0  0  0  0  0  0  0  0
    0.6496   -2.6475    0.1945 H   0  0  0  0  0  0  0  0  0  0  0  0
    2.7515    0.1717    0.0822 H   0  0  0  0  0  0  0  0  0  0  0  0
    1.5758    0.8873    1.2356 H   0  0  0  0  0  0  0  0  0  0  0  0
    2.4952    1.9291   -1.0705 H   0  0  0  0  0  0  0  0  0  0  0  0
   -0.8880   -0.5075    1.9774 H   0  0  0  0  0  0  0  0  0  0  0  0
   -2.2872    0.5962    1.2760 H   0  0  0  0  0  0  0  0  0  0  0  0
   -1.3599   -2.1003    0.1040 H   0  0  0  0  0  0  0  0  0  0  0  0
   -2.6531   -0.9953   -0.6196 H   0  0  0  0  0  0  0  0  0  0  0  0
  1  2  1  0
  2  3  1  0
  3  4  1  0
  4  5  2  0
  3  6  1  0
  6  7  1  0
  2  8  1  0
  8  9  1  0
  9  2  1  0
  1 10  1  0
  1 11  1  0
  1 12  1  0
  3 13  1  0
  4 14  1  0
  6 15  1  0
  6 16  1  0
  7 17  1  0
  8 18  1  0
  8 19  1  0
  9 20  1  0
  9 21  1  0
M  END
