
     RDKit          3D

 21 21  0  0  0  0  0  0  0  0999 V2000
   -1.7666   -0.0072   -0.9891 C   0  0  0  0  0  0  0  0  0  0  0  0
   -0.6097   -0.0229   -0.0085 C   0  0  0  0  0  0  0  0  0  0  0  0
   -1.0449   -0.4593    1.3663 C   0  0  0  0  0  0  0  0  0  0  0  0
    0.4117    1.0684   -0.0400 C   0  0  0  0  0  0  0  0  0  0  0  0
    0.2331    2.1750   -1.0226 C   0  0  0  0  0  0  0  0  0  0  0  0
   -0.2972    2.0240   -2.1026 O   0  0  0  0  0  0  0  0  0  0  0  0
    0.7252   -0.3095   -0.5491 C   0  0  0  0  0  0  0  0  0  0  0  0
    1.7303   -1.1747    0.1467 C   0  0  0  0  0  0  0  0  0  0  0  0
    2.0997   -0.7207    1.3962 O   0  0  0  0  0  0  0  0  0  0  0  0
   -1.4295   -0.0204   -2.0445 H   0  0  0  0  0  0  0  0  0  0  0  0
   -2.3002   -0.9927   -0.8428 H   0  0  0  0  0  0  0  0  0  0  0  0
   -2.5099    0.7693   -0.7664 H   0  0  0  0  0  0  0  0  0  0  0  0
   -1.8398    0.2640    1.6896 H   0  0  0  0  0  0  0  0  0  0  0  0
   -1.5411   -1.4507    1.3675 H   0  0  0  0  0  0  0  0  0  0  0  0
   -0.2467   -0.3743    2.1229 H   0  0  0  0  0  0  0  0  0  0  0  0
    0.9041    1.3320    0.8967 H   0  0  0  0  0  0  0  0  0  0  0  0
    0.5841    3.1734   -0.7883 H   0  0  0  0  0  0  0  0  0  0  0  0
    0.8059   -0.3691   -1.6561 H   0  0  0  0  0  0  0  0  0  0  0  0
    1.2871   -2.1900    0.2531 H   0  0  0  0  0  0  0  0  0  0  0  0
    2.6552   -1.2159   -0.4652 H   0  0  0  0  0  0  0  0  0  0  0  0
    2.1492   -1.4988    2.0362 H   0  0  0  0  0  0  0  0  0  0  0  0
  1  2  1  0
  2  3  1  0
  2  4  1  0
  4  5  1  0
  5  6  2  0
  4  7  1  0
  7  8  1  0
  8  9  1  0
  7  2  1  0
  1 10  1  0
  1 11  1  0
  1 12  1  0
  3 13  1  0
  3 14  1  0
  3 15  1  0
  4 16  1  0
  5 17  1  0
  7 18  1  0
  8 19  1  0
  8 20  1  0
  9 21  1  0
M  END
