
     RDKit          3D

 23 23  0  0  0  0  0  0  0  0999 V2000
   -1.1625    0.6586    1.4245 C   0  0  0  0  0  0  0  0  0  0  0  0
   -0.6330    0.1284    0.1059 C   0  0  0  0  0  0  0  0  0  0  0  0
   -1.8362   -0.2355   -0.7356 C   0  0  0  0  0  0  0  0  0  0  0  0
    0.1075    1.2510   -0.5636 C   0  0  0  0  0  0  0  0  0  0  0  0
    1.4993    1.3841   -0.1242 C   0  0  0  0  0  0  0  0  0  0  0  0
    2.2374    0.2939    0.0408 C   0  0  0  0  0  0  0  0  0  0  0  0
    1.5768   -1.0077   -0.2402 C   0  0  0  0  0  0  0  0  0  0  0  0
    0.2102   -1.0745    0.3856 C   0  0  0  0  0  0  0  0  0  0  0  0
   -0.4424   -2.1921   -0.1318 O   0  0  0  0  0  0  0  0  0  0  0  0
   -1.6434    1.6570    1.2204 H   0  0  0  0  0  0  0  0  0  0  0  0
   -1.9188   -0.0305    1.8745 H   0  0  0  0  0  0  0  0  0  0  0  0
   -0.3142    0.7984    2.1399 H   0  0  0  0  0  0  0  0  0  0  0  0
   -1.5392   -0.5126   -1.7723 H   0  0  0  0  0  0  0  0  0  0  0  0
   -2.3111   -1.1219   -0.2191 H   0  0  0  0  0  0  0  0  0  0  0  0
   -2.5533    0.6029   -0.7913 H   0  0  0  0  0  0  0  0  0  0  0  0
    0.0493    1.0666   -1.6624 H   0  0  0  0  0  0  0  0  0  0  0  0
   -0.4543    2.2097   -0.4040 H   0  0  0  0  0  0  0  0  0  0  0  0
    1.8981    2.3735    0.0574 H   0  0  0  0  0  0  0  0  0  0  0  0
    3.2876    0.3597    0.3703 H   0  0  0  0  0  0  0  0  0  0  0  0
    1.4430   -1.0578   -1.3553 H   0  0  0  0  0  0  0  0  0  0  0  0
    2.1779   -1.8451    0.1171 H   0  0  0  0  0  0  0  0  0  0  0  0
    0.3522   -1.2285    1.4793 H   0  0  0  0  0  0  0  0  0  0  0  0
   -0.0307   -2.4774   -1.0060 H   0  0  0  0  0  0  0  0  0  0  0  0
  1  2  1  0
  2  3  1  0
  2  4  1  0
  4  5  1  0
  5  6  2  0
  6  7  1  0
  7  8  1  0
  8  9  1  0
  8  2  1  0
  1 10  1  0
  1 11  1  0
  1 12  1  0
  3 13  1  0
  3 14  1  0
  3 15  1  0
  4 16  1  0
  4 17  1  0
  5 18  1  0
  6 19  1  0
  7 20  1  0
  7 21  1  0
  8 22  1  0
  9 23  1  0
M  END
