
     RDKit          3D

 17 17  0  0  0  0  0  0  0  0999 V2000
   -0.0246    0.7388   -1.6287 C   0  0  0  0  0  0  0  0  0  0  0  0
    0.2287    0.1631   -0.2282 C   0  0  0  0  0  0  0  0  0  0  0  0
    1.5624    0.2188    0.0742 O   0  0  0  0  0  0  0  0  0  0  0  0
    2.1888   -0.1918    1.2205 C   0  0  0  0  0  0  0  0  0  0  0  0
    1.4694   -0.6868    2.1270 O   0  0  0  0  0  0  0  0  0  0  0  0
   -0.4779   -1.1638   -0.1306 C   0  0  0  0  0  0  0  0  0  0  0  0
   -1.7047   -0.3937    0.1995 C   0  0  0  0  0  0  0  0  0  0  0  0
   -2.8996   -0.5629    0.0935 O   0  0  0  0  0  0  0  0  0  0  0  0
   -0.7929    0.6660    0.7130 C   0  0  0  0  0  0  0  0  0  0  0  0
    0.4946    1.6957   -1.7734 H   0  0  0  0  0  0  0  0  0  0  0  0
    0.2578   -0.0436   -2.3636 H   0  0  0  0  0  0  0  0  0  0  0  0
   -1.1187    0.9597   -1.7668 H   0  0  0  0  0  0  0  0  0  0  0  0
    3.2499   -0.1236    1.4057 H   0  0  0  0  0  0  0  0  0  0  0  0
   -0.1355   -1.7066    0.7742 H   0  0  0  0  0  0  0  0  0  0  0  0
   -0.5142   -1.7571   -1.0561 H   0  0  0  0  0  0  0  0  0  0  0  0
   -1.1612    1.7118    0.5438 H   0  0  0  0  0  0  0  0  0  0  0  0
   -0.6221    0.4763    1.7960 H   0  0  0  0  0  0  0  0  0  0  0  0
  1  2  1  0
  2  3  1  0
  3  4  1  0
  4  5  2  0
  2  6  1  0
  6  7  1  0
  7  8  2  0
  7  9  1  0
  9  2  1  0
  1 10  1  0
  1 11  1  0
  1 12  1  0
  4 13  1  0
  6 14  1  0
  6 15  1  0
  9 16  1  0
  9 17  1  0
M  END
