
     RDKit          3D

 19 19  0  0  0  0  0  0  0  0999 V2000
   -0.8923    1.1134   -0.8562 C   0  0  0  0  0  0  0  0  0  0  0  0
   -0.4886   -0.0820   -0.0431 C   0  0  0  0  0  0  0  0  0  0  0  0
   -1.3846   -1.2998   -0.2412 C   0  0  0  0  0  0  0  0  0  0  0  0
   -0.4506    0.2617    1.3989 C   0  0  0  0  0  0  0  0  0  0  0  0
   -1.2053    0.6138    2.2834 O   0  0  0  0  0  0  0  0  0  0  0  0
    1.0165   -0.0016    1.4119 C   0  0  0  0  0  0  0  0  0  0  0  0
    0.9624   -0.4380   -0.0458 C   0  0  0  0  0  0  0  0  0  0  0  0
    1.8399    0.3408   -0.9163 C   0  0  0  0  0  0  0  0  0  0  0  0
    2.6604    1.1227   -0.4824 O   0  0  0  0  0  0  0  0  0  0  0  0
   -1.0474    2.0206   -0.2274 H   0  0  0  0  0  0  0  0  0  0  0  0
   -0.1987    1.3659   -1.6614 H   0  0  0  0  0  0  0  0  0  0  0  0
   -1.9054    0.8810   -1.2954 H   0  0  0  0  0  0  0  0  0  0  0  0
   -1.0712   -2.0609    0.5107 H   0  0  0  0  0  0  0  0  0  0  0  0
   -2.4262   -0.9831   -0.1311 H   0  0  0  0  0  0  0  0  0  0  0  0
   -1.1946   -1.6532   -1.2893 H   0  0  0  0  0  0  0  0  0  0  0  0
    1.2447   -0.8054    2.1325 H   0  0  0  0  0  0  0  0  0  0  0  0
    1.6435    0.9258    1.5253 H   0  0  0  0  0  0  0  0  0  0  0  0
    1.1227   -1.5557   -0.0860 H   0  0  0  0  0  0  0  0  0  0  0  0
    1.7748    0.2340   -1.9872 H   0  0  0  0  0  0  0  0  0  0  0  0
  1  2  1  0
  2  3  1  0
  2  4  1  0
  4  5  2  0
  4  6  1  0
  6  7  1  0
  7  8  1  0
  8  9  2  0
  7  2  1  0
  1 10  1  0
  1 11  1  0
  1 12  1  0
  3 13  1  0
  3 14  1  0
  3 15  1  0
  6 16  1  0
  6 17  1  0
  7 18  1  0
  8 19  1  0
M  END
