
     RDKit          3D

 19 19  0  0  0  0  0  0  0  0999 V2000
   -1.2777   -1.0458   -0.3009 C   0  0  0  0  0  0  0  0  0  0  0  0
   -0.5746    0.2483    0.0333 C   0  0  0  0  0  0  0  0  0  0  0  0
   -1.4785    1.3805   -0.2707 C   0  0  0  0  0  0  0  0  0  0  0  0
   -2.6432    1.3013    0.0715 O   0  0  0  0  0  0  0  0  0  0  0  0
   -0.1739    0.2033    1.4576 C   0  0  0  0  0  0  0  0  0  0  0  0
    1.0647   -0.2295    1.5396 C   0  0  0  0  0  0  0  0  0  0  0  0
    1.6179   -0.5170    0.1800 C   0  0  0  0  0  0  0  0  0  0  0  0
    0.7420    0.3887   -0.6725 C   0  0  0  0  0  0  0  0  0  0  0  0
    0.7157    0.0216   -1.9904 O   0  0  0  0  0  0  0  0  0  0  0  0
   -0.5941   -1.9114   -0.2984 H   0  0  0  0  0  0  0  0  0  0  0  0
   -1.7416   -0.9663   -1.2893 H   0  0  0  0  0  0  0  0  0  0  0  0
   -2.0512   -1.2174    0.4910 H   0  0  0  0  0  0  0  0  0  0  0  0
   -1.1540    2.2640   -0.7771 H   0  0  0  0  0  0  0  0  0  0  0  0
   -0.8625    0.5018    2.2610 H   0  0  0  0  0  0  0  0  0  0  0  0
    1.5977   -0.3555    2.4696 H   0  0  0  0  0  0  0  0  0  0  0  0
    1.4670   -1.5780   -0.0956 H   0  0  0  0  0  0  0  0  0  0  0  0
    2.6923   -0.2584    0.0997 H   0  0  0  0  0  0  0  0  0  0  0  0
    1.1018    1.4273   -0.4914 H   0  0  0  0  0  0  0  0  0  0  0  0
    1.5523    0.3426   -2.4172 H   0  0  0  0  0  0  0  0  0  0  0  0
  1  2  1  0
  2  3  1  0
  3  4  2  0
  2  5  1  0
  5  6  2  0
  6  7  1  0
  7  8  1  0
  8  9  1  0
  8  2  1  0
  1 10  1  0
  1 11  1  0
  1 12  1  0
  3 13  1  0
  5 14  1  0
  6 15  1  0
  7 16  1  0
  7 17  1  0
  8 18  1  0
  9 19  1  0
M  END
