
     RDKit          3D

 18 19  0  0  0  0  0  0  0  0999 V2000
    2.2792   -0.5585    0.2819 C   0  0  0  0  0  0  0  0  0  0  0  0
    1.0469    0.1094   -0.3452 C   0  0  0  0  0  0  0  0  0  0  0  0
    1.4761    1.0436   -1.3186 O   0  0  0  0  0  0  0  0  0  0  0  0
   -0.0335    0.4771    0.4650 C   0  0  0  0  0  0  0  0  0  0  0  0
   -1.4528    0.8326    0.2278 C   0  0  0  0  0  0  0  0  0  0  0  0
   -2.0439   -0.5923    0.1841 C   0  0  0  0  0  0  0  0  0  0  0  0
   -0.9133   -1.4547    0.1641 O   0  0  0  0  0  0  0  0  0  0  0  0
   -0.0649   -0.6996   -0.5962 C   0  0  0  0  0  0  0  0  0  0  0  0
    2.8937   -1.0563   -0.4906 H   0  0  0  0  0  0  0  0  0  0  0  0
    1.9658   -1.2312    1.0825 H   0  0  0  0  0  0  0  0  0  0  0  0
    2.9066    0.2843    0.6832 H   0  0  0  0  0  0  0  0  0  0  0  0
    1.3119    1.9410   -0.9854 H   0  0  0  0  0  0  0  0  0  0  0  0
    0.0532    0.1395    1.5476 H   0  0  0  0  0  0  0  0  0  0  0  0
   -1.8889    1.4092    1.0601 H   0  0  0  0  0  0  0  0  0  0  0  0
   -1.6540    1.3806   -0.6959 H   0  0  0  0  0  0  0  0  0  0  0  0
   -2.5804   -0.7789   -0.7461 H   0  0  0  0  0  0  0  0  0  0  0  0
   -2.6868   -0.7863    1.0434 H   0  0  0  0  0  0  0  0  0  0  0  0
   -0.6151   -0.4596   -1.5616 H   0  0  0  0  0  0  0  0  0  0  0  0
  1  2  1  0
  2  3  1  0
  2  4  1  0
  4  5  1  0
  5  6  1  0
  6  7  1  0
  7  8  1  0
  8  2  1  0
  8  4  1  0
  1  9  1  0
  1 10  1  0
  1 11  1  0
  3 12  1  0
  4 13  1  0
  5 14  1  0
  5 15  1  0
  6 16  1  0
  6 17  1  0
  8 18  1  0
M  END
