
     RDKit          3D

 16 16  0  0  0  0  0  0  0  0999 V2000
    1.1659    1.1709   -0.1888 C   0  0  0  0  0  0  0  0  0  0  0  0
   -0.0065    0.3932    0.2993 C   0  0  0  0  0  0  0  0  0  0  0  0
   -0.3469    0.7492    1.5938 O   0  0  0  0  0  0  0  0  0  0  0  0
   -1.2155    0.3468   -0.5764 C   0  0  0  0  0  0  0  0  0  0  0  0
   -1.4557   -1.0410   -0.0277 C   0  0  0  0  0  0  0  0  0  0  0  0
   -2.4048   -1.7702    0.1769 O   0  0  0  0  0  0  0  0  0  0  0  0
    0.0449   -1.0951    0.1473 C   0  0  0  0  0  0  0  0  0  0  0  0
    0.5925   -1.5832   -1.0220 O   0  0  0  0  0  0  0  0  0  0  0  0
    1.9597    1.1125    0.5842 H   0  0  0  0  0  0  0  0  0  0  0  0
    0.8634    2.2521   -0.2153 H   0  0  0  0  0  0  0  0  0  0  0  0
    1.5731    0.8664   -1.1495 H   0  0  0  0  0  0  0  0  0  0  0  0
    0.3592    0.4781    2.2040 H   0  0  0  0  0  0  0  0  0  0  0  0
   -1.0414    0.3508   -1.6714 H   0  0  0  0  0  0  0  0  0  0  0  0
   -2.0173    1.0398   -0.2621 H   0  0  0  0  0  0  0  0  0  0  0  0
    0.3530   -1.6405    1.0785 H   0  0  0  0  0  0  0  0  0  0  0  0
    1.5764   -1.6298   -0.9709 H   0  0  0  0  0  0  0  0  0  0  0  0
  1  2  1  0
  2  3  1  0
  2  4  1  0
  4  5  1  0
  5  6  2  0
  5  7  1  0
  7  8  1  0
  7  2  1  0
  1  9  1  0
  1 10  1  0
  1 11  1  0
  3 12  1  0
  4 13  1  0
  4 14  1  0
  7 15  1  0
  8 16  1  0
M  END
