
     RDKit          3D

 18 18  0  0  0  0  0  0  0  0999 V2000
   -1.6830   -0.3516   -0.7578 C   0  0  0  0  0  0  0  0  0  0  0  0
   -0.6143    0.2890    0.1339 C   0  0  0  0  0  0  0  0  0  0  0  0
   -1.2739    1.1047    1.0732 O   0  0  0  0  0  0  0  0  0  0  0  0
    0.0299   -0.8263    0.9035 C   0  0  0  0  0  0  0  0  0  0  0  0
    1.0081   -1.3806    0.0583 O   0  0  0  0  0  0  0  0  0  0  0  0
    1.9751   -0.4127   -0.1096 C   0  0  0  0  0  0  0  0  0  0  0  0
    1.5939    0.7034   -0.7665 O   0  0  0  0  0  0  0  0  0  0  0  0
    0.3192    1.1290   -0.6484 C   0  0  0  0  0  0  0  0  0  0  0  0
   -1.3415   -0.2462   -1.8193 H   0  0  0  0  0  0  0  0  0  0  0  0
   -1.7919   -1.4234   -0.5733 H   0  0  0  0  0  0  0  0  0  0  0  0
   -2.6678    0.1170   -0.5956 H   0  0  0  0  0  0  0  0  0  0  0  0
   -0.7337    1.1661    1.8970 H   0  0  0  0  0  0  0  0  0  0  0  0
    0.4345   -0.5269    1.8727 H   0  0  0  0  0  0  0  0  0  0  0  0
   -0.7151   -1.6417    1.0720 H   0  0  0  0  0  0  0  0  0  0  0  0
    2.4212   -0.2318    0.9103 H   0  0  0  0  0  0  0  0  0  0  0  0
    2.8104   -0.8966   -0.6914 H   0  0  0  0  0  0  0  0  0  0  0  0
    0.3393    2.1939   -0.2696 H   0  0  0  0  0  0  0  0  0  0  0  0
   -0.1104    1.2346   -1.6894 H   0  0  0  0  0  0  0  0  0  0  0  0
  1  2  1  0
  2  3  1  0
  2  4  1  0
  4  5  1  0
  5  6  1  0
  6  7  1  0
  7  8  1  0
  8  2  1  0
  1  9  1  0
  1 10  1  0
  1 11  1  0
  3 12  1  0
  4 13  1  0
  4 14  1  0
  6 15  1  0
  6 16  1  0
  8 17  1  0
  8 18  1  0
M  END
