
     RDKit          3D

 19 19  0  0  0  0  0  0  0  0999 V2000
   -0.7315    1.2487   -0.4833 C   0  0  0  0  0  0  0  0  0  0  0  0
   -0.3422    0.0382    0.3068 C   0  0  0  0  0  0  0  0  0  0  0  0
   -1.4788   -0.4735    0.9808 O   0  0  0  0  0  0  0  0  0  0  0  0
   -2.6051   -0.9024    0.3370 C   0  0  0  0  0  0  0  0  0  0  0  0
   -2.6872   -0.8620   -0.9117 O   0  0  0  0  0  0  0  0  0  0  0  0
    0.5081   -0.9740   -0.3937 C   0  0  0  0  0  0  0  0  0  0  0  0
    1.7303   -0.2768    0.1693 C   0  0  0  0  0  0  0  0  0  0  0  0
    2.3098    0.6310   -0.6931 O   0  0  0  0  0  0  0  0  0  0  0  0
    0.8313    0.2892    1.2310 C   0  0  0  0  0  0  0  0  0  0  0  0
   -1.3465    1.0086   -1.3684 H   0  0  0  0  0  0  0  0  0  0  0  0
   -1.2660    1.9391    0.2205 H   0  0  0  0  0  0  0  0  0  0  0  0
    0.1411    1.8247   -0.8504 H   0  0  0  0  0  0  0  0  0  0  0  0
   -3.4338   -1.2802    0.9088 H   0  0  0  0  0  0  0  0  0  0  0  0
    0.4063   -1.9690    0.1258 H   0  0  0  0  0  0  0  0  0  0  0  0
    0.4422   -1.0203   -1.4850 H   0  0  0  0  0  0  0  0  0  0  0  0
    2.5049   -0.9971    0.5340 H   0  0  0  0  0  0  0  0  0  0  0  0
    3.2150    0.8385   -0.4069 H   0  0  0  0  0  0  0  0  0  0  0  0
    0.9646    1.3327    1.5005 H   0  0  0  0  0  0  0  0  0  0  0  0
    0.8374   -0.3958    2.1248 H   0  0  0  0  0  0  0  0  0  0  0  0
  1  2  1  0
  2  3  1  0
  3  4  1  0
  4  5  2  0
  2  6  1  0
  6  7  1  0
  7  8  1  0
  7  9  1  0
  9  2  1  0
  1 10  1  0
  1 11  1  0
  1 12  1  0
  4 13  1  0
  6 14  1  0
  6 15  1  0
  7 16  1  0
  8 17  1  0
  9 18  1  0
  9 19  1  0
M  END
