
     RDKit          3D

 21 23  0  0  0  0  0  0  0  0999 V2000
   -1.5682    1.1577   -0.6144 C   0  0  0  0  0  0  0  0  0  0  0  0
   -0.7866    0.0063    0.0105 C   0  0  0  0  0  0  0  0  0  0  0  0
   -1.4795   -1.3325   -0.1848 C   0  0  0  0  0  0  0  0  0  0  0  0
   -0.3095    0.2844    1.4745 C   0  0  0  0  0  0  0  0  0  0  0  0
    0.5615    0.1337    0.3368 C   0  0  0  0  0  0  0  0  0  0  0  0
    1.6828   -0.8669    0.2158 C   0  0  0  0  0  0  0  0  0  0  0  0
    1.9635   -0.0489   -1.0198 C   0  0  0  0  0  0  0  0  0  0  0  0
    2.3590    1.1926   -1.1307 O   0  0  0  0  0  0  0  0  0  0  0  0
    1.5957    1.1179   -0.0476 C   0  0  0  0  0  0  0  0  0  0  0  0
   -1.5819    2.0482    0.0161 H   0  0  0  0  0  0  0  0  0  0  0  0
   -1.0331    1.4053   -1.5586 H   0  0  0  0  0  0  0  0  0  0  0  0
   -2.5956    0.8735   -0.8789 H   0  0  0  0  0  0  0  0  0  0  0  0
   -2.5036   -1.3313    0.2801 H   0  0  0  0  0  0  0  0  0  0  0  0
   -1.6405   -1.4496   -1.2645 H   0  0  0  0  0  0  0  0  0  0  0  0
   -0.8846   -2.1805    0.1740 H   0  0  0  0  0  0  0  0  0  0  0  0
   -0.5859    1.2796    1.8855 H   0  0  0  0  0  0  0  0  0  0  0  0
   -0.3923   -0.6035    2.1649 H   0  0  0  0  0  0  0  0  0  0  0  0
    2.3883   -0.7426    1.0505 H   0  0  0  0  0  0  0  0  0  0  0  0
    1.3937   -1.8910    0.0019 H   0  0  0  0  0  0  0  0  0  0  0  0
    1.1355   -0.2766   -1.7690 H   0  0  0  0  0  0  0  0  0  0  0  0
    2.2811    1.2241    0.8578 H   0  0  0  0  0  0  0  0  0  0  0  0
  1  2  1  0
  2  3  1  0
  2  4  1  0
  4  5  1  0
  5  6  1  0
  6  7  1  0
  7  8  1  0
  8  9  1  0
  5  2  1  0
  9  7  1  0
  9  5  1  0
  1 10  1  0
  1 11  1  0
  1 12  1  0
  3 13  1  0
  3 14  1  0
  3 15  1  0
  4 16  1  0
  4 17  1  0
  6 18  1  0
  6 19  1  0
  7 20  1  0
  9 21  1  0
M  END
