
     RDKit          3D

 21 22  0  0  0  0  0  0  0  0999 V2000
   -1.4612    0.3290   -1.2705 C   0  0  0  0  0  0  0  0  0  0  0  0
   -0.6704   -0.0948   -0.0293 C   0  0  0  0  0  0  0  0  0  0  0  0
   -1.2112    0.6460    1.1348 C   0  0  0  0  0  0  0  0  0  0  0  0
   -0.8543   -1.4344    0.1360 O   0  0  0  0  0  0  0  0  0  0  0  0
    0.3380   -2.0684    0.2921 C   0  0  0  0  0  0  0  0  0  0  0  0
    1.4503   -1.0934   -0.0079 C   0  0  0  0  0  0  0  0  0  0  0  0
    1.3949   -0.5601   -1.2863 O   0  0  0  0  0  0  0  0  0  0  0  0
    0.7828    0.1713   -0.2928 C   0  0  0  0  0  0  0  0  0  0  0  0
    1.3927    1.5008   -0.0167 C   0  0  0  0  0  0  0  0  0  0  0  0
   -0.8897   -0.0509   -2.1336 H   0  0  0  0  0  0  0  0  0  0  0  0
   -2.4513   -0.2027   -1.1651 H   0  0  0  0  0  0  0  0  0  0  0  0
   -1.6345    1.4047   -1.2735 H   0  0  0  0  0  0  0  0  0  0  0  0
   -0.6812    1.5490    1.4262 H   0  0  0  0  0  0  0  0  0  0  0  0
   -2.2936    0.8642    0.9378 H   0  0  0  0  0  0  0  0  0  0  0  0
   -1.2164   -0.0294    2.0282 H   0  0  0  0  0  0  0  0  0  0  0  0
    0.3823   -2.8991   -0.4707 H   0  0  0  0  0  0  0  0  0  0  0  0
    0.4087   -2.5466    1.2660 H   0  0  0  0  0  0  0  0  0  0  0  0
    2.3630   -1.0736    0.5853 H   0  0  0  0  0  0  0  0  0  0  0  0
    2.0670    1.8149   -0.8671 H   0  0  0  0  0  0  0  0  0  0  0  0
    2.0836    1.4516    0.8670 H   0  0  0  0  0  0  0  0  0  0  0  0
    0.7004    2.3220    0.1400 H   0  0  0  0  0  0  0  0  0  0  0  0
  1  2  1  0
  2  3  1  0
  2  4  1  0
  4  5  1  0
  5  6  1  0
  6  7  1  0
  7  8  1  0
  8  9  1  0
  8  2  1  0
  8  6  1  0
  1 10  1  0
  1 11  1  0
  1 12  1  0
  3 13  1  0
  3 14  1  0
  3 15  1  0
  5 16  1  0
  5 17  1  0
  6 18  1  0
  9 19  1  0
  9 20  1  0
  9 21  1  0
M  END
