
     RDKit          3D

 19 20  0  0  0  0  0  0  0  0999 V2000
    0.3550    0.6666    1.5102 C   0  0  0  0  0  0  0  0  0  0  0  0
    0.2576   -0.1235    0.2527 C   0  0  0  0  0  0  0  0  0  0  0  0
    1.5010   -0.6001   -0.1638 O   0  0  0  0  0  0  0  0  0  0  0  0
    2.5036    0.3148   -0.4443 C   0  0  0  0  0  0  0  0  0  0  0  0
    2.2550    1.5389   -0.3130 O   0  0  0  0  0  0  0  0  0  0  0  0
   -0.6101    0.4137   -0.8369 C   0  0  0  0  0  0  0  0  0  0  0  0
   -1.7836    0.1000    0.0462 C   0  0  0  0  0  0  0  0  0  0  0  0
   -0.8844   -1.0873    0.2201 C   0  0  0  0  0  0  0  0  0  0  0  0
   -0.7371   -1.0258   -1.2856 C   0  0  0  0  0  0  0  0  0  0  0  0
    0.4310    1.7631    1.3543 H   0  0  0  0  0  0  0  0  0  0  0  0
   -0.4530    0.4012    2.2302 H   0  0  0  0  0  0  0  0  0  0  0  0
    1.3096    0.3889    2.0470 H   0  0  0  0  0  0  0  0  0  0  0  0
    3.4964    0.0437   -0.7722 H   0  0  0  0  0  0  0  0  0  0  0  0
   -0.4722    1.2108   -1.4194 H   0  0  0  0  0  0  0  0  0  0  0  0
   -2.6631   -0.1836   -0.5744 H   0  0  0  0  0  0  0  0  0  0  0  0
   -1.9631    0.7379    0.9007 H   0  0  0  0  0  0  0  0  0  0  0  0
   -1.0341   -1.9040    0.7711 H   0  0  0  0  0  0  0  0  0  0  0  0
    0.1641   -1.4922   -1.6864 H   0  0  0  0  0  0  0  0  0  0  0  0
   -1.6725   -1.1630   -1.8365 H   0  0  0  0  0  0  0  0  0  0  0  0
  1  2  1  0
  2  3  1  0
  3  4  1  0
  4  5  2  0
  2  6  1  0
  6  7  1  0
  7  8  1  0
  8  9  1  0
  8  2  1  0
  9  6  1  0
  1 10  1  0
  1 11  1  0
  1 12  1  0
  4 13  1  0
  6 14  1  0
  7 15  1  0
  7 16  1  0
  8 17  1  0
  9 18  1  0
  9 19  1  0
M  END
