
     RDKit          3D

 23 24  0  0  0  0  0  0  0  0999 V2000
   -0.9916    0.4669   -1.6203 C   0  0  0  0  0  0  0  0  0  0  0  0
   -0.6998    0.1881   -0.1741 C   0  0  0  0  0  0  0  0  0  0  0  0
   -1.7730   -0.6959    0.4585 C   0  0  0  0  0  0  0  0  0  0  0  0
   -0.4580    1.4092    0.6864 C   0  0  0  0  0  0  0  0  0  0  0  0
    0.9179    0.8586    1.0903 C   0  0  0  0  0  0  0  0  0  0  0  0
    1.9647    1.6461    0.6305 O   0  0  0  0  0  0  0  0  0  0  0  0
    0.6479   -0.2898    0.1788 C   0  0  0  0  0  0  0  0  0  0  0  0
    0.9830   -1.6815    0.5026 C   0  0  0  0  0  0  0  0  0  0  0  0
    1.6036   -0.9326   -0.6775 C   0  0  0  0  0  0  0  0  0  0  0  0
   -1.8388    1.1606   -1.7508 H   0  0  0  0  0  0  0  0  0  0  0  0
   -1.2458   -0.4979   -2.0984 H   0  0  0  0  0  0  0  0  0  0  0  0
   -0.1160    0.8774   -2.1454 H   0  0  0  0  0  0  0  0  0  0  0  0
   -1.4120   -1.1137    1.4296 H   0  0  0  0  0  0  0  0  0  0  0  0
   -2.0664   -1.5215   -0.2192 H   0  0  0  0  0  0  0  0  0  0  0  0
   -2.6417   -0.0280    0.6736 H   0  0  0  0  0  0  0  0  0  0  0  0
   -1.0848    1.4769    1.5859 H   0  0  0  0  0  0  0  0  0  0  0  0
   -0.4157    2.3710    0.1614 H   0  0  0  0  0  0  0  0  0  0  0  0
    1.0160    0.5893    2.1396 H   0  0  0  0  0  0  0  0  0  0  0  0
    1.6811    2.0165   -0.2540 H   0  0  0  0  0  0  0  0  0  0  0  0
    0.2525   -2.4842    0.2228 H   0  0  0  0  0  0  0  0  0  0  0  0
    1.5945   -1.8370    1.4104 H   0  0  0  0  0  0  0  0  0  0  0  0
    2.6920   -0.6823   -0.5302 H   0  0  0  0  0  0  0  0  0  0  0  0
    1.3905   -1.2961   -1.7002 H   0  0  0  0  0  0  0  0  0  0  0  0
  1  2  1  0
  2  3  1  0
  2  4  1  0
  4  5  1  0
  5  6  1  0
  5  7  1  0
  7  8  1  0
  8  9  1  0
  7  2  1  0
  9  7  1  0
  1 10  1  0
  1 11  1  0
  1 12  1  0
  3 13  1  0
  3 14  1  0
  3 15  1  0
  4 16  1  0
  4 17  1  0
  5 18  1  0
  6 19  1  0
  8 20  1  0
  8 21  1  0
  9 22  1  0
  9 23  1  0
M  END
