
     RDKit          3D

 23 23  0  0  0  0  0  0  0  0999 V2000
   -1.9160    1.6024   -0.5950 C   0  0  0  0  0  0  0  0  0  0  0  0
   -1.2141    0.3426   -0.1343 C   0  0  0  0  0  0  0  0  0  0  0  0
    0.2790    0.4684   -0.0269 C   0  0  0  0  0  0  0  0  0  0  0  0
    0.9567   -0.7819    0.4287 C   0  0  0  0  0  0  0  0  0  0  0  0
    2.4509   -0.5500    0.5043 C   0  0  0  0  0  0  0  0  0  0  0  0
    3.0300   -0.1731   -0.7912 C   0  0  0  0  0  0  0  0  0  0  0  0
    2.9993    0.9508   -1.2459 O   0  0  0  0  0  0  0  0  0  0  0  0
   -1.9268   -0.3558    1.0313 C   0  0  0  0  0  0  0  0  0  0  0  0
   -1.8610   -0.9829   -0.3002 C   0  0  0  0  0  0  0  0  0  0  0  0
   -2.8748    1.7725   -0.0457 H   0  0  0  0  0  0  0  0  0  0  0  0
   -1.2790    2.4743   -0.3446 H   0  0  0  0  0  0  0  0  0  0  0  0
   -2.0898    1.5986   -1.6996 H   0  0  0  0  0  0  0  0  0  0  0  0
    0.6884    0.7877   -0.9965 H   0  0  0  0  0  0  0  0  0  0  0  0
    0.4758    1.3062    0.6834 H   0  0  0  0  0  0  0  0  0  0  0  0
    0.5524   -1.2152    1.3444 H   0  0  0  0  0  0  0  0  0  0  0  0
    0.8233   -1.5708   -0.3708 H   0  0  0  0  0  0  0  0  0  0  0  0
    2.9710   -1.4623    0.8951 H   0  0  0  0  0  0  0  0  0  0  0  0
    2.6703    0.2459    1.2446 H   0  0  0  0  0  0  0  0  0  0  0  0
    3.5203   -0.9383   -1.3919 H   0  0  0  0  0  0  0  0  0  0  0  0
   -1.3336   -0.6832    1.8936 H   0  0  0  0  0  0  0  0  0  0  0  0
   -2.9278    0.0455    1.3434 H   0  0  0  0  0  0  0  0  0  0  0  0
   -1.2057   -1.8739   -0.4025 H   0  0  0  0  0  0  0  0  0  0  0  0
   -2.7887   -1.0073   -0.9158 H   0  0  0  0  0  0  0  0  0  0  0  0
  1  2  1  0
  2  3  1  0
  3  4  1  0
  4  5  1  0
  5  6  1  0
  6  7  2  0
  2  8  1  0
  8  9  1  0
  9  2  1  0
  1 10  1  0
  1 11  1  0
  1 12  1  0
  3 13  1  0
  3 14  1  0
  4 15  1  0
  4 16  1  0
  5 17  1  0
  5 18  1  0
  6 19  1  0
  8 20  1  0
  8 21  1  0
  9 22  1  0
  9 23  1  0
M  END
