
     RDKit          3D

 25 25  0  0  0  0  0  0  0  0999 V2000
   -2.0073   -0.6127    0.6969 C   0  0  0  0  0  0  0  0  0  0  0  0
   -1.3351    0.1989   -0.3820 C   0  0  0  0  0  0  0  0  0  0  0  0
   -1.7115    1.6386   -0.4218 C   0  0  0  0  0  0  0  0  0  0  0  0
   -0.9262   -0.5647   -1.5722 C   0  0  0  0  0  0  0  0  0  0  0  0
    0.1297   -0.0648   -0.6920 C   0  0  0  0  0  0  0  0  0  0  0  0
    0.9570    1.0775   -1.2492 C   0  0  0  0  0  0  0  0  0  0  0  0
    0.8243   -0.8997    0.3305 C   0  0  0  0  0  0  0  0  0  0  0  0
    2.2660   -1.1626    0.0309 C   0  0  0  0  0  0  0  0  0  0  0  0
    3.0360   -0.0187   -0.0639 O   0  0  0  0  0  0  0  0  0  0  0  0
   -1.6886   -1.6863    0.6662 H   0  0  0  0  0  0  0  0  0  0  0  0
   -3.1027   -0.6451    0.4283 H   0  0  0  0  0  0  0  0  0  0  0  0
   -1.9479   -0.1677    1.6924 H   0  0  0  0  0  0  0  0  0  0  0  0
   -2.4566    1.8959    0.3860 H   0  0  0  0  0  0  0  0  0  0  0  0
   -0.8188    2.2831   -0.1689 H   0  0  0  0  0  0  0  0  0  0  0  0
   -2.0953    2.0071   -1.3668 H   0  0  0  0  0  0  0  0  0  0  0  0
   -1.0922   -0.0775   -2.5517 H   0  0  0  0  0  0  0  0  0  0  0  0
   -1.0907   -1.6589   -1.6048 H   0  0  0  0  0  0  0  0  0  0  0  0
    1.6431    0.6520   -2.0116 H   0  0  0  0  0  0  0  0  0  0  0  0
    0.2338    1.7118   -1.8424 H   0  0  0  0  0  0  0  0  0  0  0  0
    1.4581    1.6682   -0.4758 H   0  0  0  0  0  0  0  0  0  0  0  0
    0.7908   -0.3275    1.3029 H   0  0  0  0  0  0  0  0  0  0  0  0
    0.3393   -1.8687    0.5331 H   0  0  0  0  0  0  0  0  0  0  0  0
    2.6735   -1.7415    0.9092 H   0  0  0  0  0  0  0  0  0  0  0  0
    2.3903   -1.8333   -0.8445 H   0  0  0  0  0  0  0  0  0  0  0  0
    3.5311    0.1966    0.7481 H   0  0  0  0  0  0  0  0  0  0  0  0
  1  2  1  0
  2  3  1  0
  2  4  1  0
  4  5  1  0
  5  6  1  0
  5  7  1  0
  7  8  1  0
  8  9  1  0
  5  2  1  0
  1 10  1  0
  1 11  1  0
  1 12  1  0
  3 13  1  0
  3 14  1  0
  3 15  1  0
  4 16  1  0
  4 17  1  0
  6 18  1  0
  6 19  1  0
  6 20  1  0
  7 21  1  0
  7 22  1  0
  8 23  1  0
  8 24  1  0
  9 25  1  0
M  END
