
     RDKit          3D

 19 19  0  0  0  0  0  0  0  0999 V2000
   -1.7826    1.0055   -0.6073 C   0  0  0  0  0  0  0  0  0  0  0  0
   -0.7394   -0.0352   -0.3019 C   0  0  0  0  0  0  0  0  0  0  0  0
   -1.2927   -1.2682    0.2680 C   0  0  0  0  0  0  0  0  0  0  0  0
   -2.3173   -1.2032    0.9258 O   0  0  0  0  0  0  0  0  0  0  0  0
   -0.0427   -0.3660   -1.5609 C   0  0  0  0  0  0  0  0  0  0  0  0
    1.2613   -0.4661   -1.4245 C   0  0  0  0  0  0  0  0  0  0  0  0
    1.5884   -0.2019   -0.0011 C   0  0  0  0  0  0  0  0  0  0  0  0
    2.6833    0.6518    0.0360 O   0  0  0  0  0  0  0  0  0  0  0  0
    0.3659    0.4856    0.5811 C   0  0  0  0  0  0  0  0  0  0  0  0
   -1.9244    1.6969    0.2533 H   0  0  0  0  0  0  0  0  0  0  0  0
   -1.4843    1.6079   -1.4949 H   0  0  0  0  0  0  0  0  0  0  0  0
   -2.7245    0.4770   -0.8594 H   0  0  0  0  0  0  0  0  0  0  0  0
   -0.8492   -2.2500    0.1447 H   0  0  0  0  0  0  0  0  0  0  0  0
   -0.5942   -0.5087   -2.5067 H   0  0  0  0  0  0  0  0  0  0  0  0
    2.0157   -0.7022   -2.2038 H   0  0  0  0  0  0  0  0  0  0  0  0
    1.8323   -1.1469    0.5348 H   0  0  0  0  0  0  0  0  0  0  0  0
    3.2689    0.4713    0.7869 H   0  0  0  0  0  0  0  0  0  0  0  0
    0.4917    1.5828    0.4883 H   0  0  0  0  0  0  0  0  0  0  0  0
    0.2436    0.1699    1.6376 H   0  0  0  0  0  0  0  0  0  0  0  0
  1  2  1  0
  2  3  1  0
  3  4  2  0
  2  5  1  0
  5  6  2  0
  6  7  1  0
  7  8  1  0
  7  9  1  0
  9  2  1  0
  1 10  1  0
  1 11  1  0
  1 12  1  0
  3 13  1  0
  5 14  1  0
  6 15  1  0
  7 16  1  0
  8 17  1  0
  9 18  1  0
  9 19  1  0
M  END
