
     RDKit          3D

 19 19  0  0  0  0  0  0  0  0999 V2000
   -0.8547   -0.9301    1.5019 C   0  0  0  0  0  0  0  0  0  0  0  0
   -0.5365   -0.6223    0.0750 C   0  0  0  0  0  0  0  0  0  0  0  0
   -0.6375   -1.7315   -0.7781 O   0  0  0  0  0  0  0  0  0  0  0  0
   -0.7096    0.7182   -0.5144 C   0  0  0  0  0  0  0  0  0  0  0  0
   -1.3841    1.8102    0.2154 C   0  0  0  0  0  0  0  0  0  0  0  0
   -1.3196    1.9205    1.4420 O   0  0  0  0  0  0  0  0  0  0  0  0
    0.6628    0.2962   -0.0996 C   0  0  0  0  0  0  0  0  0  0  0  0
    1.6550   -0.1804   -1.1369 C   0  0  0  0  0  0  0  0  0  0  0  0
    2.7207    0.7113   -1.2375 O   0  0  0  0  0  0  0  0  0  0  0  0
   -0.2559   -1.8459    1.7821 H   0  0  0  0  0  0  0  0  0  0  0  0
   -1.9239   -1.2669    1.6186 H   0  0  0  0  0  0  0  0  0  0  0  0
   -0.5878   -0.1584    2.2201 H   0  0  0  0  0  0  0  0  0  0  0  0
   -1.5626   -2.0965   -0.6069 H   0  0  0  0  0  0  0  0  0  0  0  0
   -0.8553    0.7458   -1.6136 H   0  0  0  0  0  0  0  0  0  0  0  0
   -1.9681    2.5681   -0.2847 H   0  0  0  0  0  0  0  0  0  0  0  0
    1.0841    0.8135    0.7660 H   0  0  0  0  0  0  0  0  0  0  0  0
    1.2049   -0.2769   -2.1416 H   0  0  0  0  0  0  0  0  0  0  0  0
    2.0395   -1.1680   -0.7985 H   0  0  0  0  0  0  0  0  0  0  0  0
    3.2287    0.6931   -0.4093 H   0  0  0  0  0  0  0  0  0  0  0  0
  1  2  1  0
  2  3  1  0
  2  4  1  0
  4  5  1  0
  5  6  2  0
  4  7  1  0
  7  8  1  0
  8  9  1  0
  7  2  1  0
  1 10  1  0
  1 11  1  0
  1 12  1  0
  3 13  1  0
  4 14  1  0
  5 15  1  0
  7 16  1  0
  8 17  1  0
  8 18  1  0
  9 19  1  0
M  END
