
     RDKit          3D

 21 21  0  0  0  0  0  0  0  0999 V2000
   -1.6336   -0.8931    0.5242 C   0  0  0  0  0  0  0  0  0  0  0  0
   -0.7582    0.0245   -0.2779 C   0  0  0  0  0  0  0  0  0  0  0  0
   -1.2646    0.0503   -1.5806 O   0  0  0  0  0  0  0  0  0  0  0  0
   -0.8297    1.4361    0.2577 C   0  0  0  0  0  0  0  0  0  0  0  0
    0.5606    1.9573   -0.0037 C   0  0  0  0  0  0  0  0  0  0  0  0
    1.4145    0.7659   -0.0901 C   0  0  0  0  0  0  0  0  0  0  0  0
    0.6752   -0.3395   -0.2461 C   0  0  0  0  0  0  0  0  0  0  0  0
    1.1972   -1.7209   -0.3700 C   0  0  0  0  0  0  0  0  0  0  0  0
    2.5799   -1.7814   -0.3085 O   0  0  0  0  0  0  0  0  0  0  0  0
   -2.5196   -1.2659   -0.0672 H   0  0  0  0  0  0  0  0  0  0  0  0
   -1.1082   -1.7977    0.8872 H   0  0  0  0  0  0  0  0  0  0  0  0
   -2.0928   -0.3525    1.3927 H   0  0  0  0  0  0  0  0  0  0  0  0
   -2.2686    0.0800   -1.4846 H   0  0  0  0  0  0  0  0  0  0  0  0
   -1.5999    2.0098   -0.2979 H   0  0  0  0  0  0  0  0  0  0  0  0
   -1.0576    1.4533    1.3452 H   0  0  0  0  0  0  0  0  0  0  0  0
    0.5570    2.5013   -0.9527 H   0  0  0  0  0  0  0  0  0  0  0  0
    0.9161    2.6118    0.8196 H   0  0  0  0  0  0  0  0  0  0  0  0
    2.5017    0.7979   -0.0327 H   0  0  0  0  0  0  0  0  0  0  0  0
    0.8940   -2.1116   -1.3630 H   0  0  0  0  0  0  0  0  0  0  0  0
    0.7918   -2.3835    0.4383 H   0  0  0  0  0  0  0  0  0  0  0  0
    3.0446   -1.0418   -0.7282 H   0  0  0  0  0  0  0  0  0  0  0  0
  1  2  1  0
  2  3  1  0
  2  4  1  0
  4  5  1  0
  5  6  1  0
  6  7  2  0
  7  8  1  0
  8  9  1  0
  7  2  1  0
  1 10  1  0
  1 11  1  0
  1 12  1  0
  3 13  1  0
  4 14  1  0
  4 15  1  0
  5 16  1  0
  5 17  1  0
  6 18  1  0
  8 19  1  0
  8 20  1  0
  9 21  1  0
M  END
