
     RDKit          3D

 19 20  0  0  0  0  0  0  0  0999 V2000
   -1.6325    1.4178   -0.6311 C   0  0  0  0  0  0  0  0  0  0  0  0
   -0.9829    0.1864   -0.0874 C   0  0  0  0  0  0  0  0  0  0  0  0
   -1.9503   -0.7518    0.5321 C   0  0  0  0  0  0  0  0  0  0  0  0
   -2.0134   -1.9403    0.2686 O   0  0  0  0  0  0  0  0  0  0  0  0
   -0.1842   -0.5262   -0.9998 O   0  0  0  0  0  0  0  0  0  0  0  0
    0.9236   -0.5584   -0.2094 C   0  0  0  0  0  0  0  0  0  0  0  0
    2.2291   -0.3139   -0.8730 C   0  0  0  0  0  0  0  0  0  0  0  0
    0.8964   -0.8268    1.2412 C   0  0  0  0  0  0  0  0  0  0  0  0
    0.2834    0.4087    0.7090 C   0  0  0  0  0  0  0  0  0  0  0  0
   -1.9191    2.0625    0.2333 H   0  0  0  0  0  0  0  0  0  0  0  0
   -1.0302    1.9629   -1.3741 H   0  0  0  0  0  0  0  0  0  0  0  0
   -2.5724    1.1225   -1.1213 H   0  0  0  0  0  0  0  0  0  0  0  0
   -2.6515   -0.3773    1.2655 H   0  0  0  0  0  0  0  0  0  0  0  0
    3.0307   -0.1232   -0.1323 H   0  0  0  0  0  0  0  0  0  0  0  0
    2.1944    0.4379   -1.6829 H   0  0  0  0  0  0  0  0  0  0  0  0
    2.5310   -1.2756   -1.3823 H   0  0  0  0  0  0  0  0  0  0  0  0
    0.2553   -1.6105    1.6909 H   0  0  0  0  0  0  0  0  0  0  0  0
    1.8613   -0.6893    1.7705 H   0  0  0  0  0  0  0  0  0  0  0  0
    0.7313    1.3946    0.7825 H   0  0  0  0  0  0  0  0  0  0  0  0
  1  2  1  0
  2  3  1  0
  3  4  2  0
  2  5  1  0
  5  6  1  0
  6  7  1  0
  6  8  1  0
  8  9  1  0
  9  2  1  0
  9  6  1  0
  1 10  1  0
  1 11  1  0
  1 12  1  0
  3 13  1  0
  7 14  1  0
  7 15  1  0
  7 16  1  0
  8 17  1  0
  8 18  1  0
  9 19  1  0
M  END
