
     RDKit          3D

 15 16  0  0  0  0  0  0  0  0999 V2000
   -1.1927   -1.3970    0.0168 C   0  0  0  0  0  0  0  0  0  0  0  0
   -0.4033   -0.1032    0.0476 C   0  0  0  0  0  0  0  0  0  0  0  0
   -0.9588    1.0042    0.8587 C   0  0  0  0  0  0  0  0  0  0  0  0
   -0.3510    2.0475    0.9019 O   0  0  0  0  0  0  0  0  0  0  0  0
    0.3122    0.3267   -1.1908 C   0  0  0  0  0  0  0  0  0  0  0  0
    1.1626    1.4551   -1.0293 O   0  0  0  0  0  0  0  0  0  0  0  0
    1.8254    1.0525    0.1185 C   0  0  0  0  0  0  0  0  0  0  0  0
    2.6814    1.4620    0.9362 O   0  0  0  0  0  0  0  0  0  0  0  0
    1.0706   -0.2225    0.0513 C   0  0  0  0  0  0  0  0  0  0  0  0
   -1.1120   -1.8681   -0.9752 H   0  0  0  0  0  0  0  0  0  0  0  0
   -2.2575   -1.1433    0.2846 H   0  0  0  0  0  0  0  0  0  0  0  0
   -0.8284   -2.0444    0.8447 H   0  0  0  0  0  0  0  0  0  0  0  0
   -1.8777    0.8594    1.3847 H   0  0  0  0  0  0  0  0  0  0  0  0
    0.3367   -0.2675   -2.1003 H   0  0  0  0  0  0  0  0  0  0  0  0
    1.5924   -1.1613   -0.1495 H   0  0  0  0  0  0  0  0  0  0  0  0
  1  2  1  0
  2  3  1  0
  3  4  2  0
  2  5  1  0
  5  6  1  0
  6  7  1  0
  7  8  2  0
  7  9  1  0
  9  2  1  0
  9  5  1  0
  1 10  1  0
  1 11  1  0
  1 12  1  0
  3 13  1  0
  5 14  1  0
  9 15  1  0
M  END
