
     RDKit          3D

 21 22  0  0  0  0  0  0  0  0999 V2000
   -1.0839   -0.4546    1.4531 C   0  0  0  0  0  0  0  0  0  0  0  0
   -0.7606    0.1416    0.1288 C   0  0  0  0  0  0  0  0  0  0  0  0
   -1.9308    0.7546   -0.5104 C   0  0  0  0  0  0  0  0  0  0  0  0
   -2.9516    0.1349   -0.6980 O   0  0  0  0  0  0  0  0  0  0  0  0
    0.4715    1.0043    0.0674 C   0  0  0  0  0  0  0  0  0  0  0  0
    1.5998    0.1683    0.6123 C   0  0  0  0  0  0  0  0  0  0  0  0
    1.2458   -1.1698   -0.0671 C   0  0  0  0  0  0  0  0  0  0  0  0
    0.0276   -0.7441   -0.8266 C   0  0  0  0  0  0  0  0  0  0  0  0
    0.5049    0.5931   -1.4149 C   0  0  0  0  0  0  0  0  0  0  0  0
   -0.3950   -1.2118    1.8199 H   0  0  0  0  0  0  0  0  0  0  0  0
   -2.0867   -0.9446    1.3647 H   0  0  0  0  0  0  0  0  0  0  0  0
   -1.2414    0.3858    2.1734 H   0  0  0  0  0  0  0  0  0  0  0  0
   -1.8842    1.7883   -0.8240 H   0  0  0  0  0  0  0  0  0  0  0  0
    0.4139    2.0376    0.2866 H   0  0  0  0  0  0  0  0  0  0  0  0
    2.5479    0.5712    0.1772 H   0  0  0  0  0  0  0  0  0  0  0  0
    1.6144    0.0821    1.6977 H   0  0  0  0  0  0  0  0  0  0  0  0
    2.0374   -1.4188   -0.8186 H   0  0  0  0  0  0  0  0  0  0  0  0
    1.0946   -1.9694    0.6525 H   0  0  0  0  0  0  0  0  0  0  0  0
   -0.4907   -1.4079   -1.4620 H   0  0  0  0  0  0  0  0  0  0  0  0
    1.5227    0.5449   -1.7997 H   0  0  0  0  0  0  0  0  0  0  0  0
   -0.2555    1.1143   -2.0124 H   0  0  0  0  0  0  0  0  0  0  0  0
  1  2  1  0
  2  3  1  0
  3  4  2  0
  2  5  1  0
  5  6  1  0
  6  7  1  0
  7  8  1  0
  8  9  1  0
  8  2  1  0
  9  5  1  0
  1 10  1  0
  1 11  1  0
  1 12  1  0
  3 13  1  0
  5 14  1  0
  6 15  1  0
  6 16  1  0
  7 17  1  0
  7 18  1  0
  8 19  1  0
  9 20  1  0
  9 21  1  0
M  END
