
     RDKit          3D

 21 23  0  0  0  0  0  0  0  0999 V2000
   -1.5405    0.0837   -1.5471 C   0  0  0  0  0  0  0  0  0  0  0  0
   -0.7847    0.0915   -0.2611 C   0  0  0  0  0  0  0  0  0  0  0  0
   -1.6980    0.1950    0.9219 C   0  0  0  0  0  0  0  0  0  0  0  0
    0.2812   -0.9545   -0.0944 C   0  0  0  0  0  0  0  0  0  0  0  0
    0.9081   -0.0328    0.8951 C   0  0  0  0  0  0  0  0  0  0  0  0
    2.3632   -0.1927    0.6621 C   0  0  0  0  0  0  0  0  0  0  0  0
    2.4165   -0.2913   -0.7505 O   0  0  0  0  0  0  0  0  0  0  0  0
    1.0856   -0.1671   -1.0974 C   0  0  0  0  0  0  0  0  0  0  0  0
    0.4775    0.8856   -0.2148 C   0  0  0  0  0  0  0  0  0  0  0  0
   -2.5142    0.6295   -1.3765 H   0  0  0  0  0  0  0  0  0  0  0  0
   -1.8002   -0.9792   -1.7748 H   0  0  0  0  0  0  0  0  0  0  0  0
   -1.0531    0.6034   -2.3789 H   0  0  0  0  0  0  0  0  0  0  0  0
   -2.7407   -0.0989    0.6127 H   0  0  0  0  0  0  0  0  0  0  0  0
   -1.4418   -0.5160    1.7433 H   0  0  0  0  0  0  0  0  0  0  0  0
   -1.7536    1.2492    1.2783 H   0  0  0  0  0  0  0  0  0  0  0  0
    0.1701   -1.9451   -0.0529 H   0  0  0  0  0  0  0  0  0  0  0  0
    0.5034    0.0856    1.8685 H   0  0  0  0  0  0  0  0  0  0  0  0
    2.8377   -1.0462    1.1513 H   0  0  0  0  0  0  0  0  0  0  0  0
    2.8803    0.7338    1.0110 H   0  0  0  0  0  0  0  0  0  0  0  0
    0.8016   -0.2089   -2.1302 H   0  0  0  0  0  0  0  0  0  0  0  0
    0.6017    1.8755   -0.2689 H   0  0  0  0  0  0  0  0  0  0  0  0
  1  2  1  0
  2  3  1  0
  2  4  1  0
  4  5  1  0
  5  6  1  0
  6  7  1  0
  7  8  1  0
  8  9  1  0
  9  2  1  0
  8  4  1  0
  9  5  1  0
  1 10  1  0
  1 11  1  0
  1 12  1  0
  3 13  1  0
  3 14  1  0
  3 15  1  0
  4 16  1  0
  5 17  1  0
  6 18  1  0
  6 19  1  0
  8 20  1  0
  9 21  1  0
M  END
