
     RDKit          3D

 20 20  0  0  0  0  0  0  0  0999 V2000
   -1.7036   -1.1290    0.4069 C   0  0  0  0  0  0  0  0  0  0  0  0
   -0.6601   -0.1448   -0.0918 C   0  0  0  0  0  0  0  0  0  0  0  0
    0.7415   -0.5765    0.1292 C   0  0  0  0  0  0  0  0  0  0  0  0
    0.9496   -0.7458    1.4974 O   0  0  0  0  0  0  0  0  0  0  0  0
    1.7878    0.3396   -0.4145 C   0  0  0  0  0  0  0  0  0  0  0  0
    3.0587   -0.1800   -0.2157 O   0  0  0  0  0  0  0  0  0  0  0  0
   -1.0397    1.2961    0.1146 C   0  0  0  0  0  0  0  0  0  0  0  0
   -1.0406    0.7132   -1.2343 C   0  0  0  0  0  0  0  0  0  0  0  0
   -1.2834   -1.7818    1.2155 H   0  0  0  0  0  0  0  0  0  0  0  0
   -2.0861   -1.7777   -0.3856 H   0  0  0  0  0  0  0  0  0  0  0  0
   -2.5779   -0.6183    0.8637 H   0  0  0  0  0  0  0  0  0  0  0  0
    0.8810   -1.5746   -0.3341 H   0  0  0  0  0  0  0  0  0  0  0  0
    1.0560    0.1620    1.8923 H   0  0  0  0  0  0  0  0  0  0  0  0
    1.6767    0.6127   -1.4575 H   0  0  0  0  0  0  0  0  0  0  0  0
    1.7490    1.2960    0.1810 H   0  0  0  0  0  0  0  0  0  0  0  0
    3.0589   -0.9143    0.4702 H   0  0  0  0  0  0  0  0  0  0  0  0
   -0.2403    1.9518    0.4975 H   0  0  0  0  0  0  0  0  0  0  0  0
   -2.0383    1.5341    0.5681 H   0  0  0  0  0  0  0  0  0  0  0  0
   -0.2752    1.0389   -1.9931 H   0  0  0  0  0  0  0  0  0  0  0  0
   -2.0142    0.4984   -1.7098 H   0  0  0  0  0  0  0  0  0  0  0  0
  1  2  1  0
  2  3  1  0
  3  4  1  0
  3  5  1  0
  5  6  1  0
  2  7  1  0
  7  8  1  0
  8  2  1  0
  1  9  1  0
  1 10  1  0
  1 11  1  0
  3 12  1  0
  4 13  1  0
  5 14  1  0
  5 15  1  0
  6 16  1  0
  7 17  1  0
  7 18  1  0
  8 19  1  0
  8 20  1  0
M  END
