
     RDKit          3D

 16 17  0  0  0  0  0  0  0  0999 V2000
   -0.9626   -1.3079   -0.2610 C   0  0  0  0  0  0  0  0  0  0  0  0
   -0.3584    0.0553   -0.0566 C   0  0  0  0  0  0  0  0  0  0  0  0
   -1.2923    1.1850   -0.1492 C   0  0  0  0  0  0  0  0  0  0  0  0
   -2.4865    0.9983   -0.0511 O   0  0  0  0  0  0  0  0  0  0  0  0
    0.5811    0.1140    1.1571 C   0  0  0  0  0  0  0  0  0  0  0  0
    1.7016    0.4357    0.1931 C   0  0  0  0  0  0  0  0  0  0  0  0
    1.5347    1.4229   -0.7506 O   0  0  0  0  0  0  0  0  0  0  0  0
    0.8980    0.2120   -0.9177 C   0  0  0  0  0  0  0  0  0  0  0  0
   -0.9613   -1.5435   -1.3461 H   0  0  0  0  0  0  0  0  0  0  0  0
   -0.4689   -2.0799    0.3546 H   0  0  0  0  0  0  0  0  0  0  0  0
   -2.0214   -1.2600    0.1071 H   0  0  0  0  0  0  0  0  0  0  0  0
   -0.9386    2.1912   -0.3045 H   0  0  0  0  0  0  0  0  0  0  0  0
    0.7597   -0.8893    1.5962 H   0  0  0  0  0  0  0  0  0  0  0  0
    0.3235    0.9137    1.8753 H   0  0  0  0  0  0  0  0  0  0  0  0
    2.6658   -0.0485    0.3574 H   0  0  0  0  0  0  0  0  0  0  0  0
    1.0257   -0.3991   -1.8040 H   0  0  0  0  0  0  0  0  0  0  0  0
  1  2  1  0
  2  3  1  0
  3  4  2  0
  2  5  1  0
  5  6  1  0
  6  7  1  0
  7  8  1  0
  8  2  1  0
  8  6  1  0
  1  9  1  0
  1 10  1  0
  1 11  1  0
  3 12  1  0
  5 13  1  0
  5 14  1  0
  6 15  1  0
  8 16  1  0
M  END
