
     RDKit          3D

 23 23  0  0  0  0  0  0  0  0999 V2000
   -1.8398    1.0036    1.1532 C   0  0  0  0  0  0  0  0  0  0  0  0
   -1.0284    0.1744    0.1944 C   0  0  0  0  0  0  0  0  0  0  0  0
   -1.8120   -1.0371   -0.2385 C   0  0  0  0  0  0  0  0  0  0  0  0
   -0.6221    0.9290   -1.0434 C   0  0  0  0  0  0  0  0  0  0  0  0
    0.6319    0.4100   -1.3260 O   0  0  0  0  0  0  0  0  0  0  0  0
    1.1618   -0.0987   -0.1700 C   0  0  0  0  0  0  0  0  0  0  0  0
    1.7058   -1.5007   -0.3100 C   0  0  0  0  0  0  0  0  0  0  0  0
    2.3296    0.7783    0.2655 C   0  0  0  0  0  0  0  0  0  0  0  0
    0.1731   -0.1286    0.7959 O   0  0  0  0  0  0  0  0  0  0  0  0
   -2.9016    0.9007    0.8720 H   0  0  0  0  0  0  0  0  0  0  0  0
   -1.7264    0.5269    2.1594 H   0  0  0  0  0  0  0  0  0  0  0  0
   -1.4930    2.0475    1.1285 H   0  0  0  0  0  0  0  0  0  0  0  0
   -2.0484   -1.0178   -1.3313 H   0  0  0  0  0  0  0  0  0  0  0  0
   -1.2421   -1.9665   -0.0319 H   0  0  0  0  0  0  0  0  0  0  0  0
   -2.7668   -1.0757    0.3033 H   0  0  0  0  0  0  0  0  0  0  0  0
   -1.3498    0.7035   -1.8551 H   0  0  0  0  0  0  0  0  0  0  0  0
   -0.6184    1.9989   -0.7933 H   0  0  0  0  0  0  0  0  0  0  0  0
    1.7926   -1.8958    0.7409 H   0  0  0  0  0  0  0  0  0  0  0  0
    2.7214   -1.5282   -0.7557 H   0  0  0  0  0  0  0  0  0  0  0  0
    1.0746   -2.1625   -0.9135 H   0  0  0  0  0  0  0  0  0  0  0  0
    2.1715    1.8064   -0.0824 H   0  0  0  0  0  0  0  0  0  0  0  0
    3.2838    0.3470   -0.1238 H   0  0  0  0  0  0  0  0  0  0  0  0
    2.4025    0.7854    1.3616 H   0  0  0  0  0  0  0  0  0  0  0  0
  1  2  1  0
  2  3  1  0
  2  4  1  0
  4  5  1  0
  5  6  1  0
  6  7  1  0
  6  8  1  0
  6  9  1  0
  9  2  1  0
  1 10  1  0
  1 11  1  0
  1 12  1  0
  3 13  1  0
  3 14  1  0
  3 15  1  0
  4 16  1  0
  4 17  1  0
  7 18  1  0
  7 19  1  0
  7 20  1  0
  8 21  1  0
  8 22  1  0
  8 23  1  0
M  END
