
     RDKit          3D

 21 22  0  0  0  0  0  0  0  0999 V2000
   -2.3823   -0.9535   -0.3119 C   0  0  0  0  0  0  0  0  0  0  0  0
   -1.1717   -0.1165   -0.0715 C   0  0  0  0  0  0  0  0  0  0  0  0
   -1.5096    1.2865    0.3398 C   0  0  0  0  0  0  0  0  0  0  0  0
   -0.1823   -0.8411    0.8066 C   0  0  0  0  0  0  0  0  0  0  0  0
    0.8403   -0.5251   -0.2790 C   0  0  0  0  0  0  0  0  0  0  0  0
    1.7837    0.5397    0.1872 C   0  0  0  0  0  0  0  0  0  0  0  0
    3.2616    0.3048    0.0296 C   0  0  0  0  0  0  0  0  0  0  0  0
    2.4906    1.3130   -0.7054 O   0  0  0  0  0  0  0  0  0  0  0  0
   -0.2137   -0.1089   -1.0738 O   0  0  0  0  0  0  0  0  0  0  0  0
   -2.3503   -1.5158   -1.2598 H   0  0  0  0  0  0  0  0  0  0  0  0
   -3.3044   -0.3242   -0.2279 H   0  0  0  0  0  0  0  0  0  0  0  0
   -2.5127   -1.7370    0.4912 H   0  0  0  0  0  0  0  0  0  0  0  0
   -2.2161    1.2638    1.1831 H   0  0  0  0  0  0  0  0  0  0  0  0
   -2.0031    1.7669   -0.5568 H   0  0  0  0  0  0  0  0  0  0  0  0
   -0.6353    1.9063    0.5648 H   0  0  0  0  0  0  0  0  0  0  0  0
   -0.3419   -1.9379    0.8621 H   0  0  0  0  0  0  0  0  0  0  0  0
   -0.0185   -0.3147    1.7470 H   0  0  0  0  0  0  0  0  0  0  0  0
    1.3263   -1.4030   -0.7243 H   0  0  0  0  0  0  0  0  0  0  0  0
    1.5392    1.0765    1.1500 H   0  0  0  0  0  0  0  0  0  0  0  0
    3.9746    0.7879    0.7197 H   0  0  0  0  0  0  0  0  0  0  0  0
    3.6255   -0.4678   -0.6893 H   0  0  0  0  0  0  0  0  0  0  0  0
  1  2  1  0
  2  3  1  0
  2  4  1  0
  4  5  1  0
  5  6  1  0
  6  7  1  0
  7  8  1  0
  5  9  1  0
  9  2  1  0
  8  6  1  0
  1 10  1  0
  1 11  1  0
  1 12  1  0
  3 13  1  0
  3 14  1  0
  3 15  1  0
  4 16  1  0
  4 17  1  0
  5 18  1  0
  6 19  1  0
  7 20  1  0
  7 21  1  0
M  END
