
     RDKit          3D

 21 22  0  0  0  0  0  0  0  0999 V2000
   -2.5259   -0.6069   -0.7362 C   0  0  0  0  0  0  0  0  0  0  0  0
   -1.4207    0.3601   -0.3377 C   0  0  0  0  0  0  0  0  0  0  0  0
   -0.0324    0.0265   -0.7746 C   0  0  0  0  0  0  0  0  0  0  0  0
    0.4996   -1.2845   -0.2664 C   0  0  0  0  0  0  0  0  0  0  0  0
    1.1097    0.0284    0.1556 C   0  0  0  0  0  0  0  0  0  0  0  0
    2.4992    0.2830   -0.3527 C   0  0  0  0  0  0  0  0  0  0  0  0
    3.4326    0.2406    0.6884 O   0  0  0  0  0  0  0  0  0  0  0  0
   -1.6427    1.0355    0.9874 C   0  0  0  0  0  0  0  0  0  0  0  0
   -1.7569    1.7078   -0.2552 O   0  0  0  0  0  0  0  0  0  0  0  0
   -3.0019   -0.2059   -1.6369 H   0  0  0  0  0  0  0  0  0  0  0  0
   -3.3057   -0.6816    0.0469 H   0  0  0  0  0  0  0  0  0  0  0  0
   -2.0704   -1.6083   -0.8658 H   0  0  0  0  0  0  0  0  0  0  0  0
    0.1957    0.3450   -1.8241 H   0  0  0  0  0  0  0  0  0  0  0  0
    1.0160   -1.8988   -1.0427 H   0  0  0  0  0  0  0  0  0  0  0  0
   -0.1161   -1.8634    0.4322 H   0  0  0  0  0  0  0  0  0  0  0  0
    0.9786    0.3260    1.2236 H   0  0  0  0  0  0  0  0  0  0  0  0
    2.7542   -0.5289   -1.0589 H   0  0  0  0  0  0  0  0  0  0  0  0
    2.5757    1.2924   -0.8372 H   0  0  0  0  0  0  0  0  0  0  0  0
    4.2230    0.8076    0.5067 H   0  0  0  0  0  0  0  0  0  0  0  0
   -0.7737    1.3076    1.6239 H   0  0  0  0  0  0  0  0  0  0  0  0
   -2.6379    0.9174    1.4784 H   0  0  0  0  0  0  0  0  0  0  0  0
  1  2  1  0
  2  3  1  0
  3  4  1  0
  4  5  1  0
  5  6  1  0
  6  7  1  0
  2  8  1  0
  8  9  1  0
  9  2  1  0
  5  3  1  0
  1 10  1  0
  1 11  1  0
  1 12  1  0
  3 13  1  0
  4 14  1  0
  4 15  1  0
  5 16  1  0
  6 17  1  0
  6 18  1  0
  7 19  1  0
  8 20  1  0
  8 21  1  0
M  END
