
     RDKit          3D

 18 18  0  0  0  0  0  0  0  0999 V2000
   -1.7681    0.2464   -0.5620 C   0  0  0  0  0  0  0  0  0  0  0  0
   -0.6774   -0.1396    0.4501 C   0  0  0  0  0  0  0  0  0  0  0  0
   -1.3867   -0.5626    1.5947 O   0  0  0  0  0  0  0  0  0  0  0  0
    0.0701    1.0949    0.7353 C   0  0  0  0  0  0  0  0  0  0  0  0
    1.3454    1.2058    0.4750 C   0  0  0  0  0  0  0  0  0  0  0  0
    2.0801    0.0695   -0.1240 C   0  0  0  0  0  0  0  0  0  0  0  0
    1.5348   -1.1352    0.3164 O   0  0  0  0  0  0  0  0  0  0  0  0
    0.2132   -1.2001   -0.0811 C   0  0  0  0  0  0  0  0  0  0  0  0
   -2.3642   -0.6485   -0.8054 H   0  0  0  0  0  0  0  0  0  0  0  0
   -2.3854    1.0292   -0.0724 H   0  0  0  0  0  0  0  0  0  0  0  0
   -1.2821    0.6269   -1.5044 H   0  0  0  0  0  0  0  0  0  0  0  0
   -1.8753   -1.3971    1.3167 H   0  0  0  0  0  0  0  0  0  0  0  0
   -0.4904    1.9254    1.1787 H   0  0  0  0  0  0  0  0  0  0  0  0
    1.8806    2.1319    0.6950 H   0  0  0  0  0  0  0  0  0  0  0  0
    3.1644    0.0820    0.0851 H   0  0  0  0  0  0  0  0  0  0  0  0
    1.9758    0.0765   -1.2397 H   0  0  0  0  0  0  0  0  0  0  0  0
   -0.1813   -2.1905    0.2798 H   0  0  0  0  0  0  0  0  0  0  0  0
    0.1466   -1.2148   -1.1866 H   0  0  0  0  0  0  0  0  0  0  0  0
  1  2  1  0
  2  3  1  0
  2  4  1  0
  4  5  2  0
  5  6  1  0
  6  7  1  0
  7  8  1  0
  8  2  1  0
  1  9  1  0
  1 10  1  0
  1 11  1  0
  3 12  1  0
  4 13  1  0
  5 14  1  0
  6 15  1  0
  6 16  1  0
  8 17  1  0
  8 18  1  0
M  END
