
     RDKit          3D

 14 14  0  0  0  0  0  0  0  0999 V2000
   -0.8894   -0.6137   -0.9766 C   0  0  0  0  0  0  0  0  0  0  0  0
   -0.0047   -0.0581    0.0886 C   0  0  0  0  0  0  0  0  0  0  0  0
    1.2724   -0.8553    0.1094 C   0  0  0  0  0  0  0  0  0  0  0  0
    1.8580   -0.9383   -0.9573 O   0  0  0  0  0  0  0  0  0  0  0  0
    0.3027    1.3949    0.0473 C   0  0  0  0  0  0  0  0  0  0  0  0
   -0.0796    1.4489    1.4152 O   0  0  0  0  0  0  0  0  0  0  0  0
   -0.6179    0.1603    1.4045 C   0  0  0  0  0  0  0  0  0  0  0  0
   -1.3344   -0.4890    2.2298 O   0  0  0  0  0  0  0  0  0  0  0  0
   -0.8708   -1.7318   -0.8750 H   0  0  0  0  0  0  0  0  0  0  0  0
   -0.4238   -0.4019   -1.9570 H   0  0  0  0  0  0  0  0  0  0  0  0
   -1.9432   -0.3146   -0.9089 H   0  0  0  0  0  0  0  0  0  0  0  0
    1.5962   -1.2961    1.0246 H   0  0  0  0  0  0  0  0  0  0  0  0
    1.3936    1.6627   -0.0132 H   0  0  0  0  0  0  0  0  0  0  0  0
   -0.2590    2.0321   -0.6315 H   0  0  0  0  0  0  0  0  0  0  0  0
  1  2  1  0
  2  3  1  0
  3  4  2  0
  2  5  1  0
  5  6  1  0
  6  7  1  0
  7  8  2  0
  7  2  1  0
  1  9  1  0
  1 10  1  0
  1 11  1  0
  3 12  1  0
  5 13  1  0
  5 14  1  0
M  END
