
     RDKit          3D

 21 21  0  0  0  0  0  0  0  0999 V2000
   -1.7128   -0.9913   -0.4427 C   0  0  0  0  0  0  0  0  0  0  0  0
   -0.6177    0.0331   -0.2435 C   0  0  0  0  0  0  0  0  0  0  0  0
   -1.2519    1.3665   -0.2335 C   0  0  0  0  0  0  0  0  0  0  0  0
   -1.2932    2.1394   -1.1474 O   0  0  0  0  0  0  0  0  0  0  0  0
    0.4368   -0.1339   -1.2887 C   0  0  0  0  0  0  0  0  0  0  0  0
    1.7589    0.2128   -0.6728 C   0  0  0  0  0  0  0  0  0  0  0  0
    1.5727   -0.1878    0.7766 C   0  0  0  0  0  0  0  0  0  0  0  0
    0.0957   -0.1587    1.0541 C   0  0  0  0  0  0  0  0  0  0  0  0
   -0.1326    0.9170    1.9351 O   0  0  0  0  0  0  0  0  0  0  0  0
   -2.1846   -0.8084   -1.4318 H   0  0  0  0  0  0  0  0  0  0  0  0
   -2.4910   -0.7746    0.3135 H   0  0  0  0  0  0  0  0  0  0  0  0
   -1.2558   -1.9820   -0.3485 H   0  0  0  0  0  0  0  0  0  0  0  0
   -1.7211    1.6565    0.7024 H   0  0  0  0  0  0  0  0  0  0  0  0
    0.2296    0.3790   -2.2373 H   0  0  0  0  0  0  0  0  0  0  0  0
    0.4698   -1.2332   -1.5423 H   0  0  0  0  0  0  0  0  0  0  0  0
    2.5615   -0.4278   -1.1425 H   0  0  0  0  0  0  0  0  0  0  0  0
    2.0089    1.2700   -0.7728 H   0  0  0  0  0  0  0  0  0  0  0  0
    1.9169   -1.2449    0.8779 H   0  0  0  0  0  0  0  0  0  0  0  0
    2.1392    0.4664    1.4566 H   0  0  0  0  0  0  0  0  0  0  0  0
   -0.2464   -1.0820    1.5166 H   0  0  0  0  0  0  0  0  0  0  0  0
   -0.2830    0.5839    2.8711 H   0  0  0  0  0  0  0  0  0  0  0  0
  1  2  1  0
  2  3  1  0
  3  4  2  0
  2  5  1  0
  5  6  1  0
  6  7  1  0
  7  8  1  0
  8  9  1  0
  8  2  1  0
  1 10  1  0
  1 11  1  0
  1 12  1  0
  3 13  1  0
  5 14  1  0
  5 15  1  0
  6 16  1  0
  6 17  1  0
  7 18  1  0
  7 19  1  0
  8 20  1  0
  9 21  1  0
M  END
