
     RDKit          3D

 18 18  0  0  0  0  0  0  0  0999 V2000
    1.7605    1.0442    0.1481 C   0  0  0  0  0  0  0  0  0  0  0  0
    0.5184    0.1837   -0.0086 C   0  0  0  0  0  0  0  0  0  0  0  0
    0.8297   -1.2392    0.4067 C   0  0  0  0  0  0  0  0  0  0  0  0
    0.0403    0.2223   -1.3184 O   0  0  0  0  0  0  0  0  0  0  0  0
   -1.2102   -0.4099   -1.1866 C   0  0  0  0  0  0  0  0  0  0  0  0
   -1.8377    0.2374    0.0464 C   0  0  0  0  0  0  0  0  0  0  0  0
   -0.6321    0.7319    0.7371 C   0  0  0  0  0  0  0  0  0  0  0  0
   -0.5702    1.4354    1.7063 O   0  0  0  0  0  0  0  0  0  0  0  0
    2.2115    0.7553    1.1367 H   0  0  0  0  0  0  0  0  0  0  0  0
    1.5181    2.1221    0.1721 H   0  0  0  0  0  0  0  0  0  0  0  0
    2.4620    0.7770   -0.6686 H   0  0  0  0  0  0  0  0  0  0  0  0
    0.0001   -1.5851    1.0823 H   0  0  0  0  0  0  0  0  0  0  0  0
    1.7954   -1.2378    0.9502 H   0  0  0  0  0  0  0  0  0  0  0  0
    0.9321   -1.8957   -0.4723 H   0  0  0  0  0  0  0  0  0  0  0  0
   -1.1097   -1.4853   -1.0139 H   0  0  0  0  0  0  0  0  0  0  0  0
   -1.7681   -0.1967   -2.1016 H   0  0  0  0  0  0  0  0  0  0  0  0
   -2.5316    1.0395   -0.2642 H   0  0  0  0  0  0  0  0  0  0  0  0
   -2.4085   -0.4990    0.6483 H   0  0  0  0  0  0  0  0  0  0  0  0
  1  2  1  0
  2  3  1  0
  2  4  1  0
  4  5  1  0
  5  6  1  0
  6  7  1  0
  7  8  2  0
  7  2  1  0
  1  9  1  0
  1 10  1  0
  1 11  1  0
  3 12  1  0
  3 13  1  0
  3 14  1  0
  5 15  1  0
  5 16  1  0
  6 17  1  0
  6 18  1  0
M  END
