
     RDKit          3D

 17 18  0  0  0  0  0  0  0  0999 V2000
    1.4523   -0.6060    0.7373 C   0  0  0  0  0  0  0  0  0  0  0  0
    0.7106    0.2512   -0.2611 C   0  0  0  0  0  0  0  0  0  0  0  0
    1.5701    1.0219   -0.9989 O   0  0  0  0  0  0  0  0  0  0  0  0
   -0.2203   -0.6503   -1.0805 C   0  0  0  0  0  0  0  0  0  0  0  0
   -1.4024   -0.2486   -0.2790 C   0  0  0  0  0  0  0  0  0  0  0  0
   -1.3808    0.0978    1.1354 C   0  0  0  0  0  0  0  0  0  0  0  0
   -0.5323    0.9192    0.2464 C   0  0  0  0  0  0  0  0  0  0  0  0
    0.8175   -1.4477    1.1234 H   0  0  0  0  0  0  0  0  0  0  0  0
    1.9290   -0.0265    1.5410 H   0  0  0  0  0  0  0  0  0  0  0  0
    2.2645   -1.1251    0.1526 H   0  0  0  0  0  0  0  0  0  0  0  0
    1.1663    1.7282   -1.5310 H   0  0  0  0  0  0  0  0  0  0  0  0
   -0.2467   -0.2106   -2.1222 H   0  0  0  0  0  0  0  0  0  0  0  0
    0.0700   -1.7022   -1.1022 H   0  0  0  0  0  0  0  0  0  0  0  0
   -2.3010    0.0201   -0.8672 H   0  0  0  0  0  0  0  0  0  0  0  0
   -0.8037   -0.4835    1.9009 H   0  0  0  0  0  0  0  0  0  0  0  0
   -2.2725    0.5766    1.5575 H   0  0  0  0  0  0  0  0  0  0  0  0
   -0.8208    1.8855   -0.1522 H   0  0  0  0  0  0  0  0  0  0  0  0
  1  2  1  0
  2  3  1  0
  2  4  1  0
  4  5  1  0
  5  6  1  0
  6  7  1  0
  7  2  1  0
  7  5  1  0
  1  8  1  0
  1  9  1  0
  1 10  1  0
  3 11  1  0
  4 12  1  0
  4 13  1  0
  5 14  1  0
  6 15  1  0
  6 16  1  0
  7 17  1  0
M  END
