
     RDKit          3D

 19 19  0  0  0  0  0  0  0  0999 V2000
    1.5466    0.0956   -1.0200 C   0  0  0  0  0  0  0  0  0  0  0  0
    0.9225   -0.0020    0.3568 C   0  0  0  0  0  0  0  0  0  0  0  0
    1.9066   -0.2952    1.3310 O   0  0  0  0  0  0  0  0  0  0  0  0
   -0.1231   -1.0752    0.3701 C   0  0  0  0  0  0  0  0  0  0  0  0
   -1.4978   -0.6127    0.0259 C   0  0  0  0  0  0  0  0  0  0  0  0
   -1.5979    0.7535   -0.5608 C   0  0  0  0  0  0  0  0  0  0  0  0
   -0.7623    1.7120    0.0115 O   0  0  0  0  0  0  0  0  0  0  0  0
    0.3452    1.3109    0.7341 C   0  0  0  0  0  0  0  0  0  0  0  0
    0.8146    2.0354    1.6513 O   0  0  0  0  0  0  0  0  0  0  0  0
    2.6345   -0.1149   -0.9864 H   0  0  0  0  0  0  0  0  0  0  0  0
    1.3764    1.0938   -1.4849 H   0  0  0  0  0  0  0  0  0  0  0  0
    1.1127   -0.6520   -1.7178 H   0  0  0  0  0  0  0  0  0  0  0  0
    1.3810   -0.7193    2.0785 H   0  0  0  0  0  0  0  0  0  0  0  0
   -0.1147   -1.5420    1.3779 H   0  0  0  0  0  0  0  0  0  0  0  0
    0.2334   -1.8892   -0.3228 H   0  0  0  0  0  0  0  0  0  0  0  0
   -1.9282   -1.3285   -0.7070 H   0  0  0  0  0  0  0  0  0  0  0  0
   -2.1550   -0.6638    0.9336 H   0  0  0  0  0  0  0  0  0  0  0  0
   -2.6528    1.1186   -0.4106 H   0  0  0  0  0  0  0  0  0  0  0  0
   -1.4416    0.7750   -1.6604 H   0  0  0  0  0  0  0  0  0  0  0  0
  1  2  1  0
  2  3  1  0
  2  4  1  0
  4  5  1  0
  5  6  1  0
  6  7  1  0
  7  8  1  0
  8  9  2  0
  8  2  1  0
  1 10  1  0
  1 11  1  0
  1 12  1  0
  3 13  1  0
  4 14  1  0
  4 15  1  0
  5 16  1  0
  5 17  1  0
  6 18  1  0
  6 19  1  0
M  END
