
     RDKit          3D

 21 22  0  0  0  0  0  0  0  0999 V2000
   -2.4871   -0.9837    0.1109 C   0  0  0  0  0  0  0  0  0  0  0  0
   -1.2856   -0.0284    0.1418 C   0  0  0  0  0  0  0  0  0  0  0  0
   -1.4707    1.2209   -0.6325 C   0  0  0  0  0  0  0  0  0  0  0  0
   -0.8436    0.2626    1.5215 O   0  0  0  0  0  0  0  0  0  0  0  0
   -0.0588   -0.5303    0.6766 C   0  0  0  0  0  0  0  0  0  0  0  0
    1.3184   -0.0144    0.2974 C   0  0  0  0  0  0  0  0  0  0  0  0
    2.3533   -1.0433   -0.1162 C   0  0  0  0  0  0  0  0  0  0  0  0
    1.8497    1.2224    0.8868 C   0  0  0  0  0  0  0  0  0  0  0  0
    1.2785    1.2016   -0.3663 O   0  0  0  0  0  0  0  0  0  0  0  0
   -2.4119   -1.5538   -0.8276 H   0  0  0  0  0  0  0  0  0  0  0  0
   -2.3389   -1.7020    0.9406 H   0  0  0  0  0  0  0  0  0  0  0  0
   -3.4338   -0.4452    0.1410 H   0  0  0  0  0  0  0  0  0  0  0  0
   -1.3619    2.1604   -0.0255 H   0  0  0  0  0  0  0  0  0  0  0  0
   -2.4910    1.2910   -1.0777 H   0  0  0  0  0  0  0  0  0  0  0  0
   -0.7684    1.3494   -1.4846 H   0  0  0  0  0  0  0  0  0  0  0  0
   -0.0309   -1.5864    1.0207 H   0  0  0  0  0  0  0  0  0  0  0  0
    1.9882   -2.0586    0.1587 H   0  0  0  0  0  0  0  0  0  0  0  0
    2.6570   -0.9521   -1.1673 H   0  0  0  0  0  0  0  0  0  0  0  0
    3.2849   -0.8880    0.4949 H   0  0  0  0  0  0  0  0  0  0  0  0
    1.3218    1.6964    1.7374 H   0  0  0  0  0  0  0  0  0  0  0  0
    2.9307    1.3814    0.8968 H   0  0  0  0  0  0  0  0  0  0  0  0
  1  2  1  0
  2  3  1  0
  2  4  1  0
  4  5  1  0
  5  6  1  0
  6  7  1  0
  6  8  1  0
  8  9  1  0
  5  2  1  0
  9  6  1  0
  1 10  1  0
  1 11  1  0
  1 12  1  0
  3 13  1  0
  3 14  1  0
  3 15  1  0
  5 16  1  0
  7 17  1  0
  7 18  1  0
  7 19  1  0
  8 20  1  0
  8 21  1  0
M  END
