
     RDKit          3D

 21 22  0  0  0  0  0  0  0  0999 V2000
    2.0867    0.2337    0.5006 C   0  0  0  0  0  0  0  0  0  0  0  0
    0.7953    0.2543   -0.2396 C   0  0  0  0  0  0  0  0  0  0  0  0
    0.9062    0.9209   -1.4654 O   0  0  0  0  0  0  0  0  0  0  0  0
    0.2650   -1.1697   -0.5125 C   0  0  0  0  0  0  0  0  0  0  0  0
   -1.1182   -0.9940    0.0509 C   0  0  0  0  0  0  0  0  0  0  0  0
   -0.7869   -0.3533    1.4093 C   0  0  0  0  0  0  0  0  0  0  0  0
   -0.3501    0.8172    0.5201 C   0  0  0  0  0  0  0  0  0  0  0  0
   -1.5565    0.4059   -0.3332 C   0  0  0  0  0  0  0  0  0  0  0  0
   -1.4341    0.7190   -1.6686 O   0  0  0  0  0  0  0  0  0  0  0  0
    2.9520    0.5683   -0.1073 H   0  0  0  0  0  0  0  0  0  0  0  0
    2.0012    0.9894    1.3346 H   0  0  0  0  0  0  0  0  0  0  0  0
    2.3629   -0.7358    0.9356 H   0  0  0  0  0  0  0  0  0  0  0  0
    0.8075    0.2673   -2.2021 H   0  0  0  0  0  0  0  0  0  0  0  0
    0.8046   -1.8949    0.1259 H   0  0  0  0  0  0  0  0  0  0  0  0
    0.2943   -1.4121   -1.5753 H   0  0  0  0  0  0  0  0  0  0  0  0
   -1.8160   -1.7843    0.0362 H   0  0  0  0  0  0  0  0  0  0  0  0
   -1.7039   -0.0712    1.9341 H   0  0  0  0  0  0  0  0  0  0  0  0
    0.0064   -0.8461    1.9571 H   0  0  0  0  0  0  0  0  0  0  0  0
   -0.3390    1.7854    0.9364 H   0  0  0  0  0  0  0  0  0  0  0  0
   -2.5291    0.6368    0.1454 H   0  0  0  0  0  0  0  0  0  0  0  0
   -1.6483    1.6634   -1.7822 H   0  0  0  0  0  0  0  0  0  0  0  0
  1  2  1  0
  2  3  1  0
  2  4  1  0
  4  5  1  0
  5  6  1  0
  6  7  1  0
  7  8  1  0
  8  9  1  0
  7  2  1  0
  8  5  1  0
  1 10  1  0
  1 11  1  0
  1 12  1  0
  3 13  1  0
  4 14  1  0
  4 15  1  0
  5 16  1  0
  6 17  1  0
  6 18  1  0
  7 19  1  0
  8 20  1  0
  9 21  1  0
M  END
