
     RDKit          3D

 20 21  0  0  0  0  0  0  0  0999 V2000
   -1.7512   -0.1023   -1.1104 C   0  0  0  0  0  0  0  0  0  0  0  0
   -0.6384    0.1165   -0.0784 C   0  0  0  0  0  0  0  0  0  0  0  0
   -1.2741   -0.1323    1.2721 C   0  0  0  0  0  0  0  0  0  0  0  0
   -0.2052    1.4122   -0.1560 O   0  0  0  0  0  0  0  0  0  0  0  0
    1.1573    1.4500   -0.0548 C   0  0  0  0  0  0  0  0  0  0  0  0
    1.7171    0.1052   -0.3486 C   0  0  0  0  0  0  0  0  0  0  0  0
    1.5827   -1.0299    0.5900 C   0  0  0  0  0  0  0  0  0  0  0  0
    0.4987   -0.8005   -0.3788 C   0  0  0  0  0  0  0  0  0  0  0  0
   -2.2038    0.8623   -1.4177 H   0  0  0  0  0  0  0  0  0  0  0  0
   -2.5617   -0.7430   -0.6943 H   0  0  0  0  0  0  0  0  0  0  0  0
   -1.3698   -0.5795   -2.0270 H   0  0  0  0  0  0  0  0  0  0  0  0
   -1.8096    0.8244    1.5349 H   0  0  0  0  0  0  0  0  0  0  0  0
   -0.5577   -0.3701    2.0600 H   0  0  0  0  0  0  0  0  0  0  0  0
   -2.1042   -0.8875    1.1819 H   0  0  0  0  0  0  0  0  0  0  0  0
    1.5279    2.1699   -0.8385 H   0  0  0  0  0  0  0  0  0  0  0  0
    1.4876    1.8885    0.9107 H   0  0  0  0  0  0  0  0  0  0  0  0
    2.4598    0.0184   -1.1910 H   0  0  0  0  0  0  0  0  0  0  0  0
    1.3855   -0.8853    1.6708 H   0  0  0  0  0  0  0  0  0  0  0  0
    2.2353   -1.9123    0.3812 H   0  0  0  0  0  0  0  0  0  0  0  0
    0.4235   -1.4046   -1.3061 H   0  0  0  0  0  0  0  0  0  0  0  0
  1  2  1  0
  2  3  1  0
  2  4  1  0
  4  5  1  0
  5  6  1  0
  6  7  1  0
  7  8  1  0
  8  2  1  0
  8  6  1  0
  1  9  1  0
  1 10  1  0
  1 11  1  0
  3 12  1  0
  3 13  1  0
  3 14  1  0
  5 15  1  0
  5 16  1  0
  6 17  1  0
  7 18  1  0
  7 19  1  0
  8 20  1  0
M  END
