
     RDKit          3D

 19 19  0  0  0  0  0  0  0  0999 V2000
    1.5586   -0.6811   -0.4631 C   0  0  0  0  0  0  0  0  0  0  0  0
    0.4647    0.1858    0.1261 C   0  0  0  0  0  0  0  0  0  0  0  0
    1.0356    1.5281    0.5262 C   0  0  0  0  0  0  0  0  0  0  0  0
   -0.6695    0.4268   -0.8143 C   0  0  0  0  0  0  0  0  0  0  0  0
   -1.8460   -0.1878   -0.0404 C   0  0  0  0  0  0  0  0  0  0  0  0
   -1.0687   -1.2787    0.7102 C   0  0  0  0  0  0  0  0  0  0  0  0
   -0.0335   -0.4898    1.2353 O   0  0  0  0  0  0  0  0  0  0  0  0
    1.8791   -0.3231   -1.4467 H   0  0  0  0  0  0  0  0  0  0  0  0
    2.4144   -0.6411    0.2684 H   0  0  0  0  0  0  0  0  0  0  0  0
    1.2727   -1.7279   -0.5520 H   0  0  0  0  0  0  0  0  0  0  0  0
    0.6312    1.8649    1.5107 H   0  0  0  0  0  0  0  0  0  0  0  0
    2.1308    1.4205    0.5973 H   0  0  0  0  0  0  0  0  0  0  0  0
    0.8081    2.3250   -0.2224 H   0  0  0  0  0  0  0  0  0  0  0  0
   -0.5331   -0.1364   -1.7591 H   0  0  0  0  0  0  0  0  0  0  0  0
   -0.8638    1.4801   -1.0442 H   0  0  0  0  0  0  0  0  0  0  0  0
   -2.2120    0.5680    0.6813 H   0  0  0  0  0  0  0  0  0  0  0  0
   -2.6040   -0.5975   -0.7025 H   0  0  0  0  0  0  0  0  0  0  0  0
   -1.6664   -1.7701    1.4697 H   0  0  0  0  0  0  0  0  0  0  0  0
   -0.6983   -1.9658   -0.0806 H   0  0  0  0  0  0  0  0  0  0  0  0
  1  2  1  0
  2  3  1  0
  2  4  1  0
  4  5  1  0
  5  6  1  0
  6  7  1  0
  7  2  1  0
  1  8  1  0
  1  9  1  0
  1 10  1  0
  3 11  1  0
  3 12  1  0
  3 13  1  0
  4 14  1  0
  4 15  1  0
  5 16  1  0
  5 17  1  0
  6 18  1  0
  6 19  1  0
M  END
