
     RDKit          3D

 17 17  0  0  0  0  0  0  0  0999 V2000
   -1.2166   -0.7225   -1.1057 C   0  0  0  0  0  0  0  0  0  0  0  0
   -0.2649   -0.1606   -0.1132 C   0  0  0  0  0  0  0  0  0  0  0  0
   -0.9136    0.4890    1.1067 C   0  0  0  0  0  0  0  0  0  0  0  0
    0.7675    0.8202   -0.6856 C   0  0  0  0  0  0  0  0  0  0  0  0
    1.6494    0.2551    0.4362 C   0  0  0  0  0  0  0  0  0  0  0  0
    0.8888   -1.0004    0.2661 C   0  0  0  0  0  0  0  0  0  0  0  0
    1.1016   -2.1749    0.3811 O   0  0  0  0  0  0  0  0  0  0  0  0
   -1.4328   -1.7892   -0.8361 H   0  0  0  0  0  0  0  0  0  0  0  0
   -2.1985   -0.1943   -0.9763 H   0  0  0  0  0  0  0  0  0  0  0  0
   -0.8339   -0.6268   -2.1343 H   0  0  0  0  0  0  0  0  0  0  0  0
   -0.6391   -0.1376    1.9971 H   0  0  0  0  0  0  0  0  0  0  0  0
   -0.6242    1.5346    1.2353 H   0  0  0  0  0  0  0  0  0  0  0  0
   -2.0243    0.4197    1.0430 H   0  0  0  0  0  0  0  0  0  0  0  0
    1.1572    0.4595   -1.6452 H   0  0  0  0  0  0  0  0  0  0  0  0
    0.5108    1.8718   -0.5869 H   0  0  0  0  0  0  0  0  0  0  0  0
    1.3595    0.7315    1.4050 H   0  0  0  0  0  0  0  0  0  0  0  0
    2.7132    0.2250    0.2130 H   0  0  0  0  0  0  0  0  0  0  0  0
  1  2  1  0
  2  3  1  0
  2  4  1  0
  4  5  1  0
  5  6  1  0
  6  7  2  0
  6  2  1  0
  1  8  1  0
  1  9  1  0
  1 10  1  0
  3 11  1  0
  3 12  1  0
  3 13  1  0
  4 14  1  0
  4 15  1  0
  5 16  1  0
  5 17  1  0
M  END
