
     RDKit          3D

 21 22  0  0  0  0  0  0  0  0999 V2000
   -1.6781    1.3403    0.2855 C   0  0  0  0  0  0  0  0  0  0  0  0
   -0.9431    0.0638    0.1035 C   0  0  0  0  0  0  0  0  0  0  0  0
   -1.6344   -1.1038    0.3570 O   0  0  0  0  0  0  0  0  0  0  0  0
    0.3966    0.0999    0.8590 C   0  0  0  0  0  0  0  0  0  0  0  0
    0.8683   -1.2944    0.6215 C   0  0  0  0  0  0  0  0  0  0  0  0
    0.6112   -1.3863   -0.8968 C   0  0  0  0  0  0  0  0  0  0  0  0
   -0.0682   -0.0577   -1.0982 C   0  0  0  0  0  0  0  0  0  0  0  0
    0.9099    0.8594   -0.3461 C   0  0  0  0  0  0  0  0  0  0  0  0
    2.2338    0.6027   -0.6063 O   0  0  0  0  0  0  0  0  0  0  0  0
   -1.0704    2.1671    0.7148 H   0  0  0  0  0  0  0  0  0  0  0  0
   -2.1408    1.7003   -0.6672 H   0  0  0  0  0  0  0  0  0  0  0  0
   -2.5233    1.1904    0.9909 H   0  0  0  0  0  0  0  0  0  0  0  0
   -1.9493   -1.2003    1.2828 H   0  0  0  0  0  0  0  0  0  0  0  0
    0.4141    0.5465    1.8125 H   0  0  0  0  0  0  0  0  0  0  0  0
    0.1267   -1.9937    1.0805 H   0  0  0  0  0  0  0  0  0  0  0  0
    1.8991   -1.5000    0.8770 H   0  0  0  0  0  0  0  0  0  0  0  0
    1.5944   -1.3272   -1.3915 H   0  0  0  0  0  0  0  0  0  0  0  0
    0.0069   -2.2505   -1.1564 H   0  0  0  0  0  0  0  0  0  0  0  0
   -0.3903    0.2446   -2.0555 H   0  0  0  0  0  0  0  0  0  0  0  0
    0.5852    1.8922   -0.4454 H   0  0  0  0  0  0  0  0  0  0  0  0
    2.7518    1.4068   -0.3216 H   0  0  0  0  0  0  0  0  0  0  0  0
  1  2  1  0
  2  3  1  0
  2  4  1  0
  4  5  1  0
  5  6  1  0
  6  7  1  0
  7  8  1  0
  8  9  1  0
  7  2  1  0
  8  4  1  0
  1 10  1  0
  1 11  1  0
  1 12  1  0
  3 13  1  0
  4 14  1  0
  5 15  1  0
  5 16  1  0
  6 17  1  0
  6 18  1  0
  7 19  1  0
  8 20  1  0
  9 21  1  0
M  END
