
     RDKit          3D

 21 22  0  0  0  0  0  0  0  0999 V2000
   -1.4788    1.5418   -0.4770 C   0  0  0  0  0  0  0  0  0  0  0  0
   -1.1247    0.3305    0.3401 C   0  0  0  0  0  0  0  0  0  0  0  0
    0.1621    0.0429    0.6831 O   0  0  0  0  0  0  0  0  0  0  0  0
    1.0327   -0.1511   -0.3536 C   0  0  0  0  0  0  0  0  0  0  0  0
    2.0306   -1.2887   -0.1129 C   0  0  0  0  0  0  0  0  0  0  0  0
    2.4905    0.1194   -0.1137 C   0  0  0  0  0  0  0  0  0  0  0  0
    3.3140    0.4889   -1.1530 O   0  0  0  0  0  0  0  0  0  0  0  0
   -2.0251   -0.8551    0.1193 C   0  0  0  0  0  0  0  0  0  0  0  0
   -2.1755   -0.1100    1.4027 C   0  0  0  0  0  0  0  0  0  0  0  0
   -0.6741    2.2955   -0.5166 H   0  0  0  0  0  0  0  0  0  0  0  0
   -1.8326    1.2368   -1.4970 H   0  0  0  0  0  0  0  0  0  0  0  0
   -2.3504    2.0351    0.0026 H   0  0  0  0  0  0  0  0  0  0  0  0
    0.6894   -0.0739   -1.4159 H   0  0  0  0  0  0  0  0  0  0  0  0
    2.2450   -1.9707   -0.9521 H   0  0  0  0  0  0  0  0  0  0  0  0
    2.0330   -1.7872    0.8710 H   0  0  0  0  0  0  0  0  0  0  0  0
    2.7380    0.6079    0.8540 H   0  0  0  0  0  0  0  0  0  0  0  0
    4.2596    0.1734   -1.0238 H   0  0  0  0  0  0  0  0  0  0  0  0
   -2.8638   -0.7707   -0.6288 H   0  0  0  0  0  0  0  0  0  0  0  0
   -1.5986   -1.8789    0.1369 H   0  0  0  0  0  0  0  0  0  0  0  0
   -1.7955   -0.5002    2.3434 H   0  0  0  0  0  0  0  0  0  0  0  0
   -3.0757    0.5142    1.4914 H   0  0  0  0  0  0  0  0  0  0  0  0
  1  2  1  0
  2  3  1  0
  3  4  1  0
  4  5  1  0
  5  6  1  0
  6  7  1  0
  2  8  1  0
  8  9  1  0
  9  2  1  0
  6  4  1  0
  1 10  1  0
  1 11  1  0
  1 12  1  0
  4 13  1  0
  5 14  1  0
  5 15  1  0
  6 16  1  0
  7 17  1  0
  8 18  1  0
  8 19  1  0
  9 20  1  0
  9 21  1  0
M  END
