
     RDKit          3D

 19 20  0  0  0  0  0  0  0  0999 V2000
   -0.8073    1.6835    0.4384 C   0  0  0  0  0  0  0  0  0  0  0  0
   -0.2222    0.3504    0.0289 C   0  0  0  0  0  0  0  0  0  0  0  0
    1.2325    0.4776   -0.3768 C   0  0  0  0  0  0  0  0  0  0  0  0
    2.3040   -0.1899    0.3478 C   0  0  0  0  0  0  0  0  0  0  0  0
    1.8433   -0.5957   -1.0066 O   0  0  0  0  0  0  0  0  0  0  0  0
   -0.5142   -0.6626    0.9129 O   0  0  0  0  0  0  0  0  0  0  0  0
   -1.3610   -1.3562    0.0466 C   0  0  0  0  0  0  0  0  0  0  0  0
   -1.0456   -0.3512   -1.0366 C   0  0  0  0  0  0  0  0  0  0  0  0
   -0.2707   -0.8139   -2.0707 O   0  0  0  0  0  0  0  0  0  0  0  0
    0.0050    2.2675    0.9096 H   0  0  0  0  0  0  0  0  0  0  0  0
   -1.1767    2.1650   -0.4917 H   0  0  0  0  0  0  0  0  0  0  0  0
   -1.6473    1.5993    1.1366 H   0  0  0  0  0  0  0  0  0  0  0  0
    1.4671    1.4665   -0.8233 H   0  0  0  0  0  0  0  0  0  0  0  0
    2.1714   -1.0481    1.0053 H   0  0  0  0  0  0  0  0  0  0  0  0
    3.3167    0.2252    0.3157 H   0  0  0  0  0  0  0  0  0  0  0  0
   -0.9839   -2.3801   -0.1672 H   0  0  0  0  0  0  0  0  0  0  0  0
   -2.4354   -1.3004    0.3350 H   0  0  0  0  0  0  0  0  0  0  0  0
   -1.9081    0.2273   -1.4175 H   0  0  0  0  0  0  0  0  0  0  0  0
    0.0324   -1.7642   -1.9381 H   0  0  0  0  0  0  0  0  0  0  0  0
  1  2  1  0
  2  3  1  0
  3  4  1  0
  4  5  1  0
  2  6  1  0
  6  7  1  0
  7  8  1  0
  8  9  1  0
  8  2  1  0
  5  3  1  0
  1 10  1  0
  1 11  1  0
  1 12  1  0
  3 13  1  0
  4 14  1  0
  4 15  1  0
  7 16  1  0
  7 17  1  0
  8 18  1  0
  9 19  1  0
M  END
