
     RDKit          3D

 17 17  0  0  0  0  0  0  0  0999 V2000
   -1.2694   -0.5326   -0.9074 C   0  0  0  0  0  0  0  0  0  0  0  0
   -0.4218    0.1184    0.1487 C   0  0  0  0  0  0  0  0  0  0  0  0
   -1.2069    0.8373    1.1606 C   0  0  0  0  0  0  0  0  0  0  0  0
   -2.2687    1.3932    0.9507 O   0  0  0  0  0  0  0  0  0  0  0  0
    0.3595   -0.9542    0.8171 C   0  0  0  0  0  0  0  0  0  0  0  0
    1.5910   -0.9481    0.3403 C   0  0  0  0  0  0  0  0  0  0  0  0
    1.7420    0.1013   -0.6637 C   0  0  0  0  0  0  0  0  0  0  0  0
    2.6113    0.1884   -1.5385 O   0  0  0  0  0  0  0  0  0  0  0  0
    0.6198    1.0402   -0.4008 C   0  0  0  0  0  0  0  0  0  0  0  0
   -1.5298    0.1384   -1.7439 H   0  0  0  0  0  0  0  0  0  0  0  0
   -2.2109   -0.8958   -0.4128 H   0  0  0  0  0  0  0  0  0  0  0  0
   -0.7440   -1.4365   -1.2704 H   0  0  0  0  0  0  0  0  0  0  0  0
   -0.8203    0.8816    2.1722 H   0  0  0  0  0  0  0  0  0  0  0  0
   -0.0669   -1.6046    1.5667 H   0  0  0  0  0  0  0  0  0  0  0  0
    2.3566   -1.6583    0.6877 H   0  0  0  0  0  0  0  0  0  0  0  0
    0.9537    1.7361    0.3863 H   0  0  0  0  0  0  0  0  0  0  0  0
    0.3050    1.5952   -1.2929 H   0  0  0  0  0  0  0  0  0  0  0  0
  1  2  1  0
  2  3  1  0
  3  4  2  0
  2  5  1  0
  5  6  2  0
  6  7  1  0
  7  8  2  0
  7  9  1  0
  9  2  1  0
  1 10  1  0
  1 11  1  0
  1 12  1  0
  3 13  1  0
  5 14  1  0
  6 15  1  0
  9 16  1  0
  9 17  1  0
M  END
