
     RDKit          3D

 19 20  0  0  0  0  0  0  0  0999 V2000
   -1.6595   -0.3521    0.9825 C   0  0  0  0  0  0  0  0  0  0  0  0
   -0.7286   -0.0367   -0.1816 C   0  0  0  0  0  0  0  0  0  0  0  0
   -1.3883   -0.5168   -1.3430 O   0  0  0  0  0  0  0  0  0  0  0  0
   -0.4939    1.3970   -0.3310 C   0  0  0  0  0  0  0  0  0  0  0  0
    0.7822    1.6066   -0.5721 C   0  0  0  0  0  0  0  0  0  0  0  0
    1.5538    0.3516   -0.6126 C   0  0  0  0  0  0  0  0  0  0  0  0
    1.7244   -0.2904    0.7235 C   0  0  0  0  0  0  0  0  0  0  0  0
    0.5691   -0.7151   -0.0942 C   0  0  0  0  0  0  0  0  0  0  0  0
    0.6451   -1.9557   -0.7387 O   0  0  0  0  0  0  0  0  0  0  0  0
   -1.3856   -1.2722    1.5100 H   0  0  0  0  0  0  0  0  0  0  0  0
   -2.7027   -0.4643    0.6221 H   0  0  0  0  0  0  0  0  0  0  0  0
   -1.5702    0.5345    1.6760 H   0  0  0  0  0  0  0  0  0  0  0  0
   -1.9484    0.2392   -1.6536 H   0  0  0  0  0  0  0  0  0  0  0  0
   -1.2858    2.1846   -0.2501 H   0  0  0  0  0  0  0  0  0  0  0  0
    1.2158    2.5840   -0.7231 H   0  0  0  0  0  0  0  0  0  0  0  0
    2.1741    0.0843   -1.4702 H   0  0  0  0  0  0  0  0  0  0  0  0
    2.5041   -1.0664    0.8708 H   0  0  0  0  0  0  0  0  0  0  0  0
    1.5843    0.3336    1.6436 H   0  0  0  0  0  0  0  0  0  0  0  0
    0.4103   -2.6456   -0.0581 H   0  0  0  0  0  0  0  0  0  0  0  0
  1  2  1  0
  2  3  1  0
  2  4  1  0
  4  5  2  0
  5  6  1  0
  6  7  1  0
  7  8  1  0
  8  9  1  0
  8  2  1  0
  8  6  1  0
  1 10  1  0
  1 11  1  0
  1 12  1  0
  3 13  1  0
  4 14  1  0
  5 15  1  0
  6 16  1  0
  7 17  1  0
  7 18  1  0
  9 19  1  0
M  END
