
     RDKit          3D

 23 24  0  0  0  0  0  0  0  0999 V2000
   -2.4234   -0.7875    0.0637 C   0  0  0  0  0  0  0  0  0  0  0  0
   -1.1562   -0.0159   -0.0098 C   0  0  0  0  0  0  0  0  0  0  0  0
   -1.2619    1.4814    0.1467 C   0  0  0  0  0  0  0  0  0  0  0  0
   -0.0330   -0.5220    0.9106 C   0  0  0  0  0  0  0  0  0  0  0  0
    0.8743   -0.0920   -0.2123 C   0  0  0  0  0  0  0  0  0  0  0  0
    2.1915   -0.6983   -0.3233 C   0  0  0  0  0  0  0  0  0  0  0  0
    2.5699    0.6848    0.2272 C   0  0  0  0  0  0  0  0  0  0  0  0
    1.3203    1.1952   -0.1981 O   0  0  0  0  0  0  0  0  0  0  0  0
   -0.2196   -0.4368   -1.1553 C   0  0  0  0  0  0  0  0  0  0  0  0
   -2.8835   -0.8265   -0.9430 H   0  0  0  0  0  0  0  0  0  0  0  0
   -2.2430   -1.7657    0.5104 H   0  0  0  0  0  0  0  0  0  0  0  0
   -3.1287   -0.2448    0.7185 H   0  0  0  0  0  0  0  0  0  0  0  0
   -2.3217    1.7050    0.4159 H   0  0  0  0  0  0  0  0  0  0  0  0
   -0.6413    1.8805    0.9618 H   0  0  0  0  0  0  0  0  0  0  0  0
   -1.0043    1.9481   -0.8395 H   0  0  0  0  0  0  0  0  0  0  0  0
   -0.1054   -1.6327    0.9517 H   0  0  0  0  0  0  0  0  0  0  0  0
    0.0543    0.0083    1.8534 H   0  0  0  0  0  0  0  0  0  0  0  0
    2.4189   -1.4590    0.4483 H   0  0  0  0  0  0  0  0  0  0  0  0
    2.6434   -0.8893   -1.2914 H   0  0  0  0  0  0  0  0  0  0  0  0
    3.4326    1.1486   -0.2442 H   0  0  0  0  0  0  0  0  0  0  0  0
    2.5733    0.7253    1.3424 H   0  0  0  0  0  0  0  0  0  0  0  0
   -0.3324    0.1463   -2.0680 H   0  0  0  0  0  0  0  0  0  0  0  0
   -0.3243   -1.5529   -1.2657 H   0  0  0  0  0  0  0  0  0  0  0  0
  1  2  1  0
  2  3  1  0
  2  4  1  0
  4  5  1  0
  5  6  1  0
  6  7  1  0
  7  8  1  0
  5  9  1  0
  9  2  1  0
  8  5  1  0
  1 10  1  0
  1 11  1  0
  1 12  1  0
  3 13  1  0
  3 14  1  0
  3 15  1  0
  4 16  1  0
  4 17  1  0
  6 18  1  0
  6 19  1  0
  7 20  1  0
  7 21  1  0
  9 22  1  0
  9 23  1  0
M  END
