
     RDKit          3D

 21 21  0  0  0  0  0  0  0  0999 V2000
   -1.4785    0.9733   -1.0021 C   0  0  0  0  0  0  0  0  0  0  0  0
   -0.7969    0.0189   -0.0461 C   0  0  0  0  0  0  0  0  0  0  0  0
   -1.7640   -0.7016    0.8430 C   0  0  0  0  0  0  0  0  0  0  0  0
   -0.0359   -0.9698   -0.8442 C   0  0  0  0  0  0  0  0  0  0  0  0
    1.2864   -0.9792   -0.9297 C   0  0  0  0  0  0  0  0  0  0  0  0
    2.1772   -0.0247   -0.2555 C   0  0  0  0  0  0  0  0  0  0  0  0
    1.4866    0.4033    1.0335 C   0  0  0  0  0  0  0  0  0  0  0  0
    0.1006    0.8316    0.8181 C   0  0  0  0  0  0  0  0  0  0  0  0
   -0.3372    1.8485    1.3362 O   0  0  0  0  0  0  0  0  0  0  0  0
   -2.4733    1.1964   -0.6174 H   0  0  0  0  0  0  0  0  0  0  0  0
   -1.4929    0.5814   -2.0424 H   0  0  0  0  0  0  0  0  0  0  0  0
   -0.9143    1.9413   -1.0642 H   0  0  0  0  0  0  0  0  0  0  0  0
   -1.2444   -1.6241    1.2273 H   0  0  0  0  0  0  0  0  0  0  0  0
   -2.6968   -0.9881    0.3440 H   0  0  0  0  0  0  0  0  0  0  0  0
   -2.0433   -0.0763    1.7230 H   0  0  0  0  0  0  0  0  0  0  0  0
   -0.5904   -1.7192   -1.3820 H   0  0  0  0  0  0  0  0  0  0  0  0
    1.7244   -1.7543   -1.5460 H   0  0  0  0  0  0  0  0  0  0  0  0
    2.4175    0.8582   -0.8873 H   0  0  0  0  0  0  0  0  0  0  0  0
    3.1459   -0.4657    0.0583 H   0  0  0  0  0  0  0  0  0  0  0  0
    2.0706    1.1642    1.5591 H   0  0  0  0  0  0  0  0  0  0  0  0
    1.4587   -0.5141    1.6745 H   0  0  0  0  0  0  0  0  0  0  0  0
  1  2  1  0
  2  3  1  0
  2  4  1  0
  4  5  2  0
  5  6  1  0
  6  7  1  0
  7  8  1  0
  8  9  2  0
  8  2  1  0
  1 10  1  0
  1 11  1  0
  1 12  1  0
  3 13  1  0
  3 14  1  0
  3 15  1  0
  4 16  1  0
  5 17  1  0
  6 18  1  0
  6 19  1  0
  7 20  1  0
  7 21  1  0
M  END
