
     RDKit          3D

 17 17  0  0  0  0  0  0  0  0999 V2000
   -0.9207   -1.3758   -0.6086 C   0  0  0  0  0  0  0  0  0  0  0  0
   -0.8003    0.0126   -0.0137 C   0  0  0  0  0  0  0  0  0  0  0  0
   -2.0857    0.8087   -0.0971 C   0  0  0  0  0  0  0  0  0  0  0  0
   -0.3738    0.0233    1.3972 O   0  0  0  0  0  0  0  0  0  0  0  0
    0.4382    0.5648    0.2464 C   0  0  0  0  0  0  0  0  0  0  0  0
    1.6720   -0.2304    0.1795 C   0  0  0  0  0  0  0  0  0  0  0  0
    1.6977   -1.4828    0.0771 O   0  0  0  0  0  0  0  0  0  0  0  0
    2.9555    0.4414    0.2325 C   0  0  0  0  0  0  0  0  0  0  0  0
    2.9790    1.6975    0.3351 O   0  0  0  0  0  0  0  0  0  0  0  0
   -0.2366   -1.4209   -1.5030 H   0  0  0  0  0  0  0  0  0  0  0  0
   -0.6053   -2.1546    0.1087 H   0  0  0  0  0  0  0  0  0  0  0  0
   -1.9314   -1.5890   -1.0014 H   0  0  0  0  0  0  0  0  0  0  0  0
   -2.8242    0.4323    0.6675 H   0  0  0  0  0  0  0  0  0  0  0  0
   -2.5289    0.8153   -1.0997 H   0  0  0  0  0  0  0  0  0  0  0  0
   -1.9261    1.8850    0.1914 H   0  0  0  0  0  0  0  0  0  0  0  0
    0.5861    1.6467    0.3347 H   0  0  0  0  0  0  0  0  0  0  0  0
    3.9045   -0.0740    0.1889 H   0  0  0  0  0  0  0  0  0  0  0  0
  1  2  1  0
  2  3  1  0
  2  4  1  0
  4  5  1  0
  5  6  1  0
  6  7  2  0
  6  8  1  0
  8  9  2  0
  5  2  1  0
  1 10  1  0
  1 11  1  0
  1 12  1  0
  3 13  1  0
  3 14  1  0
  3 15  1  0
  5 16  1  0
  8 17  1  0
M  END
