
     RDKit          3D

 19 20  0  0  0  0  0  0  0  0999 V2000
   -2.0916   -0.0270   -0.5948 C   0  0  0  0  0  0  0  0  0  0  0  0
   -0.9163    0.0617    0.3124 C   0  0  0  0  0  0  0  0  0  0  0  0
   -1.2695    0.0640    1.6606 O   0  0  0  0  0  0  0  0  0  0  0  0
    0.0656    1.1678    0.0302 C   0  0  0  0  0  0  0  0  0  0  0  0
    1.2321    0.2541    0.1229 C   0  0  0  0  0  0  0  0  0  0  0  0
    2.2746    0.3520   -0.9330 C   0  0  0  0  0  0  0  0  0  0  0  0
    2.5241   -0.5162   -1.7167 O   0  0  0  0  0  0  0  0  0  0  0  0
    1.2846   -0.9234    1.0015 C   0  0  0  0  0  0  0  0  0  0  0  0
    0.2225   -0.9093   -0.0033 C   0  0  0  0  0  0  0  0  0  0  0  0
   -2.3655    0.9206   -1.0857 H   0  0  0  0  0  0  0  0  0  0  0  0
   -2.9897   -0.3487    0.0029 H   0  0  0  0  0  0  0  0  0  0  0  0
   -1.9520   -0.8381   -1.3515 H   0  0  0  0  0  0  0  0  0  0  0  0
   -2.1756   -0.2796    1.8284 H   0  0  0  0  0  0  0  0  0  0  0  0
    0.0263    2.0222    0.7290 H   0  0  0  0  0  0  0  0  0  0  0  0
   -0.0176    1.5851   -1.0160 H   0  0  0  0  0  0  0  0  0  0  0  0
    2.8340    1.2784   -0.9790 H   0  0  0  0  0  0  0  0  0  0  0  0
    0.9382   -0.8522    2.0717 H   0  0  0  0  0  0  0  0  0  0  0  0
    2.1277   -1.6049    0.8839 H   0  0  0  0  0  0  0  0  0  0  0  0
    0.2481   -1.4064   -0.9635 H   0  0  0  0  0  0  0  0  0  0  0  0
  1  2  1  0
  2  3  1  0
  2  4  1  0
  4  5  1  0
  5  6  1  0
  6  7  2  0
  5  8  1  0
  8  9  1  0
  9  2  1  0
  9  5  1  0
  1 10  1  0
  1 11  1  0
  1 12  1  0
  3 13  1  0
  4 14  1  0
  4 15  1  0
  6 16  1  0
  8 17  1  0
  8 18  1  0
  9 19  1  0
M  END
