
     RDKit          3D

 23 24  0  0  0  0  0  0  0  0999 V2000
   -1.4782    0.2622    0.9188 C   0  0  0  0  0  0  0  0  0  0  0  0
   -0.7136   -0.1121   -0.2669 C   0  0  0  0  0  0  0  0  0  0  0  0
   -1.4150    0.2747   -1.5608 C   0  0  0  0  0  0  0  0  0  0  0  0
    0.7599    0.2844   -0.3344 C   0  0  0  0  0  0  0  0  0  0  0  0
    1.0859    1.6494    0.1326 C   0  0  0  0  0  0  0  0  0  0  0  0
    2.4618    1.8358    0.0002 O   0  0  0  0  0  0  0  0  0  0  0  0
    0.8741   -0.7810    0.7263 C   0  0  0  0  0  0  0  0  0  0  0  0
    0.6509   -2.1919    0.6453 C   0  0  0  0  0  0  0  0  0  0  0  0
   -0.0805   -1.4787   -0.3339 C   0  0  0  0  0  0  0  0  0  0  0  0
   -1.6782   -0.5940    1.6290 H   0  0  0  0  0  0  0  0  0  0  0  0
   -1.0939    1.0816    1.5407 H   0  0  0  0  0  0  0  0  0  0  0  0
   -2.5222    0.5890    0.6276 H   0  0  0  0  0  0  0  0  0  0  0  0
   -1.3864    1.3815   -1.6049 H   0  0  0  0  0  0  0  0  0  0  0  0
   -2.4680   -0.0432   -1.5538 H   0  0  0  0  0  0  0  0  0  0  0  0
   -0.8818   -0.1079   -2.4398 H   0  0  0  0  0  0  0  0  0  0  0  0
    1.1805    0.0392   -1.3109 H   0  0  0  0  0  0  0  0  0  0  0  0
    0.6004    2.4430   -0.5010 H   0  0  0  0  0  0  0  0  0  0  0  0
    0.8240    1.8805    1.1635 H   0  0  0  0  0  0  0  0  0  0  0  0
    2.9336    1.0908    0.4653 H   0  0  0  0  0  0  0  0  0  0  0  0
    0.3411   -0.3560    1.6345 H   0  0  0  0  0  0  0  0  0  0  0  0
    1.5705   -2.8064    0.3990 H   0  0  0  0  0  0  0  0  0  0  0  0
    0.0389   -2.7872    1.3908 H   0  0  0  0  0  0  0  0  0  0  0  0
    0.3962   -1.5539   -1.3671 H   0  0  0  0  0  0  0  0  0  0  0  0
  1  2  1  0
  2  3  1  0
  2  4  1  0
  4  5  1  0
  5  6  1  0
  4  7  1  0
  7  8  1  0
  8  9  1  0
  9  2  1  0
  9  7  1  0
  1 10  1  0
  1 11  1  0
  1 12  1  0
  3 13  1  0
  3 14  1  0
  3 15  1  0
  4 16  1  0
  5 17  1  0
  5 18  1  0
  6 19  1  0
  7 20  1  0
  8 21  1  0
  8 22  1  0
  9 23  1  0
M  END
