
     RDKit          3D

 21 22  0  0  0  0  0  0  0  0999 V2000
   -2.5294   -0.6398    0.3360 C   0  0  0  0  0  0  0  0  0  0  0  0
   -1.4044    0.3506    0.0028 C   0  0  0  0  0  0  0  0  0  0  0  0
   -1.9553    1.5573   -0.4771 O   0  0  0  0  0  0  0  0  0  0  0  0
   -0.2549   -0.1529   -0.6432 C   0  0  0  0  0  0  0  0  0  0  0  0
    0.9335    0.4838   -1.2377 C   0  0  0  0  0  0  0  0  0  0  0  0
    2.0617    0.0911   -0.2768 C   0  0  0  0  0  0  0  0  0  0  0  0
    1.6263   -0.8629    0.7857 C   0  0  0  0  0  0  0  0  0  0  0  0
    0.4849   -0.5053    1.4839 O   0  0  0  0  0  0  0  0  0  0  0  0
   -0.2330    0.4312    0.8013 C   0  0  0  0  0  0  0  0  0  0  0  0
   -2.6744   -1.2558   -0.5812 H   0  0  0  0  0  0  0  0  0  0  0  0
   -3.4669   -0.1413    0.5712 H   0  0  0  0  0  0  0  0  0  0  0  0
   -2.1966   -1.3498    1.1292 H   0  0  0  0  0  0  0  0  0  0  0  0
   -1.7233    2.3009    0.1584 H   0  0  0  0  0  0  0  0  0  0  0  0
   -0.1763   -1.2785   -0.7366 H   0  0  0  0  0  0  0  0  0  0  0  0
    1.1460    0.2241   -2.2730 H   0  0  0  0  0  0  0  0  0  0  0  0
    0.8266    1.5993   -1.1360 H   0  0  0  0  0  0  0  0  0  0  0  0
    2.5900    0.9695    0.1202 H   0  0  0  0  0  0  0  0  0  0  0  0
    2.8035   -0.4545   -0.9090 H   0  0  0  0  0  0  0  0  0  0  0  0
    2.4486   -0.9237    1.5287 H   0  0  0  0  0  0  0  0  0  0  0  0
    1.4776   -1.8939    0.4064 H   0  0  0  0  0  0  0  0  0  0  0  0
    0.2159    1.4508    0.9469 H   0  0  0  0  0  0  0  0  0  0  0  0
  1  2  1  0
  2  3  1  0
  2  4  1  0
  4  5  1  0
  5  6  1  0
  6  7  1  0
  7  8  1  0
  8  9  1  0
  9  2  1  0
  9  4  1  0
  1 10  1  0
  1 11  1  0
  1 12  1  0
  3 13  1  0
  4 14  1  0
  5 15  1  0
  5 16  1  0
  6 17  1  0
  6 18  1  0
  7 19  1  0
  7 20  1  0
  9 21  1  0
M  END
