
     RDKit          3D

 20 20  0  0  0  0  0  0  0  0999 V2000
    1.7406   -0.9542   -0.0859 C   0  0  0  0  0  0  0  0  0  0  0  0
    0.7769    0.0615    0.4331 C   0  0  0  0  0  0  0  0  0  0  0  0
    0.7543    0.2615    1.7930 O   0  0  0  0  0  0  0  0  0  0  0  0
    0.9371    1.3674   -0.3498 C   0  0  0  0  0  0  0  0  0  0  0  0
    0.0557    0.8374   -1.2883 O   0  0  0  0  0  0  0  0  0  0  0  0
   -0.5253    0.0870   -0.2896 C   0  0  0  0  0  0  0  0  0  0  0  0
   -1.6448    0.8460    0.3638 C   0  0  0  0  0  0  0  0  0  0  0  0
   -0.9979   -1.2940   -0.6895 C   0  0  0  0  0  0  0  0  0  0  0  0
    1.7600   -1.8460    0.5542 H   0  0  0  0  0  0  0  0  0  0  0  0
    1.4419   -1.2852   -1.0975 H   0  0  0  0  0  0  0  0  0  0  0  0
    2.7482   -0.4451   -0.1402 H   0  0  0  0  0  0  0  0  0  0  0  0
   -0.1412    0.5445    2.0690 H   0  0  0  0  0  0  0  0  0  0  0  0
    1.9610    1.5149   -0.7359 H   0  0  0  0  0  0  0  0  0  0  0  0
    0.5636    2.1926    0.2632 H   0  0  0  0  0  0  0  0  0  0  0  0
   -2.5203    0.7866   -0.3492 H   0  0  0  0  0  0  0  0  0  0  0  0
   -2.0182    0.3436    1.2912 H   0  0  0  0  0  0  0  0  0  0  0  0
   -1.4456    1.9135    0.4988 H   0  0  0  0  0  0  0  0  0  0  0  0
   -0.5723   -1.6488   -1.6304 H   0  0  0  0  0  0  0  0  0  0  0  0
   -2.1173   -1.3153   -0.7778 H   0  0  0  0  0  0  0  0  0  0  0  0
   -0.7564   -1.9679    0.1680 H   0  0  0  0  0  0  0  0  0  0  0  0
  1  2  1  0
  2  3  1  0
  2  4  1  0
  4  5  1  0
  5  6  1  0
  6  7  1  0
  6  8  1  0
  6  2  1  0
  1  9  1  0
  1 10  1  0
  1 11  1  0
  3 12  1  0
  4 13  1  0
  4 14  1  0
  7 15  1  0
  7 16  1  0
  7 17  1  0
  8 18  1  0
  8 19  1  0
  8 20  1  0
M  END
