
     RDKit          3D

 19 19  0  0  0  0  0  0  0  0999 V2000
   -2.5429    0.2746   -0.6306 C   0  0  0  0  0  0  0  0  0  0  0  0
   -1.4108    0.1296    0.3757 C   0  0  0  0  0  0  0  0  0  0  0  0
   -1.3909    1.1292    1.3526 O   0  0  0  0  0  0  0  0  0  0  0  0
   -0.9975   -1.2495    0.6786 C   0  0  0  0  0  0  0  0  0  0  0  0
   -0.0878   -0.3413   -0.0969 C   0  0  0  0  0  0  0  0  0  0  0  0
    1.0771   -0.0019    0.5427 O   0  0  0  0  0  0  0  0  0  0  0  0
    2.1235    0.0314   -0.3758 C   0  0  0  0  0  0  0  0  0  0  0  0
    3.3807    0.4012    0.3335 C   0  0  0  0  0  0  0  0  0  0  0  0
    3.4292    0.6281    1.5318 O   0  0  0  0  0  0  0  0  0  0  0  0
   -2.3247   -0.3747   -1.5129 H   0  0  0  0  0  0  0  0  0  0  0  0
   -2.5845    1.3422   -0.9527 H   0  0  0  0  0  0  0  0  0  0  0  0
   -3.4721   -0.0798   -0.1648 H   0  0  0  0  0  0  0  0  0  0  0  0
   -1.4103    1.9955    0.8326 H   0  0  0  0  0  0  0  0  0  0  0  0
   -1.4463   -2.0817    0.1272 H   0  0  0  0  0  0  0  0  0  0  0  0
   -0.7794   -1.4644    1.7475 H   0  0  0  0  0  0  0  0  0  0  0  0
   -0.0222   -0.5274   -1.1891 H   0  0  0  0  0  0  0  0  0  0  0  0
    2.2565   -1.0075   -0.7957 H   0  0  0  0  0  0  0  0  0  0  0  0
    1.8933    0.7179   -1.2148 H   0  0  0  0  0  0  0  0  0  0  0  0
    4.3092    0.4785   -0.2202 H   0  0  0  0  0  0  0  0  0  0  0  0
  1  2  1  0
  2  3  1  0
  2  4  1  0
  4  5  1  0
  5  6  1  0
  6  7  1  0
  7  8  1  0
  8  9  2  0
  5  2  1  0
  1 10  1  0
  1 11  1  0
  1 12  1  0
  3 13  1  0
  4 14  1  0
  4 15  1  0
  5 16  1  0
  7 17  1  0
  7 18  1  0
  8 19  1  0
M  END
