
     RDKit          3D

 18 18  0  0  0  0  0  0  0  0999 V2000
   -2.1258   -0.4145   -0.0944 C   0  0  0  0  0  0  0  0  0  0  0  0
   -0.7237    0.1925   -0.0369 C   0  0  0  0  0  0  0  0  0  0  0  0
    0.3519   -0.7665   -0.4462 C   0  0  0  0  0  0  0  0  0  0  0  0
   -0.0636   -1.3937   -1.6186 O   0  0  0  0  0  0  0  0  0  0  0  0
    1.7024   -0.1381   -0.5883 C   0  0  0  0  0  0  0  0  0  0  0  0
    2.0325    0.4582    0.6182 O   0  0  0  0  0  0  0  0  0  0  0  0
   -0.6204    1.6162   -0.0652 C   0  0  0  0  0  0  0  0  0  0  0  0
   -0.4335    0.9238    1.1729 O   0  0  0  0  0  0  0  0  0  0  0  0
   -2.2832   -0.6982   -1.1546 H   0  0  0  0  0  0  0  0  0  0  0  0
   -2.1009   -1.3365    0.5506 H   0  0  0  0  0  0  0  0  0  0  0  0
   -2.8914    0.2808    0.2639 H   0  0  0  0  0  0  0  0  0  0  0  0
    0.4357   -1.5302    0.3761 H   0  0  0  0  0  0  0  0  0  0  0  0
    0.7560   -1.7000   -2.0824 H   0  0  0  0  0  0  0  0  0  0  0  0
    1.7576    0.5677   -1.4437 H   0  0  0  0  0  0  0  0  0  0  0  0
    2.4331   -0.9425   -0.7776 H   0  0  0  0  0  0  0  0  0  0  0  0
    3.0389    0.4638    0.6561 H   0  0  0  0  0  0  0  0  0  0  0  0
    0.2805    2.1915   -0.3655 H   0  0  0  0  0  0  0  0  0  0  0  0
   -1.5460    2.2258   -0.1322 H   0  0  0  0  0  0  0  0  0  0  0  0
  1  2  1  0
  2  3  1  0
  3  4  1  0
  3  5  1  0
  5  6  1  0
  2  7  1  0
  7  8  1  0
  8  2  1  0
  1  9  1  0
  1 10  1  0
  1 11  1  0
  3 12  1  0
  4 13  1  0
  5 14  1  0
  5 15  1  0
  6 16  1  0
  7 17  1  0
  7 18  1  0
M  END
