
     RDKit          3D

 21 22  0  0  0  0  0  0  0  0999 V2000
   -1.3982   -1.3010   -0.5038 C   0  0  0  0  0  0  0  0  0  0  0  0
   -1.2132    0.0722    0.0952 C   0  0  0  0  0  0  0  0  0  0  0  0
    0.0425    0.6302    0.0253 O   0  0  0  0  0  0  0  0  0  0  0  0
    1.0147   -0.1524    0.6829 C   0  0  0  0  0  0  0  0  0  0  0  0
    2.3243    0.5864    0.5183 C   0  0  0  0  0  0  0  0  0  0  0  0
    3.4275   -0.0433   -0.2291 C   0  0  0  0  0  0  0  0  0  0  0  0
    3.4093   -0.1487    1.1718 O   0  0  0  0  0  0  0  0  0  0  0  0
   -2.1907    0.4746    1.1326 C   0  0  0  0  0  0  0  0  0  0  0  0
   -2.3344    1.0421   -0.2578 C   0  0  0  0  0  0  0  0  0  0  0  0
   -1.2214   -1.2250   -1.5958 H   0  0  0  0  0  0  0  0  0  0  0  0
   -0.7692   -2.0719   -0.0642 H   0  0  0  0  0  0  0  0  0  0  0  0
   -2.4934   -1.5578   -0.4067 H   0  0  0  0  0  0  0  0  0  0  0  0
    1.0241   -1.1433    0.2232 H   0  0  0  0  0  0  0  0  0  0  0  0
    0.7662   -0.2495    1.7581 H   0  0  0  0  0  0  0  0  0  0  0  0
    2.3561    1.6708    0.6298 H   0  0  0  0  0  0  0  0  0  0  0  0
    3.1636   -0.9314   -0.8279 H   0  0  0  0  0  0  0  0  0  0  0  0
    4.2452    0.6111   -0.5950 H   0  0  0  0  0  0  0  0  0  0  0  0
   -2.9181   -0.2924    1.4735 H   0  0  0  0  0  0  0  0  0  0  0  0
   -1.9521    1.2506    1.8941 H   0  0  0  0  0  0  0  0  0  0  0  0
   -3.2057    0.6729   -0.8062 H   0  0  0  0  0  0  0  0  0  0  0  0
   -2.0770    2.1058   -0.4376 H   0  0  0  0  0  0  0  0  0  0  0  0
  1  2  1  0
  2  3  1  0
  3  4  1  0
  4  5  1  0
  5  6  1  0
  6  7  1  0
  2  8  1  0
  8  9  1  0
  9  2  1  0
  7  5  1  0
  1 10  1  0
  1 11  1  0
  1 12  1  0
  4 13  1  0
  4 14  1  0
  5 15  1  0
  6 16  1  0
  6 17  1  0
  8 18  1  0
  8 19  1  0
  9 20  1  0
  9 21  1  0
M  END
