
     RDKit          3D

 21 22  0  0  0  0  0  0  0  0999 V2000
   -1.9208   -1.1130    0.6510 C   0  0  0  0  0  0  0  0  0  0  0  0
   -1.1345   -0.1699   -0.2435 C   0  0  0  0  0  0  0  0  0  0  0  0
   -1.9035    0.9915   -0.8523 C   0  0  0  0  0  0  0  0  0  0  0  0
   -0.2417   -0.8619   -1.0802 O   0  0  0  0  0  0  0  0  0  0  0  0
    0.2502   -0.0706   -0.0703 C   0  0  0  0  0  0  0  0  0  0  0  0
    1.0825   -0.6679    1.0375 C   0  0  0  0  0  0  0  0  0  0  0  0
    2.4501   -0.5499    0.4552 C   0  0  0  0  0  0  0  0  0  0  0  0
    2.4768    0.4302   -0.4425 C   0  0  0  0  0  0  0  0  0  0  0  0
    1.1315    1.0632   -0.5482 C   0  0  0  0  0  0  0  0  0  0  0  0
   -2.6488   -0.5806    1.2819 H   0  0  0  0  0  0  0  0  0  0  0  0
   -1.2317   -1.7662    1.2032 H   0  0  0  0  0  0  0  0  0  0  0  0
   -2.5175   -1.8018   -0.0166 H   0  0  0  0  0  0  0  0  0  0  0  0
   -1.1704    1.6925   -1.2790 H   0  0  0  0  0  0  0  0  0  0  0  0
   -2.6907    0.6664   -1.5352 H   0  0  0  0  0  0  0  0  0  0  0  0
   -2.3786    1.5212    0.0214 H   0  0  0  0  0  0  0  0  0  0  0  0
    0.8124   -1.6837    1.3049 H   0  0  0  0  0  0  0  0  0  0  0  0
    1.0461    0.0567    1.8893 H   0  0  0  0  0  0  0  0  0  0  0  0
    3.3025   -1.1637    0.7151 H   0  0  0  0  0  0  0  0  0  0  0  0
    3.3467    0.7128   -1.0011 H   0  0  0  0  0  0  0  0  0  0  0  0
    0.9092    1.3498   -1.6002 H   0  0  0  0  0  0  0  0  0  0  0  0
    1.0303    1.9451    0.1097 H   0  0  0  0  0  0  0  0  0  0  0  0
  1  2  1  0
  2  3  1  0
  2  4  1  0
  4  5  1  0
  5  6  1  0
  6  7  1  0
  7  8  2  0
  8  9  1  0
  5  2  1  0
  9  5  1  0
  1 10  1  0
  1 11  1  0
  1 12  1  0
  3 13  1  0
  3 14  1  0
  3 15  1  0
  6 16  1  0
  6 17  1  0
  7 18  1  0
  8 19  1  0
  9 20  1  0
  9 21  1  0
M  END
