
     RDKit          3D

 21 21  0  0  0  0  0  0  0  0999 V2000
    1.9196    1.0010    0.0412 C   0  0  0  0  0  0  0  0  0  0  0  0
    1.0171   -0.2122   -0.0770 C   0  0  0  0  0  0  0  0  0  0  0  0
    1.2586   -1.3792    0.8277 C   0  0  0  0  0  0  0  0  0  0  0  0
    0.5598   -0.4266   -1.3833 O   0  0  0  0  0  0  0  0  0  0  0  0
   -0.3796    0.0314   -0.4676 C   0  0  0  0  0  0  0  0  0  0  0  0
   -0.8282    1.4694   -0.5108 C   0  0  0  0  0  0  0  0  0  0  0  0
   -1.7643    1.6372    0.5154 O   0  0  0  0  0  0  0  0  0  0  0  0
   -1.4718   -0.9822   -0.1778 C   0  0  0  0  0  0  0  0  0  0  0  0
   -2.1051   -1.2438   -1.3918 O   0  0  0  0  0  0  0  0  0  0  0  0
    1.6761    1.6123    0.9508 H   0  0  0  0  0  0  0  0  0  0  0  0
    2.9867    0.6707    0.2076 H   0  0  0  0  0  0  0  0  0  0  0  0
    1.9330    1.6051   -0.8767 H   0  0  0  0  0  0  0  0  0  0  0  0
    1.3583   -2.3490    0.2885 H   0  0  0  0  0  0  0  0  0  0  0  0
    2.1835   -1.1493    1.4189 H   0  0  0  0  0  0  0  0  0  0  0  0
    0.4540   -1.4985    1.5852 H   0  0  0  0  0  0  0  0  0  0  0  0
    0.0014    2.1812   -0.2873 H   0  0  0  0  0  0  0  0  0  0  0  0
   -1.2292    1.7718   -1.5003 H   0  0  0  0  0  0  0  0  0  0  0  0
   -1.3485    1.2231    1.3217 H   0  0  0  0  0  0  0  0  0  0  0  0
   -2.1563   -0.4898    0.5569 H   0  0  0  0  0  0  0  0  0  0  0  0
   -1.0393   -1.9226    0.2618 H   0  0  0  0  0  0  0  0  0  0  0  0
   -3.0257   -1.5500   -1.3032 H   0  0  0  0  0  0  0  0  0  0  0  0
  1  2  1  0
  2  3  1  0
  2  4  1  0
  4  5  1  0
  5  6  1  0
  6  7  1  0
  5  8  1  0
  8  9  1  0
  5  2  1  0
  1 10  1  0
  1 11  1  0
  1 12  1  0
  3 13  1  0
  3 14  1  0
  3 15  1  0
  6 16  1  0
  6 17  1  0
  7 18  1  0
  8 19  1  0
  8 20  1  0
  9 21  1  0
M  END
