
     RDKit          3D

 17 17  0  0  0  0  0  0  0  0999 V2000
    1.6365    0.8307   -0.3836 C   0  0  0  0  0  0  0  0  0  0  0  0
    0.6838    0.1421    0.5642 C   0  0  0  0  0  0  0  0  0  0  0  0
    1.1616   -1.1938    1.0480 C   0  0  0  0  0  0  0  0  0  0  0  0
    1.4366   -1.4229    2.1820 O   0  0  0  0  0  0  0  0  0  0  0  0
   -0.2663    0.7675    1.2047 O   0  0  0  0  0  0  0  0  0  0  0  0
   -0.7191    0.1828    0.0085 C   0  0  0  0  0  0  0  0  0  0  0  0
   -1.5872   -0.9701    0.1206 C   0  0  0  0  0  0  0  0  0  0  0  0
   -1.1727    1.2821   -0.8952 C   0  0  0  0  0  0  0  0  0  0  0  0
   -0.4466    1.7875   -1.6945 O   0  0  0  0  0  0  0  0  0  0  0  0
    1.5058    0.5841   -1.4535 H   0  0  0  0  0  0  0  0  0  0  0  0
    2.6734    0.5442   -0.1180 H   0  0  0  0  0  0  0  0  0  0  0  0
    1.5321    1.9125   -0.2098 H   0  0  0  0  0  0  0  0  0  0  0  0
    1.2298   -1.9450    0.2962 H   0  0  0  0  0  0  0  0  0  0  0  0
   -1.6341   -1.4519   -0.9261 H   0  0  0  0  0  0  0  0  0  0  0  0
   -2.6556   -0.7630    0.2536 H   0  0  0  0  0  0  0  0  0  0  0  0
   -1.1863   -1.8305    0.7331 H   0  0  0  0  0  0  0  0  0  0  0  0
   -2.1918    1.5437   -0.7301 H   0  0  0  0  0  0  0  0  0  0  0  0
  1  2  1  0
  2  3  1  0
  3  4  2  0
  2  5  1  0
  5  6  1  0
  6  7  1  0
  6  8  1  0
  8  9  2  0
  6  2  1  0
  1 10  1  0
  1 11  1  0
  1 12  1  0
  3 13  1  0
  7 14  1  0
  7 15  1  0
  7 16  1  0
  8 17  1  0
M  END
