
     RDKit          3D

 18 18  0  0  0  0  0  0  0  0999 V2000
   -0.7244    1.5162    0.3178 C   0  0  0  0  0  0  0  0  0  0  0  0
   -0.3063    0.1250   -0.1621 C   0  0  0  0  0  0  0  0  0  0  0  0
   -1.6070   -0.5498   -0.5815 C   0  0  0  0  0  0  0  0  0  0  0  0
   -2.4074   -0.5529    0.5850 O   0  0  0  0  0  0  0  0  0  0  0  0
    0.5962    0.2072   -1.2053 O   0  0  0  0  0  0  0  0  0  0  0  0
    1.8507   -0.1100   -0.7061 C   0  0  0  0  0  0  0  0  0  0  0  0
    1.5929   -0.7467    0.6340 C   0  0  0  0  0  0  0  0  0  0  0  0
    0.2410   -0.6339    0.8366 O   0  0  0  0  0  0  0  0  0  0  0  0
   -1.4819    1.3505    1.1122 H   0  0  0  0  0  0  0  0  0  0  0  0
   -1.2947    1.9555   -0.5505 H   0  0  0  0  0  0  0  0  0  0  0  0
    0.1235    2.1293    0.6151 H   0  0  0  0  0  0  0  0  0  0  0  0
   -1.3774   -1.5549   -0.9326 H   0  0  0  0  0  0  0  0  0  0  0  0
   -2.1036    0.1028   -1.3223 H   0  0  0  0  0  0  0  0  0  0  0  0
   -1.9734   -1.2370    1.1833 H   0  0  0  0  0  0  0  0  0  0  0  0
    2.3950   -0.8356   -1.3504 H   0  0  0  0  0  0  0  0  0  0  0  0
    2.4442    0.8074   -0.5618 H   0  0  0  0  0  0  0  0  0  0  0  0
    1.9282   -1.8068    0.6322 H   0  0  0  0  0  0  0  0  0  0  0  0
    2.1044   -0.1665    1.4565 H   0  0  0  0  0  0  0  0  0  0  0  0
  1  2  1  0
  2  3  1  0
  3  4  1  0
  2  5  1  0
  5  6  1  0
  6  7  1  0
  7  8  1  0
  8  2  1  0
  1  9  1  0
  1 10  1  0
  1 11  1  0
  3 12  1  0
  3 13  1  0
  4 14  1  0
  6 15  1  0
  6 16  1  0
  7 17  1  0
  7 18  1  0
M  END
