
     RDKit          3D

 19 20  0  0  0  0  0  0  0  0999 V2000
   -2.1686    0.6931    0.0554 C   0  0  0  0  0  0  0  0  0  0  0  0
   -0.8377   -0.0433   -0.1390 C   0  0  0  0  0  0  0  0  0  0  0  0
   -1.0188   -1.5453   -0.2214 C   0  0  0  0  0  0  0  0  0  0  0  0
    0.0529    0.5507   -1.1447 C   0  0  0  0  0  0  0  0  0  0  0  0
    1.2464   -0.1717   -1.3764 O   0  0  0  0  0  0  0  0  0  0  0  0
    1.7352    0.3942   -0.2227 C   0  0  0  0  0  0  0  0  0  0  0  0
    2.6901   -0.4166    0.5551 C   0  0  0  0  0  0  0  0  0  0  0  0
    3.1417    0.0577    1.5838 O   0  0  0  0  0  0  0  0  0  0  0  0
    0.3776    0.5725    0.3825 C   0  0  0  0  0  0  0  0  0  0  0  0
   -1.9017    1.7527    0.2764 H   0  0  0  0  0  0  0  0  0  0  0  0
   -2.7407    0.5994   -0.8978 H   0  0  0  0  0  0  0  0  0  0  0  0
   -2.7062    0.2785    0.9242 H   0  0  0  0  0  0  0  0  0  0  0  0
   -1.1190   -2.0129    0.7705 H   0  0  0  0  0  0  0  0  0  0  0  0
   -1.9552   -1.7335   -0.8090 H   0  0  0  0  0  0  0  0  0  0  0  0
   -0.2087   -2.0441   -0.7646 H   0  0  0  0  0  0  0  0  0  0  0  0
   -0.0847    1.5230   -1.6071 H   0  0  0  0  0  0  0  0  0  0  0  0
    2.2274    1.3780   -0.4822 H   0  0  0  0  0  0  0  0  0  0  0  0
    3.0298   -1.4111    0.2879 H   0  0  0  0  0  0  0  0  0  0  0  0
    0.2400    1.5787    0.8761 H   0  0  0  0  0  0  0  0  0  0  0  0
  1  2  1  0
  2  3  1  0
  2  4  1  0
  4  5  1  0
  5  6  1  0
  6  7  1  0
  7  8  2  0
  6  9  1  0
  9  2  1  0
  9  4  1  0
  1 10  1  0
  1 11  1  0
  1 12  1  0
  3 13  1  0
  3 14  1  0
  3 15  1  0
  4 16  1  0
  6 17  1  0
  7 18  1  0
  9 19  1  0
M  END
