
     RDKit          3D

 23 24  0  0  0  0  0  0  0  0999 V2000
   -1.0285   -1.3799   -0.8952 C   0  0  0  0  0  0  0  0  0  0  0  0
   -0.7389   -0.4460    0.2417 C   0  0  0  0  0  0  0  0  0  0  0  0
   -1.8815   -0.3095    1.2435 C   0  0  0  0  0  0  0  0  0  0  0  0
    0.5930   -0.2807    0.8261 C   0  0  0  0  0  0  0  0  0  0  0  0
    1.8605   -0.3787    0.0414 C   0  0  0  0  0  0  0  0  0  0  0  0
    2.1911   -1.6641   -0.3959 O   0  0  0  0  0  0  0  0  0  0  0  0
    1.2380    0.5090   -1.0108 C   0  0  0  0  0  0  0  0  0  0  0  0
    0.0849    0.7344   -0.1081 C   0  0  0  0  0  0  0  0  0  0  0  0
   -0.3913    2.0740    0.2888 C   0  0  0  0  0  0  0  0  0  0  0  0
   -0.3638   -2.2433   -0.9573 H   0  0  0  0  0  0  0  0  0  0  0  0
   -0.9251   -0.8392   -1.8815 H   0  0  0  0  0  0  0  0  0  0  0  0
   -2.1026   -1.7184   -0.8914 H   0  0  0  0  0  0  0  0  0  0  0  0
   -1.6243    0.3519    2.0811 H   0  0  0  0  0  0  0  0  0  0  0  0
   -2.7895   -0.0424    0.6974 H   0  0  0  0  0  0  0  0  0  0  0  0
   -2.0445   -1.3269    1.6998 H   0  0  0  0  0  0  0  0  0  0  0  0
    0.7139   -0.0152    1.8891 H   0  0  0  0  0  0  0  0  0  0  0  0
    2.7321    0.0640    0.5614 H   0  0  0  0  0  0  0  0  0  0  0  0
    3.1738   -1.7599   -0.4913 H   0  0  0  0  0  0  0  0  0  0  0  0
    1.0806   -0.0623   -1.9333 H   0  0  0  0  0  0  0  0  0  0  0  0
    1.8600    1.4172   -1.2074 H   0  0  0  0  0  0  0  0  0  0  0  0
   -1.5076    2.1138    0.1223 H   0  0  0  0  0  0  0  0  0  0  0  0
   -0.1345    2.2904    1.3410 H   0  0  0  0  0  0  0  0  0  0  0  0
    0.0040    2.9116   -0.3558 H   0  0  0  0  0  0  0  0  0  0  0  0
  1  2  1  0
  2  3  1  0
  2  4  1  0
  4  5  1  0
  5  6  1  0
  5  7  1  0
  7  8  1  0
  8  9  1  0
  8  2  1  0
  8  4  1  0
  1 10  1  0
  1 11  1  0
  1 12  1  0
  3 13  1  0
  3 14  1  0
  3 15  1  0
  4 16  1  0
  5 17  1  0
  6 18  1  0
  7 19  1  0
  7 20  1  0
  9 21  1  0
  9 22  1  0
  9 23  1  0
M  END
