
     RDKit          3D

 21 22  0  0  0  0  0  0  0  0999 V2000
    1.5696   -1.1686   -0.5288 C   0  0  0  0  0  0  0  0  0  0  0  0
    0.8056   -0.2585    0.4182 C   0  0  0  0  0  0  0  0  0  0  0  0
    1.6119    0.2864    1.5333 C   0  0  0  0  0  0  0  0  0  0  0  0
    2.6682   -0.2190    1.8533 O   0  0  0  0  0  0  0  0  0  0  0  0
   -0.6080   -0.5422    0.7512 C   0  0  0  0  0  0  0  0  0  0  0  0
   -1.5546   -1.1452   -0.2364 C   0  0  0  0  0  0  0  0  0  0  0  0
   -1.1197   -0.1197   -1.2410 C   0  0  0  0  0  0  0  0  0  0  0  0
   -0.2735    0.5245   -0.1944 C   0  0  0  0  0  0  0  0  0  0  0  0
   -0.5063    1.9715    0.0629 C   0  0  0  0  0  0  0  0  0  0  0  0
    1.4592   -2.2247   -0.2829 H   0  0  0  0  0  0  0  0  0  0  0  0
    2.6561   -0.9350   -0.4539 H   0  0  0  0  0  0  0  0  0  0  0  0
    1.3036   -0.9473   -1.5886 H   0  0  0  0  0  0  0  0  0  0  0  0
    1.2743    1.1483    2.0849 H   0  0  0  0  0  0  0  0  0  0  0  0
   -1.0049   -0.3690    1.7696 H   0  0  0  0  0  0  0  0  0  0  0  0
   -1.3758   -2.2048   -0.5134 H   0  0  0  0  0  0  0  0  0  0  0  0
   -2.6141   -0.9957    0.0446 H   0  0  0  0  0  0  0  0  0  0  0  0
   -1.9470    0.5597   -1.6015 H   0  0  0  0  0  0  0  0  0  0  0  0
   -0.6099   -0.5176   -2.1263 H   0  0  0  0  0  0  0  0  0  0  0  0
   -1.5377    2.1981    0.4062 H   0  0  0  0  0  0  0  0  0  0  0  0
   -0.3830    2.5083   -0.9153 H   0  0  0  0  0  0  0  0  0  0  0  0
    0.1859    2.4505    0.7584 H   0  0  0  0  0  0  0  0  0  0  0  0
  1  2  1  0
  2  3  1  0
  3  4  2  0
  2  5  1  0
  5  6  1  0
  6  7  1  0
  7  8  1  0
  8  9  1  0
  8  2  1  0
  8  5  1  0
  1 10  1  0
  1 11  1  0
  1 12  1  0
  3 13  1  0
  5 14  1  0
  6 15  1  0
  6 16  1  0
  7 17  1  0
  7 18  1  0
  9 19  1  0
  9 20  1  0
  9 21  1  0
M  END
