
     RDKit          3D

 23 23  0  0  0  0  0  0  0  0999 V2000
    1.3577    1.4515    0.0470 C   0  0  0  0  0  0  0  0  0  0  0  0
    0.8992    0.1012   -0.3521 C   0  0  0  0  0  0  0  0  0  0  0  0
    1.3199   -0.3258   -1.6152 O   0  0  0  0  0  0  0  0  0  0  0  0
    1.3235   -0.9445    0.6751 C   0  0  0  0  0  0  0  0  0  0  0  0
   -0.0082   -1.6470    0.3798 C   0  0  0  0  0  0  0  0  0  0  0  0
   -0.5095   -0.2794   -0.1018 C   0  0  0  0  0  0  0  0  0  0  0  0
   -1.3131   -0.4378   -1.3507 C   0  0  0  0  0  0  0  0  0  0  0  0
   -1.1966    0.4141    1.0511 C   0  0  0  0  0  0  0  0  0  0  0  0
   -1.2487    1.7883    0.9063 O   0  0  0  0  0  0  0  0  0  0  0  0
    2.3454    1.6397   -0.4680 H   0  0  0  0  0  0  0  0  0  0  0  0
    1.5819    1.5433    1.1436 H   0  0  0  0  0  0  0  0  0  0  0  0
    0.7061    2.2845   -0.2764 H   0  0  0  0  0  0  0  0  0  0  0  0
    0.9791    0.2229   -2.3370 H   0  0  0  0  0  0  0  0  0  0  0  0
    2.1486   -1.5986    0.3399 H   0  0  0  0  0  0  0  0  0  0  0  0
    1.3788   -0.5833    1.7037 H   0  0  0  0  0  0  0  0  0  0  0  0
   -0.5381   -2.0180    1.2575 H   0  0  0  0  0  0  0  0  0  0  0  0
    0.0789   -2.3912   -0.4441 H   0  0  0  0  0  0  0  0  0  0  0  0
   -1.1605    0.4524   -2.0263 H   0  0  0  0  0  0  0  0  0  0  0  0
   -0.9096   -1.3094   -1.9424 H   0  0  0  0  0  0  0  0  0  0  0  0
   -2.3804   -0.6531   -1.1805 H   0  0  0  0  0  0  0  0  0  0  0  0
   -0.6257    0.1614    1.9693 H   0  0  0  0  0  0  0  0  0  0  0  0
   -2.2176    0.0223    1.1667 H   0  0  0  0  0  0  0  0  0  0  0  0
   -2.0111    2.1064    1.4546 H   0  0  0  0  0  0  0  0  0  0  0  0
  1  2  1  0
  2  3  1  0
  2  4  1  0
  4  5  1  0
  5  6  1  0
  6  7  1  0
  6  8  1  0
  8  9  1  0
  6  2  1  0
  1 10  1  0
  1 11  1  0
  1 12  1  0
  3 13  1  0
  4 14  1  0
  4 15  1  0
  5 16  1  0
  5 17  1  0
  7 18  1  0
  7 19  1  0
  7 20  1  0
  8 21  1  0
  8 22  1  0
  9 23  1  0
M  END
