
     RDKit          3D

 19 20  0  0  0  0  0  0  0  0999 V2000
   -2.4546   -0.0825    0.1058 C   0  0  0  0  0  0  0  0  0  0  0  0
   -1.0499    0.3744    0.3271 C   0  0  0  0  0  0  0  0  0  0  0  0
   -0.8778    1.6901    0.7133 O   0  0  0  0  0  0  0  0  0  0  0  0
   -0.1130   -0.6100    0.9643 C   0  0  0  0  0  0  0  0  0  0  0  0
   -0.2657   -1.3802   -0.1753 O   0  0  0  0  0  0  0  0  0  0  0  0
   -0.1030   -0.1155   -0.7219 C   0  0  0  0  0  0  0  0  0  0  0  0
    0.9988    0.0906    0.2624 C   0  0  0  0  0  0  0  0  0  0  0  0
    2.2623   -0.6703    0.0420 C   0  0  0  0  0  0  0  0  0  0  0  0
    3.1535    0.1951   -0.6332 O   0  0  0  0  0  0  0  0  0  0  0  0
   -3.1830    0.4081    0.7782 H   0  0  0  0  0  0  0  0  0  0  0  0
   -2.5725   -1.1631    0.2196 H   0  0  0  0  0  0  0  0  0  0  0  0
   -2.7865    0.1774   -0.9335 H   0  0  0  0  0  0  0  0  0  0  0  0
   -1.7385    2.0910    0.9726 H   0  0  0  0  0  0  0  0  0  0  0  0
   -0.1362   -0.9284    1.9201 H   0  0  0  0  0  0  0  0  0  0  0  0
   -0.1043    0.1219   -1.7016 H   0  0  0  0  0  0  0  0  0  0  0  0
    1.1326    1.1358    0.5296 H   0  0  0  0  0  0  0  0  0  0  0  0
    2.1474   -1.5877   -0.5422 H   0  0  0  0  0  0  0  0  0  0  0  0
    2.7309   -0.8973    1.0193 H   0  0  0  0  0  0  0  0  0  0  0  0
    2.9594    1.1505   -0.3976 H   0  0  0  0  0  0  0  0  0  0  0  0
  1  2  1  0
  2  3  1  0
  2  4  1  0
  4  5  1  0
  5  6  1  0
  6  7  1  0
  7  8  1  0
  8  9  1  0
  6  2  1  0
  7  4  1  0
  1 10  1  0
  1 11  1  0
  1 12  1  0
  3 13  1  0
  4 14  1  0
  6 15  1  0
  7 16  1  0
  8 17  1  0
  8 18  1  0
  9 19  1  0
M  END
