
     RDKit          3D

 23 24  0  0  0  0  0  0  0  0999 V2000
   -1.4491    0.8841    1.0338 C   0  0  0  0  0  0  0  0  0  0  0  0
   -1.1162   -0.1835   -0.0153 C   0  0  0  0  0  0  0  0  0  0  0  0
    0.3398   -0.4522   -0.1991 C   0  0  0  0  0  0  0  0  0  0  0  0
    0.4941   -1.4363   -1.1751 O   0  0  0  0  0  0  0  0  0  0  0  0
    1.1505    0.7209   -0.5877 C   0  0  0  0  0  0  0  0  0  0  0  0
    2.6578    0.4929   -0.7884 C   0  0  0  0  0  0  0  0  0  0  0  0
    2.1839    1.1747    0.4467 C   0  0  0  0  0  0  0  0  0  0  0  0
   -2.1389   -0.5130   -1.0063 C   0  0  0  0  0  0  0  0  0  0  0  0
   -1.9384   -1.4809    0.1590 C   0  0  0  0  0  0  0  0  0  0  0  0
   -2.2913    1.5107    0.6695 H   0  0  0  0  0  0  0  0  0  0  0  0
   -1.6938    0.3323    1.9631 H   0  0  0  0  0  0  0  0  0  0  0  0
   -0.5785    1.5631    1.1528 H   0  0  0  0  0  0  0  0  0  0  0  0
    0.7247   -0.8792    0.7479 H   0  0  0  0  0  0  0  0  0  0  0  0
    1.3034   -1.9603   -0.9562 H   0  0  0  0  0  0  0  0  0  0  0  0
    0.7471    1.5174   -1.2469 H   0  0  0  0  0  0  0  0  0  0  0  0
    3.0176   -0.5478   -0.7722 H   0  0  0  0  0  0  0  0  0  0  0  0
    3.1911    1.1389   -1.5036 H   0  0  0  0  0  0  0  0  0  0  0  0
    2.3566    2.2537    0.5578 H   0  0  0  0  0  0  0  0  0  0  0  0
    2.2358    0.6204    1.4059 H   0  0  0  0  0  0  0  0  0  0  0  0
   -3.0980    0.0447   -0.9320 H   0  0  0  0  0  0  0  0  0  0  0  0
   -1.9298   -0.8686   -2.0244 H   0  0  0  0  0  0  0  0  0  0  0  0
   -2.6832   -1.5065    0.9667 H   0  0  0  0  0  0  0  0  0  0  0  0
   -1.4852   -2.4254   -0.1369 H   0  0  0  0  0  0  0  0  0  0  0  0
  1  2  1  0
  2  3  1  0
  3  4  1  0
  3  5  1  0
  5  6  1  0
  6  7  1  0
  2  8  1  0
  8  9  1  0
  9  2  1  0
  7  5  1  0
  1 10  1  0
  1 11  1  0
  1 12  1  0
  3 13  1  0
  4 14  1  0
  5 15  1  0
  6 16  1  0
  6 17  1  0
  7 18  1  0
  7 19  1  0
  8 20  1  0
  8 21  1  0
  9 22  1  0
  9 23  1  0
M  END
