
     RDKit          3D

 21 22  0  0  0  0  0  0  0  0999 V2000
   -1.0077    1.5474   -0.3500 C   0  0  0  0  0  0  0  0  0  0  0  0
   -0.7522    0.0782   -0.1368 C   0  0  0  0  0  0  0  0  0  0  0  0
   -1.9803   -0.7050    0.2663 C   0  0  0  0  0  0  0  0  0  0  0  0
   -2.5299   -0.2414    1.4578 O   0  0  0  0  0  0  0  0  0  0  0  0
    0.1058   -0.6551   -1.1662 C   0  0  0  0  0  0  0  0  0  0  0  0
    0.5548   -0.4406    0.2866 C   0  0  0  0  0  0  0  0  0  0  0  0
    1.7780    0.4194    0.3875 C   0  0  0  0  0  0  0  0  0  0  0  0
    3.0176   -0.3210    0.8412 C   0  0  0  0  0  0  0  0  0  0  0  0
    2.3277    0.5841    1.6594 O   0  0  0  0  0  0  0  0  0  0  0  0
   -0.2216    2.1911    0.0835 H   0  0  0  0  0  0  0  0  0  0  0  0
   -1.1025    1.6914   -1.4633 H   0  0  0  0  0  0  0  0  0  0  0  0
   -1.9873    1.8587    0.0651 H   0  0  0  0  0  0  0  0  0  0  0  0
   -2.7319   -0.5655   -0.5366 H   0  0  0  0  0  0  0  0  0  0  0  0
   -1.7509   -1.7958    0.3041 H   0  0  0  0  0  0  0  0  0  0  0  0
   -3.4892   -0.4935    1.4871 H   0  0  0  0  0  0  0  0  0  0  0  0
    0.5079    0.0013   -1.9450 H   0  0  0  0  0  0  0  0  0  0  0  0
   -0.1356   -1.6976   -1.4190 H   0  0  0  0  0  0  0  0  0  0  0  0
    0.5380   -1.3215    0.9535 H   0  0  0  0  0  0  0  0  0  0  0  0
    1.9216    1.2700   -0.2898 H   0  0  0  0  0  0  0  0  0  0  0  0
    4.0012   -0.0387    0.4315 H   0  0  0  0  0  0  0  0  0  0  0  0
    2.9364   -1.3658    1.1800 H   0  0  0  0  0  0  0  0  0  0  0  0
  1  2  1  0
  2  3  1  0
  3  4  1  0
  2  5  1  0
  5  6  1  0
  6  7  1  0
  7  8  1  0
  8  9  1  0
  6  2  1  0
  9  7  1  0
  1 10  1  0
  1 11  1  0
  1 12  1  0
  3 13  1  0
  3 14  1  0
  4 15  1  0
  5 16  1  0
  5 17  1  0
  6 18  1  0
  7 19  1  0
  8 20  1  0
  8 21  1  0
M  END
