
     RDKit          3D

 21 21  0  0  0  0  0  0  0  0999 V2000
   -1.5825    1.2179    1.0208 C   0  0  0  0  0  0  0  0  0  0  0  0
   -0.8012    0.2026    0.1911 C   0  0  0  0  0  0  0  0  0  0  0  0
    0.6584    0.5439    0.0868 C   0  0  0  0  0  0  0  0  0  0  0  0
    1.1887    0.5815    1.4039 O   0  0  0  0  0  0  0  0  0  0  0  0
    1.4517   -0.5995   -0.5649 C   0  0  0  0  0  0  0  0  0  0  0  0
    2.8869   -0.2204   -0.6547 C   0  0  0  0  0  0  0  0  0  0  0  0
    3.3981    0.1783   -1.7088 O   0  0  0  0  0  0  0  0  0  0  0  0
   -1.3489   -1.1423    0.0533 C   0  0  0  0  0  0  0  0  0  0  0  0
   -1.5569   -0.1746   -1.0503 C   0  0  0  0  0  0  0  0  0  0  0  0
   -2.4044    0.6898    1.5397 H   0  0  0  0  0  0  0  0  0  0  0  0
   -1.9240    2.0568    0.3985 H   0  0  0  0  0  0  0  0  0  0  0  0
   -0.9062    1.6103    1.8123 H   0  0  0  0  0  0  0  0  0  0  0  0
    0.7687    1.4939   -0.4230 H   0  0  0  0  0  0  0  0  0  0  0  0
    0.8255   -0.2666    1.8181 H   0  0  0  0  0  0  0  0  0  0  0  0
    0.9890   -0.8223   -1.5365 H   0  0  0  0  0  0  0  0  0  0  0  0
    1.4050   -1.4891    0.1072 H   0  0  0  0  0  0  0  0  0  0  0  0
    3.4991   -0.2951    0.2252 H   0  0  0  0  0  0  0  0  0  0  0  0
   -2.2303   -1.4421    0.6829 H   0  0  0  0  0  0  0  0  0  0  0  0
   -0.7341   -2.0188   -0.2374 H   0  0  0  0  0  0  0  0  0  0  0  0
   -0.9581   -0.2471   -1.9785 H   0  0  0  0  0  0  0  0  0  0  0  0
   -2.6246    0.1432   -1.1856 H   0  0  0  0  0  0  0  0  0  0  0  0
  1  2  1  0
  2  3  1  0
  3  4  1  0
  3  5  1  0
  5  6  1  0
  6  7  2  0
  2  8  1  0
  8  9  1  0
  9  2  1  0
  1 10  1  0
  1 11  1  0
  1 12  1  0
  3 13  1  0
  4 14  1  0
  5 15  1  0
  5 16  1  0
  6 17  1  0
  8 18  1  0
  8 19  1  0
  9 20  1  0
  9 21  1  0
M  END
