
     RDKit          3D

 17 17  0  0  0  0  0  0  0  0999 V2000
   -1.9784   -0.8416   -0.7026 C   0  0  0  0  0  0  0  0  0  0  0  0
   -0.7561   -0.1073   -0.2346 C   0  0  0  0  0  0  0  0  0  0  0  0
    0.4858   -0.8769    0.1316 C   0  0  0  0  0  0  0  0  0  0  0  0
    1.5502    0.0476    0.5606 C   0  0  0  0  0  0  0  0  0  0  0  0
    1.5627    0.4936    1.7322 O   0  0  0  0  0  0  0  0  0  0  0  0
    2.6024    0.4651   -0.3471 C   0  0  0  0  0  0  0  0  0  0  0  0
    2.5988    0.0225   -1.5282 O   0  0  0  0  0  0  0  0  0  0  0  0
   -0.9333    1.3018    0.1493 C   0  0  0  0  0  0  0  0  0  0  0  0
   -0.3889    1.0331   -1.1047 O   0  0  0  0  0  0  0  0  0  0  0  0
   -1.7580   -1.7965   -1.1824 H   0  0  0  0  0  0  0  0  0  0  0  0
   -2.6302   -0.9913    0.2085 H   0  0  0  0  0  0  0  0  0  0  0  0
   -2.5742   -0.1807   -1.3652 H   0  0  0  0  0  0  0  0  0  0  0  0
    0.2500   -1.6210    0.9324 H   0  0  0  0  0  0  0  0  0  0  0  0
    0.8064   -1.4988   -0.7524 H   0  0  0  0  0  0  0  0  0  0  0  0
    3.3976    1.1399   -0.0688 H   0  0  0  0  0  0  0  0  0  0  0  0
   -0.2819    1.6855    0.9471 H   0  0  0  0  0  0  0  0  0  0  0  0
   -1.9528    1.7251    0.1206 H   0  0  0  0  0  0  0  0  0  0  0  0
  1  2  1  0
  2  3  1  0
  3  4  1  0
  4  5  2  0
  4  6  1  0
  6  7  2  0
  2  8  1  0
  8  9  1  0
  9  2  1  0
  1 10  1  0
  1 11  1  0
  1 12  1  0
  3 13  1  0
  3 14  1  0
  6 15  1  0
  8 16  1  0
  8 17  1  0
M  END
