
     RDKit          3D

 21 22  0  0  0  0  0  0  0  0999 V2000
   -2.0657   -0.4376   -0.8378 C   0  0  0  0  0  0  0  0  0  0  0  0
   -1.0044   -0.5596    0.2153 C   0  0  0  0  0  0  0  0  0  0  0  0
   -1.2427   -1.5557    1.1875 O   0  0  0  0  0  0  0  0  0  0  0  0
   -0.5624    0.8030    0.8009 C   0  0  0  0  0  0  0  0  0  0  0  0
   -0.9688    1.9450    0.1153 O   0  0  0  0  0  0  0  0  0  0  0  0
    0.3470   -0.0892    0.0869 C   0  0  0  0  0  0  0  0  0  0  0  0
    1.0702    0.2440   -1.1531 C   0  0  0  0  0  0  0  0  0  0  0  0
    2.3799    0.0795   -0.3723 C   0  0  0  0  0  0  0  0  0  0  0  0
    1.5607   -0.7042    0.6606 C   0  0  0  0  0  0  0  0  0  0  0  0
   -3.0524   -0.3483   -0.3156 H   0  0  0  0  0  0  0  0  0  0  0  0
   -2.1422   -1.3058   -1.5070 H   0  0  0  0  0  0  0  0  0  0  0  0
   -1.9059    0.5167   -1.3758 H   0  0  0  0  0  0  0  0  0  0  0  0
   -1.7962   -1.2119    1.9135 H   0  0  0  0  0  0  0  0  0  0  0  0
   -0.5753    0.9143    1.8913 H   0  0  0  0  0  0  0  0  0  0  0  0
   -1.3336    2.6444    0.6771 H   0  0  0  0  0  0  0  0  0  0  0  0
    1.0047    1.3230   -1.4597 H   0  0  0  0  0  0  0  0  0  0  0  0
    1.0454   -0.4706   -1.9873 H   0  0  0  0  0  0  0  0  0  0  0  0
    2.7649    1.0040    0.0670 H   0  0  0  0  0  0  0  0  0  0  0  0
    3.1101   -0.5861   -0.8353 H   0  0  0  0  0  0  0  0  0  0  0  0
    1.7287   -0.4033    1.7015 H   0  0  0  0  0  0  0  0  0  0  0  0
    1.6379   -1.8017    0.5268 H   0  0  0  0  0  0  0  0  0  0  0  0
  1  2  1  0
  2  3  1  0
  2  4  1  0
  4  5  1  0
  4  6  1  0
  6  7  1  0
  7  8  1  0
  8  9  1  0
  6  2  1  0
  9  6  1  0
  1 10  1  0
  1 11  1  0
  1 12  1  0
  3 13  1  0
  4 14  1  0
  5 15  1  0
  7 16  1  0
  7 17  1  0
  8 18  1  0
  8 19  1  0
  9 20  1  0
  9 21  1  0
M  END
