
     RDKit          3D

 21 21  0  0  0  0  0  0  0  0999 V2000
    1.1607    0.8731   -1.3026 C   0  0  0  0  0  0  0  0  0  0  0  0
    0.3327    0.0192   -0.3623 C   0  0  0  0  0  0  0  0  0  0  0  0
    1.2921   -0.7146    0.5508 C   0  0  0  0  0  0  0  0  0  0  0  0
    2.0676    0.1614    1.2895 O   0  0  0  0  0  0  0  0  0  0  0  0
   -0.5472   -0.9360   -1.0884 C   0  0  0  0  0  0  0  0  0  0  0  0
   -1.7165   -0.2295   -1.4550 O   0  0  0  0  0  0  0  0  0  0  0  0
   -2.4543   -0.1673   -0.2535 C   0  0  0  0  0  0  0  0  0  0  0  0
   -1.7645    0.4302    0.7641 O   0  0  0  0  0  0  0  0  0  0  0  0
   -0.5544    0.9722    0.4206 C   0  0  0  0  0  0  0  0  0  0  0  0
    1.8165    1.5021   -0.6326 H   0  0  0  0  0  0  0  0  0  0  0  0
    1.8325    0.2662   -1.9116 H   0  0  0  0  0  0  0  0  0  0  0  0
    0.4991    1.5458   -1.8677 H   0  0  0  0  0  0  0  0  0  0  0  0
    0.7170   -1.3901    1.2141 H   0  0  0  0  0  0  0  0  0  0  0  0
    1.9662   -1.2986   -0.0979 H   0  0  0  0  0  0  0  0  0  0  0  0
    3.0542   -0.0163    1.1725 H   0  0  0  0  0  0  0  0  0  0  0  0
   -0.0856   -1.4330   -1.9456 H   0  0  0  0  0  0  0  0  0  0  0  0
   -0.8396   -1.7482   -0.3732 H   0  0  0  0  0  0  0  0  0  0  0  0
   -2.6113   -1.2443    0.0413 H   0  0  0  0  0  0  0  0  0  0  0  0
   -3.4293    0.2683   -0.4821 H   0  0  0  0  0  0  0  0  0  0  0  0
   -0.7336    1.9254   -0.1424 H   0  0  0  0  0  0  0  0  0  0  0  0
   -0.0024    1.2141    1.3567 H   0  0  0  0  0  0  0  0  0  0  0  0
  1  2  1  0
  2  3  1  0
  3  4  1  0
  2  5  1  0
  5  6  1  0
  6  7  1  0
  7  8  1  0
  8  9  1  0
  9  2  1  0
  1 10  1  0
  1 11  1  0
  1 12  1  0
  3 13  1  0
  3 14  1  0
  4 15  1  0
  5 16  1  0
  5 17  1  0
  7 18  1  0
  7 19  1  0
  9 20  1  0
  9 21  1  0
M  END
