
     RDKit          3D

 21 22  0  0  0  0  0  0  0  0999 V2000
   -1.4831   -0.5647   -0.9439 C   0  0  0  0  0  0  0  0  0  0  0  0
   -0.6200    0.1403    0.0635 C   0  0  0  0  0  0  0  0  0  0  0  0
   -1.4663    0.8930    1.0465 C   0  0  0  0  0  0  0  0  0  0  0  0
    0.2246   -0.8469    0.8738 C   0  0  0  0  0  0  0  0  0  0  0  0
    1.5753   -0.1684    0.8099 C   0  0  0  0  0  0  0  0  0  0  0  0
    2.1497   -0.5264   -0.5236 C   0  0  0  0  0  0  0  0  0  0  0  0
    1.3339    0.0961   -1.3796 C   0  0  0  0  0  0  0  0  0  0  0  0
    0.4520    0.9764   -0.5609 C   0  0  0  0  0  0  0  0  0  0  0  0
    1.2863    1.1965    0.5622 O   0  0  0  0  0  0  0  0  0  0  0  0
   -2.4096   -0.8958   -0.4109 H   0  0  0  0  0  0  0  0  0  0  0  0
   -0.9717   -1.3789   -1.4730 H   0  0  0  0  0  0  0  0  0  0  0  0
   -1.8105    0.1736   -1.6938 H   0  0  0  0  0  0  0  0  0  0  0  0
   -2.4889    0.4637    1.1026 H   0  0  0  0  0  0  0  0  0  0  0  0
   -1.5504    1.9728    0.8052 H   0  0  0  0  0  0  0  0  0  0  0  0
   -1.0440    0.8595    2.0872 H   0  0  0  0  0  0  0  0  0  0  0  0
    0.2369   -1.8146    0.3090 H   0  0  0  0  0  0  0  0  0  0  0  0
   -0.1450   -0.9601    1.8982 H   0  0  0  0  0  0  0  0  0  0  0  0
    2.2200   -0.3351    1.6434 H   0  0  0  0  0  0  0  0  0  0  0  0
    3.0181   -1.1435   -0.7136 H   0  0  0  0  0  0  0  0  0  0  0  0
    1.3587   -0.0541   -2.4577 H   0  0  0  0  0  0  0  0  0  0  0  0
    0.1340    1.8770   -1.0446 H   0  0  0  0  0  0  0  0  0  0  0  0
  1  2  1  0
  2  3  1  0
  2  4  1  0
  4  5  1  0
  5  6  1  0
  6  7  2  0
  7  8  1  0
  8  9  1  0
  8  2  1  0
  9  5  1  0
  1 10  1  0
  1 11  1  0
  1 12  1  0
  3 13  1  0
  3 14  1  0
  3 15  1  0
  4 16  1  0
  4 17  1  0
  5 18  1  0
  6 19  1  0
  7 20  1  0
  8 21  1  0
M  END
