
     RDKit          3D

 18 18  0  0  0  0  0  0  0  0999 V2000
   -1.5847   -0.0491   -0.8472 C   0  0  0  0  0  0  0  0  0  0  0  0
   -0.4247   -0.0831    0.1280 C   0  0  0  0  0  0  0  0  0  0  0  0
   -0.8875   -0.5008    1.5070 C   0  0  0  0  0  0  0  0  0  0  0  0
    0.2276    1.2301    0.1677 C   0  0  0  0  0  0  0  0  0  0  0  0
    1.4979    1.1727   -0.2140 C   0  0  0  0  0  0  0  0  0  0  0  0
    1.8712   -0.2338   -0.5703 C   0  0  0  0  0  0  0  0  0  0  0  0
    0.5996   -0.9682   -0.4250 C   0  0  0  0  0  0  0  0  0  0  0  0
    0.4391   -2.1389   -0.7250 O   0  0  0  0  0  0  0  0  0  0  0  0
   -2.2225    0.8059   -0.5461 H   0  0  0  0  0  0  0  0  0  0  0  0
   -2.1359   -1.0024   -0.7883 H   0  0  0  0  0  0  0  0  0  0  0  0
   -1.1504    0.0882   -1.8541 H   0  0  0  0  0  0  0  0  0  0  0  0
   -0.2176   -1.2776    1.9006 H   0  0  0  0  0  0  0  0  0  0  0  0
   -0.8851    0.4087    2.1532 H   0  0  0  0  0  0  0  0  0  0  0  0
   -1.9602   -0.8270    1.4726 H   0  0  0  0  0  0  0  0  0  0  0  0
   -0.2505    2.1643    0.4717 H   0  0  0  0  0  0  0  0  0  0  0  0
    2.1984    1.9982   -0.2740 H   0  0  0  0  0  0  0  0  0  0  0  0
    2.2072   -0.1915   -1.6345 H   0  0  0  0  0  0  0  0  0  0  0  0
    2.6781   -0.5956    0.0778 H   0  0  0  0  0  0  0  0  0  0  0  0
  1  2  1  0
  2  3  1  0
  2  4  1  0
  4  5  2  0
  5  6  1  0
  6  7  1  0
  7  8  2  0
  7  2  1  0
  1  9  1  0
  1 10  1  0
  1 11  1  0
  3 12  1  0
  3 13  1  0
  3 14  1  0
  4 15  1  0
  5 16  1  0
  6 17  1  0
  6 18  1  0
M  END
