
     RDKit          3D

 18 20  0  0  0  0  0  0  0  0999 V2000
    1.0839    0.2800    1.3784 C   0  0  0  0  0  0  0  0  0  0  0  0
    0.6178   -0.1359   -0.0003 C   0  0  0  0  0  0  0  0  0  0  0  0
    1.7509   -0.5631   -0.9103 C   0  0  0  0  0  0  0  0  0  0  0  0
   -0.4540    0.6350   -0.6410 C   0  0  0  0  0  0  0  0  0  0  0  0
   -1.7082    1.0426    0.0459 C   0  0  0  0  0  0  0  0  0  0  0  0
   -1.9466    0.6854    1.3492 O   0  0  0  0  0  0  0  0  0  0  0  0
   -1.9231   -0.3826    0.4867 C   0  0  0  0  0  0  0  0  0  0  0  0
   -0.6761   -0.7664   -0.2325 C   0  0  0  0  0  0  0  0  0  0  0  0
    0.2590    0.4350    2.0837 H   0  0  0  0  0  0  0  0  0  0  0  0
    1.5989    1.2627    1.2697 H   0  0  0  0  0  0  0  0  0  0  0  0
    1.8207   -0.4853    1.7049 H   0  0  0  0  0  0  0  0  0  0  0  0
    2.3789   -1.3491   -0.4941 H   0  0  0  0  0  0  0  0  0  0  0  0
    1.3288   -0.9254   -1.8582 H   0  0  0  0  0  0  0  0  0  0  0  0
    2.3149    0.3740   -1.1561 H   0  0  0  0  0  0  0  0  0  0  0  0
   -0.3312    0.9524   -1.6826 H   0  0  0  0  0  0  0  0  0  0  0  0
   -2.5159    1.4388   -0.5986 H   0  0  0  0  0  0  0  0  0  0  0  0
   -2.8522   -0.8970    0.1876 H   0  0  0  0  0  0  0  0  0  0  0  0
   -0.7465   -1.6011   -0.9322 H   0  0  0  0  0  0  0  0  0  0  0  0
  1  2  1  0
  2  3  1  0
  2  4  1  0
  4  5  1  0
  5  6  1  0
  6  7  1  0
  7  8  1  0
  8  2  1  0
  8  4  1  0
  7  5  1  0
  1  9  1  0
  1 10  1  0
  1 11  1  0
  3 12  1  0
  3 13  1  0
  3 14  1  0
  4 15  1  0
  5 16  1  0
  7 17  1  0
  8 18  1  0
M  END
