
     RDKit          3D

 21 22  0  0  0  0  0  0  0  0999 V2000
    0.7481    1.0724   -1.1904 C   0  0  0  0  0  0  0  0  0  0  0  0
    0.3018    0.0172   -0.2342 C   0  0  0  0  0  0  0  0  0  0  0  0
    1.2524   -0.1343    0.9536 C   0  0  0  0  0  0  0  0  0  0  0  0
    2.5190   -0.4796    0.5080 O   0  0  0  0  0  0  0  0  0  0  0  0
   -0.0068   -1.3380   -0.8376 C   0  0  0  0  0  0  0  0  0  0  0  0
   -1.2843   -1.3381    0.0140 C   0  0  0  0  0  0  0  0  0  0  0  0
   -1.1404    0.1117    0.1501 C   0  0  0  0  0  0  0  0  0  0  0  0
   -1.6727    1.0751    0.9403 C   0  0  0  0  0  0  0  0  0  0  0  0
   -2.0189    0.9240   -0.4998 O   0  0  0  0  0  0  0  0  0  0  0  0
    0.6440    0.7268   -2.2364 H   0  0  0  0  0  0  0  0  0  0  0  0
    1.8070    1.3958   -1.0117 H   0  0  0  0  0  0  0  0  0  0  0  0
    0.1442    2.0084   -1.0980 H   0  0  0  0  0  0  0  0  0  0  0  0
    1.2400    0.7892    1.5678 H   0  0  0  0  0  0  0  0  0  0  0  0
    0.8990   -0.9951    1.5869 H   0  0  0  0  0  0  0  0  0  0  0  0
    3.1606    0.2285    0.7775 H   0  0  0  0  0  0  0  0  0  0  0  0
    0.6681   -2.1472   -0.4911 H   0  0  0  0  0  0  0  0  0  0  0  0
   -0.2134   -1.3163   -1.9217 H   0  0  0  0  0  0  0  0  0  0  0  0
   -1.1723   -1.9177    0.9567 H   0  0  0  0  0  0  0  0  0  0  0  0
   -2.1134   -1.7428   -0.6063 H   0  0  0  0  0  0  0  0  0  0  0  0
   -1.1715    2.0570    1.0842 H   0  0  0  0  0  0  0  0  0  0  0  0
   -2.5904    1.0030    1.5880 H   0  0  0  0  0  0  0  0  0  0  0  0
  1  2  1  0
  2  3  1  0
  3  4  1  0
  2  5  1  0
  5  6  1  0
  6  7  1  0
  7  8  1  0
  8  9  1  0
  7  2  1  0
  9  7  1  0
  1 10  1  0
  1 11  1  0
  1 12  1  0
  3 13  1  0
  3 14  1  0
  4 15  1  0
  5 16  1  0
  5 17  1  0
  6 18  1  0
  6 19  1  0
  8 20  1  0
  8 21  1  0
M  END
