
     RDKit          3D

 23 24  0  0  0  0  0  0  0  0999 V2000
    0.4871    1.4718   -0.6742 C   0  0  0  0  0  0  0  0  0  0  0  0
   -0.0626    0.1876   -0.0940 C   0  0  0  0  0  0  0  0  0  0  0  0
   -1.3672   -0.2456   -0.6492 C   0  0  0  0  0  0  0  0  0  0  0  0
   -2.5989    0.5561   -0.5741 C   0  0  0  0  0  0  0  0  0  0  0  0
   -2.4208   -0.6408    0.3398 C   0  0  0  0  0  0  0  0  0  0  0  0
    0.4117   -0.1587    1.2562 C   0  0  0  0  0  0  0  0  0  0  0  0
    0.9278   -0.9586    0.1361 C   0  0  0  0  0  0  0  0  0  0  0  0
    2.2773   -0.7764   -0.4586 C   0  0  0  0  0  0  0  0  0  0  0  0
    2.9760    0.3136   -0.0178 O   0  0  0  0  0  0  0  0  0  0  0  0
   -0.3634    2.2078   -0.6396 H   0  0  0  0  0  0  0  0  0  0  0  0
    0.8119    1.3607   -1.7288 H   0  0  0  0  0  0  0  0  0  0  0  0
    1.2811    1.9228   -0.0459 H   0  0  0  0  0  0  0  0  0  0  0  0
   -1.2756   -0.9028   -1.5627 H   0  0  0  0  0  0  0  0  0  0  0  0
   -3.3829    0.4005   -1.3466 H   0  0  0  0  0  0  0  0  0  0  0  0
   -2.6382    1.5672   -0.1306 H   0  0  0  0  0  0  0  0  0  0  0  0
   -2.9880   -1.5739    0.1137 H   0  0  0  0  0  0  0  0  0  0  0  0
   -2.3330   -0.3833    1.3987 H   0  0  0  0  0  0  0  0  0  0  0  0
    1.0792    0.5528    1.7848 H   0  0  0  0  0  0  0  0  0  0  0  0
   -0.3427   -0.6102    1.9360 H   0  0  0  0  0  0  0  0  0  0  0  0
    0.5356   -2.0023    0.0717 H   0  0  0  0  0  0  0  0  0  0  0  0
    2.8952   -1.6888   -0.2249 H   0  0  0  0  0  0  0  0  0  0  0  0
    2.1692   -0.8081   -1.5816 H   0  0  0  0  0  0  0  0  0  0  0  0
    3.9211    0.2088   -0.3282 H   0  0  0  0  0  0  0  0  0  0  0  0
  1  2  1  0
  2  3  1  0
  3  4  1  0
  4  5  1  0
  2  6  1  0
  6  7  1  0
  7  8  1  0
  8  9  1  0
  7  2  1  0
  5  3  1  0
  1 10  1  0
  1 11  1  0
  1 12  1  0
  3 13  1  0
  4 14  1  0
  4 15  1  0
  5 16  1  0
  5 17  1  0
  6 18  1  0
  6 19  1  0
  7 20  1  0
  8 21  1  0
  8 22  1  0
  9 23  1  0
M  END
