
     RDKit          3D

 19 20  0  0  0  0  0  0  0  0999 V2000
   -1.6933   -0.9032    0.0745 C   0  0  0  0  0  0  0  0  0  0  0  0
   -0.7002    0.2295    0.0576 C   0  0  0  0  0  0  0  0  0  0  0  0
   -1.2904    1.4243    0.7150 C   0  0  0  0  0  0  0  0  0  0  0  0
   -1.3887    2.5002    0.1572 O   0  0  0  0  0  0  0  0  0  0  0  0
   -0.3154    0.5800   -1.2305 O   0  0  0  0  0  0  0  0  0  0  0  0
    0.7361   -0.2383   -1.5790 C   0  0  0  0  0  0  0  0  0  0  0  0
    1.5748   -0.4403   -0.3417 C   0  0  0  0  0  0  0  0  0  0  0  0
    1.7431    0.6323    0.6622 C   0  0  0  0  0  0  0  0  0  0  0  0
    0.5498   -0.2487    0.7611 C   0  0  0  0  0  0  0  0  0  0  0  0
   -1.4520   -1.6254    0.9012 H   0  0  0  0  0  0  0  0  0  0  0  0
   -2.7157   -0.5227    0.3027 H   0  0  0  0  0  0  0  0  0  0  0  0
   -1.7672   -1.4190   -0.9074 H   0  0  0  0  0  0  0  0  0  0  0  0
   -1.6497    1.3422    1.7316 H   0  0  0  0  0  0  0  0  0  0  0  0
    0.3092   -1.2302   -1.8436 H   0  0  0  0  0  0  0  0  0  0  0  0
    1.3087    0.1749   -2.4142 H   0  0  0  0  0  0  0  0  0  0  0  0
    2.2071   -1.3234   -0.3495 H   0  0  0  0  0  0  0  0  0  0  0  0
    1.5270    1.6898    0.4367 H   0  0  0  0  0  0  0  0  0  0  0  0
    2.5226    0.4756    1.4139 H   0  0  0  0  0  0  0  0  0  0  0  0
    0.4941   -1.0977    1.4520 H   0  0  0  0  0  0  0  0  0  0  0  0
  1  2  1  0
  2  3  1  0
  3  4  2  0
  2  5  1  0
  5  6  1  0
  6  7  1  0
  7  8  1  0
  8  9  1  0
  9  2  1  0
  9  7  1  0
  1 10  1  0
  1 11  1  0
  1 12  1  0
  3 13  1  0
  6 14  1  0
  6 15  1  0
  7 16  1  0
  8 17  1  0
  8 18  1  0
  9 19  1  0
M  END
