
     RDKit          3D

 20 21  0  0  0  0  0  0  0  0999 V2000
   -1.9502   -0.2770   -0.7129 C   0  0  0  0  0  0  0  0  0  0  0  0
   -0.8164    0.1205    0.1872 C   0  0  0  0  0  0  0  0  0  0  0  0
   -1.3485    0.5326    1.4124 O   0  0  0  0  0  0  0  0  0  0  0  0
   -0.0735    1.2769   -0.4010 C   0  0  0  0  0  0  0  0  0  0  0  0
    1.3255    1.1358    0.1478 C   0  0  0  0  0  0  0  0  0  0  0  0
    1.4665   -0.2960    0.6108 C   0  0  0  0  0  0  0  0  0  0  0  0
    1.2481   -1.3217   -0.4690 C   0  0  0  0  0  0  0  0  0  0  0  0
    0.1632   -0.9687    0.4509 C   0  0  0  0  0  0  0  0  0  0  0  0
   -1.5921   -0.5477   -1.7206 H   0  0  0  0  0  0  0  0  0  0  0  0
   -2.6124    0.6135   -0.8200 H   0  0  0  0  0  0  0  0  0  0  0  0
   -2.5676   -1.0860   -0.3120 H   0  0  0  0  0  0  0  0  0  0  0  0
   -1.3314   -0.2247    2.0673 H   0  0  0  0  0  0  0  0  0  0  0  0
   -0.5111    2.2499   -0.0629 H   0  0  0  0  0  0  0  0  0  0  0  0
   -0.1082    1.1897   -1.5081 H   0  0  0  0  0  0  0  0  0  0  0  0
    1.5588    1.8515    0.9447 H   0  0  0  0  0  0  0  0  0  0  0  0
    2.0618    1.2746   -0.6778 H   0  0  0  0  0  0  0  0  0  0  0  0
    2.1696   -0.5348    1.4209 H   0  0  0  0  0  0  0  0  0  0  0  0
    1.7490   -2.2986   -0.2843 H   0  0  0  0  0  0  0  0  0  0  0  0
    1.2953   -1.0095   -1.5226 H   0  0  0  0  0  0  0  0  0  0  0  0
   -0.1265   -1.6804    1.2495 H   0  0  0  0  0  0  0  0  0  0  0  0
  1  2  1  0
  2  3  1  0
  2  4  1  0
  4  5  1  0
  5  6  1  0
  6  7  1  0
  7  8  1  0
  8  2  1  0
  8  6  1  0
  1  9  1  0
  1 10  1  0
  1 11  1  0
  3 12  1  0
  4 13  1  0
  4 14  1  0
  5 15  1  0
  5 16  1  0
  6 17  1  0
  7 18  1  0
  7 19  1  0
  8 20  1  0
M  END
