
     RDKit          3D

 21 21  0  0  0  0  0  0  0  0999 V2000
   -1.5011   -0.6577    1.0350 C   0  0  0  0  0  0  0  0  0  0  0  0
   -0.8867    0.1234   -0.0769 C   0  0  0  0  0  0  0  0  0  0  0  0
   -1.6371    0.0476   -1.2264 O   0  0  0  0  0  0  0  0  0  0  0  0
   -0.6276    1.5975    0.2451 C   0  0  0  0  0  0  0  0  0  0  0  0
    0.5603    1.4577   -0.6247 C   0  0  0  0  0  0  0  0  0  0  0  0
    1.2222    2.1851   -1.3177 O   0  0  0  0  0  0  0  0  0  0  0  0
    0.5853    0.0199   -0.2719 C   0  0  0  0  0  0  0  0  0  0  0  0
    1.3767   -0.2098    0.9859 C   0  0  0  0  0  0  0  0  0  0  0  0
    1.0621   -0.9042   -1.3610 C   0  0  0  0  0  0  0  0  0  0  0  0
   -1.3946   -1.7351    0.7980 H   0  0  0  0  0  0  0  0  0  0  0  0
   -2.5927   -0.4116    1.0417 H   0  0  0  0  0  0  0  0  0  0  0  0
   -1.1234   -0.4016    2.0412 H   0  0  0  0  0  0  0  0  0  0  0  0
   -1.6747   -0.8577   -1.6234 H   0  0  0  0  0  0  0  0  0  0  0  0
   -0.4002    1.7853    1.3136 H   0  0  0  0  0  0  0  0  0  0  0  0
   -1.4203    2.2621   -0.0989 H   0  0  0  0  0  0  0  0  0  0  0  0
    2.3813    0.3009    0.9123 H   0  0  0  0  0  0  0  0  0  0  0  0
    0.8432    0.1231    1.9050 H   0  0  0  0  0  0  0  0  0  0  0  0
    1.6169   -1.2852    1.1480 H   0  0  0  0  0  0  0  0  0  0  0  0
    1.9477   -0.4490   -1.8498 H   0  0  0  0  0  0  0  0  0  0  0  0
    1.3568   -1.8612   -0.8633 H   0  0  0  0  0  0  0  0  0  0  0  0
    0.3062   -1.1297   -2.1120 H   0  0  0  0  0  0  0  0  0  0  0  0
  1  2  1  0
  2  3  1  0
  2  4  1  0
  4  5  1  0
  5  6  2  0
  5  7  1  0
  7  8  1  0
  7  9  1  0
  7  2  1  0
  1 10  1  0
  1 11  1  0
  1 12  1  0
  3 13  1  0
  4 14  1  0
  4 15  1  0
  8 16  1  0
  8 17  1  0
  8 18  1  0
  9 19  1  0
  9 20  1  0
  9 21  1  0
M  END
