
     RDKit          3D

 21 21  0  0  0  0  0  0  0  0999 V2000
    1.9466   -0.6380    0.3634 C   0  0  0  0  0  0  0  0  0  0  0  0
    0.8674    0.3828    0.2424 C   0  0  0  0  0  0  0  0  0  0  0  0
    0.8881    1.4181    1.1913 O   0  0  0  0  0  0  0  0  0  0  0  0
    0.5643    0.7864   -1.2074 C   0  0  0  0  0  0  0  0  0  0  0  0
   -0.4385    0.1024   -0.3675 C   0  0  0  0  0  0  0  0  0  0  0  0
   -0.7842   -1.3525   -0.6018 C   0  0  0  0  0  0  0  0  0  0  0  0
   -0.7785   -2.0229    0.6329 O   0  0  0  0  0  0  0  0  0  0  0  0
   -1.6200    0.9413    0.0605 C   0  0  0  0  0  0  0  0  0  0  0  0
   -1.8540    0.8136    1.4425 O   0  0  0  0  0  0  0  0  0  0  0  0
    2.6520   -0.3601    1.1833 H   0  0  0  0  0  0  0  0  0  0  0  0
    2.5500   -0.7553   -0.5725 H   0  0  0  0  0  0  0  0  0  0  0  0
    1.5787   -1.6510    0.6110 H   0  0  0  0  0  0  0  0  0  0  0  0
    1.5474    2.1168    0.9674 H   0  0  0  0  0  0  0  0  0  0  0  0
    1.0468    0.2235   -2.0202 H   0  0  0  0  0  0  0  0  0  0  0  0
    0.5152    1.8653   -1.3694 H   0  0  0  0  0  0  0  0  0  0  0  0
   -0.0923   -1.8360   -1.3303 H   0  0  0  0  0  0  0  0  0  0  0  0
   -1.8083   -1.4755   -1.0181 H   0  0  0  0  0  0  0  0  0  0  0  0
   -0.8650   -2.9857    0.5420 H   0  0  0  0  0  0  0  0  0  0  0  0
   -2.5322    0.7239   -0.5282 H   0  0  0  0  0  0  0  0  0  0  0  0
   -1.3835    2.0123   -0.0997 H   0  0  0  0  0  0  0  0  0  0  0  0
   -2.0000    1.6904    1.8783 H   0  0  0  0  0  0  0  0  0  0  0  0
  1  2  1  0
  2  3  1  0
  2  4  1  0
  4  5  1  0
  5  6  1  0
  6  7  1  0
  5  8  1  0
  8  9  1  0
  5  2  1  0
  1 10  1  0
  1 11  1  0
  1 12  1  0
  3 13  1  0
  4 14  1  0
  4 15  1  0
  6 16  1  0
  6 17  1  0
  7 18  1  0
  8 19  1  0
  8 20  1  0
  9 21  1  0
M  END
