
     RDKit          3D

 23 23  0  0  0  0  0  0  0  0999 V2000
   -2.3737   -0.0488   -0.7229 C   0  0  0  0  0  0  0  0  0  0  0  0
   -1.1223   -0.1666    0.1580 C   0  0  0  0  0  0  0  0  0  0  0  0
   -1.5723   -0.4067    1.4513 O   0  0  0  0  0  0  0  0  0  0  0  0
   -0.3713    1.1094    0.0271 C   0  0  0  0  0  0  0  0  0  0  0  0
    0.9461    1.1492    0.7155 C   0  0  0  0  0  0  0  0  0  0  0  0
    2.0423    0.4117    0.0028 C   0  0  0  0  0  0  0  0  0  0  0  0
    1.8314   -1.0555   -0.1065 C   0  0  0  0  0  0  0  0  0  0  0  0
    0.7260   -1.5315    0.5602 O   0  0  0  0  0  0  0  0  0  0  0  0
   -0.3733   -1.3683   -0.3074 C   0  0  0  0  0  0  0  0  0  0  0  0
   -1.9926    0.3074   -1.7172 H   0  0  0  0  0  0  0  0  0  0  0  0
   -2.9665    0.7736   -0.3014 H   0  0  0  0  0  0  0  0  0  0  0  0
   -2.9114   -1.0024   -0.7902 H   0  0  0  0  0  0  0  0  0  0  0  0
   -1.3745    0.3112    2.0845 H   0  0  0  0  0  0  0  0  0  0  0  0
   -0.2141    1.3312   -1.0433 H   0  0  0  0  0  0  0  0  0  0  0  0
   -1.0111    1.9175    0.4895 H   0  0  0  0  0  0  0  0  0  0  0  0
    0.8722    0.8813    1.7989 H   0  0  0  0  0  0  0  0  0  0  0  0
    1.2784    2.2309    0.7260 H   0  0  0  0  0  0  0  0  0  0  0  0
    2.1728    0.8955   -0.9883 H   0  0  0  0  0  0  0  0  0  0  0  0
    2.9871    0.6130    0.5779 H   0  0  0  0  0  0  0  0  0  0  0  0
    1.6890   -1.3016   -1.1999 H   0  0  0  0  0  0  0  0  0  0  0  0
    2.7625   -1.6061    0.1764 H   0  0  0  0  0  0  0  0  0  0  0  0
   -0.0323   -1.1834   -1.3540 H   0  0  0  0  0  0  0  0  0  0  0  0
   -0.9922   -2.2608   -0.2373 H   0  0  0  0  0  0  0  0  0  0  0  0
  1  2  1  0
  2  3  1  0
  2  4  1  0
  4  5  1  0
  5  6  1  0
  6  7  1  0
  7  8  1  0
  8  9  1  0
  9  2  1  0
  1 10  1  0
  1 11  1  0
  1 12  1  0
  3 13  1  0
  4 14  1  0
  4 15  1  0
  5 16  1  0
  5 17  1  0
  6 18  1  0
  6 19  1  0
  7 20  1  0
  7 21  1  0
  9 22  1  0
  9 23  1  0
M  END
