
     RDKit          3D

 17 17  0  0  0  0  0  0  0  0999 V2000
   -0.6642    1.3210   -0.7685 C   0  0  0  0  0  0  0  0  0  0  0  0
   -0.3477    0.0564   -0.0156 C   0  0  0  0  0  0  0  0  0  0  0  0
   -1.5098   -0.8581    0.0584 C   0  0  0  0  0  0  0  0  0  0  0  0
   -2.0812   -1.1994   -0.9589 O   0  0  0  0  0  0  0  0  0  0  0  0
    0.1490    0.3317    1.3818 C   0  0  0  0  0  0  0  0  0  0  0  0
    1.1034   -0.7269    1.5510 O   0  0  0  0  0  0  0  0  0  0  0  0
    1.8019   -0.8658    0.3497 C   0  0  0  0  0  0  0  0  0  0  0  0
    3.0222   -1.1514    0.2326 O   0  0  0  0  0  0  0  0  0  0  0  0
    0.8191   -0.6105   -0.7237 C   0  0  0  0  0  0  0  0  0  0  0  0
    0.1545    1.5947   -1.4671 H   0  0  0  0  0  0  0  0  0  0  0  0
   -0.8013    2.1498   -0.0578 H   0  0  0  0  0  0  0  0  0  0  0  0
   -1.5527    1.1151   -1.3973 H   0  0  0  0  0  0  0  0  0  0  0  0
   -1.8799   -1.2452    1.0112 H   0  0  0  0  0  0  0  0  0  0  0  0
    0.6931    1.2961    1.3982 H   0  0  0  0  0  0  0  0  0  0  0  0
   -0.6468    0.2618    2.1486 H   0  0  0  0  0  0  0  0  0  0  0  0
    0.4802   -1.5182   -1.2333 H   0  0  0  0  0  0  0  0  0  0  0  0
    1.2602    0.0486   -1.5096 H   0  0  0  0  0  0  0  0  0  0  0  0
  1  2  1  0
  2  3  1  0
  3  4  2  0
  2  5  1  0
  5  6  1  0
  6  7  1  0
  7  8  2  0
  7  9  1  0
  9  2  1  0
  1 10  1  0
  1 11  1  0
  1 12  1  0
  3 13  1  0
  5 14  1  0
  5 15  1  0
  9 16  1  0
  9 17  1  0
M  END
