
     RDKit          3D

 15 15  0  0  0  0  0  0  0  0999 V2000
   -1.4549   -0.5758    0.4524 C   0  0  0  0  0  0  0  0  0  0  0  0
   -0.3562    0.3453   -0.0422 C   0  0  0  0  0  0  0  0  0  0  0  0
   -0.9049    1.6610   -0.4587 C   0  0  0  0  0  0  0  0  0  0  0  0
   -1.5012    2.3095    0.3799 O   0  0  0  0  0  0  0  0  0  0  0  0
    0.2992   -0.2918   -1.0883 O   0  0  0  0  0  0  0  0  0  0  0  0
    1.3717   -0.9700   -0.5066 C   0  0  0  0  0  0  0  0  0  0  0  0
    1.8242    0.0539    0.5015 C   0  0  0  0  0  0  0  0  0  0  0  0
    3.0006    0.3237    0.8067 O   0  0  0  0  0  0  0  0  0  0  0  0
    0.6226    0.5796    0.9654 O   0  0  0  0  0  0  0  0  0  0  0  0
   -2.4146   -0.1434    0.0531 H   0  0  0  0  0  0  0  0  0  0  0  0
   -1.4657   -0.6827    1.5413 H   0  0  0  0  0  0  0  0  0  0  0  0
   -1.3892   -1.5866   -0.0432 H   0  0  0  0  0  0  0  0  0  0  0  0
   -0.7871    2.0406   -1.4631 H   0  0  0  0  0  0  0  0  0  0  0  0
    2.1536   -1.2341   -1.2104 H   0  0  0  0  0  0  0  0  0  0  0  0
    1.0019   -1.8292    0.1123 H   0  0  0  0  0  0  0  0  0  0  0  0
  1  2  1  0
  2  3  1  0
  3  4  2  0
  2  5  1  0
  5  6  1  0
  6  7  1  0
  7  8  2  0
  7  9  1  0
  9  2  1  0
  1 10  1  0
  1 11  1  0
  1 12  1  0
  3 13  1  0
  6 14  1  0
  6 15  1  0
M  END
