
     RDKit          3D

 21 21  0  0  0  0  0  0  0  0999 V2000
   -2.0397   -0.8714   -0.2121 C   0  0  0  0  0  0  0  0  0  0  0  0
   -0.9378    0.1435   -0.5318 C   0  0  0  0  0  0  0  0  0  0  0  0
   -1.0274    0.7340   -1.7645 O   0  0  0  0  0  0  0  0  0  0  0  0
   -0.7925    1.1192    0.6441 C   0  0  0  0  0  0  0  0  0  0  0  0
    0.0980    0.0490    1.2885 C   0  0  0  0  0  0  0  0  0  0  0  0
    0.4072   -0.4104   -0.1389 C   0  0  0  0  0  0  0  0  0  0  0  0
    1.6000    0.3056   -0.6563 C   0  0  0  0  0  0  0  0  0  0  0  0
    2.8230   -0.3805   -0.1682 C   0  0  0  0  0  0  0  0  0  0  0  0
    2.7577   -1.3671    0.5396 O   0  0  0  0  0  0  0  0  0  0  0  0
   -2.7350   -0.4420    0.5661 H   0  0  0  0  0  0  0  0  0  0  0  0
   -1.6150   -1.7831    0.2725 H   0  0  0  0  0  0  0  0  0  0  0  0
   -2.5841   -1.1844   -1.1185 H   0  0  0  0  0  0  0  0  0  0  0  0
   -1.9876    0.7725   -2.0127 H   0  0  0  0  0  0  0  0  0  0  0  0
   -0.2320    2.0267    0.4060 H   0  0  0  0  0  0  0  0  0  0  0  0
   -1.7629    1.2590    1.1178 H   0  0  0  0  0  0  0  0  0  0  0  0
    0.9295    0.5396    1.8033 H   0  0  0  0  0  0  0  0  0  0  0  0
   -0.4470   -0.7390    1.8099 H   0  0  0  0  0  0  0  0  0  0  0  0
    0.5144   -1.5056   -0.2400 H   0  0  0  0  0  0  0  0  0  0  0  0
    1.5806    1.3673   -0.2874 H   0  0  0  0  0  0  0  0  0  0  0  0
    1.6437    0.3853   -1.7688 H   0  0  0  0  0  0  0  0  0  0  0  0
    3.8072   -0.0181   -0.4312 H   0  0  0  0  0  0  0  0  0  0  0  0
  1  2  1  0
  2  3  1  0
  2  4  1  0
  4  5  1  0
  5  6  1  0
  6  7  1  0
  7  8  1  0
  8  9  2  0
  6  2  1  0
  1 10  1  0
  1 11  1  0
  1 12  1  0
  3 13  1  0
  4 14  1  0
  4 15  1  0
  5 16  1  0
  5 17  1  0
  6 18  1  0
  7 19  1  0
  7 20  1  0
  8 21  1  0
M  END
