
     RDKit          3D

 17 17  0  0  0  0  0  0  0  0999 V2000
    0.2993    1.5332   -0.0353 C   0  0  0  0  0  0  0  0  0  0  0  0
   -0.0072    0.0783   -0.1059 C   0  0  0  0  0  0  0  0  0  0  0  0
    1.0692   -0.8291   -0.5981 C   0  0  0  0  0  0  0  0  0  0  0  0
    2.1961   -0.7750    0.1843 O   0  0  0  0  0  0  0  0  0  0  0  0
   -1.3563   -0.2863   -0.7103 C   0  0  0  0  0  0  0  0  0  0  0  0
   -1.9193    0.1595    0.5076 O   0  0  0  0  0  0  0  0  0  0  0  0
   -0.7597   -0.3757    1.1180 C   0  0  0  0  0  0  0  0  0  0  0  0
    0.6494    1.9691   -0.9945 H   0  0  0  0  0  0  0  0  0  0  0  0
   -0.6792    2.0574    0.1758 H   0  0  0  0  0  0  0  0  0  0  0  0
    0.9533    1.7894    0.8202 H   0  0  0  0  0  0  0  0  0  0  0  0
    1.3001   -0.5987   -1.6611 H   0  0  0  0  0  0  0  0  0  0  0  0
    0.6502   -1.8671   -0.6086 H   0  0  0  0  0  0  0  0  0  0  0  0
    2.0044   -0.4180    1.0771 H   0  0  0  0  0  0  0  0  0  0  0  0
   -1.4465   -1.3805   -0.7669 H   0  0  0  0  0  0  0  0  0  0  0  0
   -1.6158    0.2988   -1.5865 H   0  0  0  0  0  0  0  0  0  0  0  0
   -0.8548   -1.4702    1.1283 H   0  0  0  0  0  0  0  0  0  0  0  0
   -0.4832    0.1148    2.0561 H   0  0  0  0  0  0  0  0  0  0  0  0
  1  2  1  0
  2  3  1  0
  3  4  1  0
  2  5  1  0
  5  6  1  0
  6  7  1  0
  7  2  1  0
  1  8  1  0
  1  9  1  0
  1 10  1  0
  3 11  1  0
  3 12  1  0
  4 13  1  0
  5 14  1  0
  5 15  1  0
  7 16  1  0
  7 17  1  0
M  END
