
     RDKit          3D

 25 26  0  0  0  0  0  0  0  0999 V2000
   -0.3204   -1.4326   -1.1133 C   0  0  0  0  0  0  0  0  0  0  0  0
    0.1283   -0.2351   -0.2981 C   0  0  0  0  0  0  0  0  0  0  0  0
    1.5994   -0.2058   -0.0694 C   0  0  0  0  0  0  0  0  0  0  0  0
    2.1652    0.9076    0.7097 C   0  0  0  0  0  0  0  0  0  0  0  0
    2.2019   -0.5016    1.2513 C   0  0  0  0  0  0  0  0  0  0  0  0
   -0.6882   -0.2506    0.9712 C   0  0  0  0  0  0  0  0  0  0  0  0
   -2.0504    0.1521    0.4993 C   0  0  0  0  0  0  0  0  0  0  0  0
   -1.8939    0.7970   -0.8556 C   0  0  0  0  0  0  0  0  0  0  0  0
   -0.4015    1.0137   -0.9768 C   0  0  0  0  0  0  0  0  0  0  0  0
   -1.3749   -1.6999   -0.8837 H   0  0  0  0  0  0  0  0  0  0  0  0
    0.2824   -2.3399   -0.8560 H   0  0  0  0  0  0  0  0  0  0  0  0
   -0.1946   -1.1493   -2.1811 H   0  0  0  0  0  0  0  0  0  0  0  0
    2.2037   -0.5632   -0.9438 H   0  0  0  0  0  0  0  0  0  0  0  0
    1.5492    1.5943    1.3070 H   0  0  0  0  0  0  0  0  0  0  0  0
    3.1122    1.3659    0.3421 H   0  0  0  0  0  0  0  0  0  0  0  0
    1.5852   -0.7668    2.1346 H   0  0  0  0  0  0  0  0  0  0  0  0
    3.2256   -0.9253    1.3031 H   0  0  0  0  0  0  0  0  0  0  0  0
   -0.2458    0.4359    1.7070 H   0  0  0  0  0  0  0  0  0  0  0  0
   -0.6615   -1.2684    1.4239 H   0  0  0  0  0  0  0  0  0  0  0  0
   -2.5416    0.9060    1.1574 H   0  0  0  0  0  0  0  0  0  0  0  0
   -2.7305   -0.7284    0.3539 H   0  0  0  0  0  0  0  0  0  0  0  0
   -2.4592    1.7402   -0.9434 H   0  0  0  0  0  0  0  0  0  0  0  0
   -2.2620    0.1305   -1.6793 H   0  0  0  0  0  0  0  0  0  0  0  0
   -0.0624    1.1135   -2.0143 H   0  0  0  0  0  0  0  0  0  0  0  0
   -0.1660    1.9101   -0.3456 H   0  0  0  0  0  0  0  0  0  0  0  0
  1  2  1  0
  2  3  1  0
  3  4  1  0
  4  5  1  0
  2  6  1  0
  6  7  1  0
  7  8  1  0
  8  9  1  0
  9  2  1  0
  5  3  1  0
  1 10  1  0
  1 11  1  0
  1 12  1  0
  3 13  1  0
  4 14  1  0
  4 15  1  0
  5 16  1  0
  5 17  1  0
  6 18  1  0
  6 19  1  0
  7 20  1  0
  7 21  1  0
  8 22  1  0
  8 23  1  0
  9 24  1  0
  9 25  1  0
M  END
