
     RDKit          3D

 21 22  0  0  0  0  0  0  0  0999 V2000
    0.0137    0.2993    1.4791 C   0  0  0  0  0  0  0  0  0  0  0  0
   -0.1286    0.1670   -0.0092 C   0  0  0  0  0  0  0  0  0  0  0  0
    1.1204    0.4477   -0.8082 C   0  0  0  0  0  0  0  0  0  0  0  0
    2.2229   -0.4884   -0.4282 C   0  0  0  0  0  0  0  0  0  0  0  0
    2.5876   -0.4132    0.8954 O   0  0  0  0  0  0  0  0  0  0  0  0
   -1.4058    0.7298   -0.5752 C   0  0  0  0  0  0  0  0  0  0  0  0
   -2.7089    0.2686    0.0141 C   0  0  0  0  0  0  0  0  0  0  0  0
   -2.2932   -1.0820   -0.0236 O   0  0  0  0  0  0  0  0  0  0  0  0
   -1.1232   -0.7016   -0.6348 C   0  0  0  0  0  0  0  0  0  0  0  0
    0.6316    1.1706    1.7604 H   0  0  0  0  0  0  0  0  0  0  0  0
   -0.9964    0.4004    1.9263 H   0  0  0  0  0  0  0  0  0  0  0  0
    0.4714   -0.6596    1.8497 H   0  0  0  0  0  0  0  0  0  0  0  0
    1.4790    1.4868   -0.6361 H   0  0  0  0  0  0  0  0  0  0  0  0
    0.9352    0.3568   -1.8887 H   0  0  0  0  0  0  0  0  0  0  0  0
    1.9184   -1.5570   -0.6264 H   0  0  0  0  0  0  0  0  0  0  0  0
    3.1175   -0.3265   -1.0541 H   0  0  0  0  0  0  0  0  0  0  0  0
    2.8611   -1.2656    1.2959 H   0  0  0  0  0  0  0  0  0  0  0  0
   -1.3792    1.4049   -1.4323 H   0  0  0  0  0  0  0  0  0  0  0  0
   -3.5886    0.4550   -0.6230 H   0  0  0  0  0  0  0  0  0  0  0  0
   -2.8931    0.5475    1.0716 H   0  0  0  0  0  0  0  0  0  0  0  0
   -0.8417   -1.2404   -1.5526 H   0  0  0  0  0  0  0  0  0  0  0  0
  1  2  1  0
  2  3  1  0
  3  4  1  0
  4  5  1  0
  2  6  1  0
  6  7  1  0
  7  8  1  0
  8  9  1  0
  9  2  1  0
  9  6  1  0
  1 10  1  0
  1 11  1  0
  1 12  1  0
  3 13  1  0
  3 14  1  0
  4 15  1  0
  4 16  1  0
  5 17  1  0
  6 18  1  0
  7 19  1  0
  7 20  1  0
  9 21  1  0
M  END
