
     RDKit          3D

 21 21  0  0  0  0  0  0  0  0999 V2000
   -1.7935   -0.6243    1.0491 C   0  0  0  0  0  0  0  0  0  0  0  0
   -0.9245    0.1854    0.1327 C   0  0  0  0  0  0  0  0  0  0  0  0
   -1.3704    0.2302   -1.3305 C   0  0  0  0  0  0  0  0  0  0  0  0
   -0.1410    1.3532    0.5956 C   0  0  0  0  0  0  0  0  0  0  0  0
    0.5721    0.0888    0.4032 C   0  0  0  0  0  0  0  0  0  0  0  0
    0.9648   -0.6231    1.5578 O   0  0  0  0  0  0  0  0  0  0  0  0
    1.3769   -0.2550   -0.8011 C   0  0  0  0  0  0  0  0  0  0  0  0
    2.8364   -0.3478   -0.5131 C   0  0  0  0  0  0  0  0  0  0  0  0
    3.5395    0.6538   -0.4255 O   0  0  0  0  0  0  0  0  0  0  0  0
   -1.2584   -1.6112    1.1892 H   0  0  0  0  0  0  0  0  0  0  0  0
   -1.9749   -0.1426    2.0273 H   0  0  0  0  0  0  0  0  0  0  0  0
   -2.7672   -0.9192    0.5686 H   0  0  0  0  0  0  0  0  0  0  0  0
   -2.4285    0.5781   -1.3062 H   0  0  0  0  0  0  0  0  0  0  0  0
   -0.8058    0.9906   -1.8953 H   0  0  0  0  0  0  0  0  0  0  0  0
   -1.3223   -0.7731   -1.7674 H   0  0  0  0  0  0  0  0  0  0  0  0
    0.0421    2.1799   -0.1261 H   0  0  0  0  0  0  0  0  0  0  0  0
   -0.3270    1.6744    1.6533 H   0  0  0  0  0  0  0  0  0  0  0  0
    0.1997   -0.5599    2.1841 H   0  0  0  0  0  0  0  0  0  0  0  0
    1.2089    0.4574   -1.6424 H   0  0  0  0  0  0  0  0  0  0  0  0
    1.0154   -1.2409   -1.1907 H   0  0  0  0  0  0  0  0  0  0  0  0
    3.3578   -1.2947   -0.3627 H   0  0  0  0  0  0  0  0  0  0  0  0
  1  2  1  0
  2  3  1  0
  2  4  1  0
  4  5  1  0
  5  6  1  0
  5  7  1  0
  7  8  1  0
  8  9  2  0
  5  2  1  0
  1 10  1  0
  1 11  1  0
  1 12  1  0
  3 13  1  0
  3 14  1  0
  3 15  1  0
  4 16  1  0
  4 17  1  0
  6 18  1  0
  7 19  1  0
  7 20  1  0
  8 21  1  0
M  END
