
     RDKit          3D

 23 23  0  0  0  0  0  0  0  0999 V2000
   -1.6103   -1.5764    0.3468 C   0  0  0  0  0  0  0  0  0  0  0  0
   -0.8884   -0.2760    0.1050 C   0  0  0  0  0  0  0  0  0  0  0  0
   -1.8326    0.8756   -0.1023 C   0  0  0  0  0  0  0  0  0  0  0  0
   -1.1386    2.0545   -0.3216 O   0  0  0  0  0  0  0  0  0  0  0  0
    0.1959   -0.0633    1.1248 C   0  0  0  0  0  0  0  0  0  0  0  0
    1.0982    0.3955   -0.0045 C   0  0  0  0  0  0  0  0  0  0  0  0
    2.4918   -0.1457    0.1429 C   0  0  0  0  0  0  0  0  0  0  0  0
    3.2738    0.3116   -0.9261 O   0  0  0  0  0  0  0  0  0  0  0  0
    0.1992   -0.3515   -0.9555 C   0  0  0  0  0  0  0  0  0  0  0  0
   -1.3422   -2.0223    1.3144 H   0  0  0  0  0  0  0  0  0  0  0  0
   -2.7127   -1.3904    0.3813 H   0  0  0  0  0  0  0  0  0  0  0  0
   -1.3523   -2.3265   -0.4314 H   0  0  0  0  0  0  0  0  0  0  0  0
   -2.4061    0.6633   -1.0295 H   0  0  0  0  0  0  0  0  0  0  0  0
   -2.4674    1.0064    0.7893 H   0  0  0  0  0  0  0  0  0  0  0  0
   -1.7725    2.7869   -0.5137 H   0  0  0  0  0  0  0  0  0  0  0  0
    0.5378   -1.0092    1.6110 H   0  0  0  0  0  0  0  0  0  0  0  0
   -0.0465    0.7308    1.8551 H   0  0  0  0  0  0  0  0  0  0  0  0
    1.1202    1.4817   -0.1385 H   0  0  0  0  0  0  0  0  0  0  0  0
    2.9436    0.2803    1.0648 H   0  0  0  0  0  0  0  0  0  0  0  0
    2.5282   -1.2444    0.2439 H   0  0  0  0  0  0  0  0  0  0  0  0
    2.8015    0.9740   -1.4693 H   0  0  0  0  0  0  0  0  0  0  0  0
    0.5150   -1.3643   -1.2380 H   0  0  0  0  0  0  0  0  0  0  0  0
   -0.1356    0.2093   -1.8490 H   0  0  0  0  0  0  0  0  0  0  0  0
  1  2  1  0
  2  3  1  0
  3  4  1  0
  2  5  1  0
  5  6  1  0
  6  7  1  0
  7  8  1  0
  6  9  1  0
  9  2  1  0
  1 10  1  0
  1 11  1  0
  1 12  1  0
  3 13  1  0
  3 14  1  0
  4 15  1  0
  5 16  1  0
  5 17  1  0
  6 18  1  0
  7 19  1  0
  7 20  1  0
  8 21  1  0
  9 22  1  0
  9 23  1  0
M  END
