
     RDKit          3D

 23 24  0  0  0  0  0  0  0  0999 V2000
   -1.3926   -1.1831    0.9345 C   0  0  0  0  0  0  0  0  0  0  0  0
   -0.9556    0.0367    0.2070 C   0  0  0  0  0  0  0  0  0  0  0  0
   -2.1103    1.0144    0.0526 C   0  0  0  0  0  0  0  0  0  0  0  0
   -0.0992   -0.1431   -1.0059 C   0  0  0  0  0  0  0  0  0  0  0  0
    0.3554    1.2680   -0.7791 C   0  0  0  0  0  0  0  0  0  0  0  0
    0.3540    0.6493    0.5997 C   0  0  0  0  0  0  0  0  0  0  0  0
    1.0308   -0.5058   -0.0698 C   0  0  0  0  0  0  0  0  0  0  0  0
    2.4169   -0.2315   -0.5990 C   0  0  0  0  0  0  0  0  0  0  0  0
    0.9637   -1.7270    0.5304 O   0  0  0  0  0  0  0  0  0  0  0  0
   -0.8704   -1.3231    1.9206 H   0  0  0  0  0  0  0  0  0  0  0  0
   -2.4861   -1.1376    1.2201 H   0  0  0  0  0  0  0  0  0  0  0  0
   -1.3285   -2.1243    0.3138 H   0  0  0  0  0  0  0  0  0  0  0  0
   -2.4529    0.9557   -0.9869 H   0  0  0  0  0  0  0  0  0  0  0  0
   -1.8611    2.0269    0.4030 H   0  0  0  0  0  0  0  0  0  0  0  0
   -2.9923    0.6917    0.6800 H   0  0  0  0  0  0  0  0  0  0  0  0
   -0.3255   -0.5860   -1.8714 H   0  0  0  0  0  0  0  0  0  0  0  0
   -0.3487    2.0693   -0.9651 H   0  0  0  0  0  0  0  0  0  0  0  0
    1.3703    1.5273   -1.0817 H   0  0  0  0  0  0  0  0  0  0  0  0
    0.5966    1.1001    1.4572 H   0  0  0  0  0  0  0  0  0  0  0  0
    2.4495   -0.0944   -1.6938 H   0  0  0  0  0  0  0  0  0  0  0  0
    2.8841    0.6314   -0.0469 H   0  0  0  0  0  0  0  0  0  0  0  0
    3.1108   -1.0946   -0.3872 H   0  0  0  0  0  0  0  0  0  0  0  0
    1.6911   -1.8204    1.1679 H   0  0  0  0  0  0  0  0  0  0  0  0
  1  2  1  0
  2  3  1  0
  2  4  1  0
  4  5  1  0
  5  6  1  0
  6  7  1  0
  7  8  1  0
  7  9  1  0
  6  2  1  0
  7  4  1  0
  1 10  1  0
  1 11  1  0
  1 12  1  0
  3 13  1  0
  3 14  1  0
  3 15  1  0
  4 16  1  0
  5 17  1  0
  5 18  1  0
  6 19  1  0
  8 20  1  0
  8 21  1  0
  8 22  1  0
  9 23  1  0
M  END
