
     RDKit          3D

 22 23  0  0  0  0  0  0  0  0999 V2000
    1.3097   -1.1432    0.7237 C   0  0  0  0  0  0  0  0  0  0  0  0
    0.8663    0.1694    0.0745 C   0  0  0  0  0  0  0  0  0  0  0  0
    1.9784    1.1398   -0.1802 C   0  0  0  0  0  0  0  0  0  0  0  0
    0.1067   -0.1604   -1.1957 C   0  0  0  0  0  0  0  0  0  0  0  0
   -1.1700    0.0411   -0.3830 C   0  0  0  0  0  0  0  0  0  0  0  0
   -2.0073   -1.1296   -0.0150 C   0  0  0  0  0  0  0  0  0  0  0  0
   -1.4265    1.4130    0.0506 C   0  0  0  0  0  0  0  0  0  0  0  0
   -0.3460    0.7081    0.7543 C   0  0  0  0  0  0  0  0  0  0  0  0
    1.5726   -1.9021   -0.0287 H   0  0  0  0  0  0  0  0  0  0  0  0
    0.4381   -1.5798    1.2942 H   0  0  0  0  0  0  0  0  0  0  0  0
    2.0946   -0.9772    1.4873 H   0  0  0  0  0  0  0  0  0  0  0  0
    1.7525    1.7522   -1.0924 H   0  0  0  0  0  0  0  0  0  0  0  0
    2.9196    0.6021   -0.3994 H   0  0  0  0  0  0  0  0  0  0  0  0
    2.1774    1.8067    0.6966 H   0  0  0  0  0  0  0  0  0  0  0  0
    0.2277   -1.1798   -1.5745 H   0  0  0  0  0  0  0  0  0  0  0  0
    0.1596    0.6138   -1.9866 H   0  0  0  0  0  0  0  0  0  0  0  0
   -1.3881   -2.0549   -0.2039 H   0  0  0  0  0  0  0  0  0  0  0  0
   -2.3210   -1.0912    1.0291 H   0  0  0  0  0  0  0  0  0  0  0  0
   -2.8454   -1.1999   -0.7439 H   0  0  0  0  0  0  0  0  0  0  0  0
   -2.3472    1.5992    0.6197 H   0  0  0  0  0  0  0  0  0  0  0  0
   -1.2229    2.2118   -0.7036 H   0  0  0  0  0  0  0  0  0  0  0  0
   -0.5288    0.3609    1.7769 H   0  0  0  0  0  0  0  0  0  0  0  0
  1  2  1  0
  2  3  1  0
  2  4  1  0
  4  5  1  0
  5  6  1  0
  5  7  1  0
  7  8  1  0
  8  2  1  0
  8  5  1  0
  1  9  1  0
  1 10  1  0
  1 11  1  0
  3 12  1  0
  3 13  1  0
  3 14  1  0
  4 15  1  0
  4 16  1  0
  6 17  1  0
  6 18  1  0
  6 19  1  0
  7 20  1  0
  7 21  1  0
  8 22  1  0
M  END
