
     RDKit          3D

 14 14  0  0  0  0  0  0  0  0999 V2000
   -1.5908    0.7474    0.3264 C   0  0  0  0  0  0  0  0  0  0  0  0
   -0.3113   -0.0460    0.1542 C   0  0  0  0  0  0  0  0  0  0  0  0
    0.8207    0.7300   -0.3896 C   0  0  0  0  0  0  0  0  0  0  0  0
    0.6703    1.8241   -0.9950 O   0  0  0  0  0  0  0  0  0  0  0  0
    2.1895    0.2396   -0.2380 C   0  0  0  0  0  0  0  0  0  0  0  0
    2.4428   -0.8609    0.3620 O   0  0  0  0  0  0  0  0  0  0  0  0
   -0.4536   -1.4816   -0.0859 C   0  0  0  0  0  0  0  0  0  0  0  0
   -0.0462   -0.9909    1.1672 O   0  0  0  0  0  0  0  0  0  0  0  0
   -2.4974    0.1358    0.2852 H   0  0  0  0  0  0  0  0  0  0  0  0
   -1.6023    1.5195   -0.4721 H   0  0  0  0  0  0  0  0  0  0  0  0
   -1.4802    1.2969    1.3038 H   0  0  0  0  0  0  0  0  0  0  0  0
    3.0498    0.7791   -0.6234 H   0  0  0  0  0  0  0  0  0  0  0  0
   -1.4765   -1.9035   -0.0678 H   0  0  0  0  0  0  0  0  0  0  0  0
    0.2853   -1.9896   -0.7271 H   0  0  0  0  0  0  0  0  0  0  0  0
  1  2  1  0
  2  3  1  0
  3  4  2  0
  3  5  1  0
  5  6  2  0
  2  7  1  0
  7  8  1  0
  8  2  1  0
  1  9  1  0
  1 10  1  0
  1 11  1  0
  5 12  1  0
  7 13  1  0
  7 14  1  0
M  END
