
     RDKit          3D

 21 23  0  0  0  0  0  0  0  0999 V2000
   -1.5619   -1.3391   -0.5010 C   0  0  0  0  0  0  0  0  0  0  0  0
   -0.8672   -0.2187    0.1927 C   0  0  0  0  0  0  0  0  0  0  0  0
   -1.8359    0.7999    0.7337 C   0  0  0  0  0  0  0  0  0  0  0  0
   -0.0840   -0.7747    1.2330 O   0  0  0  0  0  0  0  0  0  0  0  0
    1.1987   -0.4670    0.8636 C   0  0  0  0  0  0  0  0  0  0  0  0
    1.1365    0.9647    0.4431 C   0  0  0  0  0  0  0  0  0  0  0  0
    2.2234    0.6370   -0.5457 C   0  0  0  0  0  0  0  0  0  0  0  0
    1.2930   -0.5328   -0.6394 C   0  0  0  0  0  0  0  0  0  0  0  0
    0.1835    0.4644   -0.6012 C   0  0  0  0  0  0  0  0  0  0  0  0
   -0.9373   -2.2792   -0.5032 H   0  0  0  0  0  0  0  0  0  0  0  0
   -2.4576   -1.6139    0.1195 H   0  0  0  0  0  0  0  0  0  0  0  0
   -1.9031   -1.1104   -1.5160 H   0  0  0  0  0  0  0  0  0  0  0  0
   -1.2911    1.6116    1.2445 H   0  0  0  0  0  0  0  0  0  0  0  0
   -2.6152    0.3332    1.3640 H   0  0  0  0  0  0  0  0  0  0  0  0
   -2.3534    1.2418   -0.1424 H   0  0  0  0  0  0  0  0  0  0  0  0
    2.0264   -0.8149    1.4450 H   0  0  0  0  0  0  0  0  0  0  0  0
    1.0552    1.7820    1.0106 H   0  0  0  0  0  0  0  0  0  0  0  0
    3.1979    0.3642   -0.0942 H   0  0  0  0  0  0  0  0  0  0  0  0
    2.2590    1.2449   -1.4554 H   0  0  0  0  0  0  0  0  0  0  0  0
    1.3803   -1.3530   -1.2034 H   0  0  0  0  0  0  0  0  0  0  0  0
   -0.0474    1.0600   -1.4476 H   0  0  0  0  0  0  0  0  0  0  0  0
  1  2  1  0
  2  3  1  0
  2  4  1  0
  4  5  1  0
  5  6  1  0
  6  7  1  0
  7  8  1  0
  8  9  1  0
  9  2  1  0
  8  5  1  0
  9  6  1  0
  1 10  1  0
  1 11  1  0
  1 12  1  0
  3 13  1  0
  3 14  1  0
  3 15  1  0
  5 16  1  0
  6 17  1  0
  7 18  1  0
  7 19  1  0
  8 20  1  0
  9 21  1  0
M  END
