
     RDKit          3D

 21 21  0  0  0  0  0  0  0  0999 V2000
    2.1402   -0.3521   -0.1598 C   0  0  0  0  0  0  0  0  0  0  0  0
    0.6896   -0.3580    0.2187 C   0  0  0  0  0  0  0  0  0  0  0  0
    0.5030   -0.5460    1.5720 O   0  0  0  0  0  0  0  0  0  0  0  0
   -0.1031   -1.4026   -0.5342 C   0  0  0  0  0  0  0  0  0  0  0  0
   -1.3508   -1.4748    0.0012 O   0  0  0  0  0  0  0  0  0  0  0  0
   -2.0023   -0.3186    0.2381 C   0  0  0  0  0  0  0  0  0  0  0  0
   -1.3742    0.9491   -0.1439 C   0  0  0  0  0  0  0  0  0  0  0  0
    0.1033    0.9848   -0.2127 C   0  0  0  0  0  0  0  0  0  0  0  0
    0.6979    1.9514    0.5883 O   0  0  0  0  0  0  0  0  0  0  0  0
    2.6109    0.5174    0.3458 H   0  0  0  0  0  0  0  0  0  0  0  0
    2.2166   -0.1378   -1.2527 H   0  0  0  0  0  0  0  0  0  0  0  0
    2.6897   -1.2534    0.1441 H   0  0  0  0  0  0  0  0  0  0  0  0
    0.8226   -1.4456    1.8093 H   0  0  0  0  0  0  0  0  0  0  0  0
   -0.2132   -1.1249   -1.6195 H   0  0  0  0  0  0  0  0  0  0  0  0
    0.3708   -2.3957   -0.5312 H   0  0  0  0  0  0  0  0  0  0  0  0
   -2.2571   -0.2770    1.3381 H   0  0  0  0  0  0  0  0  0  0  0  0
   -3.0159   -0.3776   -0.2600 H   0  0  0  0  0  0  0  0  0  0  0  0
   -1.7719    1.2952   -1.1433 H   0  0  0  0  0  0  0  0  0  0  0  0
   -1.7007    1.7675    0.5638 H   0  0  0  0  0  0  0  0  0  0  0  0
    0.4744    1.1313   -1.2694 H   0  0  0  0  0  0  0  0  0  0  0  0
    0.4702    2.8674    0.3073 H   0  0  0  0  0  0  0  0  0  0  0  0
  1  2  1  0
  2  3  1  0
  2  4  1  0
  4  5  1  0
  5  6  1  0
  6  7  1  0
  7  8  1  0
  8  9  1  0
  8  2  1  0
  1 10  1  0
  1 11  1  0
  1 12  1  0
  3 13  1  0
  4 14  1  0
  4 15  1  0
  6 16  1  0
  6 17  1  0
  7 18  1  0
  7 19  1  0
  8 20  1  0
  9 21  1  0
M  END
