
     RDKit          3D

 21 22  0  0  0  0  0  0  0  0999 V2000
   -1.7617   -0.2859   -1.2787 C   0  0  0  0  0  0  0  0  0  0  0  0
   -0.9261   -0.0969   -0.0543 C   0  0  0  0  0  0  0  0  0  0  0  0
    0.5304   -0.4561   -0.2142 C   0  0  0  0  0  0  0  0  0  0  0  0
    1.3381    0.3052   -1.2608 C   0  0  0  0  0  0  0  0  0  0  0  0
    1.5902    0.4812    0.2205 C   0  0  0  0  0  0  0  0  0  0  0  0
    2.8257   -0.1094    0.7739 C   0  0  0  0  0  0  0  0  0  0  0  0
    3.1601   -1.2244    0.4482 O   0  0  0  0  0  0  0  0  0  0  0  0
   -1.2894    0.8864    0.9972 C   0  0  0  0  0  0  0  0  0  0  0  0
   -1.6075   -0.5213    1.2513 C   0  0  0  0  0  0  0  0  0  0  0  0
   -1.3894    0.2381   -2.1654 H   0  0  0  0  0  0  0  0  0  0  0  0
   -2.8351   -0.0082   -1.0655 H   0  0  0  0  0  0  0  0  0  0  0  0
   -1.7955   -1.3823   -1.4924 H   0  0  0  0  0  0  0  0  0  0  0  0
    0.7314   -1.5383   -0.0778 H   0  0  0  0  0  0  0  0  0  0  0  0
    0.7564    1.0525   -1.8084 H   0  0  0  0  0  0  0  0  0  0  0  0
    2.1201   -0.2543   -1.8023 H   0  0  0  0  0  0  0  0  0  0  0  0
    1.3650    1.4987    0.5725 H   0  0  0  0  0  0  0  0  0  0  0  0
    3.4236    0.4467    1.4609 H   0  0  0  0  0  0  0  0  0  0  0  0
   -0.4391    1.3428    1.5612 H   0  0  0  0  0  0  0  0  0  0  0  0
   -2.1176    1.6085    0.8347 H   0  0  0  0  0  0  0  0  0  0  0  0
   -2.6776   -0.7999    1.2143 H   0  0  0  0  0  0  0  0  0  0  0  0
   -1.0021   -1.1832    1.8851 H   0  0  0  0  0  0  0  0  0  0  0  0
  1  2  1  0
  2  3  1  0
  3  4  1  0
  4  5  1  0
  5  6  1  0
  6  7  2  0
  2  8  1  0
  8  9  1  0
  9  2  1  0
  5  3  1  0
  1 10  1  0
  1 11  1  0
  1 12  1  0
  3 13  1  0
  4 14  1  0
  4 15  1  0
  5 16  1  0
  6 17  1  0
  8 18  1  0
  8 19  1  0
  9 20  1  0
  9 21  1  0
M  END
