
     RDKit          3D

 17 18  0  0  0  0  0  0  0  0999 V2000
   -2.0235    0.4160    0.4630 C   0  0  0  0  0  0  0  0  0  0  0  0
   -0.8949   -0.4717   -0.0892 C   0  0  0  0  0  0  0  0  0  0  0  0
   -1.4388   -1.6942   -0.5379 O   0  0  0  0  0  0  0  0  0  0  0  0
    0.0966    0.1901   -0.8091 C   0  0  0  0  0  0  0  0  0  0  0  0
    1.1167    1.1857   -0.6728 C   0  0  0  0  0  0  0  0  0  0  0  0
    2.1705    0.6430   -0.0784 C   0  0  0  0  0  0  0  0  0  0  0  0
    1.7539   -0.7645    0.1715 C   0  0  0  0  0  0  0  0  0  0  0  0
    2.4830   -1.7480    0.0591 O   0  0  0  0  0  0  0  0  0  0  0  0
    0.3477   -0.5303    0.5461 C   0  0  0  0  0  0  0  0  0  0  0  0
   -2.4074    1.1022   -0.3213 H   0  0  0  0  0  0  0  0  0  0  0  0
   -2.8544   -0.1663    0.8512 H   0  0  0  0  0  0  0  0  0  0  0  0
   -1.5861    1.0696    1.2742 H   0  0  0  0  0  0  0  0  0  0  0  0
   -1.7286   -2.2266    0.2416 H   0  0  0  0  0  0  0  0  0  0  0  0
    0.3903   -0.4176   -1.7520 H   0  0  0  0  0  0  0  0  0  0  0  0
    1.0621    2.2426   -0.9999 H   0  0  0  0  0  0  0  0  0  0  0  0
    3.1519    1.1005    0.1627 H   0  0  0  0  0  0  0  0  0  0  0  0
    0.3609    0.0695    1.4913 H   0  0  0  0  0  0  0  0  0  0  0  0
  1  2  1  0
  2  3  1  0
  2  4  1  0
  4  5  1  0
  5  6  2  0
  6  7  1  0
  7  8  2  0
  7  9  1  0
  9  2  1  0
  9  4  1  0
  1 10  1  0
  1 11  1  0
  1 12  1  0
  3 13  1  0
  4 14  1  0
  5 15  1  0
  6 16  1  0
  9 17  1  0
M  END
