
     RDKit          3D

 19 19  0  0  0  0  0  0  0  0999 V2000
   -1.4179   -0.0414    0.9762 C   0  0  0  0  0  0  0  0  0  0  0  0
   -0.7368    0.1624   -0.3552 C   0  0  0  0  0  0  0  0  0  0  0  0
   -1.7555    0.0956   -1.3312 O   0  0  0  0  0  0  0  0  0  0  0  0
    0.2453   -0.9186   -0.6771 C   0  0  0  0  0  0  0  0  0  0  0  0
    1.3678   -0.9132    0.3690 C   0  0  0  0  0  0  0  0  0  0  0  0
    2.0132    0.4058    0.2773 C   0  0  0  0  0  0  0  0  0  0  0  0
    3.1641    0.5909    0.7054 O   0  0  0  0  0  0  0  0  0  0  0  0
    1.3224    1.4471   -0.2942 O   0  0  0  0  0  0  0  0  0  0  0  0
   -0.0680    1.4968   -0.3544 C   0  0  0  0  0  0  0  0  0  0  0  0
   -1.9302   -1.0348    1.0328 H   0  0  0  0  0  0  0  0  0  0  0  0
   -0.7612    0.1126    1.8390 H   0  0  0  0  0  0  0  0  0  0  0  0
   -2.2529    0.7113    1.0173 H   0  0  0  0  0  0  0  0  0  0  0  0
   -1.9028   -0.8690   -1.4887 H   0  0  0  0  0  0  0  0  0  0  0  0
   -0.2008   -1.9092   -0.7995 H   0  0  0  0  0  0  0  0  0  0  0  0
    0.7386   -0.6502   -1.6334 H   0  0  0  0  0  0  0  0  0  0  0  0
    0.9245   -1.1058    1.3746 H   0  0  0  0  0  0  0  0  0  0  0  0
    2.0546   -1.7599    0.1376 H   0  0  0  0  0  0  0  0  0  0  0  0
   -0.4200    2.1533    0.4935 H   0  0  0  0  0  0  0  0  0  0  0  0
   -0.3843    2.0264   -1.2889 H   0  0  0  0  0  0  0  0  0  0  0  0
  1  2  1  0
  2  3  1  0
  2  4  1  0
  4  5  1  0
  5  6  1  0
  6  7  2  0
  6  8  1  0
  8  9  1  0
  9  2  1  0
  1 10  1  0
  1 11  1  0
  1 12  1  0
  3 13  1  0
  4 14  1  0
  4 15  1  0
  5 16  1  0
  5 17  1  0
  9 18  1  0
  9 19  1  0
M  END
