
     RDKit          3D

 21 23  0  0  0  0  0  0  0  0999 V2000
    1.0783    1.5326    0.2754 C   0  0  0  0  0  0  0  0  0  0  0  0
    0.3120    0.2956   -0.1415 C   0  0  0  0  0  0  0  0  0  0  0  0
   -1.1468    0.5090   -0.2420 C   0  0  0  0  0  0  0  0  0  0  0  0
   -2.1586   -0.4666   -0.6171 C   0  0  0  0  0  0  0  0  0  0  0  0
   -2.0613   -0.0589    0.8292 C   0  0  0  0  0  0  0  0  0  0  0  0
    1.0420   -0.5284   -1.1061 C   0  0  0  0  0  0  0  0  0  0  0  0
    2.0610   -0.7873   -0.0231 C   0  0  0  0  0  0  0  0  0  0  0  0
    0.6913   -0.9665    0.5582 C   0  0  0  0  0  0  0  0  0  0  0  0
    0.3889   -1.6408   -0.5990 O   0  0  0  0  0  0  0  0  0  0  0  0
    0.3718    2.3870    0.2501 H   0  0  0  0  0  0  0  0  0  0  0  0
    1.8910    1.7890   -0.4334 H   0  0  0  0  0  0  0  0  0  0  0  0
    1.4584    1.4365    1.2965 H   0  0  0  0  0  0  0  0  0  0  0  0
   -1.4172    1.5888   -0.4641 H   0  0  0  0  0  0  0  0  0  0  0  0
   -1.8864   -1.4762   -0.9063 H   0  0  0  0  0  0  0  0  0  0  0  0
   -3.1128   -0.0900   -1.0934 H   0  0  0  0  0  0  0  0  0  0  0  0
   -2.8454    0.5745    1.2871 H   0  0  0  0  0  0  0  0  0  0  0  0
   -1.6669   -0.8233    1.5194 H   0  0  0  0  0  0  0  0  0  0  0  0
    1.2588   -0.3568   -2.0773 H   0  0  0  0  0  0  0  0  0  0  0  0
    2.6561    0.0538    0.3154 H   0  0  0  0  0  0  0  0  0  0  0  0
    2.6144   -1.7421   -0.1350 H   0  0  0  0  0  0  0  0  0  0  0  0
    0.4713   -1.2300    1.5070 H   0  0  0  0  0  0  0  0  0  0  0  0
  1  2  1  0
  2  3  1  0
  3  4  1  0
  4  5  1  0
  2  6  1  0
  6  7  1  0
  7  8  1  0
  8  9  1  0
  8  2  1  0
  5  3  1  0
  9  6  1  0
  1 10  1  0
  1 11  1  0
  1 12  1  0
  3 13  1  0
  4 14  1  0
  4 15  1  0
  5 16  1  0
  5 17  1  0
  6 18  1  0
  7 19  1  0
  7 20  1  0
  8 21  1  0
M  END
