
     RDKit          3D

 23 24  0  0  0  0  0  0  0  0999 V2000
    1.7023    0.5899    1.2100 C   0  0  0  0  0  0  0  0  0  0  0  0
    0.8671    0.1462    0.0007 C   0  0  0  0  0  0  0  0  0  0  0  0
    1.9142   -0.1354   -1.0868 C   0  0  0  0  0  0  0  0  0  0  0  0
    0.1241   -1.0921    0.3627 C   0  0  0  0  0  0  0  0  0  0  0  0
   -1.3631   -0.8687    0.3941 C   0  0  0  0  0  0  0  0  0  0  0  0
   -1.7408   -0.2560   -0.9625 C   0  0  0  0  0  0  0  0  0  0  0  0
   -1.2350    1.0507   -0.3600 C   0  0  0  0  0  0  0  0  0  0  0  0
   -1.7242    0.4742    0.9756 C   0  0  0  0  0  0  0  0  0  0  0  0
    0.1131    1.1929   -0.4182 O   0  0  0  0  0  0  0  0  0  0  0  0
    1.1734    0.4519    2.1526 H   0  0  0  0  0  0  0  0  0  0  0  0
    2.6104   -0.0780    1.2614 H   0  0  0  0  0  0  0  0  0  0  0  0
    1.9526    1.6405    1.0596 H   0  0  0  0  0  0  0  0  0  0  0  0
    2.4475    0.8298   -1.2635 H   0  0  0  0  0  0  0  0  0  0  0  0
    1.4702   -0.5047   -2.0070 H   0  0  0  0  0  0  0  0  0  0  0  0
    2.6711   -0.8282   -0.6545 H   0  0  0  0  0  0  0  0  0  0  0  0
    0.3671   -1.9167   -0.3419 H   0  0  0  0  0  0  0  0  0  0  0  0
    0.4277   -1.4803    1.3746 H   0  0  0  0  0  0  0  0  0  0  0  0
   -1.9596   -1.7186    0.7021 H   0  0  0  0  0  0  0  0  0  0  0  0
   -1.1941   -0.6352   -1.8139 H   0  0  0  0  0  0  0  0  0  0  0  0
   -2.8449   -0.1965   -1.0295 H   0  0  0  0  0  0  0  0  0  0  0  0
   -1.7813    1.9458   -0.6332 H   0  0  0  0  0  0  0  0  0  0  0  0
   -1.1814    0.8045    1.8523 H   0  0  0  0  0  0  0  0  0  0  0  0
   -2.8165    0.5842    1.0233 H   0  0  0  0  0  0  0  0  0  0  0  0
  1  2  1  0
  2  3  1  0
  2  4  1  0
  4  5  1  0
  5  6  1  0
  6  7  1  0
  7  8  1  0
  7  9  1  0
  9  2  1  0
  8  5  1  0
  1 10  1  0
  1 11  1  0
  1 12  1  0
  3 13  1  0
  3 14  1  0
  3 15  1  0
  4 16  1  0
  4 17  1  0
  5 18  1  0
  6 19  1  0
  6 20  1  0
  7 21  1  0
  8 22  1  0
  8 23  1  0
M  END
