
     RDKit          3D

 21 22  0  0  0  0  0  0  0  0999 V2000
    1.1879    0.8674    0.9255 C   0  0  0  0  0  0  0  0  0  0  0  0
    0.3599   -0.0088   -0.0073 C   0  0  0  0  0  0  0  0  0  0  0  0
    1.2193   -0.7455   -0.9762 C   0  0  0  0  0  0  0  0  0  0  0  0
    2.1111   -1.5660   -0.2409 O   0  0  0  0  0  0  0  0  0  0  0  0
   -0.6618   -0.8526    0.6561 C   0  0  0  0  0  0  0  0  0  0  0  0
   -1.3487    0.4668    0.9874 C   0  0  0  0  0  0  0  0  0  0  0  0
   -0.9086    0.6028   -0.4693 C   0  0  0  0  0  0  0  0  0  0  0  0
   -1.1164    1.5789   -1.2166 O   0  0  0  0  0  0  0  0  0  0  0  0
   -1.4608   -0.7923   -0.5916 C   0  0  0  0  0  0  0  0  0  0  0  0
    0.8023    1.9121    0.8197 H   0  0  0  0  0  0  0  0  0  0  0  0
    2.2133    0.8970    0.5110 H   0  0  0  0  0  0  0  0  0  0  0  0
    1.2379    0.5000    1.9432 H   0  0  0  0  0  0  0  0  0  0  0  0
    0.7021   -1.3771   -1.6753 H   0  0  0  0  0  0  0  0  0  0  0  0
    1.8804    0.0170   -1.4516 H   0  0  0  0  0  0  0  0  0  0  0  0
    3.0226   -1.5081   -0.5733 H   0  0  0  0  0  0  0  0  0  0  0  0
   -0.5436   -1.6125    1.2973 H   0  0  0  0  0  0  0  0  0  0  0  0
   -2.4386    0.3147    1.1010 H   0  0  0  0  0  0  0  0  0  0  0  0
   -0.8409    1.1071    1.7078 H   0  0  0  0  0  0  0  0  0  0  0  0
   -1.6460    2.3595   -0.9251 H   0  0  0  0  0  0  0  0  0  0  0  0
   -2.5695   -0.7731   -0.3643 H   0  0  0  0  0  0  0  0  0  0  0  0
   -1.2020   -1.3875   -1.4576 H   0  0  0  0  0  0  0  0  0  0  0  0
  1  2  1  0
  2  3  1  0
  3  4  1  0
  2  5  1  0
  5  6  1  0
  6  7  1  0
  7  8  1  0
  7  9  1  0
  7  2  1  0
  9  5  1  0
  1 10  1  0
  1 11  1  0
  1 12  1  0
  3 13  1  0
  3 14  1  0
  4 15  1  0
  5 16  1  0
  6 17  1  0
  6 18  1  0
  8 19  1  0
  9 20  1  0
  9 21  1  0
M  END
