
     RDKit          3D

 21 22  0  0  0  0  0  0  0  0999 V2000
   -1.6243    1.4991   -0.3192 C   0  0  0  0  0  0  0  0  0  0  0  0
   -0.8961    0.1745   -0.0215 C   0  0  0  0  0  0  0  0  0  0  0  0
   -1.9002   -0.8152    0.5967 C   0  0  0  0  0  0  0  0  0  0  0  0
    0.0404   -0.3988   -0.9202 C   0  0  0  0  0  0  0  0  0  0  0  0
    1.3631   -1.0699   -0.6311 C   0  0  0  0  0  0  0  0  0  0  0  0
    1.7289    0.4088   -0.3675 C   0  0  0  0  0  0  0  0  0  0  0  0
    2.8520    0.5128    0.4003 O   0  0  0  0  0  0  0  0  0  0  0  0
    0.4432    0.3226    0.4340 C   0  0  0  0  0  0  0  0  0  0  0  0
    0.7047   -0.5498    1.5247 O   0  0  0  0  0  0  0  0  0  0  0  0
   -2.1266    1.7713    0.6496 H   0  0  0  0  0  0  0  0  0  0  0  0
   -0.9298    2.2929   -0.5960 H   0  0  0  0  0  0  0  0  0  0  0  0
   -2.4160    1.3053   -1.0612 H   0  0  0  0  0  0  0  0  0  0  0  0
   -2.8862   -0.7016    0.0927 H   0  0  0  0  0  0  0  0  0  0  0  0
   -1.9863   -0.6589    1.6789 H   0  0  0  0  0  0  0  0  0  0  0  0
   -1.5790   -1.8626    0.4306 H   0  0  0  0  0  0  0  0  0  0  0  0
    0.2069    0.2649   -1.8334 H   0  0  0  0  0  0  0  0  0  0  0  0
    1.4306   -1.7342    0.2203 H   0  0  0  0  0  0  0  0  0  0  0  0
    1.8760   -1.4323   -1.5313 H   0  0  0  0  0  0  0  0  0  0  0  0
    1.6745    0.9739   -1.3008 H   0  0  0  0  0  0  0  0  0  0  0  0
    3.4177   -0.3014    0.2356 H   0  0  0  0  0  0  0  0  0  0  0  0
    0.6067   -0.0014    2.3187 H   0  0  0  0  0  0  0  0  0  0  0  0
  1  2  1  0
  2  3  1  0
  2  4  1  0
  4  5  1  0
  5  6  1  0
  6  7  1  0
  6  8  1  0
  8  9  1  0
  8  2  1  0
  8  4  1  0
  1 10  1  0
  1 11  1  0
  1 12  1  0
  3 13  1  0
  3 14  1  0
  3 15  1  0
  4 16  1  0
  5 17  1  0
  5 18  1  0
  6 19  1  0
  7 20  1  0
  9 21  1  0
M  END
