
     RDKit          3D

 16 16  0  0  0  0  0  0  0  0999 V2000
   -1.5773   -0.5205    0.5575 C   0  0  0  0  0  0  0  0  0  0  0  0
   -0.3210    0.0414   -0.0469 C   0  0  0  0  0  0  0  0  0  0  0  0
   -0.5426    1.3692   -0.6419 C   0  0  0  0  0  0  0  0  0  0  0  0
   -1.6164    1.5694   -1.1833 O   0  0  0  0  0  0  0  0  0  0  0  0
    0.9036   -0.0074    0.8423 C   0  0  0  0  0  0  0  0  0  0  0  0
    1.6475   -0.1638   -0.4915 C   0  0  0  0  0  0  0  0  0  0  0  0
    0.4269   -0.8593   -0.9481 C   0  0  0  0  0  0  0  0  0  0  0  0
    0.1627   -1.7494   -1.7054 O   0  0  0  0  0  0  0  0  0  0  0  0
   -1.3943   -1.1376    1.4333 H   0  0  0  0  0  0  0  0  0  0  0  0
   -2.2049    0.3498    0.8723 H   0  0  0  0  0  0  0  0  0  0  0  0
   -2.1369   -1.0363   -0.2558 H   0  0  0  0  0  0  0  0  0  0  0  0
    0.1859    2.1560   -0.6211 H   0  0  0  0  0  0  0  0  0  0  0  0
    0.9892   -0.9792    1.3833 H   0  0  0  0  0  0  0  0  0  0  0  0
    1.1403    0.8826    1.4075 H   0  0  0  0  0  0  0  0  0  0  0  0
    1.7692    0.8338   -0.9664 H   0  0  0  0  0  0  0  0  0  0  0  0
    2.5681   -0.7487   -0.4342 H   0  0  0  0  0  0  0  0  0  0  0  0
  1  2  1  0
  2  3  1  0
  3  4  2  0
  2  5  1  0
  5  6  1  0
  6  7  1  0
  7  8  2  0
  7  2  1  0
  1  9  1  0
  1 10  1  0
  1 11  1  0
  3 12  1  0
  5 13  1  0
  5 14  1  0
  6 15  1  0
  6 16  1  0
M  END
