
     RDKit          3D

 18 19  0  0  0  0  0  0  0  0999 V2000
   -2.2143    0.6606   -0.2111 C   0  0  0  0  0  0  0  0  0  0  0  0
   -1.0163   -0.0452    0.3619 C   0  0  0  0  0  0  0  0  0  0  0  0
   -0.9595   -0.1311    1.7592 O   0  0  0  0  0  0  0  0  0  0  0  0
   -0.4832   -1.1708   -0.4419 C   0  0  0  0  0  0  0  0  0  0  0  0
    0.2676    0.1607   -0.3137 C   0  0  0  0  0  0  0  0  0  0  0  0
    1.5448    0.0504    0.4531 C   0  0  0  0  0  0  0  0  0  0  0  0
    2.7911    0.2891   -0.3789 C   0  0  0  0  0  0  0  0  0  0  0  0
    2.3713    1.1220    0.6541 O   0  0  0  0  0  0  0  0  0  0  0  0
   -1.9673    1.2280   -1.1346 H   0  0  0  0  0  0  0  0  0  0  0  0
   -2.9381   -0.1319   -0.5181 H   0  0  0  0  0  0  0  0  0  0  0  0
   -2.6264    1.3230    0.5835 H   0  0  0  0  0  0  0  0  0  0  0  0
   -1.8718   -0.2545    2.1118 H   0  0  0  0  0  0  0  0  0  0  0  0
   -0.8955   -1.4082   -1.4419 H   0  0  0  0  0  0  0  0  0  0  0  0
   -0.1211   -2.0358    0.1371 H   0  0  0  0  0  0  0  0  0  0  0  0
    0.2852    0.7808   -1.2402 H   0  0  0  0  0  0  0  0  0  0  0  0
    1.5882   -0.7371    1.2291 H   0  0  0  0  0  0  0  0  0  0  0  0
    2.6658    0.7463   -1.3786 H   0  0  0  0  0  0  0  0  0  0  0  0
    3.5797   -0.4461   -0.2308 H   0  0  0  0  0  0  0  0  0  0  0  0
  1  2  1  0
  2  3  1  0
  2  4  1  0
  4  5  1  0
  5  6  1  0
  6  7  1  0
  7  8  1  0
  5  2  1  0
  8  6  1  0
  1  9  1  0
  1 10  1  0
  1 11  1  0
  3 12  1  0
  4 13  1  0
  4 14  1  0
  5 15  1  0
  6 16  1  0
  7 17  1  0
  7 18  1  0
M  END
