
     RDKit          3D

 21 22  0  0  0  0  0  0  0  0999 V2000
    1.2611    1.4979    0.1799 C   0  0  0  0  0  0  0  0  0  0  0  0
    0.6361    0.0969    0.2773 C   0  0  0  0  0  0  0  0  0  0  0  0
   -0.8326    0.1607    0.5066 C   0  0  0  0  0  0  0  0  0  0  0  0
   -1.2392    0.8070    1.6583 O   0  0  0  0  0  0  0  0  0  0  0  0
   -1.5506    0.7073   -0.7125 C   0  0  0  0  0  0  0  0  0  0  0  0
   -2.6396   -0.1094   -0.3338 O   0  0  0  0  0  0  0  0  0  0  0  0
   -1.6588   -1.0171    0.1366 C   0  0  0  0  0  0  0  0  0  0  0  0
    1.2690   -0.9506   -0.5669 C   0  0  0  0  0  0  0  0  0  0  0  0
    1.5082   -0.9130    0.9042 C   0  0  0  0  0  0  0  0  0  0  0  0
    0.8642    1.9816   -0.7293 H   0  0  0  0  0  0  0  0  0  0  0  0
    2.3492    1.4539    0.2431 H   0  0  0  0  0  0  0  0  0  0  0  0
    0.8439    2.0830    1.0482 H   0  0  0  0  0  0  0  0  0  0  0  0
   -1.0552    0.2372    2.4231 H   0  0  0  0  0  0  0  0  0  0  0  0
   -1.1370    0.2696   -1.6686 H   0  0  0  0  0  0  0  0  0  0  0  0
   -1.7481    1.7747   -0.7249 H   0  0  0  0  0  0  0  0  0  0  0  0
   -1.3061   -1.6110   -0.6994 H   0  0  0  0  0  0  0  0  0  0  0  0
   -2.0921   -1.6093    0.9638 H   0  0  0  0  0  0  0  0  0  0  0  0
    0.7027   -1.7790   -1.0098 H   0  0  0  0  0  0  0  0  0  0  0  0
    2.1643   -0.6729   -1.1960 H   0  0  0  0  0  0  0  0  0  0  0  0
    1.1234   -1.7863    1.4575 H   0  0  0  0  0  0  0  0  0  0  0  0
    2.5372   -0.6213    1.2640 H   0  0  0  0  0  0  0  0  0  0  0  0
  1  2  1  0
  2  3  1  0
  3  4  1  0
  3  5  1  0
  5  6  1  0
  6  7  1  0
  2  8  1  0
  8  9  1  0
  9  2  1  0
  7  3  1  0
  1 10  1  0
  1 11  1  0
  1 12  1  0
  4 13  1  0
  5 14  1  0
  5 15  1  0
  7 16  1  0
  7 17  1  0
  8 18  1  0
  8 19  1  0
  9 20  1  0
  9 21  1  0
M  END
