
     RDKit          3D

 21 21  0  0  0  0  0  0  0  0999 V2000
   -1.3084   -1.1546   -0.9873 C   0  0  0  0  0  0  0  0  0  0  0  0
   -1.0248   -0.0632   -0.0120 C   0  0  0  0  0  0  0  0  0  0  0  0
   -2.2223    0.4922    0.4576 O   0  0  0  0  0  0  0  0  0  0  0  0
   -0.1183    0.9894   -0.5786 C   0  0  0  0  0  0  0  0  0  0  0  0
    0.9836    0.4541    0.3317 C   0  0  0  0  0  0  0  0  0  0  0  0
    1.9934   -0.4200   -0.3553 C   0  0  0  0  0  0  0  0  0  0  0  0
    1.5609    1.5035    1.0187 O   0  0  0  0  0  0  0  0  0  0  0  0
   -0.0301   -0.3535    1.0701 C   0  0  0  0  0  0  0  0  0  0  0  0
   -0.4432    0.1706    2.2995 O   0  0  0  0  0  0  0  0  0  0  0  0
   -1.1968   -0.7404   -2.0184 H   0  0  0  0  0  0  0  0  0  0  0  0
   -2.3820   -1.4942   -0.9191 H   0  0  0  0  0  0  0  0  0  0  0  0
   -0.6973   -2.0574   -0.8701 H   0  0  0  0  0  0  0  0  0  0  0  0
   -2.3575    1.3470   -0.0009 H   0  0  0  0  0  0  0  0  0  0  0  0
    0.0996    0.8429   -1.6480 H   0  0  0  0  0  0  0  0  0  0  0  0
   -0.3993    2.0368   -0.3878 H   0  0  0  0  0  0  0  0  0  0  0  0
    2.8705   -0.5109    0.3272 H   0  0  0  0  0  0  0  0  0  0  0  0
    1.5868   -1.4382   -0.4723 H   0  0  0  0  0  0  0  0  0  0  0  0
    2.2675   -0.0030   -1.3476 H   0  0  0  0  0  0  0  0  0  0  0  0
    1.8793    2.1570    0.3235 H   0  0  0  0  0  0  0  0  0  0  0  0
    0.2142   -1.4359    1.2150 H   0  0  0  0  0  0  0  0  0  0  0  0
   -1.2756   -0.3221    2.5539 H   0  0  0  0  0  0  0  0  0  0  0  0
  1  2  1  0
  2  3  1  0
  2  4  1  0
  4  5  1  0
  5  6  1  0
  5  7  1  0
  5  8  1  0
  8  9  1  0
  8  2  1  0
  1 10  1  0
  1 11  1  0
  1 12  1  0
  3 13  1  0
  4 14  1  0
  4 15  1  0
  6 16  1  0
  6 17  1  0
  6 18  1  0
  7 19  1  0
  8 20  1  0
  9 21  1  0
M  END
