
     RDKit          3D

 21 21  0  0  0  0  0  0  0  0999 V2000
   -1.4591    1.3916    0.4692 C   0  0  0  0  0  0  0  0  0  0  0  0
   -0.9957   -0.0302    0.3824 C   0  0  0  0  0  0  0  0  0  0  0  0
   -1.3985   -0.8375    1.4494 O   0  0  0  0  0  0  0  0  0  0  0  0
   -1.0428   -0.5943   -1.0155 C   0  0  0  0  0  0  0  0  0  0  0  0
    0.2652   -0.4379   -0.2566 C   0  0  0  0  0  0  0  0  0  0  0  0
    0.8654   -1.7905    0.1636 C   0  0  0  0  0  0  0  0  0  0  0  0
    1.3076    0.5241   -0.7452 C   0  0  0  0  0  0  0  0  0  0  0  0
    1.8476    1.3866    0.3369 C   0  0  0  0  0  0  0  0  0  0  0  0
    1.6908    2.5840    0.3985 O   0  0  0  0  0  0  0  0  0  0  0  0
   -1.6332    1.8626   -0.5264 H   0  0  0  0  0  0  0  0  0  0  0  0
   -0.8564    2.0419    1.1151 H   0  0  0  0  0  0  0  0  0  0  0  0
   -2.4749    1.3707    0.9653 H   0  0  0  0  0  0  0  0  0  0  0  0
   -1.9354   -1.5805    1.0796 H   0  0  0  0  0  0  0  0  0  0  0  0
   -1.5102   -1.6041   -1.0628 H   0  0  0  0  0  0  0  0  0  0  0  0
   -1.2124    0.0786   -1.8672 H   0  0  0  0  0  0  0  0  0  0  0  0
    0.6141   -2.5287   -0.6252 H   0  0  0  0  0  0  0  0  0  0  0  0
    1.9761   -1.7560    0.1901 H   0  0  0  0  0  0  0  0  0  0  0  0
    0.4583   -2.1184    1.1207 H   0  0  0  0  0  0  0  0  0  0  0  0
    2.1643   -0.0494   -1.1523 H   0  0  0  0  0  0  0  0  0  0  0  0
    0.9022    1.1684   -1.5580 H   0  0  0  0  0  0  0  0  0  0  0  0
    2.4271    0.9190    1.1384 H   0  0  0  0  0  0  0  0  0  0  0  0
  1  2  1  0
  2  3  1  0
  2  4  1  0
  4  5  1  0
  5  6  1  0
  5  7  1  0
  7  8  1  0
  8  9  2  0
  5  2  1  0
  1 10  1  0
  1 11  1  0
  1 12  1  0
  3 13  1  0
  4 14  1  0
  4 15  1  0
  6 16  1  0
  6 17  1  0
  6 18  1  0
  7 19  1  0
  7 20  1  0
  8 21  1  0
M  END
