
     RDKit          3D

 19 19  0  0  0  0  0  0  0  0999 V2000
    1.8813   -0.7230   -0.4705 C   0  0  0  0  0  0  0  0  0  0  0  0
    1.1321    0.5617   -0.2637 C   0  0  0  0  0  0  0  0  0  0  0  0
   -0.0912    0.4787    0.6371 C   0  0  0  0  0  0  0  0  0  0  0  0
   -1.0361   -0.4918    0.0196 C   0  0  0  0  0  0  0  0  0  0  0  0
   -0.7886   -1.0703   -1.0250 O   0  0  0  0  0  0  0  0  0  0  0  0
   -2.3223   -0.7556    0.7106 C   0  0  0  0  0  0  0  0  0  0  0  0
   -3.0772   -1.6932   -0.0175 O   0  0  0  0  0  0  0  0  0  0  0  0
    1.8727    1.8177   -0.4280 C   0  0  0  0  0  0  0  0  0  0  0  0
    0.8892    1.3764   -1.3940 O   0  0  0  0  0  0  0  0  0  0  0  0
    2.9839   -0.5999   -0.4627 H   0  0  0  0  0  0  0  0  0  0  0  0
    1.6488   -1.4009    0.3846 H   0  0  0  0  0  0  0  0  0  0  0  0
    1.5736   -1.2667   -1.3829 H   0  0  0  0  0  0  0  0  0  0  0  0
    0.1904    0.1533    1.6602 H   0  0  0  0  0  0  0  0  0  0  0  0
   -0.5807    1.4863    0.6480 H   0  0  0  0  0  0  0  0  0  0  0  0
   -2.0584   -1.2566    1.6795 H   0  0  0  0  0  0  0  0  0  0  0  0
   -2.8848    0.1628    0.9218 H   0  0  0  0  0  0  0  0  0  0  0  0
   -3.7681   -1.2102   -0.5707 H   0  0  0  0  0  0  0  0  0  0  0  0
    2.8739    1.7628   -0.8515 H   0  0  0  0  0  0  0  0  0  0  0  0
    1.5617    2.6685    0.2051 H   0  0  0  0  0  0  0  0  0  0  0  0
  1  2  1  0
  2  3  1  0
  3  4  1  0
  4  5  2  0
  4  6  1  0
  6  7  1  0
  2  8  1  0
  8  9  1  0
  9  2  1  0
  1 10  1  0
  1 11  1  0
  1 12  1  0
  3 13  1  0
  3 14  1  0
  6 15  1  0
  6 16  1  0
  7 17  1  0
  8 18  1  0
  8 19  1  0
M  END
