
     RDKit          3D

 19 20  0  0  0  0  0  0  0  0999 V2000
   -2.1850    0.1006    1.0698 C   0  0  0  0  0  0  0  0  0  0  0  0
   -1.2110   -0.3613    0.0123 C   0  0  0  0  0  0  0  0  0  0  0  0
    0.2025    0.0652    0.2596 C   0  0  0  0  0  0  0  0  0  0  0  0
    0.8391    0.4556   -0.9356 O   0  0  0  0  0  0  0  0  0  0  0  0
    2.1998    0.2780   -0.7112 C   0  0  0  0  0  0  0  0  0  0  0  0
    2.2644   -0.3343    0.6499 C   0  0  0  0  0  0  0  0  0  0  0  0
    1.0127   -0.9610    0.7427 O   0  0  0  0  0  0  0  0  0  0  0  0
   -1.6891   -0.1626   -1.4075 C   0  0  0  0  0  0  0  0  0  0  0  0
   -1.5184   -1.4005   -0.8141 O   0  0  0  0  0  0  0  0  0  0  0  0
   -2.2094    1.2256    0.9726 H   0  0  0  0  0  0  0  0  0  0  0  0
   -1.7218   -0.1063    2.0596 H   0  0  0  0  0  0  0  0  0  0  0  0
   -3.1855   -0.3362    0.9501 H   0  0  0  0  0  0  0  0  0  0  0  0
    0.2472    0.8946    0.9870 H   0  0  0  0  0  0  0  0  0  0  0  0
    2.6893    1.2735   -0.7746 H   0  0  0  0  0  0  0  0  0  0  0  0
    2.5779   -0.4280   -1.4900 H   0  0  0  0  0  0  0  0  0  0  0  0
    3.0983   -1.0180    0.8155 H   0  0  0  0  0  0  0  0  0  0  0  0
    2.2296    0.4961    1.4084 H   0  0  0  0  0  0  0  0  0  0  0  0
   -2.6891    0.2432   -1.5981 H   0  0  0  0  0  0  0  0  0  0  0  0
   -0.9516    0.0759   -2.1963 H   0  0  0  0  0  0  0  0  0  0  0  0
  1  2  1  0
  2  3  1  0
  3  4  1  0
  4  5  1  0
  5  6  1  0
  6  7  1  0
  2  8  1  0
  8  9  1  0
  9  2  1  0
  7  3  1  0
  1 10  1  0
  1 11  1  0
  1 12  1  0
  3 13  1  0
  5 14  1  0
  5 15  1  0
  6 16  1  0
  6 17  1  0
  8 18  1  0
  8 19  1  0
M  END
