
     RDKit          3D

 18 19  0  0  0  0  0  0  0  0999 V2000
    1.8714   -0.5795   -0.3415 C   0  0  0  0  0  0  0  0  0  0  0  0
    0.5768    0.1292   -0.2923 C   0  0  0  0  0  0  0  0  0  0  0  0
    0.5826    1.3973   -0.8530 O   0  0  0  0  0  0  0  0  0  0  0  0
    0.0594    0.3123    1.1489 C   0  0  0  0  0  0  0  0  0  0  0  0
   -1.3410   -0.2266    0.8993 C   0  0  0  0  0  0  0  0  0  0  0  0
   -1.7361    0.2942   -0.4427 C   0  0  0  0  0  0  0  0  0  0  0  0
   -0.5950   -0.6653   -0.8037 C   0  0  0  0  0  0  0  0  0  0  0  0
   -1.0435   -1.4425    0.2581 O   0  0  0  0  0  0  0  0  0  0  0  0
    2.3610   -0.6053    0.6498 H   0  0  0  0  0  0  0  0  0  0  0  0
    2.5615    0.0174   -1.0057 H   0  0  0  0  0  0  0  0  0  0  0  0
    1.8299   -1.5909   -0.8154 H   0  0  0  0  0  0  0  0  0  0  0  0
    0.9929    2.0080   -0.1619 H   0  0  0  0  0  0  0  0  0  0  0  0
    0.0739    1.3559    1.4572 H   0  0  0  0  0  0  0  0  0  0  0  0
    0.5596   -0.3886    1.8340 H   0  0  0  0  0  0  0  0  0  0  0  0
   -2.0328   -0.2383    1.7056 H   0  0  0  0  0  0  0  0  0  0  0  0
   -1.4175    1.3146   -0.6911 H   0  0  0  0  0  0  0  0  0  0  0  0
   -2.7219   -0.0272   -0.7596 H   0  0  0  0  0  0  0  0  0  0  0  0
   -0.5812   -1.0648   -1.7859 H   0  0  0  0  0  0  0  0  0  0  0  0
  1  2  1  0
  2  3  1  0
  2  4  1  0
  4  5  1  0
  5  6  1  0
  6  7  1  0
  7  8  1  0
  7  2  1  0
  8  5  1  0
  1  9  1  0
  1 10  1  0
  1 11  1  0
  3 12  1  0
  4 13  1  0
  4 14  1  0
  5 15  1  0
  6 16  1  0
  6 17  1  0
  7 18  1  0
M  END
