
     RDKit          3D

 20 20  0  0  0  0  0  0  0  0999 V2000
   -1.3782   -1.0158    0.5815 C   0  0  0  0  0  0  0  0  0  0  0  0
   -0.8734    0.2283   -0.1055 C   0  0  0  0  0  0  0  0  0  0  0  0
   -1.6065    1.4860    0.2873 C   0  0  0  0  0  0  0  0  0  0  0  0
   -0.4479    0.0205   -1.5303 C   0  0  0  0  0  0  0  0  0  0  0  0
    0.5307    0.3829   -0.5026 C   0  0  0  0  0  0  0  0  0  0  0  0
    1.5088   -0.6140    0.0642 C   0  0  0  0  0  0  0  0  0  0  0  0
    2.8963   -0.3895   -0.3826 C   0  0  0  0  0  0  0  0  0  0  0  0
    3.5596    0.4988    0.1199 O   0  0  0  0  0  0  0  0  0  0  0  0
   -2.4316   -1.1651    0.2156 H   0  0  0  0  0  0  0  0  0  0  0  0
   -0.8353   -1.9333    0.2528 H   0  0  0  0  0  0  0  0  0  0  0  0
   -1.3768   -0.9174    1.6762 H   0  0  0  0  0  0  0  0  0  0  0  0
   -1.7916    1.4021    1.3959 H   0  0  0  0  0  0  0  0  0  0  0  0
   -0.9430    2.3732    0.1594 H   0  0  0  0  0  0  0  0  0  0  0  0
   -2.5331    1.5471   -0.2913 H   0  0  0  0  0  0  0  0  0  0  0  0
   -0.4594   -0.9993   -1.9676 H   0  0  0  0  0  0  0  0  0  0  0  0
   -0.8182    0.7872   -2.2325 H   0  0  0  0  0  0  0  0  0  0  0  0
    0.9437    1.4164   -0.5607 H   0  0  0  0  0  0  0  0  0  0  0  0
    1.4994   -0.4547    1.1806 H   0  0  0  0  0  0  0  0  0  0  0  0
    1.1805   -1.6677   -0.0835 H   0  0  0  0  0  0  0  0  0  0  0  0
    3.3759   -0.9854   -1.1545 H   0  0  0  0  0  0  0  0  0  0  0  0
  1  2  1  0
  2  3  1  0
  2  4  1  0
  4  5  1  0
  5  6  1  0
  6  7  1  0
  7  8  2  0
  5  2  1  0
  1  9  1  0
  1 10  1  0
  1 11  1  0
  3 12  1  0
  3 13  1  0
  3 14  1  0
  4 15  1  0
  4 16  1  0
  5 17  1  0
  6 18  1  0
  6 19  1  0
  7 20  1  0
M  END
