
     RDKit          3D

 23 23  0  0  0  0  0  0  0  0999 V2000
   -1.9546    0.9443    0.8441 C   0  0  0  0  0  0  0  0  0  0  0  0
   -1.0372   -0.0804    0.2610 C   0  0  0  0  0  0  0  0  0  0  0  0
   -1.7829   -1.2119   -0.3757 C   0  0  0  0  0  0  0  0  0  0  0  0
   -0.0265   -0.5501    1.0860 O   0  0  0  0  0  0  0  0  0  0  0  0
    1.0130   -0.1826    0.2469 C   0  0  0  0  0  0  0  0  0  0  0  0
    2.0706    0.6027    0.9328 C   0  0  0  0  0  0  0  0  0  0  0  0
    1.6228   -1.3184   -0.5537 C   0  0  0  0  0  0  0  0  0  0  0  0
    0.0252    0.5736   -0.5892 C   0  0  0  0  0  0  0  0  0  0  0  0
    0.1181    1.9451   -0.4161 O   0  0  0  0  0  0  0  0  0  0  0  0
   -2.0016    1.8544    0.1840 H   0  0  0  0  0  0  0  0  0  0  0  0
   -1.5883    1.2005    1.8522 H   0  0  0  0  0  0  0  0  0  0  0  0
   -3.0075    0.5573    0.8553 H   0  0  0  0  0  0  0  0  0  0  0  0
   -1.7065   -2.1050    0.3005 H   0  0  0  0  0  0  0  0  0  0  0  0
   -2.8844   -0.9871   -0.4110 H   0  0  0  0  0  0  0  0  0  0  0  0
   -1.4625   -1.4498   -1.4003 H   0  0  0  0  0  0  0  0  0  0  0  0
    2.2992    0.1507    1.9332 H   0  0  0  0  0  0  0  0  0  0  0  0
    3.0265    0.5441    0.3531 H   0  0  0  0  0  0  0  0  0  0  0  0
    1.8436    1.6561    1.1114 H   0  0  0  0  0  0  0  0  0  0  0  0
    2.0853   -2.0838    0.0920 H   0  0  0  0  0  0  0  0  0  0  0  0
    0.9197   -1.7296   -1.2767 H   0  0  0  0  0  0  0  0  0  0  0  0
    2.4692   -0.8596   -1.1308 H   0  0  0  0  0  0  0  0  0  0  0  0
   -0.0177    0.2970   -1.6538 H   0  0  0  0  0  0  0  0  0  0  0  0
   -0.0235    2.2325    0.5075 H   0  0  0  0  0  0  0  0  0  0  0  0
  1  2  1  0
  2  3  1  0
  2  4  1  0
  4  5  1  0
  5  6  1  0
  5  7  1  0
  5  8  1  0
  8  9  1  0
  8  2  1  0
  1 10  1  0
  1 11  1  0
  1 12  1  0
  3 13  1  0
  3 14  1  0
  3 15  1  0
  6 16  1  0
  6 17  1  0
  6 18  1  0
  7 19  1  0
  7 20  1  0
  7 21  1  0
  8 22  1  0
  9 23  1  0
M  END
