
     RDKit          3D

 21 21  0  0  0  0  0  0  0  0999 V2000
    1.7833    1.1424   -0.6850 C   0  0  0  0  0  0  0  0  0  0  0  0
    0.9829    0.0366   -0.0269 C   0  0  0  0  0  0  0  0  0  0  0  0
    1.9085   -1.0288    0.4912 C   0  0  0  0  0  0  0  0  0  0  0  0
   -0.0369   -0.3831   -0.8523 O   0  0  0  0  0  0  0  0  0  0  0  0
   -1.0144   -0.0513    0.1104 C   0  0  0  0  0  0  0  0  0  0  0  0
   -1.7142   -1.3100    0.5443 C   0  0  0  0  0  0  0  0  0  0  0  0
   -2.0194    0.9733   -0.3640 C   0  0  0  0  0  0  0  0  0  0  0  0
    0.0288    0.4642    1.0042 C   0  0  0  0  0  0  0  0  0  0  0  0
    0.1186    1.0022    2.0957 O   0  0  0  0  0  0  0  0  0  0  0  0
    2.1373    0.7407   -1.6615 H   0  0  0  0  0  0  0  0  0  0  0  0
    2.6885    1.4059   -0.1072 H   0  0  0  0  0  0  0  0  0  0  0  0
    1.1411    2.0179   -0.9114 H   0  0  0  0  0  0  0  0  0  0  0  0
    2.4374   -1.5753   -0.3000 H   0  0  0  0  0  0  0  0  0  0  0  0
    1.3932   -1.6804    1.2235 H   0  0  0  0  0  0  0  0  0  0  0  0
    2.6932   -0.4833    1.0936 H   0  0  0  0  0  0  0  0  0  0  0  0
   -2.5436   -1.1208    1.2530 H   0  0  0  0  0  0  0  0  0  0  0  0
   -0.9992   -2.0835    0.9096 H   0  0  0  0  0  0  0  0  0  0  0  0
   -2.1759   -1.7698   -0.3801 H   0  0  0  0  0  0  0  0  0  0  0  0
   -1.6731    1.3426   -1.3501 H   0  0  0  0  0  0  0  0  0  0  0  0
   -3.0398    0.5560   -0.4772 H   0  0  0  0  0  0  0  0  0  0  0  0
   -2.0964    1.8048    0.3920 H   0  0  0  0  0  0  0  0  0  0  0  0
  1  2  1  0
  2  3  1  0
  2  4  1  0
  4  5  1  0
  5  6  1  0
  5  7  1  0
  5  8  1  0
  8  9  2  0
  8  2  1  0
  1 10  1  0
  1 11  1  0
  1 12  1  0
  3 13  1  0
  3 14  1  0
  3 15  1  0
  6 16  1  0
  6 17  1  0
  6 18  1  0
  7 19  1  0
  7 20  1  0
  7 21  1  0
M  END
