
     RDKit          3D

 21 21  0  0  0  0  0  0  0  0999 V2000
    1.3753    0.9056    0.8009 C   0  0  0  0  0  0  0  0  0  0  0  0
    0.6534   -0.0468   -0.1167 C   0  0  0  0  0  0  0  0  0  0  0  0
    1.6739   -0.6670   -1.0083 C   0  0  0  0  0  0  0  0  0  0  0  0
    2.8026   -0.8222   -0.5760 O   0  0  0  0  0  0  0  0  0  0  0  0
   -0.3470    0.6510   -1.0018 C   0  0  0  0  0  0  0  0  0  0  0  0
   -1.5901    1.0705   -0.2930 C   0  0  0  0  0  0  0  0  0  0  0  0
   -1.8413    0.3418    0.8694 O   0  0  0  0  0  0  0  0  0  0  0  0
   -1.4656   -1.0024    0.7191 C   0  0  0  0  0  0  0  0  0  0  0  0
    0.0219   -1.1724    0.6808 C   0  0  0  0  0  0  0  0  0  0  0  0
    1.6202    1.8362    0.2649 H   0  0  0  0  0  0  0  0  0  0  0  0
    2.3696    0.4378    1.0592 H   0  0  0  0  0  0  0  0  0  0  0  0
    0.8484    1.0652    1.7500 H   0  0  0  0  0  0  0  0  0  0  0  0
    1.4406   -0.9826   -2.0269 H   0  0  0  0  0  0  0  0  0  0  0  0
    0.1509    1.5463   -1.4214 H   0  0  0  0  0  0  0  0  0  0  0  0
   -0.6155   -0.0489   -1.8102 H   0  0  0  0  0  0  0  0  0  0  0  0
   -1.5392    2.1500    0.0087 H   0  0  0  0  0  0  0  0  0  0  0  0
   -2.4574    1.0171   -1.0028 H   0  0  0  0  0  0  0  0  0  0  0  0
   -1.9643   -1.5556    1.5240 H   0  0  0  0  0  0  0  0  0  0  0  0
   -1.8564   -1.3401   -0.2770 H   0  0  0  0  0  0  0  0  0  0  0  0
    0.4976   -1.2154    1.6648 H   0  0  0  0  0  0  0  0  0  0  0  0
    0.2223   -2.1681    0.1923 H   0  0  0  0  0  0  0  0  0  0  0  0
  1  2  1  0
  2  3  1  0
  3  4  2  0
  2  5  1  0
  5  6  1  0
  6  7  1  0
  7  8  1  0
  8  9  1  0
  9  2  1  0
  1 10  1  0
  1 11  1  0
  1 12  1  0
  3 13  1  0
  5 14  1  0
  5 15  1  0
  6 16  1  0
  6 17  1  0
  8 18  1  0
  8 19  1  0
  9 20  1  0
  9 21  1  0
M  END
