
     RDKit          3D

 17 18  0  0  0  0  0  0  0  0999 V2000
   -1.5274   -0.1088    0.9095 C   0  0  0  0  0  0  0  0  0  0  0  0
   -0.8700   -0.2254   -0.4590 C   0  0  0  0  0  0  0  0  0  0  0  0
   -1.7576   -0.4238   -1.4946 O   0  0  0  0  0  0  0  0  0  0  0  0
    0.3105    0.6176   -0.7845 C   0  0  0  0  0  0  0  0  0  0  0  0
    1.2446    0.9077    0.3376 C   0  0  0  0  0  0  0  0  0  0  0  0
    1.5335   -0.5771    0.4426 C   0  0  0  0  0  0  0  0  0  0  0  0
    0.4555   -0.8770   -0.5316 C   0  0  0  0  0  0  0  0  0  0  0  0
   -2.4455   -0.7547    0.8903 H   0  0  0  0  0  0  0  0  0  0  0  0
   -1.9126    0.9236    1.0881 H   0  0  0  0  0  0  0  0  0  0  0  0
   -0.8290   -0.4123    1.7173 H   0  0  0  0  0  0  0  0  0  0  0  0
   -2.1263    0.4617   -1.7910 H   0  0  0  0  0  0  0  0  0  0  0  0
    0.5145    0.9150   -1.8171 H   0  0  0  0  0  0  0  0  0  0  0  0
    0.8012    1.3204    1.2692 H   0  0  0  0  0  0  0  0  0  0  0  0
    2.1001    1.5389    0.0430 H   0  0  0  0  0  0  0  0  0  0  0  0
    1.3176   -0.9901    1.4583 H   0  0  0  0  0  0  0  0  0  0  0  0
    2.5714   -0.7579    0.0960 H   0  0  0  0  0  0  0  0  0  0  0  0
    0.6194   -1.5579   -1.3739 H   0  0  0  0  0  0  0  0  0  0  0  0
  1  2  1  0
  2  3  1  0
  2  4  1  0
  4  5  1  0
  5  6  1  0
  6  7  1  0
  7  2  1  0
  7  4  1  0
  1  8  1  0
  1  9  1  0
  1 10  1  0
  3 11  1  0
  4 12  1  0
  5 13  1  0
  5 14  1  0
  6 15  1  0
  6 16  1  0
  7 17  1  0
M  END
