
     RDKit          3D

 19 19  0  0  0  0  0  0  0  0999 V2000
    0.1141   -1.8084    0.1156 C   0  0  0  0  0  0  0  0  0  0  0  0
    0.2145   -0.2987    0.0018 C   0  0  0  0  0  0  0  0  0  0  0  0
    1.6784    0.0553    0.1562 C   0  0  0  0  0  0  0  0  0  0  0  0
    1.9337    1.5018    0.0675 C   0  0  0  0  0  0  0  0  0  0  0  0
    1.6439    2.2055    1.0192 O   0  0  0  0  0  0  0  0  0  0  0  0
   -0.3197    0.1564   -1.1769 O   0  0  0  0  0  0  0  0  0  0  0  0
   -1.5148    0.8267   -0.8703 C   0  0  0  0  0  0  0  0  0  0  0  0
   -1.8234    0.1969    0.4924 C   0  0  0  0  0  0  0  0  0  0  0  0
   -0.5312    0.2345    1.0472 O   0  0  0  0  0  0  0  0  0  0  0  0
   -0.3703   -2.2124   -0.8073 H   0  0  0  0  0  0  0  0  0  0  0  0
    1.1028   -2.2933    0.2221 H   0  0  0  0  0  0  0  0  0  0  0  0
   -0.4812   -2.1286    0.9962 H   0  0  0  0  0  0  0  0  0  0  0  0
    2.2903   -0.4600   -0.6108 H   0  0  0  0  0  0  0  0  0  0  0  0
    1.9972   -0.3754    1.1450 H   0  0  0  0  0  0  0  0  0  0  0  0
    2.3669    1.9956   -0.7943 H   0  0  0  0  0  0  0  0  0  0  0  0
   -2.3265    0.5943   -1.5604 H   0  0  0  0  0  0  0  0  0  0  0  0
   -1.2872    1.8969   -0.7766 H   0  0  0  0  0  0  0  0  0  0  0  0
   -2.5511    0.7675    1.0631 H   0  0  0  0  0  0  0  0  0  0  0  0
   -2.1363   -0.8545    0.2705 H   0  0  0  0  0  0  0  0  0  0  0  0
  1  2  1  0
  2  3  1  0
  3  4  1  0
  4  5  2  0
  2  6  1  0
  6  7  1  0
  7  8  1  0
  8  9  1  0
  9  2  1  0
  1 10  1  0
  1 11  1  0
  1 12  1  0
  3 13  1  0
  3 14  1  0
  4 15  1  0
  7 16  1  0
  7 17  1  0
  8 18  1  0
  8 19  1  0
M  END
