
     RDKit          3D

 17 17  0  0  0  0  0  0  0  0999 V2000
   -1.8010   -0.4035   -0.5277 C   0  0  0  0  0  0  0  0  0  0  0  0
   -0.9399    0.1926    0.5826 C   0  0  0  0  0  0  0  0  0  0  0  0
   -1.5214    0.0556    1.8358 O   0  0  0  0  0  0  0  0  0  0  0  0
   -0.2887    1.4855    0.2920 C   0  0  0  0  0  0  0  0  0  0  0  0
    0.5364    0.1676    0.4640 C   0  0  0  0  0  0  0  0  0  0  0  0
    1.2166   -0.2751   -0.7556 C   0  0  0  0  0  0  0  0  0  0  0  0
    0.6992   -0.2131   -1.8927 O   0  0  0  0  0  0  0  0  0  0  0  0
    2.5571   -0.8157   -0.6638 C   0  0  0  0  0  0  0  0  0  0  0  0
    3.1341   -0.9057    0.4478 O   0  0  0  0  0  0  0  0  0  0  0  0
   -2.8589   -0.1573   -0.2697 H   0  0  0  0  0  0  0  0  0  0  0  0
   -1.5754    0.1106   -1.4636 H   0  0  0  0  0  0  0  0  0  0  0  0
   -1.6604   -1.5186   -0.5872 H   0  0  0  0  0  0  0  0  0  0  0  0
   -1.2312   -0.7437    2.3252 H   0  0  0  0  0  0  0  0  0  0  0  0
   -0.3785    1.8675   -0.7458 H   0  0  0  0  0  0  0  0  0  0  0  0
   -0.0833    2.2408    1.0470 H   0  0  0  0  0  0  0  0  0  0  0  0
    1.0715    0.0773    1.4436 H   0  0  0  0  0  0  0  0  0  0  0  0
    3.1240   -1.1649   -1.5318 H   0  0  0  0  0  0  0  0  0  0  0  0
  1  2  1  0
  2  3  1  0
  2  4  1  0
  4  5  1  0
  5  6  1  0
  6  7  2  0
  6  8  1  0
  8  9  2  0
  5  2  1  0
  1 10  1  0
  1 11  1  0
  1 12  1  0
  3 13  1  0
  4 14  1  0
  4 15  1  0
  5 16  1  0
  8 17  1  0
M  END
