
     RDKit          3D

 20 20  0  0  0  0  0  0  0  0999 V2000
   -1.2235    1.7036   -0.1918 C   0  0  0  0  0  0  0  0  0  0  0  0
   -0.5091    0.3720   -0.1199 C   0  0  0  0  0  0  0  0  0  0  0  0
   -0.9827   -0.6431   -1.1118 C   0  0  0  0  0  0  0  0  0  0  0  0
   -0.3553   -0.1613    1.2931 C   0  0  0  0  0  0  0  0  0  0  0  0
   -0.4779   -1.5179    1.5003 O   0  0  0  0  0  0  0  0  0  0  0  0
    0.8362    0.3497    0.4680 C   0  0  0  0  0  0  0  0  0  0  0  0
    1.8543   -0.6882    0.1587 C   0  0  0  0  0  0  0  0  0  0  0  0
    2.1851   -0.7241   -1.2055 O   0  0  0  0  0  0  0  0  0  0  0  0
   -1.0327    2.3093    0.7269 H   0  0  0  0  0  0  0  0  0  0  0  0
   -0.7921    2.2992   -1.0477 H   0  0  0  0  0  0  0  0  0  0  0  0
   -2.3051    1.5435   -0.3573 H   0  0  0  0  0  0  0  0  0  0  0  0
   -0.7665   -0.3720   -2.1664 H   0  0  0  0  0  0  0  0  0  0  0  0
   -2.1005   -0.6828   -1.0331 H   0  0  0  0  0  0  0  0  0  0  0  0
   -0.6342   -1.6739   -0.8954 H   0  0  0  0  0  0  0  0  0  0  0  0
   -0.6405    0.4728    2.1484 H   0  0  0  0  0  0  0  0  0  0  0  0
   -1.3336   -1.9027    1.2293 H   0  0  0  0  0  0  0  0  0  0  0  0
    1.2596    1.3452    0.7610 H   0  0  0  0  0  0  0  0  0  0  0  0
    2.7896   -0.4520    0.7059 H   0  0  0  0  0  0  0  0  0  0  0  0
    1.5514   -1.7049    0.5103 H   0  0  0  0  0  0  0  0  0  0  0  0
    2.6775    0.1277   -1.3730 H   0  0  0  0  0  0  0  0  0  0  0  0
  1  2  1  0
  2  3  1  0
  2  4  1  0
  4  5  1  0
  4  6  1  0
  6  7  1  0
  7  8  1  0
  6  2  1  0
  1  9  1  0
  1 10  1  0
  1 11  1  0
  3 12  1  0
  3 13  1  0
  3 14  1  0
  4 15  1  0
  5 16  1  0
  6 17  1  0
  7 18  1  0
  7 19  1  0
  8 20  1  0
M  END
