
     RDKit          3D

 21 22  0  0  0  0  0  0  0  0999 V2000
    2.4835    0.6129   -0.0115 C   0  0  0  0  0  0  0  0  0  0  0  0
    1.3255   -0.3179   -0.0299 C   0  0  0  0  0  0  0  0  0  0  0  0
    1.6143   -1.6538   -0.1003 O   0  0  0  0  0  0  0  0  0  0  0  0
    0.4299    0.0272   -1.1758 C   0  0  0  0  0  0  0  0  0  0  0  0
   -0.8429    0.0078   -0.8162 C   0  0  0  0  0  0  0  0  0  0  0  0
   -2.3249    0.0627   -0.6957 C   0  0  0  0  0  0  0  0  0  0  0  0
   -2.0392    0.4952    0.7712 C   0  0  0  0  0  0  0  0  0  0  0  0
   -0.8971   -0.4514    0.6495 C   0  0  0  0  0  0  0  0  0  0  0  0
    0.4331   -0.0641    1.1903 C   0  0  0  0  0  0  0  0  0  0  0  0
    2.8198    0.8067   -1.0521 H   0  0  0  0  0  0  0  0  0  0  0  0
    3.3234    0.2736    0.6194 H   0  0  0  0  0  0  0  0  0  0  0  0
    2.1142    1.6046    0.3641 H   0  0  0  0  0  0  0  0  0  0  0  0
    0.8105   -2.1203   -0.4781 H   0  0  0  0  0  0  0  0  0  0  0  0
    0.8254    0.2578   -2.1634 H   0  0  0  0  0  0  0  0  0  0  0  0
   -2.7671   -0.9459   -0.7138 H   0  0  0  0  0  0  0  0  0  0  0  0
   -2.8283    0.8392   -1.2687 H   0  0  0  0  0  0  0  0  0  0  0  0
   -1.6943    1.5461    0.7483 H   0  0  0  0  0  0  0  0  0  0  0  0
   -2.8446    0.2445    1.4605 H   0  0  0  0  0  0  0  0  0  0  0  0
   -1.1578   -1.5256    0.7324 H   0  0  0  0  0  0  0  0  0  0  0  0
    0.7601   -0.6828    2.0497 H   0  0  0  0  0  0  0  0  0  0  0  0
    0.4564    0.9836    1.4938 H   0  0  0  0  0  0  0  0  0  0  0  0
  1  2  1  0
  2  3  1  0
  2  4  1  0
  4  5  2  0
  5  6  1  0
  6  7  1  0
  7  8  1  0
  8  9  1  0
  9  2  1  0
  8  5  1  0
  1 10  1  0
  1 11  1  0
  1 12  1  0
  3 13  1  0
  4 14  1  0
  6 15  1  0
  6 16  1  0
  7 17  1  0
  7 18  1  0
  8 19  1  0
  9 20  1  0
  9 21  1  0
M  END
