
     RDKit          3D

 21 21  0  0  0  0  0  0  0  0999 V2000
    0.0932   -0.7323    1.4982 C   0  0  0  0  0  0  0  0  0  0  0  0
    0.2927   -0.0543    0.1851 C   0  0  0  0  0  0  0  0  0  0  0  0
    1.5288    0.8154    0.1348 C   0  0  0  0  0  0  0  0  0  0  0  0
    2.6795    0.0921    0.3664 O   0  0  0  0  0  0  0  0  0  0  0  0
    0.2016   -1.0632   -0.9500 C   0  0  0  0  0  0  0  0  0  0  0  0
   -1.1077   -0.4495   -1.3997 C   0  0  0  0  0  0  0  0  0  0  0  0
   -0.8873    0.6560   -0.4027 C   0  0  0  0  0  0  0  0  0  0  0  0
   -1.9963    0.9476    0.5052 C   0  0  0  0  0  0  0  0  0  0  0  0
   -1.8222    1.6894    1.4420 O   0  0  0  0  0  0  0  0  0  0  0  0
    0.6775   -1.6986    1.4544 H   0  0  0  0  0  0  0  0  0  0  0  0
   -0.9512   -1.0353    1.6941 H   0  0  0  0  0  0  0  0  0  0  0  0
    0.5365   -0.1791    2.3618 H   0  0  0  0  0  0  0  0  0  0  0  0
    1.5813    1.3607   -0.8294 H   0  0  0  0  0  0  0  0  0  0  0  0
    1.3785    1.6004    0.9301 H   0  0  0  0  0  0  0  0  0  0  0  0
    3.3313    0.2898   -0.3727 H   0  0  0  0  0  0  0  0  0  0  0  0
    0.0365   -2.1057   -0.6346 H   0  0  0  0  0  0  0  0  0  0  0  0
    1.0258   -1.0065   -1.6615 H   0  0  0  0  0  0  0  0  0  0  0  0
   -2.0052   -1.0671   -1.2329 H   0  0  0  0  0  0  0  0  0  0  0  0
   -1.0239   -0.1620   -2.4676 H   0  0  0  0  0  0  0  0  0  0  0  0
   -0.6079    1.5930   -0.9680 H   0  0  0  0  0  0  0  0  0  0  0  0
   -2.9616    0.5090    0.3468 H   0  0  0  0  0  0  0  0  0  0  0  0
  1  2  1  0
  2  3  1  0
  3  4  1  0
  2  5  1  0
  5  6  1  0
  6  7  1  0
  7  8  1  0
  8  9  2  0
  7  2  1  0
  1 10  1  0
  1 11  1  0
  1 12  1  0
  3 13  1  0
  3 14  1  0
  4 15  1  0
  5 16  1  0
  5 17  1  0
  6 18  1  0
  6 19  1  0
  7 20  1  0
  8 21  1  0
M  END
