
     RDKit          3D

 19 20  0  0  0  0  0  0  0  0999 V2000
   -1.1391    1.1977    0.5834 C   0  0  0  0  0  0  0  0  0  0  0  0
   -0.4408    0.0178    0.0429 C   0  0  0  0  0  0  0  0  0  0  0  0
   -1.3833   -0.7848   -0.8749 C   0  0  0  0  0  0  0  0  0  0  0  0
    0.8720    0.1407   -0.5983 C   0  0  0  0  0  0  0  0  0  0  0  0
    1.7853    1.2163   -0.2278 C   0  0  0  0  0  0  0  0  0  0  0  0
    1.5339    2.2191    0.3799 O   0  0  0  0  0  0  0  0  0  0  0  0
    1.2593   -1.1139    0.1902 C   0  0  0  0  0  0  0  0  0  0  0  0
    1.3915   -0.8727    1.5282 O   0  0  0  0  0  0  0  0  0  0  0  0
    0.1241   -0.9629    1.0380 C   0  0  0  0  0  0  0  0  0  0  0  0
   -0.7997    2.1731    0.2534 H   0  0  0  0  0  0  0  0  0  0  0  0
   -1.0830    1.1900    1.7121 H   0  0  0  0  0  0  0  0  0  0  0  0
   -2.2510    1.1676    0.3797 H   0  0  0  0  0  0  0  0  0  0  0  0
   -1.4393   -0.2464   -1.8333 H   0  0  0  0  0  0  0  0  0  0  0  0
   -0.9257   -1.7834   -1.0774 H   0  0  0  0  0  0  0  0  0  0  0  0
   -2.3490   -0.8938   -0.3588 H   0  0  0  0  0  0  0  0  0  0  0  0
    0.9274   -0.0576   -1.6983 H   0  0  0  0  0  0  0  0  0  0  0  0
    2.8264    1.1004   -0.5388 H   0  0  0  0  0  0  0  0  0  0  0  0
    1.6412   -1.9810   -0.3172 H   0  0  0  0  0  0  0  0  0  0  0  0
   -0.5503   -1.7261    1.4172 H   0  0  0  0  0  0  0  0  0  0  0  0
  1  2  1  0
  2  3  1  0
  2  4  1  0
  4  5  1  0
  5  6  2  0
  4  7  1  0
  7  8  1  0
  8  9  1  0
  9  2  1  0
  9  7  1  0
  1 10  1  0
  1 11  1  0
  1 12  1  0
  3 13  1  0
  3 14  1  0
  3 15  1  0
  4 16  1  0
  5 17  1  0
  7 18  1  0
  9 19  1  0
M  END
