
     RDKit          3D

 21 21  0  0  0  0  0  0  0  0999 V2000
    1.6354   -0.2219    0.9758 C   0  0  0  0  0  0  0  0  0  0  0  0
    0.5739    0.1706   -0.0101 C   0  0  0  0  0  0  0  0  0  0  0  0
    0.5994    1.5764   -0.5000 C   0  0  0  0  0  0  0  0  0  0  0  0
    0.4432   -0.7856   -1.2069 C   0  0  0  0  0  0  0  0  0  0  0  0
   -1.0573   -0.4619   -1.1081 C   0  0  0  0  0  0  0  0  0  0  0  0
   -0.7751   -0.3751    0.3995 C   0  0  0  0  0  0  0  0  0  0  0  0
   -0.6310   -1.6626    0.8905 O   0  0  0  0  0  0  0  0  0  0  0  0
   -1.6494    0.5193    1.1472 C   0  0  0  0  0  0  0  0  0  0  0  0
   -2.2041    0.0818    2.1633 O   0  0  0  0  0  0  0  0  0  0  0  0
    1.2277   -0.0926    1.9996 H   0  0  0  0  0  0  0  0  0  0  0  0
    2.5541    0.3744    0.8140 H   0  0  0  0  0  0  0  0  0  0  0  0
    1.8929   -1.2983    0.8749 H   0  0  0  0  0  0  0  0  0  0  0  0
   -0.0873    2.2636    0.0064 H   0  0  0  0  0  0  0  0  0  0  0  0
    1.6346    1.9992   -0.3426 H   0  0  0  0  0  0  0  0  0  0  0  0
    0.4489    1.6581   -1.6147 H   0  0  0  0  0  0  0  0  0  0  0  0
    0.6069   -1.8064   -0.8537 H   0  0  0  0  0  0  0  0  0  0  0  0
    0.9252   -0.4536   -2.1171 H   0  0  0  0  0  0  0  0  0  0  0  0
   -1.7212   -1.2810   -1.3691 H   0  0  0  0  0  0  0  0  0  0  0  0
   -1.3063    0.5492   -1.4694 H   0  0  0  0  0  0  0  0  0  0  0  0
   -1.3082   -2.2739    0.4975 H   0  0  0  0  0  0  0  0  0  0  0  0
   -1.8024    1.5205    0.8229 H   0  0  0  0  0  0  0  0  0  0  0  0
  1  2  1  0
  2  3  1  0
  2  4  1  0
  4  5  1  0
  5  6  1  0
  6  7  1  0
  6  8  1  0
  8  9  2  0
  6  2  1  0
  1 10  1  0
  1 11  1  0
  1 12  1  0
  3 13  1  0
  3 14  1  0
  3 15  1  0
  4 16  1  0
  4 17  1  0
  5 18  1  0
  5 19  1  0
  7 20  1  0
  8 21  1  0
M  END
