
     RDKit          3D

 22 22  0  0  0  0  0  0  0  0999 V2000
   -1.3415   -1.6046   -0.1207 C   0  0  0  0  0  0  0  0  0  0  0  0
   -1.1036   -0.1080   -0.1820 C   0  0  0  0  0  0  0  0  0  0  0  0
    0.3007    0.3324   -0.4794 C   0  0  0  0  0  0  0  0  0  0  0  0
    1.3030   -0.1379    0.5272 C   0  0  0  0  0  0  0  0  0  0  0  0
    2.6663    0.3936    0.0772 C   0  0  0  0  0  0  0  0  0  0  0  0
    3.6780    0.0164    0.9417 O   0  0  0  0  0  0  0  0  0  0  0  0
   -2.0720    0.7464    0.5114 C   0  0  0  0  0  0  0  0  0  0  0  0
   -2.1531    0.6796   -0.9911 C   0  0  0  0  0  0  0  0  0  0  0  0
   -0.9766   -1.9538    0.8625 H   0  0  0  0  0  0  0  0  0  0  0  0
   -2.4298   -1.7712   -0.2566 H   0  0  0  0  0  0  0  0  0  0  0  0
   -0.7403   -2.0539   -0.9306 H   0  0  0  0  0  0  0  0  0  0  0  0
    0.3580    1.4260   -0.5900 H   0  0  0  0  0  0  0  0  0  0  0  0
    0.5842   -0.1225   -1.4626 H   0  0  0  0  0  0  0  0  0  0  0  0
    1.3454   -1.2416    0.5255 H   0  0  0  0  0  0  0  0  0  0  0  0
    1.0852    0.1836    1.5563 H   0  0  0  0  0  0  0  0  0  0  0  0
    2.6438    1.5001    0.0143 H   0  0  0  0  0  0  0  0  0  0  0  0
    2.8374    0.0178   -0.9384 H   0  0  0  0  0  0  0  0  0  0  0  0
    3.4389    0.1227    1.8774 H   0  0  0  0  0  0  0  0  0  0  0  0
   -2.9130    0.2656    1.0303 H   0  0  0  0  0  0  0  0  0  0  0  0
   -1.7026    1.6553    1.0020 H   0  0  0  0  0  0  0  0  0  0  0  0
   -1.8429    1.5811   -1.5151 H   0  0  0  0  0  0  0  0  0  0  0  0
   -2.9654    0.0728   -1.4595 H   0  0  0  0  0  0  0  0  0  0  0  0
  1  2  1  0
  2  3  1  0
  3  4  1  0
  4  5  1  0
  5  6  1  0
  2  7  1  0
  7  8  1  0
  8  2  1  0
  1  9  1  0
  1 10  1  0
  1 11  1  0
  3 12  1  0
  3 13  1  0
  4 14  1  0
  4 15  1  0
  5 16  1  0
  5 17  1  0
  6 18  1  0
  7 19  1  0
  7 20  1  0
  8 21  1  0
  8 22  1  0
M  END
