
     RDKit          3D

 21 22  0  0  0  0  0  0  0  0999 V2000
   -0.8568    1.3245   -1.3809 C   0  0  0  0  0  0  0  0  0  0  0  0
   -0.3501    0.2629   -0.4227 C   0  0  0  0  0  0  0  0  0  0  0  0
    1.1476    0.0699   -0.6187 C   0  0  0  0  0  0  0  0  0  0  0  0
    1.8647   -0.9176    0.2078 C   0  0  0  0  0  0  0  0  0  0  0  0
    2.1259    0.5882    0.3275 C   0  0  0  0  0  0  0  0  0  0  0  0
   -0.7035    0.5415    0.9794 C   0  0  0  0  0  0  0  0  0  0  0  0
   -1.5145   -0.4104    1.4038 C   0  0  0  0  0  0  0  0  0  0  0  0
   -1.7298   -1.3723    0.2716 C   0  0  0  0  0  0  0  0  0  0  0  0
   -0.9571   -0.9295   -0.7750 O   0  0  0  0  0  0  0  0  0  0  0  0
   -0.1380    1.4173   -2.2097 H   0  0  0  0  0  0  0  0  0  0  0  0
   -1.8278    1.0332   -1.8402 H   0  0  0  0  0  0  0  0  0  0  0  0
   -0.9900    2.2472   -0.8010 H   0  0  0  0  0  0  0  0  0  0  0  0
    1.4249    0.0904   -1.7093 H   0  0  0  0  0  0  0  0  0  0  0  0
    1.4201   -1.3706    1.1148 H   0  0  0  0  0  0  0  0  0  0  0  0
    2.6488   -1.5435   -0.2686 H   0  0  0  0  0  0  0  0  0  0  0  0
    1.8949    1.0650    1.2839 H   0  0  0  0  0  0  0  0  0  0  0  0
    3.1332    0.8947   -0.0790 H   0  0  0  0  0  0  0  0  0  0  0  0
   -0.3546    1.3822    1.5536 H   0  0  0  0  0  0  0  0  0  0  0  0
   -1.9885   -0.5640    2.3588 H   0  0  0  0  0  0  0  0  0  0  0  0
   -1.4316   -2.3748    0.5966 H   0  0  0  0  0  0  0  0  0  0  0  0
   -2.8179   -1.4343    0.0073 H   0  0  0  0  0  0  0  0  0  0  0  0
  1  2  1  0
  2  3  1  0
  3  4  1  0
  4  5  1  0
  2  6  1  0
  6  7  2  0
  7  8  1  0
  8  9  1  0
  9  2  1  0
  5  3  1  0
  1 10  1  0
  1 11  1  0
  1 12  1  0
  3 13  1  0
  4 14  1  0
  4 15  1  0
  5 16  1  0
  5 17  1  0
  6 18  1  0
  7 19  1  0
  8 20  1  0
  8 21  1  0
M  END
