
     RDKit          3D

 23 23  0  0  0  0  0  0  0  0999 V2000
   -1.0539   -0.3739    1.5204 C   0  0  0  0  0  0  0  0  0  0  0  0
   -0.6266   -0.3470    0.0803 C   0  0  0  0  0  0  0  0  0  0  0  0
   -0.7027   -1.7409   -0.4676 C   0  0  0  0  0  0  0  0  0  0  0  0
   -1.4684    0.5982   -0.7575 C   0  0  0  0  0  0  0  0  0  0  0  0
   -0.7434    1.8929   -0.6185 C   0  0  0  0  0  0  0  0  0  0  0  0
    0.6652    1.4925   -0.4120 C   0  0  0  0  0  0  0  0  0  0  0  0
    0.7275    0.2437   -0.0224 C   0  0  0  0  0  0  0  0  0  0  0  0
    2.0267   -0.4691    0.2746 C   0  0  0  0  0  0  0  0  0  0  0  0
    3.0887    0.3983    0.0691 O   0  0  0  0  0  0  0  0  0  0  0  0
   -1.9165   -1.0773    1.6677 H   0  0  0  0  0  0  0  0  0  0  0  0
   -0.2135   -0.8244    2.1059 H   0  0  0  0  0  0  0  0  0  0  0  0
   -1.2932    0.6358    1.8816 H   0  0  0  0  0  0  0  0  0  0  0  0
   -1.7576   -1.9382   -0.7514 H   0  0  0  0  0  0  0  0  0  0  0  0
   -0.0463   -1.8911   -1.3531 H   0  0  0  0  0  0  0  0  0  0  0  0
   -0.3756   -2.4408    0.3305 H   0  0  0  0  0  0  0  0  0  0  0  0
   -1.4882    0.2673   -1.8093 H   0  0  0  0  0  0  0  0  0  0  0  0
   -2.5273    0.6412   -0.3925 H   0  0  0  0  0  0  0  0  0  0  0  0
   -1.1313    2.5508    0.1769 H   0  0  0  0  0  0  0  0  0  0  0  0
   -0.7775    2.4023   -1.6252 H   0  0  0  0  0  0  0  0  0  0  0  0
    1.5574    2.1621   -0.5665 H   0  0  0  0  0  0  0  0  0  0  0  0
    2.1597   -1.3304   -0.4167 H   0  0  0  0  0  0  0  0  0  0  0  0
    1.9952   -0.7977    1.3317 H   0  0  0  0  0  0  0  0  0  0  0  0
    3.9015   -0.0541   -0.2459 H   0  0  0  0  0  0  0  0  0  0  0  0
  1  2  1  0
  2  3  1  0
  2  4  1  0
  4  5  1  0
  5  6  1  0
  6  7  2  0
  7  8  1  0
  8  9  1  0
  7  2  1  0
  1 10  1  0
  1 11  1  0
  1 12  1  0
  3 13  1  0
  3 14  1  0
  3 15  1  0
  4 16  1  0
  4 17  1  0
  5 18  1  0
  5 19  1  0
  6 20  1  0
  8 21  1  0
  8 22  1  0
  9 23  1  0
M  END
