
     RDKit          3D

 23 24  0  0  0  0  0  0  0  0999 V2000
    1.3640   -0.7529    1.3464 C   0  0  0  0  0  0  0  0  0  0  0  0
    0.8302   -0.2324    0.0372 C   0  0  0  0  0  0  0  0  0  0  0  0
    1.8321    0.4678   -0.8431 C   0  0  0  0  0  0  0  0  0  0  0  0
   -0.5221    0.4070    0.1580 C   0  0  0  0  0  0  0  0  0  0  0  0
   -0.6484    1.7791   -0.3959 C   0  0  0  0  0  0  0  0  0  0  0  0
   -1.5913   -0.2211    0.9705 C   0  0  0  0  0  0  0  0  0  0  0  0
   -1.4214   -1.4974    0.1730 C   0  0  0  0  0  0  0  0  0  0  0  0
   -0.3423   -0.8024   -0.6253 C   0  0  0  0  0  0  0  0  0  0  0  0
   -0.4583   -0.8495   -2.0065 O   0  0  0  0  0  0  0  0  0  0  0  0
    1.9768    0.0883    1.7856 H   0  0  0  0  0  0  0  0  0  0  0  0
    2.0063   -1.6228    1.2250 H   0  0  0  0  0  0  0  0  0  0  0  0
    0.5741   -0.9516    2.0874 H   0  0  0  0  0  0  0  0  0  0  0  0
    2.8434    0.4756   -0.3899 H   0  0  0  0  0  0  0  0  0  0  0  0
    1.5384    1.5368   -0.9937 H   0  0  0  0  0  0  0  0  0  0  0  0
    1.8377   -0.0719   -1.8233 H   0  0  0  0  0  0  0  0  0  0  0  0
   -1.6557    2.1522   -0.2200 H   0  0  0  0  0  0  0  0  0  0  0  0
   -0.4303    1.8296   -1.4760 H   0  0  0  0  0  0  0  0  0  0  0  0
    0.0695    2.4329    0.1823 H   0  0  0  0  0  0  0  0  0  0  0  0
   -2.5673    0.2980    0.8028 H   0  0  0  0  0  0  0  0  0  0  0  0
   -1.3901   -0.3761    2.0458 H   0  0  0  0  0  0  0  0  0  0  0  0
   -1.0911   -2.3400    0.7988 H   0  0  0  0  0  0  0  0  0  0  0  0
   -2.3071   -1.7759   -0.4021 H   0  0  0  0  0  0  0  0  0  0  0  0
   -0.4471    0.0268   -2.4371 H   0  0  0  0  0  0  0  0  0  0  0  0
  1  2  1  0
  2  3  1  0
  2  4  1  0
  4  5  1  0
  4  6  1  0
  6  7  1  0
  7  8  1  0
  8  9  1  0
  8  2  1  0
  8  4  1  0
  1 10  1  0
  1 11  1  0
  1 12  1  0
  3 13  1  0
  3 14  1  0
  3 15  1  0
  5 16  1  0
  5 17  1  0
  5 18  1  0
  6 19  1  0
  6 20  1  0
  7 21  1  0
  7 22  1  0
  9 23  1  0
M  END
