
     RDKit          3D

 20 20  0  0  0  0  0  0  0  0999 V2000
   -1.4566   -0.8904    0.7619 C   0  0  0  0  0  0  0  0  0  0  0  0
   -0.5909   -0.0120   -0.1078 C   0  0  0  0  0  0  0  0  0  0  0  0
   -0.8061    1.4470    0.0198 C   0  0  0  0  0  0  0  0  0  0  0  0
   -0.7487   -0.4188   -1.5888 C   0  0  0  0  0  0  0  0  0  0  0  0
    0.5793    0.0701   -1.7170 O   0  0  0  0  0  0  0  0  0  0  0  0
    0.7492   -0.5392   -0.4552 C   0  0  0  0  0  0  0  0  0  0  0  0
    1.9421   -0.1909    0.3223 C   0  0  0  0  0  0  0  0  0  0  0  0
    2.1303    1.1133    0.6699 O   0  0  0  0  0  0  0  0  0  0  0  0
   -2.5141   -0.7246    0.4122 H   0  0  0  0  0  0  0  0  0  0  0  0
   -1.3563   -0.6198    1.8123 H   0  0  0  0  0  0  0  0  0  0  0  0
   -1.1736   -1.9334    0.5846 H   0  0  0  0  0  0  0  0  0  0  0  0
   -1.6242    1.5922    0.7772 H   0  0  0  0  0  0  0  0  0  0  0  0
    0.0667    2.0458    0.3368 H   0  0  0  0  0  0  0  0  0  0  0  0
   -1.2309    1.8989   -0.9226 H   0  0  0  0  0  0  0  0  0  0  0  0
   -0.7341   -1.5210   -1.6936 H   0  0  0  0  0  0  0  0  0  0  0  0
   -1.4983    0.1321   -2.1365 H   0  0  0  0  0  0  0  0  0  0  0  0
    0.6508   -1.6539   -0.6608 H   0  0  0  0  0  0  0  0  0  0  0  0
    1.9893   -0.8840    1.2131 H   0  0  0  0  0  0  0  0  0  0  0  0
    2.8435   -0.5076   -0.2826 H   0  0  0  0  0  0  0  0  0  0  0  0
    2.7826    1.5964    0.0979 H   0  0  0  0  0  0  0  0  0  0  0  0
  1  2  1  0
  2  3  1  0
  2  4  1  0
  4  5  1  0
  5  6  1  0
  6  7  1  0
  7  8  1  0
  6  2  1  0
  1  9  1  0
  1 10  1  0
  1 11  1  0
  3 12  1  0
  3 13  1  0
  3 14  1  0
  4 15  1  0
  4 16  1  0
  6 17  1  0
  7 18  1  0
  7 19  1  0
  8 20  1  0
M  END
