
     RDKit          3D

 22 22  0  0  0  0  0  0  0  0999 V2000
   -1.0481   -0.1185    1.4285 C   0  0  0  0  0  0  0  0  0  0  0  0
   -0.6247    0.0083   -0.0249 C   0  0  0  0  0  0  0  0  0  0  0  0
   -1.8585    0.2406   -0.9007 C   0  0  0  0  0  0  0  0  0  0  0  0
    0.0725   -1.2838   -0.3893 C   0  0  0  0  0  0  0  0  0  0  0  0
    1.5537   -1.1747   -0.1374 C   0  0  0  0  0  0  0  0  0  0  0  0
    1.7474   -0.2131    0.8706 O   0  0  0  0  0  0  0  0  0  0  0  0
    1.6568    1.0262    0.2451 C   0  0  0  0  0  0  0  0  0  0  0  0
    0.2635    1.2162   -0.2484 C   0  0  0  0  0  0  0  0  0  0  0  0
   -1.0819    0.8363    1.9559 H   0  0  0  0  0  0  0  0  0  0  0  0
   -0.2996   -0.7650    1.9533 H   0  0  0  0  0  0  0  0  0  0  0  0
   -2.0105   -0.6614    1.5012 H   0  0  0  0  0  0  0  0  0  0  0  0
   -1.4596    0.3908   -1.9305 H   0  0  0  0  0  0  0  0  0  0  0  0
   -2.5608   -0.5893   -0.8684 H   0  0  0  0  0  0  0  0  0  0  0  0
   -2.2826    1.2135   -0.5500 H   0  0  0  0  0  0  0  0  0  0  0  0
   -0.1756   -1.5518   -1.4221 H   0  0  0  0  0  0  0  0  0  0  0  0
   -0.2926   -2.1309    0.2512 H   0  0  0  0  0  0  0  0  0  0  0  0
    2.0244   -2.1020    0.1918 H   0  0  0  0  0  0  0  0  0  0  0  0
    2.0070   -0.7621   -1.0676 H   0  0  0  0  0  0  0  0  0  0  0  0
    2.3957    1.0893   -0.6007 H   0  0  0  0  0  0  0  0  0  0  0  0
    1.9342    1.8593    0.9274 H   0  0  0  0  0  0  0  0  0  0  0  0
    0.2749    1.3789   -1.3620 H   0  0  0  0  0  0  0  0  0  0  0  0
   -0.2357    2.0934    0.1771 H   0  0  0  0  0  0  0  0  0  0  0  0
  1  2  1  0
  2  3  1  0
  2  4  1  0
  4  5  1  0
  5  6  1  0
  6  7  1  0
  7  8  1  0
  8  2  1  0
  1  9  1  0
  1 10  1  0
  1 11  1  0
  3 12  1  0
  3 13  1  0
  3 14  1  0
  4 15  1  0
  4 16  1  0
  5 17  1  0
  5 18  1  0
  7 19  1  0
  7 20  1  0
  8 21  1  0
  8 22  1  0
M  END
