
     RDKit          3D

 21 22  0  0  0  0  0  0  0  0999 V2000
   -1.4402    1.5828    0.0174 C   0  0  0  0  0  0  0  0  0  0  0  0
   -0.8980    0.1535    0.1006 C   0  0  0  0  0  0  0  0  0  0  0  0
   -1.6612   -0.8264   -0.7354 C   0  0  0  0  0  0  0  0  0  0  0  0
   -0.3999   -0.2115    1.4627 C   0  0  0  0  0  0  0  0  0  0  0  0
    0.5198    0.0113    0.3842 C   0  0  0  0  0  0  0  0  0  0  0  0
    1.3694    1.0578    0.2044 O   0  0  0  0  0  0  0  0  0  0  0  0
    1.9500    0.3239   -0.8563 C   0  0  0  0  0  0  0  0  0  0  0  0
    1.4329   -0.9662   -0.2364 C   0  0  0  0  0  0  0  0  0  0  0  0
    2.3562   -1.5133    0.6681 O   0  0  0  0  0  0  0  0  0  0  0  0
   -1.8570    1.8853    1.0076 H   0  0  0  0  0  0  0  0  0  0  0  0
   -2.2361    1.6763   -0.7411 H   0  0  0  0  0  0  0  0  0  0  0  0
   -0.6156    2.3040   -0.2014 H   0  0  0  0  0  0  0  0  0  0  0  0
   -2.7535   -0.6242   -0.5700 H   0  0  0  0  0  0  0  0  0  0  0  0
   -1.4460   -1.8753   -0.5330 H   0  0  0  0  0  0  0  0  0  0  0  0
   -1.3772   -0.6428   -1.8043 H   0  0  0  0  0  0  0  0  0  0  0  0
   -0.5645   -1.2745    1.7946 H   0  0  0  0  0  0  0  0  0  0  0  0
   -0.4253    0.5557    2.2892 H   0  0  0  0  0  0  0  0  0  0  0  0
    1.4405    0.4696   -1.8323 H   0  0  0  0  0  0  0  0  0  0  0  0
    3.0271    0.4625   -0.8468 H   0  0  0  0  0  0  0  0  0  0  0  0
    1.0235   -1.6989   -0.9418 H   0  0  0  0  0  0  0  0  0  0  0  0
    2.5553   -0.8496    1.3702 H   0  0  0  0  0  0  0  0  0  0  0  0
  1  2  1  0
  2  3  1  0
  2  4  1  0
  4  5  1  0
  5  6  1  0
  6  7  1  0
  7  8  1  0
  8  9  1  0
  5  2  1  0
  8  5  1  0
  1 10  1  0
  1 11  1  0
  1 12  1  0
  3 13  1  0
  3 14  1  0
  3 15  1  0
  4 16  1  0
  4 17  1  0
  7 18  1  0
  7 19  1  0
  8 20  1  0
  9 21  1  0
M  END
