
     RDKit          3D

 21 22  0  0  0  0  0  0  0  0999 V2000
   -1.1265    1.5480   -0.2283 C   0  0  0  0  0  0  0  0  0  0  0  0
   -0.8022    0.1337    0.0932 C   0  0  0  0  0  0  0  0  0  0  0  0
   -2.0911   -0.6711   -0.1456 C   0  0  0  0  0  0  0  0  0  0  0  0
   -0.5148   -0.0844    1.4447 O   0  0  0  0  0  0  0  0  0  0  0  0
    0.8164   -0.5672    1.5061 C   0  0  0  0  0  0  0  0  0  0  0  0
    1.3960    0.1978    0.3670 C   0  0  0  0  0  0  0  0  0  0  0  0
    1.6370   -0.0608   -0.9867 C   0  0  0  0  0  0  0  0  0  0  0  0
    2.6468   -1.0126   -1.2821 O   0  0  0  0  0  0  0  0  0  0  0  0
    0.3413   -0.4528   -0.6261 C   0  0  0  0  0  0  0  0  0  0  0  0
   -0.5275    2.3086    0.2590 H   0  0  0  0  0  0  0  0  0  0  0  0
   -2.1943    1.7317    0.0858 H   0  0  0  0  0  0  0  0  0  0  0  0
   -1.0417    1.6722   -1.3357 H   0  0  0  0  0  0  0  0  0  0  0  0
   -2.2146   -0.9348   -1.1965 H   0  0  0  0  0  0  0  0  0  0  0  0
   -2.9187   -0.0529    0.2601 H   0  0  0  0  0  0  0  0  0  0  0  0
   -2.0712   -1.5937    0.4845 H   0  0  0  0  0  0  0  0  0  0  0  0
    0.7312   -1.6599    1.3165 H   0  0  0  0  0  0  0  0  0  0  0  0
    1.2844   -0.3446    2.4575 H   0  0  0  0  0  0  0  0  0  0  0  0
    1.2057    1.2951    0.6004 H   0  0  0  0  0  0  0  0  0  0  0  0
    1.7460    0.7854   -1.7224 H   0  0  0  0  0  0  0  0  0  0  0  0
    3.4552   -0.6543   -0.8081 H   0  0  0  0  0  0  0  0  0  0  0  0
    0.2426   -1.5833   -0.5434 H   0  0  0  0  0  0  0  0  0  0  0  0
  1  2  1  0
  2  3  1  0
  2  4  1  0
  4  5  1  0
  5  6  1  0
  6  7  1  0
  7  8  1  0
  7  9  1  0
  9  2  1  0
  9  6  1  0
  1 10  1  0
  1 11  1  0
  1 12  1  0
  3 13  1  0
  3 14  1  0
  3 15  1  0
  5 16  1  0
  5 17  1  0
  6 18  1  0
  7 19  1  0
  8 20  1  0
  9 21  1  0
M  END
