
     RDKit          3D

 19 19  0  0  0  0  0  0  0  0999 V2000
   -1.8219   -0.7815   -0.2109 C   0  0  0  0  0  0  0  0  0  0  0  0
   -0.5646   -0.3120    0.4254 C   0  0  0  0  0  0  0  0  0  0  0  0
   -0.6368   -0.3752    1.8079 O   0  0  0  0  0  0  0  0  0  0  0  0
    0.6666   -1.0440   -0.0143 C   0  0  0  0  0  0  0  0  0  0  0  0
    0.7084   -1.0586   -1.4138 O   0  0  0  0  0  0  0  0  0  0  0  0
    1.7323   -0.1083    0.4324 C   0  0  0  0  0  0  0  0  0  0  0  0
    1.2346    1.1192    0.4204 C   0  0  0  0  0  0  0  0  0  0  0  0
   -0.1790    1.1089   -0.0257 C   0  0  0  0  0  0  0  0  0  0  0  0
   -0.1833    1.0871   -1.4171 O   0  0  0  0  0  0  0  0  0  0  0  0
   -1.8865   -0.5013   -1.2695 H   0  0  0  0  0  0  0  0  0  0  0  0
   -2.6793   -0.3629    0.3884 H   0  0  0  0  0  0  0  0  0  0  0  0
   -1.8568   -1.8874   -0.1443 H   0  0  0  0  0  0  0  0  0  0  0  0
   -0.5418    0.5158    2.2059 H   0  0  0  0  0  0  0  0  0  0  0  0
    0.7687   -2.0509    0.4178 H   0  0  0  0  0  0  0  0  0  0  0  0
    1.6152   -0.8171   -1.7228 H   0  0  0  0  0  0  0  0  0  0  0  0
    2.7269   -0.4456    0.7063 H   0  0  0  0  0  0  0  0  0  0  0  0
    1.7821    2.0011    0.6965 H   0  0  0  0  0  0  0  0  0  0  0  0
   -0.8050    1.8700    0.4194 H   0  0  0  0  0  0  0  0  0  0  0  0
   -0.0797    2.0428   -1.7020 H   0  0  0  0  0  0  0  0  0  0  0  0
  1  2  1  0
  2  3  1  0
  2  4  1  0
  4  5  1  0
  4  6  1  0
  6  7  2  0
  7  8  1  0
  8  9  1  0
  8  2  1  0
  1 10  1  0
  1 11  1  0
  1 12  1  0
  3 13  1  0
  4 14  1  0
  5 15  1  0
  6 16  1  0
  7 17  1  0
  8 18  1  0
  9 19  1  0
M  END
