
     RDKit          3D

 17 17  0  0  0  0  0  0  0  0999 V2000
   -1.0121   -0.8324   -0.9746 C   0  0  0  0  0  0  0  0  0  0  0  0
   -0.4331   -0.4756    0.3688 C   0  0  0  0  0  0  0  0  0  0  0  0
   -1.0782   -1.0818    1.4114 O   0  0  0  0  0  0  0  0  0  0  0  0
    1.0889   -0.4882    0.4294 C   0  0  0  0  0  0  0  0  0  0  0  0
    1.6986   -1.4542   -0.3261 O   0  0  0  0  0  0  0  0  0  0  0  0
    1.0384    0.8696   -0.1905 C   0  0  0  0  0  0  0  0  0  0  0  0
    1.7142    1.5599   -0.9158 O   0  0  0  0  0  0  0  0  0  0  0  0
   -0.2765    1.0455    0.4941 C   0  0  0  0  0  0  0  0  0  0  0  0
   -1.1496    1.7808   -0.2676 O   0  0  0  0  0  0  0  0  0  0  0  0
   -0.5200   -0.3079   -1.8051 H   0  0  0  0  0  0  0  0  0  0  0  0
   -2.0740   -0.5077   -0.9758 H   0  0  0  0  0  0  0  0  0  0  0  0
   -1.0129   -1.9368   -1.0868 H   0  0  0  0  0  0  0  0  0  0  0  0
   -1.3301   -0.4520    2.1342 H   0  0  0  0  0  0  0  0  0  0  0  0
    1.4112   -0.4090    1.4808 H   0  0  0  0  0  0  0  0  0  0  0  0
    2.6354   -1.1489   -0.5426 H   0  0  0  0  0  0  0  0  0  0  0  0
   -0.1022    1.3800    1.5324 H   0  0  0  0  0  0  0  0  0  0  0  0
   -0.5979    2.4588   -0.7663 H   0  0  0  0  0  0  0  0  0  0  0  0
  1  2  1  0
  2  3  1  0
  2  4  1  0
  4  5  1  0
  4  6  1  0
  6  7  2  0
  6  8  1  0
  8  9  1  0
  8  2  1  0
  1 10  1  0
  1 11  1  0
  1 12  1  0
  3 13  1  0
  4 14  1  0
  5 15  1  0
  8 16  1  0
  9 17  1  0
M  END
