
     RDKit          3D

 17 17  0  0  0  0  0  0  0  0999 V2000
   -0.7683   -0.4486    1.5186 C   0  0  0  0  0  0  0  0  0  0  0  0
   -0.3040   -0.1058    0.1271 C   0  0  0  0  0  0  0  0  0  0  0  0
   -1.3952   -0.2735   -0.9021 C   0  0  0  0  0  0  0  0  0  0  0  0
    0.8598   -0.9469   -0.1943 C   0  0  0  0  0  0  0  0  0  0  0  0
    0.9262   -2.1819   -0.0802 O   0  0  0  0  0  0  0  0  0  0  0  0
    1.9153   -0.0732   -0.6683 C   0  0  0  0  0  0  0  0  0  0  0  0
    1.5416    1.2030   -0.5135 C   0  0  0  0  0  0  0  0  0  0  0  0
    0.2139    1.2836    0.0734 C   0  0  0  0  0  0  0  0  0  0  0  0
   -0.3835    2.3382    0.4629 O   0  0  0  0  0  0  0  0  0  0  0  0
   -1.3658   -1.3840    1.5016 H   0  0  0  0  0  0  0  0  0  0  0  0
   -1.3741    0.4231    1.8771 H   0  0  0  0  0  0  0  0  0  0  0  0
    0.1163   -0.6370    2.1617 H   0  0  0  0  0  0  0  0  0  0  0  0
   -1.1919    0.4667   -1.7096 H   0  0  0  0  0  0  0  0  0  0  0  0
   -1.4077   -1.3002   -1.3475 H   0  0  0  0  0  0  0  0  0  0  0  0
   -2.3805   -0.0160   -0.4393 H   0  0  0  0  0  0  0  0  0  0  0  0
    2.8542   -0.4279   -1.0807 H   0  0  0  0  0  0  0  0  0  0  0  0
    2.1436    2.0804   -0.7870 H   0  0  0  0  0  0  0  0  0  0  0  0
  1  2  1  0
  2  3  1  0
  2  4  1  0
  4  5  2  0
  4  6  1  0
  6  7  2  0
  7  8  1  0
  8  9  2  0
  8  2  1  0
  1 10  1  0
  1 11  1  0
  1 12  1  0
  3 13  1  0
  3 14  1  0
  3 15  1  0
  6 16  1  0
  7 17  1  0
M  END
