
     RDKit          3D

 19 20  0  0  0  0  0  0  0  0999 V2000
   -1.2207    1.4145   -0.2735 C   0  0  0  0  0  0  0  0  0  0  0  0
   -0.6159    0.0924    0.1268 C   0  0  0  0  0  0  0  0  0  0  0  0
   -1.5049   -1.1325   -0.1266 C   0  0  0  0  0  0  0  0  0  0  0  0
    0.1348   -0.0118    1.4380 C   0  0  0  0  0  0  0  0  0  0  0  0
    0.8137   -0.0155    0.1687 C   0  0  0  0  0  0  0  0  0  0  0  0
    1.6511   -1.0767   -0.4074 C   0  0  0  0  0  0  0  0  0  0  0  0
    2.7212   -0.1207   -0.3582 O   0  0  0  0  0  0  0  0  0  0  0  0
    1.8049    0.9334   -0.2761 C   0  0  0  0  0  0  0  0  0  0  0  0
    1.9345    2.1557   -0.5215 O   0  0  0  0  0  0  0  0  0  0  0  0
   -0.7115    1.7075   -1.2348 H   0  0  0  0  0  0  0  0  0  0  0  0
   -1.0027    2.2292    0.4452 H   0  0  0  0  0  0  0  0  0  0  0  0
   -2.3146    1.3503   -0.4602 H   0  0  0  0  0  0  0  0  0  0  0  0
   -0.8390   -2.0379   -0.0303 H   0  0  0  0  0  0  0  0  0  0  0  0
   -2.0038   -1.0854   -1.0993 H   0  0  0  0  0  0  0  0  0  0  0  0
   -2.2317   -1.2198    0.7029 H   0  0  0  0  0  0  0  0  0  0  0  0
    0.1109    0.9541    2.0174 H   0  0  0  0  0  0  0  0  0  0  0  0
    0.0139   -0.8838    2.0829 H   0  0  0  0  0  0  0  0  0  0  0  0
    1.8250   -1.9941    0.1548 H   0  0  0  0  0  0  0  0  0  0  0  0
    1.4348   -1.2588   -1.4989 H   0  0  0  0  0  0  0  0  0  0  0  0
  1  2  1  0
  2  3  1  0
  2  4  1  0
  4  5  1  0
  5  6  1  0
  6  7  1  0
  7  8  1  0
  8  9  2  0
  5  2  1  0
  8  5  1  0
  1 10  1  0
  1 11  1  0
  1 12  1  0
  3 13  1  0
  3 14  1  0
  3 15  1  0
  4 16  1  0
  4 17  1  0
  6 18  1  0
  6 19  1  0
M  END
