
     RDKit          3D

 19 20  0  0  0  0  0  0  0  0999 V2000
   -1.8971    0.8429    0.7397 C   0  0  0  0  0  0  0  0  0  0  0  0
   -0.9388    0.1683   -0.2317 C   0  0  0  0  0  0  0  0  0  0  0  0
    0.4940    0.3757    0.0702 C   0  0  0  0  0  0  0  0  0  0  0  0
    1.5830   -0.1972   -0.7422 C   0  0  0  0  0  0  0  0  0  0  0  0
    2.8032    0.4748   -0.7931 O   0  0  0  0  0  0  0  0  0  0  0  0
    1.2630   -0.8407    0.5569 C   0  0  0  0  0  0  0  0  0  0  0  0
    2.0144   -0.6205    1.6866 O   0  0  0  0  0  0  0  0  0  0  0  0
   -1.4611   -0.2536   -1.4830 C   0  0  0  0  0  0  0  0  0  0  0  0
   -1.2662   -1.2668   -0.4163 O   0  0  0  0  0  0  0  0  0  0  0  0
   -1.5901    0.6402    1.7950 H   0  0  0  0  0  0  0  0  0  0  0  0
   -2.9278    0.5197    0.5554 H   0  0  0  0  0  0  0  0  0  0  0  0
   -1.8199    1.9233    0.5834 H   0  0  0  0  0  0  0  0  0  0  0  0
    0.7363    1.3638    0.5464 H   0  0  0  0  0  0  0  0  0  0  0  0
    1.3561   -0.7680   -1.6834 H   0  0  0  0  0  0  0  0  0  0  0  0
    2.8461    1.1953   -0.0999 H   0  0  0  0  0  0  0  0  0  0  0  0
    0.7729   -1.8254    0.4928 H   0  0  0  0  0  0  0  0  0  0  0  0
    1.4908   -0.9993    2.4578 H   0  0  0  0  0  0  0  0  0  0  0  0
   -0.8981   -0.5403   -2.3800 H   0  0  0  0  0  0  0  0  0  0  0  0
   -2.5607   -0.1924   -1.6546 H   0  0  0  0  0  0  0  0  0  0  0  0
  1  2  1  0
  2  3  1  0
  3  4  1  0
  4  5  1  0
  4  6  1  0
  6  7  1  0
  2  8  1  0
  8  9  1  0
  9  2  1  0
  6  3  1  0
  1 10  1  0
  1 11  1  0
  1 12  1  0
  3 13  1  0
  4 14  1  0
  5 15  1  0
  6 16  1  0
  7 17  1  0
  8 18  1  0
  8 19  1  0
M  END
