
     RDKit          3D

 21 23  0  0  0  0  0  0  0  0999 V2000
   -1.8722    1.1285    0.4852 C   0  0  0  0  0  0  0  0  0  0  0  0
   -0.8291    0.1384    0.0225 C   0  0  0  0  0  0  0  0  0  0  0  0
   -1.3406   -1.1534   -0.4927 C   0  0  0  0  0  0  0  0  0  0  0  0
    0.2111    0.8312   -0.8081 C   0  0  0  0  0  0  0  0  0  0  0  0
    0.6743    1.3696    0.4150 O   0  0  0  0  0  0  0  0  0  0  0  0
    0.3258    0.1105    0.9633 C   0  0  0  0  0  0  0  0  0  0  0  0
    1.3845   -0.7770    0.3465 C   0  0  0  0  0  0  0  0  0  0  0  0
    2.5478   -0.1511   -0.2915 C   0  0  0  0  0  0  0  0  0  0  0  0
    1.2865   -0.1854   -1.1076 C   0  0  0  0  0  0  0  0  0  0  0  0
   -2.7221    0.6256    1.0091 H   0  0  0  0  0  0  0  0  0  0  0  0
   -1.4443    1.8293    1.2525 H   0  0  0  0  0  0  0  0  0  0  0  0
   -2.3030    1.6910   -0.3463 H   0  0  0  0  0  0  0  0  0  0  0  0
   -2.4612   -1.1484   -0.3687 H   0  0  0  0  0  0  0  0  0  0  0  0
   -0.9512   -2.0531   -0.0199 H   0  0  0  0  0  0  0  0  0  0  0  0
   -1.1937   -1.1811   -1.6063 H   0  0  0  0  0  0  0  0  0  0  0  0
   -0.0831    1.5182   -1.5662 H   0  0  0  0  0  0  0  0  0  0  0  0
    0.1688    0.0682    2.0186 H   0  0  0  0  0  0  0  0  0  0  0  0
    1.2489   -1.8750    0.3856 H   0  0  0  0  0  0  0  0  0  0  0  0
    2.8033    0.8872    0.0619 H   0  0  0  0  0  0  0  0  0  0  0  0
    3.3881   -0.7603   -0.6181 H   0  0  0  0  0  0  0  0  0  0  0  0
    1.1614   -0.9129   -1.9135 H   0  0  0  0  0  0  0  0  0  0  0  0
  1  2  1  0
  2  3  1  0
  2  4  1  0
  4  5  1  0
  5  6  1  0
  6  7  1  0
  7  8  1  0
  8  9  1  0
  6  2  1  0
  9  7  1  0
  9  4  1  0
  1 10  1  0
  1 11  1  0
  1 12  1  0
  3 13  1  0
  3 14  1  0
  3 15  1  0
  4 16  1  0
  6 17  1  0
  7 18  1  0
  8 19  1  0
  8 20  1  0
  9 21  1  0
M  END
