
     RDKit          3D

 23 24  0  0  0  0  0  0  0  0999 V2000
    2.1654    1.2910    0.0832 C   0  0  0  0  0  0  0  0  0  0  0  0
    1.3386    0.0512   -0.0862 C   0  0  0  0  0  0  0  0  0  0  0  0
    2.0543   -0.9777   -0.6722 O   0  0  0  0  0  0  0  0  0  0  0  0
    0.6950   -0.3431    1.2212 C   0  0  0  0  0  0  0  0  0  0  0  0
   -0.4686   -1.2108    0.7159 C   0  0  0  0  0  0  0  0  0  0  0  0
   -1.0570   -0.2672   -0.3006 C   0  0  0  0  0  0  0  0  0  0  0  0
   -2.3228   -0.4891   -0.9709 C   0  0  0  0  0  0  0  0  0  0  0  0
   -2.2456    0.4902    0.1396 C   0  0  0  0  0  0  0  0  0  0  0  0
    0.1261    0.3851   -0.9399 C   0  0  0  0  0  0  0  0  0  0  0  0
    1.5053    2.0794    0.4902 H   0  0  0  0  0  0  0  0  0  0  0  0
    3.0271    1.1385    0.7461 H   0  0  0  0  0  0  0  0  0  0  0  0
    2.5301    1.5868   -0.9204 H   0  0  0  0  0  0  0  0  0  0  0  0
    2.3055   -1.6243    0.0416 H   0  0  0  0  0  0  0  0  0  0  0  0
    0.2307    0.5586    1.6464 H   0  0  0  0  0  0  0  0  0  0  0  0
    1.3473   -0.8984    1.8931 H   0  0  0  0  0  0  0  0  0  0  0  0
   -1.1250   -1.3553    1.5902 H   0  0  0  0  0  0  0  0  0  0  0  0
   -0.1147   -2.1315    0.2459 H   0  0  0  0  0  0  0  0  0  0  0  0
   -2.4205   -0.0478   -2.0062 H   0  0  0  0  0  0  0  0  0  0  0  0
   -2.8427   -1.4498   -0.8880 H   0  0  0  0  0  0  0  0  0  0  0  0
   -2.7038    0.2237    1.1333 H   0  0  0  0  0  0  0  0  0  0  0  0
   -2.3338    1.5587   -0.1102 H   0  0  0  0  0  0  0  0  0  0  0  0
    0.0022    1.4749   -1.0891 H   0  0  0  0  0  0  0  0  0  0  0  0
    0.3071   -0.0431   -1.9631 H   0  0  0  0  0  0  0  0  0  0  0  0
  1  2  1  0
  2  3  1  0
  2  4  1  0
  4  5  1  0
  5  6  1  0
  6  7  1  0
  7  8  1  0
  6  9  1  0
  9  2  1  0
  8  6  1  0
  1 10  1  0
  1 11  1  0
  1 12  1  0
  3 13  1  0
  4 14  1  0
  4 15  1  0
  5 16  1  0
  5 17  1  0
  7 18  1  0
  7 19  1  0
  8 20  1  0
  8 21  1  0
  9 22  1  0
  9 23  1  0
M  END
