
     RDKit          3D

 21 22  0  0  0  0  0  0  0  0999 V2000
   -1.2424   -0.9948    0.5132 C   0  0  0  0  0  0  0  0  0  0  0  0
   -0.6176    0.1609   -0.2748 C   0  0  0  0  0  0  0  0  0  0  0  0
   -1.6592    0.5525   -1.3148 C   0  0  0  0  0  0  0  0  0  0  0  0
   -0.2695    1.2872    0.6177 C   0  0  0  0  0  0  0  0  0  0  0  0
    1.0332    1.5102    0.6421 C   0  0  0  0  0  0  0  0  0  0  0  0
    1.7650    0.5656   -0.2328 C   0  0  0  0  0  0  0  0  0  0  0  0
    2.3035   -0.5253    0.4065 O   0  0  0  0  0  0  0  0  0  0  0  0
    1.4112   -1.3833   -0.2641 C   0  0  0  0  0  0  0  0  0  0  0  0
    0.6803   -0.2305   -0.8897 C   0  0  0  0  0  0  0  0  0  0  0  0
   -0.7841   -1.0517    1.5045 H   0  0  0  0  0  0  0  0  0  0  0  0
   -2.3544   -0.8427    0.5807 H   0  0  0  0  0  0  0  0  0  0  0  0
   -1.0918   -1.8987   -0.1110 H   0  0  0  0  0  0  0  0  0  0  0  0
   -1.8385   -0.3600   -1.9242 H   0  0  0  0  0  0  0  0  0  0  0  0
   -1.3241    1.3617   -1.9660 H   0  0  0  0  0  0  0  0  0  0  0  0
   -2.5825    0.8222   -0.7559 H   0  0  0  0  0  0  0  0  0  0  0  0
   -0.9930    1.8823    1.2013 H   0  0  0  0  0  0  0  0  0  0  0  0
    1.5361    2.2819    1.2209 H   0  0  0  0  0  0  0  0  0  0  0  0
    2.5014    1.0399   -0.9079 H   0  0  0  0  0  0  0  0  0  0  0  0
    0.8618   -1.9743    0.4726 H   0  0  0  0  0  0  0  0  0  0  0  0
    1.9796   -1.9918   -0.9893 H   0  0  0  0  0  0  0  0  0  0  0  0
    0.6851   -0.2114   -1.9881 H   0  0  0  0  0  0  0  0  0  0  0  0
  1  2  1  0
  2  3  1  0
  2  4  1  0
  4  5  2  0
  5  6  1  0
  6  7  1  0
  7  8  1  0
  8  9  1  0
  9  2  1  0
  9  6  1  0
  1 10  1  0
  1 11  1  0
  1 12  1  0
  3 13  1  0
  3 14  1  0
  3 15  1  0
  4 16  1  0
  5 17  1  0
  6 18  1  0
  8 19  1  0
  8 20  1  0
  9 21  1  0
M  END
