
     RDKit          3D

 19 19  0  0  0  0  0  0  0  0999 V2000
   -0.6709    1.4199    0.0403 C   0  0  0  0  0  0  0  0  0  0  0  0
   -0.5390   -0.0875    0.0209 C   0  0  0  0  0  0  0  0  0  0  0  0
    0.7651   -0.6399    0.5317 C   0  0  0  0  0  0  0  0  0  0  0  0
    1.9465   -0.1407   -0.2740 C   0  0  0  0  0  0  0  0  0  0  0  0
    2.0441    1.2390   -0.2303 O   0  0  0  0  0  0  0  0  0  0  0  0
   -1.8006   -0.8604    0.4329 C   0  0  0  0  0  0  0  0  0  0  0  0
   -1.3233   -0.8061   -1.0078 C   0  0  0  0  0  0  0  0  0  0  0  0
   -1.6882    1.6997    0.3655 H   0  0  0  0  0  0  0  0  0  0  0  0
   -0.5138    1.8512   -0.9879 H   0  0  0  0  0  0  0  0  0  0  0  0
    0.0303    1.8846    0.7657 H   0  0  0  0  0  0  0  0  0  0  0  0
    0.9503   -0.3145    1.5843 H   0  0  0  0  0  0  0  0  0  0  0  0
    0.7095   -1.7463    0.5297 H   0  0  0  0  0  0  0  0  0  0  0  0
    2.8580   -0.5492    0.2219 H   0  0  0  0  0  0  0  0  0  0  0  0
    1.8655   -0.5262   -1.3091 H   0  0  0  0  0  0  0  0  0  0  0  0
    2.5828    1.6045   -0.9518 H   0  0  0  0  0  0  0  0  0  0  0  0
   -2.6769   -0.2598    0.7332 H   0  0  0  0  0  0  0  0  0  0  0  0
   -1.6308   -1.8246    0.9811 H   0  0  0  0  0  0  0  0  0  0  0  0
   -1.0025   -1.7615   -1.4320 H   0  0  0  0  0  0  0  0  0  0  0  0
   -1.9064   -0.1822   -1.7347 H   0  0  0  0  0  0  0  0  0  0  0  0
  1  2  1  0
  2  3  1  0
  3  4  1  0
  4  5  1  0
  2  6  1  0
  6  7  1  0
  7  2  1  0
  1  8  1  0
  1  9  1  0
  1 10  1  0
  3 11  1  0
  3 12  1  0
  4 13  1  0
  4 14  1  0
  5 15  1  0
  6 16  1  0
  6 17  1  0
  7 18  1  0
  7 19  1  0
M  END
