
     RDKit          3D

 22 22  0  0  0  0  0  0  0  0999 V2000
   -1.5491    0.2651    0.9876 C   0  0  0  0  0  0  0  0  0  0  0  0
   -0.6636   -0.0081   -0.1933 C   0  0  0  0  0  0  0  0  0  0  0  0
   -1.2866   -0.9556   -1.2031 C   0  0  0  0  0  0  0  0  0  0  0  0
    0.2113    1.0347   -0.7765 C   0  0  0  0  0  0  0  0  0  0  0  0
    0.1110    2.3358   -0.2463 O   0  0  0  0  0  0  0  0  0  0  0  0
    0.7992   -0.0339    0.0420 C   0  0  0  0  0  0  0  0  0  0  0  0
    1.5783   -1.1754   -0.5525 C   0  0  0  0  0  0  0  0  0  0  0  0
    1.3294    0.4078    1.4018 C   0  0  0  0  0  0  0  0  0  0  0  0
   -2.5059    0.7622    0.7184 H   0  0  0  0  0  0  0  0  0  0  0  0
   -1.0904    0.8520    1.7809 H   0  0  0  0  0  0  0  0  0  0  0  0
   -1.7877   -0.7414    1.4413 H   0  0  0  0  0  0  0  0  0  0  0  0
   -2.2555   -0.4616   -1.5099 H   0  0  0  0  0  0  0  0  0  0  0  0
   -1.5610   -1.9262   -0.7720 H   0  0  0  0  0  0  0  0  0  0  0  0
   -0.6959   -1.0253   -2.1336 H   0  0  0  0  0  0  0  0  0  0  0  0
    0.3434    1.0691   -1.8904 H   0  0  0  0  0  0  0  0  0  0  0  0
   -0.8621    2.5608   -0.3043 H   0  0  0  0  0  0  0  0  0  0  0  0
    1.7309   -1.9329    0.2730 H   0  0  0  0  0  0  0  0  0  0  0  0
    1.0757   -1.6904   -1.3719 H   0  0  0  0  0  0  0  0  0  0  0  0
    2.6225   -0.8721   -0.8313 H   0  0  0  0  0  0  0  0  0  0  0  0
    1.1355   -0.4403    2.0906 H   0  0  0  0  0  0  0  0  0  0  0  0
    0.8847    1.3599    1.7359 H   0  0  0  0  0  0  0  0  0  0  0  0
    2.4361    0.6156    1.3134 H   0  0  0  0  0  0  0  0  0  0  0  0
  1  2  1  0
  2  3  1  0
  2  4  1  0
  4  5  1  0
  4  6  1  0
  6  7  1  0
  6  8  1  0
  6  2  1  0
  1  9  1  0
  1 10  1  0
  1 11  1  0
  3 12  1  0
  3 13  1  0
  3 14  1  0
  4 15  1  0
  5 16  1  0
  7 17  1  0
  7 18  1  0
  7 19  1  0
  8 20  1  0
  8 21  1  0
  8 22  1  0
M  END
