
     RDKit          3D

 20 20  0  0  0  0  0  0  0  0999 V2000
   -1.1025    1.3214   -0.1389 C   0  0  0  0  0  0  0  0  0  0  0  0
   -1.1194   -0.1267    0.1612 C   0  0  0  0  0  0  0  0  0  0  0  0
   -2.4917   -0.8180    0.1019 C   0  0  0  0  0  0  0  0  0  0  0  0
   -0.4213   -0.4074    1.4375 O   0  0  0  0  0  0  0  0  0  0  0  0
    0.0269   -0.9893    0.2137 C   0  0  0  0  0  0  0  0  0  0  0  0
    1.3968   -0.6314   -0.2612 C   0  0  0  0  0  0  0  0  0  0  0  0
    2.0299    0.5345    0.4085 C   0  0  0  0  0  0  0  0  0  0  0  0
    3.3047    0.6975   -0.1822 O   0  0  0  0  0  0  0  0  0  0  0  0
   -0.8163    1.9790    0.7072 H   0  0  0  0  0  0  0  0  0  0  0  0
   -0.4874    1.6069   -1.0303 H   0  0  0  0  0  0  0  0  0  0  0  0
   -2.1395    1.6504   -0.4124 H   0  0  0  0  0  0  0  0  0  0  0  0
   -3.3123   -0.0858    0.2087 H   0  0  0  0  0  0  0  0  0  0  0  0
   -2.5347   -1.6273    0.8580 H   0  0  0  0  0  0  0  0  0  0  0  0
   -2.5402   -1.3143   -0.8949 H   0  0  0  0  0  0  0  0  0  0  0  0
   -0.1555   -2.1029    0.2587 H   0  0  0  0  0  0  0  0  0  0  0  0
    2.0969   -1.5039   -0.1698 H   0  0  0  0  0  0  0  0  0  0  0  0
    1.3888   -0.4115   -1.3662 H   0  0  0  0  0  0  0  0  0  0  0  0
    1.4920    1.4891    0.3084 H   0  0  0  0  0  0  0  0  0  0  0  0
    2.1684    0.2977    1.4935 H   0  0  0  0  0  0  0  0  0  0  0  0
    3.2165    0.4419   -1.1282 H   0  0  0  0  0  0  0  0  0  0  0  0
  1  2  1  0
  2  3  1  0
  2  4  1  0
  4  5  1  0
  5  6  1  0
  6  7  1  0
  7  8  1  0
  5  2  1  0
  1  9  1  0
  1 10  1  0
  1 11  1  0
  3 12  1  0
  3 13  1  0
  3 14  1  0
  5 15  1  0
  6 16  1  0
  6 17  1  0
  7 18  1  0
  7 19  1  0
  8 20  1  0
M  END
