
     RDKit          3D

 23 23  0  0  0  0  0  0  0  0999 V2000
   -1.5453    1.3844    0.6333 C   0  0  0  0  0  0  0  0  0  0  0  0
   -1.2273    0.4876   -0.5175 C   0  0  0  0  0  0  0  0  0  0  0  0
   -1.6701    1.0667   -1.7231 O   0  0  0  0  0  0  0  0  0  0  0  0
   -1.8866   -0.8592   -0.3426 C   0  0  0  0  0  0  0  0  0  0  0  0
   -0.5253   -1.4977   -0.3104 C   0  0  0  0  0  0  0  0  0  0  0  0
    0.1062   -0.1445   -0.5637 C   0  0  0  0  0  0  0  0  0  0  0  0
    1.1140    0.2642    0.4778 C   0  0  0  0  0  0  0  0  0  0  0  0
    2.4096   -0.5190    0.2273 C   0  0  0  0  0  0  0  0  0  0  0  0
    3.3808   -0.1900    1.1522 O   0  0  0  0  0  0  0  0  0  0  0  0
   -2.4761    1.9379    0.3870 H   0  0  0  0  0  0  0  0  0  0  0  0
   -1.7833    0.7720    1.5298 H   0  0  0  0  0  0  0  0  0  0  0  0
   -0.7511    2.1288    0.8342 H   0  0  0  0  0  0  0  0  0  0  0  0
   -0.9042    1.5129   -2.1793 H   0  0  0  0  0  0  0  0  0  0  0  0
   -2.4496   -0.9733    0.6114 H   0  0  0  0  0  0  0  0  0  0  0  0
   -2.5416   -1.1757   -1.1773 H   0  0  0  0  0  0  0  0  0  0  0  0
   -0.2792   -1.9378    0.6963 H   0  0  0  0  0  0  0  0  0  0  0  0
   -0.3354   -2.2544   -1.0920 H   0  0  0  0  0  0  0  0  0  0  0  0
    0.5281   -0.1245   -1.5909 H   0  0  0  0  0  0  0  0  0  0  0  0
    1.3054    1.3360    0.5080 H   0  0  0  0  0  0  0  0  0  0  0  0
    0.7592   -0.0547    1.4790 H   0  0  0  0  0  0  0  0  0  0  0  0
    2.2091   -1.6055    0.2115 H   0  0  0  0  0  0  0  0  0  0  0  0
    2.7371   -0.2283   -0.8038 H   0  0  0  0  0  0  0  0  0  0  0  0
    3.8257    0.6742    0.9154 H   0  0  0  0  0  0  0  0  0  0  0  0
  1  2  1  0
  2  3  1  0
  2  4  1  0
  4  5  1  0
  5  6  1  0
  6  7  1  0
  7  8  1  0
  8  9  1  0
  6  2  1  0
  1 10  1  0
  1 11  1  0
  1 12  1  0
  3 13  1  0
  4 14  1  0
  4 15  1  0
  5 16  1  0
  5 17  1  0
  6 18  1  0
  7 19  1  0
  7 20  1  0
  8 21  1  0
  8 22  1  0
  9 23  1  0
M  END
