
     RDKit          3D

 25 25  0  0  0  0  0  0  0  0999 V2000
    2.0426   -1.1561    0.1034 C   0  0  0  0  0  0  0  0  0  0  0  0
    1.1483    0.0124   -0.1809 C   0  0  0  0  0  0  0  0  0  0  0  0
    1.8583    1.3318   -0.0409 C   0  0  0  0  0  0  0  0  0  0  0  0
    0.3735   -0.1111   -1.4536 C   0  0  0  0  0  0  0  0  0  0  0  0
   -0.7133    0.7445   -1.2158 O   0  0  0  0  0  0  0  0  0  0  0  0
   -1.1832    0.2059    0.0028 C   0  0  0  0  0  0  0  0  0  0  0  0
   -1.8005   -1.1673   -0.2276 C   0  0  0  0  0  0  0  0  0  0  0  0
   -2.1959    1.1009    0.6534 C   0  0  0  0  0  0  0  0  0  0  0  0
    0.0326    0.0016    0.8648 C   0  0  0  0  0  0  0  0  0  0  0  0
    2.9794   -1.1617   -0.4631 H   0  0  0  0  0  0  0  0  0  0  0  0
    1.4289   -2.0801   -0.0443 H   0  0  0  0  0  0  0  0  0  0  0  0
    2.2693   -1.1312    1.2009 H   0  0  0  0  0  0  0  0  0  0  0  0
    1.0778    2.1288   -0.1730 H   0  0  0  0  0  0  0  0  0  0  0  0
    2.7159    1.4515   -0.7090 H   0  0  0  0  0  0  0  0  0  0  0  0
    2.1501    1.4120    1.0476 H   0  0  0  0  0  0  0  0  0  0  0  0
   -0.0049   -1.1328   -1.5421 H   0  0  0  0  0  0  0  0  0  0  0  0
    0.9316    0.1434   -2.3551 H   0  0  0  0  0  0  0  0  0  0  0  0
   -1.0886   -1.9809    0.0260 H   0  0  0  0  0  0  0  0  0  0  0  0
   -2.1173   -1.2033   -1.2758 H   0  0  0  0  0  0  0  0  0  0  0  0
   -2.6915   -1.3010    0.4103 H   0  0  0  0  0  0  0  0  0  0  0  0
   -2.8355    1.5199   -0.1675 H   0  0  0  0  0  0  0  0  0  0  0  0
   -1.7289    1.9769    1.1456 H   0  0  0  0  0  0  0  0  0  0  0  0
   -2.8012    0.5008    1.3652 H   0  0  0  0  0  0  0  0  0  0  0  0
    0.0130   -0.9331    1.4420 H   0  0  0  0  0  0  0  0  0  0  0  0
    0.1391    0.8284    1.5867 H   0  0  0  0  0  0  0  0  0  0  0  0
  1  2  1  0
  2  3  1  0
  2  4  1  0
  4  5  1  0
  5  6  1  0
  6  7  1  0
  6  8  1  0
  6  9  1  0
  9  2  1  0
  1 10  1  0
  1 11  1  0
  1 12  1  0
  3 13  1  0
  3 14  1  0
  3 15  1  0
  4 16  1  0
  4 17  1  0
  7 18  1  0
  7 19  1  0
  7 20  1  0
  8 21  1  0
  8 22  1  0
  8 23  1  0
  9 24  1  0
  9 25  1  0
M  END
