
     RDKit          3D

 21 21  0  0  0  0  0  0  0  0999 V2000
   -1.6380    1.1172    0.0420 C   0  0  0  0  0  0  0  0  0  0  0  0
   -0.8782   -0.2018   -0.0225 C   0  0  0  0  0  0  0  0  0  0  0  0
   -1.9136   -1.2981    0.2801 C   0  0  0  0  0  0  0  0  0  0  0  0
    0.0520   -0.2200    1.1377 C   0  0  0  0  0  0  0  0  0  0  0  0
    1.3427   -0.1905    0.9691 C   0  0  0  0  0  0  0  0  0  0  0  0
    1.9397   -0.1376   -0.3832 C   0  0  0  0  0  0  0  0  0  0  0  0
    3.0081    0.7475   -0.4504 O   0  0  0  0  0  0  0  0  0  0  0  0
    0.9120    0.1729   -1.4492 C   0  0  0  0  0  0  0  0  0  0  0  0
   -0.2975   -0.4153   -1.2359 O   0  0  0  0  0  0  0  0  0  0  0  0
   -1.4000    1.6921    0.9597 H   0  0  0  0  0  0  0  0  0  0  0  0
   -2.7374    0.9649    0.0489 H   0  0  0  0  0  0  0  0  0  0  0  0
   -1.3699    1.7721   -0.8117 H   0  0  0  0  0  0  0  0  0  0  0  0
   -1.3173   -2.2271    0.4795 H   0  0  0  0  0  0  0  0  0  0  0  0
   -2.6023   -1.4435   -0.5597 H   0  0  0  0  0  0  0  0  0  0  0  0
   -2.4129   -0.9885    1.2223 H   0  0  0  0  0  0  0  0  0  0  0  0
   -0.4336   -0.2589    2.1182 H   0  0  0  0  0  0  0  0  0  0  0  0
    1.9991   -0.2043    1.8208 H   0  0  0  0  0  0  0  0  0  0  0  0
    2.3801   -1.1592   -0.5693 H   0  0  0  0  0  0  0  0  0  0  0  0
    3.1793    1.2343    0.3743 H   0  0  0  0  0  0  0  0  0  0  0  0
    0.8638    1.2730   -1.5677 H   0  0  0  0  0  0  0  0  0  0  0  0
    1.3240   -0.2292   -2.4032 H   0  0  0  0  0  0  0  0  0  0  0  0
  1  2  1  0
  2  3  1  0
  2  4  1  0
  4  5  2  0
  5  6  1  0
  6  7  1  0
  6  8  1  0
  8  9  1  0
  9  2  1  0
  1 10  1  0
  1 11  1  0
  1 12  1  0
  3 13  1  0
  3 14  1  0
  3 15  1  0
  4 16  1  0
  5 17  1  0
  6 18  1  0
  7 19  1  0
  8 20  1  0
  8 21  1  0
M  END
