
     RDKit          3D

 17 17  0  0  0  0  0  0  0  0999 V2000
   -1.2573   -1.0468    0.3329 C   0  0  0  0  0  0  0  0  0  0  0  0
   -0.5863    0.2392   -0.0607 C   0  0  0  0  0  0  0  0  0  0  0  0
    0.9242    0.2961   -0.1589 C   0  0  0  0  0  0  0  0  0  0  0  0
    1.4648   -0.6419   -1.1394 C   0  0  0  0  0  0  0  0  0  0  0  0
    2.5444   -0.4086   -1.6486 O   0  0  0  0  0  0  0  0  0  0  0  0
    1.5284    0.0516    1.1559 C   0  0  0  0  0  0  0  0  0  0  0  0
    1.4230   -1.0643    1.6367 O   0  0  0  0  0  0  0  0  0  0  0  0
   -1.3761    1.3368   -0.5665 C   0  0  0  0  0  0  0  0  0  0  0  0
   -1.0146    1.2960    0.8772 O   0  0  0  0  0  0  0  0  0  0  0  0
   -2.3434   -0.9307    0.1509 H   0  0  0  0  0  0  0  0  0  0  0  0
   -0.9047   -1.9192   -0.2084 H   0  0  0  0  0  0  0  0  0  0  0  0
   -1.1469   -1.2546    1.4246 H   0  0  0  0  0  0  0  0  0  0  0  0
    1.1896    1.3244   -0.4742 H   0  0  0  0  0  0  0  0  0  0  0  0
    0.8921   -1.5245   -1.3911 H   0  0  0  0  0  0  0  0  0  0  0  0
    2.0524    0.7972    1.7092 H   0  0  0  0  0  0  0  0  0  0  0  0
   -2.4800    1.2270   -0.6114 H   0  0  0  0  0  0  0  0  0  0  0  0
   -0.9096    2.2222   -1.0283 H   0  0  0  0  0  0  0  0  0  0  0  0
  1  2  1  0
  2  3  1  0
  3  4  1  0
  4  5  2  0
  3  6  1  0
  6  7  2  0
  2  8  1  0
  8  9  1  0
  9  2  1  0
  1 10  1  0
  1 11  1  0
  1 12  1  0
  3 13  1  0
  4 14  1  0
  6 15  1  0
  8 16  1  0
  8 17  1  0
M  END
