
     RDKit          3D

 21 21  0  0  0  0  0  0  0  0999 V2000
   -1.5129   -1.9676    0.0236 C   0  0  0  0  0  0  0  0  0  0  0  0
   -1.4764   -0.4792   -0.2485 C   0  0  0  0  0  0  0  0  0  0  0  0
   -0.2750    0.2520    0.1662 C   0  0  0  0  0  0  0  0  0  0  0  0
    0.7351    0.8685    0.4928 C   0  0  0  0  0  0  0  0  0  0  0  0
    1.9507    1.5930    0.8816 C   0  0  0  0  0  0  0  0  0  0  0  0
    3.1583    0.6699    0.6873 C   0  0  0  0  0  0  0  0  0  0  0  0
    2.9481   -0.4347    1.5036 O   0  0  0  0  0  0  0  0  0  0  0  0
   -2.1219    0.0041   -1.4721 C   0  0  0  0  0  0  0  0  0  0  0  0
   -2.7360    0.3135   -0.1195 C   0  0  0  0  0  0  0  0  0  0  0  0
   -0.5170   -2.4279   -0.0244 H   0  0  0  0  0  0  0  0  0  0  0  0
   -2.2239   -2.4205   -0.6935 H   0  0  0  0  0  0  0  0  0  0  0  0
   -1.9563   -2.1107    1.0284 H   0  0  0  0  0  0  0  0  0  0  0  0
    2.0710    2.4427    0.1746 H   0  0  0  0  0  0  0  0  0  0  0  0
    1.8950    1.9686    1.9092 H   0  0  0  0  0  0  0  0  0  0  0  0
    3.0744    0.2907   -0.3670 H   0  0  0  0  0  0  0  0  0  0  0  0
    4.0870    1.2031    0.8742 H   0  0  0  0  0  0  0  0  0  0  0  0
    3.6631   -1.0869    1.3389 H   0  0  0  0  0  0  0  0  0  0  0  0
   -2.6828   -0.6969   -2.1290 H   0  0  0  0  0  0  0  0  0  0  0  0
   -1.7087    0.8716   -2.0619 H   0  0  0  0  0  0  0  0  0  0  0  0
   -2.6934    1.3585    0.2450 H   0  0  0  0  0  0  0  0  0  0  0  0
   -3.6783   -0.2119    0.1734 H   0  0  0  0  0  0  0  0  0  0  0  0
  1  2  1  0
  2  3  1  0
  3  4  3  0
  4  5  1  0
  5  6  1  0
  6  7  1  0
  2  8  1  0
  8  9  1  0
  9  2  1  0
  1 10  1  0
  1 11  1  0
  1 12  1  0
  5 13  1  0
  5 14  1  0
  6 15  1  0
  6 16  1  0
  7 17  1  0
  8 18  1  0
  8 19  1  0
  9 20  1  0
  9 21  1  0
M  END
