
     RDKit          3D

 23 24  0  0  0  0  0  0  0  0999 V2000
    1.0164    1.4028    0.9918 C   0  0  0  0  0  0  0  0  0  0  0  0
    0.7027    0.2343    0.0952 C   0  0  0  0  0  0  0  0  0  0  0  0
    1.9332   -0.4071   -0.4142 C   0  0  0  0  0  0  0  0  0  0  0  0
   -0.2137    0.7398   -1.0383 C   0  0  0  0  0  0  0  0  0  0  0  0
   -1.2676   -0.2907   -0.9963 C   0  0  0  0  0  0  0  0  0  0  0  0
   -2.5115   -0.4157   -0.3624 C   0  0  0  0  0  0  0  0  0  0  0  0
   -1.4971   -0.1422    0.5653 C   0  0  0  0  0  0  0  0  0  0  0  0
   -0.1867   -0.7416    0.8937 C   0  0  0  0  0  0  0  0  0  0  0  0
   -0.0352   -2.0391    0.4461 O   0  0  0  0  0  0  0  0  0  0  0  0
    2.0129    1.8322    0.8052 H   0  0  0  0  0  0  0  0  0  0  0  0
    0.9266    1.1320    2.0503 H   0  0  0  0  0  0  0  0  0  0  0  0
    0.2811    2.2305    0.8163 H   0  0  0  0  0  0  0  0  0  0  0  0
    1.8389   -0.9329   -1.3763 H   0  0  0  0  0  0  0  0  0  0  0  0
    2.7508    0.3674   -0.5061 H   0  0  0  0  0  0  0  0  0  0  0  0
    2.3240   -1.1327    0.3346 H   0  0  0  0  0  0  0  0  0  0  0  0
   -0.5817    1.7543   -0.7994 H   0  0  0  0  0  0  0  0  0  0  0  0
    0.3737    0.6841   -1.9684 H   0  0  0  0  0  0  0  0  0  0  0  0
   -0.8038   -1.2751   -1.3238 H   0  0  0  0  0  0  0  0  0  0  0  0
   -3.0218   -1.4222   -0.3062 H   0  0  0  0  0  0  0  0  0  0  0  0
   -3.3024    0.3506   -0.5822 H   0  0  0  0  0  0  0  0  0  0  0  0
   -1.4849    0.9301    0.9464 H   0  0  0  0  0  0  0  0  0  0  0  0
    0.0865   -0.6846    1.9458 H   0  0  0  0  0  0  0  0  0  0  0  0
    0.6595   -2.1742   -0.2170 H   0  0  0  0  0  0  0  0  0  0  0  0
  1  2  1  0
  2  3  1  0
  2  4  1  0
  4  5  1  0
  5  6  1  0
  6  7  1  0
  7  8  1  0
  8  9  1  0
  8  2  1  0
  7  5  1  0
  1 10  1  0
  1 11  1  0
  1 12  1  0
  3 13  1  0
  3 14  1  0
  3 15  1  0
  4 16  1  0
  4 17  1  0
  5 18  1  0
  6 19  1  0
  6 20  1  0
  7 21  1  0
  8 22  1  0
  9 23  1  0
M  END
