
     RDKit          3D

 21 22  0  0  0  0  0  0  0  0999 V2000
   -1.8828   -1.0168   -0.0281 C   0  0  0  0  0  0  0  0  0  0  0  0
   -0.5882   -0.3714   -0.3962 C   0  0  0  0  0  0  0  0  0  0  0  0
   -0.0332   -0.8380   -1.5718 O   0  0  0  0  0  0  0  0  0  0  0  0
   -0.8549    1.1442   -0.4643 C   0  0  0  0  0  0  0  0  0  0  0  0
    0.2683    1.7423    0.4082 C   0  0  0  0  0  0  0  0  0  0  0  0
    1.2964    0.7159    0.1437 C   0  0  0  0  0  0  0  0  0  0  0  0
    1.7790   -0.4190    0.8112 C   0  0  0  0  0  0  0  0  0  0  0  0
    2.4905   -1.4204    0.1064 O   0  0  0  0  0  0  0  0  0  0  0  0
    0.3784   -0.4441    0.7141 C   0  0  0  0  0  0  0  0  0  0  0  0
   -1.6633   -2.0402    0.3546 H   0  0  0  0  0  0  0  0  0  0  0  0
   -2.3568   -0.4184    0.7761 H   0  0  0  0  0  0  0  0  0  0  0  0
   -2.5457   -1.0181   -0.9125 H   0  0  0  0  0  0  0  0  0  0  0  0
   -0.0990   -1.8175   -1.5617 H   0  0  0  0  0  0  0  0  0  0  0  0
   -1.8400    1.4078   -0.1044 H   0  0  0  0  0  0  0  0  0  0  0  0
   -0.6230    1.4505   -1.4900 H   0  0  0  0  0  0  0  0  0  0  0  0
    0.5018    2.7619    0.1323 H   0  0  0  0  0  0  0  0  0  0  0  0
   -0.1298    1.6835    1.4545 H   0  0  0  0  0  0  0  0  0  0  0  0
    1.4530    0.6823   -0.9834 H   0  0  0  0  0  0  0  0  0  0  0  0
    2.2719   -0.2785    1.8124 H   0  0  0  0  0  0  0  0  0  0  0  0
    2.3450   -1.3095   -0.8797 H   0  0  0  0  0  0  0  0  0  0  0  0
   -0.1677   -0.1964    1.6787 H   0  0  0  0  0  0  0  0  0  0  0  0
  1  2  1  0
  2  3  1  0
  2  4  1  0
  4  5  1  0
  5  6  1  0
  6  7  1  0
  7  8  1  0
  7  9  1  0
  9  2  1  0
  9  6  1  0
  1 10  1  0
  1 11  1  0
  1 12  1  0
  3 13  1  0
  4 14  1  0
  4 15  1  0
  5 16  1  0
  5 17  1  0
  6 18  1  0
  7 19  1  0
  8 20  1  0
  9 21  1  0
M  END
