
     RDKit          3D

 17 18  0  0  0  0  0  0  0  0999 V2000
    2.3454    0.2235   -0.1198 C   0  0  0  0  0  0  0  0  0  0  0  0
    1.0185   -0.3771    0.3739 C   0  0  0  0  0  0  0  0  0  0  0  0
    1.2301   -1.0739    1.5901 O   0  0  0  0  0  0  0  0  0  0  0  0
    0.1383   -0.9062   -0.6000 C   0  0  0  0  0  0  0  0  0  0  0  0
   -0.7454   -0.2227   -1.4598 O   0  0  0  0  0  0  0  0  0  0  0  0
   -1.5426   -0.2126   -0.2833 C   0  0  0  0  0  0  0  0  0  0  0  0
   -2.6104    0.8109   -0.3102 C   0  0  0  0  0  0  0  0  0  0  0  0
   -2.7833    1.5643   -1.2470 O   0  0  0  0  0  0  0  0  0  0  0  0
   -0.2323    0.3436    0.2975 C   0  0  0  0  0  0  0  0  0  0  0  0
    2.0751    1.2205   -0.5407 H   0  0  0  0  0  0  0  0  0  0  0  0
    3.0428    0.4068    0.7007 H   0  0  0  0  0  0  0  0  0  0  0  0
    2.8236   -0.4183   -0.8639 H   0  0  0  0  0  0  0  0  0  0  0  0
    0.8592   -0.5663    2.3502 H   0  0  0  0  0  0  0  0  0  0  0  0
   -0.3927   -1.8623   -0.2963 H   0  0  0  0  0  0  0  0  0  0  0  0
   -1.8635   -1.1732    0.0913 H   0  0  0  0  0  0  0  0  0  0  0  0
   -3.2738    0.8995    0.5418 H   0  0  0  0  0  0  0  0  0  0  0  0
   -0.0891    1.3435   -0.2245 H   0  0  0  0  0  0  0  0  0  0  0  0
  1  2  1  0
  2  3  1  0
  2  4  1  0
  4  5  1  0
  5  6  1  0
  6  7  1  0
  7  8  2  0
  6  9  1  0
  9  2  1  0
  9  4  1  0
  1 10  1  0
  1 11  1  0
  1 12  1  0
  3 13  1  0
  4 14  1  0
  6 15  1  0
  7 16  1  0
  9 17  1  0
M  END
