
     RDKit          3D

 18 18  0  0  0  0  0  0  0  0999 V2000
   -0.4990   -1.5920   -0.3587 C   0  0  0  0  0  0  0  0  0  0  0  0
   -0.2357   -0.1562    0.0175 C   0  0  0  0  0  0  0  0  0  0  0  0
   -1.4741    0.6448    0.2568 C   0  0  0  0  0  0  0  0  0  0  0  0
   -1.1662    1.9445    0.5958 O   0  0  0  0  0  0  0  0  0  0  0  0
    0.6995    0.5598   -0.9660 C   0  0  0  0  0  0  0  0  0  0  0  0
    1.8166    0.0574   -0.0740 C   0  0  0  0  0  0  0  0  0  0  0  0
    0.8350   -0.0423    1.0240 C   0  0  0  0  0  0  0  0  0  0  0  0
    0.9090   -0.0319    2.2203 O   0  0  0  0  0  0  0  0  0  0  0  0
    0.1588   -2.2809    0.2355 H   0  0  0  0  0  0  0  0  0  0  0  0
   -0.2313   -1.7752   -1.4342 H   0  0  0  0  0  0  0  0  0  0  0  0
   -1.5598   -1.8526   -0.1972 H   0  0  0  0  0  0  0  0  0  0  0  0
   -2.1410    0.1376    0.9704 H   0  0  0  0  0  0  0  0  0  0  0  0
   -2.0308    0.6888   -0.7183 H   0  0  0  0  0  0  0  0  0  0  0  0
   -1.1119    2.0498    1.5697 H   0  0  0  0  0  0  0  0  0  0  0  0
    0.6794    0.1734   -1.9849 H   0  0  0  0  0  0  0  0  0  0  0  0
    0.5861    1.6490   -0.8247 H   0  0  0  0  0  0  0  0  0  0  0  0
    2.6180    0.7683    0.1285 H   0  0  0  0  0  0  0  0  0  0  0  0
    2.1472   -0.9424   -0.4604 H   0  0  0  0  0  0  0  0  0  0  0  0
  1  2  1  0
  2  3  1  0
  3  4  1  0
  2  5  1  0
  5  6  1  0
  6  7  1  0
  7  8  2  0
  7  2  1  0
  1  9  1  0
  1 10  1  0
  1 11  1  0
  3 12  1  0
  3 13  1  0
  4 14  1  0
  5 15  1  0
  5 16  1  0
  6 17  1  0
  6 18  1  0
M  END
