
     RDKit          3D

 21 22  0  0  0  0  0  0  0  0999 V2000
   -2.0272    1.2158    0.3569 C   0  0  0  0  0  0  0  0  0  0  0  0
   -1.1186    0.0107    0.2148 C   0  0  0  0  0  0  0  0  0  0  0  0
   -1.9344   -1.2881    0.1611 C   0  0  0  0  0  0  0  0  0  0  0  0
    0.1114   -0.0006    0.8991 C   0  0  0  0  0  0  0  0  0  0  0  0
    1.0739    0.9249    1.1373 O   0  0  0  0  0  0  0  0  0  0  0  0
    2.2668    0.3507    0.6355 C   0  0  0  0  0  0  0  0  0  0  0  0
    2.1780   -0.2642   -0.6990 C   0  0  0  0  0  0  0  0  0  0  0  0
    0.9315   -0.8038   -1.0624 O   0  0  0  0  0  0  0  0  0  0  0  0
   -0.0029    0.0943   -0.6572 C   0  0  0  0  0  0  0  0  0  0  0  0
   -2.8218    0.9639    1.0981 H   0  0  0  0  0  0  0  0  0  0  0  0
   -1.4674    2.1327    0.6507 H   0  0  0  0  0  0  0  0  0  0  0  0
   -2.5588    1.4419   -0.6114 H   0  0  0  0  0  0  0  0  0  0  0  0
   -2.7872   -1.1720   -0.5342 H   0  0  0  0  0  0  0  0  0  0  0  0
   -2.2175   -1.5815    1.1774 H   0  0  0  0  0  0  0  0  0  0  0  0
   -1.2907   -2.1041   -0.2753 H   0  0  0  0  0  0  0  0  0  0  0  0
    0.4445   -0.9978    1.3216 H   0  0  0  0  0  0  0  0  0  0  0  0
    2.5260   -0.4502    1.3880 H   0  0  0  0  0  0  0  0  0  0  0  0
    3.0884    1.0835    0.6449 H   0  0  0  0  0  0  0  0  0  0  0  0
    2.4915    0.4449   -1.5213 H   0  0  0  0  0  0  0  0  0  0  0  0
    2.9279   -1.0990   -0.7521 H   0  0  0  0  0  0  0  0  0  0  0  0
    0.1866    1.0982   -1.1255 H   0  0  0  0  0  0  0  0  0  0  0  0
  1  2  1  0
  2  3  1  0
  2  4  1  0
  4  5  1  0
  5  6  1  0
  6  7  1  0
  7  8  1  0
  8  9  1  0
  9  2  1  0
  9  4  1  0
  1 10  1  0
  1 11  1  0
  1 12  1  0
  3 13  1  0
  3 14  1  0
  3 15  1  0
  4 16  1  0
  6 17  1  0
  6 18  1  0
  7 19  1  0
  7 20  1  0
  9 21  1  0
M  END
