
     RDKit          3D

 17 18  0  0  0  0  0  0  0  0999 V2000
   -2.0993   -0.6641   -0.0849 C   0  0  0  0  0  0  0  0  0  0  0  0
   -0.8894    0.2898   -0.0877 C   0  0  0  0  0  0  0  0  0  0  0  0
   -1.3219    1.5836   -0.4771 O   0  0  0  0  0  0  0  0  0  0  0  0
    0.3305   -0.2667   -0.5725 C   0  0  0  0  0  0  0  0  0  0  0  0
    1.3837   -1.0257    0.1387 C   0  0  0  0  0  0  0  0  0  0  0  0
    1.7511   -2.1641    0.1136 O   0  0  0  0  0  0  0  0  0  0  0  0
    1.6269    0.3032    0.7734 C   0  0  0  0  0  0  0  0  0  0  0  0
    2.1294    1.2892   -0.0409 O   0  0  0  0  0  0  0  0  0  0  0  0
    0.1214    0.2443    0.9143 C   0  0  0  0  0  0  0  0  0  0  0  0
   -1.7572   -1.7215   -0.2305 H   0  0  0  0  0  0  0  0  0  0  0  0
   -2.5513   -0.6491    0.9473 H   0  0  0  0  0  0  0  0  0  0  0  0
   -2.8615   -0.3649   -0.7963 H   0  0  0  0  0  0  0  0  0  0  0  0
   -1.8941    1.9840    0.2209 H   0  0  0  0  0  0  0  0  0  0  0  0
    0.8912    0.4599   -1.2424 H   0  0  0  0  0  0  0  0  0  0  0  0
    2.1494    0.2965    1.7303 H   0  0  0  0  0  0  0  0  0  0  0  0
    3.0655    1.0058   -0.2876 H   0  0  0  0  0  0  0  0  0  0  0  0
   -0.0744   -0.6001    1.6567 H   0  0  0  0  0  0  0  0  0  0  0  0
  1  2  1  0
  2  3  1  0
  2  4  1  0
  4  5  1  0
  5  6  2  0
  5  7  1  0
  7  8  1  0
  7  9  1  0
  9  2  1  0
  9  4  1  0
  1 10  1  0
  1 11  1  0
  1 12  1  0
  3 13  1  0
  4 14  1  0
  7 15  1  0
  8 16  1  0
  9 17  1  0
M  END
