
     RDKit          3D

 25 25  0  0  0  0  0  0  0  0999 V2000
   -2.8717   -0.7401   -0.4781 C   0  0  0  0  0  0  0  0  0  0  0  0
   -1.4761   -0.0640   -0.2725 C   0  0  0  0  0  0  0  0  0  0  0  0
   -0.5819   -0.9569    0.4800 C   0  0  0  0  0  0  0  0  0  0  0  0
    0.8044   -0.5847    0.7842 C   0  0  0  0  0  0  0  0  0  0  0  0
    1.7310   -0.4466   -0.3711 C   0  0  0  0  0  0  0  0  0  0  0  0
    3.1450   -0.0494    0.1060 C   0  0  0  0  0  0  0  0  0  0  0  0
    3.0252    1.1601    0.7656 O   0  0  0  0  0  0  0  0  0  0  0  0
   -1.1843    1.0716   -1.1217 C   0  0  0  0  0  0  0  0  0  0  0  0
   -1.7147    1.3504    0.2855 C   0  0  0  0  0  0  0  0  0  0  0  0
   -3.5732    0.0191   -0.8784 H   0  0  0  0  0  0  0  0  0  0  0  0
   -2.7962   -1.5568   -1.2019 H   0  0  0  0  0  0  0  0  0  0  0  0
   -3.2612   -1.0399    0.5144 H   0  0  0  0  0  0  0  0  0  0  0  0
   -0.5527   -1.9370   -0.0811 H   0  0  0  0  0  0  0  0  0  0  0  0
   -1.1368   -1.2202    1.4401 H   0  0  0  0  0  0  0  0  0  0  0  0
    0.8899    0.2727    1.5068 H   0  0  0  0  0  0  0  0  0  0  0  0
    1.2283   -1.4433    1.4044 H   0  0  0  0  0  0  0  0  0  0  0  0
    1.8037   -1.4792   -0.8441 H   0  0  0  0  0  0  0  0  0  0  0  0
    1.4995    0.2194   -1.1712 H   0  0  0  0  0  0  0  0  0  0  0  0
    3.5576   -0.8439    0.7540 H   0  0  0  0  0  0  0  0  0  0  0  0
    3.7490    0.0678   -0.8176 H   0  0  0  0  0  0  0  0  0  0  0  0
    3.5842    1.8568    0.3103 H   0  0  0  0  0  0  0  0  0  0  0  0
   -0.2311    1.5695   -1.2757 H   0  0  0  0  0  0  0  0  0  0  0  0
   -1.8860    1.3091   -1.9805 H   0  0  0  0  0  0  0  0  0  0  0  0
   -1.0152    1.7026    1.0678 H   0  0  0  0  0  0  0  0  0  0  0  0
   -2.7365    1.7627    0.2856 H   0  0  0  0  0  0  0  0  0  0  0  0
  1  2  1  0
  2  3  1  0
  3  4  1  0
  4  5  1  0
  5  6  1  0
  6  7  1  0
  2  8  1  0
  8  9  1  0
  9  2  1  0
  1 10  1  0
  1 11  1  0
  1 12  1  0
  3 13  1  0
  3 14  1  0
  4 15  1  0
  4 16  1  0
  5 17  1  0
  5 18  1  0
  6 19  1  0
  6 20  1  0
  7 21  1  0
  8 22  1  0
  8 23  1  0
  9 24  1  0
  9 25  1  0
M  END
