
     RDKit          3D

 19 19  0  0  0  0  0  0  0  0999 V2000
   -1.4141   -0.3640    0.7332 C   0  0  0  0  0  0  0  0  0  0  0  0
   -0.7555   -0.0498   -0.5992 C   0  0  0  0  0  0  0  0  0  0  0  0
   -1.6914    0.0138   -1.6272 O   0  0  0  0  0  0  0  0  0  0  0  0
   -0.0635    1.2938   -0.5434 C   0  0  0  0  0  0  0  0  0  0  0  0
    0.8700    1.2506    0.6068 C   0  0  0  0  0  0  0  0  0  0  0  0
    1.5551    0.1571    0.8534 C   0  0  0  0  0  0  0  0  0  0  0  0
    1.4674   -1.0865    0.0431 C   0  0  0  0  0  0  0  0  0  0  0  0
    0.2792   -1.0749   -0.8363 C   0  0  0  0  0  0  0  0  0  0  0  0
    0.1388   -1.8738   -1.7309 O   0  0  0  0  0  0  0  0  0  0  0  0
   -2.4287   -0.7753    0.4896 H   0  0  0  0  0  0  0  0  0  0  0  0
   -1.4631    0.5140    1.4008 H   0  0  0  0  0  0  0  0  0  0  0  0
   -0.8709   -1.1849    1.2763 H   0  0  0  0  0  0  0  0  0  0  0  0
   -2.4664    0.5209   -1.2606 H   0  0  0  0  0  0  0  0  0  0  0  0
   -0.7721    2.1366   -0.4923 H   0  0  0  0  0  0  0  0  0  0  0  0
    0.5643    1.3626   -1.4690 H   0  0  0  0  0  0  0  0  0  0  0  0
    0.9446    2.1545    1.2095 H   0  0  0  0  0  0  0  0  0  0  0  0
    2.2283    0.1470    1.6948 H   0  0  0  0  0  0  0  0  0  0  0  0
    2.4257   -1.2079   -0.5235 H   0  0  0  0  0  0  0  0  0  0  0  0
    1.4521   -1.9339    0.7746 H   0  0  0  0  0  0  0  0  0  0  0  0
  1  2  1  0
  2  3  1  0
  2  4  1  0
  4  5  1  0
  5  6  2  0
  6  7  1  0
  7  8  1  0
  8  9  2  0
  8  2  1  0
  1 10  1  0
  1 11  1  0
  1 12  1  0
  3 13  1  0
  4 14  1  0
  4 15  1  0
  5 16  1  0
  6 17  1  0
  7 18  1  0
  7 19  1  0
M  END
