
     RDKit          3D

 19 19  0  0  0  0  0  0  0  0999 V2000
   -0.5596   -1.4914    0.1945 C   0  0  0  0  0  0  0  0  0  0  0  0
   -0.3978    0.0025    0.3252 C   0  0  0  0  0  0  0  0  0  0  0  0
   -1.6492    0.7152   -0.0903 C   0  0  0  0  0  0  0  0  0  0  0  0
   -2.0588    0.3878   -1.3748 O   0  0  0  0  0  0  0  0  0  0  0  0
   -0.0120    0.3418    1.5983 O   0  0  0  0  0  0  0  0  0  0  0  0
    1.2515    0.7332    1.2316 C   0  0  0  0  0  0  0  0  0  0  0  0
    0.8897    0.5264   -0.2364 C   0  0  0  0  0  0  0  0  0  0  0  0
    1.7973   -0.4830   -0.8246 C   0  0  0  0  0  0  0  0  0  0  0  0
    2.2565   -1.4163   -0.2067 O   0  0  0  0  0  0  0  0  0  0  0  0
   -1.6190   -1.7843    0.3557 H   0  0  0  0  0  0  0  0  0  0  0  0
    0.0449   -2.0289    0.9218 H   0  0  0  0  0  0  0  0  0  0  0  0
   -0.3290   -1.7561   -0.8686 H   0  0  0  0  0  0  0  0  0  0  0  0
   -2.4627    0.3693    0.6057 H   0  0  0  0  0  0  0  0  0  0  0  0
   -1.5928    1.8129    0.0392 H   0  0  0  0  0  0  0  0  0  0  0  0
   -1.9884    1.1360   -2.0140 H   0  0  0  0  0  0  0  0  0  0  0  0
    2.0403    0.0697    1.6148 H   0  0  0  0  0  0  0  0  0  0  0  0
    1.4909    1.7979    1.4075 H   0  0  0  0  0  0  0  0  0  0  0  0
    0.8311    1.4528   -0.8178 H   0  0  0  0  0  0  0  0  0  0  0  0
    2.0672   -0.3852   -1.8610 H   0  0  0  0  0  0  0  0  0  0  0  0
  1  2  1  0
  2  3  1  0
  3  4  1  0
  2  5  1  0
  5  6  1  0
  6  7  1  0
  7  8  1  0
  8  9  2  0
  7  2  1  0
  1 10  1  0
  1 11  1  0
  1 12  1  0
  3 13  1  0
  3 14  1  0
  4 15  1  0
  6 16  1  0
  6 17  1  0
  7 18  1  0
  8 19  1  0
M  END
