
     RDKit          3D

 23 24  0  0  0  0  0  0  0  0999 V2000
   -1.8298    0.0461   -0.9273 C   0  0  0  0  0  0  0  0  0  0  0  0
   -0.7922   -0.1979    0.1609 C   0  0  0  0  0  0  0  0  0  0  0  0
   -1.3478    0.1001    1.5111 C   0  0  0  0  0  0  0  0  0  0  0  0
   -0.1351   -1.5454    0.1153 C   0  0  0  0  0  0  0  0  0  0  0  0
    1.1503   -0.8752   -0.2661 C   0  0  0  0  0  0  0  0  0  0  0  0
    2.3298   -1.1725    0.3686 O   0  0  0  0  0  0  0  0  0  0  0  0
    1.1440    0.0267   -1.4706 C   0  0  0  0  0  0  0  0  0  0  0  0
    0.5013    0.4344   -0.2071 C   0  0  0  0  0  0  0  0  0  0  0  0
    1.0509    1.6058    0.5291 C   0  0  0  0  0  0  0  0  0  0  0  0
   -1.4346   -0.1485   -1.9367 H   0  0  0  0  0  0  0  0  0  0  0  0
   -2.0362    1.1563   -0.8952 H   0  0  0  0  0  0  0  0  0  0  0  0
   -2.7584   -0.5009   -0.7619 H   0  0  0  0  0  0  0  0  0  0  0  0
   -1.3957    1.1621    1.7733 H   0  0  0  0  0  0  0  0  0  0  0  0
   -2.4075   -0.2757    1.5251 H   0  0  0  0  0  0  0  0  0  0  0  0
   -0.8402   -0.4393    2.3364 H   0  0  0  0  0  0  0  0  0  0  0  0
   -0.5066   -2.2308   -0.6688 H   0  0  0  0  0  0  0  0  0  0  0  0
   -0.0254   -2.0160    1.1228 H   0  0  0  0  0  0  0  0  0  0  0  0
    3.0657   -1.0161   -0.3023 H   0  0  0  0  0  0  0  0  0  0  0  0
    0.5588   -0.3780   -2.3312 H   0  0  0  0  0  0  0  0  0  0  0  0
    2.1517    0.4006   -1.7449 H   0  0  0  0  0  0  0  0  0  0  0  0
    0.2654    2.1466    1.1141 H   0  0  0  0  0  0  0  0  0  0  0  0
    1.3940    2.3585   -0.2361 H   0  0  0  0  0  0  0  0  0  0  0  0
    1.8975    1.3590    1.1914 H   0  0  0  0  0  0  0  0  0  0  0  0
  1  2  1  0
  2  3  1  0
  2  4  1  0
  4  5  1  0
  5  6  1  0
  5  7  1  0
  7  8  1  0
  8  9  1  0
  8  2  1  0
  8  5  1  0
  1 10  1  0
  1 11  1  0
  1 12  1  0
  3 13  1  0
  3 14  1  0
  3 15  1  0
  4 16  1  0
  4 17  1  0
  6 18  1  0
  7 19  1  0
  7 20  1  0
  9 21  1  0
  9 22  1  0
  9 23  1  0
M  END
