
     RDKit          3D

 17 17  0  0  0  0  0  0  0  0999 V2000
   -1.7164   -0.5840    0.3293 C   0  0  0  0  0  0  0  0  0  0  0  0
   -0.3823    0.0582    0.1114 C   0  0  0  0  0  0  0  0  0  0  0  0
   -0.5156    1.4309   -0.5535 C   0  0  0  0  0  0  0  0  0  0  0  0
    0.5588   -0.7473   -0.7253 C   0  0  0  0  0  0  0  0  0  0  0  0
    1.7878   -0.8023    0.0878 C   0  0  0  0  0  0  0  0  0  0  0  0
    2.7949   -1.5107   -0.0997 O   0  0  0  0  0  0  0  0  0  0  0  0
    1.6054    0.1381    1.1669 C   0  0  0  0  0  0  0  0  0  0  0  0
    2.4888    0.7478    1.8297 O   0  0  0  0  0  0  0  0  0  0  0  0
    0.2377    0.2577    1.3536 O   0  0  0  0  0  0  0  0  0  0  0  0
   -1.6640   -1.2372    1.2345 H   0  0  0  0  0  0  0  0  0  0  0  0
   -2.1251   -1.0930   -0.5429 H   0  0  0  0  0  0  0  0  0  0  0  0
   -2.4486    0.2263    0.6160 H   0  0  0  0  0  0  0  0  0  0  0  0
   -0.7227    1.2049   -1.6280 H   0  0  0  0  0  0  0  0  0  0  0  0
    0.4592    1.9280   -0.4038 H   0  0  0  0  0  0  0  0  0  0  0  0
   -1.3717    1.9769   -0.1325 H   0  0  0  0  0  0  0  0  0  0  0  0
    0.1729   -1.7603   -0.9565 H   0  0  0  0  0  0  0  0  0  0  0  0
    0.8408   -0.2342   -1.6870 H   0  0  0  0  0  0  0  0  0  0  0  0
  1  2  1  0
  2  3  1  0
  2  4  1  0
  4  5  1  0
  5  6  2  0
  5  7  1  0
  7  8  2  0
  7  9  1  0
  9  2  1  0
  1 10  1  0
  1 11  1  0
  1 12  1  0
  3 13  1  0
  3 14  1  0
  3 15  1  0
  4 16  1  0
  4 17  1  0
M  END
