
     RDKit          3D

 23 25  0  0  0  0  0  0  0  0999 V2000
   -1.8190   -0.7936    0.9771 C   0  0  0  0  0  0  0  0  0  0  0  0
   -1.1710    0.0025   -0.1630 C   0  0  0  0  0  0  0  0  0  0  0  0
   -1.9529    1.2045   -0.6557 C   0  0  0  0  0  0  0  0  0  0  0  0
   -0.4874   -0.8727   -1.2365 C   0  0  0  0  0  0  0  0  0  0  0  0
    0.2693   -0.1016   -0.2687 C   0  0  0  0  0  0  0  0  0  0  0  0
    1.1808    1.0267   -0.6312 C   0  0  0  0  0  0  0  0  0  0  0  0
    2.0619    0.6229    0.5490 C   0  0  0  0  0  0  0  0  0  0  0  0
    2.6259   -0.7467    0.5420 C   0  0  0  0  0  0  0  0  0  0  0  0
    1.1788   -0.6528    0.7584 C   0  0  0  0  0  0  0  0  0  0  0  0
   -1.2349   -0.7292    1.9053 H   0  0  0  0  0  0  0  0  0  0  0  0
   -2.8437   -0.4716    1.1771 H   0  0  0  0  0  0  0  0  0  0  0  0
   -1.8629   -1.8658    0.6916 H   0  0  0  0  0  0  0  0  0  0  0  0
   -2.2704    1.0766   -1.7195 H   0  0  0  0  0  0  0  0  0  0  0  0
   -2.8683    1.3862   -0.0338 H   0  0  0  0  0  0  0  0  0  0  0  0
   -1.3568    2.1488   -0.5569 H   0  0  0  0  0  0  0  0  0  0  0  0
   -0.5109   -0.4906   -2.2833 H   0  0  0  0  0  0  0  0  0  0  0  0
   -0.6508   -1.9672   -1.1415 H   0  0  0  0  0  0  0  0  0  0  0  0
    1.6488    0.8191   -1.6301 H   0  0  0  0  0  0  0  0  0  0  0  0
    0.7837    2.0487   -0.5332 H   0  0  0  0  0  0  0  0  0  0  0  0
    2.1276    1.2804    1.4179 H   0  0  0  0  0  0  0  0  0  0  0  0
    3.0702   -1.1278   -0.3950 H   0  0  0  0  0  0  0  0  0  0  0  0
    3.2674   -0.9859    1.4305 H   0  0  0  0  0  0  0  0  0  0  0  0
    0.8145   -0.8110    1.7996 H   0  0  0  0  0  0  0  0  0  0  0  0
  1  2  1  0
  2  3  1  0
  2  4  1  0
  4  5  1  0
  5  6  1  0
  6  7  1  0
  7  8  1  0
  8  9  1  0
  5  2  1  0
  9  7  1  0
  9  5  1  0
  1 10  1  0
  1 11  1  0
  1 12  1  0
  3 13  1  0
  3 14  1  0
  3 15  1  0
  4 16  1  0
  4 17  1  0
  6 18  1  0
  6 19  1  0
  7 20  1  0
  8 21  1  0
  8 22  1  0
  9 23  1  0
M  END
