
     RDKit          3D

 23 25  0  0  0  0  0  0  0  0999 V2000
   -1.2798   -0.9453    0.9814 C   0  0  0  0  0  0  0  0  0  0  0  0
   -0.9337   -0.0390   -0.1565 C   0  0  0  0  0  0  0  0  0  0  0  0
    0.5111    0.3858   -0.2074 C   0  0  0  0  0  0  0  0  0  0  0  0
    1.1231    1.1378    0.9238 C   0  0  0  0  0  0  0  0  0  0  0  0
    2.0279   -0.0256    1.1877 C   0  0  0  0  0  0  0  0  0  0  0  0
    1.5268   -0.7146   -0.0350 C   0  0  0  0  0  0  0  0  0  0  0  0
    1.3688   -0.0253   -1.3293 C   0  0  0  0  0  0  0  0  0  0  0  0
   -1.9961    0.9018   -0.5885 C   0  0  0  0  0  0  0  0  0  0  0  0
   -1.5753   -0.2349   -1.5093 C   0  0  0  0  0  0  0  0  0  0  0  0
   -1.1664   -0.3662    1.9208 H   0  0  0  0  0  0  0  0  0  0  0  0
   -2.3231   -1.3347    0.9160 H   0  0  0  0  0  0  0  0  0  0  0  0
   -0.5839   -1.8151    1.0752 H   0  0  0  0  0  0  0  0  0  0  0  0
    1.7338    2.0393    0.6282 H   0  0  0  0  0  0  0  0  0  0  0  0
    0.4018    1.3966    1.7253 H   0  0  0  0  0  0  0  0  0  0  0  0
    3.1103    0.1759    1.1292 H   0  0  0  0  0  0  0  0  0  0  0  0
    1.8047   -0.5990    2.1231 H   0  0  0  0  0  0  0  0  0  0  0  0
    1.2050   -1.7524    0.0859 H   0  0  0  0  0  0  0  0  0  0  0  0
    0.9408   -0.6444   -2.1437 H   0  0  0  0  0  0  0  0  0  0  0  0
    2.0942    0.7222   -1.7043 H   0  0  0  0  0  0  0  0  0  0  0  0
   -3.0095    0.7756   -0.1684 H   0  0  0  0  0  0  0  0  0  0  0  0
   -1.6861    1.9219   -0.8005 H   0  0  0  0  0  0  0  0  0  0  0  0
   -2.2718   -1.0814   -1.6509 H   0  0  0  0  0  0  0  0  0  0  0  0
   -1.0224    0.1210   -2.4028 H   0  0  0  0  0  0  0  0  0  0  0  0
  1  2  1  0
  2  3  1  0
  3  4  1  0
  4  5  1  0
  5  6  1  0
  6  7  1  0
  2  8  1  0
  8  9  1  0
  9  2  1  0
  6  3  1  0
  7  3  1  0
  1 10  1  0
  1 11  1  0
  1 12  1  0
  4 13  1  0
  4 14  1  0
  5 15  1  0
  5 16  1  0
  6 17  1  0
  7 18  1  0
  7 19  1  0
  8 20  1  0
  8 21  1  0
  9 22  1  0
  9 23  1  0
M  END
