
     RDKit          3D

 21 21  0  0  0  0  0  0  0  0999 V2000
    0.3794    1.6184   -0.6946 C   0  0  0  0  0  0  0  0  0  0  0  0
    0.0499    0.2612   -0.1874 C   0  0  0  0  0  0  0  0  0  0  0  0
    0.7113   -0.0392    1.1523 C   0  0  0  0  0  0  0  0  0  0  0  0
    2.1737    0.0668    0.9265 C   0  0  0  0  0  0  0  0  0  0  0  0
    2.8653    0.9459    1.4300 O   0  0  0  0  0  0  0  0  0  0  0  0
    0.1742   -0.8948   -1.1460 C   0  0  0  0  0  0  0  0  0  0  0  0
   -1.0661   -1.4782   -0.4606 C   0  0  0  0  0  0  0  0  0  0  0  0
   -1.4608   -0.0231   -0.1897 C   0  0  0  0  0  0  0  0  0  0  0  0
   -2.0936    0.1908    1.0039 O   0  0  0  0  0  0  0  0  0  0  0  0
    1.4719    1.7913   -0.5503 H   0  0  0  0  0  0  0  0  0  0  0  0
   -0.1668    2.4170   -0.1949 H   0  0  0  0  0  0  0  0  0  0  0  0
    0.1367    1.6875   -1.7963 H   0  0  0  0  0  0  0  0  0  0  0  0
    0.3416    0.6964    1.8912 H   0  0  0  0  0  0  0  0  0  0  0  0
    0.5120   -1.0492    1.5222 H   0  0  0  0  0  0  0  0  0  0  0  0
    2.5916   -0.7068    0.2655 H   0  0  0  0  0  0  0  0  0  0  0  0
    1.0752   -1.5217   -1.0266 H   0  0  0  0  0  0  0  0  0  0  0  0
   -0.0841   -0.5881   -2.1684 H   0  0  0  0  0  0  0  0  0  0  0  0
   -0.8768   -2.0761    0.4285 H   0  0  0  0  0  0  0  0  0  0  0  0
   -1.7621   -2.0109   -1.1307 H   0  0  0  0  0  0  0  0  0  0  0  0
   -1.9048    0.3903   -1.0981 H   0  0  0  0  0  0  0  0  0  0  0  0
   -3.0677    0.3226    0.7766 H   0  0  0  0  0  0  0  0  0  0  0  0
  1  2  1  0
  2  3  1  0
  3  4  1  0
  4  5  2  0
  2  6  1  0
  6  7  1  0
  7  8  1  0
  8  9  1  0
  8  2  1  0
  1 10  1  0
  1 11  1  0
  1 12  1  0
  3 13  1  0
  3 14  1  0
  4 15  1  0
  6 16  1  0
  6 17  1  0
  7 18  1  0
  7 19  1  0
  8 20  1  0
  9 21  1  0
M  END
