
     RDKit          3D

 25 25  0  0  0  0  0  0  0  0999 V2000
   -1.3414   -1.1203    0.9408 C   0  0  0  0  0  0  0  0  0  0  0  0
   -1.0145   -0.0455   -0.0485 C   0  0  0  0  0  0  0  0  0  0  0  0
   -2.3084    0.4124   -0.6842 C   0  0  0  0  0  0  0  0  0  0  0  0
   -0.1052   -0.5194   -1.1538 C   0  0  0  0  0  0  0  0  0  0  0  0
    1.2418   -0.9709   -0.6517 C   0  0  0  0  0  0  0  0  0  0  0  0
    2.1186    0.2038   -0.3089 C   0  0  0  0  0  0  0  0  0  0  0  0
    1.9162    0.7033    1.0944 C   0  0  0  0  0  0  0  0  0  0  0  0
    0.6084    0.6739    1.5160 O   0  0  0  0  0  0  0  0  0  0  0  0
   -0.3050    1.1409    0.6070 C   0  0  0  0  0  0  0  0  0  0  0  0
   -0.4825   -1.6453    1.3573 H   0  0  0  0  0  0  0  0  0  0  0  0
   -1.8536   -0.6166    1.8067 H   0  0  0  0  0  0  0  0  0  0  0  0
   -2.0943   -1.7920    0.4583 H   0  0  0  0  0  0  0  0  0  0  0  0
   -2.2704    0.4366   -1.7824 H   0  0  0  0  0  0  0  0  0  0  0  0
   -2.6006    1.3994   -0.2479 H   0  0  0  0  0  0  0  0  0  0  0  0
   -3.1616   -0.2734   -0.4249 H   0  0  0  0  0  0  0  0  0  0  0  0
   -0.5897   -1.2452   -1.8299 H   0  0  0  0  0  0  0  0  0  0  0  0
    0.0943    0.3891   -1.7960 H   0  0  0  0  0  0  0  0  0  0  0  0
    1.7160   -1.5551   -1.4879 H   0  0  0  0  0  0  0  0  0  0  0  0
    1.2014   -1.6439    0.2052 H   0  0  0  0  0  0  0  0  0  0  0  0
    3.1778   -0.1643   -0.3655 H   0  0  0  0  0  0  0  0  0  0  0  0
    2.0573    1.0283   -1.0477 H   0  0  0  0  0  0  0  0  0  0  0  0
    2.4066    1.6860    1.1942 H   0  0  0  0  0  0  0  0  0  0  0  0
    2.4906    0.0141    1.7766 H   0  0  0  0  0  0  0  0  0  0  0  0
   -1.0353    1.7825    1.1019 H   0  0  0  0  0  0  0  0  0  0  0  0
    0.1333    1.7217   -0.2292 H   0  0  0  0  0  0  0  0  0  0  0  0
  1  2  1  0
  2  3  1  0
  2  4  1  0
  4  5  1  0
  5  6  1  0
  6  7  1  0
  7  8  1  0
  8  9  1  0
  9  2  1  0
  1 10  1  0
  1 11  1  0
  1 12  1  0
  3 13  1  0
  3 14  1  0
  3 15  1  0
  4 16  1  0
  4 17  1  0
  5 18  1  0
  5 19  1  0
  6 20  1  0
  6 21  1  0
  7 22  1  0
  7 23  1  0
  9 24  1  0
  9 25  1  0
M  END
