
     RDKit          3D

 25 26  0  0  0  0  0  0  0  0999 V2000
   -1.5124   -1.3187    0.2335 C   0  0  0  0  0  0  0  0  0  0  0  0
   -0.9085    0.0813    0.1460 C   0  0  0  0  0  0  0  0  0  0  0  0
   -1.1903    0.9655    1.3207 C   0  0  0  0  0  0  0  0  0  0  0  0
   -1.2946    0.6736   -1.2107 C   0  0  0  0  0  0  0  0  0  0  0  0
    0.0157    0.0773   -1.7410 C   0  0  0  0  0  0  0  0  0  0  0  0
    0.4931    0.0150   -0.3416 C   0  0  0  0  0  0  0  0  0  0  0  0
    1.3381   -1.1236    0.0789 C   0  0  0  0  0  0  0  0  0  0  0  0
    2.2255   -0.1191    0.8273 C   0  0  0  0  0  0  0  0  0  0  0  0
    1.4635    1.0180    0.1356 C   0  0  0  0  0  0  0  0  0  0  0  0
   -1.4677   -1.7353    1.2437 H   0  0  0  0  0  0  0  0  0  0  0  0
   -0.9471   -1.9979   -0.4590 H   0  0  0  0  0  0  0  0  0  0  0  0
   -2.5534   -1.2997   -0.1897 H   0  0  0  0  0  0  0  0  0  0  0  0
   -2.2259    0.8040    1.6564 H   0  0  0  0  0  0  0  0  0  0  0  0
   -1.0176    2.0201    1.0143 H   0  0  0  0  0  0  0  0  0  0  0  0
   -0.5300    0.7608    2.1683 H   0  0  0  0  0  0  0  0  0  0  0  0
   -1.3122    1.7743   -1.2427 H   0  0  0  0  0  0  0  0  0  0  0  0
   -2.1772    0.1893   -1.6793 H   0  0  0  0  0  0  0  0  0  0  0  0
   -0.1690   -0.9476   -2.1524 H   0  0  0  0  0  0  0  0  0  0  0  0
    0.5430    0.7624   -2.4255 H   0  0  0  0  0  0  0  0  0  0  0  0
    0.8419   -1.8620    0.7538 H   0  0  0  0  0  0  0  0  0  0  0  0
    1.8445   -1.6075   -0.7732 H   0  0  0  0  0  0  0  0  0  0  0  0
    3.2856   -0.1849    0.5712 H   0  0  0  0  0  0  0  0  0  0  0  0
    2.0124   -0.1667    1.9165 H   0  0  0  0  0  0  0  0  0  0  0  0
    1.1189    1.7981    0.8282 H   0  0  0  0  0  0  0  0  0  0  0  0
    2.1236    1.4233   -0.6792 H   0  0  0  0  0  0  0  0  0  0  0  0
  1  2  1  0
  2  3  1  0
  2  4  1  0
  4  5  1  0
  5  6  1  0
  6  7  1  0
  7  8  1  0
  8  9  1  0
  6  2  1  0
  9  6  1  0
  1 10  1  0
  1 11  1  0
  1 12  1  0
  3 13  1  0
  3 14  1  0
  3 15  1  0
  4 16  1  0
  4 17  1  0
  5 18  1  0
  5 19  1  0
  7 20  1  0
  7 21  1  0
  8 22  1  0
  8 23  1  0
  9 24  1  0
  9 25  1  0
M  END
