
     RDKit          3D

 19 20  0  0  0  0  0  0  0  0999 V2000
   -1.2558    1.5148   -0.5116 C   0  0  0  0  0  0  0  0  0  0  0  0
   -0.6899    0.1714   -0.0174 C   0  0  0  0  0  0  0  0  0  0  0  0
   -1.8543   -0.7527    0.3874 C   0  0  0  0  0  0  0  0  0  0  0  0
    0.5015    0.2374    0.7398 C   0  0  0  0  0  0  0  0  0  0  0  0
    1.9496    0.2989    0.2463 C   0  0  0  0  0  0  0  0  0  0  0  0
    1.5988   -1.1747   -0.0708 C   0  0  0  0  0  0  0  0  0  0  0  0
    0.3908   -0.4605   -0.6835 C   0  0  0  0  0  0  0  0  0  0  0  0
   -1.6453    2.1230    0.2936 H   0  0  0  0  0  0  0  0  0  0  0  0
   -0.3545    2.0479   -0.9336 H   0  0  0  0  0  0  0  0  0  0  0  0
   -1.9158    1.3099   -1.3480 H   0  0  0  0  0  0  0  0  0  0  0  0
   -1.4583   -1.6748    0.8821 H   0  0  0  0  0  0  0  0  0  0  0  0
   -2.3534   -1.1159   -0.5542 H   0  0  0  0  0  0  0  0  0  0  0  0
   -2.5724   -0.2211    1.0277 H   0  0  0  0  0  0  0  0  0  0  0  0
    0.5140   -0.5019    1.6045 H   0  0  0  0  0  0  0  0  0  0  0  0
    2.0051    0.9431   -0.6269 H   0  0  0  0  0  0  0  0  0  0  0  0
    2.6679    0.4304    1.0457 H   0  0  0  0  0  0  0  0  0  0  0  0
    2.2392   -1.6406   -0.8120 H   0  0  0  0  0  0  0  0  0  0  0  0
    1.4129   -1.7025    0.8608 H   0  0  0  0  0  0  0  0  0  0  0  0
    0.8200    0.1677   -1.5298 H   0  0  0  0  0  0  0  0  0  0  0  0
  1  2  1  0
  2  3  1  0
  2  4  1  0
  4  5  1  0
  5  6  1  0
  6  7  1  0
  7  2  1  0
  7  4  1  0
  1  8  1  0
  1  9  1  0
  1 10  1  0
  3 11  1  0
  3 12  1  0
  3 13  1  0
  4 14  1  0
  5 15  1  0
  5 16  1  0
  6 17  1  0
  6 18  1  0
  7 19  1  0
M  END
