
     RDKit          3D

 17 18  0  0  0  0  0  0  0  0999 V2000
   -0.7818   -1.4843   -0.0478 C   0  0  0  0  0  0  0  0  0  0  0  0
   -0.4996   -0.0176   -0.2359 C   0  0  0  0  0  0  0  0  0  0  0  0
   -1.5881    0.8321    0.3251 C   0  0  0  0  0  0  0  0  0  0  0  0
   -0.2519    0.3620   -1.5989 O   0  0  0  0  0  0  0  0  0  0  0  0
    0.7796    1.1925   -1.1479 C   0  0  0  0  0  0  0  0  0  0  0  0
    1.3055    2.2076   -1.6238 O   0  0  0  0  0  0  0  0  0  0  0  0
    0.8980    0.3468    0.0266 C   0  0  0  0  0  0  0  0  0  0  0  0
    1.9871   -0.3351    0.4739 C   0  0  0  0  0  0  0  0  0  0  0  0
    1.3929    0.7527    1.2178 O   0  0  0  0  0  0  0  0  0  0  0  0
   -0.8750   -2.0187   -0.9974 H   0  0  0  0  0  0  0  0  0  0  0  0
   -1.6627   -1.6280    0.6101 H   0  0  0  0  0  0  0  0  0  0  0  0
    0.0726   -1.9697    0.4994 H   0  0  0  0  0  0  0  0  0  0  0  0
   -1.9918    1.5772   -0.4170 H   0  0  0  0  0  0  0  0  0  0  0  0
   -2.4684    0.2096    0.6039 H   0  0  0  0  0  0  0  0  0  0  0  0
   -1.3039    1.4228    1.2093 H   0  0  0  0  0  0  0  0  0  0  0  0
    3.0394   -0.1220    0.1206 H   0  0  0  0  0  0  0  0  0  0  0  0
    1.9480   -1.3280    0.9818 H   0  0  0  0  0  0  0  0  0  0  0  0
  1  2  1  0
  2  3  1  0
  2  4  1  0
  4  5  1  0
  5  6  2  0
  5  7  1  0
  7  8  1  0
  8  9  1  0
  7  2  1  0
  9  7  1  0
  1 10  1  0
  1 11  1  0
  1 12  1  0
  3 13  1  0
  3 14  1  0
  3 15  1  0
  8 16  1  0
  8 17  1  0
M  END
