
     RDKit          3D

 21 22  0  0  0  0  0  0  0  0999 V2000
   -1.9152   -1.2824    0.2871 C   0  0  0  0  0  0  0  0  0  0  0  0
   -1.0939   -0.0304   -0.0436 C   0  0  0  0  0  0  0  0  0  0  0  0
   -1.9522    1.2077   -0.0477 C   0  0  0  0  0  0  0  0  0  0  0  0
   -0.4934   -0.2801   -1.2712 O   0  0  0  0  0  0  0  0  0  0  0  0
    0.7688   -0.8288   -0.9441 C   0  0  0  0  0  0  0  0  0  0  0  0
    1.1036   -0.0174    0.2787 C   0  0  0  0  0  0  0  0  0  0  0  0
    2.3852   -0.0518    0.9502 C   0  0  0  0  0  0  0  0  0  0  0  0
    2.0400    1.1052    0.0664 C   0  0  0  0  0  0  0  0  0  0  0  0
   -0.1121    0.1232    0.8967 O   0  0  0  0  0  0  0  0  0  0  0  0
   -2.4310   -1.1252    1.2450 H   0  0  0  0  0  0  0  0  0  0  0  0
   -2.6434   -1.4798   -0.5312 H   0  0  0  0  0  0  0  0  0  0  0  0
   -1.1686   -2.1123    0.3247 H   0  0  0  0  0  0  0  0  0  0  0  0
   -1.5270    1.9998    0.6368 H   0  0  0  0  0  0  0  0  0  0  0  0
   -2.9346    0.9471    0.4070 H   0  0  0  0  0  0  0  0  0  0  0  0
   -2.0439    1.6582   -1.0478 H   0  0  0  0  0  0  0  0  0  0  0  0
    0.6423   -1.8984   -0.7525 H   0  0  0  0  0  0  0  0  0  0  0  0
    1.4287   -0.6676   -1.7927 H   0  0  0  0  0  0  0  0  0  0  0  0
    3.2206   -0.7300    0.7092 H   0  0  0  0  0  0  0  0  0  0  0  0
    2.3844    0.2213    2.0461 H   0  0  0  0  0  0  0  0  0  0  0  0
    1.7608    2.0838    0.4737 H   0  0  0  0  0  0  0  0  0  0  0  0
    2.5810    1.1579   -0.9126 H   0  0  0  0  0  0  0  0  0  0  0  0
  1  2  1  0
  2  3  1  0
  2  4  1  0
  4  5  1  0
  5  6  1  0
  6  7  1  0
  7  8  1  0
  6  9  1  0
  9  2  1  0
  8  6  1  0
  1 10  1  0
  1 11  1  0
  1 12  1  0
  3 13  1  0
  3 14  1  0
  3 15  1  0
  5 16  1  0
  5 17  1  0
  7 18  1  0
  7 19  1  0
  8 20  1  0
  8 21  1  0
M  END
