
     RDKit          3D

 21 22  0  0  0  0  0  0  0  0999 V2000
   -1.6285   -0.5483   -1.0379 C   0  0  0  0  0  0  0  0  0  0  0  0
   -0.6922   -0.4980    0.1418 C   0  0  0  0  0  0  0  0  0  0  0  0
   -0.6425   -1.6833    0.8877 O   0  0  0  0  0  0  0  0  0  0  0  0
   -1.0980    0.6682    1.0601 C   0  0  0  0  0  0  0  0  0  0  0  0
    0.2493    1.3367    0.7880 C   0  0  0  0  0  0  0  0  0  0  0  0
    0.6048    0.1405   -0.0201 C   0  0  0  0  0  0  0  0  0  0  0  0
    1.8585   -0.5747    0.2824 C   0  0  0  0  0  0  0  0  0  0  0  0
    2.5010    0.2435   -0.6764 O   0  0  0  0  0  0  0  0  0  0  0  0
    1.2432    0.3033   -1.3237 C   0  0  0  0  0  0  0  0  0  0  0  0
   -1.1140   -0.6412   -2.0075 H   0  0  0  0  0  0  0  0  0  0  0  0
   -2.3361    0.3190   -1.0616 H   0  0  0  0  0  0  0  0  0  0  0  0
   -2.2834   -1.4434   -0.8853 H   0  0  0  0  0  0  0  0  0  0  0  0
   -1.0262   -1.5484    1.8045 H   0  0  0  0  0  0  0  0  0  0  0  0
   -1.9048    1.2934    0.6679 H   0  0  0  0  0  0  0  0  0  0  0  0
   -1.1809    0.3778    2.1297 H   0  0  0  0  0  0  0  0  0  0  0  0
    0.1969    2.2491    0.1777 H   0  0  0  0  0  0  0  0  0  0  0  0
    0.9097    1.4013    1.6841 H   0  0  0  0  0  0  0  0  0  0  0  0
    1.8532   -1.6223   -0.0810 H   0  0  0  0  0  0  0  0  0  0  0  0
    2.1982   -0.4131    1.3158 H   0  0  0  0  0  0  0  0  0  0  0  0
    1.1591   -0.5991   -1.9635 H   0  0  0  0  0  0  0  0  0  0  0  0
    1.1328    1.2391   -1.8827 H   0  0  0  0  0  0  0  0  0  0  0  0
  1  2  1  0
  2  3  1  0
  2  4  1  0
  4  5  1  0
  5  6  1  0
  6  7  1  0
  7  8  1  0
  8  9  1  0
  6  2  1  0
  9  6  1  0
  1 10  1  0
  1 11  1  0
  1 12  1  0
  3 13  1  0
  4 14  1  0
  4 15  1  0
  5 16  1  0
  5 17  1  0
  7 18  1  0
  7 19  1  0
  9 20  1  0
  9 21  1  0
M  END
