
     RDKit          3D

 21 22  0  0  0  0  0  0  0  0999 V2000
   -1.9357    1.4933    0.1848 C   0  0  0  0  0  0  0  0  0  0  0  0
   -0.9642    0.3141    0.1243 C   0  0  0  0  0  0  0  0  0  0  0  0
    0.3382    0.6424    0.2611 O   0  0  0  0  0  0  0  0  0  0  0  0
    1.2919   -0.3110    0.2525 C   0  0  0  0  0  0  0  0  0  0  0  0
    2.4844    0.0351   -0.6807 C   0  0  0  0  0  0  0  0  0  0  0  0
    2.6447   -0.1195    0.8155 C   0  0  0  0  0  0  0  0  0  0  0  0
   -1.5234   -0.9171    0.7248 C   0  0  0  0  0  0  0  0  0  0  0  0
   -2.1597   -1.2015   -0.4822 O   0  0  0  0  0  0  0  0  0  0  0  0
   -1.1769   -0.5071   -1.1491 C   0  0  0  0  0  0  0  0  0  0  0  0
   -2.9441    1.1609   -0.1798 H   0  0  0  0  0  0  0  0  0  0  0  0
   -1.5657    2.2598   -0.5191 H   0  0  0  0  0  0  0  0  0  0  0  0
   -2.0077    1.8997    1.2042 H   0  0  0  0  0  0  0  0  0  0  0  0
    0.9616   -1.3671    0.1400 H   0  0  0  0  0  0  0  0  0  0  0  0
    2.8815   -0.7839   -1.3175 H   0  0  0  0  0  0  0  0  0  0  0  0
    2.5357    1.0444   -1.1021 H   0  0  0  0  0  0  0  0  0  0  0  0
    2.9339    0.7995    1.3629 H   0  0  0  0  0  0  0  0  0  0  0  0
    3.1927   -1.0201    1.1554 H   0  0  0  0  0  0  0  0  0  0  0  0
   -2.3447   -0.7481    1.4858 H   0  0  0  0  0  0  0  0  0  0  0  0
   -0.8040   -1.6659    1.0695 H   0  0  0  0  0  0  0  0  0  0  0  0
   -0.3164   -1.1458   -1.3662 H   0  0  0  0  0  0  0  0  0  0  0  0
   -1.5222    0.1380   -1.9841 H   0  0  0  0  0  0  0  0  0  0  0  0
  1  2  1  0
  2  3  1  0
  3  4  1  0
  4  5  1  0
  5  6  1  0
  2  7  1  0
  7  8  1  0
  8  9  1  0
  9  2  1  0
  6  4  1  0
  1 10  1  0
  1 11  1  0
  1 12  1  0
  4 13  1  0
  5 14  1  0
  5 15  1  0
  6 16  1  0
  6 17  1  0
  7 18  1  0
  7 19  1  0
  9 20  1  0
  9 21  1  0
M  END
