
     RDKit          3D

 19 20  0  0  0  0  0  0  0  0999 V2000
    1.1380   -0.6048    1.1460 C   0  0  0  0  0  0  0  0  0  0  0  0
    0.5671    0.0927   -0.0474 C   0  0  0  0  0  0  0  0  0  0  0  0
    1.5272    0.9974   -0.7382 C   0  0  0  0  0  0  0  0  0  0  0  0
   -0.7948    0.6747    0.2485 C   0  0  0  0  0  0  0  0  0  0  0  0
   -1.0393    0.5749   -1.1667 C   0  0  0  0  0  0  0  0  0  0  0  0
   -1.5173    1.1786   -2.0788 O   0  0  0  0  0  0  0  0  0  0  0  0
   -0.3779   -0.6908   -0.9043 C   0  0  0  0  0  0  0  0  0  0  0  0
   -1.2463   -0.7639    0.3287 C   0  0  0  0  0  0  0  0  0  0  0  0
   -2.6124   -0.8838    0.0753 O   0  0  0  0  0  0  0  0  0  0  0  0
    0.6131   -0.2833    2.0717 H   0  0  0  0  0  0  0  0  0  0  0  0
    1.1632   -1.7104    1.0273 H   0  0  0  0  0  0  0  0  0  0  0  0
    2.2217   -0.3091    1.2645 H   0  0  0  0  0  0  0  0  0  0  0  0
    1.2080    1.3331   -1.7261 H   0  0  0  0  0  0  0  0  0  0  0  0
    2.4866    0.4544   -0.8533 H   0  0  0  0  0  0  0  0  0  0  0  0
    1.7617    1.8530   -0.0396 H   0  0  0  0  0  0  0  0  0  0  0  0
   -0.9962    1.3986    0.9081 H   0  0  0  0  0  0  0  0  0  0  0  0
   -0.1599   -1.4447   -1.5259 H   0  0  0  0  0  0  0  0  0  0  0  0
   -0.8441   -1.3652    1.1406 H   0  0  0  0  0  0  0  0  0  0  0  0
   -3.0982   -0.5014    0.8697 H   0  0  0  0  0  0  0  0  0  0  0  0
  1  2  1  0
  2  3  1  0
  2  4  1  0
  4  5  1  0
  5  6  2  0
  5  7  1  0
  7  8  1  0
  8  9  1  0
  7  2  1  0
  8  4  1  0
  1 10  1  0
  1 11  1  0
  1 12  1  0
  3 13  1  0
  3 14  1  0
  3 15  1  0
  4 16  1  0
  7 17  1  0
  8 18  1  0
  9 19  1  0
M  END
