
     RDKit          3D

 21 22  0  0  0  0  0  0  0  0999 V2000
   -1.2141    1.5940    0.1866 C   0  0  0  0  0  0  0  0  0  0  0  0
   -0.3237    0.5806   -0.5409 C   0  0  0  0  0  0  0  0  0  0  0  0
   -0.0306    0.9041   -1.8435 O   0  0  0  0  0  0  0  0  0  0  0  0
   -0.9174   -0.8051   -0.3287 C   0  0  0  0  0  0  0  0  0  0  0  0
   -2.2651   -0.7876   -0.0638 O   0  0  0  0  0  0  0  0  0  0  0  0
    0.0089   -1.1106    0.7860 C   0  0  0  0  0  0  0  0  0  0  0  0
    0.5945   -0.1262    1.6921 C   0  0  0  0  0  0  0  0  0  0  0  0
    0.8539    0.1062    0.2734 C   0  0  0  0  0  0  0  0  0  0  0  0
    2.1228   -0.2200   -0.4212 C   0  0  0  0  0  0  0  0  0  0  0  0
   -0.6445    2.4815    0.4675 H   0  0  0  0  0  0  0  0  0  0  0  0
   -2.0602    1.8069   -0.5173 H   0  0  0  0  0  0  0  0  0  0  0  0
   -1.6711    1.1037    1.0619 H   0  0  0  0  0  0  0  0  0  0  0  0
   -0.3696    0.2973   -2.5207 H   0  0  0  0  0  0  0  0  0  0  0  0
   -0.7278   -1.4296   -1.2511 H   0  0  0  0  0  0  0  0  0  0  0  0
   -2.6418   -1.6876   -0.2610 H   0  0  0  0  0  0  0  0  0  0  0  0
    0.5195   -2.1022    0.7061 H   0  0  0  0  0  0  0  0  0  0  0  0
   -0.0390    0.6568    2.2021 H   0  0  0  0  0  0  0  0  0  0  0  0
    1.4329   -0.4438    2.3179 H   0  0  0  0  0  0  0  0  0  0  0  0
    2.9451   -0.3905    0.2676 H   0  0  0  0  0  0  0  0  0  0  0  0
    2.0375   -1.0844   -1.1345 H   0  0  0  0  0  0  0  0  0  0  0  0
    2.3899    0.6565   -1.0784 H   0  0  0  0  0  0  0  0  0  0  0  0
  1  2  1  0
  2  3  1  0
  2  4  1  0
  4  5  1  0
  4  6  1  0
  6  7  1  0
  7  8  1  0
  8  9  1  0
  8  2  1  0
  8  6  1  0
  1 10  1  0
  1 11  1  0
  1 12  1  0
  3 13  1  0
  4 14  1  0
  5 15  1  0
  6 16  1  0
  7 17  1  0
  7 18  1  0
  9 19  1  0
  9 20  1  0
  9 21  1  0
M  END
