
     RDKit          3D

 19 20  0  0  0  0  0  0  0  0999 V2000
   -1.4088   -1.2025    0.2168 C   0  0  0  0  0  0  0  0  0  0  0  0
   -0.6900   -0.0146   -0.3390 C   0  0  0  0  0  0  0  0  0  0  0  0
   -0.7117    0.0399   -1.7253 O   0  0  0  0  0  0  0  0  0  0  0  0
   -1.1849    1.2570    0.3455 C   0  0  0  0  0  0  0  0  0  0  0  0
    0.0036    1.3437    1.0998 O   0  0  0  0  0  0  0  0  0  0  0  0
    0.5559    0.4217    0.2763 C   0  0  0  0  0  0  0  0  0  0  0  0
    1.5377   -0.5447    0.7920 C   0  0  0  0  0  0  0  0  0  0  0  0
    2.5580    0.3714    0.4538 O   0  0  0  0  0  0  0  0  0  0  0  0
    1.7073    0.8189   -0.5808 C   0  0  0  0  0  0  0  0  0  0  0  0
   -1.5502   -1.9436   -0.5982 H   0  0  0  0  0  0  0  0  0  0  0  0
   -2.4397   -0.9333    0.5778 H   0  0  0  0  0  0  0  0  0  0  0  0
   -0.8948   -1.7154    1.0327 H   0  0  0  0  0  0  0  0  0  0  0  0
   -0.8602   -0.8808   -2.0663 H   0  0  0  0  0  0  0  0  0  0  0  0
   -1.3208    2.0958   -0.3547 H   0  0  0  0  0  0  0  0  0  0  0  0
   -2.0374    1.1022    1.0361 H   0  0  0  0  0  0  0  0  0  0  0  0
    1.5922   -1.4957    0.2285 H   0  0  0  0  0  0  0  0  0  0  0  0
    1.4716   -0.7614    1.8699 H   0  0  0  0  0  0  0  0  0  0  0  0
    1.8575    0.1410   -1.4522 H   0  0  0  0  0  0  0  0  0  0  0  0
    1.8147    1.9006   -0.8127 H   0  0  0  0  0  0  0  0  0  0  0  0
  1  2  1  0
  2  3  1  0
  2  4  1  0
  4  5  1  0
  5  6  1  0
  6  7  1  0
  7  8  1  0
  8  9  1  0
  6  2  1  0
  9  6  1  0
  1 10  1  0
  1 11  1  0
  1 12  1  0
  3 13  1  0
  4 14  1  0
  4 15  1  0
  7 16  1  0
  7 17  1  0
  9 18  1  0
  9 19  1  0
M  END
