
     RDKit          3D

 21 21  0  0  0  0  0  0  0  0999 V2000
   -0.5916    1.4560   -1.1090 C   0  0  0  0  0  0  0  0  0  0  0  0
   -0.6625    0.3462   -0.1194 C   0  0  0  0  0  0  0  0  0  0  0  0
   -0.7707    0.8843    1.2812 C   0  0  0  0  0  0  0  0  0  0  0  0
   -1.7327   -0.5212   -0.3212 O   0  0  0  0  0  0  0  0  0  0  0  0
   -1.3472   -1.7022    0.3002 C   0  0  0  0  0  0  0  0  0  0  0  0
    0.0976   -1.7967   -0.0387 C   0  0  0  0  0  0  0  0  0  0  0  0
    0.5013   -0.5481   -0.2912 C   0  0  0  0  0  0  0  0  0  0  0  0
    1.8688   -0.1392   -0.6735 C   0  0  0  0  0  0  0  0  0  0  0  0
    2.4317    0.7508    0.2283 O   0  0  0  0  0  0  0  0  0  0  0  0
   -1.1671    1.2673   -2.0370 H   0  0  0  0  0  0  0  0  0  0  0  0
   -1.0457    2.3645   -0.6479 H   0  0  0  0  0  0  0  0  0  0  0  0
    0.4659    1.7390   -1.3290 H   0  0  0  0  0  0  0  0  0  0  0  0
   -0.7078    2.0017    1.2535 H   0  0  0  0  0  0  0  0  0  0  0  0
   -1.7396    0.6329    1.7608 H   0  0  0  0  0  0  0  0  0  0  0  0
    0.0961    0.5431    1.8721 H   0  0  0  0  0  0  0  0  0  0  0  0
   -1.5177   -1.6820    1.3953 H   0  0  0  0  0  0  0  0  0  0  0  0
   -1.9076   -2.5405   -0.1714 H   0  0  0  0  0  0  0  0  0  0  0  0
    0.7429   -2.6664   -0.0878 H   0  0  0  0  0  0  0  0  0  0  0  0
    2.5535   -1.0222   -0.7122 H   0  0  0  0  0  0  0  0  0  0  0  0
    1.8687    0.2990   -1.6733 H   0  0  0  0  0  0  0  0  0  0  0  0
    2.5637    0.3336    1.1200 H   0  0  0  0  0  0  0  0  0  0  0  0
  1  2  1  0
  2  3  1  0
  2  4  1  0
  4  5  1  0
  5  6  1  0
  6  7  2  0
  7  8  1  0
  8  9  1  0
  7  2  1  0
  1 10  1  0
  1 11  1  0
  1 12  1  0
  3 13  1  0
  3 14  1  0
  3 15  1  0
  5 16  1  0
  5 17  1  0
  6 18  1  0
  8 19  1  0
  8 20  1  0
  9 21  1  0
M  END
