
     RDKit          3D

 20 21  0  0  0  0  0  0  0  0999 V2000
   -2.0101    0.2057   -1.0906 C   0  0  0  0  0  0  0  0  0  0  0  0
   -1.0589    0.0182    0.0439 C   0  0  0  0  0  0  0  0  0  0  0  0
    0.2440    0.7787   -0.0365 C   0  0  0  0  0  0  0  0  0  0  0  0
    1.1931    0.5965    1.0876 C   0  0  0  0  0  0  0  0  0  0  0  0
    2.0362   -0.3070    0.2138 C   0  0  0  0  0  0  0  0  0  0  0  0
    1.2118    0.1455   -0.9729 C   0  0  0  0  0  0  0  0  0  0  0  0
   -1.1332   -1.1725    0.8386 C   0  0  0  0  0  0  0  0  0  0  0  0
   -1.7256    0.1141    1.3266 O   0  0  0  0  0  0  0  0  0  0  0  0
   -3.0293    0.5078   -0.7746 H   0  0  0  0  0  0  0  0  0  0  0  0
   -2.1280   -0.7009   -1.7166 H   0  0  0  0  0  0  0  0  0  0  0  0
   -1.6632    1.0218   -1.7838 H   0  0  0  0  0  0  0  0  0  0  0  0
    0.0444    1.8467   -0.2334 H   0  0  0  0  0  0  0  0  0  0  0  0
    1.7331    1.5237    1.3727 H   0  0  0  0  0  0  0  0  0  0  0  0
    0.8626    0.0696    1.9814 H   0  0  0  0  0  0  0  0  0  0  0  0
    1.9649   -1.3853    0.4559 H   0  0  0  0  0  0  0  0  0  0  0  0
    3.1184   -0.0184    0.1577 H   0  0  0  0  0  0  0  0  0  0  0  0
    0.8738   -0.7375   -1.5362 H   0  0  0  0  0  0  0  0  0  0  0  0
    1.7917    0.9012   -1.5515 H   0  0  0  0  0  0  0  0  0  0  0  0
   -1.9180   -1.9242    0.6187 H   0  0  0  0  0  0  0  0  0  0  0  0
   -0.4075   -1.4837    1.5992 H   0  0  0  0  0  0  0  0  0  0  0  0
  1  2  1  0
  2  3  1  0
  3  4  1  0
  4  5  1  0
  5  6  1  0
  2  7  1  0
  7  8  1  0
  8  2  1  0
  6  3  1  0
  1  9  1  0
  1 10  1  0
  1 11  1  0
  3 12  1  0
  4 13  1  0
  4 14  1  0
  5 15  1  0
  5 16  1  0
  6 17  1  0
  6 18  1  0
  7 19  1  0
  7 20  1  0
M  END
