
     RDKit          3D

 23 23  0  0  0  0  0  0  0  0999 V2000
   -1.6126   -0.0713    1.3615 C   0  0  0  0  0  0  0  0  0  0  0  0
   -0.7190    0.0274    0.1203 C   0  0  0  0  0  0  0  0  0  0  0  0
   -1.6847    0.1181   -1.0716 C   0  0  0  0  0  0  0  0  0  0  0  0
    0.0636   -1.2044   -0.0055 C   0  0  0  0  0  0  0  0  0  0  0  0
    1.4855   -1.0907   -0.4264 C   0  0  0  0  0  0  0  0  0  0  0  0
    2.1944    0.1364    0.0538 C   0  0  0  0  0  0  0  0  0  0  0  0
    1.3570    1.2969   -0.4174 C   0  0  0  0  0  0  0  0  0  0  0  0
    1.7441    2.1163   -1.1994 O   0  0  0  0  0  0  0  0  0  0  0  0
    0.0110    1.3114    0.1899 C   0  0  0  0  0  0  0  0  0  0  0  0
   -2.6571   -0.2572    1.1119 H   0  0  0  0  0  0  0  0  0  0  0  0
   -1.5704    0.8599    1.9648 H   0  0  0  0  0  0  0  0  0  0  0  0
   -1.2047   -0.8720    2.0461 H   0  0  0  0  0  0  0  0  0  0  0  0
   -2.6383   -0.3792   -0.8375 H   0  0  0  0  0  0  0  0  0  0  0  0
   -1.2363   -0.4206   -1.9284 H   0  0  0  0  0  0  0  0  0  0  0  0
   -1.8400    1.1568   -1.3769 H   0  0  0  0  0  0  0  0  0  0  0  0
   -0.4255   -1.9204   -0.7301 H   0  0  0  0  0  0  0  0  0  0  0  0
    0.0502   -1.7849    0.9651 H   0  0  0  0  0  0  0  0  0  0  0  0
    2.0656   -1.9830   -0.0612 H   0  0  0  0  0  0  0  0  0  0  0  0
    1.5725   -1.1137   -1.5345 H   0  0  0  0  0  0  0  0  0  0  0  0
    3.1717    0.1889   -0.4205 H   0  0  0  0  0  0  0  0  0  0  0  0
    2.3304    0.1621    1.1509 H   0  0  0  0  0  0  0  0  0  0  0  0
    0.1625    1.5924    1.2743 H   0  0  0  0  0  0  0  0  0  0  0  0
   -0.6200    2.1306   -0.2290 H   0  0  0  0  0  0  0  0  0  0  0  0
  1  2  1  0
  2  3  1  0
  2  4  1  0
  4  5  1  0
  5  6  1  0
  6  7  1  0
  7  8  2  0
  7  9  1  0
  9  2  1  0
  1 10  1  0
  1 11  1  0
  1 12  1  0
  3 13  1  0
  3 14  1  0
  3 15  1  0
  4 16  1  0
  4 17  1  0
  5 18  1  0
  5 19  1  0
  6 20  1  0
  6 21  1  0
  9 22  1  0
  9 23  1  0
M  END
