
     RDKit          3D

 19 20  0  0  0  0  0  0  0  0999 V2000
   -1.5306   -1.2069   -0.0852 C   0  0  0  0  0  0  0  0  0  0  0  0
   -0.7954    0.0133    0.3588 C   0  0  0  0  0  0  0  0  0  0  0  0
   -0.6869    0.1630    1.7154 O   0  0  0  0  0  0  0  0  0  0  0  0
    0.5353    0.2591   -0.3882 C   0  0  0  0  0  0  0  0  0  0  0  0
    1.7101   -0.3325    0.3251 C   0  0  0  0  0  0  0  0  0  0  0  0
    2.8647   -0.0875   -0.3772 O   0  0  0  0  0  0  0  0  0  0  0  0
    0.2389    1.6664    0.0458 C   0  0  0  0  0  0  0  0  0  0  0  0
   -0.7312    2.4743   -0.3349 O   0  0  0  0  0  0  0  0  0  0  0  0
   -1.1843    1.2332   -0.4343 C   0  0  0  0  0  0  0  0  0  0  0  0
   -1.3357   -1.4073   -1.1750 H   0  0  0  0  0  0  0  0  0  0  0  0
   -2.6296   -0.9954   -0.0309 H   0  0  0  0  0  0  0  0  0  0  0  0
   -1.2510   -2.0870    0.5092 H   0  0  0  0  0  0  0  0  0  0  0  0
   -1.5005   -0.2224    2.1296 H   0  0  0  0  0  0  0  0  0  0  0  0
    0.3877    0.0059   -1.4324 H   0  0  0  0  0  0  0  0  0  0  0  0
    1.5397   -1.4043    0.5551 H   0  0  0  0  0  0  0  0  0  0  0  0
    1.8049    0.1854    1.3199 H   0  0  0  0  0  0  0  0  0  0  0  0
    3.4296   -0.8985   -0.3993 H   0  0  0  0  0  0  0  0  0  0  0  0
    0.3555    1.7121    1.1771 H   0  0  0  0  0  0  0  0  0  0  0  0
   -1.2213    0.9291   -1.5310 H   0  0  0  0  0  0  0  0  0  0  0  0
  1  2  1  0
  2  3  1  0
  2  4  1  0
  4  5  1  0
  5  6  1  0
  4  7  1  0
  7  8  1  0
  8  9  1  0
  9  2  1  0
  9  7  1  0
  1 10  1  0
  1 11  1  0
  1 12  1  0
  3 13  1  0
  4 14  1  0
  5 15  1  0
  5 16  1  0
  6 17  1  0
  7 18  1  0
  9 19  1  0
M  END
