
     RDKit          3D

 21 22  0  0  0  0  0  0  0  0999 V2000
   -1.4571    1.0393    0.6733 C   0  0  0  0  0  0  0  0  0  0  0  0
   -0.5507   -0.0006    0.1697 C   0  0  0  0  0  0  0  0  0  0  0  0
   -1.2302   -1.3319    0.1460 C   0  0  0  0  0  0  0  0  0  0  0  0
   -0.0562    0.2464   -1.2526 C   0  0  0  0  0  0  0  0  0  0  0  0
    0.9683    1.0787   -1.1165 C   0  0  0  0  0  0  0  0  0  0  0  0
    1.1448    1.3732    0.2742 C   0  0  0  0  0  0  0  0  0  0  0  0
    1.6034    0.8036    1.3496 O   0  0  0  0  0  0  0  0  0  0  0  0
    0.8261   -0.0523    0.7715 C   0  0  0  0  0  0  0  0  0  0  0  0
    1.6226   -1.1657    0.0525 C   0  0  0  0  0  0  0  0  0  0  0  0
   -2.4917    0.6393    0.7508 H   0  0  0  0  0  0  0  0  0  0  0  0
   -1.5521    1.9311   -0.0128 H   0  0  0  0  0  0  0  0  0  0  0  0
   -1.2136    1.4124    1.7024 H   0  0  0  0  0  0  0  0  0  0  0  0
   -1.2479   -1.8449    1.1275 H   0  0  0  0  0  0  0  0  0  0  0  0
   -0.8519   -2.0181   -0.6405 H   0  0  0  0  0  0  0  0  0  0  0  0
   -2.3069   -1.1397   -0.1375 H   0  0  0  0  0  0  0  0  0  0  0  0
   -0.4793   -0.1846   -2.1540 H   0  0  0  0  0  0  0  0  0  0  0  0
    1.5106    1.4118   -2.0153 H   0  0  0  0  0  0  0  0  0  0  0  0
    0.3876    2.1831    0.5652 H   0  0  0  0  0  0  0  0  0  0  0  0
    2.5774   -1.3557    0.5391 H   0  0  0  0  0  0  0  0  0  0  0  0
    1.7927   -0.9262   -0.9948 H   0  0  0  0  0  0  0  0  0  0  0  0
    1.0042   -2.0993    0.2022 H   0  0  0  0  0  0  0  0  0  0  0  0
  1  2  1  0
  2  3  1  0
  2  4  1  0
  4  5  2  0
  5  6  1  0
  6  7  1  0
  7  8  1  0
  8  9  1  0
  8  2  1  0
  8  6  1  0
  1 10  1  0
  1 11  1  0
  1 12  1  0
  3 13  1  0
  3 14  1  0
  3 15  1  0
  4 16  1  0
  5 17  1  0
  6 18  1  0
  9 19  1  0
  9 20  1  0
  9 21  1  0
M  END
