
     RDKit          3D

 23 24  0  0  0  0  0  0  0  0999 V2000
   -1.5023    0.7302   -0.9440 C   0  0  0  0  0  0  0  0  0  0  0  0
   -0.8169   -0.2056    0.0410 C   0  0  0  0  0  0  0  0  0  0  0  0
   -1.6426   -1.3899    0.4419 C   0  0  0  0  0  0  0  0  0  0  0  0
    0.0478    0.3696    1.1041 C   0  0  0  0  0  0  0  0  0  0  0  0
    0.3636    1.8074    0.9441 C   0  0  0  0  0  0  0  0  0  0  0  0
    1.1679    1.9776   -0.0877 C   0  0  0  0  0  0  0  0  0  0  0  0
    1.4825    0.6777   -0.7354 C   0  0  0  0  0  0  0  0  0  0  0  0
    0.6515   -0.3505   -0.0395 C   0  0  0  0  0  0  0  0  0  0  0  0
    1.2275   -1.7211    0.0921 C   0  0  0  0  0  0  0  0  0  0  0  0
   -2.2250    0.1285   -1.5469 H   0  0  0  0  0  0  0  0  0  0  0  0
   -2.1052    1.4947   -0.4190 H   0  0  0  0  0  0  0  0  0  0  0  0
   -0.7560    1.1954   -1.6229 H   0  0  0  0  0  0  0  0  0  0  0  0
   -1.2056   -1.8892    1.3527 H   0  0  0  0  0  0  0  0  0  0  0  0
   -2.6764   -1.0887    0.7734 H   0  0  0  0  0  0  0  0  0  0  0  0
   -1.7620   -2.1047   -0.3892 H   0  0  0  0  0  0  0  0  0  0  0  0
    0.1215   -0.1040    2.1003 H   0  0  0  0  0  0  0  0  0  0  0  0
   -0.0031    2.5945    1.5691 H   0  0  0  0  0  0  0  0  0  0  0  0
    1.5678    2.9169   -0.4478 H   0  0  0  0  0  0  0  0  0  0  0  0
    1.2868    0.7120   -1.8282 H   0  0  0  0  0  0  0  0  0  0  0  0
    2.5645    0.4948   -0.5692 H   0  0  0  0  0  0  0  0  0  0  0  0
    2.3109   -1.6860    0.3563 H   0  0  0  0  0  0  0  0  0  0  0  0
    0.6970   -2.3751    0.7925 H   0  0  0  0  0  0  0  0  0  0  0  0
    1.2061   -2.1844   -0.9376 H   0  0  0  0  0  0  0  0  0  0  0  0
  1  2  1  0
  2  3  1  0
  2  4  1  0
  4  5  1  0
  5  6  2  0
  6  7  1  0
  7  8  1  0
  8  9  1  0
  8  2  1  0
  8  4  1  0
  1 10  1  0
  1 11  1  0
  1 12  1  0
  3 13  1  0
  3 14  1  0
  3 15  1  0
  4 16  1  0
  5 17  1  0
  6 18  1  0
  7 19  1  0
  7 20  1  0
  9 21  1  0
  9 22  1  0
  9 23  1  0
M  END
