
     RDKit          3D

 23 23  0  0  0  0  0  0  0  0999 V2000
   -1.2672    0.4754    1.3114 C   0  0  0  0  0  0  0  0  0  0  0  0
   -0.7900    0.0494   -0.0156 C   0  0  0  0  0  0  0  0  0  0  0  0
   -1.5251   -1.2005   -0.4867 C   0  0  0  0  0  0  0  0  0  0  0  0
   -0.7134    1.0287   -1.1211 C   0  0  0  0  0  0  0  0  0  0  0  0
    0.3812    0.2869   -1.6291 O   0  0  0  0  0  0  0  0  0  0  0  0
    0.6521   -0.0511   -0.2871 C   0  0  0  0  0  0  0  0  0  0  0  0
    1.1809   -1.4480   -0.0966 C   0  0  0  0  0  0  0  0  0  0  0  0
    1.5837    0.9488    0.2961 C   0  0  0  0  0  0  0  0  0  0  0  0
    1.9132    0.7053    1.6160 O   0  0  0  0  0  0  0  0  0  0  0  0
   -1.4758   -0.4455    1.9211 H   0  0  0  0  0  0  0  0  0  0  0  0
   -0.5772    1.0786    1.9115 H   0  0  0  0  0  0  0  0  0  0  0  0
   -2.2382    1.0246    1.2757 H   0  0  0  0  0  0  0  0  0  0  0  0
   -1.4666   -1.2873   -1.6112 H   0  0  0  0  0  0  0  0  0  0  0  0
   -2.6233   -1.0892   -0.2835 H   0  0  0  0  0  0  0  0  0  0  0  0
   -1.1131   -2.1206   -0.0757 H   0  0  0  0  0  0  0  0  0  0  0  0
   -0.4972    2.0729   -0.8953 H   0  0  0  0  0  0  0  0  0  0  0  0
   -1.5415    0.9769   -1.8679 H   0  0  0  0  0  0  0  0  0  0  0  0
    0.9265   -2.1085   -0.9228 H   0  0  0  0  0  0  0  0  0  0  0  0
    2.2713   -1.4318    0.1439 H   0  0  0  0  0  0  0  0  0  0  0  0
    0.6917   -1.8420    0.8337 H   0  0  0  0  0  0  0  0  0  0  0  0
    2.5490    0.8473   -0.2864 H   0  0  0  0  0  0  0  0  0  0  0  0
    1.2762    2.0093    0.1197 H   0  0  0  0  0  0  0  0  0  0  0  0
    2.4030    1.5201    1.9410 H   0  0  0  0  0  0  0  0  0  0  0  0
  1  2  1  0
  2  3  1  0
  2  4  1  0
  4  5  1  0
  5  6  1  0
  6  7  1  0
  6  8  1  0
  8  9  1  0
  6  2  1  0
  1 10  1  0
  1 11  1  0
  1 12  1  0
  3 13  1  0
  3 14  1  0
  3 15  1  0
  4 16  1  0
  4 17  1  0
  7 18  1  0
  7 19  1  0
  7 20  1  0
  8 21  1  0
  8 22  1  0
  9 23  1  0
M  END
