
     RDKit          3D

 21 22  0  0  0  0  0  0  0  0999 V2000
   -1.9037   -0.5895    0.3395 C   0  0  0  0  0  0  0  0  0  0  0  0
   -0.6226    0.0533   -0.1044 C   0  0  0  0  0  0  0  0  0  0  0  0
   -0.7407    1.2227   -1.0240 C   0  0  0  0  0  0  0  0  0  0  0  0
    0.4447   -0.9531   -0.4375 C   0  0  0  0  0  0  0  0  0  0  0  0
    1.6394   -0.1059   -0.7827 C   0  0  0  0  0  0  0  0  0  0  0  0
    1.4862    0.9333    0.3168 C   0  0  0  0  0  0  0  0  0  0  0  0
    2.1825    1.8981    0.4635 O   0  0  0  0  0  0  0  0  0  0  0  0
    0.3209    0.4064    1.0550 C   0  0  0  0  0  0  0  0  0  0  0  0
    0.6155   -1.0792    1.0852 C   0  0  0  0  0  0  0  0  0  0  0  0
   -1.9107   -1.6829    0.2118 H   0  0  0  0  0  0  0  0  0  0  0  0
   -2.7463   -0.1902   -0.2648 H   0  0  0  0  0  0  0  0  0  0  0  0
   -2.1324   -0.3091    1.3987 H   0  0  0  0  0  0  0  0  0  0  0  0
    0.2255    1.7240   -1.1033 H   0  0  0  0  0  0  0  0  0  0  0  0
   -1.2112    0.9825   -1.9980 H   0  0  0  0  0  0  0  0  0  0  0  0
   -1.4347    1.9582   -0.5305 H   0  0  0  0  0  0  0  0  0  0  0  0
    0.2176   -1.8244   -0.9845 H   0  0  0  0  0  0  0  0  0  0  0  0
    1.5748    0.3493   -1.7738 H   0  0  0  0  0  0  0  0  0  0  0  0
    2.5854   -0.6501   -0.5886 H   0  0  0  0  0  0  0  0  0  0  0  0
   -0.0724    0.8903    1.8959 H   0  0  0  0  0  0  0  0  0  0  0  0
    1.6510   -1.3149    1.3372 H   0  0  0  0  0  0  0  0  0  0  0  0
   -0.1687   -1.7190    1.4886 H   0  0  0  0  0  0  0  0  0  0  0  0
  1  2  1  0
  2  3  1  0
  2  4  1  0
  4  5  1  0
  5  6  1  0
  6  7  2  0
  6  8  1  0
  8  9  1  0
  8  2  1  0
  9  4  1  0
  1 10  1  0
  1 11  1  0
  1 12  1  0
  3 13  1  0
  3 14  1  0
  3 15  1  0
  4 16  1  0
  5 17  1  0
  5 18  1  0
  8 19  1  0
  9 20  1  0
  9 21  1  0
M  END
