
     RDKit          3D

 17 18  0  0  0  0  0  0  0  0999 V2000
   -0.7201    1.5555   -0.2712 C   0  0  0  0  0  0  0  0  0  0  0  0
   -0.2115    0.1595   -0.0204 C   0  0  0  0  0  0  0  0  0  0  0  0
    1.2629    0.0785   -0.2176 C   0  0  0  0  0  0  0  0  0  0  0  0
    2.1999   -0.4432    0.7194 C   0  0  0  0  0  0  0  0  0  0  0  0
    1.6984   -1.3453   -0.2100 O   0  0  0  0  0  0  0  0  0  0  0  0
   -1.0244   -0.9130   -0.7468 C   0  0  0  0  0  0  0  0  0  0  0  0
   -1.8417   -0.7854    0.4521 C   0  0  0  0  0  0  0  0  0  0  0  0
   -3.0328   -0.9562    0.7754 O   0  0  0  0  0  0  0  0  0  0  0  0
   -0.7292   -0.3732    1.1584 O   0  0  0  0  0  0  0  0  0  0  0  0
   -0.9286    1.7258   -1.3451 H   0  0  0  0  0  0  0  0  0  0  0  0
   -1.6538    1.7706    0.2949 H   0  0  0  0  0  0  0  0  0  0  0  0
    0.0528    2.2597    0.0788 H   0  0  0  0  0  0  0  0  0  0  0  0
    1.6290    0.5671   -1.1438 H   0  0  0  0  0  0  0  0  0  0  0  0
    1.9297   -0.6876    1.7618 H   0  0  0  0  0  0  0  0  0  0  0  0
    3.2736   -0.1545    0.6205 H   0  0  0  0  0  0  0  0  0  0  0  0
   -0.4547   -1.8645   -0.7635 H   0  0  0  0  0  0  0  0  0  0  0  0
   -1.4495   -0.5938   -1.7056 H   0  0  0  0  0  0  0  0  0  0  0  0
  1  2  1  0
  2  3  1  0
  3  4  1  0
  4  5  1  0
  2  6  1  0
  6  7  1  0
  7  8  2  0
  7  9  1  0
  9  2  1  0
  5  3  1  0
  1 10  1  0
  1 11  1  0
  1 12  1  0
  3 13  1  0
  4 14  1  0
  4 15  1  0
  6 16  1  0
  6 17  1  0
M  END
