
     RDKit          3D

 23 24  0  0  0  0  0  0  0  0999 V2000
    1.8781   -0.4338    0.4782 C   0  0  0  0  0  0  0  0  0  0  0  0
    0.7210    0.3901   -0.0222 C   0  0  0  0  0  0  0  0  0  0  0  0
    0.8877    1.8219    0.3291 C   0  0  0  0  0  0  0  0  0  0  0  0
    0.4016    0.0648   -1.4502 C   0  0  0  0  0  0  0  0  0  0  0  0
   -0.9826    0.5850   -1.1645 C   0  0  0  0  0  0  0  0  0  0  0  0
   -0.6233   -0.2149    0.0667 C   0  0  0  0  0  0  0  0  0  0  0  0
   -1.4278   -0.4345    1.1525 C   0  0  0  0  0  0  0  0  0  0  0  0
   -2.6508   -1.0427    0.8159 O   0  0  0  0  0  0  0  0  0  0  0  0
   -0.1504   -1.2417   -0.9309 C   0  0  0  0  0  0  0  0  0  0  0  0
    1.5808   -1.3104    1.0599 H   0  0  0  0  0  0  0  0  0  0  0  0
    2.5170   -0.6789   -0.3969 H   0  0  0  0  0  0  0  0  0  0  0  0
    2.5472    0.1744    1.1551 H   0  0  0  0  0  0  0  0  0  0  0  0
    1.4918    2.3967   -0.4284 H   0  0  0  0  0  0  0  0  0  0  0  0
   -0.0342    2.3721    0.5389 H   0  0  0  0  0  0  0  0  0  0  0  0
    1.5022    1.8817    1.2749 H   0  0  0  0  0  0  0  0  0  0  0  0
    0.9558    0.2084   -2.2666 H   0  0  0  0  0  0  0  0  0  0  0  0
   -1.1034    1.6531   -1.0457 H   0  0  0  0  0  0  0  0  0  0  0  0
   -1.7831    0.0487   -1.7203 H   0  0  0  0  0  0  0  0  0  0  0  0
   -0.9674   -1.0845    1.9240 H   0  0  0  0  0  0  0  0  0  0  0  0
   -1.7140    0.5004    1.6873 H   0  0  0  0  0  0  0  0  0  0  0  0
   -2.6283   -2.0261    1.0324 H   0  0  0  0  0  0  0  0  0  0  0  0
    0.5648   -1.9789   -0.5843 H   0  0  0  0  0  0  0  0  0  0  0  0
   -0.9828   -1.6509   -1.5049 H   0  0  0  0  0  0  0  0  0  0  0  0
  1  2  1  0
  2  3  1  0
  2  4  1  0
  4  5  1  0
  5  6  1  0
  6  7  1  0
  7  8  1  0
  6  9  1  0
  6  2  1  0
  9  4  1  0
  1 10  1  0
  1 11  1  0
  1 12  1  0
  3 13  1  0
  3 14  1  0
  3 15  1  0
  4 16  1  0
  5 17  1  0
  5 18  1  0
  7 19  1  0
  7 20  1  0
  8 21  1  0
  9 22  1  0
  9 23  1  0
M  END
