
     RDKit          3D

 21 22  0  0  0  0  0  0  0  0999 V2000
    1.6466    0.6836    0.8174 C   0  0  0  0  0  0  0  0  0  0  0  0
    0.8365    0.1195   -0.3039 C   0  0  0  0  0  0  0  0  0  0  0  0
    1.2231    0.6028   -1.5475 O   0  0  0  0  0  0  0  0  0  0  0  0
    0.7990   -1.4062   -0.2080 C   0  0  0  0  0  0  0  0  0  0  0  0
   -0.6534   -1.2907    0.2814 C   0  0  0  0  0  0  0  0  0  0  0  0
   -0.7706   -1.5489    1.6318 O   0  0  0  0  0  0  0  0  0  0  0  0
   -0.6365    0.1109   -0.1641 C   0  0  0  0  0  0  0  0  0  0  0  0
   -1.5644    0.6056   -1.1969 C   0  0  0  0  0  0  0  0  0  0  0  0
   -1.4822    1.1920    0.2220 C   0  0  0  0  0  0  0  0  0  0  0  0
    2.6292    0.1325    0.8448 H   0  0  0  0  0  0  0  0  0  0  0  0
    1.1696    0.4773    1.7887 H   0  0  0  0  0  0  0  0  0  0  0  0
    1.8394    1.7634    0.6388 H   0  0  0  0  0  0  0  0  0  0  0  0
    2.2156    0.6483   -1.5705 H   0  0  0  0  0  0  0  0  0  0  0  0
    1.4672   -1.8309    0.5467 H   0  0  0  0  0  0  0  0  0  0  0  0
    0.8701   -1.8173   -1.2320 H   0  0  0  0  0  0  0  0  0  0  0  0
   -1.2876   -1.9953   -0.3036 H   0  0  0  0  0  0  0  0  0  0  0  0
   -1.2880   -0.8872    2.1329 H   0  0  0  0  0  0  0  0  0  0  0  0
   -2.4413   -0.0460   -1.4229 H   0  0  0  0  0  0  0  0  0  0  0  0
   -1.0958    1.1838   -2.0200 H   0  0  0  0  0  0  0  0  0  0  0  0
   -1.0677    2.2294    0.2672 H   0  0  0  0  0  0  0  0  0  0  0  0
   -2.4088    1.0734    0.7977 H   0  0  0  0  0  0  0  0  0  0  0  0
  1  2  1  0
  2  3  1  0
  2  4  1  0
  4  5  1  0
  5  6  1  0
  5  7  1  0
  7  8  1  0
  8  9  1  0
  7  2  1  0
  9  7  1  0
  1 10  1  0
  1 11  1  0
  1 12  1  0
  3 13  1  0
  4 14  1  0
  4 15  1  0
  5 16  1  0
  6 17  1  0
  8 18  1  0
  8 19  1  0
  9 20  1  0
  9 21  1  0
M  END
