
     RDKit          3D

 19 21  0  0  0  0  0  0  0  0999 V2000
   -1.9966   -0.0276   -0.6952 C   0  0  0  0  0  0  0  0  0  0  0  0
   -0.9089    0.5109    0.1873 C   0  0  0  0  0  0  0  0  0  0  0  0
   -0.9003    1.8980    0.4597 O   0  0  0  0  0  0  0  0  0  0  0  0
   -0.5133   -0.3896    1.4013 C   0  0  0  0  0  0  0  0  0  0  0  0
    0.3711   -0.1396    0.3140 C   0  0  0  0  0  0  0  0  0  0  0  0
    0.9782   -1.1042   -0.6250 C   0  0  0  0  0  0  0  0  0  0  0  0
    2.2316   -0.2217   -0.5769 C   0  0  0  0  0  0  0  0  0  0  0  0
    2.0766    1.1399   -0.8426 O   0  0  0  0  0  0  0  0  0  0  0  0
    1.6850    0.5861    0.3783 C   0  0  0  0  0  0  0  0  0  0  0  0
   -2.5810   -0.8090   -0.1810 H   0  0  0  0  0  0  0  0  0  0  0  0
   -1.5249   -0.4862   -1.6045 H   0  0  0  0  0  0  0  0  0  0  0  0
   -2.6458    0.8118   -0.9832 H   0  0  0  0  0  0  0  0  0  0  0  0
   -1.7399    2.3160    0.2065 H   0  0  0  0  0  0  0  0  0  0  0  0
   -0.3843    0.1281    2.3660 H   0  0  0  0  0  0  0  0  0  0  0  0
   -1.0972   -1.3291    1.4928 H   0  0  0  0  0  0  0  0  0  0  0  0
    1.2455   -2.1103   -0.2282 H   0  0  0  0  0  0  0  0  0  0  0  0
    0.4795   -1.1400   -1.5999 H   0  0  0  0  0  0  0  0  0  0  0  0
    3.2002   -0.6441   -0.7908 H   0  0  0  0  0  0  0  0  0  0  0  0
    2.0245    1.0107    1.3213 H   0  0  0  0  0  0  0  0  0  0  0  0
  1  2  1  0
  2  3  1  0
  2  4  1  0
  4  5  1  0
  5  6  1  0
  6  7  1  0
  7  8  1  0
  8  9  1  0
  5  2  1  0
  9  7  1  0
  9  5  1  0
  1 10  1  0
  1 11  1  0
  1 12  1  0
  3 13  1  0
  4 14  1  0
  4 15  1  0
  6 16  1  0
  6 17  1  0
  7 18  1  0
  9 19  1  0
M  END
