
     RDKit          3D

 21 21  0  0  0  0  0  0  0  0999 V2000
    2.2101    0.4905    1.0239 C   0  0  0  0  0  0  0  0  0  0  0  0
    1.2337    0.1106   -0.0848 C   0  0  0  0  0  0  0  0  0  0  0  0
    1.5897    0.6925   -1.4086 C   0  0  0  0  0  0  0  0  0  0  0  0
    2.3674    1.6404   -1.4684 O   0  0  0  0  0  0  0  0  0  0  0  0
    0.7580   -1.3006   -0.0083 C   0  0  0  0  0  0  0  0  0  0  0  0
   -0.1654   -0.1373    0.2967 C   0  0  0  0  0  0  0  0  0  0  0  0
   -1.3195    0.0146   -0.6427 C   0  0  0  0  0  0  0  0  0  0  0  0
   -2.6123   -0.3287    0.1049 C   0  0  0  0  0  0  0  0  0  0  0  0
   -2.7652    0.5430    1.2078 O   0  0  0  0  0  0  0  0  0  0  0  0
    2.4092   -0.3638    1.7200 H   0  0  0  0  0  0  0  0  0  0  0  0
    1.7846    1.3040    1.6252 H   0  0  0  0  0  0  0  0  0  0  0  0
    3.1843    0.7486    0.5709 H   0  0  0  0  0  0  0  0  0  0  0  0
    1.2060    0.3382   -2.3584 H   0  0  0  0  0  0  0  0  0  0  0  0
    1.0517   -1.9564    0.8219 H   0  0  0  0  0  0  0  0  0  0  0  0
    0.6655   -1.8230   -0.9808 H   0  0  0  0  0  0  0  0  0  0  0  0
   -0.4051    0.0288    1.3795 H   0  0  0  0  0  0  0  0  0  0  0  0
   -1.2687   -0.7378   -1.4708 H   0  0  0  0  0  0  0  0  0  0  0  0
   -1.3739    0.9837   -1.1367 H   0  0  0  0  0  0  0  0  0  0  0  0
   -2.4600   -1.3574    0.5069 H   0  0  0  0  0  0  0  0  0  0  0  0
   -3.4752   -0.3514   -0.5532 H   0  0  0  0  0  0  0  0  0  0  0  0
   -2.6149    1.4613    0.8551 H   0  0  0  0  0  0  0  0  0  0  0  0
  1  2  1  0
  2  3  1  0
  3  4  2  0
  2  5  1  0
  5  6  1  0
  6  7  1  0
  7  8  1  0
  8  9  1  0
  6  2  1  0
  1 10  1  0
  1 11  1  0
  1 12  1  0
  3 13  1  0
  5 14  1  0
  5 15  1  0
  6 16  1  0
  7 17  1  0
  7 18  1  0
  8 19  1  0
  8 20  1  0
  9 21  1  0
M  END
