
     RDKit          3D

 19 19  0  0  0  0  0  0  0  0999 V2000
    0.0841    0.9834    1.4703 C   0  0  0  0  0  0  0  0  0  0  0  0
    0.1377    0.3672    0.0942 C   0  0  0  0  0  0  0  0  0  0  0  0
    0.9740    1.1814   -0.8660 C   0  0  0  0  0  0  0  0  0  0  0  0
    0.9563    0.5286   -2.0955 O   0  0  0  0  0  0  0  0  0  0  0  0
    0.7364   -0.9900    0.1708 C   0  0  0  0  0  0  0  0  0  0  0  0
   -0.2278   -1.8775    0.1616 C   0  0  0  0  0  0  0  0  0  0  0  0
   -1.5816   -1.2544    0.0791 C   0  0  0  0  0  0  0  0  0  0  0  0
   -1.2247    0.1290   -0.3974 C   0  0  0  0  0  0  0  0  0  0  0  0
   -1.9836    0.8062   -1.0421 O   0  0  0  0  0  0  0  0  0  0  0  0
   -0.9424    0.9045    1.8918 H   0  0  0  0  0  0  0  0  0  0  0  0
    0.2879    2.0843    1.4044 H   0  0  0  0  0  0  0  0  0  0  0  0
    0.8099    0.5652    2.1745 H   0  0  0  0  0  0  0  0  0  0  0  0
    2.0262    1.1825   -0.5130 H   0  0  0  0  0  0  0  0  0  0  0  0
    0.6392    2.2315   -0.9416 H   0  0  0  0  0  0  0  0  0  0  0  0
    1.8582    0.3627   -2.4363 H   0  0  0  0  0  0  0  0  0  0  0  0
    1.7954   -1.2694    0.2275 H   0  0  0  0  0  0  0  0  0  0  0  0
   -0.1111   -2.9718    0.2075 H   0  0  0  0  0  0  0  0  0  0  0  0
   -2.0272   -1.2341    1.0900 H   0  0  0  0  0  0  0  0  0  0  0  0
   -2.2070   -1.7294   -0.6799 H   0  0  0  0  0  0  0  0  0  0  0  0
  1  2  1  0
  2  3  1  0
  3  4  1  0
  2  5  1  0
  5  6  2  0
  6  7  1  0
  7  8  1  0
  8  9  2  0
  8  2  1  0
  1 10  1  0
  1 11  1  0
  1 12  1  0
  3 13  1  0
  3 14  1  0
  4 15  1  0
  5 16  1  0
  6 17  1  0
  7 18  1  0
  7 19  1  0
M  END
