
     RDKit          3D

 19 19  0  0  0  0  0  0  0  0999 V2000
   -1.9686    1.0151   -0.2870 C   0  0  0  0  0  0  0  0  0  0  0  0
   -0.8326    0.1476    0.1640 C   0  0  0  0  0  0  0  0  0  0  0  0
   -1.2610   -1.3066    0.3185 C   0  0  0  0  0  0  0  0  0  0  0  0
    0.2585    0.1885   -0.8390 C   0  0  0  0  0  0  0  0  0  0  0  0
    1.4246    0.1356   -0.2213 C   0  0  0  0  0  0  0  0  0  0  0  0
    2.7314    0.1513   -0.8458 C   0  0  0  0  0  0  0  0  0  0  0  0
    3.7632    0.0950   -0.1318 O   0  0  0  0  0  0  0  0  0  0  0  0
    1.1037    0.0613    1.2250 C   0  0  0  0  0  0  0  0  0  0  0  0
   -0.2142    0.5575    1.3093 O   0  0  0  0  0  0  0  0  0  0  0  0
   -1.6480    1.7324   -1.0744 H   0  0  0  0  0  0  0  0  0  0  0  0
   -2.4350    1.5985    0.5268 H   0  0  0  0  0  0  0  0  0  0  0  0
   -2.7164    0.3495   -0.7779 H   0  0  0  0  0  0  0  0  0  0  0  0
   -2.0773   -1.4694   -0.4047 H   0  0  0  0  0  0  0  0  0  0  0  0
   -0.4192   -2.0049    0.1243 H   0  0  0  0  0  0  0  0  0  0  0  0
   -1.6059   -1.4465    1.3630 H   0  0  0  0  0  0  0  0  0  0  0  0
    0.0668    0.2525   -1.9082 H   0  0  0  0  0  0  0  0  0  0  0  0
    2.8978    0.2093   -1.9093 H   0  0  0  0  0  0  0  0  0  0  0  0
    1.7631    0.7146    1.8349 H   0  0  0  0  0  0  0  0  0  0  0  0
    1.1693   -0.9813    1.5335 H   0  0  0  0  0  0  0  0  0  0  0  0
  1  2  1  0
  2  3  1  0
  2  4  1  0
  4  5  2  0
  5  6  1  0
  6  7  2  0
  5  8  1  0
  8  9  1  0
  9  2  1  0
  1 10  1  0
  1 11  1  0
  1 12  1  0
  3 13  1  0
  3 14  1  0
  3 15  1  0
  4 16  1  0
  6 17  1  0
  8 18  1  0
  8 19  1  0
M  END
