
     RDKit          3D

 19 20  0  0  0  0  0  0  0  0999 V2000
   -1.0092   -0.5677    1.2129 C   0  0  0  0  0  0  0  0  0  0  0  0
   -0.5051    0.0642   -0.0351 C   0  0  0  0  0  0  0  0  0  0  0  0
   -1.3007    1.2587   -0.5056 C   0  0  0  0  0  0  0  0  0  0  0  0
   -0.1269   -0.8331   -1.1652 C   0  0  0  0  0  0  0  0  0  0  0  0
    1.0026   -1.3420   -0.3241 C   0  0  0  0  0  0  0  0  0  0  0  0
    0.9781    0.1507   -0.2156 C   0  0  0  0  0  0  0  0  0  0  0  0
    1.8504    0.9388    0.4660 C   0  0  0  0  0  0  0  0  0  0  0  0
    2.5622    1.8110   -0.0608 O   0  0  0  0  0  0  0  0  0  0  0  0
    0.7381    0.1796   -1.5660 O   0  0  0  0  0  0  0  0  0  0  0  0
   -0.2954   -0.3750    2.0327 H   0  0  0  0  0  0  0  0  0  0  0  0
   -1.9787   -0.0758    1.4754 H   0  0  0  0  0  0  0  0  0  0  0  0
   -1.1987   -1.6530    1.1316 H   0  0  0  0  0  0  0  0  0  0  0  0
   -0.9641    1.5705   -1.5068 H   0  0  0  0  0  0  0  0  0  0  0  0
   -2.3555    0.8927   -0.6439 H   0  0  0  0  0  0  0  0  0  0  0  0
   -1.2827    2.0840    0.2326 H   0  0  0  0  0  0  0  0  0  0  0  0
   -0.7375   -1.3718   -1.7597 H   0  0  0  0  0  0  0  0  0  0  0  0
    0.7408   -1.9184    0.5575 H   0  0  0  0  0  0  0  0  0  0  0  0
    1.8846   -1.6810   -0.8736 H   0  0  0  0  0  0  0  0  0  0  0  0
    1.9976    0.8675    1.5476 H   0  0  0  0  0  0  0  0  0  0  0  0
  1  2  1  0
  2  3  1  0
  2  4  1  0
  4  5  1  0
  5  6  1  0
  6  7  1  0
  7  8  2  0
  6  9  1  0
  6  2  1  0
  9  4  1  0
  1 10  1  0
  1 11  1  0
  1 12  1  0
  3 13  1  0
  3 14  1  0
  3 15  1  0
  4 16  1  0
  5 17  1  0
  5 18  1  0
  7 19  1  0
M  END
