
     RDKit          3D

 19 19  0  0  0  0  0  0  0  0999 V2000
   -1.4766    0.0386    0.9343 C   0  0  0  0  0  0  0  0  0  0  0  0
   -0.8315   -0.0682   -0.4287 C   0  0  0  0  0  0  0  0  0  0  0  0
   -1.3073    0.9911   -1.3403 C   0  0  0  0  0  0  0  0  0  0  0  0
   -1.6651    0.6992   -2.4611 O   0  0  0  0  0  0  0  0  0  0  0  0
   -0.8240   -1.3485   -0.9193 O   0  0  0  0  0  0  0  0  0  0  0  0
    0.4090   -1.5637   -0.2941 C   0  0  0  0  0  0  0  0  0  0  0  0
    0.6793   -0.1055   -0.4054 C   0  0  0  0  0  0  0  0  0  0  0  0
    1.2857    0.5674    0.7969 C   0  0  0  0  0  0  0  0  0  0  0  0
    2.6738    0.4696    0.7081 O   0  0  0  0  0  0  0  0  0  0  0  0
   -1.0939    0.9000    1.5155 H   0  0  0  0  0  0  0  0  0  0  0  0
   -2.5737    0.1227    0.7620 H   0  0  0  0  0  0  0  0  0  0  0  0
   -1.3332   -0.9000    1.5189 H   0  0  0  0  0  0  0  0  0  0  0  0
   -1.3439    2.0219   -1.0311 H   0  0  0  0  0  0  0  0  0  0  0  0
    0.3061   -1.9737    0.7373 H   0  0  0  0  0  0  0  0  0  0  0  0
    1.0739   -2.2315   -0.8958 H   0  0  0  0  0  0  0  0  0  0  0  0
    1.1053    0.1679   -1.3765 H   0  0  0  0  0  0  0  0  0  0  0  0
    0.8792    0.1193    1.7036 H   0  0  0  0  0  0  0  0  0  0  0  0
    1.0499    1.6558    0.7073 H   0  0  0  0  0  0  0  0  0  0  0  0
    2.9869    0.4376   -0.2315 H   0  0  0  0  0  0  0  0  0  0  0  0
  1  2  1  0
  2  3  1  0
  3  4  2  0
  2  5  1  0
  5  6  1  0
  6  7  1  0
  7  8  1  0
  8  9  1  0
  7  2  1  0
  1 10  1  0
  1 11  1  0
  1 12  1  0
  3 13  1  0
  6 14  1  0
  6 15  1  0
  7 16  1  0
  8 17  1  0
  8 18  1  0
  9 19  1  0
M  END
