
     RDKit          3D

 15 15  0  0  0  0  0  0  0  0999 V2000
   -0.9881    1.4771   -0.2720 C   0  0  0  0  0  0  0  0  0  0  0  0
   -0.0937    0.3233    0.0693 C   0  0  0  0  0  0  0  0  0  0  0  0
    1.1530    0.4020   -0.5167 O   0  0  0  0  0  0  0  0  0  0  0  0
    2.1816   -0.4907   -0.3974 C   0  0  0  0  0  0  0  0  0  0  0  0
    1.9907   -1.5108    0.3269 O   0  0  0  0  0  0  0  0  0  0  0  0
   -0.7759   -0.9851   -0.3402 C   0  0  0  0  0  0  0  0  0  0  0  0
   -1.2301   -1.1726    0.9828 O   0  0  0  0  0  0  0  0  0  0  0  0
   -0.2298   -0.2660    1.3937 C   0  0  0  0  0  0  0  0  0  0  0  0
    0.2407   -0.1720    2.5715 O   0  0  0  0  0  0  0  0  0  0  0  0
   -0.8606    2.3498    0.3975 H   0  0  0  0  0  0  0  0  0  0  0  0
   -0.7246    1.8287   -1.2890 H   0  0  0  0  0  0  0  0  0  0  0  0
   -2.0523    1.1639   -0.3074 H   0  0  0  0  0  0  0  0  0  0  0  0
    3.1168   -0.3243   -0.9045 H   0  0  0  0  0  0  0  0  0  0  0  0
   -0.0986   -1.7688   -0.6930 H   0  0  0  0  0  0  0  0  0  0  0  0
   -1.6290   -0.8546   -1.0213 H   0  0  0  0  0  0  0  0  0  0  0  0
  1  2  1  0
  2  3  1  0
  3  4  1  0
  4  5  2  0
  2  6  1  0
  6  7  1  0
  7  8  1  0
  8  9  2  0
  8  2  1  0
  1 10  1  0
  1 11  1  0
  1 12  1  0
  4 13  1  0
  6 14  1  0
  6 15  1  0
M  END
