
     RDKit          3D

 21 22  0  0  0  0  0  0  0  0999 V2000
   -1.5014   -0.9896    0.9130 C   0  0  0  0  0  0  0  0  0  0  0  0
   -1.2405    0.2796    0.1729 C   0  0  0  0  0  0  0  0  0  0  0  0
   -2.3005    1.3407    0.2797 C   0  0  0  0  0  0  0  0  0  0  0  0
   -2.0231    2.3728    0.8147 O   0  0  0  0  0  0  0  0  0  0  0  0
   -0.7297    0.0055   -1.2372 C   0  0  0  0  0  0  0  0  0  0  0  0
    0.0869    0.7658   -0.2465 C   0  0  0  0  0  0  0  0  0  0  0  0
    1.2733    0.1177    0.4039 C   0  0  0  0  0  0  0  0  0  0  0  0
    2.6506    0.2980   -0.0065 C   0  0  0  0  0  0  0  0  0  0  0  0
    1.9285   -0.9571   -0.4287 C   0  0  0  0  0  0  0  0  0  0  0  0
   -1.5683   -1.8633    0.2773 H   0  0  0  0  0  0  0  0  0  0  0  0
   -2.4192   -0.8985    1.5458 H   0  0  0  0  0  0  0  0  0  0  0  0
   -0.6901   -1.1894    1.6641 H   0  0  0  0  0  0  0  0  0  0  0  0
   -3.3034    1.1464   -0.1405 H   0  0  0  0  0  0  0  0  0  0  0  0
   -1.1680    0.4966   -2.0950 H   0  0  0  0  0  0  0  0  0  0  0  0
   -0.3586   -1.0170   -1.4476 H   0  0  0  0  0  0  0  0  0  0  0  0
    0.1954    1.8409   -0.5152 H   0  0  0  0  0  0  0  0  0  0  0  0
    1.0859   -0.0751    1.4863 H   0  0  0  0  0  0  0  0  0  0  0  0
    3.4469    0.1701    0.7516 H   0  0  0  0  0  0  0  0  0  0  0  0
    2.8800    1.0594   -0.7814 H   0  0  0  0  0  0  0  0  0  0  0  0
    2.0500   -1.9000    0.1001 H   0  0  0  0  0  0  0  0  0  0  0  0
    1.7054   -1.0034   -1.5109 H   0  0  0  0  0  0  0  0  0  0  0  0
  1  2  1  0
  2  3  1  0
  3  4  2  0
  2  5  1  0
  5  6  1  0
  6  7  1  0
  7  8  1  0
  8  9  1  0
  6  2  1  0
  9  7  1  0
  1 10  1  0
  1 11  1  0
  1 12  1  0
  3 13  1  0
  5 14  1  0
  5 15  1  0
  6 16  1  0
  7 17  1  0
  8 18  1  0
  8 19  1  0
  9 20  1  0
  9 21  1  0
M  END
