
     RDKit          3D

 21 23  0  0  0  0  0  0  0  0999 V2000
    1.4989   -0.6919    1.0643 C   0  0  0  0  0  0  0  0  0  0  0  0
    0.6480   -0.0487   -0.0004 C   0  0  0  0  0  0  0  0  0  0  0  0
    1.5606    0.6625   -0.9595 C   0  0  0  0  0  0  0  0  0  0  0  0
   -0.2034   -1.0408   -0.7444 C   0  0  0  0  0  0  0  0  0  0  0  0
   -1.6436   -0.6751   -0.4964 C   0  0  0  0  0  0  0  0  0  0  0  0
   -2.0876    0.4742   -1.1257 O   0  0  0  0  0  0  0  0  0  0  0  0
   -1.5823    1.2884   -0.1413 C   0  0  0  0  0  0  0  0  0  0  0  0
   -1.5512    0.0908    0.7810 C   0  0  0  0  0  0  0  0  0  0  0  0
   -0.3612    0.8946    0.6432 C   0  0  0  0  0  0  0  0  0  0  0  0
    2.5881   -0.5257    0.8827 H   0  0  0  0  0  0  0  0  0  0  0  0
    1.2547   -0.2689    2.0647 H   0  0  0  0  0  0  0  0  0  0  0  0
    1.2639   -1.7770    1.0653 H   0  0  0  0  0  0  0  0  0  0  0  0
    1.8480   -0.0405   -1.7754 H   0  0  0  0  0  0  0  0  0  0  0  0
    0.9560    1.4968   -1.4133 H   0  0  0  0  0  0  0  0  0  0  0  0
    2.4556    1.0853   -0.4377 H   0  0  0  0  0  0  0  0  0  0  0  0
    0.0603   -1.1475   -1.7972 H   0  0  0  0  0  0  0  0  0  0  0  0
   -0.0451   -2.0344   -0.2330 H   0  0  0  0  0  0  0  0  0  0  0  0
   -2.3122   -1.5244   -0.5493 H   0  0  0  0  0  0  0  0  0  0  0  0
   -2.1433    2.1412    0.2552 H   0  0  0  0  0  0  0  0  0  0  0  0
   -2.2442    0.0180    1.5880 H   0  0  0  0  0  0  0  0  0  0  0  0
    0.0401    1.6230    1.3291 H   0  0  0  0  0  0  0  0  0  0  0  0
  1  2  1  0
  2  3  1  0
  2  4  1  0
  4  5  1  0
  5  6  1  0
  6  7  1  0
  7  8  1  0
  8  9  1  0
  9  2  1  0
  8  5  1  0
  9  7  1  0
  1 10  1  0
  1 11  1  0
  1 12  1  0
  3 13  1  0
  3 14  1  0
  3 15  1  0
  4 16  1  0
  4 17  1  0
  5 18  1  0
  7 19  1  0
  8 20  1  0
  9 21  1  0
M  END
