
     RDKit          3D

 17 17  0  0  0  0  0  0  0  0999 V2000
    0.6494    1.6942   -0.2584 C   0  0  0  0  0  0  0  0  0  0  0  0
    0.0958    0.2985   -0.1280 C   0  0  0  0  0  0  0  0  0  0  0  0
    0.9979   -0.7031   -0.4873 O   0  0  0  0  0  0  0  0  0  0  0  0
    2.2057   -0.9116    0.1128 C   0  0  0  0  0  0  0  0  0  0  0  0
    2.5386   -0.1452    1.0646 O   0  0  0  0  0  0  0  0  0  0  0  0
   -1.1322    0.1963   -0.9895 C   0  0  0  0  0  0  0  0  0  0  0  0
   -1.9572   -0.6082   -0.3356 C   0  0  0  0  0  0  0  0  0  0  0  0
   -1.2631   -1.0058    0.9128 C   0  0  0  0  0  0  0  0  0  0  0  0
   -0.4212    0.0638    1.1673 O   0  0  0  0  0  0  0  0  0  0  0  0
    0.8762    2.0415    0.7852 H   0  0  0  0  0  0  0  0  0  0  0  0
    1.5587    1.7404   -0.8777 H   0  0  0  0  0  0  0  0  0  0  0  0
   -0.1480    2.3933   -0.6274 H   0  0  0  0  0  0  0  0  0  0  0  0
    2.9167   -1.6873   -0.1573 H   0  0  0  0  0  0  0  0  0  0  0  0
   -1.3349    0.6621   -1.9404 H   0  0  0  0  0  0  0  0  0  0  0  0
   -2.9662   -0.9194   -0.6618 H   0  0  0  0  0  0  0  0  0  0  0  0
   -0.6472   -1.9131    0.6754 H   0  0  0  0  0  0  0  0  0  0  0  0
   -1.9690   -1.1966    1.7451 H   0  0  0  0  0  0  0  0  0  0  0  0
  1  2  1  0
  2  3  1  0
  3  4  1  0
  4  5  2  0
  2  6  1  0
  6  7  2  0
  7  8  1  0
  8  9  1  0
  9  2  1  0
  1 10  1  0
  1 11  1  0
  1 12  1  0
  4 13  1  0
  6 14  1  0
  7 15  1  0
  8 16  1  0
  8 17  1  0
M  END
