
     RDKit          3D

 20 20  0  0  0  0  0  0  0  0999 V2000
    2.1805   -0.6842   -0.7019 C   0  0  0  0  0  0  0  0  0  0  0  0
    0.9677   -0.1974    0.0742 C   0  0  0  0  0  0  0  0  0  0  0  0
    0.6429   -1.0210    1.1313 O   0  0  0  0  0  0  0  0  0  0  0  0
    1.1169    1.2974    0.4571 C   0  0  0  0  0  0  0  0  0  0  0  0
    0.0591    0.7972   -0.4783 C   0  0  0  0  0  0  0  0  0  0  0  0
   -1.3546    0.9114    0.0059 C   0  0  0  0  0  0  0  0  0  0  0  0
   -2.2167   -0.2855   -0.1968 C   0  0  0  0  0  0  0  0  0  0  0  0
   -1.7440   -1.3892    0.4485 O   0  0  0  0  0  0  0  0  0  0  0  0
    2.2188   -0.2435   -1.7190 H   0  0  0  0  0  0  0  0  0  0  0  0
    2.2494   -1.7874   -0.6967 H   0  0  0  0  0  0  0  0  0  0  0  0
    3.0721   -0.3097   -0.1578 H   0  0  0  0  0  0  0  0  0  0  0  0
    0.9217   -1.9328    0.9539 H   0  0  0  0  0  0  0  0  0  0  0  0
    0.8689    1.5505    1.4970 H   0  0  0  0  0  0  0  0  0  0  0  0
    1.9071    1.8856   -0.0035 H   0  0  0  0  0  0  0  0  0  0  0  0
    0.1657    1.0721   -1.5750 H   0  0  0  0  0  0  0  0  0  0  0  0
   -1.8500    1.7440   -0.5882 H   0  0  0  0  0  0  0  0  0  0  0  0
   -1.3610    1.2479    1.0934 H   0  0  0  0  0  0  0  0  0  0  0  0
   -3.2607   -0.0427    0.1327 H   0  0  0  0  0  0  0  0  0  0  0  0
   -2.2038   -0.4893   -1.3076 H   0  0  0  0  0  0  0  0  0  0  0  0
   -2.3799   -2.1237    0.5362 H   0  0  0  0  0  0  0  0  0  0  0  0
  1  2  1  0
  2  3  1  0
  2  4  1  0
  4  5  1  0
  5  6  1  0
  6  7  1  0
  7  8  1  0
  5  2  1  0
  1  9  1  0
  1 10  1  0
  1 11  1  0
  3 12  1  0
  4 13  1  0
  4 14  1  0
  5 15  1  0
  6 16  1  0
  6 17  1  0
  7 18  1  0
  7 19  1  0
  8 20  1  0
M  END
