
     RDKit          3D

 20 20  0  0  0  0  0  0  0  0999 V2000
   -1.2476    0.8667   -0.6813 C   0  0  0  0  0  0  0  0  0  0  0  0
   -0.5759   -0.0908    0.2380 C   0  0  0  0  0  0  0  0  0  0  0  0
    0.7190    0.3602    0.8484 C   0  0  0  0  0  0  0  0  0  0  0  0
    1.7203    0.6495   -0.2428 C   0  0  0  0  0  0  0  0  0  0  0  0
    2.9176    1.0670    0.3325 O   0  0  0  0  0  0  0  0  0  0  0  0
   -1.5491   -0.7571    1.1759 C   0  0  0  0  0  0  0  0  0  0  0  0
   -1.8749   -1.6263    0.1150 O   0  0  0  0  0  0  0  0  0  0  0  0
   -0.5357   -1.5185   -0.2811 C   0  0  0  0  0  0  0  0  0  0  0  0
   -0.8040    1.8791   -0.5065 H   0  0  0  0  0  0  0  0  0  0  0  0
   -2.3374    0.9710   -0.5166 H   0  0  0  0  0  0  0  0  0  0  0  0
   -1.1357    0.5815   -1.7645 H   0  0  0  0  0  0  0  0  0  0  0  0
    1.0917   -0.2887    1.6358 H   0  0  0  0  0  0  0  0  0  0  0  0
    0.5059    1.3548    1.3373 H   0  0  0  0  0  0  0  0  0  0  0  0
    1.3190    1.5111   -0.8350 H   0  0  0  0  0  0  0  0  0  0  0  0
    1.8933   -0.2363   -0.8984 H   0  0  0  0  0  0  0  0  0  0  0  0
    3.6863    0.5185    0.0673 H   0  0  0  0  0  0  0  0  0  0  0  0
   -1.0646   -1.2851    2.0380 H   0  0  0  0  0  0  0  0  0  0  0  0
   -2.4482   -0.1718    1.4394 H   0  0  0  0  0  0  0  0  0  0  0  0
    0.0841   -2.1638    0.3704 H   0  0  0  0  0  0  0  0  0  0  0  0
   -0.3640   -1.6211   -1.3644 H   0  0  0  0  0  0  0  0  0  0  0  0
  1  2  1  0
  2  3  1  0
  3  4  1  0
  4  5  1  0
  2  6  1  0
  6  7  1  0
  7  8  1  0
  8  2  1  0
  1  9  1  0
  1 10  1  0
  1 11  1  0
  3 12  1  0
  3 13  1  0
  4 14  1  0
  4 15  1  0
  5 16  1  0
  6 17  1  0
  6 18  1  0
  8 19  1  0
  8 20  1  0
M  END
