
     RDKit          3D

 23 24  0  0  0  0  0  0  0  0999 V2000
   -1.8868   -0.7436   -0.1240 C   0  0  0  0  0  0  0  0  0  0  0  0
   -0.7282    0.1983   -0.1634 C   0  0  0  0  0  0  0  0  0  0  0  0
   -1.1967    1.5665   -0.5834 C   0  0  0  0  0  0  0  0  0  0  0  0
   -0.0509    0.2375    1.2143 C   0  0  0  0  0  0  0  0  0  0  0  0
    1.2994   -0.3725    0.9654 C   0  0  0  0  0  0  0  0  0  0  0  0
    2.0443    0.5708    0.0511 C   0  0  0  0  0  0  0  0  0  0  0  0
    1.4225    0.4927   -1.1791 O   0  0  0  0  0  0  0  0  0  0  0  0
    0.3305   -0.3727   -1.0548 C   0  0  0  0  0  0  0  0  0  0  0  0
    0.9298   -1.4245   -0.0972 C   0  0  0  0  0  0  0  0  0  0  0  0
   -1.8175   -1.4709    0.7239 H   0  0  0  0  0  0  0  0  0  0  0  0
   -1.8647   -1.3951   -1.0458 H   0  0  0  0  0  0  0  0  0  0  0  0
   -2.8704   -0.2737   -0.1004 H   0  0  0  0  0  0  0  0  0  0  0  0
   -1.5878    1.4925   -1.5968 H   0  0  0  0  0  0  0  0  0  0  0  0
   -0.3822    2.3188   -0.5484 H   0  0  0  0  0  0  0  0  0  0  0  0
   -2.0325    1.8494    0.0868 H   0  0  0  0  0  0  0  0  0  0  0  0
    0.0965    1.3111    1.4450 H   0  0  0  0  0  0  0  0  0  0  0  0
   -0.6377   -0.2975    1.9640 H   0  0  0  0  0  0  0  0  0  0  0  0
    1.8304   -0.7563    1.8007 H   0  0  0  0  0  0  0  0  0  0  0  0
    2.0202    1.5986    0.4157 H   0  0  0  0  0  0  0  0  0  0  0  0
    3.1032    0.2468    0.0264 H   0  0  0  0  0  0  0  0  0  0  0  0
   -0.0019   -0.7969   -1.9849 H   0  0  0  0  0  0  0  0  0  0  0  0
    1.8135   -1.8949   -0.5207 H   0  0  0  0  0  0  0  0  0  0  0  0
    0.1670   -2.0845    0.3057 H   0  0  0  0  0  0  0  0  0  0  0  0
  1  2  1  0
  2  3  1  0
  2  4  1  0
  4  5  1  0
  5  6  1  0
  6  7  1  0
  7  8  1  0
  8  9  1  0
  8  2  1  0
  9  5  1  0
  1 10  1  0
  1 11  1  0
  1 12  1  0
  3 13  1  0
  3 14  1  0
  3 15  1  0
  4 16  1  0
  4 17  1  0
  5 18  1  0
  6 19  1  0
  6 20  1  0
  8 21  1  0
  9 22  1  0
  9 23  1  0
M  END
