
     RDKit          3D

 19 19  0  0  0  0  0  0  0  0999 V2000
   -1.2188    1.4225    0.1091 C   0  0  0  0  0  0  0  0  0  0  0  0
   -0.4602    0.1357   -0.0879 C   0  0  0  0  0  0  0  0  0  0  0  0
    0.8237    0.0560    0.7237 C   0  0  0  0  0  0  0  0  0  0  0  0
    1.4474   -1.2640    0.4187 C   0  0  0  0  0  0  0  0  0  0  0  0
    1.3301   -2.2380    1.1259 O   0  0  0  0  0  0  0  0  0  0  0  0
    1.7622    1.1176    0.2739 C   0  0  0  0  0  0  0  0  0  0  0  0
    2.2845    1.9247    1.0102 O   0  0  0  0  0  0  0  0  0  0  0  0
   -1.3643   -1.0860   -0.0877 C   0  0  0  0  0  0  0  0  0  0  0  0
   -0.5863   -0.6833   -1.2894 C   0  0  0  0  0  0  0  0  0  0  0  0
   -2.0473    1.5272   -0.6467 H   0  0  0  0  0  0  0  0  0  0  0  0
   -0.5878    2.3153    0.1417 H   0  0  0  0  0  0  0  0  0  0  0  0
   -1.6850    1.3361    1.1334 H   0  0  0  0  0  0  0  0  0  0  0  0
    0.6397    0.1006    1.8090 H   0  0  0  0  0  0  0  0  0  0  0  0
    2.0337   -1.3348   -0.4904 H   0  0  0  0  0  0  0  0  0  0  0  0
    1.9809    1.1567   -0.7805 H   0  0  0  0  0  0  0  0  0  0  0  0
   -2.4612   -0.9454   -0.1693 H   0  0  0  0  0  0  0  0  0  0  0  0
   -1.0404   -1.9166    0.5641 H   0  0  0  0  0  0  0  0  0  0  0  0
    0.2920   -1.3019   -1.5683 H   0  0  0  0  0  0  0  0  0  0  0  0
   -1.1426   -0.3224   -2.1895 H   0  0  0  0  0  0  0  0  0  0  0  0
  1  2  1  0
  2  3  1  0
  3  4  1  0
  4  5  2  0
  3  6  1  0
  6  7  2  0
  2  8  1  0
  8  9  1  0
  9  2  1  0
  1 10  1  0
  1 11  1  0
  1 12  1  0
  3 13  1  0
  4 14  1  0
  6 15  1  0
  8 16  1  0
  8 17  1  0
  9 18  1  0
  9 19  1  0
M  END
