
     RDKit          3D

 17 18  0  0  0  0  0  0  0  0999 V2000
    1.7731   -0.5586    0.5448 C   0  0  0  0  0  0  0  0  0  0  0  0
    0.6468    0.1982   -0.0660 C   0  0  0  0  0  0  0  0  0  0  0  0
    0.9795    1.4723   -0.4330 O   0  0  0  0  0  0  0  0  0  0  0  0
   -0.6398    0.1374    0.7535 C   0  0  0  0  0  0  0  0  0  0  0  0
   -1.5620    0.9185   -0.1440 C   0  0  0  0  0  0  0  0  0  0  0  0
   -1.1605    0.3922   -1.3967 O   0  0  0  0  0  0  0  0  0  0  0  0
   -0.2268   -0.5760   -1.0369 C   0  0  0  0  0  0  0  0  0  0  0  0
   -0.7992   -1.2020    0.1647 C   0  0  0  0  0  0  0  0  0  0  0  0
   -1.1991   -2.2498    0.5204 O   0  0  0  0  0  0  0  0  0  0  0  0
    1.4050   -1.2973    1.2928 H   0  0  0  0  0  0  0  0  0  0  0  0
    2.4252   -1.0734   -0.1870 H   0  0  0  0  0  0  0  0  0  0  0  0
    2.4218    0.1670    1.0781 H   0  0  0  0  0  0  0  0  0  0  0  0
    0.3578    1.9081   -1.0650 H   0  0  0  0  0  0  0  0  0  0  0  0
   -0.6059    0.2978    1.7864 H   0  0  0  0  0  0  0  0  0  0  0  0
   -2.6176    0.6323    0.0661 H   0  0  0  0  0  0  0  0  0  0  0  0
   -1.4376    1.9971   -0.0909 H   0  0  0  0  0  0  0  0  0  0  0  0
    0.2395   -1.1639   -1.7872 H   0  0  0  0  0  0  0  0  0  0  0  0
  1  2  1  0
  2  3  1  0
  2  4  1  0
  4  5  1  0
  5  6  1  0
  6  7  1  0
  7  8  1  0
  8  9  2  0
  7  2  1  0
  8  4  1  0
  1 10  1  0
  1 11  1  0
  1 12  1  0
  3 13  1  0
  4 14  1  0
  5 15  1  0
  5 16  1  0
  7 17  1  0
M  END
