
     RDKit          3D

 21 22  0  0  0  0  0  0  0  0999 V2000
   -1.0468    1.2361    0.9206 C   0  0  0  0  0  0  0  0  0  0  0  0
   -0.6012    0.1652   -0.0500 C   0  0  0  0  0  0  0  0  0  0  0  0
    0.7914    0.3957   -0.5229 C   0  0  0  0  0  0  0  0  0  0  0  0
    1.7634    0.3926    0.6452 C   0  0  0  0  0  0  0  0  0  0  0  0
    2.1298   -0.9382    0.3812 O   0  0  0  0  0  0  0  0  0  0  0  0
    1.6007   -0.7917   -0.9033 C   0  0  0  0  0  0  0  0  0  0  0  0
   -0.8537   -1.2261    0.4804 C   0  0  0  0  0  0  0  0  0  0  0  0
   -1.7634   -1.4695   -0.5335 O   0  0  0  0  0  0  0  0  0  0  0  0
   -1.6264   -0.1908   -1.0686 C   0  0  0  0  0  0  0  0  0  0  0  0
   -0.2236    1.9631    1.1249 H   0  0  0  0  0  0  0  0  0  0  0  0
   -1.3157    0.7885    1.8919 H   0  0  0  0  0  0  0  0  0  0  0  0
   -1.8882    1.8343    0.5097 H   0  0  0  0  0  0  0  0  0  0  0  0
    0.9150    1.3115   -1.1258 H   0  0  0  0  0  0  0  0  0  0  0  0
    1.2588    0.4684    1.6387 H   0  0  0  0  0  0  0  0  0  0  0  0
    2.5922    1.1113    0.5740 H   0  0  0  0  0  0  0  0  0  0  0  0
    1.0342   -1.6574   -1.2868 H   0  0  0  0  0  0  0  0  0  0  0  0
    2.4384   -0.4833   -1.5912 H   0  0  0  0  0  0  0  0  0  0  0  0
    0.0050   -1.9101    0.4590 H   0  0  0  0  0  0  0  0  0  0  0  0
   -1.2736   -1.2081    1.5137 H   0  0  0  0  0  0  0  0  0  0  0  0
   -1.3358   -0.1430   -2.1274 H   0  0  0  0  0  0  0  0  0  0  0  0
   -2.6005    0.3516   -0.9300 H   0  0  0  0  0  0  0  0  0  0  0  0
  1  2  1  0
  2  3  1  0
  3  4  1  0
  4  5  1  0
  5  6  1  0
  2  7  1  0
  7  8  1  0
  8  9  1  0
  9  2  1  0
  6  3  1  0
  1 10  1  0
  1 11  1  0
  1 12  1  0
  3 13  1  0
  4 14  1  0
  4 15  1  0
  6 16  1  0
  6 17  1  0
  7 18  1  0
  7 19  1  0
  9 20  1  0
  9 21  1  0
M  END
