
     RDKit          3D

 25 25  0  0  0  0  0  0  0  0999 V2000
    1.5602   -0.0351    1.4334 C   0  0  0  0  0  0  0  0  0  0  0  0
    1.0316   -0.1858    0.0579 C   0  0  0  0  0  0  0  0  0  0  0  0
    2.1505   -0.4206   -0.9346 C   0  0  0  0  0  0  0  0  0  0  0  0
   -0.0912   -1.1904    0.0054 C   0  0  0  0  0  0  0  0  0  0  0  0
   -1.0689   -0.0450   -0.0934 C   0  0  0  0  0  0  0  0  0  0  0  0
   -2.0689   -0.2686   -1.2137 C   0  0  0  0  0  0  0  0  0  0  0  0
   -1.7721    0.3317    1.1720 C   0  0  0  0  0  0  0  0  0  0  0  0
    0.0840    0.8548   -0.4467 C   0  0  0  0  0  0  0  0  0  0  0  0
    0.1186    2.0823    0.1574 O   0  0  0  0  0  0  0  0  0  0  0  0
    1.7961   -1.0689    1.8224 H   0  0  0  0  0  0  0  0  0  0  0  0
    0.8919    0.4180    2.1603 H   0  0  0  0  0  0  0  0  0  0  0  0
    2.5548    0.4714    1.3703 H   0  0  0  0  0  0  0  0  0  0  0  0
    3.0721    0.1048   -0.5499 H   0  0  0  0  0  0  0  0  0  0  0  0
    2.3573   -1.4763   -1.1233 H   0  0  0  0  0  0  0  0  0  0  0  0
    1.9340    0.0905   -1.9096 H   0  0  0  0  0  0  0  0  0  0  0  0
   -0.0967   -1.8127   -0.8944 H   0  0  0  0  0  0  0  0  0  0  0  0
   -0.2604   -1.7893    0.9045 H   0  0  0  0  0  0  0  0  0  0  0  0
   -2.6697   -1.1716   -0.9487 H   0  0  0  0  0  0  0  0  0  0  0  0
   -2.7760    0.5716   -1.2491 H   0  0  0  0  0  0  0  0  0  0  0  0
   -1.5842   -0.4976   -2.1770 H   0  0  0  0  0  0  0  0  0  0  0  0
   -1.4259   -0.2013    2.0652 H   0  0  0  0  0  0  0  0  0  0  0  0
   -1.6768    1.4487    1.2766 H   0  0  0  0  0  0  0  0  0  0  0  0
   -2.8753    0.1535    1.0906 H   0  0  0  0  0  0  0  0  0  0  0  0
    0.1297    0.9527   -1.5693 H   0  0  0  0  0  0  0  0  0  0  0  0
    0.6853    2.6832   -0.4061 H   0  0  0  0  0  0  0  0  0  0  0  0
  1  2  1  0
  2  3  1  0
  2  4  1  0
  4  5  1  0
  5  6  1  0
  5  7  1  0
  5  8  1  0
  8  9  1  0
  8  2  1  0
  1 10  1  0
  1 11  1  0
  1 12  1  0
  3 13  1  0
  3 14  1  0
  3 15  1  0
  4 16  1  0
  4 17  1  0
  6 18  1  0
  6 19  1  0
  6 20  1  0
  7 21  1  0
  7 22  1  0
  7 23  1  0
  8 24  1  0
  9 25  1  0
M  END
