
     RDKit          3D

 19 21  0  0  0  0  0  0  0  0999 V2000
   -1.7368    0.9203    0.5205 C   0  0  0  0  0  0  0  0  0  0  0  0
   -1.1218   -0.1800   -0.2785 C   0  0  0  0  0  0  0  0  0  0  0  0
    0.3172   -0.5500   -0.1191 C   0  0  0  0  0  0  0  0  0  0  0  0
    0.7190   -0.7613    1.2256 O   0  0  0  0  0  0  0  0  0  0  0  0
    1.9831   -0.5769    0.6628 C   0  0  0  0  0  0  0  0  0  0  0  0
    2.6483    0.6284    0.3311 C   0  0  0  0  0  0  0  0  0  0  0  0
    1.2305    0.6759    0.0520 C   0  0  0  0  0  0  0  0  0  0  0  0
   -2.0037   -1.1396   -0.9833 C   0  0  0  0  0  0  0  0  0  0  0  0
   -1.4251    0.0139   -1.7086 O   0  0  0  0  0  0  0  0  0  0  0  0
   -1.8408    0.7002    1.5885 H   0  0  0  0  0  0  0  0  0  0  0  0
   -2.7842    1.0670    0.1343 H   0  0  0  0  0  0  0  0  0  0  0  0
   -1.2135    1.8634    0.3614 H   0  0  0  0  0  0  0  0  0  0  0  0
    0.6447   -1.2889   -0.8414 H   0  0  0  0  0  0  0  0  0  0  0  0
    2.1287   -1.4248   -0.0797 H   0  0  0  0  0  0  0  0  0  0  0  0
    3.3177    0.6818   -0.5771 H   0  0  0  0  0  0  0  0  0  0  0  0
    3.1439    1.2026    1.1720 H   0  0  0  0  0  0  0  0  0  0  0  0
    0.6943    1.3123    0.8274 H   0  0  0  0  0  0  0  0  0  0  0  0
   -3.1088   -1.0698   -0.8997 H   0  0  0  0  0  0  0  0  0  0  0  0
   -1.5927   -2.0745   -1.3880 H   0  0  0  0  0  0  0  0  0  0  0  0
  1  2  1  0
  2  3  1  0
  3  4  1  0
  4  5  1  0
  5  6  1  0
  6  7  1  0
  2  8  1  0
  8  9  1  0
  9  2  1  0
  7  3  1  0
  7  5  1  0
  1 10  1  0
  1 11  1  0
  1 12  1  0
  3 13  1  0
  5 14  1  0
  6 15  1  0
  6 16  1  0
  7 17  1  0
  8 18  1  0
  8 19  1  0
M  END
