
     RDKit          3D

 21 21  0  0  0  0  0  0  0  0999 V2000
   -0.9744   -1.5110    0.0491 C   0  0  0  0  0  0  0  0  0  0  0  0
   -0.7151    0.0007   -0.0148 C   0  0  0  0  0  0  0  0  0  0  0  0
   -2.1108    0.5994   -0.2539 C   0  0  0  0  0  0  0  0  0  0  0  0
   -1.9804    1.9765   -0.3252 O   0  0  0  0  0  0  0  0  0  0  0  0
   -0.2464    0.5042    1.1478 O   0  0  0  0  0  0  0  0  0  0  0  0
    1.0784    0.4325    1.3977 C   0  0  0  0  0  0  0  0  0  0  0  0
    1.9857    0.1132    0.2782 C   0  0  0  0  0  0  0  0  0  0  0  0
    1.3464   -0.0612   -1.0545 C   0  0  0  0  0  0  0  0  0  0  0  0
    0.0338    0.3180   -1.1287 O   0  0  0  0  0  0  0  0  0  0  0  0
   -0.1266   -2.0493    0.4942 H   0  0  0  0  0  0  0  0  0  0  0  0
   -1.2241   -1.8333   -0.9809 H   0  0  0  0  0  0  0  0  0  0  0  0
   -1.9160   -1.6666    0.6503 H   0  0  0  0  0  0  0  0  0  0  0  0
   -2.8352    0.2514    0.4902 H   0  0  0  0  0  0  0  0  0  0  0  0
   -2.4133    0.2014   -1.2612 H   0  0  0  0  0  0  0  0  0  0  0  0
   -1.2280    2.1592   -0.9525 H   0  0  0  0  0  0  0  0  0  0  0  0
    1.2707   -0.3021    2.2359 H   0  0  0  0  0  0  0  0  0  0  0  0
    1.3892    1.4215    1.8522 H   0  0  0  0  0  0  0  0  0  0  0  0
    2.7917    0.9000    0.1687 H   0  0  0  0  0  0  0  0  0  0  0  0
    2.5822   -0.8265    0.4803 H   0  0  0  0  0  0  0  0  0  0  0  0
    1.8965    0.5054   -1.8612 H   0  0  0  0  0  0  0  0  0  0  0  0
    1.3958   -1.1334   -1.4117 H   0  0  0  0  0  0  0  0  0  0  0  0
  1  2  1  0
  2  3  1  0
  3  4  1  0
  2  5  1  0
  5  6  1  0
  6  7  1  0
  7  8  1  0
  8  9  1  0
  9  2  1  0
  1 10  1  0
  1 11  1  0
  1 12  1  0
  3 13  1  0
  3 14  1  0
  4 15  1  0
  6 16  1  0
  6 17  1  0
  7 18  1  0
  7 19  1  0
  8 20  1  0
  8 21  1  0
M  END
