
     RDKit          3D

 23 24  0  0  0  0  0  0  0  0999 V2000
   -1.5132    1.3216   -0.6337 C   0  0  0  0  0  0  0  0  0  0  0  0
   -0.7741    0.1889    0.0490 C   0  0  0  0  0  0  0  0  0  0  0  0
    0.6742    0.0849   -0.3137 C   0  0  0  0  0  0  0  0  0  0  0  0
    0.9566   -0.1386   -1.7626 C   0  0  0  0  0  0  0  0  0  0  0  0
    1.5379   -0.7450    0.5796 C   0  0  0  0  0  0  0  0  0  0  0  0
    1.7076    0.5591    1.3072 C   0  0  0  0  0  0  0  0  0  0  0  0
    1.3948    1.2174    0.1340 O   0  0  0  0  0  0  0  0  0  0  0  0
   -1.3292   -0.3695    1.2910 C   0  0  0  0  0  0  0  0  0  0  0  0
   -1.5536   -1.1378    0.0118 C   0  0  0  0  0  0  0  0  0  0  0  0
   -1.4198    2.2675   -0.0636 H   0  0  0  0  0  0  0  0  0  0  0  0
   -2.6010    1.1048   -0.7318 H   0  0  0  0  0  0  0  0  0  0  0  0
   -1.0787    1.4116   -1.6498 H   0  0  0  0  0  0  0  0  0  0  0  0
    0.0104   -0.1748   -2.3319 H   0  0  0  0  0  0  0  0  0  0  0  0
    1.4251   -1.1452   -1.8838 H   0  0  0  0  0  0  0  0  0  0  0  0
    1.6717    0.5920   -2.1934 H   0  0  0  0  0  0  0  0  0  0  0  0
    1.0834   -1.5597    1.1282 H   0  0  0  0  0  0  0  0  0  0  0  0
    2.5070   -0.9827    0.0526 H   0  0  0  0  0  0  0  0  0  0  0  0
    1.0183    0.7505    2.1455 H   0  0  0  0  0  0  0  0  0  0  0  0
    2.7560    0.7026    1.6659 H   0  0  0  0  0  0  0  0  0  0  0  0
   -2.2235    0.1444    1.7334 H   0  0  0  0  0  0  0  0  0  0  0  0
   -0.7284   -0.8925    2.0381 H   0  0  0  0  0  0  0  0  0  0  0  0
   -2.5693   -1.1386   -0.3887 H   0  0  0  0  0  0  0  0  0  0  0  0
   -0.9523   -2.0610   -0.1833 H   0  0  0  0  0  0  0  0  0  0  0  0
  1  2  1  0
  2  3  1  0
  3  4  1  0
  3  5  1  0
  5  6  1  0
  6  7  1  0
  2  8  1  0
  8  9  1  0
  9  2  1  0
  7  3  1  0
  1 10  1  0
  1 11  1  0
  1 12  1  0
  4 13  1  0
  4 14  1  0
  4 15  1  0
  5 16  1  0
  5 17  1  0
  6 18  1  0
  6 19  1  0
  8 20  1  0
  8 21  1  0
  9 22  1  0
  9 23  1  0
M  END
