
     RDKit          3D

 21 22  0  0  0  0  0  0  0  0999 V2000
   -1.6529    0.1909   -0.7229 C   0  0  0  0  0  0  0  0  0  0  0  0
   -0.5487   -0.1342    0.2846 C   0  0  0  0  0  0  0  0  0  0  0  0
   -0.9989    0.1086    1.6852 C   0  0  0  0  0  0  0  0  0  0  0  0
   -0.0387   -1.5383   -0.0090 C   0  0  0  0  0  0  0  0  0  0  0  0
    1.1642   -0.8759   -0.6766 C   0  0  0  0  0  0  0  0  0  0  0  0
    2.0533   -0.1556    0.2529 C   0  0  0  0  0  0  0  0  0  0  0  0
    0.7643    0.4876   -0.0453 C   0  0  0  0  0  0  0  0  0  0  0  0
    0.7975    1.6721   -0.9276 C   0  0  0  0  0  0  0  0  0  0  0  0
    0.5985    1.6312   -2.1298 O   0  0  0  0  0  0  0  0  0  0  0  0
   -1.5445    1.2269   -1.0790 H   0  0  0  0  0  0  0  0  0  0  0  0
   -1.6097   -0.4799   -1.6057 H   0  0  0  0  0  0  0  0  0  0  0  0
   -2.6455    0.0023   -0.2480 H   0  0  0  0  0  0  0  0  0  0  0  0
   -1.5431   -0.7211    2.1483 H   0  0  0  0  0  0  0  0  0  0  0  0
   -1.6904    0.9995    1.6632 H   0  0  0  0  0  0  0  0  0  0  0  0
   -0.1720    0.4018    2.3557 H   0  0  0  0  0  0  0  0  0  0  0  0
    0.2918   -2.0884    0.8990 H   0  0  0  0  0  0  0  0  0  0  0  0
   -0.6671   -2.1330   -0.6899 H   0  0  0  0  0  0  0  0  0  0  0  0
    1.2336   -0.8332   -1.7583 H   0  0  0  0  0  0  0  0  0  0  0  0
    2.2370   -0.6884    1.2294 H   0  0  0  0  0  0  0  0  0  0  0  0
    2.9554    0.2863   -0.1677 H   0  0  0  0  0  0  0  0  0  0  0  0
    1.0157    2.6406   -0.4586 H   0  0  0  0  0  0  0  0  0  0  0  0
  1  2  1  0
  2  3  1  0
  2  4  1  0
  4  5  1  0
  5  6  1  0
  6  7  1  0
  7  8  1  0
  8  9  2  0
  7  2  1  0
  7  5  1  0
  1 10  1  0
  1 11  1  0
  1 12  1  0
  3 13  1  0
  3 14  1  0
  3 15  1  0
  4 16  1  0
  4 17  1  0
  5 18  1  0
  6 19  1  0
  6 20  1  0
  8 21  1  0
M  END
