
     RDKit          3D

 19 21  0  0  0  0  0  0  0  0999 V2000
    1.9673   -0.1190    0.5916 C   0  0  0  0  0  0  0  0  0  0  0  0
    0.7548    0.0999   -0.2758 C   0  0  0  0  0  0  0  0  0  0  0  0
    0.9839    0.6197   -1.5291 O   0  0  0  0  0  0  0  0  0  0  0  0
   -0.2064   -1.0580   -0.2153 C   0  0  0  0  0  0  0  0  0  0  0  0
   -0.6485   -0.4702    1.1321 C   0  0  0  0  0  0  0  0  0  0  0  0
   -0.3732    0.8564    0.4170 C   0  0  0  0  0  0  0  0  0  0  0  0
   -1.4352    0.8615   -0.6297 C   0  0  0  0  0  0  0  0  0  0  0  0
   -1.1547    0.4725   -1.9335 O   0  0  0  0  0  0  0  0  0  0  0  0
   -1.3250   -0.6028   -1.1032 C   0  0  0  0  0  0  0  0  0  0  0  0
    2.1312   -1.2263    0.6279 H   0  0  0  0  0  0  0  0  0  0  0  0
    1.8263    0.2579    1.6331 H   0  0  0  0  0  0  0  0  0  0  0  0
    2.8970    0.3094    0.1411 H   0  0  0  0  0  0  0  0  0  0  0  0
    0.9847    1.6145   -1.4527 H   0  0  0  0  0  0  0  0  0  0  0  0
    0.1444   -2.0514   -0.2346 H   0  0  0  0  0  0  0  0  0  0  0  0
   -1.7258   -0.6732    1.2595 H   0  0  0  0  0  0  0  0  0  0  0  0
    0.0152   -0.6992    1.9617 H   0  0  0  0  0  0  0  0  0  0  0  0
   -0.1452    1.7045    0.9960 H   0  0  0  0  0  0  0  0  0  0  0  0
   -2.4244    1.2481   -0.3644 H   0  0  0  0  0  0  0  0  0  0  0  0
   -2.2664   -1.1442   -1.0216 H   0  0  0  0  0  0  0  0  0  0  0  0
  1  2  1  0
  2  3  1  0
  2  4  1  0
  4  5  1  0
  5  6  1  0
  6  7  1  0
  7  8  1  0
  8  9  1  0
  6  2  1  0
  9  7  1  0
  9  4  1  0
  1 10  1  0
  1 11  1  0
  1 12  1  0
  3 13  1  0
  4 14  1  0
  5 15  1  0
  5 16  1  0
  6 17  1  0
  7 18  1  0
  9 19  1  0
M  END
