
     RDKit          3D

 23 23  0  0  0  0  0  0  0  0999 V2000
   -2.1007   -0.2032   -0.8402 C   0  0  0  0  0  0  0  0  0  0  0  0
   -0.8377   -0.1926    0.0321 C   0  0  0  0  0  0  0  0  0  0  0  0
   -1.2367   -0.7615    1.3544 C   0  0  0  0  0  0  0  0  0  0  0  0
   -2.3489   -0.5174    1.7793 O   0  0  0  0  0  0  0  0  0  0  0  0
   -0.4062    1.1982    0.2193 C   0  0  0  0  0  0  0  0  0  0  0  0
    1.0365    1.4149    0.5249 C   0  0  0  0  0  0  0  0  0  0  0  0
    1.9767    0.5197   -0.1999 C   0  0  0  0  0  0  0  0  0  0  0  0
    1.5588   -0.9133   -0.1943 C   0  0  0  0  0  0  0  0  0  0  0  0
    0.1324   -1.1232   -0.5974 C   0  0  0  0  0  0  0  0  0  0  0  0
   -2.7974    0.5640   -0.5049 H   0  0  0  0  0  0  0  0  0  0  0  0
   -2.5472   -1.1982   -0.7643 H   0  0  0  0  0  0  0  0  0  0  0  0
   -1.7751   -0.0567   -1.9106 H   0  0  0  0  0  0  0  0  0  0  0  0
   -0.5196   -1.3793    1.9009 H   0  0  0  0  0  0  0  0  0  0  0  0
   -0.9845    1.6342    1.0878 H   0  0  0  0  0  0  0  0  0  0  0  0
   -0.7414    1.8063   -0.6596 H   0  0  0  0  0  0  0  0  0  0  0  0
    1.2810    2.4714    0.2258 H   0  0  0  0  0  0  0  0  0  0  0  0
    1.2408    1.3967    1.6340 H   0  0  0  0  0  0  0  0  0  0  0  0
    2.9711    0.5744    0.3311 H   0  0  0  0  0  0  0  0  0  0  0  0
    2.1910    0.8789   -1.2436 H   0  0  0  0  0  0  0  0  0  0  0  0
    2.1964   -1.4415   -0.9616 H   0  0  0  0  0  0  0  0  0  0  0  0
    1.7933   -1.3667    0.7979 H   0  0  0  0  0  0  0  0  0  0  0  0
   -0.1370   -2.1770   -0.2962 H   0  0  0  0  0  0  0  0  0  0  0  0
    0.0544   -1.1282   -1.7148 H   0  0  0  0  0  0  0  0  0  0  0  0
  1  2  1  0
  2  3  1  0
  3  4  2  0
  2  5  1  0
  5  6  1  0
  6  7  1  0
  7  8  1  0
  8  9  1  0
  9  2  1  0
  1 10  1  0
  1 11  1  0
  1 12  1  0
  3 13  1  0
  5 14  1  0
  5 15  1  0
  6 16  1  0
  6 17  1  0
  7 18  1  0
  7 19  1  0
  8 20  1  0
  8 21  1  0
  9 22  1  0
  9 23  1  0
M  END
