
     RDKit          3D

 16 16  0  0  0  0  0  0  0  0999 V2000
   -0.7508   -1.1411    0.5987 C   0  0  0  0  0  0  0  0  0  0  0  0
   -0.0739    0.0574    0.0166 C   0  0  0  0  0  0  0  0  0  0  0  0
    1.3085   -0.1716   -0.5356 C   0  0  0  0  0  0  0  0  0  0  0  0
    2.1917   -0.6358    0.4342 O   0  0  0  0  0  0  0  0  0  0  0  0
   -0.9393    0.7681   -1.0105 C   0  0  0  0  0  0  0  0  0  0  0  0
   -0.2994    1.9566   -0.5174 O   0  0  0  0  0  0  0  0  0  0  0  0
   -0.2607    1.3355    0.7104 C   0  0  0  0  0  0  0  0  0  0  0  0
   -0.3495    1.7234    1.8845 O   0  0  0  0  0  0  0  0  0  0  0  0
   -1.1975   -1.7167   -0.2395 H   0  0  0  0  0  0  0  0  0  0  0  0
   -1.5831   -0.8135    1.2629 H   0  0  0  0  0  0  0  0  0  0  0  0
   -0.0094   -1.7727    1.1023 H   0  0  0  0  0  0  0  0  0  0  0  0
    1.2245   -0.9856   -1.2991 H   0  0  0  0  0  0  0  0  0  0  0  0
    1.6632    0.7845   -0.9762 H   0  0  0  0  0  0  0  0  0  0  0  0
    1.8062   -0.6979    1.3234 H   0  0  0  0  0  0  0  0  0  0  0  0
   -0.7256    0.5413   -2.0530 H   0  0  0  0  0  0  0  0  0  0  0  0
   -2.0050    0.7680   -0.7016 H   0  0  0  0  0  0  0  0  0  0  0  0
  1  2  1  0
  2  3  1  0
  3  4  1  0
  2  5  1  0
  5  6  1  0
  6  7  1  0
  7  8  2  0
  7  2  1  0
  1  9  1  0
  1 10  1  0
  1 11  1  0
  3 12  1  0
  3 13  1  0
  4 14  1  0
  5 15  1  0
  5 16  1  0
M  END
