
     RDKit          3D

 21 22  0  0  0  0  0  0  0  0999 V2000
   -1.8290    0.9730   -0.9374 C   0  0  0  0  0  0  0  0  0  0  0  0
   -0.9687    0.1047   -0.0065 C   0  0  0  0  0  0  0  0  0  0  0  0
    0.2206    0.8306    0.5155 C   0  0  0  0  0  0  0  0  0  0  0  0
    1.0826    0.0961    1.3910 O   0  0  0  0  0  0  0  0  0  0  0  0
    1.5697    0.6930    0.1186 C   0  0  0  0  0  0  0  0  0  0  0  0
    2.1569   -0.4017   -0.7179 C   0  0  0  0  0  0  0  0  0  0  0  0
    3.2189   -0.9570    0.0356 O   0  0  0  0  0  0  0  0  0  0  0  0
   -1.7791   -0.6028    1.1161 C   0  0  0  0  0  0  0  0  0  0  0  0
   -1.1766   -1.3195   -0.0280 C   0  0  0  0  0  0  0  0  0  0  0  0
   -2.6150    0.3856   -1.4132 H   0  0  0  0  0  0  0  0  0  0  0  0
   -2.2773    1.8133   -0.3344 H   0  0  0  0  0  0  0  0  0  0  0  0
   -1.1286    1.4489   -1.6343 H   0  0  0  0  0  0  0  0  0  0  0  0
   -0.0729    1.7932    1.0168 H   0  0  0  0  0  0  0  0  0  0  0  0
    2.2839    1.5268    0.2889 H   0  0  0  0  0  0  0  0  0  0  0  0
    2.6012   -0.0535   -1.6569 H   0  0  0  0  0  0  0  0  0  0  0  0
    1.4843   -1.2269   -0.9442 H   0  0  0  0  0  0  0  0  0  0  0  0
    3.7373   -0.2273    0.4968 H   0  0  0  0  0  0  0  0  0  0  0  0
   -1.3022   -0.7144    2.0970 H   0  0  0  0  0  0  0  0  0  0  0  0
   -2.8588   -0.3642    1.1563 H   0  0  0  0  0  0  0  0  0  0  0  0
   -0.4259   -2.0894    0.2204 H   0  0  0  0  0  0  0  0  0  0  0  0
   -1.9212   -1.7082   -0.7802 H   0  0  0  0  0  0  0  0  0  0  0  0
  1  2  1  0
  2  3  1  0
  3  4  1  0
  4  5  1  0
  5  6  1  0
  6  7  1  0
  2  8  1  0
  8  9  1  0
  9  2  1  0
  5  3  1  0
  1 10  1  0
  1 11  1  0
  1 12  1  0
  3 13  1  0
  5 14  1  0
  6 15  1  0
  6 16  1  0
  7 17  1  0
  8 18  1  0
  8 19  1  0
  9 20  1  0
  9 21  1  0
M  END
