
     RDKit          3D

 21 22  0  0  0  0  0  0  0  0999 V2000
   -2.2363   -0.7367    0.6749 C   0  0  0  0  0  0  0  0  0  0  0  0
   -1.2381    0.3387    0.2370 C   0  0  0  0  0  0  0  0  0  0  0  0
   -1.8876    1.5512   -0.0006 O   0  0  0  0  0  0  0  0  0  0  0  0
    0.0424    0.3438    0.8151 C   0  0  0  0  0  0  0  0  0  0  0  0
    1.2566    1.1662    0.6339 C   0  0  0  0  0  0  0  0  0  0  0  0
    2.1228    0.3275   -0.3290 C   0  0  0  0  0  0  0  0  0  0  0  0
    1.8283   -1.0302   -0.2373 O   0  0  0  0  0  0  0  0  0  0  0  0
    0.5577   -1.3309   -0.7876 C   0  0  0  0  0  0  0  0  0  0  0  0
   -0.2284   -0.0859   -0.6687 C   0  0  0  0  0  0  0  0  0  0  0  0
   -1.6229   -1.6748    0.8099 H   0  0  0  0  0  0  0  0  0  0  0  0
   -2.9402   -0.9651   -0.1545 H   0  0  0  0  0  0  0  0  0  0  0  0
   -2.7287   -0.4743    1.6155 H   0  0  0  0  0  0  0  0  0  0  0  0
   -2.0317    1.6253   -0.9595 H   0  0  0  0  0  0  0  0  0  0  0  0
    0.2666   -0.4931    1.5449 H   0  0  0  0  0  0  0  0  0  0  0  0
    1.7953    1.4047    1.5504 H   0  0  0  0  0  0  0  0  0  0  0  0
    0.9644    2.0860    0.0467 H   0  0  0  0  0  0  0  0  0  0  0  0
    3.1649    0.4381    0.0351 H   0  0  0  0  0  0  0  0  0  0  0  0
    2.0895    0.7150   -1.3459 H   0  0  0  0  0  0  0  0  0  0  0  0
    0.1377   -2.1743   -0.1833 H   0  0  0  0  0  0  0  0  0  0  0  0
    0.6403   -1.6669   -1.8237 H   0  0  0  0  0  0  0  0  0  0  0  0
    0.0472    0.6357   -1.4733 H   0  0  0  0  0  0  0  0  0  0  0  0
  1  2  1  0
  2  3  1  0
  2  4  1  0
  4  5  1  0
  5  6  1  0
  6  7  1  0
  7  8  1  0
  8  9  1  0
  9  2  1  0
  9  4  1  0
  1 10  1  0
  1 11  1  0
  1 12  1  0
  3 13  1  0
  4 14  1  0
  5 15  1  0
  5 16  1  0
  6 17  1  0
  6 18  1  0
  8 19  1  0
  8 20  1  0
  9 21  1  0
M  END
