
     RDKit          3D

 21 21  0  0  0  0  0  0  0  0999 V2000
   -0.6479    1.1252    1.3876 C   0  0  0  0  0  0  0  0  0  0  0  0
   -0.5419   -0.0464    0.4311 C   0  0  0  0  0  0  0  0  0  0  0  0
    0.8481   -0.5344    0.1729 C   0  0  0  0  0  0  0  0  0  0  0  0
    0.8131   -1.4595   -0.8635 O   0  0  0  0  0  0  0  0  0  0  0  0
    1.8177    0.5655   -0.1656 C   0  0  0  0  0  0  0  0  0  0  0  0
    3.1100    0.0846   -0.3588 O   0  0  0  0  0  0  0  0  0  0  0  0
   -1.3784    0.2186   -0.7919 C   0  0  0  0  0  0  0  0  0  0  0  0
   -1.8655   -1.1580   -0.5025 C   0  0  0  0  0  0  0  0  0  0  0  0
   -1.4020   -1.0638    0.7936 O   0  0  0  0  0  0  0  0  0  0  0  0
   -0.1168    0.9697    2.3248 H   0  0  0  0  0  0  0  0  0  0  0  0
   -0.3570    2.0599    0.8571 H   0  0  0  0  0  0  0  0  0  0  0  0
   -1.7311    1.2469    1.6253 H   0  0  0  0  0  0  0  0  0  0  0  0
    1.2623   -1.0718    1.0560 H   0  0  0  0  0  0  0  0  0  0  0  0
    0.7793   -1.0226   -1.7455 H   0  0  0  0  0  0  0  0  0  0  0  0
    1.5143    1.0195   -1.1503 H   0  0  0  0  0  0  0  0  0  0  0  0
    1.8660    1.3622    0.5708 H   0  0  0  0  0  0  0  0  0  0  0  0
    3.4018   -0.4936    0.4154 H   0  0  0  0  0  0  0  0  0  0  0  0
   -2.1517    1.0022   -0.6282 H   0  0  0  0  0  0  0  0  0  0  0  0
   -0.8035    0.3349   -1.7371 H   0  0  0  0  0  0  0  0  0  0  0  0
   -1.4230   -1.9619   -1.1273 H   0  0  0  0  0  0  0  0  0  0  0  0
   -2.9937   -1.1771   -0.5639 H   0  0  0  0  0  0  0  0  0  0  0  0
  1  2  1  0
  2  3  1  0
  3  4  1  0
  3  5  1  0
  5  6  1  0
  2  7  1  0
  7  8  1  0
  8  9  1  0
  9  2  1  0
  1 10  1  0
  1 11  1  0
  1 12  1  0
  3 13  1  0
  4 14  1  0
  5 15  1  0
  5 16  1  0
  6 17  1  0
  7 18  1  0
  7 19  1  0
  8 20  1  0
  8 21  1  0
M  END
