
     RDKit          3D

 21 22  0  0  0  0  0  0  0  0999 V2000
    1.5963    0.2780    1.0625 C   0  0  0  0  0  0  0  0  0  0  0  0
    0.6411   -0.0825   -0.0629 C   0  0  0  0  0  0  0  0  0  0  0  0
    1.0083   -1.3681   -0.7004 C   0  0  0  0  0  0  0  0  0  0  0  0
    0.5500    1.1186   -1.0171 C   0  0  0  0  0  0  0  0  0  0  0  0
   -0.5269    1.6241   -0.1136 C   0  0  0  0  0  0  0  0  0  0  0  0
   -1.0142    2.6783    0.2474 O   0  0  0  0  0  0  0  0  0  0  0  0
   -0.7774    0.2240    0.1847 C   0  0  0  0  0  0  0  0  0  0  0  0
   -1.7196   -0.3589    1.0569 C   0  0  0  0  0  0  0  0  0  0  0  0
   -1.9163   -0.4492   -0.4241 C   0  0  0  0  0  0  0  0  0  0  0  0
    2.5382   -0.3280    0.9490 H   0  0  0  0  0  0  0  0  0  0  0  0
    1.1602    0.0578    2.0586 H   0  0  0  0  0  0  0  0  0  0  0  0
    1.8833    1.3345    1.0604 H   0  0  0  0  0  0  0  0  0  0  0  0
    1.4028   -2.0490    0.0997 H   0  0  0  0  0  0  0  0  0  0  0  0
    0.2143   -1.8927   -1.2291 H   0  0  0  0  0  0  0  0  0  0  0  0
    1.8367   -1.2077   -1.4233 H   0  0  0  0  0  0  0  0  0  0  0  0
    1.4520    1.7178   -1.0784 H   0  0  0  0  0  0  0  0  0  0  0  0
    0.0751    0.8427   -2.0040 H   0  0  0  0  0  0  0  0  0  0  0  0
   -1.5045   -1.2840    1.6387 H   0  0  0  0  0  0  0  0  0  0  0  0
   -2.4841    0.2737    1.5844 H   0  0  0  0  0  0  0  0  0  0  0  0
   -2.6757    0.2313   -0.9040 H   0  0  0  0  0  0  0  0  0  0  0  0
   -1.7398   -1.3606   -0.9853 H   0  0  0  0  0  0  0  0  0  0  0  0
  1  2  1  0
  2  3  1  0
  2  4  1  0
  4  5  1  0
  5  6  2  0
  5  7  1  0
  7  8  1  0
  8  9  1  0
  7  2  1  0
  9  7  1  0
  1 10  1  0
  1 11  1  0
  1 12  1  0
  3 13  1  0
  3 14  1  0
  3 15  1  0
  4 16  1  0
  4 17  1  0
  8 18  1  0
  8 19  1  0
  9 20  1  0
  9 21  1  0
M  END
