
     RDKit          3D

 21 23  0  0  0  0  0  0  0  0999 V2000
   -0.3834    1.8053    0.0884 C   0  0  0  0  0  0  0  0  0  0  0  0
   -0.7073    0.3419    0.2727 C   0  0  0  0  0  0  0  0  0  0  0  0
   -2.2087    0.1001    0.3320 C   0  0  0  0  0  0  0  0  0  0  0  0
   -2.4399   -1.2839    0.5048 O   0  0  0  0  0  0  0  0  0  0  0  0
    0.1091   -0.7219   -0.3117 C   0  0  0  0  0  0  0  0  0  0  0  0
    1.5739   -0.8760   -0.1903 C   0  0  0  0  0  0  0  0  0  0  0  0
    2.4580    0.1990    0.3011 C   0  0  0  0  0  0  0  0  0  0  0  0
    1.5725   -0.4257    1.2778 C   0  0  0  0  0  0  0  0  0  0  0  0
    0.0914   -0.4904    1.1903 C   0  0  0  0  0  0  0  0  0  0  0  0
    0.1659    2.1764    1.0022 H   0  0  0  0  0  0  0  0  0  0  0  0
   -1.2863    2.4438    0.0228 H   0  0  0  0  0  0  0  0  0  0  0  0
    0.1955    2.0038   -0.8290 H   0  0  0  0  0  0  0  0  0  0  0  0
   -2.6901    0.4816   -0.5687 H   0  0  0  0  0  0  0  0  0  0  0  0
   -2.5598    0.5812    1.2726 H   0  0  0  0  0  0  0  0  0  0  0  0
   -2.9410   -1.6495   -0.2605 H   0  0  0  0  0  0  0  0  0  0  0  0
   -0.4303   -1.5970   -0.7284 H   0  0  0  0  0  0  0  0  0  0  0  0
    2.0047   -1.8900   -0.3251 H   0  0  0  0  0  0  0  0  0  0  0  0
    2.3355    1.2624   -0.0344 H   0  0  0  0  0  0  0  0  0  0  0  0
    3.5366   -0.0566    0.3593 H   0  0  0  0  0  0  0  0  0  0  0  0
    2.0300   -1.1009    2.0314 H   0  0  0  0  0  0  0  0  0  0  0  0
   -0.4264   -1.3038    1.7409 H   0  0  0  0  0  0  0  0  0  0  0  0
  1  2  1  0
  2  3  1  0
  3  4  1  0
  2  5  1  0
  5  6  1  0
  6  7  1  0
  7  8  1  0
  8  9  1  0
  9  2  1  0
  9  5  1  0
  8  6  1  0
  1 10  1  0
  1 11  1  0
  1 12  1  0
  3 13  1  0
  3 14  1  0
  4 15  1  0
  5 16  1  0
  6 17  1  0
  7 18  1  0
  7 19  1  0
  8 20  1  0
  9 21  1  0
M  END
