
     RDKit          3D

 21 21  0  0  0  0  0  0  0  0999 V2000
    1.5773   -0.6429    0.9534 C   0  0  0  0  0  0  0  0  0  0  0  0
    0.5173   -0.0595    0.0656 C   0  0  0  0  0  0  0  0  0  0  0  0
    1.1317    0.9899   -0.8354 C   0  0  0  0  0  0  0  0  0  0  0  0
   -0.1160   -1.1877   -0.7116 C   0  0  0  0  0  0  0  0  0  0  0  0
   -1.4838   -0.6281   -1.0182 C   0  0  0  0  0  0  0  0  0  0  0  0
   -1.8649   -0.0693    0.2905 C   0  0  0  0  0  0  0  0  0  0  0  0
   -2.9574   -0.0873    0.7751 O   0  0  0  0  0  0  0  0  0  0  0  0
   -0.6451    0.5078    0.8732 C   0  0  0  0  0  0  0  0  0  0  0  0
   -0.6689    1.8931    0.6248 O   0  0  0  0  0  0  0  0  0  0  0  0
    1.1379   -1.1053    1.8819 H   0  0  0  0  0  0  0  0  0  0  0  0
    2.0682   -1.5039    0.4278 H   0  0  0  0  0  0  0  0  0  0  0  0
    2.3861    0.0618    1.2049 H   0  0  0  0  0  0  0  0  0  0  0  0
    0.3708    1.7464   -1.0944 H   0  0  0  0  0  0  0  0  0  0  0  0
    1.5239    0.5602   -1.7794 H   0  0  0  0  0  0  0  0  0  0  0  0
    1.9558    1.5113   -0.2843 H   0  0  0  0  0  0  0  0  0  0  0  0
   -0.2567   -2.0443   -0.0282 H   0  0  0  0  0  0  0  0  0  0  0  0
    0.4585   -1.4482   -1.6193 H   0  0  0  0  0  0  0  0  0  0  0  0
   -2.1821   -1.4093   -1.3805 H   0  0  0  0  0  0  0  0  0  0  0  0
   -1.4335    0.2264   -1.7362 H   0  0  0  0  0  0  0  0  0  0  0  0
   -0.5288    0.3309    1.9555 H   0  0  0  0  0  0  0  0  0  0  0  0
   -0.9902    2.3580    1.4349 H   0  0  0  0  0  0  0  0  0  0  0  0
  1  2  1  0
  2  3  1  0
  2  4  1  0
  4  5  1  0
  5  6  1  0
  6  7  2  0
  6  8  1  0
  8  9  1  0
  8  2  1  0
  1 10  1  0
  1 11  1  0
  1 12  1  0
  3 13  1  0
  3 14  1  0
  3 15  1  0
  4 16  1  0
  4 17  1  0
  5 18  1  0
  5 19  1  0
  8 20  1  0
  9 21  1  0
M  END
