
     RDKit          3D

 21 23  0  0  0  0  0  0  0  0999 V2000
   -2.4340   -0.0465   -0.1349 C   0  0  0  0  0  0  0  0  0  0  0  0
   -1.0329   -0.1615    0.2791 C   0  0  0  0  0  0  0  0  0  0  0  0
   -0.8985   -0.7155    1.5444 O   0  0  0  0  0  0  0  0  0  0  0  0
   -0.0492   -0.7764   -0.6750 C   0  0  0  0  0  0  0  0  0  0  0  0
   -0.1346    0.5173   -1.4558 C   0  0  0  0  0  0  0  0  0  0  0  0
   -0.0875    0.9547   -0.0166 C   0  0  0  0  0  0  0  0  0  0  0  0
    0.9788   -0.0783    0.0893 C   0  0  0  0  0  0  0  0  0  0  0  0
    1.7795   -0.4401    1.1775 C   0  0  0  0  0  0  0  0  0  0  0  0
    2.3707    0.0836   -0.1755 C   0  0  0  0  0  0  0  0  0  0  0  0
   -2.7862   -0.9843   -0.6544 H   0  0  0  0  0  0  0  0  0  0  0  0
   -3.0711    0.1005    0.7778 H   0  0  0  0  0  0  0  0  0  0  0  0
   -2.6850    0.7803   -0.8149 H   0  0  0  0  0  0  0  0  0  0  0  0
   -1.3239   -0.0983    2.2051 H   0  0  0  0  0  0  0  0  0  0  0  0
   -0.0839   -1.6993   -1.0668 H   0  0  0  0  0  0  0  0  0  0  0  0
    0.8314    0.7134   -1.9489 H   0  0  0  0  0  0  0  0  0  0  0  0
   -1.0298    0.7043   -2.0184 H   0  0  0  0  0  0  0  0  0  0  0  0
   -0.0941    1.8925    0.3326 H   0  0  0  0  0  0  0  0  0  0  0  0
    1.9452    0.2586    2.0485 H   0  0  0  0  0  0  0  0  0  0  0  0
    2.0835   -1.4648    1.4137 H   0  0  0  0  0  0  0  0  0  0  0  0
    2.8126    1.1108   -0.1207 H   0  0  0  0  0  0  0  0  0  0  0  0
    2.9090   -0.6510   -0.7862 H   0  0  0  0  0  0  0  0  0  0  0  0
  1  2  1  0
  2  3  1  0
  2  4  1  0
  4  5  1  0
  5  6  1  0
  6  7  1  0
  7  8  1  0
  8  9  1  0
  6  2  1  0
  9  7  1  0
  7  4  1  0
  1 10  1  0
  1 11  1  0
  1 12  1  0
  3 13  1  0
  4 14  1  0
  5 15  1  0
  5 16  1  0
  6 17  1  0
  8 18  1  0
  8 19  1  0
  9 20  1  0
  9 21  1  0
M  END
