
     RDKit          3D

 23 25  0  0  0  0  0  0  0  0999 V2000
   -2.0627    0.7745   -0.7859 C   0  0  0  0  0  0  0  0  0  0  0  0
   -1.0747    0.1612    0.2171 C   0  0  0  0  0  0  0  0  0  0  0  0
    0.3317    0.6177    0.0016 C   0  0  0  0  0  0  0  0  0  0  0  0
    0.8788    0.2667   -1.3762 C   0  0  0  0  0  0  0  0  0  0  0  0
    1.9976   -0.4853   -0.7187 C   0  0  0  0  0  0  0  0  0  0  0  0
    2.8121    0.2470    0.3161 C   0  0  0  0  0  0  0  0  0  0  0  0
    1.4222   -0.1769    0.6110 C   0  0  0  0  0  0  0  0  0  0  0  0
   -1.3593   -1.2645    0.5416 C   0  0  0  0  0  0  0  0  0  0  0  0
   -1.6216   -0.1585    1.5446 C   0  0  0  0  0  0  0  0  0  0  0  0
   -2.0336    0.1532   -1.7152 H   0  0  0  0  0  0  0  0  0  0  0  0
   -3.0709    0.8272   -0.3741 H   0  0  0  0  0  0  0  0  0  0  0  0
   -1.6941    1.7796   -1.0938 H   0  0  0  0  0  0  0  0  0  0  0  0
    0.4457    1.7016    0.2553 H   0  0  0  0  0  0  0  0  0  0  0  0
    1.2538    1.1515   -1.9176 H   0  0  0  0  0  0  0  0  0  0  0  0
    0.1878   -0.3776   -1.9551 H   0  0  0  0  0  0  0  0  0  0  0  0
    2.2379   -1.5161   -0.9895 H   0  0  0  0  0  0  0  0  0  0  0  0
    3.6284   -0.2976    0.7953 H   0  0  0  0  0  0  0  0  0  0  0  0
    2.9786    1.3284    0.0830 H   0  0  0  0  0  0  0  0  0  0  0  0
    1.2633   -0.9259    1.3886 H   0  0  0  0  0  0  0  0  0  0  0  0
   -2.2779   -1.7452    0.1405 H   0  0  0  0  0  0  0  0  0  0  0  0
   -0.5388   -1.9716    0.7985 H   0  0  0  0  0  0  0  0  0  0  0  0
   -1.0047   -0.1789    2.4608 H   0  0  0  0  0  0  0  0  0  0  0  0
   -2.6996    0.0894    1.7720 H   0  0  0  0  0  0  0  0  0  0  0  0
  1  2  1  0
  2  3  1  0
  3  4  1  0
  4  5  1  0
  5  6  1  0
  6  7  1  0
  2  8  1  0
  8  9  1  0
  9  2  1  0
  7  3  1  0
  7  5  1  0
  1 10  1  0
  1 11  1  0
  1 12  1  0
  3 13  1  0
  4 14  1  0
  4 15  1  0
  5 16  1  0
  6 17  1  0
  6 18  1  0
  7 19  1  0
  8 20  1  0
  8 21  1  0
  9 22  1  0
  9 23  1  0
M  END
