
     RDKit          3D

 21 22  0  0  0  0  0  0  0  0999 V2000
    1.9804   -0.6455    0.6500 C   0  0  0  0  0  0  0  0  0  0  0  0
    1.2179   -0.0669   -0.5045 C   0  0  0  0  0  0  0  0  0  0  0  0
    1.9962    0.0131   -1.6852 O   0  0  0  0  0  0  0  0  0  0  0  0
    0.3041    1.0775   -0.3432 C   0  0  0  0  0  0  0  0  0  0  0  0
   -0.3735    1.4095    0.9399 C   0  0  0  0  0  0  0  0  0  0  0  0
   -1.6940    0.6584    0.8129 C   0  0  0  0  0  0  0  0  0  0  0  0
   -1.1761   -0.7008    0.3226 C   0  0  0  0  0  0  0  0  0  0  0  0
   -2.3121   -1.3308   -0.2278 O   0  0  0  0  0  0  0  0  0  0  0  0
   -0.2028   -0.3390   -0.7312 C   0  0  0  0  0  0  0  0  0  0  0  0
    3.0738   -0.5216    0.5088 H   0  0  0  0  0  0  0  0  0  0  0  0
    1.7383   -0.1612    1.6207 H   0  0  0  0  0  0  0  0  0  0  0  0
    1.8116   -1.7329    0.7938 H   0  0  0  0  0  0  0  0  0  0  0  0
    1.9474   -0.8098   -2.1989 H   0  0  0  0  0  0  0  0  0  0  0  0
    0.1760    1.8392   -1.1414 H   0  0  0  0  0  0  0  0  0  0  0  0
    0.1154    1.0550    1.8435 H   0  0  0  0  0  0  0  0  0  0  0  0
   -0.5283    2.5016    1.0293 H   0  0  0  0  0  0  0  0  0  0  0  0
   -2.2121    0.5879    1.7660 H   0  0  0  0  0  0  0  0  0  0  0  0
   -2.3479    1.1157    0.0502 H   0  0  0  0  0  0  0  0  0  0  0  0
   -0.7760   -1.2543    1.1750 H   0  0  0  0  0  0  0  0  0  0  0  0
   -2.1516   -2.2525   -0.4797 H   0  0  0  0  0  0  0  0  0  0  0  0
   -0.5868   -0.4425   -1.7821 H   0  0  0  0  0  0  0  0  0  0  0  0
  1  2  1  0
  2  3  1  0
  2  4  1  0
  4  5  1  0
  5  6  1  0
  6  7  1  0
  7  8  1  0
  7  9  1  0
  9  2  1  0
  9  4  1  0
  1 10  1  0
  1 11  1  0
  1 12  1  0
  3 13  1  0
  4 14  1  0
  5 15  1  0
  5 16  1  0
  6 17  1  0
  6 18  1  0
  7 19  1  0
  8 20  1  0
  9 21  1  0
M  END
