
     RDKit          3D

 21 22  0  0  0  0  0  0  0  0999 V2000
   -2.3058   -0.1955    0.5990 C   0  0  0  0  0  0  0  0  0  0  0  0
   -1.2332    0.3932   -0.2613 C   0  0  0  0  0  0  0  0  0  0  0  0
   -1.7527    1.2935   -1.1778 O   0  0  0  0  0  0  0  0  0  0  0  0
   -0.0864    0.9174    0.5807 C   0  0  0  0  0  0  0  0  0  0  0  0
    0.7832   -0.2136    0.0871 C   0  0  0  0  0  0  0  0  0  0  0  0
    2.2047    0.0426   -0.2709 C   0  0  0  0  0  0  0  0  0  0  0  0
    2.9496    0.5275    0.7859 O   0  0  0  0  0  0  0  0  0  0  0  0
    0.3018   -1.5965    0.0521 C   0  0  0  0  0  0  0  0  0  0  0  0
   -0.2586   -0.5782   -0.8684 C   0  0  0  0  0  0  0  0  0  0  0  0
   -2.3870    0.3407    1.5894 H   0  0  0  0  0  0  0  0  0  0  0  0
   -2.1715   -1.2538    0.8339 H   0  0  0  0  0  0  0  0  0  0  0  0
   -3.2900   -0.0960    0.0896 H   0  0  0  0  0  0  0  0  0  0  0  0
   -2.2140    2.0322   -0.6981 H   0  0  0  0  0  0  0  0  0  0  0  0
   -0.2576    0.9698    1.6554 H   0  0  0  0  0  0  0  0  0  0  0  0
    0.2668    1.9074    0.1737 H   0  0  0  0  0  0  0  0  0  0  0  0
    2.6594   -0.9112   -0.6056 H   0  0  0  0  0  0  0  0  0  0  0  0
    2.2705    0.7195   -1.1718 H   0  0  0  0  0  0  0  0  0  0  0  0
    3.8943    0.6072    0.5095 H   0  0  0  0  0  0  0  0  0  0  0  0
   -0.2578   -1.9601    0.9334 H   0  0  0  0  0  0  0  0  0  0  0  0
    0.9517   -2.3470   -0.4070 H   0  0  0  0  0  0  0  0  0  0  0  0
   -0.0675   -0.5990   -1.9398 H   0  0  0  0  0  0  0  0  0  0  0  0
  1  2  1  0
  2  3  1  0
  2  4  1  0
  4  5  1  0
  5  6  1  0
  6  7  1  0
  5  8  1  0
  8  9  1  0
  9  2  1  0
  9  5  1  0
  1 10  1  0
  1 11  1  0
  1 12  1  0
  3 13  1  0
  4 14  1  0
  4 15  1  0
  6 16  1  0
  6 17  1  0
  7 18  1  0
  8 19  1  0
  8 20  1  0
  9 21  1  0
M  END
