
     RDKit          3D

 19 19  0  0  0  0  0  0  0  0999 V2000
   -1.4106    0.6508    0.9549 C   0  0  0  0  0  0  0  0  0  0  0  0
   -0.5651   -0.1398   -0.0061 C   0  0  0  0  0  0  0  0  0  0  0  0
   -1.3102   -0.6411   -1.2146 C   0  0  0  0  0  0  0  0  0  0  0  0
    0.2178   -1.1791    0.7130 C   0  0  0  0  0  0  0  0  0  0  0  0
   -0.1252   -2.0771    1.4583 O   0  0  0  0  0  0  0  0  0  0  0  0
    1.4784   -0.6477    0.1433 C   0  0  0  0  0  0  0  0  0  0  0  0
    2.4279   -0.2427    1.0475 O   0  0  0  0  0  0  0  0  0  0  0  0
    0.7223    0.5322   -0.4372 C   0  0  0  0  0  0  0  0  0  0  0  0
    0.9741    1.7225    0.2562 O   0  0  0  0  0  0  0  0  0  0  0  0
   -1.2301    0.3629    2.0165 H   0  0  0  0  0  0  0  0  0  0  0  0
   -2.4824    0.3548    0.7628 H   0  0  0  0  0  0  0  0  0  0  0  0
   -1.2893    1.7368    0.8701 H   0  0  0  0  0  0  0  0  0  0  0  0
   -1.3545   -1.7570   -1.1571 H   0  0  0  0  0  0  0  0  0  0  0  0
   -2.3243   -0.1918   -1.2159 H   0  0  0  0  0  0  0  0  0  0  0  0
   -0.7818   -0.4031   -2.1694 H   0  0  0  0  0  0  0  0  0  0  0  0
    1.9144   -1.3179   -0.6246 H   0  0  0  0  0  0  0  0  0  0  0  0
    3.1459    0.2215    0.5497 H   0  0  0  0  0  0  0  0  0  0  0  0
    0.8845    0.5858   -1.5316 H   0  0  0  0  0  0  0  0  0  0  0  0
    1.1083    2.4300   -0.4158 H   0  0  0  0  0  0  0  0  0  0  0  0
  1  2  1  0
  2  3  1  0
  2  4  1  0
  4  5  2  0
  4  6  1  0
  6  7  1  0
  6  8  1  0
  8  9  1  0
  8  2  1  0
  1 10  1  0
  1 11  1  0
  1 12  1  0
  3 13  1  0
  3 14  1  0
  3 15  1  0
  6 16  1  0
  7 17  1  0
  8 18  1  0
  9 19  1  0
M  END
