
     RDKit          3D

 25 25  0  0  0  0  0  0  0  0999 V2000
   -1.2246    0.6315    1.2906 C   0  0  0  0  0  0  0  0  0  0  0  0
   -0.8104   -0.1526    0.0815 C   0  0  0  0  0  0  0  0  0  0  0  0
    0.6259   -0.5647    0.0325 C   0  0  0  0  0  0  0  0  0  0  0  0
    1.5944    0.5705    0.0527 C   0  0  0  0  0  0  0  0  0  0  0  0
    3.0000   -0.0445   -0.0031 C   0  0  0  0  0  0  0  0  0  0  0  0
    3.9689    0.9716    0.0127 O   0  0  0  0  0  0  0  0  0  0  0  0
   -1.3720    0.4537   -1.1747 C   0  0  0  0  0  0  0  0  0  0  0  0
   -2.6453   -0.3374   -0.8809 C   0  0  0  0  0  0  0  0  0  0  0  0
   -1.7269   -1.3354   -0.1639 C   0  0  0  0  0  0  0  0  0  0  0  0
   -0.4296    0.5369    2.0763 H   0  0  0  0  0  0  0  0  0  0  0  0
   -1.3316    1.7158    1.0813 H   0  0  0  0  0  0  0  0  0  0  0  0
   -2.1672    0.2097    1.7301 H   0  0  0  0  0  0  0  0  0  0  0  0
    0.8456   -1.1990   -0.8489 H   0  0  0  0  0  0  0  0  0  0  0  0
    0.8199   -1.1770    0.9578 H   0  0  0  0  0  0  0  0  0  0  0  0
    1.4314    1.2136   -0.8113 H   0  0  0  0  0  0  0  0  0  0  0  0
    1.5080    1.1775    0.9795 H   0  0  0  0  0  0  0  0  0  0  0  0
    3.1770   -0.7010    0.8630 H   0  0  0  0  0  0  0  0  0  0  0  0
    3.0954   -0.6584   -0.9095 H   0  0  0  0  0  0  0  0  0  0  0  0
    3.9351    1.4279    0.8893 H   0  0  0  0  0  0  0  0  0  0  0  0
   -0.9129    0.0784   -2.1187 H   0  0  0  0  0  0  0  0  0  0  0  0
   -1.5422    1.5475   -1.1384 H   0  0  0  0  0  0  0  0  0  0  0  0
   -3.2548    0.1930   -0.1239 H   0  0  0  0  0  0  0  0  0  0  0  0
   -3.1667   -0.7304   -1.7495 H   0  0  0  0  0  0  0  0  0  0  0  0
   -1.2654   -2.0613   -0.8720 H   0  0  0  0  0  0  0  0  0  0  0  0
   -2.1521   -1.7663    0.7474 H   0  0  0  0  0  0  0  0  0  0  0  0
  1  2  1  0
  2  3  1  0
  3  4  1  0
  4  5  1  0
  5  6  1  0
  2  7  1  0
  7  8  1  0
  8  9  1  0
  9  2  1  0
  1 10  1  0
  1 11  1  0
  1 12  1  0
  3 13  1  0
  3 14  1  0
  4 15  1  0
  4 16  1  0
  5 17  1  0
  5 18  1  0
  6 19  1  0
  7 20  1  0
  7 21  1  0
  8 22  1  0
  8 23  1  0
  9 24  1  0
  9 25  1  0
M  END
