
     RDKit          3D

 21 22  0  0  0  0  0  0  0  0999 V2000
    2.3085   -0.0743   -0.3978 C   0  0  0  0  0  0  0  0  0  0  0  0
    0.9211   -0.4981   -0.0159 C   0  0  0  0  0  0  0  0  0  0  0  0
    0.8583   -1.7240    0.6748 O   0  0  0  0  0  0  0  0  0  0  0  0
   -0.0662   -0.5583   -1.1722 C   0  0  0  0  0  0  0  0  0  0  0  0
   -1.0042    0.2635   -0.3096 C   0  0  0  0  0  0  0  0  0  0  0  0
   -2.2525   -0.3267    0.2306 C   0  0  0  0  0  0  0  0  0  0  0  0
   -0.5653    1.6435   -0.0396 C   0  0  0  0  0  0  0  0  0  0  0  0
    0.0879    0.5312    0.6523 C   0  0  0  0  0  0  0  0  0  0  0  0
   -0.0866    0.4404    2.0166 O   0  0  0  0  0  0  0  0  0  0  0  0
    2.6771    0.5909    0.4347 H   0  0  0  0  0  0  0  0  0  0  0  0
    2.2716    0.5880   -1.3026 H   0  0  0  0  0  0  0  0  0  0  0  0
    3.0045   -0.9197   -0.5186 H   0  0  0  0  0  0  0  0  0  0  0  0
    0.5384   -2.4528    0.0704 H   0  0  0  0  0  0  0  0  0  0  0  0
   -0.4143   -1.5624   -1.4388 H   0  0  0  0  0  0  0  0  0  0  0  0
    0.3021    0.0720   -2.0284 H   0  0  0  0  0  0  0  0  0  0  0  0
   -2.2478   -1.4247   -0.0354 H   0  0  0  0  0  0  0  0  0  0  0  0
   -3.1813    0.1030   -0.2269 H   0  0  0  0  0  0  0  0  0  0  0  0
   -2.3398   -0.3034    1.3351 H   0  0  0  0  0  0  0  0  0  0  0  0
   -0.0299    2.1459   -0.8833 H   0  0  0  0  0  0  0  0  0  0  0  0
   -1.2398    2.2748    0.5370 H   0  0  0  0  0  0  0  0  0  0  0  0
    0.4583    1.1912    2.4177 H   0  0  0  0  0  0  0  0  0  0  0  0
  1  2  1  0
  2  3  1  0
  2  4  1  0
  4  5  1  0
  5  6  1  0
  5  7  1  0
  7  8  1  0
  8  9  1  0
  8  2  1  0
  8  5  1  0
  1 10  1  0
  1 11  1  0
  1 12  1  0
  3 13  1  0
  4 14  1  0
  4 15  1  0
  6 16  1  0
  6 17  1  0
  6 18  1  0
  7 19  1  0
  7 20  1  0
  9 21  1  0
M  END
