
     RDKit          3D

 20 21  0  0  0  0  0  0  0  0999 V2000
    0.7366   -0.5895    1.5093 C   0  0  0  0  0  0  0  0  0  0  0  0
    0.5941    0.0582    0.1337 C   0  0  0  0  0  0  0  0  0  0  0  0
   -0.8119    0.1296   -0.3779 C   0  0  0  0  0  0  0  0  0  0  0  0
   -1.8169    0.9016    0.4415 C   0  0  0  0  0  0  0  0  0  0  0  0
   -1.3971   -1.0406   -1.1430 C   0  0  0  0  0  0  0  0  0  0  0  0
   -0.9252    0.1274   -1.7624 O   0  0  0  0  0  0  0  0  0  0  0  0
    1.5885    1.0761   -0.2828 C   0  0  0  0  0  0  0  0  0  0  0  0
    1.6749   -0.3147   -0.8470 C   0  0  0  0  0  0  0  0  0  0  0  0
    0.8941    0.2017    2.2858 H   0  0  0  0  0  0  0  0  0  0  0  0
   -0.1497   -1.2051    1.7172 H   0  0  0  0  0  0  0  0  0  0  0  0
    1.6211   -1.2377    1.5513 H   0  0  0  0  0  0  0  0  0  0  0  0
   -2.0824    1.8710    0.0022 H   0  0  0  0  0  0  0  0  0  0  0  0
   -2.7404    0.2785    0.6075 H   0  0  0  0  0  0  0  0  0  0  0  0
   -1.3892    1.0459    1.4587 H   0  0  0  0  0  0  0  0  0  0  0  0
   -2.4851   -1.1409   -1.1751 H   0  0  0  0  0  0  0  0  0  0  0  0
   -0.7504   -1.9342   -1.1389 H   0  0  0  0  0  0  0  0  0  0  0  0
    1.2222    1.8290   -1.0087 H   0  0  0  0  0  0  0  0  0  0  0  0
    2.3862    1.4285    0.3893 H   0  0  0  0  0  0  0  0  0  0  0  0
    2.4965   -0.9663   -0.4883 H   0  0  0  0  0  0  0  0  0  0  0  0
    1.3340   -0.5184   -1.8724 H   0  0  0  0  0  0  0  0  0  0  0  0
  1  2  1  0
  2  3  1  0
  3  4  1  0
  3  5  1  0
  5  6  1  0
  2  7  1  0
  7  8  1  0
  8  2  1  0
  6  3  1  0
  1  9  1  0
  1 10  1  0
  1 11  1  0
  4 12  1  0
  4 13  1  0
  4 14  1  0
  5 15  1  0
  5 16  1  0
  7 17  1  0
  7 18  1  0
  8 19  1  0
  8 20  1  0
M  END
