
     RDKit          3D

 21 21  0  0  0  0  0  0  0  0999 V2000
   -1.7731   -0.2825   -1.5843 C   0  0  0  0  0  0  0  0  0  0  0  0
   -1.0236    0.1551   -0.3216 C   0  0  0  0  0  0  0  0  0  0  0  0
    0.4368   -0.0648   -0.4279 C   0  0  0  0  0  0  0  0  0  0  0  0
    1.2560    0.3260    0.7188 C   0  0  0  0  0  0  0  0  0  0  0  0
    0.8383    0.8225    1.7218 O   0  0  0  0  0  0  0  0  0  0  0  0
    2.7395    0.0750    0.6075 C   0  0  0  0  0  0  0  0  0  0  0  0
    3.0916   -0.4962   -0.5900 O   0  0  0  0  0  0  0  0  0  0  0  0
   -1.6375   -0.3948    0.9974 C   0  0  0  0  0  0  0  0  0  0  0  0
   -1.6915    1.0795    0.5672 C   0  0  0  0  0  0  0  0  0  0  0  0
   -1.3105   -1.1698   -2.0276 H   0  0  0  0  0  0  0  0  0  0  0  0
   -2.8326   -0.4036   -1.3263 H   0  0  0  0  0  0  0  0  0  0  0  0
   -1.6246    0.5566   -2.3088 H   0  0  0  0  0  0  0  0  0  0  0  0
    0.8670    0.4070   -1.3592 H   0  0  0  0  0  0  0  0  0  0  0  0
    0.6196   -1.1695   -0.5899 H   0  0  0  0  0  0  0  0  0  0  0  0
    3.0450   -0.6393    1.4140 H   0  0  0  0  0  0  0  0  0  0  0  0
    3.2735    1.0280    0.8173 H   0  0  0  0  0  0  0  0  0  0  0  0
    3.1874   -1.4723   -0.5426 H   0  0  0  0  0  0  0  0  0  0  0  0
   -2.5579   -0.9986    0.8516 H   0  0  0  0  0  0  0  0  0  0  0  0
   -0.9775   -0.5925    1.8400 H   0  0  0  0  0  0  0  0  0  0  0  0
   -2.7245    1.4035    0.2803 H   0  0  0  0  0  0  0  0  0  0  0  0
   -1.2014    1.8304    1.2138 H   0  0  0  0  0  0  0  0  0  0  0  0
  1  2  1  0
  2  3  1  0
  3  4  1  0
  4  5  2  0
  4  6  1  0
  6  7  1  0
  2  8  1  0
  8  9  1  0
  9  2  1  0
  1 10  1  0
  1 11  1  0
  1 12  1  0
  3 13  1  0
  3 14  1  0
  6 15  1  0
  6 16  1  0
  7 17  1  0
  8 18  1  0
  8 19  1  0
  9 20  1  0
  9 21  1  0
M  END
