
     RDKit          3D

 17 17  0  0  0  0  0  0  0  0999 V2000
   -2.0929    0.9128   -0.0910 C   0  0  0  0  0  0  0  0  0  0  0  0
   -0.9667   -0.0049    0.3287 C   0  0  0  0  0  0  0  0  0  0  0  0
    0.4069    0.4720    0.0476 C   0  0  0  0  0  0  0  0  0  0  0  0
    0.5505    1.6103   -0.3358 O   0  0  0  0  0  0  0  0  0  0  0  0
    1.6046   -0.3830    0.2167 C   0  0  0  0  0  0  0  0  0  0  0  0
    2.8521    0.3285   -0.1495 C   0  0  0  0  0  0  0  0  0  0  0  0
    2.8822    1.4747   -0.5479 O   0  0  0  0  0  0  0  0  0  0  0  0
   -1.2237   -1.3753    0.6281 C   0  0  0  0  0  0  0  0  0  0  0  0
   -1.2056   -0.4081    1.7375 O   0  0  0  0  0  0  0  0  0  0  0  0
   -2.1893    1.7691    0.6245 H   0  0  0  0  0  0  0  0  0  0  0  0
   -3.0784    0.4038   -0.0873 H   0  0  0  0  0  0  0  0  0  0  0  0
   -1.9369    1.3295   -1.1077 H   0  0  0  0  0  0  0  0  0  0  0  0
    1.5023   -1.3108   -0.3518 H   0  0  0  0  0  0  0  0  0  0  0  0
    1.7495   -0.6879    1.2879 H   0  0  0  0  0  0  0  0  0  0  0  0
    3.7876   -0.2112   -0.0533 H   0  0  0  0  0  0  0  0  0  0  0  0
   -0.4220   -2.0969    0.7963 H   0  0  0  0  0  0  0  0  0  0  0  0
   -2.2202   -1.8227    0.4932 H   0  0  0  0  0  0  0  0  0  0  0  0
  1  2  1  0
  2  3  1  0
  3  4  2  0
  3  5  1  0
  5  6  1  0
  6  7  2  0
  2  8  1  0
  8  9  1  0
  9  2  1  0
  1 10  1  0
  1 11  1  0
  1 12  1  0
  5 13  1  0
  5 14  1  0
  6 15  1  0
  8 16  1  0
  8 17  1  0
M  END
