
     RDKit          3D

 19 20  0  0  0  0  0  0  0  0999 V2000
   -1.7855   -0.7224   -0.0883 C   0  0  0  0  0  0  0  0  0  0  0  0
   -0.5517    0.1390   -0.1410 C   0  0  0  0  0  0  0  0  0  0  0  0
   -0.9399    1.5676   -0.4937 C   0  0  0  0  0  0  0  0  0  0  0  0
    0.4550   -0.4595   -1.0440 C   0  0  0  0  0  0  0  0  0  0  0  0
    0.5765   -0.9079   -2.1698 O   0  0  0  0  0  0  0  0  0  0  0  0
    1.4400   -0.3084    0.0634 C   0  0  0  0  0  0  0  0  0  0  0  0
    2.4891    0.5242   -0.2071 O   0  0  0  0  0  0  0  0  0  0  0  0
    1.2605   -1.0497    1.3102 C   0  0  0  0  0  0  0  0  0  0  0  0
    0.3602    0.0781    1.0343 C   0  0  0  0  0  0  0  0  0  0  0  0
   -2.6935   -0.1459    0.1688 H   0  0  0  0  0  0  0  0  0  0  0  0
   -1.7036   -1.5748    0.5872 H   0  0  0  0  0  0  0  0  0  0  0  0
   -1.9496   -1.0967   -1.1405 H   0  0  0  0  0  0  0  0  0  0  0  0
   -1.7904    1.8294    0.1702 H   0  0  0  0  0  0  0  0  0  0  0  0
   -1.2555    1.5462   -1.5646 H   0  0  0  0  0  0  0  0  0  0  0  0
   -0.0871    2.2704   -0.3525 H   0  0  0  0  0  0  0  0  0  0  0  0
    2.8033    0.3097   -1.1434 H   0  0  0  0  0  0  0  0  0  0  0  0
    0.9082   -2.1073    1.2809 H   0  0  0  0  0  0  0  0  0  0  0  0
    2.0183   -0.8853    2.0993 H   0  0  0  0  0  0  0  0  0  0  0  0
    0.4456    0.9931    1.6307 H   0  0  0  0  0  0  0  0  0  0  0  0
  1  2  1  0
  2  3  1  0
  2  4  1  0
  4  5  2  0
  4  6  1  0
  6  7  1  0
  6  8  1  0
  8  9  1  0
  9  2  1  0
  9  6  1  0
  1 10  1  0
  1 11  1  0
  1 12  1  0
  3 13  1  0
  3 14  1  0
  3 15  1  0
  7 16  1  0
  8 17  1  0
  8 18  1  0
  9 19  1  0
M  END
