
     RDKit          3D

 23 24  0  0  0  0  0  0  0  0999 V2000
   -1.8589    0.9474    1.0175 C   0  0  0  0  0  0  0  0  0  0  0  0
   -0.9014   -0.0393    0.3770 C   0  0  0  0  0  0  0  0  0  0  0  0
   -1.7767   -1.1114   -0.2763 C   0  0  0  0  0  0  0  0  0  0  0  0
    0.0332   -0.6118    1.3931 C   0  0  0  0  0  0  0  0  0  0  0  0
    1.4184   -0.5080    0.8767 C   0  0  0  0  0  0  0  0  0  0  0  0
    2.0903    0.7490    0.5552 C   0  0  0  0  0  0  0  0  0  0  0  0
    3.4552    0.7220    0.3354 O   0  0  0  0  0  0  0  0  0  0  0  0
    1.2893    0.0033   -0.4915 C   0  0  0  0  0  0  0  0  0  0  0  0
   -0.0718    0.5680   -0.7076 C   0  0  0  0  0  0  0  0  0  0  0  0
   -2.4834    1.4351    0.2595 H   0  0  0  0  0  0  0  0  0  0  0  0
   -2.5008    0.3468    1.7076 H   0  0  0  0  0  0  0  0  0  0  0  0
   -1.2861    1.7201    1.5350 H   0  0  0  0  0  0  0  0  0  0  0  0
   -2.3240   -0.5630   -1.0974 H   0  0  0  0  0  0  0  0  0  0  0  0
   -2.5216   -1.5198    0.4099 H   0  0  0  0  0  0  0  0  0  0  0  0
   -1.1790   -1.8792   -0.7857 H   0  0  0  0  0  0  0  0  0  0  0  0
   -0.0646   -0.1278    2.3800 H   0  0  0  0  0  0  0  0  0  0  0  0
   -0.2294   -1.7037    1.4959 H   0  0  0  0  0  0  0  0  0  0  0  0
    2.0832   -1.3875    1.0785 H   0  0  0  0  0  0  0  0  0  0  0  0
    1.7227    1.7320    0.9224 H   0  0  0  0  0  0  0  0  0  0  0  0
    3.7952   -0.2266    0.2869 H   0  0  0  0  0  0  0  0  0  0  0  0
    1.8101   -0.5628   -1.2824 H   0  0  0  0  0  0  0  0  0  0  0  0
   -0.3998    0.3350   -1.7249 H   0  0  0  0  0  0  0  0  0  0  0  0
   -0.1000    1.6823   -0.6053 H   0  0  0  0  0  0  0  0  0  0  0  0
  1  2  1  0
  2  3  1  0
  2  4  1  0
  4  5  1  0
  5  6  1  0
  6  7  1  0
  6  8  1  0
  8  9  1  0
  9  2  1  0
  8  5  1  0
  1 10  1  0
  1 11  1  0
  1 12  1  0
  3 13  1  0
  3 14  1  0
  3 15  1  0
  4 16  1  0
  4 17  1  0
  5 18  1  0
  6 19  1  0
  7 20  1  0
  8 21  1  0
  9 22  1  0
  9 23  1  0
M  END
