
     RDKit          3D

 21 22  0  0  0  0  0  0  0  0999 V2000
   -1.5293   -0.2789    1.0544 C   0  0  0  0  0  0  0  0  0  0  0  0
   -1.2123    0.4023   -0.2485 C   0  0  0  0  0  0  0  0  0  0  0  0
   -2.0938    1.3946   -0.6249 O   0  0  0  0  0  0  0  0  0  0  0  0
   -1.0601   -0.7001   -1.3329 C   0  0  0  0  0  0  0  0  0  0  0  0
    0.2808   -0.8940   -0.7405 C   0  0  0  0  0  0  0  0  0  0  0  0
    1.4302   -1.2935   -0.2765 C   0  0  0  0  0  0  0  0  0  0  0  0
    2.2415   -0.1948    0.3139 C   0  0  0  0  0  0  0  0  0  0  0  0
    1.1866    0.8691    0.5872 C   0  0  0  0  0  0  0  0  0  0  0  0
    0.2302    0.6199   -0.5362 C   0  0  0  0  0  0  0  0  0  0  0  0
   -2.1629    0.4006    1.6726 H   0  0  0  0  0  0  0  0  0  0  0  0
   -2.1826   -1.1858    0.8833 H   0  0  0  0  0  0  0  0  0  0  0  0
   -0.6434   -0.6511    1.5912 H   0  0  0  0  0  0  0  0  0  0  0  0
   -2.0130    2.1288    0.0101 H   0  0  0  0  0  0  0  0  0  0  0  0
   -1.0311   -0.2078   -2.3169 H   0  0  0  0  0  0  0  0  0  0  0  0
   -1.7826   -1.5079   -1.2173 H   0  0  0  0  0  0  0  0  0  0  0  0
    1.7797   -2.3312   -0.3099 H   0  0  0  0  0  0  0  0  0  0  0  0
    3.0554    0.1628   -0.3193 H   0  0  0  0  0  0  0  0  0  0  0  0
    2.6437   -0.5246    1.2815 H   0  0  0  0  0  0  0  0  0  0  0  0
    1.6794    1.8456    0.4187 H   0  0  0  0  0  0  0  0  0  0  0  0
    0.7668    0.8239    1.5876 H   0  0  0  0  0  0  0  0  0  0  0  0
    0.4169    1.1222   -1.4776 H   0  0  0  0  0  0  0  0  0  0  0  0
  1  2  1  0
  2  3  1  0
  2  4  1  0
  4  5  1  0
  5  6  2  0
  6  7  1  0
  7  8  1  0
  8  9  1  0
  9  2  1  0
  9  5  1  0
  1 10  1  0
  1 11  1  0
  1 12  1  0
  3 13  1  0
  4 14  1  0
  4 15  1  0
  6 16  1  0
  7 17  1  0
  7 18  1  0
  8 19  1  0
  8 20  1  0
  9 21  1  0
M  END
