
     RDKit          3D

 21 22  0  0  0  0  0  0  0  0999 V2000
    1.5096   -0.6545   -1.4607 C   0  0  0  0  0  0  0  0  0  0  0  0
    0.7252   -0.0887   -0.2782 C   0  0  0  0  0  0  0  0  0  0  0  0
    1.2025   -0.7392    1.0166 C   0  0  0  0  0  0  0  0  0  0  0  0
    0.4020    1.2766   -0.0579 C   0  0  0  0  0  0  0  0  0  0  0  0
   -0.8893    1.9896    0.1722 C   0  0  0  0  0  0  0  0  0  0  0  0
   -1.1860    1.4269   -1.0882 O   0  0  0  0  0  0  0  0  0  0  0  0
   -0.6216    0.2881   -0.5648 C   0  0  0  0  0  0  0  0  0  0  0  0
   -1.5905   -0.5252    0.1288 C   0  0  0  0  0  0  0  0  0  0  0  0
   -1.1210   -1.7080    0.7024 O   0  0  0  0  0  0  0  0  0  0  0  0
    1.5526   -1.7398   -1.3664 H   0  0  0  0  0  0  0  0  0  0  0  0
    2.5145   -0.1990   -1.4646 H   0  0  0  0  0  0  0  0  0  0  0  0
    1.0282   -0.3854   -2.4290 H   0  0  0  0  0  0  0  0  0  0  0  0
    2.2561   -0.3816    1.1298 H   0  0  0  0  0  0  0  0  0  0  0  0
    1.2618   -1.8350    0.9263 H   0  0  0  0  0  0  0  0  0  0  0  0
    0.6759   -0.3749    1.8966 H   0  0  0  0  0  0  0  0  0  0  0  0
    0.9758    1.8856   -0.8352 H   0  0  0  0  0  0  0  0  0  0  0  0
   -0.7896    3.1079    0.1387 H   0  0  0  0  0  0  0  0  0  0  0  0
   -1.4986    1.7432    1.0169 H   0  0  0  0  0  0  0  0  0  0  0  0
   -2.3036   -0.9063   -0.6767 H   0  0  0  0  0  0  0  0  0  0  0  0
   -2.2831   -0.0816    0.8611 H   0  0  0  0  0  0  0  0  0  0  0  0
   -1.8209   -2.0988    1.2561 H   0  0  0  0  0  0  0  0  0  0  0  0
  1  2  1  0
  2  3  1  0
  2  4  1  0
  4  5  1  0
  5  6  1  0
  6  7  1  0
  7  8  1  0
  8  9  1  0
  7  2  1  0
  7  4  1  0
  1 10  1  0
  1 11  1  0
  1 12  1  0
  3 13  1  0
  3 14  1  0
  3 15  1  0
  4 16  1  0
  5 17  1  0
  5 18  1  0
  8 19  1  0
  8 20  1  0
  9 21  1  0
M  END
