
     RDKit          3D

 19 19  0  0  0  0  0  0  0  0999 V2000
   -0.5991    1.9913    0.3638 C   0  0  0  0  0  0  0  0  0  0  0  0
   -0.0105    0.7631   -0.2512 C   0  0  0  0  0  0  0  0  0  0  0  0
   -0.0433    0.7145   -1.6501 O   0  0  0  0  0  0  0  0  0  0  0  0
    1.0905    0.0051    0.3800 C   0  0  0  0  0  0  0  0  0  0  0  0
    1.9947   -0.8339   -0.3980 C   0  0  0  0  0  0  0  0  0  0  0  0
    3.1478   -0.9646   -0.0344 O   0  0  0  0  0  0  0  0  0  0  0  0
   -0.3087   -0.5128    0.5165 C   0  0  0  0  0  0  0  0  0  0  0  0
   -0.7608   -1.6578   -0.3618 C   0  0  0  0  0  0  0  0  0  0  0  0
   -0.8559   -0.4556    1.7707 O   0  0  0  0  0  0  0  0  0  0  0  0
   -1.6095    1.6958    0.7754 H   0  0  0  0  0  0  0  0  0  0  0  0
   -0.0356    2.4014    1.2060 H   0  0  0  0  0  0  0  0  0  0  0  0
   -0.8453    2.7686   -0.4120 H   0  0  0  0  0  0  0  0  0  0  0  0
   -0.0502    1.6320   -1.9730 H   0  0  0  0  0  0  0  0  0  0  0  0
    1.5348    0.4812    1.2798 H   0  0  0  0  0  0  0  0  0  0  0  0
    1.7094   -1.3668   -1.3038 H   0  0  0  0  0  0  0  0  0  0  0  0
   -0.4334   -1.4925   -1.4077 H   0  0  0  0  0  0  0  0  0  0  0  0
   -0.3583   -2.6185   -0.0303 H   0  0  0  0  0  0  0  0  0  0  0  0
   -1.8726   -1.6292   -0.3683 H   0  0  0  0  0  0  0  0  0  0  0  0
   -1.6939   -0.9214    1.8985 H   0  0  0  0  0  0  0  0  0  0  0  0
  1  2  1  0
  2  3  1  0
  2  4  1  0
  4  5  1  0
  5  6  2  0
  4  7  1  0
  7  8  1  0
  7  9  1  0
  7  2  1  0
  1 10  1  0
  1 11  1  0
  1 12  1  0
  3 13  1  0
  4 14  1  0
  5 15  1  0
  8 16  1  0
  8 17  1  0
  8 18  1  0
  9 19  1  0
M  END
