
     RDKit          3D

 21 22  0  0  0  0  0  0  0  0999 V2000
    1.1637    1.6402    0.5356 C   0  0  0  0  0  0  0  0  0  0  0  0
    0.3272    0.4941   -0.0130 C   0  0  0  0  0  0  0  0  0  0  0  0
    1.0105   -0.3681   -1.0208 C   0  0  0  0  0  0  0  0  0  0  0  0
    2.2384   -1.0172   -0.4650 C   0  0  0  0  0  0  0  0  0  0  0  0
    2.6124   -0.8425    0.6833 O   0  0  0  0  0  0  0  0  0  0  0  0
   -1.1149    0.7762   -0.1403 C   0  0  0  0  0  0  0  0  0  0  0  0
   -2.1265   -0.2575   -0.4748 C   0  0  0  0  0  0  0  0  0  0  0  0
   -1.5058   -1.2338    0.5013 C   0  0  0  0  0  0  0  0  0  0  0  0
   -0.5982   -0.1250    0.9604 C   0  0  0  0  0  0  0  0  0  0  0  0
    2.2521    1.4528    0.4281 H   0  0  0  0  0  0  0  0  0  0  0  0
    0.8724    2.5821   -0.0085 H   0  0  0  0  0  0  0  0  0  0  0  0
    0.9884    1.7858    1.6303 H   0  0  0  0  0  0  0  0  0  0  0  0
    0.3126   -1.1608   -1.3424 H   0  0  0  0  0  0  0  0  0  0  0  0
    1.3277    0.1946   -1.9237 H   0  0  0  0  0  0  0  0  0  0  0  0
    2.8477   -1.6751   -1.0723 H   0  0  0  0  0  0  0  0  0  0  0  0
   -1.4858    1.7814    0.0977 H   0  0  0  0  0  0  0  0  0  0  0  0
   -2.1870   -0.6010   -1.5090 H   0  0  0  0  0  0  0  0  0  0  0  0
   -3.1438    0.0261   -0.0795 H   0  0  0  0  0  0  0  0  0  0  0  0
   -1.0252   -2.0515   -0.0552 H   0  0  0  0  0  0  0  0  0  0  0  0
   -2.1676   -1.6245    1.2760 H   0  0  0  0  0  0  0  0  0  0  0  0
   -0.5984    0.2237    1.9918 H   0  0  0  0  0  0  0  0  0  0  0  0
  1  2  1  0
  2  3  1  0
  3  4  1  0
  4  5  2  0
  2  6  1  0
  6  7  1  0
  7  8  1  0
  8  9  1  0
  9  2  1  0
  9  6  1  0
  1 10  1  0
  1 11  1  0
  1 12  1  0
  3 13  1  0
  3 14  1  0
  4 15  1  0
  6 16  1  0
  7 17  1  0
  7 18  1  0
  8 19  1  0
  8 20  1  0
  9 21  1  0
M  END
