
     RDKit          3D

 19 20  0  0  0  0  0  0  0  0999 V2000
    0.7962    1.0992    0.9664 C   0  0  0  0  0  0  0  0  0  0  0  0
    0.6748   -0.0536    0.0258 C   0  0  0  0  0  0  0  0  0  0  0  0
    1.9937   -0.5472   -0.5337 C   0  0  0  0  0  0  0  0  0  0  0  0
   -0.4406   -0.9822   -0.0025 C   0  0  0  0  0  0  0  0  0  0  0  0
   -1.7159   -0.8085    0.7446 C   0  0  0  0  0  0  0  0  0  0  0  0
   -2.0979    0.5520    0.6434 O   0  0  0  0  0  0  0  0  0  0  0  0
   -1.5835    0.9923   -0.5751 C   0  0  0  0  0  0  0  0  0  0  0  0
   -1.9837    1.9739   -1.2472 O   0  0  0  0  0  0  0  0  0  0  0  0
   -0.4530    0.1181   -0.9994 C   0  0  0  0  0  0  0  0  0  0  0  0
   -0.0880    1.2727    1.5944 H   0  0  0  0  0  0  0  0  0  0  0  0
    0.9065    2.0262    0.3345 H   0  0  0  0  0  0  0  0  0  0  0  0
    1.7253    1.0633    1.5794 H   0  0  0  0  0  0  0  0  0  0  0  0
    2.8448   -0.2920    0.1055 H   0  0  0  0  0  0  0  0  0  0  0  0
    2.0894   -0.1076   -1.5616 H   0  0  0  0  0  0  0  0  0  0  0  0
    1.9920   -1.6532   -0.6880 H   0  0  0  0  0  0  0  0  0  0  0  0
   -0.2334   -2.0388   -0.3104 H   0  0  0  0  0  0  0  0  0  0  0  0
   -2.5054   -1.4059    0.2084 H   0  0  0  0  0  0  0  0  0  0  0  0
   -1.6924   -1.1838    1.7709 H   0  0  0  0  0  0  0  0  0  0  0  0
   -0.2289   -0.0249   -2.0554 H   0  0  0  0  0  0  0  0  0  0  0  0
  1  2  1  0
  2  3  1  0
  2  4  1  0
  4  5  1  0
  5  6  1  0
  6  7  1  0
  7  8  2  0
  7  9  1  0
  9  2  1  0
  9  4  1  0
  1 10  1  0
  1 11  1  0
  1 12  1  0
  3 13  1  0
  3 14  1  0
  3 15  1  0
  4 16  1  0
  5 17  1  0
  5 18  1  0
  9 19  1  0
M  END
