
     RDKit          3D

 21 21  0  0  0  0  0  0  0  0999 V2000
   -1.5705   -0.7138    1.1298 C   0  0  0  0  0  0  0  0  0  0  0  0
   -0.7721   -0.2042   -0.0538 C   0  0  0  0  0  0  0  0  0  0  0  0
   -1.7032    0.1661   -1.1482 C   0  0  0  0  0  0  0  0  0  0  0  0
   -0.0508    1.0431    0.3843 C   0  0  0  0  0  0  0  0  0  0  0  0
    1.2213    1.1822    0.7257 C   0  0  0  0  0  0  0  0  0  0  0  0
    2.2376    0.0975    0.7485 C   0  0  0  0  0  0  0  0  0  0  0  0
    2.3564   -0.4264   -0.5068 O   0  0  0  0  0  0  0  0  0  0  0  0
    1.1968   -0.7362   -1.1464 C   0  0  0  0  0  0  0  0  0  0  0  0
    0.1634   -1.1639   -0.3752 O   0  0  0  0  0  0  0  0  0  0  0  0
   -1.9473    0.1455    1.7433 H   0  0  0  0  0  0  0  0  0  0  0  0
   -2.3935   -1.3324    0.7224 H   0  0  0  0  0  0  0  0  0  0  0  0
   -0.9607   -1.3713    1.7720 H   0  0  0  0  0  0  0  0  0  0  0  0
   -1.2782    0.9767   -1.8105 H   0  0  0  0  0  0  0  0  0  0  0  0
   -2.6135    0.6194   -0.6895 H   0  0  0  0  0  0  0  0  0  0  0  0
   -2.0567   -0.6881   -1.7571 H   0  0  0  0  0  0  0  0  0  0  0  0
   -0.6933    1.9310    0.4121 H   0  0  0  0  0  0  0  0  0  0  0  0
    1.5455    2.1725    1.0125 H   0  0  0  0  0  0  0  0  0  0  0  0
    1.8106   -0.7038    1.4180 H   0  0  0  0  0  0  0  0  0  0  0  0
    3.2200    0.4419    1.1008 H   0  0  0  0  0  0  0  0  0  0  0  0
    0.8583    0.1206   -1.7942 H   0  0  0  0  0  0  0  0  0  0  0  0
    1.4299   -1.5564   -1.8878 H   0  0  0  0  0  0  0  0  0  0  0  0
  1  2  1  0
  2  3  1  0
  2  4  1  0
  4  5  2  0
  5  6  1  0
  6  7  1  0
  7  8  1  0
  8  9  1  0
  9  2  1  0
  1 10  1  0
  1 11  1  0
  1 12  1  0
  3 13  1  0
  3 14  1  0
  3 15  1  0
  4 16  1  0
  5 17  1  0
  6 18  1  0
  6 19  1  0
  8 20  1  0
  8 21  1  0
M  END
