
     RDKit          3D

 21 22  0  0  0  0  0  0  0  0999 V2000
    0.9013    1.6302    0.2923 C   0  0  0  0  0  0  0  0  0  0  0  0
    0.3183    0.3005    0.0317 C   0  0  0  0  0  0  0  0  0  0  0  0
    1.2800   -0.7358   -0.4767 C   0  0  0  0  0  0  0  0  0  0  0  0
    2.2925   -0.9215    0.4651 O   0  0  0  0  0  0  0  0  0  0  0  0
   -1.0162    0.3352   -0.7160 C   0  0  0  0  0  0  0  0  0  0  0  0
   -1.2991   -1.1058   -0.8227 C   0  0  0  0  0  0  0  0  0  0  0  0
   -0.9892   -1.5674    0.4085 C   0  0  0  0  0  0  0  0  0  0  0  0
   -0.5494   -0.3092    1.1085 C   0  0  0  0  0  0  0  0  0  0  0  0
   -1.6337    0.6356    0.6527 C   0  0  0  0  0  0  0  0  0  0  0  0
    0.9743    2.1840   -0.6794 H   0  0  0  0  0  0  0  0  0  0  0  0
    0.3760    2.2671    0.9984 H   0  0  0  0  0  0  0  0  0  0  0  0
    1.9727    1.4869    0.6080 H   0  0  0  0  0  0  0  0  0  0  0  0
    0.7843   -1.6858   -0.7180 H   0  0  0  0  0  0  0  0  0  0  0  0
    1.7809   -0.3434   -1.3927 H   0  0  0  0  0  0  0  0  0  0  0  0
    3.1322   -0.4832    0.2221 H   0  0  0  0  0  0  0  0  0  0  0  0
   -1.1530    1.0039   -1.5030 H   0  0  0  0  0  0  0  0  0  0  0  0
   -1.6654   -1.6375   -1.6896 H   0  0  0  0  0  0  0  0  0  0  0  0
   -1.0489   -2.5769    0.7725 H   0  0  0  0  0  0  0  0  0  0  0  0
   -0.2367   -0.3461    2.1044 H   0  0  0  0  0  0  0  0  0  0  0  0
   -2.6464    0.2073    0.6762 H   0  0  0  0  0  0  0  0  0  0  0  0
   -1.5744    1.6619    0.9829 H   0  0  0  0  0  0  0  0  0  0  0  0
  1  2  1  0
  2  3  1  0
  3  4  1  0
  2  5  1  0
  5  6  1  0
  6  7  2  0
  7  8  1  0
  8  9  1  0
  8  2  1  0
  9  5  1  0
  1 10  1  0
  1 11  1  0
  1 12  1  0
  3 13  1  0
  3 14  1  0
  4 15  1  0
  5 16  1  0
  6 17  1  0
  7 18  1  0
  8 19  1  0
  9 20  1  0
  9 21  1  0
M  END
