
     RDKit          3D

 21 22  0  0  0  0  0  0  0  0999 V2000
   -1.3833   -1.1664   -0.0395 C   0  0  0  0  0  0  0  0  0  0  0  0
   -0.5766    0.0906   -0.2268 C   0  0  0  0  0  0  0  0  0  0  0  0
   -0.8886    0.7999   -1.5161 C   0  0  0  0  0  0  0  0  0  0  0  0
   -0.7489    1.0322    0.9384 C   0  0  0  0  0  0  0  0  0  0  0  0
    0.1420    0.7623    1.8781 C   0  0  0  0  0  0  0  0  0  0  0  0
    0.9792   -0.3724    1.4286 C   0  0  0  0  0  0  0  0  0  0  0  0
    0.8737   -0.2500   -0.0678 C   0  0  0  0  0  0  0  0  0  0  0  0
    1.8586   -0.4368   -0.9784 C   0  0  0  0  0  0  0  0  0  0  0  0
    1.7037    0.9098   -0.4931 O   0  0  0  0  0  0  0  0  0  0  0  0
   -2.0156   -1.2847   -0.9482 H   0  0  0  0  0  0  0  0  0  0  0  0
   -2.0706   -1.1031    0.8390 H   0  0  0  0  0  0  0  0  0  0  0  0
   -0.7669   -2.0781    0.0462 H   0  0  0  0  0  0  0  0  0  0  0  0
   -0.7708    1.8918   -1.3197 H   0  0  0  0  0  0  0  0  0  0  0  0
   -0.1874    0.4986   -2.3211 H   0  0  0  0  0  0  0  0  0  0  0  0
   -1.9569    0.6151   -1.8180 H   0  0  0  0  0  0  0  0  0  0  0  0
   -1.4884    1.8329    1.0317 H   0  0  0  0  0  0  0  0  0  0  0  0
    0.2784    1.2622    2.8402 H   0  0  0  0  0  0  0  0  0  0  0  0
    0.4737   -1.3133    1.7212 H   0  0  0  0  0  0  0  0  0  0  0  0
    2.0216   -0.3121    1.7859 H   0  0  0  0  0  0  0  0  0  0  0  0
    1.6714   -0.5287   -2.0751 H   0  0  0  0  0  0  0  0  0  0  0  0
    2.8518   -0.8496   -0.7055 H   0  0  0  0  0  0  0  0  0  0  0  0
  1  2  1  0
  2  3  1  0
  2  4  1  0
  4  5  2  0
  5  6  1  0
  6  7  1  0
  7  8  1  0
  8  9  1  0
  7  2  1  0
  9  7  1  0
  1 10  1  0
  1 11  1  0
  1 12  1  0
  3 13  1  0
  3 14  1  0
  3 15  1  0
  4 16  1  0
  5 17  1  0
  6 18  1  0
  6 19  1  0
  8 20  1  0
  8 21  1  0
M  END
