
     RDKit          3D

 21 22  0  0  0  0  0  0  0  0999 V2000
   -2.3875    0.3687   -0.2859 C   0  0  0  0  0  0  0  0  0  0  0  0
   -1.0013   -0.1778    0.0084 C   0  0  0  0  0  0  0  0  0  0  0  0
   -0.8550   -0.4561    1.4717 C   0  0  0  0  0  0  0  0  0  0  0  0
   -0.5614   -1.1693   -0.8387 O   0  0  0  0  0  0  0  0  0  0  0  0
    0.5878   -0.4850   -1.1894 C   0  0  0  0  0  0  0  0  0  0  0  0
    1.8066   -0.7569   -0.3559 C   0  0  0  0  0  0  0  0  0  0  0  0
    2.0747    0.5796    0.2801 C   0  0  0  0  0  0  0  0  0  0  0  0
    0.9061    1.2990    0.2795 O   0  0  0  0  0  0  0  0  0  0  0  0
    0.0238    0.7495   -0.5963 C   0  0  0  0  0  0  0  0  0  0  0  0
   -2.4769    1.3032    0.3304 H   0  0  0  0  0  0  0  0  0  0  0  0
   -3.1877   -0.3387   -0.0652 H   0  0  0  0  0  0  0  0  0  0  0  0
   -2.3636    0.7089   -1.3422 H   0  0  0  0  0  0  0  0  0  0  0  0
   -1.4284    0.2783    2.0605 H   0  0  0  0  0  0  0  0  0  0  0  0
    0.1808   -0.4309    1.8405 H   0  0  0  0  0  0  0  0  0  0  0  0
   -1.3052   -1.4612    1.6629 H   0  0  0  0  0  0  0  0  0  0  0  0
    0.7392   -0.5183   -2.2786 H   0  0  0  0  0  0  0  0  0  0  0  0
    2.6952   -1.0003   -0.9865 H   0  0  0  0  0  0  0  0  0  0  0  0
    1.6829   -1.5789    0.3550 H   0  0  0  0  0  0  0  0  0  0  0  0
    2.4159    0.4779    1.3237 H   0  0  0  0  0  0  0  0  0  0  0  0
    2.8259    1.1569   -0.3016 H   0  0  0  0  0  0  0  0  0  0  0  0
   -0.3720    1.4513   -1.3724 H   0  0  0  0  0  0  0  0  0  0  0  0
  1  2  1  0
  2  3  1  0
  2  4  1  0
  4  5  1  0
  5  6  1  0
  6  7  1  0
  7  8  1  0
  8  9  1  0
  9  2  1  0
  9  5  1  0
  1 10  1  0
  1 11  1  0
  1 12  1  0
  3 13  1  0
  3 14  1  0
  3 15  1  0
  5 16  1  0
  6 17  1  0
  6 18  1  0
  7 19  1  0
  7 20  1  0
  9 21  1  0
M  END
