
     RDKit          3D

 21 22  0  0  0  0  0  0  0  0999 V2000
    2.2552    0.0810   -0.6526 C   0  0  0  0  0  0  0  0  0  0  0  0
    1.2258   -0.3401    0.3693 C   0  0  0  0  0  0  0  0  0  0  0  0
    1.6749   -1.3351    1.2313 O   0  0  0  0  0  0  0  0  0  0  0  0
    0.4946    0.8619    1.0172 C   0  0  0  0  0  0  0  0  0  0  0  0
   -0.1559   -0.1163    0.1648 C   0  0  0  0  0  0  0  0  0  0  0  0
   -1.3184   -0.8811    0.6833 C   0  0  0  0  0  0  0  0  0  0  0  0
   -2.1716    0.0193   -0.2296 C   0  0  0  0  0  0  0  0  0  0  0  0
   -0.8961    0.1548   -1.0760 C   0  0  0  0  0  0  0  0  0  0  0  0
   -0.7409    1.3514   -1.7101 O   0  0  0  0  0  0  0  0  0  0  0  0
    2.6091   -0.7548   -1.2519 H   0  0  0  0  0  0  0  0  0  0  0  0
    1.8781    0.8718   -1.3364 H   0  0  0  0  0  0  0  0  0  0  0  0
    3.1333    0.5109   -0.0992 H   0  0  0  0  0  0  0  0  0  0  0  0
    1.4302   -2.2137    0.8743 H   0  0  0  0  0  0  0  0  0  0  0  0
    0.6942    1.8577    0.6259 H   0  0  0  0  0  0  0  0  0  0  0  0
    0.3009    0.7621    2.1253 H   0  0  0  0  0  0  0  0  0  0  0  0
   -1.5159   -0.7445    1.7566 H   0  0  0  0  0  0  0  0  0  0  0  0
   -1.4424   -1.9264    0.3090 H   0  0  0  0  0  0  0  0  0  0  0  0
   -2.9995   -0.4847   -0.7221 H   0  0  0  0  0  0  0  0  0  0  0  0
   -2.3868    0.9857    0.2756 H   0  0  0  0  0  0  0  0  0  0  0  0
   -0.8746   -0.7347   -1.7696 H   0  0  0  0  0  0  0  0  0  0  0  0
   -1.1942    2.0748   -1.2498 H   0  0  0  0  0  0  0  0  0  0  0  0
  1  2  1  0
  2  3  1  0
  2  4  1  0
  4  5  1  0
  5  6  1  0
  6  7  1  0
  7  8  1  0
  8  9  1  0
  5  2  1  0
  8  5  1  0
  1 10  1  0
  1 11  1  0
  1 12  1  0
  3 13  1  0
  4 14  1  0
  4 15  1  0
  6 16  1  0
  6 17  1  0
  7 18  1  0
  7 19  1  0
  8 20  1  0
  9 21  1  0
M  END
