
     RDKit          3D

 21 22  0  0  0  0  0  0  0  0999 V2000
   -1.4769   -1.1565   -0.5853 C   0  0  0  0  0  0  0  0  0  0  0  0
   -0.8008    0.0283    0.0102 C   0  0  0  0  0  0  0  0  0  0  0  0
   -1.7332    1.0482    0.5487 C   0  0  0  0  0  0  0  0  0  0  0  0
    0.3540    0.5059   -0.8139 C   0  0  0  0  0  0  0  0  0  0  0  0
    0.9021    1.1139    0.4412 C   0  0  0  0  0  0  0  0  0  0  0  0
    0.3829   -0.2219    0.8884 C   0  0  0  0  0  0  0  0  0  0  0  0
    1.0654   -0.7367   -0.3461 C   0  0  0  0  0  0  0  0  0  0  0  0
    2.5251   -0.6570   -0.2411 C   0  0  0  0  0  0  0  0  0  0  0  0
    3.0511   -0.9191    0.8225 O   0  0  0  0  0  0  0  0  0  0  0  0
   -1.1817   -2.1231   -0.1843 H   0  0  0  0  0  0  0  0  0  0  0  0
   -1.3692   -1.0823   -1.7026 H   0  0  0  0  0  0  0  0  0  0  0  0
   -2.5894   -1.0723   -0.4178 H   0  0  0  0  0  0  0  0  0  0  0  0
   -2.7019    0.5198    0.7957 H   0  0  0  0  0  0  0  0  0  0  0  0
   -2.0317    1.8353   -0.1840 H   0  0  0  0  0  0  0  0  0  0  0  0
   -1.4143    1.4908    1.5268 H   0  0  0  0  0  0  0  0  0  0  0  0
    0.3464    0.8887   -1.7358 H   0  0  0  0  0  0  0  0  0  0  0  0
    2.0024    1.2006    0.3905 H   0  0  0  0  0  0  0  0  0  0  0  0
    0.4336    2.0031    0.8308 H   0  0  0  0  0  0  0  0  0  0  0  0
    0.4068   -0.6124    1.8089 H   0  0  0  0  0  0  0  0  0  0  0  0
    0.7289   -1.6826   -0.7536 H   0  0  0  0  0  0  0  0  0  0  0  0
    3.1003   -0.3706   -1.0991 H   0  0  0  0  0  0  0  0  0  0  0  0
  1  2  1  0
  2  3  1  0
  2  4  1  0
  4  5  1  0
  5  6  1  0
  6  7  1  0
  7  8  1  0
  8  9  2  0
  6  2  1  0
  7  4  1  0
  1 10  1  0
  1 11  1  0
  1 12  1  0
  3 13  1  0
  3 14  1  0
  3 15  1  0
  4 16  1  0
  5 17  1  0
  5 18  1  0
  6 19  1  0
  7 20  1  0
  8 21  1  0
M  END
