
     RDKit          3D

 17 17  0  0  0  0  0  0  0  0999 V2000
   -0.9272    1.3714   -0.3529 C   0  0  0  0  0  0  0  0  0  0  0  0
   -0.0309    0.1868   -0.2338 C   0  0  0  0  0  0  0  0  0  0  0  0
   -0.7264   -1.1576   -0.2798 C   0  0  0  0  0  0  0  0  0  0  0  0
   -1.8029   -1.0851    0.6185 O   0  0  0  0  0  0  0  0  0  0  0  0
    0.9525    0.3577    0.8778 C   0  0  0  0  0  0  0  0  0  0  0  0
    1.9256   -0.2702   -0.1228 C   0  0  0  0  0  0  0  0  0  0  0  0
    1.0621    0.1610   -1.1258 O   0  0  0  0  0  0  0  0  0  0  0  0
   -1.9064    1.1675   -0.7878 H   0  0  0  0  0  0  0  0  0  0  0  0
   -1.1228    1.7860    0.6791 H   0  0  0  0  0  0  0  0  0  0  0  0
   -0.4220    2.1790   -0.9334 H   0  0  0  0  0  0  0  0  0  0  0  0
   -0.0722   -1.9849   -0.0146 H   0  0  0  0  0  0  0  0  0  0  0  0
   -1.1613   -1.3613   -1.2789 H   0  0  0  0  0  0  0  0  0  0  0  0
   -2.6499   -1.3707    0.2035 H   0  0  0  0  0  0  0  0  0  0  0  0
    1.2321    1.4100    1.0331 H   0  0  0  0  0  0  0  0  0  0  0  0
    0.7814   -0.2524    1.7838 H   0  0  0  0  0  0  0  0  0  0  0  0
    1.9441   -1.3608    0.0453 H   0  0  0  0  0  0  0  0  0  0  0  0
    2.9242    0.2237   -0.1115 H   0  0  0  0  0  0  0  0  0  0  0  0
  1  2  1  0
  2  3  1  0
  3  4  1  0
  2  5  1  0
  5  6  1  0
  6  7  1  0
  7  2  1  0
  1  8  1  0
  1  9  1  0
  1 10  1  0
  3 11  1  0
  3 12  1  0
  4 13  1  0
  5 14  1  0
  5 15  1  0
  6 16  1  0
  6 17  1  0
M  END
