
     RDKit          3D

 19 20  0  0  0  0  0  0  0  0999 V2000
   -2.1091   -0.6612    0.3450 C   0  0  0  0  0  0  0  0  0  0  0  0
   -1.0646    0.1707   -0.3263 C   0  0  0  0  0  0  0  0  0  0  0  0
   -1.4212    0.5859   -1.5779 O   0  0  0  0  0  0  0  0  0  0  0  0
   -0.4503    1.2729    0.5620 C   0  0  0  0  0  0  0  0  0  0  0  0
    0.8787    0.9291   -0.0294 C   0  0  0  0  0  0  0  0  0  0  0  0
    1.9604    0.6708    0.7513 O   0  0  0  0  0  0  0  0  0  0  0  0
    2.5805   -0.4486    0.1195 C   0  0  0  0  0  0  0  0  0  0  0  0
    1.3580   -1.2706   -0.2118 C   0  0  0  0  0  0  0  0  0  0  0  0
    0.3123   -0.4774   -0.2319 C   0  0  0  0  0  0  0  0  0  0  0  0
   -3.0261   -0.0659    0.5010 H   0  0  0  0  0  0  0  0  0  0  0  0
   -1.7434   -0.9411    1.3658 H   0  0  0  0  0  0  0  0  0  0  0  0
   -2.2516   -1.5783   -0.2359 H   0  0  0  0  0  0  0  0  0  0  0  0
   -2.3869    0.5444   -1.6798 H   0  0  0  0  0  0  0  0  0  0  0  0
   -0.5169    1.0440    1.6331 H   0  0  0  0  0  0  0  0  0  0  0  0
   -0.8200    2.2706    0.3061 H   0  0  0  0  0  0  0  0  0  0  0  0
    1.0653    1.4265   -1.0045 H   0  0  0  0  0  0  0  0  0  0  0  0
    3.1291   -0.1085   -0.7481 H   0  0  0  0  0  0  0  0  0  0  0  0
    3.1556   -1.0312    0.8618 H   0  0  0  0  0  0  0  0  0  0  0  0
    1.3503   -2.3320   -0.3998 H   0  0  0  0  0  0  0  0  0  0  0  0
  1  2  1  0
  2  3  1  0
  2  4  1  0
  4  5  1  0
  5  6  1  0
  6  7  1  0
  7  8  1  0
  8  9  2  0
  9  2  1  0
  9  5  1  0
  1 10  1  0
  1 11  1  0
  1 12  1  0
  3 13  1  0
  4 14  1  0
  4 15  1  0
  5 16  1  0
  7 17  1  0
  7 18  1  0
  8 19  1  0
M  END
