
     RDKit          3D

 21 22  0  0  0  0  0  0  0  0999 V2000
    1.8510    0.6344    0.2400 C   0  0  0  0  0  0  0  0  0  0  0  0
    0.6687    0.0120   -0.4669 C   0  0  0  0  0  0  0  0  0  0  0  0
    0.5338    0.5353   -1.7292 O   0  0  0  0  0  0  0  0  0  0  0  0
    0.8287   -1.4984   -0.4737 C   0  0  0  0  0  0  0  0  0  0  0  0
   -0.1518   -2.0212    0.3326 O   0  0  0  0  0  0  0  0  0  0  0  0
   -0.5760   -1.0117    1.1996 C   0  0  0  0  0  0  0  0  0  0  0  0
   -0.6050    0.1594    0.3056 C   0  0  0  0  0  0  0  0  0  0  0  0
   -1.4432    1.3116    0.3625 C   0  0  0  0  0  0  0  0  0  0  0  0
   -1.8491    0.2184   -0.5911 C   0  0  0  0  0  0  0  0  0  0  0  0
    2.6739   -0.1248    0.2992 H   0  0  0  0  0  0  0  0  0  0  0  0
    1.6041    0.9145    1.2762 H   0  0  0  0  0  0  0  0  0  0  0  0
    2.2605    1.4892   -0.3220 H   0  0  0  0  0  0  0  0  0  0  0  0
    0.6236    1.5194   -1.6541 H   0  0  0  0  0  0  0  0  0  0  0  0
    1.8159   -1.7944   -0.0577 H   0  0  0  0  0  0  0  0  0  0  0  0
    0.7332   -1.8133   -1.5390 H   0  0  0  0  0  0  0  0  0  0  0  0
   -1.5417   -1.2963    1.6491 H   0  0  0  0  0  0  0  0  0  0  0  0
    0.2080   -0.9489    1.9954 H   0  0  0  0  0  0  0  0  0  0  0  0
   -1.1226    2.2408   -0.1350 H   0  0  0  0  0  0  0  0  0  0  0  0
   -2.0620    1.4940    1.2637 H   0  0  0  0  0  0  0  0  0  0  0  0
   -1.7119    0.3420   -1.6726 H   0  0  0  0  0  0  0  0  0  0  0  0
   -2.7381   -0.3621   -0.2824 H   0  0  0  0  0  0  0  0  0  0  0  0
  1  2  1  0
  2  3  1  0
  2  4  1  0
  4  5  1  0
  5  6  1  0
  6  7  1  0
  7  8  1  0
  8  9  1  0
  7  2  1  0
  9  7  1  0
  1 10  1  0
  1 11  1  0
  1 12  1  0
  3 13  1  0
  4 14  1  0
  4 15  1  0
  6 16  1  0
  6 17  1  0
  8 18  1  0
  8 19  1  0
  9 20  1  0
  9 21  1  0
M  END
