
     RDKit          3D

 23 24  0  0  0  0  0  0  0  0999 V2000
   -1.1236    1.4717   -0.3924 C   0  0  0  0  0  0  0  0  0  0  0  0
   -0.5459    0.2853    0.3284 C   0  0  0  0  0  0  0  0  0  0  0  0
   -1.6299   -0.7081    0.6954 C   0  0  0  0  0  0  0  0  0  0  0  0
   -2.2587   -1.1499   -0.4672 O   0  0  0  0  0  0  0  0  0  0  0  0
    0.3779    0.6378    1.4614 C   0  0  0  0  0  0  0  0  0  0  0  0
    1.4723   -0.1799    0.8811 C   0  0  0  0  0  0  0  0  0  0  0  0
    1.2642   -1.5255    0.3098 C   0  0  0  0  0  0  0  0  0  0  0  0
    0.6173   -0.3828   -0.3558 C   0  0  0  0  0  0  0  0  0  0  0  0
    1.1360    0.1183   -1.6569 C   0  0  0  0  0  0  0  0  0  0  0  0
   -1.7060    1.1503   -1.2559 H   0  0  0  0  0  0  0  0  0  0  0  0
   -1.8223    1.9738    0.3359 H   0  0  0  0  0  0  0  0  0  0  0  0
   -0.3534    2.2274   -0.6270 H   0  0  0  0  0  0  0  0  0  0  0  0
   -1.1977   -1.5942    1.2043 H   0  0  0  0  0  0  0  0  0  0  0  0
   -2.3587   -0.2638    1.4165 H   0  0  0  0  0  0  0  0  0  0  0  0
   -1.7241   -0.8921   -1.2425 H   0  0  0  0  0  0  0  0  0  0  0  0
    0.6098    1.7383    1.4601 H   0  0  0  0  0  0  0  0  0  0  0  0
    0.0244    0.3629    2.4705 H   0  0  0  0  0  0  0  0  0  0  0  0
    2.4494    0.3072    0.8025 H   0  0  0  0  0  0  0  0  0  0  0  0
    2.1391   -1.9536   -0.2255 H   0  0  0  0  0  0  0  0  0  0  0  0
    0.6772   -2.3112    0.8409 H   0  0  0  0  0  0  0  0  0  0  0  0
    1.2247   -0.7079   -2.4166 H   0  0  0  0  0  0  0  0  0  0  0  0
    0.5295    0.9407   -2.0672 H   0  0  0  0  0  0  0  0  0  0  0  0
    2.1984    0.4555   -1.4996 H   0  0  0  0  0  0  0  0  0  0  0  0
  1  2  1  0
  2  3  1  0
  3  4  1  0
  2  5  1  0
  5  6  1  0
  6  7  1  0
  7  8  1  0
  8  9  1  0
  8  2  1  0
  8  6  1  0
  1 10  1  0
  1 11  1  0
  1 12  1  0
  3 13  1  0
  3 14  1  0
  4 15  1  0
  5 16  1  0
  5 17  1  0
  6 18  1  0
  7 19  1  0
  7 20  1  0
  9 21  1  0
  9 22  1  0
  9 23  1  0
M  END
