
     RDKit          3D

 23 24  0  0  0  0  0  0  0  0999 V2000
    1.6441    1.0224   -0.5899 C   0  0  0  0  0  0  0  0  0  0  0  0
    1.4270    0.1802    0.6203 C   0  0  0  0  0  0  0  0  0  0  0  0
    2.5958   -0.0271    1.3814 O   0  0  0  0  0  0  0  0  0  0  0  0
    0.0948    0.0697    1.2795 C   0  0  0  0  0  0  0  0  0  0  0  0
   -1.0463    0.9246    0.8910 C   0  0  0  0  0  0  0  0  0  0  0  0
   -1.7935    0.5328   -0.3196 C   0  0  0  0  0  0  0  0  0  0  0  0
   -1.6506   -0.9094   -0.7130 C   0  0  0  0  0  0  0  0  0  0  0  0
   -0.1813   -1.1902   -0.8825 C   0  0  0  0  0  0  0  0  0  0  0  0
    0.5027   -1.0065    0.4148 C   0  0  0  0  0  0  0  0  0  0  0  0
    2.5171    1.7173   -0.4208 H   0  0  0  0  0  0  0  0  0  0  0  0
    0.8098    1.6471   -0.8917 H   0  0  0  0  0  0  0  0  0  0  0  0
    1.9989    0.3358   -1.4115 H   0  0  0  0  0  0  0  0  0  0  0  0
    3.0434   -0.7991    0.9631 H   0  0  0  0  0  0  0  0  0  0  0  0
    0.1748   -0.1202    2.3926 H   0  0  0  0  0  0  0  0  0  0  0  0
   -1.7823    1.0441    1.7330 H   0  0  0  0  0  0  0  0  0  0  0  0
   -0.6512    1.9715    0.7330 H   0  0  0  0  0  0  0  0  0  0  0  0
   -1.5225    1.1769   -1.2067 H   0  0  0  0  0  0  0  0  0  0  0  0
   -2.9023    0.7150   -0.1957 H   0  0  0  0  0  0  0  0  0  0  0  0
   -2.1170   -1.0254   -1.7271 H   0  0  0  0  0  0  0  0  0  0  0  0
   -2.1358   -1.5224    0.0472 H   0  0  0  0  0  0  0  0  0  0  0  0
    0.1802   -0.5411   -1.7059 H   0  0  0  0  0  0  0  0  0  0  0  0
   -0.0964   -2.2350   -1.2654 H   0  0  0  0  0  0  0  0  0  0  0  0
    0.8905   -1.9611    0.8740 H   0  0  0  0  0  0  0  0  0  0  0  0
  1  2  1  0
  2  3  1  0
  2  4  1  0
  4  5  1  0
  5  6  1  0
  6  7  1  0
  7  8  1  0
  8  9  1  0
  9  2  1  0
  9  4  1  0
  1 10  1  0
  1 11  1  0
  1 12  1  0
  3 13  1  0
  4 14  1  0
  5 15  1  0
  5 16  1  0
  6 17  1  0
  6 18  1  0
  7 19  1  0
  7 20  1  0
  8 21  1  0
  8 22  1  0
  9 23  1  0
M  END
