
     RDKit          3D

 21 21  0  0  0  0  0  0  0  0999 V2000
   -1.5787   -1.2036   -1.3838 C   0  0  0  0  0  0  0  0  0  0  0  0
   -0.9067   -0.3221   -0.3127 C   0  0  0  0  0  0  0  0  0  0  0  0
    0.4224   -0.5266   -0.2445 O   0  0  0  0  0  0  0  0  0  0  0  0
    1.1634    0.1677    0.6456 C   0  0  0  0  0  0  0  0  0  0  0  0
    2.6195   -0.3010    0.4613 C   0  0  0  0  0  0  0  0  0  0  0  0
    3.0262   -0.0341   -0.8460 O   0  0  0  0  0  0  0  0  0  0  0  0
   -1.3833    1.1408   -0.3969 C   0  0  0  0  0  0  0  0  0  0  0  0
   -1.7802    0.1965    0.7287 C   0  0  0  0  0  0  0  0  0  0  0  0
   -1.3801    0.6099    1.9704 O   0  0  0  0  0  0  0  0  0  0  0  0
   -2.5783   -0.7791   -1.6577 H   0  0  0  0  0  0  0  0  0  0  0  0
   -0.9750   -1.1671   -2.3146 H   0  0  0  0  0  0  0  0  0  0  0  0
   -1.6754   -2.2280   -0.9986 H   0  0  0  0  0  0  0  0  0  0  0  0
    1.2103    1.2664    0.4924 H   0  0  0  0  0  0  0  0  0  0  0  0
    0.8636    0.0217    1.7042 H   0  0  0  0  0  0  0  0  0  0  0  0
    3.2904    0.2714    1.1361 H   0  0  0  0  0  0  0  0  0  0  0  0
    2.7110   -1.3748    0.6667 H   0  0  0  0  0  0  0  0  0  0  0  0
    3.8036   -0.5654   -1.0924 H   0  0  0  0  0  0  0  0  0  0  0  0
   -2.1199    1.4159   -1.1533 H   0  0  0  0  0  0  0  0  0  0  0  0
   -0.6050    1.9156   -0.1687 H   0  0  0  0  0  0  0  0  0  0  0  0
   -2.8678   -0.0799    0.6857 H   0  0  0  0  0  0  0  0  0  0  0  0
   -1.2602    1.5757    2.0781 H   0  0  0  0  0  0  0  0  0  0  0  0
  1  2  1  0
  2  3  1  0
  3  4  1  0
  4  5  1  0
  5  6  1  0
  2  7  1  0
  7  8  1  0
  8  9  1  0
  8  2  1  0
  1 10  1  0
  1 11  1  0
  1 12  1  0
  4 13  1  0
  4 14  1  0
  5 15  1  0
  5 16  1  0
  6 17  1  0
  7 18  1  0
  7 19  1  0
  8 20  1  0
  9 21  1  0
M  END
