
     RDKit          3D

 23 24  0  0  0  0  0  0  0  0999 V2000
   -1.9255    0.5362    0.7871 C   0  0  0  0  0  0  0  0  0  0  0  0
   -0.7852   -0.0848   -0.0345 C   0  0  0  0  0  0  0  0  0  0  0  0
   -1.3976   -0.8582   -1.1759 C   0  0  0  0  0  0  0  0  0  0  0  0
   -0.0943   -1.0446    0.8552 C   0  0  0  0  0  0  0  0  0  0  0  0
    1.1631   -1.3433    0.6915 C   0  0  0  0  0  0  0  0  0  0  0  0
    1.9086   -0.6971   -0.4183 C   0  0  0  0  0  0  0  0  0  0  0  0
    1.5230    0.7576   -0.5640 C   0  0  0  0  0  0  0  0  0  0  0  0
    1.0596    1.5365    0.6040 C   0  0  0  0  0  0  0  0  0  0  0  0
    0.0925    1.0242   -0.4675 C   0  0  0  0  0  0  0  0  0  0  0  0
   -2.5025   -0.2886    1.2137 H   0  0  0  0  0  0  0  0  0  0  0  0
   -1.4447    1.1524    1.5781 H   0  0  0  0  0  0  0  0  0  0  0  0
   -2.5746    1.1235    0.1281 H   0  0  0  0  0  0  0  0  0  0  0  0
   -2.2372   -0.2321   -1.5663 H   0  0  0  0  0  0  0  0  0  0  0  0
   -0.6700   -1.0738   -1.9655 H   0  0  0  0  0  0  0  0  0  0  0  0
   -1.8171   -1.7945   -0.7390 H   0  0  0  0  0  0  0  0  0  0  0  0
   -0.6300   -1.5334    1.6834 H   0  0  0  0  0  0  0  0  0  0  0  0
    1.7192   -2.0443    1.3176 H   0  0  0  0  0  0  0  0  0  0  0  0
    2.9804   -0.7965   -0.2584 H   0  0  0  0  0  0  0  0  0  0  0  0
    1.6525   -1.1981   -1.3743 H   0  0  0  0  0  0  0  0  0  0  0  0
    2.1018    1.2912   -1.3399 H   0  0  0  0  0  0  0  0  0  0  0  0
    1.2339    2.6466    0.5790 H   0  0  0  0  0  0  0  0  0  0  0  0
    0.9817    1.1350    1.6133 H   0  0  0  0  0  0  0  0  0  0  0  0
   -0.3378    1.7861   -1.1476 H   0  0  0  0  0  0  0  0  0  0  0  0
  1  2  1  0
  2  3  1  0
  2  4  1  0
  4  5  2  0
  5  6  1  0
  6  7  1  0
  7  8  1  0
  8  9  1  0
  9  2  1  0
  9  7  1  0
  1 10  1  0
  1 11  1  0
  1 12  1  0
  3 13  1  0
  3 14  1  0
  3 15  1  0
  4 16  1  0
  5 17  1  0
  6 18  1  0
  6 19  1  0
  7 20  1  0
  8 21  1  0
  8 22  1  0
  9 23  1  0
M  END
