
     RDKit          3D

 20 21  0  0  0  0  0  0  0  0999 V2000
    1.5928    1.1251   -0.1057 C   0  0  0  0  0  0  0  0  0  0  0  0
    0.8001   -0.0818    0.3834 C   0  0  0  0  0  0  0  0  0  0  0  0
    1.5247   -0.8971    1.2133 O   0  0  0  0  0  0  0  0  0  0  0  0
    0.3110   -0.8317   -0.8746 C   0  0  0  0  0  0  0  0  0  0  0  0
   -1.1451   -0.5144   -0.7894 C   0  0  0  0  0  0  0  0  0  0  0  0
   -1.4367   -0.8391    0.6836 C   0  0  0  0  0  0  0  0  0  0  0  0
   -0.5219    0.3545    0.9283 C   0  0  0  0  0  0  0  0  0  0  0  0
   -1.1680    0.9369   -0.3375 C   0  0  0  0  0  0  0  0  0  0  0  0
    1.6471    1.1591   -1.2168 H   0  0  0  0  0  0  0  0  0  0  0  0
    2.6611    1.0642    0.2390 H   0  0  0  0  0  0  0  0  0  0  0  0
    1.1317    2.0633    0.2955 H   0  0  0  0  0  0  0  0  0  0  0  0
    1.9012   -1.6271    0.6947 H   0  0  0  0  0  0  0  0  0  0  0  0
    0.4690   -1.9116   -0.6439 H   0  0  0  0  0  0  0  0  0  0  0  0
    0.8157   -0.4854   -1.7727 H   0  0  0  0  0  0  0  0  0  0  0  0
   -1.8328   -0.8427   -1.5153 H   0  0  0  0  0  0  0  0  0  0  0  0
   -1.0128   -1.8143    0.9247 H   0  0  0  0  0  0  0  0  0  0  0  0
   -2.4896   -0.6544    0.9469 H   0  0  0  0  0  0  0  0  0  0  0  0
   -0.6067    0.8946    1.8257 H   0  0  0  0  0  0  0  0  0  0  0  0
   -0.4834    1.5654   -0.9049 H   0  0  0  0  0  0  0  0  0  0  0  0
   -2.1573    1.3364   -0.0913 H   0  0  0  0  0  0  0  0  0  0  0  0
  1  2  1  0
  2  3  1  0
  2  4  1  0
  4  5  1  0
  5  6  1  0
  6  7  1  0
  7  8  1  0
  7  2  1  0
  8  5  1  0
  1  9  1  0
  1 10  1  0
  1 11  1  0
  3 12  1  0
  4 13  1  0
  4 14  1  0
  5 15  1  0
  6 16  1  0
  6 17  1  0
  7 18  1  0
  8 19  1  0
  8 20  1  0
M  END
