
     RDKit          3D

 23 23  0  0  0  0  0  0  0  0999 V2000
   -1.2538    0.0880    1.5284 C   0  0  0  0  0  0  0  0  0  0  0  0
   -0.7025    0.0490    0.1349 C   0  0  0  0  0  0  0  0  0  0  0  0
   -1.6801    0.4288   -0.9397 C   0  0  0  0  0  0  0  0  0  0  0  0
    0.7343    0.5713    0.0378 C   0  0  0  0  0  0  0  0  0  0  0  0
    0.9080    1.5951   -1.0512 C   0  0  0  0  0  0  0  0  0  0  0  0
    1.4034    0.8784    1.2138 O   0  0  0  0  0  0  0  0  0  0  0  0
    0.4088   -0.8228   -0.2629 C   0  0  0  0  0  0  0  0  0  0  0  0
    0.7632   -1.9370    0.6771 C   0  0  0  0  0  0  0  0  0  0  0  0
    0.4871   -1.2012   -1.6199 O   0  0  0  0  0  0  0  0  0  0  0  0
   -0.4406   -0.1012    2.2607 H   0  0  0  0  0  0  0  0  0  0  0  0
   -2.1320   -0.5369    1.6938 H   0  0  0  0  0  0  0  0  0  0  0  0
   -1.5843    1.1532    1.7079 H   0  0  0  0  0  0  0  0  0  0  0  0
   -1.5342   -0.2149   -1.8442 H   0  0  0  0  0  0  0  0  0  0  0  0
   -1.5182    1.4765   -1.3065 H   0  0  0  0  0  0  0  0  0  0  0  0
   -2.6983    0.2452   -0.5884 H   0  0  0  0  0  0  0  0  0  0  0  0
    0.5911    1.2389   -2.0475 H   0  0  0  0  0  0  0  0  0  0  0  0
    1.9139    2.0427   -1.0522 H   0  0  0  0  0  0  0  0  0  0  0  0
    0.2063    2.4422   -0.7951 H   0  0  0  0  0  0  0  0  0  0  0  0
    2.2854    0.4847    1.2986 H   0  0  0  0  0  0  0  0  0  0  0  0
    1.4358   -1.5948    1.4782 H   0  0  0  0  0  0  0  0  0  0  0  0
   -0.2007   -2.2572    1.1671 H   0  0  0  0  0  0  0  0  0  0  0  0
    1.1441   -2.8495    0.1486 H   0  0  0  0  0  0  0  0  0  0  0  0
    1.4632   -1.1785   -1.8394 H   0  0  0  0  0  0  0  0  0  0  0  0
  1  2  1  0
  2  3  1  0
  2  4  1  0
  4  5  1  0
  4  6  1  0
  4  7  1  0
  7  8  1  0
  7  9  1  0
  7  2  1  0
  1 10  1  0
  1 11  1  0
  1 12  1  0
  3 13  1  0
  3 14  1  0
  3 15  1  0
  5 16  1  0
  5 17  1  0
  5 18  1  0
  6 19  1  0
  8 20  1  0
  8 21  1  0
  8 22  1  0
  9 23  1  0
M  END
