
     RDKit          3D

 19 19  0  0  0  0  0  0  0  0999 V2000
   -2.0335   -0.3931    0.4245 C   0  0  0  0  0  0  0  0  0  0  0  0
   -0.6991   -0.1548   -0.1870 C   0  0  0  0  0  0  0  0  0  0  0  0
   -0.4647   -0.9732   -1.2973 O   0  0  0  0  0  0  0  0  0  0  0  0
   -0.3752    1.2885   -0.5181 C   0  0  0  0  0  0  0  0  0  0  0  0
    0.6069    1.3426    0.5799 C   0  0  0  0  0  0  0  0  0  0  0  0
    1.2639    2.1850    1.1682 O   0  0  0  0  0  0  0  0  0  0  0  0
    0.4846   -0.1461    0.7124 C   0  0  0  0  0  0  0  0  0  0  0  0
    1.7075   -0.8379    0.1521 C   0  0  0  0  0  0  0  0  0  0  0  0
    2.1057   -0.2315   -1.0181 O   0  0  0  0  0  0  0  0  0  0  0  0
   -2.6898    0.5094    0.3879 H   0  0  0  0  0  0  0  0  0  0  0  0
   -2.5977   -1.1696   -0.1719 H   0  0  0  0  0  0  0  0  0  0  0  0
   -2.0066   -0.7563    1.4588 H   0  0  0  0  0  0  0  0  0  0  0  0
   -1.3099   -1.3844   -1.6108 H   0  0  0  0  0  0  0  0  0  0  0  0
   -1.2165    2.0047   -0.3417 H   0  0  0  0  0  0  0  0  0  0  0  0
    0.0778    1.4318   -1.5121 H   0  0  0  0  0  0  0  0  0  0  0  0
    0.2933   -0.4867    1.7671 H   0  0  0  0  0  0  0  0  0  0  0  0
    1.4915   -1.9095   -0.0288 H   0  0  0  0  0  0  0  0  0  0  0  0
    2.5059   -0.7311    0.9414 H   0  0  0  0  0  0  0  0  0  0  0  0
    2.8561    0.4122   -0.9066 H   0  0  0  0  0  0  0  0  0  0  0  0
  1  2  1  0
  2  3  1  0
  2  4  1  0
  4  5  1  0
  5  6  2  0
  5  7  1  0
  7  8  1  0
  8  9  1  0
  7  2  1  0
  1 10  1  0
  1 11  1  0
  1 12  1  0
  3 13  1  0
  4 14  1  0
  4 15  1  0
  7 16  1  0
  8 17  1  0
  8 18  1  0
  9 19  1  0
M  END
