
     RDKit          3D

 18 19  0  0  0  0  0  0  0  0999 V2000
    1.6863    0.7980    0.5966 C   0  0  0  0  0  0  0  0  0  0  0  0
    0.6511    0.0540   -0.1981 C   0  0  0  0  0  0  0  0  0  0  0  0
    1.1357   -0.1151   -1.5168 O   0  0  0  0  0  0  0  0  0  0  0  0
    0.2478   -1.2900    0.3348 C   0  0  0  0  0  0  0  0  0  0  0  0
   -1.1276   -0.9419   -0.2123 C   0  0  0  0  0  0  0  0  0  0  0  0
   -1.8440    0.0460    0.6215 C   0  0  0  0  0  0  0  0  0  0  0  0
   -0.7324    0.5706   -0.1587 C   0  0  0  0  0  0  0  0  0  0  0  0
   -1.0828    1.3228   -1.2989 O   0  0  0  0  0  0  0  0  0  0  0  0
    2.6473    0.2549    0.4721 H   0  0  0  0  0  0  0  0  0  0  0  0
    1.8323    1.7832    0.0978 H   0  0  0  0  0  0  0  0  0  0  0  0
    1.4421    0.9149    1.6539 H   0  0  0  0  0  0  0  0  0  0  0  0
    1.5070   -1.0254   -1.6224 H   0  0  0  0  0  0  0  0  0  0  0  0
    0.7341   -2.1512   -0.1340 H   0  0  0  0  0  0  0  0  0  0  0  0
    0.2705   -1.2775    1.4520 H   0  0  0  0  0  0  0  0  0  0  0  0
   -1.4601   -1.3053   -1.1681 H   0  0  0  0  0  0  0  0  0  0  0  0
   -1.7737   -0.1568    1.7229 H   0  0  0  0  0  0  0  0  0  0  0  0
   -2.8764    0.2720    0.2947 H   0  0  0  0  0  0  0  0  0  0  0  0
   -1.2571    2.2467   -0.9372 H   0  0  0  0  0  0  0  0  0  0  0  0
  1  2  1  0
  2  3  1  0
  2  4  1  0
  4  5  1  0
  5  6  1  0
  6  7  1  0
  7  8  1  0
  7  2  1  0
  7  5  1  0
  1  9  1  0
  1 10  1  0
  1 11  1  0
  3 12  1  0
  4 13  1  0
  4 14  1  0
  5 15  1  0
  6 16  1  0
  6 17  1  0
  8 18  1  0
M  END
