
     RDKit          3D

 19 19  0  0  0  0  0  0  0  0999 V2000
   -1.0246    0.4316   -1.2812 C   0  0  0  0  0  0  0  0  0  0  0  0
   -0.4655   -0.0738    0.0136 C   0  0  0  0  0  0  0  0  0  0  0  0
   -1.5236   -0.7104    0.8902 C   0  0  0  0  0  0  0  0  0  0  0  0
    0.3183    0.9442    0.8052 C   0  0  0  0  0  0  0  0  0  0  0  0
    1.5853    0.3108    0.2761 C   0  0  0  0  0  0  0  0  0  0  0  0
    2.0580    0.8896   -0.8891 O   0  0  0  0  0  0  0  0  0  0  0  0
    0.7600   -0.9215   -0.0697 C   0  0  0  0  0  0  0  0  0  0  0  0
   -1.2726   -0.3944   -1.9623 H   0  0  0  0  0  0  0  0  0  0  0  0
   -1.9755    0.9618   -1.0464 H   0  0  0  0  0  0  0  0  0  0  0  0
   -0.3724    1.1494   -1.7972 H   0  0  0  0  0  0  0  0  0  0  0  0
   -1.0002   -1.0488    1.8280 H   0  0  0  0  0  0  0  0  0  0  0  0
   -1.9215   -1.5801    0.3296 H   0  0  0  0  0  0  0  0  0  0  0  0
   -2.3156    0.0142    1.1600 H   0  0  0  0  0  0  0  0  0  0  0  0
    0.1028    1.9642    0.3919 H   0  0  0  0  0  0  0  0  0  0  0  0
    0.1864    0.8565    1.9070 H   0  0  0  0  0  0  0  0  0  0  0  0
    2.3346    0.0383    1.0334 H   0  0  0  0  0  0  0  0  0  0  0  0
    2.7323    0.2561   -1.2664 H   0  0  0  0  0  0  0  0  0  0  0  0
    1.0003   -1.3709   -1.0431 H   0  0  0  0  0  0  0  0  0  0  0  0
    0.7936   -1.7168    0.7204 H   0  0  0  0  0  0  0  0  0  0  0  0
  1  2  1  0
  2  3  1  0
  2  4  1  0
  4  5  1  0
  5  6  1  0
  5  7  1  0
  7  2  1  0
  1  8  1  0
  1  9  1  0
  1 10  1  0
  3 11  1  0
  3 12  1  0
  3 13  1  0
  4 14  1  0
  4 15  1  0
  5 16  1  0
  6 17  1  0
  7 18  1  0
  7 19  1  0
M  END
