
     RDKit          3D

 21 22  0  0  0  0  0  0  0  0999 V2000
   -0.7905   -1.2219    0.9829 C   0  0  0  0  0  0  0  0  0  0  0  0
   -0.7236   -0.1040   -0.0334 C   0  0  0  0  0  0  0  0  0  0  0  0
   -2.0398    0.0530   -0.7493 C   0  0  0  0  0  0  0  0  0  0  0  0
   -0.4201    1.2041    0.5872 C   0  0  0  0  0  0  0  0  0  0  0  0
    0.7404    1.7155    0.2340 C   0  0  0  0  0  0  0  0  0  0  0  0
    1.3866    0.7746   -0.7070 C   0  0  0  0  0  0  0  0  0  0  0  0
    1.7461   -0.6084   -0.2102 C   0  0  0  0  0  0  0  0  0  0  0  0
    1.7477   -0.7630    1.1512 O   0  0  0  0  0  0  0  0  0  0  0  0
    0.4268   -0.3249   -0.9368 C   0  0  0  0  0  0  0  0  0  0  0  0
   -0.1735   -2.0798    0.6732 H   0  0  0  0  0  0  0  0  0  0  0  0
   -1.8418   -1.5487    1.0239 H   0  0  0  0  0  0  0  0  0  0  0  0
   -0.4446   -0.8041    1.9565 H   0  0  0  0  0  0  0  0  0  0  0  0
   -1.9524    0.9448   -1.4006 H   0  0  0  0  0  0  0  0  0  0  0  0
   -2.3303   -0.8069   -1.3453 H   0  0  0  0  0  0  0  0  0  0  0  0
   -2.8061    0.2769    0.0125 H   0  0  0  0  0  0  0  0  0  0  0  0
   -1.0754    1.7611    1.3003 H   0  0  0  0  0  0  0  0  0  0  0  0
    1.1655    2.6832    0.5784 H   0  0  0  0  0  0  0  0  0  0  0  0
    2.0229    1.1701   -1.5229 H   0  0  0  0  0  0  0  0  0  0  0  0
    2.5256   -1.1647   -0.7570 H   0  0  0  0  0  0  0  0  0  0  0  0
    2.5289   -0.3965    1.6167 H   0  0  0  0  0  0  0  0  0  0  0  0
    0.3076   -0.7606   -1.9496 H   0  0  0  0  0  0  0  0  0  0  0  0
  1  2  1  0
  2  3  1  0
  2  4  1  0
  4  5  2  0
  5  6  1  0
  6  7  1  0
  7  8  1  0
  7  9  1  0
  9  2  1  0
  9  6  1  0
  1 10  1  0
  1 11  1  0
  1 12  1  0
  3 13  1  0
  3 14  1  0
  3 15  1  0
  4 16  1  0
  5 17  1  0
  6 18  1  0
  7 19  1  0
  8 20  1  0
  9 21  1  0
M  END
