
     RDKit          3D

 18 18  0  0  0  0  0  0  0  0999 V2000
   -0.7209    1.7308   -0.1036 C   0  0  0  0  0  0  0  0  0  0  0  0
   -0.3669    0.3386    0.3159 C   0  0  0  0  0  0  0  0  0  0  0  0
   -0.2367    0.2825    1.7184 O   0  0  0  0  0  0  0  0  0  0  0  0
   -1.1740   -0.7734   -0.2678 C   0  0  0  0  0  0  0  0  0  0  0  0
    0.1134   -1.3335   -0.8619 C   0  0  0  0  0  0  0  0  0  0  0  0
    0.8879   -0.1275   -0.4037 C   0  0  0  0  0  0  0  0  0  0  0  0
    2.0398   -0.3745    0.4678 C   0  0  0  0  0  0  0  0  0  0  0  0
    1.8860   -0.8088    1.5943 O   0  0  0  0  0  0  0  0  0  0  0  0
    0.0755    2.4069    0.3092 H   0  0  0  0  0  0  0  0  0  0  0  0
   -0.8222    1.8714   -1.1783 H   0  0  0  0  0  0  0  0  0  0  0  0
   -1.6619    2.0715    0.4133 H   0  0  0  0  0  0  0  0  0  0  0  0
   -1.1584    0.1503    2.0783 H   0  0  0  0  0  0  0  0  0  0  0  0
   -1.5729   -1.5094    0.4812 H   0  0  0  0  0  0  0  0  0  0  0  0
   -1.9432   -0.4961   -1.0069 H   0  0  0  0  0  0  0  0  0  0  0  0
    0.0146   -1.4434   -1.9722 H   0  0  0  0  0  0  0  0  0  0  0  0
    0.4323   -2.3036   -0.4422 H   0  0  0  0  0  0  0  0  0  0  0  0
    1.1535    0.5003   -1.2863 H   0  0  0  0  0  0  0  0  0  0  0  0
    3.0540   -0.1821    0.1446 H   0  0  0  0  0  0  0  0  0  0  0  0
  1  2  1  0
  2  3  1  0
  2  4  1  0
  4  5  1  0
  5  6  1  0
  6  7  1  0
  7  8  2  0
  6  2  1  0
  1  9  1  0
  1 10  1  0
  1 11  1  0
  3 12  1  0
  4 13  1  0
  4 14  1  0
  5 15  1  0
  5 16  1  0
  6 17  1  0
  7 18  1  0
M  END
