
     RDKit          3D

 19 21  0  0  0  0  0  0  0  0999 V2000
   -2.1804    0.2353    0.0603 C   0  0  0  0  0  0  0  0  0  0  0  0
   -0.7642    0.2634    0.4688 C   0  0  0  0  0  0  0  0  0  0  0  0
   -0.5514    0.7244    1.7596 O   0  0  0  0  0  0  0  0  0  0  0  0
    0.2410    0.8147   -0.4961 C   0  0  0  0  0  0  0  0  0  0  0  0
   -0.0353   -0.4040   -1.3353 C   0  0  0  0  0  0  0  0  0  0  0  0
    0.0741   -0.9408    0.0755 C   0  0  0  0  0  0  0  0  0  0  0  0
    1.2319   -0.0543    0.2129 C   0  0  0  0  0  0  0  0  0  0  0  0
    2.5648   -0.1610    0.1277 C   0  0  0  0  0  0  0  0  0  0  0  0
    1.8482    0.2893    1.3646 O   0  0  0  0  0  0  0  0  0  0  0  0
   -2.4290    0.6595   -0.9062 H   0  0  0  0  0  0  0  0  0  0  0  0
   -2.7859    0.8079    0.8229 H   0  0  0  0  0  0  0  0  0  0  0  0
   -2.5331   -0.8343    0.0645 H   0  0  0  0  0  0  0  0  0  0  0  0
   -1.1843    0.2789    2.3949 H   0  0  0  0  0  0  0  0  0  0  0  0
    0.3506    1.7582   -0.8080 H   0  0  0  0  0  0  0  0  0  0  0  0
    0.8471   -0.6496   -1.9445 H   0  0  0  0  0  0  0  0  0  0  0  0
   -1.0015   -0.4768   -1.8182 H   0  0  0  0  0  0  0  0  0  0  0  0
   -0.0866   -1.8825    0.3642 H   0  0  0  0  0  0  0  0  0  0  0  0
    3.2434    0.6614   -0.2490 H   0  0  0  0  0  0  0  0  0  0  0  0
    3.1506   -1.0896    0.3077 H   0  0  0  0  0  0  0  0  0  0  0  0
  1  2  1  0
  2  3  1  0
  2  4  1  0
  4  5  1  0
  5  6  1  0
  6  7  1  0
  7  8  1  0
  8  9  1  0
  6  2  1  0
  9  7  1  0
  7  4  1  0
  1 10  1  0
  1 11  1  0
  1 12  1  0
  3 13  1  0
  4 14  1  0
  5 15  1  0
  5 16  1  0
  6 17  1  0
  8 18  1  0
  8 19  1  0
M  END
