
     RDKit          3D

 19 20  0  0  0  0  0  0  0  0999 V2000
   -1.9424    0.9074    0.3125 C   0  0  0  0  0  0  0  0  0  0  0  0
   -0.9212   -0.1340    0.0474 C   0  0  0  0  0  0  0  0  0  0  0  0
   -1.4668   -1.4838   -0.2460 C   0  0  0  0  0  0  0  0  0  0  0  0
   -1.1071   -2.4452    0.4079 O   0  0  0  0  0  0  0  0  0  0  0  0
    0.1265    0.2367   -1.0146 C   0  0  0  0  0  0  0  0  0  0  0  0
    1.1639   -0.1447    0.0489 C   0  0  0  0  0  0  0  0  0  0  0  0
    2.5408    0.4087   -0.0638 C   0  0  0  0  0  0  0  0  0  0  0  0
    1.0616   -1.3691    0.6666 O   0  0  0  0  0  0  0  0  0  0  0  0
    0.2408   -0.1836    1.0139 C   0  0  0  0  0  0  0  0  0  0  0  0
   -1.6289    1.7145    0.9889 H   0  0  0  0  0  0  0  0  0  0  0  0
   -2.8257    0.4061    0.7917 H   0  0  0  0  0  0  0  0  0  0  0  0
   -2.2783    1.3881   -0.6456 H   0  0  0  0  0  0  0  0  0  0  0  0
   -2.1872   -1.6554   -1.0339 H   0  0  0  0  0  0  0  0  0  0  0  0
    0.1818    1.3016   -1.2494 H   0  0  0  0  0  0  0  0  0  0  0  0
    0.1886   -0.4716   -1.8530 H   0  0  0  0  0  0  0  0  0  0  0  0
    3.0841    0.1892    0.8678 H   0  0  0  0  0  0  0  0  0  0  0  0
    2.5862    1.5018   -0.2242 H   0  0  0  0  0  0  0  0  0  0  0  0
    3.0646   -0.1580   -0.8827 H   0  0  0  0  0  0  0  0  0  0  0  0
    0.1189   -0.0086    2.0675 H   0  0  0  0  0  0  0  0  0  0  0  0
  1  2  1  0
  2  3  1  0
  3  4  2  0
  2  5  1  0
  5  6  1  0
  6  7  1  0
  6  8  1  0
  8  9  1  0
  9  2  1  0
  9  6  1  0
  1 10  1  0
  1 11  1  0
  1 12  1  0
  3 13  1  0
  5 14  1  0
  5 15  1  0
  7 16  1  0
  7 17  1  0
  7 18  1  0
  9 19  1  0
M  END
