
     RDKit          3D

 20 21  0  0  0  0  0  0  0  0999 V2000
    2.1175    0.1796    0.4942 C   0  0  0  0  0  0  0  0  0  0  0  0
    0.8673   -0.2097   -0.2282 C   0  0  0  0  0  0  0  0  0  0  0  0
    1.1449   -0.9891   -1.3529 O   0  0  0  0  0  0  0  0  0  0  0  0
   -0.0185   -0.9658    0.7252 C   0  0  0  0  0  0  0  0  0  0  0  0
   -1.3809   -0.7969    0.0980 C   0  0  0  0  0  0  0  0  0  0  0  0
   -2.1770    0.3367    0.6293 C   0  0  0  0  0  0  0  0  0  0  0  0
   -1.4182    0.4731   -0.6361 C   0  0  0  0  0  0  0  0  0  0  0  0
    0.0137    0.9354   -0.6524 C   0  0  0  0  0  0  0  0  0  0  0  0
    2.0867   -0.1235    1.5721 H   0  0  0  0  0  0  0  0  0  0  0  0
    2.3509    1.2487    0.4628 H   0  0  0  0  0  0  0  0  0  0  0  0
    2.9677   -0.3788    0.0264 H   0  0  0  0  0  0  0  0  0  0  0  0
    1.5776   -0.3853   -2.0200 H   0  0  0  0  0  0  0  0  0  0  0  0
    0.3221   -2.0256    0.7101 H   0  0  0  0  0  0  0  0  0  0  0  0
    0.0547   -0.5126    1.7338 H   0  0  0  0  0  0  0  0  0  0  0  0
   -1.8648   -1.7049   -0.2920 H   0  0  0  0  0  0  0  0  0  0  0  0
   -3.2736    0.3296    0.5565 H   0  0  0  0  0  0  0  0  0  0  0  0
   -1.7936    0.9349    1.4924 H   0  0  0  0  0  0  0  0  0  0  0  0
   -2.0102    0.5967   -1.5688 H   0  0  0  0  0  0  0  0  0  0  0  0
    0.2798    1.2002   -1.7098 H   0  0  0  0  0  0  0  0  0  0  0  0
    0.1541    1.8575   -0.0405 H   0  0  0  0  0  0  0  0  0  0  0  0
  1  2  1  0
  2  3  1  0
  2  4  1  0
  4  5  1  0
  5  6  1  0
  6  7  1  0
  7  8  1  0
  8  2  1  0
  7  5  1  0
  1  9  1  0
  1 10  1  0
  1 11  1  0
  3 12  1  0
  4 13  1  0
  4 14  1  0
  5 15  1  0
  6 16  1  0
  6 17  1  0
  7 18  1  0
  8 19  1  0
  8 20  1  0
M  END
