
     RDKit          3D

 21 21  0  0  0  0  0  0  0  0999 V2000
   -1.5110   -0.1058   -1.0740 C   0  0  0  0  0  0  0  0  0  0  0  0
   -0.3770   -0.2565   -0.0921 C   0  0  0  0  0  0  0  0  0  0  0  0
   -1.0017   -0.8445    1.1662 C   0  0  0  0  0  0  0  0  0  0  0  0
    0.6827   -1.2140   -0.5516 C   0  0  0  0  0  0  0  0  0  0  0  0
    2.0036   -0.5662   -0.1332 C   0  0  0  0  0  0  0  0  0  0  0  0
    1.6450    0.8480    0.1362 C   0  0  0  0  0  0  0  0  0  0  0  0
    0.3240    1.0049    0.1561 C   0  0  0  0  0  0  0  0  0  0  0  0
   -0.2906    2.3152    0.4036 C   0  0  0  0  0  0  0  0  0  0  0  0
   -1.5594    2.4071    0.4114 O   0  0  0  0  0  0  0  0  0  0  0  0
   -1.2511    0.4426   -1.9789 H   0  0  0  0  0  0  0  0  0  0  0  0
   -2.3315    0.4121   -0.5332 H   0  0  0  0  0  0  0  0  0  0  0  0
   -1.8882   -1.1481   -1.2799 H   0  0  0  0  0  0  0  0  0  0  0  0
   -0.2059   -1.2907    1.7518 H   0  0  0  0  0  0  0  0  0  0  0  0
   -1.5598   -0.0317    1.7032 H   0  0  0  0  0  0  0  0  0  0  0  0
   -1.7614   -1.5976    0.8653 H   0  0  0  0  0  0  0  0  0  0  0  0
    0.6504   -1.3863   -1.6281 H   0  0  0  0  0  0  0  0  0  0  0  0
    0.6295   -2.2038   -0.0484 H   0  0  0  0  0  0  0  0  0  0  0  0
    2.7473   -0.6077   -0.9559 H   0  0  0  0  0  0  0  0  0  0  0  0
    2.3855   -1.0024    0.8118 H   0  0  0  0  0  0  0  0  0  0  0  0
    2.4037    1.6131    0.2893 H   0  0  0  0  0  0  0  0  0  0  0  0
    0.2660    3.2123    0.5805 H   0  0  0  0  0  0  0  0  0  0  0  0
  1  2  1  0
  2  3  1  0
  2  4  1  0
  4  5  1  0
  5  6  1  0
  6  7  2  0
  7  8  1  0
  8  9  2  0
  7  2  1  0
  1 10  1  0
  1 11  1  0
  1 12  1  0
  3 13  1  0
  3 14  1  0
  3 15  1  0
  4 16  1  0
  4 17  1  0
  5 18  1  0
  5 19  1  0
  6 20  1  0
  8 21  1  0
M  END
