
     RDKit          3D

 16 16  0  0  0  0  0  0  0  0999 V2000
    1.5133   -0.7414   -0.1755 C   0  0  0  0  0  0  0  0  0  0  0  0
    0.5779    0.3970    0.0590 C   0  0  0  0  0  0  0  0  0  0  0  0
    1.2559    1.5861    0.3093 O   0  0  0  0  0  0  0  0  0  0  0  0
   -0.6176    0.4979   -0.8177 C   0  0  0  0  0  0  0  0  0  0  0  0
   -1.4716   -0.0486    0.2849 C   0  0  0  0  0  0  0  0  0  0  0  0
   -1.8278   -1.3877    0.1765 O   0  0  0  0  0  0  0  0  0  0  0  0
   -0.3247    0.1096    1.2181 C   0  0  0  0  0  0  0  0  0  0  0  0
   -0.1220    0.0490    2.4113 O   0  0  0  0  0  0  0  0  0  0  0  0
    2.5406   -0.3377   -0.4082 H   0  0  0  0  0  0  0  0  0  0  0  0
    1.6470   -1.3672    0.7303 H   0  0  0  0  0  0  0  0  0  0  0  0
    1.2143   -1.4186   -0.9961 H   0  0  0  0  0  0  0  0  0  0  0  0
    0.7215    2.3566    0.0462 H   0  0  0  0  0  0  0  0  0  0  0  0
   -0.6163   -0.0674   -1.7616 H   0  0  0  0  0  0  0  0  0  0  0  0
   -0.8583    1.5625   -1.0366 H   0  0  0  0  0  0  0  0  0  0  0  0
   -2.3507    0.6062    0.5061 H   0  0  0  0  0  0  0  0  0  0  0  0
   -1.2817   -1.7963   -0.5461 H   0  0  0  0  0  0  0  0  0  0  0  0
  1  2  1  0
  2  3  1  0
  2  4  1  0
  4  5  1  0
  5  6  1  0
  5  7  1  0
  7  8  2  0
  7  2  1  0
  1  9  1  0
  1 10  1  0
  1 11  1  0
  3 12  1  0
  4 13  1  0
  4 14  1  0
  5 15  1  0
  6 16  1  0
M  END
