
     RDKit          3D

 20 20  0  0  0  0  0  0  0  0999 V2000
   -2.0163    0.1830    0.3437 C   0  0  0  0  0  0  0  0  0  0  0  0
   -0.8018   -0.2032   -0.4377 C   0  0  0  0  0  0  0  0  0  0  0  0
   -1.1803   -0.8114   -1.6420 O   0  0  0  0  0  0  0  0  0  0  0  0
    0.1601   -1.0684    0.3130 C   0  0  0  0  0  0  0  0  0  0  0  0
    1.4107   -0.3474    0.7446 C   0  0  0  0  0  0  0  0  0  0  0  0
    2.0099    0.5054   -0.3288 C   0  0  0  0  0  0  0  0  0  0  0  0
    1.1323    0.6815   -1.4067 O   0  0  0  0  0  0  0  0  0  0  0  0
   -0.0863    1.0890   -0.8490 C   0  0  0  0  0  0  0  0  0  0  0  0
   -2.3742    1.1722   -0.0586 H   0  0  0  0  0  0  0  0  0  0  0  0
   -1.8546    0.3208    1.4119 H   0  0  0  0  0  0  0  0  0  0  0  0
   -2.8535   -0.5224    0.1433 H   0  0  0  0  0  0  0  0  0  0  0  0
   -1.6174   -1.6695   -1.5270 H   0  0  0  0  0  0  0  0  0  0  0  0
    0.4774   -1.9104   -0.3602 H   0  0  0  0  0  0  0  0  0  0  0  0
   -0.2901   -1.5057    1.2351 H   0  0  0  0  0  0  0  0  0  0  0  0
    2.1605   -1.1129    1.0296 H   0  0  0  0  0  0  0  0  0  0  0  0
    1.1536    0.2762    1.6310 H   0  0  0  0  0  0  0  0  0  0  0  0
    2.2388    1.5218    0.0908 H   0  0  0  0  0  0  0  0  0  0  0  0
    2.9760    0.1024   -0.6958 H   0  0  0  0  0  0  0  0  0  0  0  0
    0.1017    1.7268    0.0191 H   0  0  0  0  0  0  0  0  0  0  0  0
   -0.7468    1.5723   -1.6074 H   0  0  0  0  0  0  0  0  0  0  0  0
  1  2  1  0
  2  3  1  0
  2  4  1  0
  4  5  1  0
  5  6  1  0
  6  7  1  0
  7  8  1  0
  8  2  1  0
  1  9  1  0
  1 10  1  0
  1 11  1  0
  3 12  1  0
  4 13  1  0
  4 14  1  0
  5 15  1  0
  5 16  1  0
  6 17  1  0
  6 18  1  0
  8 19  1  0
  8 20  1  0
M  END
