
     RDKit          3D

 21 22  0  0  0  0  0  0  0  0999 V2000
    0.3828    1.3251    0.3793 C   0  0  0  0  0  0  0  0  0  0  0  0
    0.1518   -0.0200   -0.2271 C   0  0  0  0  0  0  0  0  0  0  0  0
    1.4414   -0.6805   -0.5896 C   0  0  0  0  0  0  0  0  0  0  0  0
    2.6849    0.0520   -0.1562 C   0  0  0  0  0  0  0  0  0  0  0  0
    2.2888   -0.1010   -1.5324 O   0  0  0  0  0  0  0  0  0  0  0  0
   -0.6059   -0.9515    0.7047 C   0  0  0  0  0  0  0  0  0  0  0  0
   -1.9790   -0.3466    0.6007 C   0  0  0  0  0  0  0  0  0  0  0  0
   -1.9982    0.0292   -0.8650 C   0  0  0  0  0  0  0  0  0  0  0  0
   -0.7085    0.1367   -1.3046 O   0  0  0  0  0  0  0  0  0  0  0  0
    0.9331    1.9383   -0.3635 H   0  0  0  0  0  0  0  0  0  0  0  0
   -0.5915    1.8763    0.5267 H   0  0  0  0  0  0  0  0  0  0  0  0
    0.9568    1.3302    1.3062 H   0  0  0  0  0  0  0  0  0  0  0  0
    1.4728   -1.7900   -0.4924 H   0  0  0  0  0  0  0  0  0  0  0  0
    2.6678    1.0630    0.2385 H   0  0  0  0  0  0  0  0  0  0  0  0
    3.5508   -0.5636    0.1618 H   0  0  0  0  0  0  0  0  0  0  0  0
   -0.2023   -0.9500    1.7290 H   0  0  0  0  0  0  0  0  0  0  0  0
   -0.6105   -1.9407    0.2256 H   0  0  0  0  0  0  0  0  0  0  0  0
   -1.9811    0.5622    1.2408 H   0  0  0  0  0  0  0  0  0  0  0  0
   -2.7878   -1.0445    0.8677 H   0  0  0  0  0  0  0  0  0  0  0  0
   -2.6141    0.9345   -1.0552 H   0  0  0  0  0  0  0  0  0  0  0  0
   -2.4523   -0.8593   -1.3950 H   0  0  0  0  0  0  0  0  0  0  0  0
  1  2  1  0
  2  3  1  0
  3  4  1  0
  4  5  1  0
  2  6  1  0
  6  7  1  0
  7  8  1  0
  8  9  1  0
  9  2  1  0
  5  3  1  0
  1 10  1  0
  1 11  1  0
  1 12  1  0
  3 13  1  0
  4 14  1  0
  4 15  1  0
  6 16  1  0
  6 17  1  0
  7 18  1  0
  7 19  1  0
  8 20  1  0
  8 21  1  0
M  END
