
     RDKit          3D

 17 18  0  0  0  0  0  0  0  0999 V2000
   -1.1954   -1.4267   -0.4521 C   0  0  0  0  0  0  0  0  0  0  0  0
   -0.9330    0.0168   -0.2300 C   0  0  0  0  0  0  0  0  0  0  0  0
   -2.0247    0.7537    0.2561 O   0  0  0  0  0  0  0  0  0  0  0  0
    0.0436    0.7081   -1.1160 C   0  0  0  0  0  0  0  0  0  0  0  0
    0.4957    2.0100   -0.7560 O   0  0  0  0  0  0  0  0  0  0  0  0
    0.6131    1.8030    0.6091 C   0  0  0  0  0  0  0  0  0  0  0  0
    0.8342    2.5233    1.6102 O   0  0  0  0  0  0  0  0  0  0  0  0
    0.3674    0.3804    0.3769 C   0  0  0  0  0  0  0  0  0  0  0  0
    1.4786   -0.5966    0.5470 C   0  0  0  0  0  0  0  0  0  0  0  0
   -2.1788   -1.5406   -0.9893 H   0  0  0  0  0  0  0  0  0  0  0  0
   -1.3784   -1.9086    0.5526 H   0  0  0  0  0  0  0  0  0  0  0  0
   -0.3987   -1.9319   -1.0006 H   0  0  0  0  0  0  0  0  0  0  0  0
   -1.7329    1.5222    0.8156 H   0  0  0  0  0  0  0  0  0  0  0  0
    0.6083    0.1749   -1.8766 H   0  0  0  0  0  0  0  0  0  0  0  0
    1.9490   -0.5526    1.5367 H   0  0  0  0  0  0  0  0  0  0  0  0
    1.1676   -1.6177    0.3031 H   0  0  0  0  0  0  0  0  0  0  0  0
    2.2844   -0.3176   -0.1868 H   0  0  0  0  0  0  0  0  0  0  0  0
  1  2  1  0
  2  3  1  0
  2  4  1  0
  4  5  1  0
  5  6  1  0
  6  7  2  0
  6  8  1  0
  8  9  1  0
  8  2  1  0
  8  4  1  0
  1 10  1  0
  1 11  1  0
  1 12  1  0
  3 13  1  0
  4 14  1  0
  9 15  1  0
  9 16  1  0
  9 17  1  0
M  END
