
     RDKit          3D

 21 21  0  0  0  0  0  0  0  0999 V2000
    1.0748   -1.2460    1.0756 C   0  0  0  0  0  0  0  0  0  0  0  0
    0.2939   -0.2591    0.2147 C   0  0  0  0  0  0  0  0  0  0  0  0
   -1.1369   -0.5547    0.2635 C   0  0  0  0  0  0  0  0  0  0  0  0
   -2.0702    0.2980   -0.5127 C   0  0  0  0  0  0  0  0  0  0  0  0
   -2.0900    1.6243   -0.2005 O   0  0  0  0  0  0  0  0  0  0  0  0
    0.9564   -0.2180   -1.1492 C   0  0  0  0  0  0  0  0  0  0  0  0
    1.9571    0.6737   -0.4981 C   0  0  0  0  0  0  0  0  0  0  0  0
    3.1238    0.8906   -0.6845 O   0  0  0  0  0  0  0  0  0  0  0  0
    0.8418    1.0952    0.4030 C   0  0  0  0  0  0  0  0  0  0  0  0
    0.4636   -1.6117    1.9212 H   0  0  0  0  0  0  0  0  0  0  0  0
    2.0388   -0.8298    1.4104 H   0  0  0  0  0  0  0  0  0  0  0  0
    1.2910   -2.1253    0.4249 H   0  0  0  0  0  0  0  0  0  0  0  0
   -1.4686   -0.5476    1.3260 H   0  0  0  0  0  0  0  0  0  0  0  0
   -1.2843   -1.6086   -0.0667 H   0  0  0  0  0  0  0  0  0  0  0  0
   -3.1104   -0.0858   -0.4524 H   0  0  0  0  0  0  0  0  0  0  0  0
   -1.8196    0.2341   -1.6148 H   0  0  0  0  0  0  0  0  0  0  0  0
   -2.3929    1.8051    0.7265 H   0  0  0  0  0  0  0  0  0  0  0  0
    1.4386   -1.1741   -1.4529 H   0  0  0  0  0  0  0  0  0  0  0  0
    0.3786    0.2999   -1.9336 H   0  0  0  0  0  0  0  0  0  0  0  0
    1.1586    1.3853    1.4273 H   0  0  0  0  0  0  0  0  0  0  0  0
    0.3556    1.9544   -0.0794 H   0  0  0  0  0  0  0  0  0  0  0  0
  1  2  1  0
  2  3  1  0
  3  4  1  0
  4  5  1  0
  2  6  1  0
  6  7  1  0
  7  8  2  0
  7  9  1  0
  9  2  1  0
  1 10  1  0
  1 11  1  0
  1 12  1  0
  3 13  1  0
  3 14  1  0
  4 15  1  0
  4 16  1  0
  5 17  1  0
  6 18  1  0
  6 19  1  0
  9 20  1  0
  9 21  1  0
M  END
