
     RDKit          3D

 19 19  0  0  0  0  0  0  0  0999 V2000
   -0.8980    1.2358   -0.9623 C   0  0  0  0  0  0  0  0  0  0  0  0
   -0.0608    0.2506   -0.1899 C   0  0  0  0  0  0  0  0  0  0  0  0
    1.3929    0.5361   -0.1614 C   0  0  0  0  0  0  0  0  0  0  0  0
    2.1770   -0.4379    0.5940 C   0  0  0  0  0  0  0  0  0  0  0  0
    2.4657   -1.5267    0.1064 O   0  0  0  0  0  0  0  0  0  0  0  0
   -0.7337   -0.0052    1.1622 C   0  0  0  0  0  0  0  0  0  0  0  0
   -1.6557   -0.9093    0.3870 C   0  0  0  0  0  0  0  0  0  0  0  0
   -2.8227   -1.1867    0.5208 O   0  0  0  0  0  0  0  0  0  0  0  0
   -0.4652   -1.1898   -0.4744 C   0  0  0  0  0  0  0  0  0  0  0  0
   -0.7776    2.2590   -0.5813 H   0  0  0  0  0  0  0  0  0  0  0  0
   -0.7513    1.1614   -2.0664 H   0  0  0  0  0  0  0  0  0  0  0  0
   -1.9692    0.9198   -0.7975 H   0  0  0  0  0  0  0  0  0  0  0  0
    1.5741    1.5571    0.2095 H   0  0  0  0  0  0  0  0  0  0  0  0
    1.7295    0.5518   -1.2373 H   0  0  0  0  0  0  0  0  0  0  0  0
    2.5171   -0.2171    1.5972 H   0  0  0  0  0  0  0  0  0  0  0  0
   -1.1673    0.9097    1.5480 H   0  0  0  0  0  0  0  0  0  0  0  0
   -0.0671   -0.5925    1.8067 H   0  0  0  0  0  0  0  0  0  0  0  0
    0.1749   -1.9158    0.0654 H   0  0  0  0  0  0  0  0  0  0  0  0
   -0.6628   -1.4003   -1.5267 H   0  0  0  0  0  0  0  0  0  0  0  0
  1  2  1  0
  2  3  1  0
  3  4  1  0
  4  5  2  0
  2  6  1  0
  6  7  1  0
  7  8  2  0
  7  9  1  0
  9  2  1  0
  1 10  1  0
  1 11  1  0
  1 12  1  0
  3 13  1  0
  3 14  1  0
  4 15  1  0
  6 16  1  0
  6 17  1  0
  9 18  1  0
  9 19  1  0
M  END
