
     RDKit          3D

 19 19  0  0  0  0  0  0  0  0999 V2000
    0.5797    0.9864    1.0251 C   0  0  0  0  0  0  0  0  0  0  0  0
    0.2928   -0.1600    0.1138 C   0  0  0  0  0  0  0  0  0  0  0  0
    1.3107   -1.0894   -0.0185 O   0  0  0  0  0  0  0  0  0  0  0  0
    2.5607   -0.7561   -0.4973 C   0  0  0  0  0  0  0  0  0  0  0  0
    2.7282    0.4455   -0.8097 O   0  0  0  0  0  0  0  0  0  0  0  0
   -0.3342    0.2626   -1.1953 C   0  0  0  0  0  0  0  0  0  0  0  0
   -1.7768    0.4668   -0.8926 C   0  0  0  0  0  0  0  0  0  0  0  0
   -2.0888   -0.1920    0.2190 C   0  0  0  0  0  0  0  0  0  0  0  0
   -0.8911   -0.8972    0.7649 C   0  0  0  0  0  0  0  0  0  0  0  0
   -0.3321    1.6279    1.0481 H   0  0  0  0  0  0  0  0  0  0  0  0
    0.6903    0.5863    2.0554 H   0  0  0  0  0  0  0  0  0  0  0  0
    1.4078    1.6333    0.7126 H   0  0  0  0  0  0  0  0  0  0  0  0
    3.3072   -1.5298   -0.5746 H   0  0  0  0  0  0  0  0  0  0  0  0
    0.1001    1.1870   -1.6041 H   0  0  0  0  0  0  0  0  0  0  0  0
   -0.2251   -0.5954   -1.9049 H   0  0  0  0  0  0  0  0  0  0  0  0
   -2.5042    1.0464   -1.4492 H   0  0  0  0  0  0  0  0  0  0  0  0
   -3.0562   -0.2364    0.6919 H   0  0  0  0  0  0  0  0  0  0  0  0
   -0.9356   -1.9466    0.4451 H   0  0  0  0  0  0  0  0  0  0  0  0
   -0.8334   -0.8393    1.8704 H   0  0  0  0  0  0  0  0  0  0  0  0
  1  2  1  0
  2  3  1  0
  3  4  1  0
  4  5  2  0
  2  6  1  0
  6  7  1  0
  7  8  2  0
  8  9  1  0
  9  2  1  0
  1 10  1  0
  1 11  1  0
  1 12  1  0
  4 13  1  0
  6 14  1  0
  6 15  1  0
  7 16  1  0
  8 17  1  0
  9 18  1  0
  9 19  1  0
M  END
