
     RDKit          3D

 18 19  0  0  0  0  0  0  0  0999 V2000
   -2.0638   -0.3253    0.5776 C   0  0  0  0  0  0  0  0  0  0  0  0
   -0.9982    0.5260   -0.0676 C   0  0  0  0  0  0  0  0  0  0  0  0
   -1.2910    1.9077   -0.1318 O   0  0  0  0  0  0  0  0  0  0  0  0
   -0.3454   -0.0131   -1.3569 C   0  0  0  0  0  0  0  0  0  0  0  0
    0.4033    0.1698   -0.1071 C   0  0  0  0  0  0  0  0  0  0  0  0
    1.0777   -0.8937    0.6427 C   0  0  0  0  0  0  0  0  0  0  0  0
    2.2859   -0.0394    0.2445 C   0  0  0  0  0  0  0  0  0  0  0  0
    1.4472    1.0674   -0.0044 O   0  0  0  0  0  0  0  0  0  0  0  0
   -1.7223   -0.5741    1.6093 H   0  0  0  0  0  0  0  0  0  0  0  0
   -3.0084    0.2345    0.6757 H   0  0  0  0  0  0  0  0  0  0  0  0
   -2.2964   -1.2382   -0.0092 H   0  0  0  0  0  0  0  0  0  0  0  0
   -0.4962    2.3915   -0.4839 H   0  0  0  0  0  0  0  0  0  0  0  0
   -0.1371    0.7144   -2.1650 H   0  0  0  0  0  0  0  0  0  0  0  0
   -0.7464   -0.9767   -1.6999 H   0  0  0  0  0  0  0  0  0  0  0  0
    1.0162   -0.9039    1.7443 H   0  0  0  0  0  0  0  0  0  0  0  0
    1.1652   -1.8996    0.2007 H   0  0  0  0  0  0  0  0  0  0  0  0
    2.7420   -0.3564   -0.7228 H   0  0  0  0  0  0  0  0  0  0  0  0
    2.9678    0.2090    1.0537 H   0  0  0  0  0  0  0  0  0  0  0  0
  1  2  1  0
  2  3  1  0
  2  4  1  0
  4  5  1  0
  5  6  1  0
  6  7  1  0
  7  8  1  0
  5  2  1  0
  8  5  1  0
  1  9  1  0
  1 10  1  0
  1 11  1  0
  3 12  1  0
  4 13  1  0
  4 14  1  0
  6 15  1  0
  6 16  1  0
  7 17  1  0
  7 18  1  0
M  END
