
     RDKit          3D

 19 19  0  0  0  0  0  0  0  0999 V2000
   -0.2870   -1.6646   -0.5069 C   0  0  0  0  0  0  0  0  0  0  0  0
    0.0256   -0.3328    0.1426 C   0  0  0  0  0  0  0  0  0  0  0  0
    1.5363   -0.2103    0.3342 C   0  0  0  0  0  0  0  0  0  0  0  0
    2.1993   -0.2823   -0.8817 O   0  0  0  0  0  0  0  0  0  0  0  0
   -0.4513    0.8156   -0.7175 C   0  0  0  0  0  0  0  0  0  0  0  0
   -1.4219    1.5560    0.1609 C   0  0  0  0  0  0  0  0  0  0  0  0
   -1.4662    0.9049    1.4104 O   0  0  0  0  0  0  0  0  0  0  0  0
   -0.6748   -0.2125    1.4249 C   0  0  0  0  0  0  0  0  0  0  0  0
   -0.5906   -0.9881    2.4059 O   0  0  0  0  0  0  0  0  0  0  0  0
    0.6509   -2.0633   -0.9522 H   0  0  0  0  0  0  0  0  0  0  0  0
   -1.0485   -1.4972   -1.2826 H   0  0  0  0  0  0  0  0  0  0  0  0
   -0.6667   -2.3711    0.2705 H   0  0  0  0  0  0  0  0  0  0  0  0
    1.7786    0.7447    0.8348 H   0  0  0  0  0  0  0  0  0  0  0  0
    1.8737   -1.0335    1.0069 H   0  0  0  0  0  0  0  0  0  0  0  0
    2.6237    0.5859   -1.0893 H   0  0  0  0  0  0  0  0  0  0  0  0
   -0.9328    0.4081   -1.6386 H   0  0  0  0  0  0  0  0  0  0  0  0
    0.3790    1.4781   -1.0184 H   0  0  0  0  0  0  0  0  0  0  0  0
   -2.4474    1.5650   -0.2414 H   0  0  0  0  0  0  0  0  0  0  0  0
   -1.0799    2.5971    0.3376 H   0  0  0  0  0  0  0  0  0  0  0  0
  1  2  1  0
  2  3  1  0
  3  4  1  0
  2  5  1  0
  5  6  1  0
  6  7  1  0
  7  8  1  0
  8  9  2  0
  8  2  1  0
  1 10  1  0
  1 11  1  0
  1 12  1  0
  3 13  1  0
  3 14  1  0
  4 15  1  0
  5 16  1  0
  5 17  1  0
  6 18  1  0
  6 19  1  0
M  END
