
     RDKit          3D

 21 22  0  0  0  0  0  0  0  0999 V2000
    1.9846   -0.1049   -0.8488 C   0  0  0  0  0  0  0  0  0  0  0  0
    0.9364   -0.2294    0.2215 C   0  0  0  0  0  0  0  0  0  0  0  0
    1.4802   -1.0210    1.2415 O   0  0  0  0  0  0  0  0  0  0  0  0
    0.6291    1.0905    0.7844 C   0  0  0  0  0  0  0  0  0  0  0  0
   -0.6063    1.5960    0.6193 C   0  0  0  0  0  0  0  0  0  0  0  0
   -1.6475    0.6716    0.1462 C   0  0  0  0  0  0  0  0  0  0  0  0
   -1.1344    0.0436   -1.1499 C   0  0  0  0  0  0  0  0  0  0  0  0
   -0.3166   -0.8922   -0.2683 C   0  0  0  0  0  0  0  0  0  0  0  0
   -1.3957   -0.6837    0.8038 C   0  0  0  0  0  0  0  0  0  0  0  0
    1.9447    0.9255   -1.2761 H   0  0  0  0  0  0  0  0  0  0  0  0
    1.8762   -0.8911   -1.6280 H   0  0  0  0  0  0  0  0  0  0  0  0
    2.9929   -0.2000   -0.3854 H   0  0  0  0  0  0  0  0  0  0  0  0
    1.3163   -1.9638    0.9673 H   0  0  0  0  0  0  0  0  0  0  0  0
    1.3741    1.6625    1.3275 H   0  0  0  0  0  0  0  0  0  0  0  0
   -0.7797    2.6334    0.8352 H   0  0  0  0  0  0  0  0  0  0  0  0
   -2.6757    1.0108    0.1336 H   0  0  0  0  0  0  0  0  0  0  0  0
   -1.9648   -0.5109   -1.6220 H   0  0  0  0  0  0  0  0  0  0  0  0
   -0.5580    0.7095   -1.7953 H   0  0  0  0  0  0  0  0  0  0  0  0
   -0.2180   -1.9103   -0.6338 H   0  0  0  0  0  0  0  0  0  0  0  0
   -0.9870   -0.5769    1.8298 H   0  0  0  0  0  0  0  0  0  0  0  0
   -2.2507   -1.3594    0.6976 H   0  0  0  0  0  0  0  0  0  0  0  0
  1  2  1  0
  2  3  1  0
  2  4  1  0
  4  5  2  0
  5  6  1  0
  6  7  1  0
  7  8  1  0
  8  9  1  0
  8  2  1  0
  9  6  1  0
  1 10  1  0
  1 11  1  0
  1 12  1  0
  3 13  1  0
  4 14  1  0
  5 15  1  0
  6 16  1  0
  7 17  1  0
  7 18  1  0
  8 19  1  0
  9 20  1  0
  9 21  1  0
M  END
