
     RDKit          3D

 23 23  0  0  0  0  0  0  0  0999 V2000
   -2.4639    0.3359   -1.1302 C   0  0  0  0  0  0  0  0  0  0  0  0
   -1.3989   -0.0496   -0.1217 C   0  0  0  0  0  0  0  0  0  0  0  0
   -1.9863   -0.9663    0.9384 C   0  0  0  0  0  0  0  0  0  0  0  0
   -0.6945    1.1605    0.3825 C   0  0  0  0  0  0  0  0  0  0  0  0
    0.4829    0.6520   -0.3766 C   0  0  0  0  0  0  0  0  0  0  0  0
    1.7267    0.4176    0.4540 C   0  0  0  0  0  0  0  0  0  0  0  0
    2.8457   -0.0953   -0.4271 C   0  0  0  0  0  0  0  0  0  0  0  0
    3.9788   -0.3023    0.3649 O   0  0  0  0  0  0  0  0  0  0  0  0
   -0.2154   -0.5195   -0.6925 O   0  0  0  0  0  0  0  0  0  0  0  0
   -1.9498    0.8245   -1.9749 H   0  0  0  0  0  0  0  0  0  0  0  0
   -3.1365    1.0512   -0.6138 H   0  0  0  0  0  0  0  0  0  0  0  0
   -3.0810   -0.5217   -1.4377 H   0  0  0  0  0  0  0  0  0  0  0  0
   -1.2656   -1.7394    1.2599 H   0  0  0  0  0  0  0  0  0  0  0  0
   -2.8462   -1.5145    0.4855 H   0  0  0  0  0  0  0  0  0  0  0  0
   -2.3354   -0.3934    1.8245 H   0  0  0  0  0  0  0  0  0  0  0  0
   -0.5856    1.2646    1.4709 H   0  0  0  0  0  0  0  0  0  0  0  0
   -1.0371    2.1347   -0.0478 H   0  0  0  0  0  0  0  0  0  0  0  0
    0.7328    1.1754   -1.3254 H   0  0  0  0  0  0  0  0  0  0  0  0
    2.0650    1.3940    0.8581 H   0  0  0  0  0  0  0  0  0  0  0  0
    1.5715   -0.2972    1.2662 H   0  0  0  0  0  0  0  0  0  0  0  0
    2.5101   -1.0137   -0.9360 H   0  0  0  0  0  0  0  0  0  0  0  0
    3.0286    0.7173   -1.1886 H   0  0  0  0  0  0  0  0  0  0  0  0
    4.0541    0.4648    0.9672 H   0  0  0  0  0  0  0  0  0  0  0  0
  1  2  1  0
  2  3  1  0
  2  4  1  0
  4  5  1  0
  5  6  1  0
  6  7  1  0
  7  8  1  0
  5  9  1  0
  9  2  1  0
  1 10  1  0
  1 11  1  0
  1 12  1  0
  3 13  1  0
  3 14  1  0
  3 15  1  0
  4 16  1  0
  4 17  1  0
  5 18  1  0
  6 19  1  0
  6 20  1  0
  7 21  1  0
  7 22  1  0
  8 23  1  0
M  END
