
     RDKit          3D

 21 22  0  0  0  0  0  0  0  0999 V2000
   -0.7657    0.9781    1.4053 C   0  0  0  0  0  0  0  0  0  0  0  0
   -0.5118    0.0421    0.2099 C   0  0  0  0  0  0  0  0  0  0  0  0
   -1.6036   -1.0417    0.1651 C   0  0  0  0  0  0  0  0  0  0  0  0
   -2.8615   -0.4866    0.0267 O   0  0  0  0  0  0  0  0  0  0  0  0
   -0.0522    0.6699   -0.9773 C   0  0  0  0  0  0  0  0  0  0  0  0
    1.2211    1.0851   -1.3414 O   0  0  0  0  0  0  0  0  0  0  0  0
    1.3627   -0.3049   -1.6129 C   0  0  0  0  0  0  0  0  0  0  0  0
    0.7950   -0.4031   -0.1859 C   0  0  0  0  0  0  0  0  0  0  0  0
    1.8676    0.1843    0.7480 C   0  0  0  0  0  0  0  0  0  0  0  0
    0.0860    1.6959    1.3900 H   0  0  0  0  0  0  0  0  0  0  0  0
   -1.6847    1.5501    1.2299 H   0  0  0  0  0  0  0  0  0  0  0  0
   -0.7229    0.4382    2.3549 H   0  0  0  0  0  0  0  0  0  0  0  0
   -1.4015   -1.7477   -0.6506 H   0  0  0  0  0  0  0  0  0  0  0  0
   -1.5014   -1.6275    1.1207 H   0  0  0  0  0  0  0  0  0  0  0  0
   -3.3306   -0.8228   -0.7844 H   0  0  0  0  0  0  0  0  0  0  0  0
   -0.5426    0.2581   -1.9158 H   0  0  0  0  0  0  0  0  0  0  0  0
    2.4353   -0.5101   -1.6875 H   0  0  0  0  0  0  0  0  0  0  0  0
    0.7271   -0.6944   -2.4022 H   0  0  0  0  0  0  0  0  0  0  0  0
    2.3085    1.0941    0.3492 H   0  0  0  0  0  0  0  0  0  0  0  0
    2.6727   -0.6083    0.7714 H   0  0  0  0  0  0  0  0  0  0  0  0
    1.5026    0.2513    1.7869 H   0  0  0  0  0  0  0  0  0  0  0  0
  1  2  1  0
  2  3  1  0
  3  4  1  0
  2  5  1  0
  5  6  1  0
  6  7  1  0
  7  8  1  0
  8  9  1  0
  8  2  1  0
  8  5  1  0
  1 10  1  0
  1 11  1  0
  1 12  1  0
  3 13  1  0
  3 14  1  0
  4 15  1  0
  5 16  1  0
  7 17  1  0
  7 18  1  0
  9 19  1  0
  9 20  1  0
  9 21  1  0
M  END
