
     RDKit          3D

 20 20  0  0  0  0  0  0  0  0999 V2000
    1.0045   -1.6342   -0.1362 C   0  0  0  0  0  0  0  0  0  0  0  0
    0.3949   -0.2800    0.0609 C   0  0  0  0  0  0  0  0  0  0  0  0
    1.3735    0.8031   -0.3333 C   0  0  0  0  0  0  0  0  0  0  0  0
    0.8296    2.0757   -0.1590 O   0  0  0  0  0  0  0  0  0  0  0  0
   -0.1959    0.0133    1.3973 C   0  0  0  0  0  0  0  0  0  0  0  0
   -1.5592    0.0694    0.7471 C   0  0  0  0  0  0  0  0  0  0  0  0
   -0.9522   -0.2063   -0.6127 C   0  0  0  0  0  0  0  0  0  0  0  0
   -1.1152    0.7828   -1.5513 O   0  0  0  0  0  0  0  0  0  0  0  0
    2.0216   -1.6165    0.2625 H   0  0  0  0  0  0  0  0  0  0  0  0
    1.0068   -1.8337   -1.2367 H   0  0  0  0  0  0  0  0  0  0  0  0
    0.3577   -2.3949    0.3276 H   0  0  0  0  0  0  0  0  0  0  0  0
    2.2694    0.6677    0.3094 H   0  0  0  0  0  0  0  0  0  0  0  0
    1.7270    0.6871   -1.3773 H   0  0  0  0  0  0  0  0  0  0  0  0
    0.4756    2.4150   -1.0224 H   0  0  0  0  0  0  0  0  0  0  0  0
    0.0368    1.0330    1.8136 H   0  0  0  0  0  0  0  0  0  0  0  0
   -0.0467   -0.7472    2.1611 H   0  0  0  0  0  0  0  0  0  0  0  0
   -2.1881   -0.7477    1.1585 H   0  0  0  0  0  0  0  0  0  0  0  0
   -2.0500    1.0516    0.7376 H   0  0  0  0  0  0  0  0  0  0  0  0
   -1.3408   -1.2009   -0.9807 H   0  0  0  0  0  0  0  0  0  0  0  0
   -2.0494    1.0626   -1.5659 H   0  0  0  0  0  0  0  0  0  0  0  0
  1  2  1  0
  2  3  1  0
  3  4  1  0
  2  5  1  0
  5  6  1  0
  6  7  1  0
  7  8  1  0
  7  2  1  0
  1  9  1  0
  1 10  1  0
  1 11  1  0
  3 12  1  0
  3 13  1  0
  4 14  1  0
  5 15  1  0
  5 16  1  0
  6 17  1  0
  6 18  1  0
  7 19  1  0
  8 20  1  0
M  END
