
     RDKit          3D

 15 15  0  0  0  0  0  0  0  0999 V2000
   -1.2454   -0.9474    0.2358 C   0  0  0  0  0  0  0  0  0  0  0  0
   -0.3798    0.1348   -0.3670 C   0  0  0  0  0  0  0  0  0  0  0  0
    1.0723   -0.1546   -0.5909 C   0  0  0  0  0  0  0  0  0  0  0  0
    1.8050   -0.4860    0.6329 C   0  0  0  0  0  0  0  0  0  0  0  0
    2.1609    0.3672    1.4127 O   0  0  0  0  0  0  0  0  0  0  0  0
   -0.8689    1.5259   -0.1379 C   0  0  0  0  0  0  0  0  0  0  0  0
   -1.0252    0.9356   -1.3856 O   0  0  0  0  0  0  0  0  0  0  0  0
   -1.0092   -0.9813    1.3394 H   0  0  0  0  0  0  0  0  0  0  0  0
   -2.3146   -0.7086    0.1488 H   0  0  0  0  0  0  0  0  0  0  0  0
   -0.9838   -1.9326   -0.2417 H   0  0  0  0  0  0  0  0  0  0  0  0
    1.1268   -1.0099   -1.3213 H   0  0  0  0  0  0  0  0  0  0  0  0
    1.5306    0.7278   -1.0588 H   0  0  0  0  0  0  0  0  0  0  0  0
    2.0403   -1.5087    0.8584 H   0  0  0  0  0  0  0  0  0  0  0  0
   -1.7669    1.6759    0.4973 H   0  0  0  0  0  0  0  0  0  0  0  0
   -0.1423    2.3620   -0.0221 H   0  0  0  0  0  0  0  0  0  0  0  0
  1  2  1  0
  2  3  1  0
  3  4  1  0
  4  5  2  0
  2  6  1  0
  6  7  1  0
  7  2  1  0
  1  8  1  0
  1  9  1  0
  1 10  1  0
  3 11  1  0
  3 12  1  0
  4 13  1  0
  6 14  1  0
  6 15  1  0
M  END
