
     RDKit          3D

 23 23  0  0  0  0  0  0  0  0999 V2000
   -2.0143   -0.6272   -1.0361 C   0  0  0  0  0  0  0  0  0  0  0  0
   -0.8814    0.0285   -0.2207 C   0  0  0  0  0  0  0  0  0  0  0  0
   -1.6262    0.7169    0.9331 C   0  0  0  0  0  0  0  0  0  0  0  0
   -0.0459   -1.0851    0.2838 C   0  0  0  0  0  0  0  0  0  0  0  0
    1.3824   -0.7662    0.5329 C   0  0  0  0  0  0  0  0  0  0  0  0
    1.5395   -0.4002    1.8818 O   0  0  0  0  0  0  0  0  0  0  0  0
    1.9318    0.2322   -0.4073 C   0  0  0  0  0  0  0  0  0  0  0  0
    0.9780    1.2945   -0.8301 C   0  0  0  0  0  0  0  0  0  0  0  0
   -0.2953    0.9168   -1.0477 O   0  0  0  0  0  0  0  0  0  0  0  0
   -2.5930   -1.2118   -0.3036 H   0  0  0  0  0  0  0  0  0  0  0  0
   -2.6150    0.1614   -1.5286 H   0  0  0  0  0  0  0  0  0  0  0  0
   -1.5119   -1.2744   -1.7801 H   0  0  0  0  0  0  0  0  0  0  0  0
   -2.2462   -0.0281    1.4803 H   0  0  0  0  0  0  0  0  0  0  0  0
   -0.9615    1.3000    1.5653 H   0  0  0  0  0  0  0  0  0  0  0  0
   -2.3753    1.3931    0.4294 H   0  0  0  0  0  0  0  0  0  0  0  0
   -0.0834   -1.9639   -0.4245 H   0  0  0  0  0  0  0  0  0  0  0  0
   -0.4710   -1.4938    1.2395 H   0  0  0  0  0  0  0  0  0  0  0  0
    1.9896   -1.7127    0.4260 H   0  0  0  0  0  0  0  0  0  0  0  0
    2.2954    0.2080    2.0103 H   0  0  0  0  0  0  0  0  0  0  0  0
    2.8345    0.7359    0.0197 H   0  0  0  0  0  0  0  0  0  0  0  0
    2.3122   -0.3039   -1.3182 H   0  0  0  0  0  0  0  0  0  0  0  0
    1.3845    1.7207   -1.7964 H   0  0  0  0  0  0  0  0  0  0  0  0
    1.0724    2.1593   -0.1086 H   0  0  0  0  0  0  0  0  0  0  0  0
  1  2  1  0
  2  3  1  0
  2  4  1  0
  4  5  1  0
  5  6  1  0
  5  7  1  0
  7  8  1  0
  8  9  1  0
  9  2  1  0
  1 10  1  0
  1 11  1  0
  1 12  1  0
  3 13  1  0
  3 14  1  0
  3 15  1  0
  4 16  1  0
  4 17  1  0
  5 18  1  0
  6 19  1  0
  7 20  1  0
  7 21  1  0
  8 22  1  0
  8 23  1  0
M  END
