
     RDKit          3D

 19 20  0  0  0  0  0  0  0  0999 V2000
    1.4034    1.1823    1.0281 C   0  0  0  0  0  0  0  0  0  0  0  0
    0.7562    0.1401    0.1650 C   0  0  0  0  0  0  0  0  0  0  0  0
    1.5597   -0.1195   -1.0501 C   0  0  0  0  0  0  0  0  0  0  0  0
    1.0825   -0.4473   -2.1148 O   0  0  0  0  0  0  0  0  0  0  0  0
    0.2896   -1.1020    0.8903 C   0  0  0  0  0  0  0  0  0  0  0  0
   -1.1407   -0.8674    0.5147 C   0  0  0  0  0  0  0  0  0  0  0  0
   -1.5560   -0.4624   -0.8275 C   0  0  0  0  0  0  0  0  0  0  0  0
   -2.8854   -0.0597   -0.9655 O   0  0  0  0  0  0  0  0  0  0  0  0
   -0.6898    0.4834   -0.0866 C   0  0  0  0  0  0  0  0  0  0  0  0
    0.6683    1.4576    1.8223 H   0  0  0  0  0  0  0  0  0  0  0  0
    2.3085    0.7375    1.4772 H   0  0  0  0  0  0  0  0  0  0  0  0
    1.5957    2.0682    0.4123 H   0  0  0  0  0  0  0  0  0  0  0  0
    2.6323   -0.0097   -0.9809 H   0  0  0  0  0  0  0  0  0  0  0  0
    0.5049   -1.0167    1.9762 H   0  0  0  0  0  0  0  0  0  0  0  0
    0.7691   -2.0047    0.4609 H   0  0  0  0  0  0  0  0  0  0  0  0
   -1.8827   -0.8288    1.3339 H   0  0  0  0  0  0  0  0  0  0  0  0
   -1.1805   -0.9761   -1.7500 H   0  0  0  0  0  0  0  0  0  0  0  0
   -3.1198    0.4638   -0.1457 H   0  0  0  0  0  0  0  0  0  0  0  0
   -1.1155    1.3615    0.4108 H   0  0  0  0  0  0  0  0  0  0  0  0
  1  2  1  0
  2  3  1  0
  3  4  2  0
  2  5  1  0
  5  6  1  0
  6  7  1  0
  7  8  1  0
  7  9  1  0
  9  2  1  0
  9  6  1  0
  1 10  1  0
  1 11  1  0
  1 12  1  0
  3 13  1  0
  5 14  1  0
  5 15  1  0
  6 16  1  0
  7 17  1  0
  8 18  1  0
  9 19  1  0
M  END
