
     RDKit          3D

 21 22  0  0  0  0  0  0  0  0999 V2000
    1.3394   -1.4182   -0.3337 C   0  0  0  0  0  0  0  0  0  0  0  0
    1.3254    0.0229    0.0626 C   0  0  0  0  0  0  0  0  0  0  0  0
    2.7423    0.5776    0.0050 C   0  0  0  0  0  0  0  0  0  0  0  0
    0.7707    0.1462    1.4333 O   0  0  0  0  0  0  0  0  0  0  0  0
    0.2557    0.8903    0.2530 C   0  0  0  0  0  0  0  0  0  0  0  0
   -1.2048    0.7134    0.0606 C   0  0  0  0  0  0  0  0  0  0  0  0
   -1.8351   -0.6192    0.1999 C   0  0  0  0  0  0  0  0  0  0  0  0
   -3.0053    0.3377    0.4896 C   0  0  0  0  0  0  0  0  0  0  0  0
   -2.0318    1.1321    1.1064 O   0  0  0  0  0  0  0  0  0  0  0  0
    1.6607   -1.4803   -1.3953 H   0  0  0  0  0  0  0  0  0  0  0  0
    0.4381   -1.9769   -0.1373 H   0  0  0  0  0  0  0  0  0  0  0  0
    2.1572   -1.9150    0.2696 H   0  0  0  0  0  0  0  0  0  0  0  0
    3.3967    0.1364    0.7755 H   0  0  0  0  0  0  0  0  0  0  0  0
    2.7001    1.6975    0.0854 H   0  0  0  0  0  0  0  0  0  0  0  0
    3.1428    0.2956   -0.9859 H   0  0  0  0  0  0  0  0  0  0  0  0
    0.4931    1.9603    0.4649 H   0  0  0  0  0  0  0  0  0  0  0  0
   -1.5728    1.1831   -0.8776 H   0  0  0  0  0  0  0  0  0  0  0  0
   -1.9513   -1.1723   -0.7511 H   0  0  0  0  0  0  0  0  0  0  0  0
   -1.6999   -1.1960    1.1080 H   0  0  0  0  0  0  0  0  0  0  0  0
   -3.7744   -0.0724    1.1422 H   0  0  0  0  0  0  0  0  0  0  0  0
   -3.3466    0.7569   -0.4795 H   0  0  0  0  0  0  0  0  0  0  0  0
  1  2  1  0
  2  3  1  0
  2  4  1  0
  4  5  1  0
  5  6  1  0
  6  7  1  0
  7  8  1  0
  8  9  1  0
  5  2  1  0
  9  6  1  0
  1 10  1  0
  1 11  1  0
  1 12  1  0
  3 13  1  0
  3 14  1  0
  3 15  1  0
  5 16  1  0
  6 17  1  0
  7 18  1  0
  7 19  1  0
  8 20  1  0
  8 21  1  0
M  END
