
     RDKit          3D

 17 18  0  0  0  0  0  0  0  0999 V2000
   -1.0748   -0.4294    1.1271 C   0  0  0  0  0  0  0  0  0  0  0  0
   -0.2865    0.0100   -0.0667 C   0  0  0  0  0  0  0  0  0  0  0  0
   -1.1062    0.4991   -1.2173 C   0  0  0  0  0  0  0  0  0  0  0  0
    0.8564    0.9447    0.3491 C   0  0  0  0  0  0  0  0  0  0  0  0
    1.8017   -0.1746    0.0013 C   0  0  0  0  0  0  0  0  0  0  0  0
    1.4660   -1.4553    0.6779 O   0  0  0  0  0  0  0  0  0  0  0  0
    0.8308   -0.9677   -0.4658 C   0  0  0  0  0  0  0  0  0  0  0  0
   -2.0752   -0.7723    0.7745 H   0  0  0  0  0  0  0  0  0  0  0  0
   -1.2845    0.4519    1.7869 H   0  0  0  0  0  0  0  0  0  0  0  0
   -0.5867   -1.1947    1.7354 H   0  0  0  0  0  0  0  0  0  0  0  0
   -0.5351    1.2575   -1.7715 H   0  0  0  0  0  0  0  0  0  0  0  0
   -2.0341    0.9551   -0.7915 H   0  0  0  0  0  0  0  0  0  0  0  0
   -1.3547   -0.3888   -1.8493 H   0  0  0  0  0  0  0  0  0  0  0  0
    0.9053    1.1696    1.4113 H   0  0  0  0  0  0  0  0  0  0  0  0
    0.9341    1.7530   -0.3675 H   0  0  0  0  0  0  0  0  0  0  0  0
    2.8685   -0.0595    0.0019 H   0  0  0  0  0  0  0  0  0  0  0  0
    0.6752   -1.5988   -1.3357 H   0  0  0  0  0  0  0  0  0  0  0  0
  1  2  1  0
  2  3  1  0
  2  4  1  0
  4  5  1  0
  5  6  1  0
  6  7  1  0
  7  2  1  0
  7  5  1  0
  1  8  1  0
  1  9  1  0
  1 10  1  0
  3 11  1  0
  3 12  1  0
  3 13  1  0
  4 14  1  0
  4 15  1  0
  5 16  1  0
  7 17  1  0
M  END
