
     RDKit          3D

 19 20  0  0  0  0  0  0  0  0999 V2000
    1.2463    1.0510   -0.9098 C   0  0  0  0  0  0  0  0  0  0  0  0
    0.5751    0.2235    0.1291 C   0  0  0  0  0  0  0  0  0  0  0  0
    1.5310   -0.4015    1.0636 C   0  0  0  0  0  0  0  0  0  0  0  0
    1.6575   -0.0842    2.2301 O   0  0  0  0  0  0  0  0  0  0  0  0
   -0.7021    0.7314    0.7045 C   0  0  0  0  0  0  0  0  0  0  0  0
   -1.3333    0.3989   -0.6267 C   0  0  0  0  0  0  0  0  0  0  0  0
   -0.4391   -0.7759   -0.3446 C   0  0  0  0  0  0  0  0  0  0  0  0
   -0.2617   -1.8069   -1.0283 O   0  0  0  0  0  0  0  0  0  0  0  0
   -1.0062   -0.6981    1.0627 C   0  0  0  0  0  0  0  0  0  0  0  0
    1.1339    2.1302   -0.6205 H   0  0  0  0  0  0  0  0  0  0  0  0
    0.9092    0.8556   -1.9422 H   0  0  0  0  0  0  0  0  0  0  0  0
    2.3561    0.8766   -0.9182 H   0  0  0  0  0  0  0  0  0  0  0  0
    2.1576   -1.1958    0.6728 H   0  0  0  0  0  0  0  0  0  0  0  0
   -0.8668    1.5459    1.2593 H   0  0  0  0  0  0  0  0  0  0  0  0
   -2.4148    0.1651   -0.5316 H   0  0  0  0  0  0  0  0  0  0  0  0
   -1.0684    1.0342   -1.4708 H   0  0  0  0  0  0  0  0  0  0  0  0
   -0.9738   -2.0266   -1.6742 H   0  0  0  0  0  0  0  0  0  0  0  0
   -0.3968   -1.1500    1.8407 H   0  0  0  0  0  0  0  0  0  0  0  0
   -2.1033   -0.8731    1.1040 H   0  0  0  0  0  0  0  0  0  0  0  0
  1  2  1  0
  2  3  1  0
  3  4  2  0
  2  5  1  0
  5  6  1  0
  6  7  1  0
  7  8  1  0
  7  9  1  0
  7  2  1  0
  9  5  1  0
  1 10  1  0
  1 11  1  0
  1 12  1  0
  3 13  1  0
  5 14  1  0
  6 15  1  0
  6 16  1  0
  8 17  1  0
  9 18  1  0
  9 19  1  0
M  END
