
     RDKit          3D

 19 20  0  0  0  0  0  0  0  0999 V2000
   -1.4777   -0.8812    1.3415 C   0  0  0  0  0  0  0  0  0  0  0  0
   -0.9992    0.1022    0.3262 C   0  0  0  0  0  0  0  0  0  0  0  0
   -1.9721    0.9438   -0.2140 O   0  0  0  0  0  0  0  0  0  0  0  0
    0.2569    0.8516    0.6443 C   0  0  0  0  0  0  0  0  0  0  0  0
    0.4021    1.0213   -0.8488 C   0  0  0  0  0  0  0  0  0  0  0  0
   -0.0056   -0.4199   -0.6773 C   0  0  0  0  0  0  0  0  0  0  0  0
    0.9892   -0.4492    0.4433 C   0  0  0  0  0  0  0  0  0  0  0  0
    2.4072   -0.2544    0.0295 C   0  0  0  0  0  0  0  0  0  0  0  0
    3.1408    0.5501    0.5985 O   0  0  0  0  0  0  0  0  0  0  0  0
   -1.4317   -1.9417    0.9619 H   0  0  0  0  0  0  0  0  0  0  0  0
   -2.5705   -0.6932    1.4976 H   0  0  0  0  0  0  0  0  0  0  0  0
   -0.9042   -0.8668    2.2836 H   0  0  0  0  0  0  0  0  0  0  0  0
   -2.8564    0.8338    0.1893 H   0  0  0  0  0  0  0  0  0  0  0  0
    0.4146    1.5383    1.3479 H   0  0  0  0  0  0  0  0  0  0  0  0
   -0.3629    1.7009   -1.2273 H   0  0  0  0  0  0  0  0  0  0  0  0
    1.4160    1.0950   -1.2394 H   0  0  0  0  0  0  0  0  0  0  0  0
   -0.1575   -1.0971   -1.3928 H   0  0  0  0  0  0  0  0  0  0  0  0
    0.8574   -1.2157    1.2131 H   0  0  0  0  0  0  0  0  0  0  0  0
    2.8536   -0.8182   -0.7963 H   0  0  0  0  0  0  0  0  0  0  0  0
  1  2  1  0
  2  3  1  0
  2  4  1  0
  4  5  1  0
  5  6  1  0
  6  7  1  0
  7  8  1  0
  8  9  2  0
  6  2  1  0
  7  4  1  0
  1 10  1  0
  1 11  1  0
  1 12  1  0
  3 13  1  0
  4 14  1  0
  5 15  1  0
  5 16  1  0
  6 17  1  0
  7 18  1  0
  8 19  1  0
M  END
