
     RDKit          3D

 23 23  0  0  0  0  0  0  0  0999 V2000
   -1.2319   -1.2539   -0.0237 C   0  0  0  0  0  0  0  0  0  0  0  0
   -0.8801    0.1962    0.0157 C   0  0  0  0  0  0  0  0  0  0  0  0
   -2.2162    0.9629   -0.0198 C   0  0  0  0  0  0  0  0  0  0  0  0
   -0.1655    0.6468   -1.2554 C   0  0  0  0  0  0  0  0  0  0  0  0
    0.8582   -0.2057   -1.6118 O   0  0  0  0  0  0  0  0  0  0  0  0
    1.9391    0.0917   -0.7863 C   0  0  0  0  0  0  0  0  0  0  0  0
    1.7720   -0.6410    0.4986 C   0  0  0  0  0  0  0  0  0  0  0  0
    0.9063    0.0149    1.5038 C   0  0  0  0  0  0  0  0  0  0  0  0
   -0.2097    0.6285    1.0947 O   0  0  0  0  0  0  0  0  0  0  0  0
   -1.1375   -1.6655    1.0039 H   0  0  0  0  0  0  0  0  0  0  0  0
   -2.3112   -1.4380   -0.3047 H   0  0  0  0  0  0  0  0  0  0  0  0
   -0.6496   -1.8370   -0.7728 H   0  0  0  0  0  0  0  0  0  0  0  0
   -1.9872    2.0381    0.1390 H   0  0  0  0  0  0  0  0  0  0  0  0
   -2.8705    0.6187    0.8046 H   0  0  0  0  0  0  0  0  0  0  0  0
   -2.6836    0.7924   -1.0103 H   0  0  0  0  0  0  0  0  0  0  0  0
   -0.8703    0.8785   -2.0672 H   0  0  0  0  0  0  0  0  0  0  0  0
    0.3133    1.6315   -0.9817 H   0  0  0  0  0  0  0  0  0  0  0  0
    2.0303    1.1761   -0.5684 H   0  0  0  0  0  0  0  0  0  0  0  0
    2.8975   -0.2052   -1.2770 H   0  0  0  0  0  0  0  0  0  0  0  0
    2.8058   -0.7251    0.9497 H   0  0  0  0  0  0  0  0  0  0  0  0
    1.4888   -1.7186    0.3105 H   0  0  0  0  0  0  0  0  0  0  0  0
    0.6640   -0.7551    2.2948 H   0  0  0  0  0  0  0  0  0  0  0  0
    1.5378    0.7688    2.0640 H   0  0  0  0  0  0  0  0  0  0  0  0
  1  2  1  0
  2  3  1  0
  2  4  1  0
  4  5  1  0
  5  6  1  0
  6  7  1  0
  7  8  1  0
  8  9  1  0
  9  2  1  0
  1 10  1  0
  1 11  1  0
  1 12  1  0
  3 13  1  0
  3 14  1  0
  3 15  1  0
  4 16  1  0
  4 17  1  0
  6 18  1  0
  6 19  1  0
  7 20  1  0
  7 21  1  0
  8 22  1  0
  8 23  1  0
M  END
