
     RDKit          3D

 23 24  0  0  0  0  0  0  0  0999 V2000
   -1.8839   -0.9092   -0.8260 C   0  0  0  0  0  0  0  0  0  0  0  0
   -1.1386    0.0369    0.0584 C   0  0  0  0  0  0  0  0  0  0  0  0
   -1.8053    1.4143    0.1670 C   0  0  0  0  0  0  0  0  0  0  0  0
   -0.5654   -0.4225    1.3678 C   0  0  0  0  0  0  0  0  0  0  0  0
    0.3112   -0.0324    0.2677 C   0  0  0  0  0  0  0  0  0  0  0  0
    1.1420    1.1704    0.2526 C   0  0  0  0  0  0  0  0  0  0  0  0
    2.3085    0.9671   -0.3468 C   0  0  0  0  0  0  0  0  0  0  0  0
    2.4113   -0.4340   -0.8224 C   0  0  0  0  0  0  0  0  0  0  0  0
    1.1724   -1.1101   -0.3240 C   0  0  0  0  0  0  0  0  0  0  0  0
   -2.8616   -1.1917   -0.4059 H   0  0  0  0  0  0  0  0  0  0  0  0
   -1.3532   -1.8200   -1.0919 H   0  0  0  0  0  0  0  0  0  0  0  0
   -2.0905   -0.3638   -1.7872 H   0  0  0  0  0  0  0  0  0  0  0  0
   -2.8204    1.2055    0.6108 H   0  0  0  0  0  0  0  0  0  0  0  0
   -1.9770    1.8646   -0.8063 H   0  0  0  0  0  0  0  0  0  0  0  0
   -1.2801    2.0511    0.8958 H   0  0  0  0  0  0  0  0  0  0  0  0
   -0.6698    0.1769    2.2796 H   0  0  0  0  0  0  0  0  0  0  0  0
   -0.7312   -1.5195    1.5606 H   0  0  0  0  0  0  0  0  0  0  0  0
    0.8640    2.1246    0.6723 H   0  0  0  0  0  0  0  0  0  0  0  0
    3.0882    1.7018   -0.4815 H   0  0  0  0  0  0  0  0  0  0  0  0
    2.4262   -0.5101   -1.9336 H   0  0  0  0  0  0  0  0  0  0  0  0
    3.3102   -0.8750   -0.3906 H   0  0  0  0  0  0  0  0  0  0  0  0
    0.6848   -1.7318   -1.0706 H   0  0  0  0  0  0  0  0  0  0  0  0
    1.4584   -1.7930    0.5290 H   0  0  0  0  0  0  0  0  0  0  0  0
  1  2  1  0
  2  3  1  0
  2  4  1  0
  4  5  1  0
  5  6  1  0
  6  7  2  0
  7  8  1  0
  8  9  1  0
  5  2  1  0
  9  5  1  0
  1 10  1  0
  1 11  1  0
  1 12  1  0
  3 13  1  0
  3 14  1  0
  3 15  1  0
  4 16  1  0
  4 17  1  0
  6 18  1  0
  7 19  1  0
  8 20  1  0
  8 21  1  0
  9 22  1  0
  9 23  1  0
M  END
