
     RDKit          3D

 25 26  0  0  0  0  0  0  0  0999 V2000
    1.2105   -0.2539   -1.7603 C   0  0  0  0  0  0  0  0  0  0  0  0
    0.7236   -0.4205   -0.3215 C   0  0  0  0  0  0  0  0  0  0  0  0
    1.5996   -1.2357    0.5817 C   0  0  0  0  0  0  0  0  0  0  0  0
   -0.7168   -0.4091   -0.0672 C   0  0  0  0  0  0  0  0  0  0  0  0
   -1.3854   -1.2408    0.9749 C   0  0  0  0  0  0  0  0  0  0  0  0
   -1.5640    0.3158   -1.1075 C   0  0  0  0  0  0  0  0  0  0  0  0
   -0.8126    1.5846   -0.7236 C   0  0  0  0  0  0  0  0  0  0  0  0
    0.0404    0.8033    0.2115 C   0  0  0  0  0  0  0  0  0  0  0  0
    0.4435    1.2844    1.5422 C   0  0  0  0  0  0  0  0  0  0  0  0
    1.2708    0.8272   -2.0418 H   0  0  0  0  0  0  0  0  0  0  0  0
    0.4769   -0.7423   -2.4431 H   0  0  0  0  0  0  0  0  0  0  0  0
    2.2380   -0.6502   -1.8885 H   0  0  0  0  0  0  0  0  0  0  0  0
    2.5068   -1.6236    0.0519 H   0  0  0  0  0  0  0  0  0  0  0  0
    1.8698   -0.6600    1.4988 H   0  0  0  0  0  0  0  0  0  0  0  0
    1.0802   -2.1559    0.9593 H   0  0  0  0  0  0  0  0  0  0  0  0
   -2.4539   -1.3807    0.6501 H   0  0  0  0  0  0  0  0  0  0  0  0
   -0.9678   -2.2770    1.0084 H   0  0  0  0  0  0  0  0  0  0  0  0
   -1.4373   -0.7646    1.9679 H   0  0  0  0  0  0  0  0  0  0  0  0
   -1.4159   -0.0201   -2.1441 H   0  0  0  0  0  0  0  0  0  0  0  0
   -2.6335    0.3116   -0.8611 H   0  0  0  0  0  0  0  0  0  0  0  0
   -0.2848    2.0673   -1.5859 H   0  0  0  0  0  0  0  0  0  0  0  0
   -1.4665    2.2972   -0.1623 H   0  0  0  0  0  0  0  0  0  0  0  0
    1.5322    1.5509    1.5119 H   0  0  0  0  0  0  0  0  0  0  0  0
   -0.0816    2.2393    1.7941 H   0  0  0  0  0  0  0  0  0  0  0  0
    0.2276    0.5528    2.3541 H   0  0  0  0  0  0  0  0  0  0  0  0
  1  2  1  0
  2  3  1  0
  2  4  1  0
  4  5  1  0
  4  6  1  0
  6  7  1  0
  7  8  1  0
  8  9  1  0
  8  2  1  0
  8  4  1  0
  1 10  1  0
  1 11  1  0
  1 12  1  0
  3 13  1  0
  3 14  1  0
  3 15  1  0
  5 16  1  0
  5 17  1  0
  5 18  1  0
  6 19  1  0
  6 20  1  0
  7 21  1  0
  7 22  1  0
  9 23  1  0
  9 24  1  0
  9 25  1  0
M  END
