
     RDKit          3D

 18 18  0  0  0  0  0  0  0  0999 V2000
   -0.2925    1.1234   -0.8983 C   0  0  0  0  0  0  0  0  0  0  0  0
   -0.5296    0.0062    0.1017 C   0  0  0  0  0  0  0  0  0  0  0  0
    0.5557   -0.9790    0.2721 C   0  0  0  0  0  0  0  0  0  0  0  0
    0.3681   -1.8915    1.0860 O   0  0  0  0  0  0  0  0  0  0  0  0
    1.8430   -0.9776   -0.4369 C   0  0  0  0  0  0  0  0  0  0  0  0
    1.9246    0.0792   -1.3054 O   0  0  0  0  0  0  0  0  0  0  0  0
   -1.2113    0.4788    1.3788 C   0  0  0  0  0  0  0  0  0  0  0  0
   -1.9375   -0.3530    0.4223 C   0  0  0  0  0  0  0  0  0  0  0  0
    0.5275    1.7410   -0.5231 H   0  0  0  0  0  0  0  0  0  0  0  0
   -0.1991    0.7404   -1.9174 H   0  0  0  0  0  0  0  0  0  0  0  0
   -1.1883    1.8211   -0.8940 H   0  0  0  0  0  0  0  0  0  0  0  0
    2.0913   -1.9519   -0.9001 H   0  0  0  0  0  0  0  0  0  0  0  0
    2.6431   -0.8199    0.3492 H   0  0  0  0  0  0  0  0  0  0  0  0
    2.6284    0.7041   -1.0728 H   0  0  0  0  0  0  0  0  0  0  0  0
   -1.3677    1.5599    1.5166 H   0  0  0  0  0  0  0  0  0  0  0  0
   -0.9154   -0.0317    2.3399 H   0  0  0  0  0  0  0  0  0  0  0  0
   -2.2130   -1.3869    0.6918 H   0  0  0  0  0  0  0  0  0  0  0  0
   -2.7275    0.1374   -0.2103 H   0  0  0  0  0  0  0  0  0  0  0  0
  1  2  1  0
  2  3  1  0
  3  4  2  0
  3  5  1  0
  5  6  1  0
  2  7  1  0
  7  8  1  0
  8  2  1  0
  1  9  1  0
  1 10  1  0
  1 11  1  0
  5 12  1  0
  5 13  1  0
  6 14  1  0
  7 15  1  0
  7 16  1  0
  8 17  1  0
  8 18  1  0
M  END
