
     RDKit          3D

 20 20  0  0  0  0  0  0  0  0999 V2000
   -1.5874   -0.6787   -0.7542 C   0  0  0  0  0  0  0  0  0  0  0  0
   -0.7744    0.0572    0.2365 C   0  0  0  0  0  0  0  0  0  0  0  0
   -1.3554    0.0857    1.5229 O   0  0  0  0  0  0  0  0  0  0  0  0
   -0.4281    1.4916   -0.1761 C   0  0  0  0  0  0  0  0  0  0  0  0
    0.8824    1.2784    0.5979 C   0  0  0  0  0  0  0  0  0  0  0  0
    0.6763   -0.2193    0.3380 C   0  0  0  0  0  0  0  0  0  0  0  0
    1.4194   -0.6499   -0.8668 C   0  0  0  0  0  0  0  0  0  0  0  0
    1.0383   -0.9622    1.4526 O   0  0  0  0  0  0  0  0  0  0  0  0
   -1.7766   -0.0215   -1.6443 H   0  0  0  0  0  0  0  0  0  0  0  0
   -2.6072   -0.8684   -0.3141 H   0  0  0  0  0  0  0  0  0  0  0  0
   -1.1949   -1.6548   -1.0609 H   0  0  0  0  0  0  0  0  0  0  0  0
   -1.0991   -0.7187    2.0520 H   0  0  0  0  0  0  0  0  0  0  0  0
   -0.2802    1.5670   -1.2568 H   0  0  0  0  0  0  0  0  0  0  0  0
   -1.0831    2.2549    0.2860 H   0  0  0  0  0  0  0  0  0  0  0  0
    0.7136    1.5877    1.6388 H   0  0  0  0  0  0  0  0  0  0  0  0
    1.7318    1.7116    0.0655 H   0  0  0  0  0  0  0  0  0  0  0  0
    2.5114   -0.4191   -0.7040 H   0  0  0  0  0  0  0  0  0  0  0  0
    1.1444   -0.1827   -1.8064 H   0  0  0  0  0  0  0  0  0  0  0  0
    1.3848   -1.7734   -0.9095 H   0  0  0  0  0  0  0  0  0  0  0  0
    0.6840   -1.8855    1.3028 H   0  0  0  0  0  0  0  0  0  0  0  0
  1  2  1  0
  2  3  1  0
  2  4  1  0
  4  5  1  0
  5  6  1  0
  6  7  1  0
  6  8  1  0
  6  2  1  0
  1  9  1  0
  1 10  1  0
  1 11  1  0
  3 12  1  0
  4 13  1  0
  4 14  1  0
  5 15  1  0
  5 16  1  0
  7 17  1  0
  7 18  1  0
  7 19  1  0
  8 20  1  0
M  END
