
     RDKit          3D

 25 25  0  0  0  0  0  0  0  0999 V2000
    1.4712    1.1188   -0.8049 C   0  0  0  0  0  0  0  0  0  0  0  0
    0.7139    0.3342    0.2169 C   0  0  0  0  0  0  0  0  0  0  0  0
    1.4962    0.1179    1.5013 C   0  0  0  0  0  0  0  0  0  0  0  0
   -0.2427   -0.7222   -0.1344 C   0  0  0  0  0  0  0  0  0  0  0  0
   -0.5600   -1.8234    0.8388 C   0  0  0  0  0  0  0  0  0  0  0  0
   -0.4164   -1.1412   -1.5765 C   0  0  0  0  0  0  0  0  0  0  0  0
   -0.7360    0.6372    0.3031 C   0  0  0  0  0  0  0  0  0  0  0  0
   -1.4382    1.3944   -0.7824 C   0  0  0  0  0  0  0  0  0  0  0  0
   -1.3393    0.7609    1.5582 O   0  0  0  0  0  0  0  0  0  0  0  0
    1.6050    2.1574   -0.3796 H   0  0  0  0  0  0  0  0  0  0  0  0
    2.5111    0.7070   -0.8475 H   0  0  0  0  0  0  0  0  0  0  0  0
    1.0106    1.1752   -1.7876 H   0  0  0  0  0  0  0  0  0  0  0  0
    1.2790    0.9351    2.1968 H   0  0  0  0  0  0  0  0  0  0  0  0
    2.5906    0.1355    1.2864 H   0  0  0  0  0  0  0  0  0  0  0  0
    1.3021   -0.8876    1.9422 H   0  0  0  0  0  0  0  0  0  0  0  0
   -0.6546   -1.4617    1.8839 H   0  0  0  0  0  0  0  0  0  0  0  0
    0.0940   -2.6989    0.7268 H   0  0  0  0  0  0  0  0  0  0  0  0
   -1.5953   -2.1878    0.5695 H   0  0  0  0  0  0  0  0  0  0  0  0
    0.3262   -1.9702   -1.7497 H   0  0  0  0  0  0  0  0  0  0  0  0
   -0.2453   -0.3493   -2.2973 H   0  0  0  0  0  0  0  0  0  0  0  0
   -1.4290   -1.5598   -1.7233 H   0  0  0  0  0  0  0  0  0  0  0  0
   -1.9348    0.6782   -1.4988 H   0  0  0  0  0  0  0  0  0  0  0  0
   -0.7818    2.0707   -1.3542 H   0  0  0  0  0  0  0  0  0  0  0  0
   -2.2843    2.0213   -0.3883 H   0  0  0  0  0  0  0  0  0  0  0  0
   -0.7422    0.5582    2.3005 H   0  0  0  0  0  0  0  0  0  0  0  0
  1  2  1  0
  2  3  1  0
  2  4  1  0
  4  5  1  0
  4  6  1  0
  4  7  1  0
  7  8  1  0
  7  9  1  0
  7  2  1  0
  1 10  1  0
  1 11  1  0
  1 12  1  0
  3 13  1  0
  3 14  1  0
  3 15  1  0
  5 16  1  0
  5 17  1  0
  5 18  1  0
  6 19  1  0
  6 20  1  0
  6 21  1  0
  8 22  1  0
  8 23  1  0
  8 24  1  0
  9 25  1  0
M  END
