
     RDKit          3D

 17 18  0  0  0  0  0  0  0  0999 V2000
    1.8034    0.1380   -0.6321 C   0  0  0  0  0  0  0  0  0  0  0  0
    0.5989   -0.0361    0.2275 C   0  0  0  0  0  0  0  0  0  0  0  0
    0.8388   -0.0717    1.5716 O   0  0  0  0  0  0  0  0  0  0  0  0
   -0.4306    1.0834   -0.0340 C   0  0  0  0  0  0  0  0  0  0  0  0
   -1.6074    0.1598   -0.3469 C   0  0  0  0  0  0  0  0  0  0  0  0
   -1.0029   -0.6990   -1.2964 O   0  0  0  0  0  0  0  0  0  0  0  0
   -0.2791   -1.1941   -0.2135 C   0  0  0  0  0  0  0  0  0  0  0  0
   -1.5054   -0.9538    0.5921 C   0  0  0  0  0  0  0  0  0  0  0  0
   -1.9879   -1.5344    1.5301 O   0  0  0  0  0  0  0  0  0  0  0  0
    2.3491    1.0232   -0.3060 H   0  0  0  0  0  0  0  0  0  0  0  0
    2.4420   -0.7392   -0.5375 H   0  0  0  0  0  0  0  0  0  0  0  0
    1.4564    0.3220   -1.6773 H   0  0  0  0  0  0  0  0  0  0  0  0
    0.4562    0.7173    2.0432 H   0  0  0  0  0  0  0  0  0  0  0  0
   -0.1312    1.6681   -0.9251 H   0  0  0  0  0  0  0  0  0  0  0  0
   -0.5978    1.6875    0.8616 H   0  0  0  0  0  0  0  0  0  0  0  0
   -2.5385    0.5989   -0.5995 H   0  0  0  0  0  0  0  0  0  0  0  0
    0.1358   -2.1701   -0.2578 H   0  0  0  0  0  0  0  0  0  0  0  0
  1  2  1  0
  2  3  1  0
  2  4  1  0
  4  5  1  0
  5  6  1  0
  6  7  1  0
  7  8  1  0
  8  9  2  0
  7  2  1  0
  8  5  1  0
  1 10  1  0
  1 11  1  0
  1 12  1  0
  3 13  1  0
  4 14  1  0
  4 15  1  0
  5 16  1  0
  7 17  1  0
M  END
