
     RDKit          3D

 16 17  0  0  0  0  0  0  0  0999 V2000
    1.7843    0.2839   -0.4049 C   0  0  0  0  0  0  0  0  0  0  0  0
    0.4879   -0.0172    0.2495 C   0  0  0  0  0  0  0  0  0  0  0  0
    0.5254    0.1532    1.6530 O   0  0  0  0  0  0  0  0  0  0  0  0
   -0.7192    0.7556   -0.2741 C   0  0  0  0  0  0  0  0  0  0  0  0
   -1.2677    1.6536    0.6081 O   0  0  0  0  0  0  0  0  0  0  0  0
   -1.4272   -0.5855   -0.3784 C   0  0  0  0  0  0  0  0  0  0  0  0
   -0.8731   -1.4270   -1.3155 O   0  0  0  0  0  0  0  0  0  0  0  0
   -0.2122   -1.2773   -0.1192 C   0  0  0  0  0  0  0  0  0  0  0  0
    2.0251   -0.3444   -1.2781 H   0  0  0  0  0  0  0  0  0  0  0  0
    2.5989    0.0661    0.3473 H   0  0  0  0  0  0  0  0  0  0  0  0
    1.8926    1.3501   -0.6864 H   0  0  0  0  0  0  0  0  0  0  0  0
    0.4076   -0.7164    2.0787 H   0  0  0  0  0  0  0  0  0  0  0  0
   -0.5727    1.1393   -1.3273 H   0  0  0  0  0  0  0  0  0  0  0  0
   -2.1775    1.8732    0.3081 H   0  0  0  0  0  0  0  0  0  0  0  0
   -2.4143   -0.7293    0.0410 H   0  0  0  0  0  0  0  0  0  0  0  0
   -0.0579   -2.1779    0.4983 H   0  0  0  0  0  0  0  0  0  0  0  0
  1  2  1  0
  2  3  1  0
  2  4  1  0
  4  5  1  0
  4  6  1  0
  6  7  1  0
  7  8  1  0
  8  2  1  0
  8  6  1  0
  1  9  1  0
  1 10  1  0
  1 11  1  0
  3 12  1  0
  4 13  1  0
  5 14  1  0
  6 15  1  0
  8 16  1  0
M  END
