
     RDKit          3D

 20 21  0  0  0  0  0  0  0  0999 V2000
   -1.4781    1.3801   -0.7847 C   0  0  0  0  0  0  0  0  0  0  0  0
   -0.8600    0.1089   -0.2871 C   0  0  0  0  0  0  0  0  0  0  0  0
   -1.9037   -0.9190    0.0084 C   0  0  0  0  0  0  0  0  0  0  0  0
    0.1490   -0.4306   -1.0747 O   0  0  0  0  0  0  0  0  0  0  0  0
    1.1183   -0.4371   -0.1014 C   0  0  0  0  0  0  0  0  0  0  0  0
    2.4918    0.0958   -0.3960 C   0  0  0  0  0  0  0  0  0  0  0  0
    0.8583   -0.8850    1.2779 C   0  0  0  0  0  0  0  0  0  0  0  0
    0.1789    0.3338    0.7808 C   0  0  0  0  0  0  0  0  0  0  0  0
   -2.5382    1.4464   -0.3993 H   0  0  0  0  0  0  0  0  0  0  0  0
   -1.4883    1.4149   -1.8850 H   0  0  0  0  0  0  0  0  0  0  0  0
   -0.9572    2.2431   -0.3160 H   0  0  0  0  0  0  0  0  0  0  0  0
   -2.1180   -1.4474   -0.9683 H   0  0  0  0  0  0  0  0  0  0  0  0
   -1.6143   -1.6939    0.7126 H   0  0  0  0  0  0  0  0  0  0  0  0
   -2.8957   -0.4735    0.2915 H   0  0  0  0  0  0  0  0  0  0  0  0
    2.6243    0.3964   -1.4541 H   0  0  0  0  0  0  0  0  0  0  0  0
    3.2026   -0.7692   -0.2508 H   0  0  0  0  0  0  0  0  0  0  0  0
    2.8304    0.8673    0.3250 H   0  0  0  0  0  0  0  0  0  0  0  0
    1.6428   -0.7321    2.0171 H   0  0  0  0  0  0  0  0  0  0  0  0
    0.3057   -1.8352    1.3947 H   0  0  0  0  0  0  0  0  0  0  0  0
    0.4513    1.3364    1.1094 H   0  0  0  0  0  0  0  0  0  0  0  0
  1  2  1  0
  2  3  1  0
  2  4  1  0
  4  5  1  0
  5  6  1  0
  5  7  1  0
  7  8  1  0
  8  2  1  0
  8  5  1  0
  1  9  1  0
  1 10  1  0
  1 11  1  0
  3 12  1  0
  3 13  1  0
  3 14  1  0
  6 15  1  0
  6 16  1  0
  6 17  1  0
  7 18  1  0
  7 19  1  0
  8 20  1  0
M  END
