
     RDKit          3D

 17 17  0  0  0  0  0  0  0  0999 V2000
   -2.0888    0.9869    0.0675 C   0  0  0  0  0  0  0  0  0  0  0  0
   -0.8804    0.0190    0.0192 C   0  0  0  0  0  0  0  0  0  0  0  0
   -0.9890   -1.0644   -0.9543 C   0  0  0  0  0  0  0  0  0  0  0  0
   -0.1507   -1.8853   -1.1565 O   0  0  0  0  0  0  0  0  0  0  0  0
   -0.2225   -0.1846    1.1922 O   0  0  0  0  0  0  0  0  0  0  0  0
    0.4095    0.7201    0.3048 C   0  0  0  0  0  0  0  0  0  0  0  0
    1.6958    0.2461   -0.2656 C   0  0  0  0  0  0  0  0  0  0  0  0
    2.1610   -1.0736    0.1531 C   0  0  0  0  0  0  0  0  0  0  0  0
    1.6533   -1.6708    1.1008 O   0  0  0  0  0  0  0  0  0  0  0  0
   -2.7167    0.8057    0.9403 H   0  0  0  0  0  0  0  0  0  0  0  0
   -1.7310    2.0153   -0.0304 H   0  0  0  0  0  0  0  0  0  0  0  0
   -2.6937    0.7707   -0.8343 H   0  0  0  0  0  0  0  0  0  0  0  0
   -1.9101   -1.1553   -1.5655 H   0  0  0  0  0  0  0  0  0  0  0  0
    0.3815    1.7473    0.7264 H   0  0  0  0  0  0  0  0  0  0  0  0
    2.4781    1.0403   -0.0676 H   0  0  0  0  0  0  0  0  0  0  0  0
    1.6465    0.2593   -1.4012 H   0  0  0  0  0  0  0  0  0  0  0  0
    2.9570   -1.5769   -0.3400 H   0  0  0  0  0  0  0  0  0  0  0  0
  1  2  1  0
  2  3  1  0
  3  4  2  0
  2  5  1  0
  5  6  1  0
  6  7  1  0
  7  8  1  0
  8  9  2  0
  6  2  1  0
  1 10  1  0
  1 11  1  0
  1 12  1  0
  3 13  1  0
  6 14  1  0
  7 15  1  0
  7 16  1  0
  8 17  1  0
M  END
