
     RDKit          3D

 22 23  0  0  0  0  0  0  0  0999 V2000
   -1.5230    1.6084    0.1367 C   0  0  0  0  0  0  0  0  0  0  0  0
   -0.8619    0.2694   -0.0452 C   0  0  0  0  0  0  0  0  0  0  0  0
    0.4339    0.1538   -0.7734 C   0  0  0  0  0  0  0  0  0  0  0  0
    1.5977    0.9094   -0.1981 C   0  0  0  0  0  0  0  0  0  0  0  0
    2.1468   -0.4185    0.3028 C   0  0  0  0  0  0  0  0  0  0  0  0
    1.1918   -1.1359   -0.6257 C   0  0  0  0  0  0  0  0  0  0  0  0
   -1.7627   -0.9709   -0.2005 C   0  0  0  0  0  0  0  0  0  0  0  0
   -1.1613   -0.6917    1.1132 C   0  0  0  0  0  0  0  0  0  0  0  0
   -2.5815    1.5034   -0.1954 H   0  0  0  0  0  0  0  0  0  0  0  0
   -1.0365    2.4242   -0.4230 H   0  0  0  0  0  0  0  0  0  0  0  0
   -1.5690    1.8420    1.2216 H   0  0  0  0  0  0  0  0  0  0  0  0
    0.3370    0.3969   -1.8675 H   0  0  0  0  0  0  0  0  0  0  0  0
    2.2958    1.3357   -0.9479 H   0  0  0  0  0  0  0  0  0  0  0  0
    1.3940    1.6215    0.5974 H   0  0  0  0  0  0  0  0  0  0  0  0
    1.9584   -0.6137    1.3778 H   0  0  0  0  0  0  0  0  0  0  0  0
    3.2186   -0.5948    0.0428 H   0  0  0  0  0  0  0  0  0  0  0  0
    1.6844   -1.4995   -1.5709 H   0  0  0  0  0  0  0  0  0  0  0  0
    0.6361   -1.9491   -0.1572 H   0  0  0  0  0  0  0  0  0  0  0  0
   -1.3835   -1.8287   -0.7522 H   0  0  0  0  0  0  0  0  0  0  0  0
   -2.8078   -0.6995   -0.4335 H   0  0  0  0  0  0  0  0  0  0  0  0
   -1.8673   -0.3700    1.9029 H   0  0  0  0  0  0  0  0  0  0  0  0
   -0.3399   -1.2924    1.4953 H   0  0  0  0  0  0  0  0  0  0  0  0
  1  2  1  0
  2  3  1  0
  3  4  1  0
  4  5  1  0
  5  6  1  0
  2  7  1  0
  7  8  1  0
  8  2  1  0
  6  3  1  0
  1  9  1  0
  1 10  1  0
  1 11  1  0
  3 12  1  0
  4 13  1  0
  4 14  1  0
  5 15  1  0
  5 16  1  0
  6 17  1  0
  6 18  1  0
  7 19  1  0
  7 20  1  0
  8 21  1  0
  8 22  1  0
M  END
