
     RDKit          3D

 19 19  0  0  0  0  0  0  0  0999 V2000
    1.6504    0.5847    0.6900 C   0  0  0  0  0  0  0  0  0  0  0  0
    0.7767   -0.1534   -0.2580 C   0  0  0  0  0  0  0  0  0  0  0  0
    1.4457   -0.7784   -1.3151 O   0  0  0  0  0  0  0  0  0  0  0  0
   -0.1757   -1.1685    0.3913 C   0  0  0  0  0  0  0  0  0  0  0  0
   -0.6109   -0.6419    1.6019 O   0  0  0  0  0  0  0  0  0  0  0  0
   -1.1161   -0.8380   -0.7776 C   0  0  0  0  0  0  0  0  0  0  0  0
   -0.4438    0.5445   -0.7647 C   0  0  0  0  0  0  0  0  0  0  0  0
   -1.1729    1.3885    0.2088 C   0  0  0  0  0  0  0  0  0  0  0  0
   -2.3030    1.7546   -0.0762 O   0  0  0  0  0  0  0  0  0  0  0  0
    1.5039    0.2459    1.7551 H   0  0  0  0  0  0  0  0  0  0  0  0
    2.7198    0.3948    0.3915 H   0  0  0  0  0  0  0  0  0  0  0  0
    1.4762    1.6632    0.6091 H   0  0  0  0  0  0  0  0  0  0  0  0
    1.4809   -0.1717   -2.0961 H   0  0  0  0  0  0  0  0  0  0  0  0
    0.1852   -2.1962    0.3978 H   0  0  0  0  0  0  0  0  0  0  0  0
   -1.3025   -1.1562    2.0444 H   0  0  0  0  0  0  0  0  0  0  0  0
   -2.1747   -0.8243   -0.5205 H   0  0  0  0  0  0  0  0  0  0  0  0
   -0.8023   -1.3647   -1.6790 H   0  0  0  0  0  0  0  0  0  0  0  0
   -0.3582    1.0095   -1.7619 H   0  0  0  0  0  0  0  0  0  0  0  0
   -0.7787    1.7077    1.1592 H   0  0  0  0  0  0  0  0  0  0  0  0
  1  2  1  0
  2  3  1  0
  2  4  1  0
  4  5  1  0
  4  6  1  0
  6  7  1  0
  7  8  1  0
  8  9  2  0
  7  2  1  0
  1 10  1  0
  1 11  1  0
  1 12  1  0
  3 13  1  0
  4 14  1  0
  5 15  1  0
  6 16  1  0
  6 17  1  0
  7 18  1  0
  8 19  1  0
M  END
