
     RDKit          3D

 17 18  0  0  0  0  0  0  0  0999 V2000
    1.5741   -0.7410    0.7265 C   0  0  0  0  0  0  0  0  0  0  0  0
    0.7479   -0.3908   -0.5121 C   0  0  0  0  0  0  0  0  0  0  0  0
    1.0561   -1.2092   -1.5862 O   0  0  0  0  0  0  0  0  0  0  0  0
    0.2845    1.0014   -0.6972 C   0  0  0  0  0  0  0  0  0  0  0  0
   -0.9387    1.3455   -1.4197 C   0  0  0  0  0  0  0  0  0  0  0  0
   -1.4339    2.3778   -1.9307 O   0  0  0  0  0  0  0  0  0  0  0  0
   -1.4733    0.0647   -1.3854 O   0  0  0  0  0  0  0  0  0  0  0  0
   -0.6650   -0.1444   -0.2390 C   0  0  0  0  0  0  0  0  0  0  0  0
   -1.2328    0.0630    1.1176 C   0  0  0  0  0  0  0  0  0  0  0  0
    1.1722   -1.7122    1.1222 H   0  0  0  0  0  0  0  0  0  0  0  0
    1.3257    0.0194    1.4809 H   0  0  0  0  0  0  0  0  0  0  0  0
    2.6542   -0.7949    0.4970 H   0  0  0  0  0  0  0  0  0  0  0  0
    0.4525   -1.9652   -1.6719 H   0  0  0  0  0  0  0  0  0  0  0  0
    0.6234    1.7070    0.0821 H   0  0  0  0  0  0  0  0  0  0  0  0
   -0.9802    1.0669    1.5438 H   0  0  0  0  0  0  0  0  0  0  0  0
   -2.3454    0.0256    1.0786 H   0  0  0  0  0  0  0  0  0  0  0  0
   -0.8213   -0.7136    1.7934 H   0  0  0  0  0  0  0  0  0  0  0  0
  1  2  1  0
  2  3  1  0
  2  4  1  0
  4  5  1  0
  5  6  2  0
  5  7  1  0
  7  8  1  0
  8  9  1  0
  8  2  1  0
  8  4  1  0
  1 10  1  0
  1 11  1  0
  1 12  1  0
  3 13  1  0
  4 14  1  0
  9 15  1  0
  9 16  1  0
  9 17  1  0
M  END
