
     RDKit          3D

 21 22  0  0  0  0  0  0  0  0999 V2000
   -1.5998    0.4087    1.1385 C   0  0  0  0  0  0  0  0  0  0  0  0
   -0.6953   -0.0370    0.0440 C   0  0  0  0  0  0  0  0  0  0  0  0
   -1.4568   -0.7797   -1.0250 C   0  0  0  0  0  0  0  0  0  0  0  0
   -0.0022    1.1384   -0.6548 C   0  0  0  0  0  0  0  0  0  0  0  0
    0.9292    0.4235   -1.4329 O   0  0  0  0  0  0  0  0  0  0  0  0
    1.5153   -0.4800   -0.5654 C   0  0  0  0  0  0  0  0  0  0  0  0
    2.2698    0.2150    0.5180 C   0  0  0  0  0  0  0  0  0  0  0  0
    1.2411    0.0170    1.4123 O   0  0  0  0  0  0  0  0  0  0  0  0
    0.5200   -0.7859    0.5205 C   0  0  0  0  0  0  0  0  0  0  0  0
   -1.0479    0.5511    2.0919 H   0  0  0  0  0  0  0  0  0  0  0  0
   -2.1488    1.3057    0.8376 H   0  0  0  0  0  0  0  0  0  0  0  0
   -2.3117   -0.4422    1.3456 H   0  0  0  0  0  0  0  0  0  0  0  0
   -1.9035   -1.7203   -0.6662 H   0  0  0  0  0  0  0  0  0  0  0  0
   -2.2804   -0.0952   -1.3522 H   0  0  0  0  0  0  0  0  0  0  0  0
   -0.8147   -0.9191   -1.9116 H   0  0  0  0  0  0  0  0  0  0  0  0
    0.5064    1.7850    0.0823 H   0  0  0  0  0  0  0  0  0  0  0  0
   -0.7532    1.6457   -1.2570 H   0  0  0  0  0  0  0  0  0  0  0  0
    1.9601   -1.3725   -1.0104 H   0  0  0  0  0  0  0  0  0  0  0  0
    2.4965    1.2838    0.2649 H   0  0  0  0  0  0  0  0  0  0  0  0
    3.1845   -0.3185    0.8100 H   0  0  0  0  0  0  0  0  0  0  0  0
    0.3915   -1.8234    0.8098 H   0  0  0  0  0  0  0  0  0  0  0  0
  1  2  1  0
  2  3  1  0
  2  4  1  0
  4  5  1  0
  5  6  1  0
  6  7  1  0
  7  8  1  0
  8  9  1  0
  9  2  1  0
  9  6  1  0
  1 10  1  0
  1 11  1  0
  1 12  1  0
  3 13  1  0
  3 14  1  0
  3 15  1  0
  4 16  1  0
  4 17  1  0
  6 18  1  0
  7 19  1  0
  7 20  1  0
  9 21  1  0
M  END
