
     RDKit          3D

 23 23  0  0  0  0  0  0  0  0999 V2000
   -2.1672    1.2149   -0.0611 C   0  0  0  0  0  0  0  0  0  0  0  0
   -1.2221    0.0710   -0.1850 C   0  0  0  0  0  0  0  0  0  0  0  0
   -1.7218   -0.9131   -1.0168 O   0  0  0  0  0  0  0  0  0  0  0  0
   -0.8663   -0.5730    1.1329 C   0  0  0  0  0  0  0  0  0  0  0  0
    0.3231   -1.4377    0.6906 C   0  0  0  0  0  0  0  0  0  0  0  0
    1.1209   -0.4950   -0.1342 C   0  0  0  0  0  0  0  0  0  0  0  0
    2.1857    0.2409    0.6345 C   0  0  0  0  0  0  0  0  0  0  0  0
    2.8699    1.0920   -0.2259 O   0  0  0  0  0  0  0  0  0  0  0  0
    0.1304    0.5073   -0.6958 C   0  0  0  0  0  0  0  0  0  0  0  0
   -2.1983    1.6364    0.9581 H   0  0  0  0  0  0  0  0  0  0  0  0
   -1.8608    1.9793   -0.8089 H   0  0  0  0  0  0  0  0  0  0  0  0
   -3.1979    0.8823   -0.3758 H   0  0  0  0  0  0  0  0  0  0  0  0
   -2.4659   -1.3699   -0.5654 H   0  0  0  0  0  0  0  0  0  0  0  0
   -1.6326   -1.2693    1.5041 H   0  0  0  0  0  0  0  0  0  0  0  0
   -0.4867    0.1355    1.8696 H   0  0  0  0  0  0  0  0  0  0  0  0
   -0.1292   -2.2237    0.0261 H   0  0  0  0  0  0  0  0  0  0  0  0
    0.8477   -1.8798    1.5403 H   0  0  0  0  0  0  0  0  0  0  0  0
    1.5854   -1.0541   -0.9747 H   0  0  0  0  0  0  0  0  0  0  0  0
    1.6638    0.8974    1.3818 H   0  0  0  0  0  0  0  0  0  0  0  0
    2.8564   -0.4020    1.1960 H   0  0  0  0  0  0  0  0  0  0  0  0
    3.8439    0.8896   -0.2384 H   0  0  0  0  0  0  0  0  0  0  0  0
    0.3513    1.5207   -0.2907 H   0  0  0  0  0  0  0  0  0  0  0  0
    0.1702    0.5505   -1.7922 H   0  0  0  0  0  0  0  0  0  0  0  0
  1  2  1  0
  2  3  1  0
  2  4  1  0
  4  5  1  0
  5  6  1  0
  6  7  1  0
  7  8  1  0
  6  9  1  0
  9  2  1  0
  1 10  1  0
  1 11  1  0
  1 12  1  0
  3 13  1  0
  4 14  1  0
  4 15  1  0
  5 16  1  0
  5 17  1  0
  6 18  1  0
  7 19  1  0
  7 20  1  0
  8 21  1  0
  9 22  1  0
  9 23  1  0
M  END
