
     RDKit          3D

 20 21  0  0  0  0  0  0  0  0999 V2000
    2.4787    0.6113    0.3201 C   0  0  0  0  0  0  0  0  0  0  0  0
    1.0655    0.0344    0.3844 C   0  0  0  0  0  0  0  0  0  0  0  0
    0.8822   -0.7870    1.4739 O   0  0  0  0  0  0  0  0  0  0  0  0
    0.5940   -0.4630   -0.9780 C   0  0  0  0  0  0  0  0  0  0  0  0
   -0.0137    0.7314   -0.3283 C   0  0  0  0  0  0  0  0  0  0  0  0
   -1.4516    0.6326    0.0307 C   0  0  0  0  0  0  0  0  0  0  0  0
   -2.1779   -0.6818    0.0303 C   0  0  0  0  0  0  0  0  0  0  0  0
   -1.9634    0.0909    1.3003 C   0  0  0  0  0  0  0  0  0  0  0  0
    3.1417   -0.2768    0.1094 H   0  0  0  0  0  0  0  0  0  0  0  0
    2.7764    1.0791    1.2649 H   0  0  0  0  0  0  0  0  0  0  0  0
    2.5798    1.2657   -0.5671 H   0  0  0  0  0  0  0  0  0  0  0  0
    1.6182   -1.4273    1.5617 H   0  0  0  0  0  0  0  0  0  0  0  0
    1.2342   -0.3146   -1.8668 H   0  0  0  0  0  0  0  0  0  0  0  0
    0.1359   -1.4583   -0.9470 H   0  0  0  0  0  0  0  0  0  0  0  0
    0.3115    1.7163   -0.7896 H   0  0  0  0  0  0  0  0  0  0  0  0
   -2.1019    1.4582   -0.3976 H   0  0  0  0  0  0  0  0  0  0  0  0
   -1.6571   -1.6411   -0.0065 H   0  0  0  0  0  0  0  0  0  0  0  0
   -3.2206   -0.7530   -0.3750 H   0  0  0  0  0  0  0  0  0  0  0  0
   -1.3173   -0.3225    2.0710 H   0  0  0  0  0  0  0  0  0  0  0  0
   -2.9146    0.5054    1.7411 H   0  0  0  0  0  0  0  0  0  0  0  0
  1  2  1  0
  2  3  1  0
  2  4  1  0
  4  5  1  0
  5  6  1  0
  6  7  1  0
  7  8  1  0
  5  2  1  0
  8  6  1  0
  1  9  1  0
  1 10  1  0
  1 11  1  0
  3 12  1  0
  4 13  1  0
  4 14  1  0
  5 15  1  0
  6 16  1  0
  7 17  1  0
  7 18  1  0
  8 19  1  0
  8 20  1  0
M  END
