
     RDKit          3D

 17 17  0  0  0  0  0  0  0  0999 V2000
   -1.6845   -0.3283   -0.6384 C   0  0  0  0  0  0  0  0  0  0  0  0
   -0.4312    0.1548    0.0495 C   0  0  0  0  0  0  0  0  0  0  0  0
   -0.7186    0.8510    1.3120 C   0  0  0  0  0  0  0  0  0  0  0  0
   -0.2021    1.9124    1.5583 O   0  0  0  0  0  0  0  0  0  0  0  0
    0.4247   -1.0620    0.3238 C   0  0  0  0  0  0  0  0  0  0  0  0
    1.8017   -0.5652    0.1451 C   0  0  0  0  0  0  0  0  0  0  0  0
    1.8122    0.5870   -0.5215 C   0  0  0  0  0  0  0  0  0  0  0  0
    0.4409    0.9399   -0.8345 C   0  0  0  0  0  0  0  0  0  0  0  0
    0.0672    1.7582   -1.6944 O   0  0  0  0  0  0  0  0  0  0  0  0
   -1.3796   -1.0289   -1.4338 H   0  0  0  0  0  0  0  0  0  0  0  0
   -2.2908    0.4826   -1.0639 H   0  0  0  0  0  0  0  0  0  0  0  0
   -2.2570   -0.9083    0.1419 H   0  0  0  0  0  0  0  0  0  0  0  0
   -1.3919    0.4127    2.0193 H   0  0  0  0  0  0  0  0  0  0  0  0
    0.2013   -1.8350   -0.4472 H   0  0  0  0  0  0  0  0  0  0  0  0
    0.2075   -1.4164    1.3323 H   0  0  0  0  0  0  0  0  0  0  0  0
    2.6686   -1.0970    0.5218 H   0  0  0  0  0  0  0  0  0  0  0  0
    2.7316    1.1425   -0.7705 H   0  0  0  0  0  0  0  0  0  0  0  0
  1  2  1  0
  2  3  1  0
  3  4  2  0
  2  5  1  0
  5  6  1  0
  6  7  2  0
  7  8  1  0
  8  9  2  0
  8  2  1  0
  1 10  1  0
  1 11  1  0
  1 12  1  0
  3 13  1  0
  5 14  1  0
  5 15  1  0
  6 16  1  0
  7 17  1  0
M  END
