
     RDKit          3D

 19 21  0  0  0  0  0  0  0  0999 V2000
    1.7587    0.7469    0.6609 C   0  0  0  0  0  0  0  0  0  0  0  0
    0.7930   -0.1350   -0.0531 C   0  0  0  0  0  0  0  0  0  0  0  0
    1.3896   -1.1227   -0.7884 O   0  0  0  0  0  0  0  0  0  0  0  0
   -0.2046   -0.6587    0.9657 C   0  0  0  0  0  0  0  0  0  0  0  0
   -1.2386   -1.2873    0.0319 C   0  0  0  0  0  0  0  0  0  0  0  0
   -1.5039   -0.0521   -0.8308 C   0  0  0  0  0  0  0  0  0  0  0  0
   -1.2169    1.0570    0.0883 C   0  0  0  0  0  0  0  0  0  0  0  0
   -0.8487    0.4991    1.3366 O   0  0  0  0  0  0  0  0  0  0  0  0
   -0.2096    0.6417   -0.8975 C   0  0  0  0  0  0  0  0  0  0  0  0
    2.7285    0.8082    0.1281 H   0  0  0  0  0  0  0  0  0  0  0  0
    1.3733    1.7702    0.8597 H   0  0  0  0  0  0  0  0  0  0  0  0
    1.9706    0.3173    1.6832 H   0  0  0  0  0  0  0  0  0  0  0  0
    1.7653   -0.7243   -1.6160 H   0  0  0  0  0  0  0  0  0  0  0  0
    0.1789   -1.2926    1.7190 H   0  0  0  0  0  0  0  0  0  0  0  0
   -0.7321   -2.0835   -0.5422 H   0  0  0  0  0  0  0  0  0  0  0  0
   -2.1286   -1.6307    0.5558 H   0  0  0  0  0  0  0  0  0  0  0  0
   -2.2563   -0.0655   -1.5970 H   0  0  0  0  0  0  0  0  0  0  0  0
   -1.7075    2.0271    0.0652 H   0  0  0  0  0  0  0  0  0  0  0  0
    0.0892    1.1848   -1.7692 H   0  0  0  0  0  0  0  0  0  0  0  0
  1  2  1  0
  2  3  1  0
  2  4  1  0
  4  5  1  0
  5  6  1  0
  6  7  1  0
  7  8  1  0
  7  9  1  0
  9  2  1  0
  8  4  1  0
  9  6  1  0
  1 10  1  0
  1 11  1  0
  1 12  1  0
  3 13  1  0
  4 14  1  0
  5 15  1  0
  5 16  1  0
  6 17  1  0
  7 18  1  0
  9 19  1  0
M  END
