
     RDKit          3D

 21 21  0  0  0  0  0  0  0  0999 V2000
    2.3403    0.1209   -0.3273 C   0  0  0  0  0  0  0  0  0  0  0  0
    0.9427    0.0968    0.1582 C   0  0  0  0  0  0  0  0  0  0  0  0
    0.9257   -0.2311    1.5312 O   0  0  0  0  0  0  0  0  0  0  0  0
    0.2272    1.4453   -0.0125 C   0  0  0  0  0  0  0  0  0  0  0  0
   -0.8123    1.4092    0.8798 O   0  0  0  0  0  0  0  0  0  0  0  0
   -1.7504    0.4658    0.6140 C   0  0  0  0  0  0  0  0  0  0  0  0
   -1.3101   -0.8241    0.0729 C   0  0  0  0  0  0  0  0  0  0  0  0
   -2.2328   -1.2344   -0.9189 O   0  0  0  0  0  0  0  0  0  0  0  0
    0.0446   -0.8814   -0.5356 C   0  0  0  0  0  0  0  0  0  0  0  0
    2.9392   -0.5833    0.3094 H   0  0  0  0  0  0  0  0  0  0  0  0
    2.7903    1.1319   -0.1091 H   0  0  0  0  0  0  0  0  0  0  0  0
    2.4805   -0.1055   -1.3859 H   0  0  0  0  0  0  0  0  0  0  0  0
    1.2823   -1.1637    1.5877 H   0  0  0  0  0  0  0  0  0  0  0  0
   -0.2069    1.4968   -1.0531 H   0  0  0  0  0  0  0  0  0  0  0  0
    0.8900    2.2913    0.1124 H   0  0  0  0  0  0  0  0  0  0  0  0
   -2.3147    0.2715    1.5747 H   0  0  0  0  0  0  0  0  0  0  0  0
   -2.5322    0.9431   -0.0490 H   0  0  0  0  0  0  0  0  0  0  0  0
   -1.3633   -1.6447    0.8467 H   0  0  0  0  0  0  0  0  0  0  0  0
   -2.8332   -0.4758   -1.1624 H   0  0  0  0  0  0  0  0  0  0  0  0
    0.0085   -0.6287   -1.6360 H   0  0  0  0  0  0  0  0  0  0  0  0
    0.4845   -1.9000   -0.4972 H   0  0  0  0  0  0  0  0  0  0  0  0
  1  2  1  0
  2  3  1  0
  2  4  1  0
  4  5  1  0
  5  6  1  0
  6  7  1  0
  7  8  1  0
  7  9  1  0
  9  2  1  0
  1 10  1  0
  1 11  1  0
  1 12  1  0
  3 13  1  0
  4 14  1  0
  4 15  1  0
  6 16  1  0
  6 17  1  0
  7 18  1  0
  8 19  1  0
  9 20  1  0
  9 21  1  0
M  END
