
     RDKit          3D

 19 19  0  0  0  0  0  0  0  0999 V2000
   -1.6989    0.6240   -0.8215 C   0  0  0  0  0  0  0  0  0  0  0  0
   -0.5144    0.0930   -0.0941 C   0  0  0  0  0  0  0  0  0  0  0  0
   -0.8906   -0.6932    1.1271 C   0  0  0  0  0  0  0  0  0  0  0  0
    0.3996   -0.6812   -1.0097 C   0  0  0  0  0  0  0  0  0  0  0  0
    1.5422   -1.1121   -0.4236 O   0  0  0  0  0  0  0  0  0  0  0  0
    2.2295   -0.2506    0.3584 C   0  0  0  0  0  0  0  0  0  0  0  0
    1.5951    0.9270    0.7220 O   0  0  0  0  0  0  0  0  0  0  0  0
    0.2887    1.2735    0.3807 C   0  0  0  0  0  0  0  0  0  0  0  0
   -0.1735    2.4241    0.4554 O   0  0  0  0  0  0  0  0  0  0  0  0
   -2.3475   -0.1897   -1.2157 H   0  0  0  0  0  0  0  0  0  0  0  0
   -2.2552    1.3069   -0.1289 H   0  0  0  0  0  0  0  0  0  0  0  0
   -1.3589    1.2252   -1.6793 H   0  0  0  0  0  0  0  0  0  0  0  0
   -1.5506   -0.0285    1.7462 H   0  0  0  0  0  0  0  0  0  0  0  0
   -1.3926   -1.6367    0.8842 H   0  0  0  0  0  0  0  0  0  0  0  0
    0.0158   -0.8688    1.7586 H   0  0  0  0  0  0  0  0  0  0  0  0
   -0.1672   -1.5920   -1.3653 H   0  0  0  0  0  0  0  0  0  0  0  0
    0.5479   -0.0694   -1.9235 H   0  0  0  0  0  0  0  0  0  0  0  0
    2.5023   -0.7894    1.3138 H   0  0  0  0  0  0  0  0  0  0  0  0
    3.2282    0.0377   -0.0850 H   0  0  0  0  0  0  0  0  0  0  0  0
  1  2  1  0
  2  3  1  0
  2  4  1  0
  4  5  1  0
  5  6  1  0
  6  7  1  0
  7  8  1  0
  8  9  2  0
  8  2  1  0
  1 10  1  0
  1 11  1  0
  1 12  1  0
  3 13  1  0
  3 14  1  0
  3 15  1  0
  4 16  1  0
  4 17  1  0
  6 18  1  0
  6 19  1  0
M  END
