
     RDKit          3D

 23 24  0  0  0  0  0  0  0  0999 V2000
   -2.0718   -1.0069    0.3898 C   0  0  0  0  0  0  0  0  0  0  0  0
   -0.9504   -0.0239    0.0908 C   0  0  0  0  0  0  0  0  0  0  0  0
   -1.4208    1.0116   -0.8936 C   0  0  0  0  0  0  0  0  0  0  0  0
   -0.4033    0.6304    1.3116 C   0  0  0  0  0  0  0  0  0  0  0  0
    1.0857    0.8230    1.0002 C   0  0  0  0  0  0  0  0  0  0  0  0
    1.8337   -0.2933    1.4261 O   0  0  0  0  0  0  0  0  0  0  0  0
    1.4580   -0.0970    0.0832 C   0  0  0  0  0  0  0  0  0  0  0  0
    2.6214   -0.1837   -0.8510 C   0  0  0  0  0  0  0  0  0  0  0  0
    0.2184   -0.8319   -0.4137 C   0  0  0  0  0  0  0  0  0  0  0  0
   -1.9464   -1.4305    1.3987 H   0  0  0  0  0  0  0  0  0  0  0  0
   -2.0011   -1.8357   -0.3680 H   0  0  0  0  0  0  0  0  0  0  0  0
   -3.0391   -0.5118    0.2277 H   0  0  0  0  0  0  0  0  0  0  0  0
   -1.4780    0.5904   -1.8996 H   0  0  0  0  0  0  0  0  0  0  0  0
   -0.6988    1.8537   -0.9194 H   0  0  0  0  0  0  0  0  0  0  0  0
   -2.4172    1.3642   -0.5439 H   0  0  0  0  0  0  0  0  0  0  0  0
   -0.9174    1.5909    1.4651 H   0  0  0  0  0  0  0  0  0  0  0  0
   -0.5313    0.0084    2.2329 H   0  0  0  0  0  0  0  0  0  0  0  0
    1.4773    1.8279    1.1523 H   0  0  0  0  0  0  0  0  0  0  0  0
    3.5622    0.2185   -0.4430 H   0  0  0  0  0  0  0  0  0  0  0  0
    2.8181   -1.2821   -1.0206 H   0  0  0  0  0  0  0  0  0  0  0  0
    2.3680    0.2134   -1.8576 H   0  0  0  0  0  0  0  0  0  0  0  0
    0.2112   -0.7756   -1.5121 H   0  0  0  0  0  0  0  0  0  0  0  0
    0.2217   -1.8601   -0.0559 H   0  0  0  0  0  0  0  0  0  0  0  0
  1  2  1  0
  2  3  1  0
  2  4  1  0
  4  5  1  0
  5  6  1  0
  6  7  1  0
  7  8  1  0
  7  9  1  0
  9  2  1  0
  7  5  1  0
  1 10  1  0
  1 11  1  0
  1 12  1  0
  3 13  1  0
  3 14  1  0
  3 15  1  0
  4 16  1  0
  4 17  1  0
  5 18  1  0
  8 19  1  0
  8 20  1  0
  8 21  1  0
  9 22  1  0
  9 23  1  0
M  END
