
     RDKit          3D

 16 16  0  0  0  0  0  0  0  0999 V2000
   -1.6541   -0.4371   -0.3626 C   0  0  0  0  0  0  0  0  0  0  0  0
   -0.4040    0.1020    0.2970 C   0  0  0  0  0  0  0  0  0  0  0  0
   -0.6142    0.3992    1.6353 O   0  0  0  0  0  0  0  0  0  0  0  0
    0.1285    1.3331   -0.3733 C   0  0  0  0  0  0  0  0  0  0  0  0
    1.5250    1.1828   -0.2127 O   0  0  0  0  0  0  0  0  0  0  0  0
    1.8881   -0.1363   -0.1707 C   0  0  0  0  0  0  0  0  0  0  0  0
    3.0342   -0.6294   -0.3332 O   0  0  0  0  0  0  0  0  0  0  0  0
    0.6819   -0.9264    0.1057 C   0  0  0  0  0  0  0  0  0  0  0  0
   -1.3890   -0.6132   -1.4335 H   0  0  0  0  0  0  0  0  0  0  0  0
   -2.5324    0.1932   -0.2208 H   0  0  0  0  0  0  0  0  0  0  0  0
   -1.8314   -1.4487    0.1027 H   0  0  0  0  0  0  0  0  0  0  0  0
    0.2865    0.4319    2.0702 H   0  0  0  0  0  0  0  0  0  0  0  0
   -0.1363    1.3514   -1.4373 H   0  0  0  0  0  0  0  0  0  0  0  0
   -0.1981    2.2786    0.1020 H   0  0  0  0  0  0  0  0  0  0  0  0
    0.4595   -1.5345   -0.7948 H   0  0  0  0  0  0  0  0  0  0  0  0
    0.7558   -1.5463    1.0260 H   0  0  0  0  0  0  0  0  0  0  0  0
  1  2  1  0
  2  3  1  0
  2  4  1  0
  4  5  1  0
  5  6  1  0
  6  7  2  0
  6  8  1  0
  8  2  1  0
  1  9  1  0
  1 10  1  0
  1 11  1  0
  3 12  1  0
  4 13  1  0
  4 14  1  0
  8 15  1  0
  8 16  1  0
M  END
