
     RDKit          3D

 19 20  0  0  0  0  0  0  0  0999 V2000
    1.3388    0.1221    0.9837 C   0  0  0  0  0  0  0  0  0  0  0  0
    0.5676   -0.2028   -0.1897 C   0  0  0  0  0  0  0  0  0  0  0  0
    1.4785   -0.5633   -1.3241 C   0  0  0  0  0  0  0  0  0  0  0  0
    0.9273   -0.8839   -2.3693 O   0  0  0  0  0  0  0  0  0  0  0  0
   -0.4244    0.8409   -0.7269 C   0  0  0  0  0  0  0  0  0  0  0  0
   -0.0245    2.1402   -0.6272 O   0  0  0  0  0  0  0  0  0  0  0  0
   -1.2732    0.3482    0.4077 C   0  0  0  0  0  0  0  0  0  0  0  0
   -1.8240   -0.9371    0.6852 C   0  0  0  0  0  0  0  0  0  0  0  0
   -0.6709   -1.0091   -0.1418 C   0  0  0  0  0  0  0  0  0  0  0  0
    2.2776   -0.5026    0.9772 H   0  0  0  0  0  0  0  0  0  0  0  0
    0.9243   -0.0219    1.9831 H   0  0  0  0  0  0  0  0  0  0  0  0
    1.7145    1.1799    0.9111 H   0  0  0  0  0  0  0  0  0  0  0  0
    2.5453   -0.5537   -1.2645 H   0  0  0  0  0  0  0  0  0  0  0  0
   -0.8534    0.5565   -1.6894 H   0  0  0  0  0  0  0  0  0  0  0  0
   -0.2527    2.4819    0.2650 H   0  0  0  0  0  0  0  0  0  0  0  0
   -0.8273    0.7670    1.3407 H   0  0  0  0  0  0  0  0  0  0  0  0
   -2.8913   -1.0790    0.3287 H   0  0  0  0  0  0  0  0  0  0  0  0
   -1.7398   -1.4895    1.6732 H   0  0  0  0  0  0  0  0  0  0  0  0
   -0.9923   -1.1938   -1.2226 H   0  0  0  0  0  0  0  0  0  0  0  0
  1  2  1  0
  2  3  1  0
  3  4  2  0
  2  5  1  0
  5  6  1  0
  5  7  1  0
  7  8  1  0
  8  9  1  0
  9  2  1  0
  9  7  1  0
  1 10  1  0
  1 11  1  0
  1 12  1  0
  3 13  1  0
  5 14  1  0
  6 15  1  0
  7 16  1  0
  8 17  1  0
  8 18  1  0
  9 19  1  0
M  END
