
     RDKit          3D

 21 22  0  0  0  0  0  0  0  0999 V2000
   -1.5900   -1.1754   -0.4767 C   0  0  0  0  0  0  0  0  0  0  0  0
   -0.8099    0.0126    0.0070 C   0  0  0  0  0  0  0  0  0  0  0  0
   -1.7211    1.0828    0.5161 C   0  0  0  0  0  0  0  0  0  0  0  0
    0.1635    0.5078   -1.0532 C   0  0  0  0  0  0  0  0  0  0  0  0
    1.3108    0.0930   -0.1763 C   0  0  0  0  0  0  0  0  0  0  0  0
    2.4433    0.9886    0.0666 C   0  0  0  0  0  0  0  0  0  0  0  0
    2.9103    1.6404   -0.8542 O   0  0  0  0  0  0  0  0  0  0  0  0
    1.3480   -1.2913    0.3218 C   0  0  0  0  0  0  0  0  0  0  0  0
    0.3707   -0.3348    0.8601 C   0  0  0  0  0  0  0  0  0  0  0  0
   -2.1721   -0.9513   -1.3990 H   0  0  0  0  0  0  0  0  0  0  0  0
   -0.9362   -2.0510   -0.7282 H   0  0  0  0  0  0  0  0  0  0  0  0
   -2.2695   -1.5085    0.3050 H   0  0  0  0  0  0  0  0  0  0  0  0
   -2.0105    0.8450    1.5710 H   0  0  0  0  0  0  0  0  0  0  0  0
   -2.6254    1.0871   -0.1412 H   0  0  0  0  0  0  0  0  0  0  0  0
   -1.2871    2.0897    0.4997 H   0  0  0  0  0  0  0  0  0  0  0  0
    0.1236    1.5960   -1.2440 H   0  0  0  0  0  0  0  0  0  0  0  0
    0.1551   -0.0640   -1.9900 H   0  0  0  0  0  0  0  0  0  0  0  0
    2.8415    1.0472    1.0791 H   0  0  0  0  0  0  0  0  0  0  0  0
    2.2169   -1.5755    0.9562 H   0  0  0  0  0  0  0  0  0  0  0  0
    1.0784   -2.0805   -0.4010 H   0  0  0  0  0  0  0  0  0  0  0  0
    0.4596    0.0419    1.8941 H   0  0  0  0  0  0  0  0  0  0  0  0
  1  2  1  0
  2  3  1  0
  2  4  1  0
  4  5  1  0
  5  6  1  0
  6  7  2  0
  5  8  1  0
  8  9  1  0
  9  2  1  0
  9  5  1  0
  1 10  1  0
  1 11  1  0
  1 12  1  0
  3 13  1  0
  3 14  1  0
  3 15  1  0
  4 16  1  0
  4 17  1  0
  6 18  1  0
  8 19  1  0
  8 20  1  0
  9 21  1  0
M  END
