
     RDKit          3D

 19 19  0  0  0  0  0  0  0  0999 V2000
   -2.0648   -0.1234   -0.0314 C   0  0  0  0  0  0  0  0  0  0  0  0
   -0.6369    0.2091   -0.3155 C   0  0  0  0  0  0  0  0  0  0  0  0
   -0.5299    1.1530   -1.3385 O   0  0  0  0  0  0  0  0  0  0  0  0
    0.2233   -1.0037   -0.5812 C   0  0  0  0  0  0  0  0  0  0  0  0
    1.5963   -0.6873   -0.0090 C   0  0  0  0  0  0  0  0  0  0  0  0
    1.4622    0.7004    0.6178 C   0  0  0  0  0  0  0  0  0  0  0  0
    0.0024    0.7504    0.9623 C   0  0  0  0  0  0  0  0  0  0  0  0
   -2.2989   -1.2073   -0.1120 H   0  0  0  0  0  0  0  0  0  0  0  0
   -2.7802    0.4317   -0.6892 H   0  0  0  0  0  0  0  0  0  0  0  0
   -2.3608    0.1650    1.0147 H   0  0  0  0  0  0  0  0  0  0  0  0
   -0.2751    0.7400   -2.2054 H   0  0  0  0  0  0  0  0  0  0  0  0
    0.3146   -1.2292   -1.6559 H   0  0  0  0  0  0  0  0  0  0  0  0
   -0.1549   -1.8820   -0.0273 H   0  0  0  0  0  0  0  0  0  0  0  0
    2.3768   -0.6399   -0.7975 H   0  0  0  0  0  0  0  0  0  0  0  0
    1.8962   -1.3935    0.7840 H   0  0  0  0  0  0  0  0  0  0  0  0
    2.0312    0.7724    1.5715 H   0  0  0  0  0  0  0  0  0  0  0  0
    1.7744    1.4917   -0.0926 H   0  0  0  0  0  0  0  0  0  0  0  0
   -0.3855    1.7468    1.1611 H   0  0  0  0  0  0  0  0  0  0  0  0
   -0.1904    0.0057    1.7442 H   0  0  0  0  0  0  0  0  0  0  0  0
  1  2  1  0
  2  3  1  0
  2  4  1  0
  4  5  1  0
  5  6  1  0
  6  7  1  0
  7  2  1  0
  1  8  1  0
  1  9  1  0
  1 10  1  0
  3 11  1  0
  4 12  1  0
  4 13  1  0
  5 14  1  0
  5 15  1  0
  6 16  1  0
  6 17  1  0
  7 18  1  0
  7 19  1  0
M  END
