
     RDKit          3D

 21 22  0  0  0  0  0  0  0  0999 V2000
   -1.8487   -0.6814   -0.9209 C   0  0  0  0  0  0  0  0  0  0  0  0
   -0.6759   -0.0359   -0.2792 C   0  0  0  0  0  0  0  0  0  0  0  0
   -1.0864    1.1576    0.5131 C   0  0  0  0  0  0  0  0  0  0  0  0
    0.0459   -1.0842    0.5930 C   0  0  0  0  0  0  0  0  0  0  0  0
    1.3764   -1.0498   -0.1720 C   0  0  0  0  0  0  0  0  0  0  0  0
    0.9904   -0.9819   -1.5093 O   0  0  0  0  0  0  0  0  0  0  0  0
    0.4635    0.2569   -1.2181 C   0  0  0  0  0  0  0  0  0  0  0  0
    1.6246    0.4166   -0.2246 C   0  0  0  0  0  0  0  0  0  0  0  0
    2.7518    0.8531   -0.8671 O   0  0  0  0  0  0  0  0  0  0  0  0
   -2.5795    0.1079   -1.2433 H   0  0  0  0  0  0  0  0  0  0  0  0
   -2.4033   -1.2545   -0.1241 H   0  0  0  0  0  0  0  0  0  0  0  0
   -1.6174   -1.3820   -1.7285 H   0  0  0  0  0  0  0  0  0  0  0  0
   -2.0194    1.5795    0.0539 H   0  0  0  0  0  0  0  0  0  0  0  0
   -1.2474    0.8718    1.5569 H   0  0  0  0  0  0  0  0  0  0  0  0
   -0.3467    2.0027    0.4573 H   0  0  0  0  0  0  0  0  0  0  0  0
    0.1615   -0.6342    1.5763 H   0  0  0  0  0  0  0  0  0  0  0  0
   -0.4377   -2.0533    0.5487 H   0  0  0  0  0  0  0  0  0  0  0  0
    2.1331   -1.7308    0.1235 H   0  0  0  0  0  0  0  0  0  0  0  0
    0.3586    0.9994   -1.9700 H   0  0  0  0  0  0  0  0  0  0  0  0
    1.3525    0.9041    0.7180 H   0  0  0  0  0  0  0  0  0  0  0  0
    3.0043    1.7384   -0.4617 H   0  0  0  0  0  0  0  0  0  0  0  0
  1  2  1  0
  2  3  1  0
  2  4  1  0
  4  5  1  0
  5  6  1  0
  6  7  1  0
  7  8  1  0
  8  9  1  0
  7  2  1  0
  8  5  1  0
  1 10  1  0
  1 11  1  0
  1 12  1  0
  3 13  1  0
  3 14  1  0
  3 15  1  0
  4 16  1  0
  4 17  1  0
  5 18  1  0
  7 19  1  0
  8 20  1  0
  9 21  1  0
M  END
