
     RDKit          3D

 23 24  0  0  0  0  0  0  0  0999 V2000
   -1.3258   -1.3477    0.8093 C   0  0  0  0  0  0  0  0  0  0  0  0
   -1.0478   -0.0721    0.0799 C   0  0  0  0  0  0  0  0  0  0  0  0
   -2.2362    0.9048    0.1461 C   0  0  0  0  0  0  0  0  0  0  0  0
   -0.6706   -0.2878   -1.2558 O   0  0  0  0  0  0  0  0  0  0  0  0
    0.1985    0.4685   -0.3170 C   0  0  0  0  0  0  0  0  0  0  0  0
    0.2180    1.9688   -0.6659 C   0  0  0  0  0  0  0  0  0  0  0  0
    1.5484   -0.1398   -0.2861 C   0  0  0  0  0  0  0  0  0  0  0  0
    2.0861   -0.5193    1.0646 C   0  0  0  0  0  0  0  0  0  0  0  0
    1.8139   -1.5562   -0.0141 C   0  0  0  0  0  0  0  0  0  0  0  0
   -2.3756   -1.3437    1.1949 H   0  0  0  0  0  0  0  0  0  0  0  0
   -0.6643   -1.4359    1.6832 H   0  0  0  0  0  0  0  0  0  0  0  0
   -1.2923   -2.2451    0.1558 H   0  0  0  0  0  0  0  0  0  0  0  0
   -2.3854    1.2660    1.1924 H   0  0  0  0  0  0  0  0  0  0  0  0
   -3.1549    0.3328   -0.1648 H   0  0  0  0  0  0  0  0  0  0  0  0
   -2.1242    1.7137   -0.5837 H   0  0  0  0  0  0  0  0  0  0  0  0
   -0.2322    2.5581    0.1622 H   0  0  0  0  0  0  0  0  0  0  0  0
   -0.3549    2.1746   -1.5824 H   0  0  0  0  0  0  0  0  0  0  0  0
    1.2491    2.3420   -0.8308 H   0  0  0  0  0  0  0  0  0  0  0  0
    2.3104    0.3672   -0.9445 H   0  0  0  0  0  0  0  0  0  0  0  0
    3.1684   -0.3587    1.2689 H   0  0  0  0  0  0  0  0  0  0  0  0
    1.4769   -0.4648    1.9648 H   0  0  0  0  0  0  0  0  0  0  0  0
    1.0878   -2.3040    0.2932 H   0  0  0  0  0  0  0  0  0  0  0  0
    2.7068   -2.0212   -0.5180 H   0  0  0  0  0  0  0  0  0  0  0  0
  1  2  1  0
  2  3  1  0
  2  4  1  0
  4  5  1  0
  5  6  1  0
  5  7  1  0
  7  8  1  0
  8  9  1  0
  5  2  1  0
  9  7  1  0
  1 10  1  0
  1 11  1  0
  1 12  1  0
  3 13  1  0
  3 14  1  0
  3 15  1  0
  6 16  1  0
  6 17  1  0
  6 18  1  0
  7 19  1  0
  8 20  1  0
  8 21  1  0
  9 22  1  0
  9 23  1  0
M  END
