
     RDKit          3D

 20 21  0  0  0  0  0  0  0  0999 V2000
    1.3095   -0.8028   -1.0249 C   0  0  0  0  0  0  0  0  0  0  0  0
    0.5370   -0.0417    0.0325 C   0  0  0  0  0  0  0  0  0  0  0  0
    1.3426    0.7067    1.0269 C   0  0  0  0  0  0  0  0  0  0  0  0
   -0.6462    0.6766   -0.5713 C   0  0  0  0  0  0  0  0  0  0  0  0
   -1.4301    1.0816    0.6233 C   0  0  0  0  0  0  0  0  0  0  0  0
   -1.3426   -0.0999    1.4057 O   0  0  0  0  0  0  0  0  0  0  0  0
   -0.5803   -0.9198    0.6190 C   0  0  0  0  0  0  0  0  0  0  0  0
   -1.2112   -0.7411   -0.7746 C   0  0  0  0  0  0  0  0  0  0  0  0
    1.0416   -0.4030   -2.0355 H   0  0  0  0  0  0  0  0  0  0  0  0
    1.1303   -1.9037   -0.9579 H   0  0  0  0  0  0  0  0  0  0  0  0
    2.3997   -0.6605   -0.8251 H   0  0  0  0  0  0  0  0  0  0  0  0
    0.9488    1.6836    1.3259 H   0  0  0  0  0  0  0  0  0  0  0  0
    2.3477    0.9174    0.5551 H   0  0  0  0  0  0  0  0  0  0  0  0
    1.6048    0.0732    1.9244 H   0  0  0  0  0  0  0  0  0  0  0  0
   -0.5286    1.2884   -1.4164 H   0  0  0  0  0  0  0  0  0  0  0  0
   -2.5011    1.2038    0.2862 H   0  0  0  0  0  0  0  0  0  0  0  0
   -1.0678    1.9459    1.1706 H   0  0  0  0  0  0  0  0  0  0  0  0
   -0.3251   -1.9037    0.9114 H   0  0  0  0  0  0  0  0  0  0  0  0
   -2.3041   -0.7910   -0.7083 H   0  0  0  0  0  0  0  0  0  0  0  0
   -0.7248   -1.3101   -1.5672 H   0  0  0  0  0  0  0  0  0  0  0  0
  1  2  1  0
  2  3  1  0
  2  4  1  0
  4  5  1  0
  5  6  1  0
  6  7  1  0
  7  8  1  0
  7  2  1  0
  8  4  1  0
  1  9  1  0
  1 10  1  0
  1 11  1  0
  3 12  1  0
  3 13  1  0
  3 14  1  0
  4 15  1  0
  5 16  1  0
  5 17  1  0
  7 18  1  0
  8 19  1  0
  8 20  1  0
M  END
