
     RDKit          3D

 19 19  0  0  0  0  0  0  0  0999 V2000
   -1.5363   -1.1560    0.3377 C   0  0  0  0  0  0  0  0  0  0  0  0
   -0.9097    0.1458   -0.0351 C   0  0  0  0  0  0  0  0  0  0  0  0
   -1.4331    0.8096   -1.1585 O   0  0  0  0  0  0  0  0  0  0  0  0
   -0.5255    1.0124    1.1695 C   0  0  0  0  0  0  0  0  0  0  0  0
    0.5128    0.4256    0.2512 C   0  0  0  0  0  0  0  0  0  0  0  0
    1.2105    1.5063   -0.5845 C   0  0  0  0  0  0  0  0  0  0  0  0
    1.3876   -0.5677    0.7000 O   0  0  0  0  0  0  0  0  0  0  0  0
    1.6197   -1.6924   -0.0769 C   0  0  0  0  0  0  0  0  0  0  0  0
    1.0308   -1.7957   -1.1821 O   0  0  0  0  0  0  0  0  0  0  0  0
   -1.9829   -1.6459   -0.5750 H   0  0  0  0  0  0  0  0  0  0  0  0
   -2.4177   -1.0150    1.0302 H   0  0  0  0  0  0  0  0  0  0  0  0
   -0.8605   -1.8754    0.8126 H   0  0  0  0  0  0  0  0  0  0  0  0
   -1.0617    0.3622   -1.9701 H   0  0  0  0  0  0  0  0  0  0  0  0
   -0.8371    2.0641    1.0677 H   0  0  0  0  0  0  0  0  0  0  0  0
   -0.6650    0.5998    2.1780 H   0  0  0  0  0  0  0  0  0  0  0  0
    1.8448    1.0700   -1.3630 H   0  0  0  0  0  0  0  0  0  0  0  0
    1.8817    2.0293    0.1285 H   0  0  0  0  0  0  0  0  0  0  0  0
    0.4483    2.2174   -0.9599 H   0  0  0  0  0  0  0  0  0  0  0  0
    2.2932   -2.4946    0.2297 H   0  0  0  0  0  0  0  0  0  0  0  0
  1  2  1  0
  2  3  1  0
  2  4  1  0
  4  5  1  0
  5  6  1  0
  5  7  1  0
  7  8  1  0
  8  9  2  0
  5  2  1  0
  1 10  1  0
  1 11  1  0
  1 12  1  0
  3 13  1  0
  4 14  1  0
  4 15  1  0
  6 16  1  0
  6 17  1  0
  6 18  1  0
  8 19  1  0
M  END
