
     RDKit          3D

 23 24  0  0  0  0  0  0  0  0999 V2000
   -0.9500   -1.2740    1.0587 C   0  0  0  0  0  0  0  0  0  0  0  0
   -0.8069   -0.2666   -0.0415 C   0  0  0  0  0  0  0  0  0  0  0  0
   -2.1019    0.3534   -0.5015 C   0  0  0  0  0  0  0  0  0  0  0  0
    0.2964   -0.2765   -0.9988 C   0  0  0  0  0  0  0  0  0  0  0  0
    1.4585   -1.2274   -0.8500 C   0  0  0  0  0  0  0  0  0  0  0  0
    2.1750   -0.7959    0.3643 C   0  0  0  0  0  0  0  0  0  0  0  0
    1.5544    0.2522    0.8817 C   0  0  0  0  0  0  0  0  0  0  0  0
    0.3723    0.6635    0.1180 C   0  0  0  0  0  0  0  0  0  0  0  0
    0.0671    2.1404   -0.0499 C   0  0  0  0  0  0  0  0  0  0  0  0
   -1.8935   -1.8679    0.9074 H   0  0  0  0  0  0  0  0  0  0  0  0
   -0.0651   -1.9524    1.1383 H   0  0  0  0  0  0  0  0  0  0  0  0
   -1.1075   -0.7222    2.0105 H   0  0  0  0  0  0  0  0  0  0  0  0
   -2.7110    0.5531    0.3906 H   0  0  0  0  0  0  0  0  0  0  0  0
   -1.9426    1.2837   -1.0883 H   0  0  0  0  0  0  0  0  0  0  0  0
   -2.5883   -0.3760   -1.1817 H   0  0  0  0  0  0  0  0  0  0  0  0
    0.1057    0.0810   -2.0510 H   0  0  0  0  0  0  0  0  0  0  0  0
    2.1080   -1.2430   -1.7466 H   0  0  0  0  0  0  0  0  0  0  0  0
    1.0550   -2.2659   -0.7580 H   0  0  0  0  0  0  0  0  0  0  0  0
    3.0723   -1.3047    0.7271 H   0  0  0  0  0  0  0  0  0  0  0  0
    1.9294    0.7340    1.7998 H   0  0  0  0  0  0  0  0  0  0  0  0
    0.8735    2.6920    0.4829 H   0  0  0  0  0  0  0  0  0  0  0  0
   -0.8814    2.4091    0.4964 H   0  0  0  0  0  0  0  0  0  0  0  0
   -0.0195    2.4101   -1.1082 H   0  0  0  0  0  0  0  0  0  0  0  0
  1  2  1  0
  2  3  1  0
  2  4  1  0
  4  5  1  0
  5  6  1  0
  6  7  2  0
  7  8  1  0
  8  9  1  0
  8  2  1  0
  8  4  1  0
  1 10  1  0
  1 11  1  0
  1 12  1  0
  3 13  1  0
  3 14  1  0
  3 15  1  0
  4 16  1  0
  5 17  1  0
  5 18  1  0
  6 19  1  0
  7 20  1  0
  9 21  1  0
  9 22  1  0
  9 23  1  0
M  END
