
     RDKit          3D

 25 26  0  0  0  0  0  0  0  0999 V2000
    0.8002   -0.7034    1.5362 C   0  0  0  0  0  0  0  0  0  0  0  0
    0.4155   -0.1539    0.1637 C   0  0  0  0  0  0  0  0  0  0  0  0
   -1.0036    0.2375    0.0213 C   0  0  0  0  0  0  0  0  0  0  0  0
   -1.5612    1.3339    0.9418 C   0  0  0  0  0  0  0  0  0  0  0  0
   -2.0195   -0.7820   -0.3341 C   0  0  0  0  0  0  0  0  0  0  0  0
   -1.6068    0.2402   -1.3905 C   0  0  0  0  0  0  0  0  0  0  0  0
    1.0503   -0.9743   -0.9269 C   0  0  0  0  0  0  0  0  0  0  0  0
    2.3666   -0.2838   -0.5068 C   0  0  0  0  0  0  0  0  0  0  0  0
    1.4521    0.9156   -0.1892 C   0  0  0  0  0  0  0  0  0  0  0  0
    1.4585   -0.0065    2.0899 H   0  0  0  0  0  0  0  0  0  0  0  0
   -0.0937   -0.8618    2.1694 H   0  0  0  0  0  0  0  0  0  0  0  0
    1.3343   -1.6633    1.4291 H   0  0  0  0  0  0  0  0  0  0  0  0
   -1.7184    0.9497    1.9709 H   0  0  0  0  0  0  0  0  0  0  0  0
   -2.5479    1.6488    0.5419 H   0  0  0  0  0  0  0  0  0  0  0  0
   -0.9143    2.2359    0.9088 H   0  0  0  0  0  0  0  0  0  0  0  0
   -3.0724   -0.6615   -0.0093 H   0  0  0  0  0  0  0  0  0  0  0  0
   -1.7543   -1.8277   -0.5343 H   0  0  0  0  0  0  0  0  0  0  0  0
   -2.3197    1.0708   -1.6125 H   0  0  0  0  0  0  0  0  0  0  0  0
   -1.0673   -0.1682   -2.2365 H   0  0  0  0  0  0  0  0  0  0  0  0
    1.0736   -2.0645   -0.7610 H   0  0  0  0  0  0  0  0  0  0  0  0
    0.8202   -0.6301   -1.9354 H   0  0  0  0  0  0  0  0  0  0  0  0
    2.7957   -0.6737    0.4134 H   0  0  0  0  0  0  0  0  0  0  0  0
    3.0583   -0.1126   -1.3294 H   0  0  0  0  0  0  0  0  0  0  0  0
    1.2685    1.4583   -1.1135 H   0  0  0  0  0  0  0  0  0  0  0  0
    1.7854    1.4767    0.6930 H   0  0  0  0  0  0  0  0  0  0  0  0
  1  2  1  0
  2  3  1  0
  3  4  1  0
  3  5  1  0
  5  6  1  0
  2  7  1  0
  7  8  1  0
  8  9  1  0
  9  2  1  0
  6  3  1  0
  1 10  1  0
  1 11  1  0
  1 12  1  0
  4 13  1  0
  4 14  1  0
  4 15  1  0
  5 16  1  0
  5 17  1  0
  6 18  1  0
  6 19  1  0
  7 20  1  0
  7 21  1  0
  8 22  1  0
  8 23  1  0
  9 24  1  0
  9 25  1  0
M  END
