
     RDKit          3D

 19 19  0  0  0  0  0  0  0  0999 V2000
   -0.9868   -1.0145   -0.9150 C   0  0  0  0  0  0  0  0  0  0  0  0
   -0.5661    0.2900   -0.2442 C   0  0  0  0  0  0  0  0  0  0  0  0
   -1.7389    1.2329   -0.1256 C   0  0  0  0  0  0  0  0  0  0  0  0
    0.4853    0.8925   -0.8987 O   0  0  0  0  0  0  0  0  0  0  0  0
    1.3422    0.5767    0.1349 C   0  0  0  0  0  0  0  0  0  0  0  0
    2.3337   -0.4430   -0.2783 C   0  0  0  0  0  0  0  0  0  0  0  0
    2.2805   -0.8611   -1.4190 O   0  0  0  0  0  0  0  0  0  0  0  0
    0.2199    0.0527    0.9960 C   0  0  0  0  0  0  0  0  0  0  0  0
    0.4464   -1.2648    1.3575 O   0  0  0  0  0  0  0  0  0  0  0  0
   -1.0893   -0.7671   -1.9963 H   0  0  0  0  0  0  0  0  0  0  0  0
   -0.2360   -1.8002   -0.8039 H   0  0  0  0  0  0  0  0  0  0  0  0
   -1.9482   -1.3806   -0.4895 H   0  0  0  0  0  0  0  0  0  0  0  0
   -1.3348    2.2715   -0.0990 H   0  0  0  0  0  0  0  0  0  0  0  0
   -2.3112    1.1589   -1.0890 H   0  0  0  0  0  0  0  0  0  0  0  0
   -2.3766    0.9963    0.7325 H   0  0  0  0  0  0  0  0  0  0  0  0
    1.8152    1.5045    0.5236 H   0  0  0  0  0  0  0  0  0  0  0  0
    3.0712   -0.7832    0.4433 H   0  0  0  0  0  0  0  0  0  0  0  0
   -0.0350    0.7024    1.8574 H   0  0  0  0  0  0  0  0  0  0  0  0
    0.6284   -1.3640    2.3135 H   0  0  0  0  0  0  0  0  0  0  0  0
  1  2  1  0
  2  3  1  0
  2  4  1  0
  4  5  1  0
  5  6  1  0
  6  7  2  0
  5  8  1  0
  8  9  1  0
  8  2  1  0
  1 10  1  0
  1 11  1  0
  1 12  1  0
  3 13  1  0
  3 14  1  0
  3 15  1  0
  5 16  1  0
  6 17  1  0
  8 18  1  0
  9 19  1  0
M  END
