
     RDKit          3D

 22 23  0  0  0  0  0  0  0  0999 V2000
   -1.2228    1.2551    0.5549 C   0  0  0  0  0  0  0  0  0  0  0  0
   -1.1209   -0.1821    0.1646 C   0  0  0  0  0  0  0  0  0  0  0  0
   -2.4724   -0.8421   -0.1006 C   0  0  0  0  0  0  0  0  0  0  0  0
   -0.1056   -1.0851    0.7540 C   0  0  0  0  0  0  0  0  0  0  0  0
    0.0532   -0.5996   -0.6615 C   0  0  0  0  0  0  0  0  0  0  0  0
    1.1759    0.3589   -0.9461 C   0  0  0  0  0  0  0  0  0  0  0  0
    1.9916    0.9803    0.0853 C   0  0  0  0  0  0  0  0  0  0  0  0
    2.5443   -0.1610   -0.6828 C   0  0  0  0  0  0  0  0  0  0  0  0
   -1.9048    1.4036    1.4396 H   0  0  0  0  0  0  0  0  0  0  0  0
   -1.6778    1.8287   -0.3026 H   0  0  0  0  0  0  0  0  0  0  0  0
   -0.2865    1.7488    0.7920 H   0  0  0  0  0  0  0  0  0  0  0  0
   -2.6494   -1.5536    0.7567 H   0  0  0  0  0  0  0  0  0  0  0  0
   -2.4689   -1.4537   -1.0116 H   0  0  0  0  0  0  0  0  0  0  0  0
   -3.3042   -0.1195   -0.0525 H   0  0  0  0  0  0  0  0  0  0  0  0
   -0.3313   -2.1782    0.8262 H   0  0  0  0  0  0  0  0  0  0  0  0
    0.6220   -0.7565    1.5052 H   0  0  0  0  0  0  0  0  0  0  0  0
   -0.1936   -1.3022   -1.4984 H   0  0  0  0  0  0  0  0  0  0  0  0
    1.0312    0.9265   -1.8995 H   0  0  0  0  0  0  0  0  0  0  0  0
    1.8888    0.8067    1.1675 H   0  0  0  0  0  0  0  0  0  0  0  0
    2.3952    2.0148   -0.1274 H   0  0  0  0  0  0  0  0  0  0  0  0
    3.3982    0.0637   -1.3317 H   0  0  0  0  0  0  0  0  0  0  0  0
    2.6379   -1.1534   -0.1671 H   0  0  0  0  0  0  0  0  0  0  0  0
  1  2  1  0
  2  3  1  0
  2  4  1  0
  4  5  1  0
  5  6  1  0
  6  7  1  0
  7  8  1  0
  5  2  1  0
  8  6  1  0
  1  9  1  0
  1 10  1  0
  1 11  1  0
  3 12  1  0
  3 13  1  0
  3 14  1  0
  4 15  1  0
  4 16  1  0
  5 17  1  0
  6 18  1  0
  7 19  1  0
  7 20  1  0
  8 21  1  0
  8 22  1  0
M  END
