
     RDKit          3D

 18 19  0  0  0  0  0  0  0  0999 V2000
    1.8998   -0.0589   -0.3278 C   0  0  0  0  0  0  0  0  0  0  0  0
    0.6046    0.1419    0.4161 C   0  0  0  0  0  0  0  0  0  0  0  0
    0.7934    0.9074    1.5344 O   0  0  0  0  0  0  0  0  0  0  0  0
   -0.3230   -1.0073    0.4868 C   0  0  0  0  0  0  0  0  0  0  0  0
   -0.5501   -0.8151   -0.9995 C   0  0  0  0  0  0  0  0  0  0  0  0
   -0.5558    0.5881   -0.4492 C   0  0  0  0  0  0  0  0  0  0  0  0
   -0.6885    1.6651   -1.0603 O   0  0  0  0  0  0  0  0  0  0  0  0
   -1.4343    0.0051    0.6307 C   0  0  0  0  0  0  0  0  0  0  0  0
    1.9064    0.7062   -1.1442 H   0  0  0  0  0  0  0  0  0  0  0  0
    2.7959    0.1891    0.3076 H   0  0  0  0  0  0  0  0  0  0  0  0
    2.0526   -1.0807   -0.6803 H   0  0  0  0  0  0  0  0  0  0  0  0
    0.3827    0.5842    2.3547 H   0  0  0  0  0  0  0  0  0  0  0  0
   -0.2432   -1.8823    0.9641 H   0  0  0  0  0  0  0  0  0  0  0  0
   -1.5590   -1.1910   -1.2920 H   0  0  0  0  0  0  0  0  0  0  0  0
    0.2630   -1.0912   -1.6597 H   0  0  0  0  0  0  0  0  0  0  0  0
   -1.4700    2.2310   -0.8746 H   0  0  0  0  0  0  0  0  0  0  0  0
   -1.4987    0.5445    1.5677 H   0  0  0  0  0  0  0  0  0  0  0  0
   -2.3757   -0.4361    0.2255 H   0  0  0  0  0  0  0  0  0  0  0  0
  1  2  1  0
  2  3  1  0
  2  4  1  0
  4  5  1  0
  5  6  1  0
  6  7  1  0
  6  8  1  0
  6  2  1  0
  8  4  1  0
  1  9  1  0
  1 10  1  0
  1 11  1  0
  3 12  1  0
  4 13  1  0
  5 14  1  0
  5 15  1  0
  7 16  1  0
  8 17  1  0
  8 18  1  0
M  END
