
     RDKit          3D

 23 24  0  0  0  0  0  0  0  0999 V2000
   -2.0590   -0.2495    1.1765 C   0  0  0  0  0  0  0  0  0  0  0  0
   -1.0859   -0.0985    0.0433 C   0  0  0  0  0  0  0  0  0  0  0  0
   -1.7246    0.0825   -1.3288 C   0  0  0  0  0  0  0  0  0  0  0  0
   -0.0388   -1.2166    0.0027 C   0  0  0  0  0  0  0  0  0  0  0  0
    1.0753   -0.2391   -0.1334 C   0  0  0  0  0  0  0  0  0  0  0  0
    2.2836   -0.4236    0.7393 C   0  0  0  0  0  0  0  0  0  0  0  0
    0.9642    1.0298   -0.8620 C   0  0  0  0  0  0  0  0  0  0  0  0
    1.9874    1.9451   -0.7071 O   0  0  0  0  0  0  0  0  0  0  0  0
    0.0592    0.8621    0.2916 C   0  0  0  0  0  0  0  0  0  0  0  0
   -1.6925    0.2170    2.1180 H   0  0  0  0  0  0  0  0  0  0  0  0
   -3.0264    0.1781    0.8812 H   0  0  0  0  0  0  0  0  0  0  0  0
   -2.1195   -1.3510    1.3995 H   0  0  0  0  0  0  0  0  0  0  0  0
   -1.0881   -0.3141   -2.1413 H   0  0  0  0  0  0  0  0  0  0  0  0
   -1.9681    1.1516   -1.5251 H   0  0  0  0  0  0  0  0  0  0  0  0
   -2.6963   -0.4683   -1.3146 H   0  0  0  0  0  0  0  0  0  0  0  0
    0.0457   -1.7520    0.9897 H   0  0  0  0  0  0  0  0  0  0  0  0
   -0.2326   -1.9014   -0.8288 H   0  0  0  0  0  0  0  0  0  0  0  0
    2.6247   -1.4846    0.7319 H   0  0  0  0  0  0  0  0  0  0  0  0
    2.0080   -0.0795    1.7628 H   0  0  0  0  0  0  0  0  0  0  0  0
    3.1534    0.1745    0.4005 H   0  0  0  0  0  0  0  0  0  0  0  0
    0.4705    1.0205   -1.8681 H   0  0  0  0  0  0  0  0  0  0  0  0
    2.8434    1.6086   -1.0965 H   0  0  0  0  0  0  0  0  0  0  0  0
    0.2166    1.3082    1.2686 H   0  0  0  0  0  0  0  0  0  0  0  0
  1  2  1  0
  2  3  1  0
  2  4  1  0
  4  5  1  0
  5  6  1  0
  5  7  1  0
  7  8  1  0
  7  9  1  0
  9  2  1  0
  9  5  1  0
  1 10  1  0
  1 11  1  0
  1 12  1  0
  3 13  1  0
  3 14  1  0
  3 15  1  0
  4 16  1  0
  4 17  1  0
  6 18  1  0
  6 19  1  0
  6 20  1  0
  7 21  1  0
  8 22  1  0
  9 23  1  0
M  END
