
     RDKit          3D

 23 23  0  0  0  0  0  0  0  0999 V2000
   -1.9858    0.3467   -1.0248 C   0  0  0  0  0  0  0  0  0  0  0  0
   -0.9815   -0.0063    0.0282 C   0  0  0  0  0  0  0  0  0  0  0  0
   -1.6387   -0.2440    1.3656 C   0  0  0  0  0  0  0  0  0  0  0  0
    0.1508    0.9962    0.1765 C   0  0  0  0  0  0  0  0  0  0  0  0
    1.1591   -0.1103    0.0099 C   0  0  0  0  0  0  0  0  0  0  0  0
    2.1282    0.2382   -1.1066 C   0  0  0  0  0  0  0  0  0  0  0  0
    1.8619   -0.5150    1.2661 C   0  0  0  0  0  0  0  0  0  0  0  0
    1.7797    0.0806    2.3087 O   0  0  0  0  0  0  0  0  0  0  0  0
    0.0282   -1.0199   -0.4017 C   0  0  0  0  0  0  0  0  0  0  0  0
   -1.5739    0.2999   -2.0509 H   0  0  0  0  0  0  0  0  0  0  0  0
   -2.8114   -0.4010   -0.9561 H   0  0  0  0  0  0  0  0  0  0  0  0
   -2.4163    1.3629   -0.8402 H   0  0  0  0  0  0  0  0  0  0  0  0
   -0.9388   -0.3251    2.1995 H   0  0  0  0  0  0  0  0  0  0  0  0
   -2.2590    0.6759    1.5691 H   0  0  0  0  0  0  0  0  0  0  0  0
   -2.3719   -1.0791    1.3335 H   0  0  0  0  0  0  0  0  0  0  0  0
    0.1931    1.4905    1.1552 H   0  0  0  0  0  0  0  0  0  0  0  0
    0.1306    1.7256   -0.6858 H   0  0  0  0  0  0  0  0  0  0  0  0
    2.4009    1.3041   -0.9662 H   0  0  0  0  0  0  0  0  0  0  0  0
    1.5864    0.0755   -2.0618 H   0  0  0  0  0  0  0  0  0  0  0  0
    3.0536   -0.3716   -1.0463 H   0  0  0  0  0  0  0  0  0  0  0  0
    2.4766   -1.4064    1.1994 H   0  0  0  0  0  0  0  0  0  0  0  0
   -0.0057   -2.0075    0.0506 H   0  0  0  0  0  0  0  0  0  0  0  0
    0.0338   -1.1099   -1.5221 H   0  0  0  0  0  0  0  0  0  0  0  0
  1  2  1  0
  2  3  1  0
  2  4  1  0
  4  5  1  0
  5  6  1  0
  5  7  1  0
  7  8  2  0
  5  9  1  0
  9  2  1  0
  1 10  1  0
  1 11  1  0
  1 12  1  0
  3 13  1  0
  3 14  1  0
  3 15  1  0
  4 16  1  0
  4 17  1  0
  6 18  1  0
  6 19  1  0
  6 20  1  0
  7 21  1  0
  9 22  1  0
  9 23  1  0
M  END
