
     RDKit          3D

 21 22  0  0  0  0  0  0  0  0999 V2000
    1.3212    0.0749    1.3038 C   0  0  0  0  0  0  0  0  0  0  0  0
    0.6161   -0.0928   -0.0321 C   0  0  0  0  0  0  0  0  0  0  0  0
    1.5871    0.0194   -1.1516 C   0  0  0  0  0  0  0  0  0  0  0  0
   -0.1651   -1.4034   -0.1472 C   0  0  0  0  0  0  0  0  0  0  0  0
   -1.4452   -0.5904   -0.3586 C   0  0  0  0  0  0  0  0  0  0  0  0
   -2.4128   -0.8823    0.6264 O   0  0  0  0  0  0  0  0  0  0  0  0
   -0.6485    0.6329   -0.0937 C   0  0  0  0  0  0  0  0  0  0  0  0
   -1.0264    1.9242   -0.2271 C   0  0  0  0  0  0  0  0  0  0  0  0
   -1.0626    1.3628    1.1336 O   0  0  0  0  0  0  0  0  0  0  0  0
    0.5714    0.3549    2.0663 H   0  0  0  0  0  0  0  0  0  0  0  0
    1.8296   -0.8287    1.6326 H   0  0  0  0  0  0  0  0  0  0  0  0
    2.0002    0.9564    1.1778 H   0  0  0  0  0  0  0  0  0  0  0  0
    1.1387   -0.3845   -2.1015 H   0  0  0  0  0  0  0  0  0  0  0  0
    1.9945    1.0386   -1.2852 H   0  0  0  0  0  0  0  0  0  0  0  0
    2.4334   -0.6947   -0.9311 H   0  0  0  0  0  0  0  0  0  0  0  0
    0.0403   -1.9762   -1.0677 H   0  0  0  0  0  0  0  0  0  0  0  0
   -0.1795   -2.0130    0.7539 H   0  0  0  0  0  0  0  0  0  0  0  0
   -1.8948   -0.6811   -1.3471 H   0  0  0  0  0  0  0  0  0  0  0  0
   -2.3288   -1.8365    0.8060 H   0  0  0  0  0  0  0  0  0  0  0  0
   -2.0564    2.2313   -0.4913 H   0  0  0  0  0  0  0  0  0  0  0  0
   -0.3124    2.7881   -0.2662 H   0  0  0  0  0  0  0  0  0  0  0  0
  1  2  1  0
  2  3  1  0
  2  4  1  0
  4  5  1  0
  5  6  1  0
  5  7  1  0
  7  8  1  0
  8  9  1  0
  7  2  1  0
  9  7  1  0
  1 10  1  0
  1 11  1  0
  1 12  1  0
  3 13  1  0
  3 14  1  0
  3 15  1  0
  4 16  1  0
  4 17  1  0
  5 18  1  0
  6 19  1  0
  8 20  1  0
  8 21  1  0
M  END
