
     RDKit          3D

 18 18  0  0  0  0  0  0  0  0999 V2000
   -1.6258   -1.3160   -0.0645 C   0  0  0  0  0  0  0  0  0  0  0  0
   -0.4605   -0.3292    0.1321 C   0  0  0  0  0  0  0  0  0  0  0  0
   -0.9139    1.0834    0.3198 C   0  0  0  0  0  0  0  0  0  0  0  0
   -1.7291    1.4698   -0.7689 O   0  0  0  0  0  0  0  0  0  0  0  0
    0.3814   -0.8098    1.1941 O   0  0  0  0  0  0  0  0  0  0  0  0
    0.8159   -0.7761   -0.2398 C   0  0  0  0  0  0  0  0  0  0  0  0
    2.1085   -0.0368   -0.2971 C   0  0  0  0  0  0  0  0  0  0  0  0
    2.0588    1.2698    0.1640 O   0  0  0  0  0  0  0  0  0  0  0  0
   -1.2833   -2.3598    0.1000 H   0  0  0  0  0  0  0  0  0  0  0  0
   -2.4307   -1.0517    0.6512 H   0  0  0  0  0  0  0  0  0  0  0  0
   -2.0032   -1.1647   -1.1059 H   0  0  0  0  0  0  0  0  0  0  0  0
   -0.1428    1.8163    0.5169 H   0  0  0  0  0  0  0  0  0  0  0  0
   -1.6104    1.0649    1.2055 H   0  0  0  0  0  0  0  0  0  0  0  0
   -2.4760    2.0502   -0.4425 H   0  0  0  0  0  0  0  0  0  0  0  0
    0.9249   -1.8564   -0.5626 H   0  0  0  0  0  0  0  0  0  0  0  0
    2.5663   -0.0080   -1.2992 H   0  0  0  0  0  0  0  0  0  0  0  0
    2.8173   -0.5734    0.4006 H   0  0  0  0  0  0  0  0  0  0  0  0
    3.0024    1.5277    0.4077 H   0  0  0  0  0  0  0  0  0  0  0  0
  1  2  1  0
  2  3  1  0
  3  4  1  0
  2  5  1  0
  5  6  1  0
  6  7  1  0
  7  8  1  0
  6  2  1  0
  1  9  1  0
  1 10  1  0
  1 11  1  0
  3 12  1  0
  3 13  1  0
  4 14  1  0
  6 15  1  0
  7 16  1  0
  7 17  1  0
  8 18  1  0
M  END
