
     RDKit          3D

 21 22  0  0  0  0  0  0  0  0999 V2000
    1.6556    1.2628   -0.0231 C   0  0  0  0  0  0  0  0  0  0  0  0
    1.4642   -0.2044   -0.2638 C   0  0  0  0  0  0  0  0  0  0  0  0
    2.5651   -0.7970   -0.9273 O   0  0  0  0  0  0  0  0  0  0  0  0
    0.7891   -0.9758    0.8052 C   0  0  0  0  0  0  0  0  0  0  0  0
    0.1040   -0.7699   -0.4804 C   0  0  0  0  0  0  0  0  0  0  0  0
   -1.0995    0.0846   -0.6452 C   0  0  0  0  0  0  0  0  0  0  0  0
   -1.4784    1.0032    0.4519 C   0  0  0  0  0  0  0  0  0  0  0  0
   -2.8195    0.5513    0.4390 O   0  0  0  0  0  0  0  0  0  0  0  0
   -2.3401   -0.6227   -0.1314 C   0  0  0  0  0  0  0  0  0  0  0  0
    1.1036    1.6597    0.8385 H   0  0  0  0  0  0  0  0  0  0  0  0
    1.4016    1.8569   -0.9505 H   0  0  0  0  0  0  0  0  0  0  0  0
    2.7381    1.4497    0.1722 H   0  0  0  0  0  0  0  0  0  0  0  0
    3.0228   -1.4260   -0.2847 H   0  0  0  0  0  0  0  0  0  0  0  0
    0.4305   -0.5059    1.7331 H   0  0  0  0  0  0  0  0  0  0  0  0
    1.2507   -1.9862    1.0079 H   0  0  0  0  0  0  0  0  0  0  0  0
    0.1013   -1.6645   -1.1727 H   0  0  0  0  0  0  0  0  0  0  0  0
   -1.2158    0.5597   -1.6379 H   0  0  0  0  0  0  0  0  0  0  0  0
   -1.5111    2.0981    0.1762 H   0  0  0  0  0  0  0  0  0  0  0  0
   -1.0700    0.8457    1.4477 H   0  0  0  0  0  0  0  0  0  0  0  0
   -2.1046   -1.3663    0.6443 H   0  0  0  0  0  0  0  0  0  0  0  0
   -2.9875   -1.0531   -0.9185 H   0  0  0  0  0  0  0  0  0  0  0  0
  1  2  1  0
  2  3  1  0
  2  4  1  0
  4  5  1  0
  5  6  1  0
  6  7  1  0
  7  8  1  0
  8  9  1  0
  5  2  1  0
  9  6  1  0
  1 10  1  0
  1 11  1  0
  1 12  1  0
  3 13  1  0
  4 14  1  0
  4 15  1  0
  5 16  1  0
  6 17  1  0
  7 18  1  0
  7 19  1  0
  9 20  1  0
  9 21  1  0
M  END
