
     RDKit          3D

 23 25  0  0  0  0  0  0  0  0999 V2000
    2.5095    0.9967    0.1438 C   0  0  0  0  0  0  0  0  0  0  0  0
    1.2604    0.1554   -0.0442 C   0  0  0  0  0  0  0  0  0  0  0  0
    1.4778   -1.0457   -0.9320 C   0  0  0  0  0  0  0  0  0  0  0  0
    0.4537   -0.0818    1.1684 C   0  0  0  0  0  0  0  0  0  0  0  0
   -0.8522   -0.8471    0.9273 C   0  0  0  0  0  0  0  0  0  0  0  0
   -2.0569   -0.0977    1.3321 C   0  0  0  0  0  0  0  0  0  0  0  0
   -1.3432    0.2026    0.0610 C   0  0  0  0  0  0  0  0  0  0  0  0
   -2.1369   -0.0149   -1.1896 C   0  0  0  0  0  0  0  0  0  0  0  0
   -0.0186    0.8607    0.0318 C   0  0  0  0  0  0  0  0  0  0  0  0
    2.7512    1.4279   -0.8528 H   0  0  0  0  0  0  0  0  0  0  0  0
    3.3343    0.2736    0.3810 H   0  0  0  0  0  0  0  0  0  0  0  0
    2.3830    1.7373    0.9327 H   0  0  0  0  0  0  0  0  0  0  0  0
    1.8462   -0.6979   -1.9175 H   0  0  0  0  0  0  0  0  0  0  0  0
    0.5587   -1.6373   -0.9741 H   0  0  0  0  0  0  0  0  0  0  0  0
    2.3215   -1.6273   -0.4554 H   0  0  0  0  0  0  0  0  0  0  0  0
    0.6011    0.4358    2.1139 H   0  0  0  0  0  0  0  0  0  0  0  0
   -0.8252   -1.9077    0.7119 H   0  0  0  0  0  0  0  0  0  0  0  0
   -2.0104    0.6324    2.1884 H   0  0  0  0  0  0  0  0  0  0  0  0
   -3.0063   -0.6269    1.2779 H   0  0  0  0  0  0  0  0  0  0  0  0
   -2.9785    0.7380   -1.1525 H   0  0  0  0  0  0  0  0  0  0  0  0
   -1.5949    0.1915   -2.1194 H   0  0  0  0  0  0  0  0  0  0  0  0
   -2.6669   -1.0058   -1.2053 H   0  0  0  0  0  0  0  0  0  0  0  0
   -0.0074    1.9382    0.2282 H   0  0  0  0  0  0  0  0  0  0  0  0
  1  2  1  0
  2  3  1  0
  2  4  1  0
  4  5  1  0
  5  6  1  0
  6  7  1  0
  7  8  1  0
  7  9  1  0
  9  2  1  0
  9  4  1  0
  7  5  1  0
  1 10  1  0
  1 11  1  0
  1 12  1  0
  3 13  1  0
  3 14  1  0
  3 15  1  0
  4 16  1  0
  5 17  1  0
  6 18  1  0
  6 19  1  0
  8 20  1  0
  8 21  1  0
  8 22  1  0
  9 23  1  0
M  END
