
     RDKit          3D

 21 22  0  0  0  0  0  0  0  0999 V2000
    0.8336   -1.3610   -0.4361 C   0  0  0  0  0  0  0  0  0  0  0  0
    0.5787    0.1014   -0.3929 C   0  0  0  0  0  0  0  0  0  0  0  0
   -0.8434    0.5603   -0.3995 C   0  0  0  0  0  0  0  0  0  0  0  0
   -1.6564    0.0422    0.7852 C   0  0  0  0  0  0  0  0  0  0  0  0
   -1.9893   -0.2995   -0.6330 C   0  0  0  0  0  0  0  0  0  0  0  0
   -3.1582    0.3337   -1.1151 O   0  0  0  0  0  0  0  0  0  0  0  0
    1.3247    0.7558    0.7673 C   0  0  0  0  0  0  0  0  0  0  0  0
    2.4246    0.6607   -0.2675 C   0  0  0  0  0  0  0  0  0  0  0  0
    1.4255    0.8239   -1.2471 O   0  0  0  0  0  0  0  0  0  0  0  0
    1.3797   -1.7056    0.4914 H   0  0  0  0  0  0  0  0  0  0  0  0
    1.5343   -1.6485   -1.2729 H   0  0  0  0  0  0  0  0  0  0  0  0
   -0.0469   -1.9946   -0.5312 H   0  0  0  0  0  0  0  0  0  0  0  0
   -0.9489    1.6605   -0.6228 H   0  0  0  0  0  0  0  0  0  0  0  0
   -2.2306    0.7729    1.3568 H   0  0  0  0  0  0  0  0  0  0  0  0
   -1.2324   -0.7878    1.3907 H   0  0  0  0  0  0  0  0  0  0  0  0
   -1.9378   -1.3524   -0.9482 H   0  0  0  0  0  0  0  0  0  0  0  0
   -3.8212    0.4620   -0.4068 H   0  0  0  0  0  0  0  0  0  0  0  0
    0.9682    1.7761    0.9844 H   0  0  0  0  0  0  0  0  0  0  0  0
    1.3986    0.0587    1.6105 H   0  0  0  0  0  0  0  0  0  0  0  0
    3.1448    1.4985   -0.2445 H   0  0  0  0  0  0  0  0  0  0  0  0
    2.8525   -0.3574   -0.2600 H   0  0  0  0  0  0  0  0  0  0  0  0
  1  2  1  0
  2  3  1  0
  3  4  1  0
  4  5  1  0
  5  6  1  0
  2  7  1  0
  7  8  1  0
  8  9  1  0
  9  2  1  0
  5  3  1  0
  1 10  1  0
  1 11  1  0
  1 12  1  0
  3 13  1  0
  4 14  1  0
  4 15  1  0
  5 16  1  0
  6 17  1  0
  7 18  1  0
  7 19  1  0
  8 20  1  0
  8 21  1  0
M  END
