
     RDKit          3D

 21 22  0  0  0  0  0  0  0  0999 V2000
    2.0378   -0.6148   -0.4597 C   0  0  0  0  0  0  0  0  0  0  0  0
    1.0649    0.4256    0.0480 C   0  0  0  0  0  0  0  0  0  0  0  0
    1.8292    1.6030    0.2329 O   0  0  0  0  0  0  0  0  0  0  0  0
    0.5954    0.0158    1.3639 C   0  0  0  0  0  0  0  0  0  0  0  0
   -0.5371   -0.5939    1.5390 C   0  0  0  0  0  0  0  0  0  0  0  0
   -1.4233   -0.9133    0.4285 C   0  0  0  0  0  0  0  0  0  0  0  0
   -2.3844    0.1373   -0.0410 C   0  0  0  0  0  0  0  0  0  0  0  0
   -1.1562   -0.2983   -0.8635 C   0  0  0  0  0  0  0  0  0  0  0  0
   -0.0470    0.7026   -0.9111 C   0  0  0  0  0  0  0  0  0  0  0  0
    2.3146   -0.4915   -1.5061 H   0  0  0  0  0  0  0  0  0  0  0  0
    1.6267   -1.6062   -0.2469 H   0  0  0  0  0  0  0  0  0  0  0  0
    2.9531   -0.5172    0.1944 H   0  0  0  0  0  0  0  0  0  0  0  0
    1.8169    2.1312   -0.5891 H   0  0  0  0  0  0  0  0  0  0  0  0
    1.2071    0.2214    2.2469 H   0  0  0  0  0  0  0  0  0  0  0  0
   -0.8593   -0.8883    2.5456 H   0  0  0  0  0  0  0  0  0  0  0  0
   -1.8449   -1.9426    0.4265 H   0  0  0  0  0  0  0  0  0  0  0  0
   -2.3400    1.1569    0.4187 H   0  0  0  0  0  0  0  0  0  0  0  0
   -3.3732   -0.1379   -0.4116 H   0  0  0  0  0  0  0  0  0  0  0  0
   -1.3437   -0.8761   -1.7892 H   0  0  0  0  0  0  0  0  0  0  0  0
   -0.4714    1.6973   -0.6683 H   0  0  0  0  0  0  0  0  0  0  0  0
    0.3348    0.7888   -1.9578 H   0  0  0  0  0  0  0  0  0  0  0  0
  1  2  1  0
  2  3  1  0
  2  4  1  0
  4  5  2  0
  5  6  1  0
  6  7  1  0
  7  8  1  0
  8  9  1  0
  9  2  1  0
  8  6  1  0
  1 10  1  0
  1 11  1  0
  1 12  1  0
  3 13  1  0
  4 14  1  0
  5 15  1  0
  6 16  1  0
  7 17  1  0
  7 18  1  0
  8 19  1  0
  9 20  1  0
  9 21  1  0
M  END
