
     RDKit          3D

 16 16  0  0  0  0  0  0  0  0999 V2000
    0.0968    1.6531   -0.1496 C   0  0  0  0  0  0  0  0  0  0  0  0
   -0.0041    0.1459   -0.0885 C   0  0  0  0  0  0  0  0  0  0  0  0
   -1.3786   -0.3770   -0.4158 C   0  0  0  0  0  0  0  0  0  0  0  0
   -1.4864   -1.7381   -0.2874 O   0  0  0  0  0  0  0  0  0  0  0  0
    0.9371   -0.4321   -0.9500 O   0  0  0  0  0  0  0  0  0  0  0  0
    1.7831   -0.6767    0.1339 C   0  0  0  0  0  0  0  0  0  0  0  0
    0.6521   -0.4421    1.0800 C   0  0  0  0  0  0  0  0  0  0  0  0
    0.5276   -0.6976    2.2534 O   0  0  0  0  0  0  0  0  0  0  0  0
    1.0875    1.9636   -0.5630 H   0  0  0  0  0  0  0  0  0  0  0  0
    0.0143    2.0979    0.8798 H   0  0  0  0  0  0  0  0  0  0  0  0
   -0.7312    2.0635   -0.7740 H   0  0  0  0  0  0  0  0  0  0  0  0
   -1.6427   -0.1199   -1.4694 H   0  0  0  0  0  0  0  0  0  0  0  0
   -2.1680    0.0913    0.2094 H   0  0  0  0  0  0  0  0  0  0  0  0
   -2.4468   -1.9641   -0.1758 H   0  0  0  0  0  0  0  0  0  0  0  0
    2.5574    0.1357    0.1687 H   0  0  0  0  0  0  0  0  0  0  0  0
    2.2019   -1.7034    0.1484 H   0  0  0  0  0  0  0  0  0  0  0  0
  1  2  1  0
  2  3  1  0
  3  4  1  0
  2  5  1  0
  5  6  1  0
  6  7  1  0
  7  8  2  0
  7  2  1  0
  1  9  1  0
  1 10  1  0
  1 11  1  0
  3 12  1  0
  3 13  1  0
  4 14  1  0
  6 15  1  0
  6 16  1  0
M  END
