
     RDKit          3D

 25 26  0  0  0  0  0  0  0  0999 V2000
   -1.3944    0.1714    1.2336 C   0  0  0  0  0  0  0  0  0  0  0  0
   -0.9229    0.1739   -0.1755 C   0  0  0  0  0  0  0  0  0  0  0  0
   -2.0303    0.4260   -1.1725 C   0  0  0  0  0  0  0  0  0  0  0  0
    0.2725    1.0170   -0.5013 C   0  0  0  0  0  0  0  0  0  0  0  0
    1.2980    1.0413    0.6073 C   0  0  0  0  0  0  0  0  0  0  0  0
    1.7734   -0.3319    0.9433 C   0  0  0  0  0  0  0  0  0  0  0  0
    0.8330   -1.4282    0.5789 C   0  0  0  0  0  0  0  0  0  0  0  0
   -0.0930   -1.0355   -0.5502 C   0  0  0  0  0  0  0  0  0  0  0  0
    0.7207   -0.0984   -1.4553 C   0  0  0  0  0  0  0  0  0  0  0  0
   -1.5322   -0.8632    1.6569 H   0  0  0  0  0  0  0  0  0  0  0  0
   -2.4236    0.6268    1.2911 H   0  0  0  0  0  0  0  0  0  0  0  0
   -0.7785    0.7151    1.9435 H   0  0  0  0  0  0  0  0  0  0  0  0
   -2.2290   -0.4492   -1.8259 H   0  0  0  0  0  0  0  0  0  0  0  0
   -2.9525    0.7321   -0.6108 H   0  0  0  0  0  0  0  0  0  0  0  0
   -1.8003    1.3127   -1.8253 H   0  0  0  0  0  0  0  0  0  0  0  0
    0.1082    1.9458   -1.0433 H   0  0  0  0  0  0  0  0  0  0  0  0
    2.1862    1.5994    0.1844 H   0  0  0  0  0  0  0  0  0  0  0  0
    0.9791    1.6415    1.4809 H   0  0  0  0  0  0  0  0  0  0  0  0
    1.9843   -0.3464    2.0488 H   0  0  0  0  0  0  0  0  0  0  0  0
    2.7652   -0.5628    0.4542 H   0  0  0  0  0  0  0  0  0  0  0  0
    0.2718   -1.8078    1.4717 H   0  0  0  0  0  0  0  0  0  0  0  0
    1.3942   -2.3353    0.2061 H   0  0  0  0  0  0  0  0  0  0  0  0
   -0.6034   -1.8429   -1.0640 H   0  0  0  0  0  0  0  0  0  0  0  0
    1.8203   -0.2923   -1.4018 H   0  0  0  0  0  0  0  0  0  0  0  0
    0.3532   -0.0092   -2.4750 H   0  0  0  0  0  0  0  0  0  0  0  0
  1  2  1  0
  2  3  1  0
  2  4  1  0
  4  5  1  0
  5  6  1  0
  6  7  1  0
  7  8  1  0
  8  9  1  0
  8  2  1  0
  9  4  1  0
  1 10  1  0
  1 11  1  0
  1 12  1  0
  3 13  1  0
  3 14  1  0
  3 15  1  0
  4 16  1  0
  5 17  1  0
  5 18  1  0
  6 19  1  0
  6 20  1  0
  7 21  1  0
  7 22  1  0
  8 23  1  0
  9 24  1  0
  9 25  1  0
M  END
