
     RDKit          3D

 23 24  0  0  0  0  0  0  0  0999 V2000
    1.2860   -0.3298    1.3561 C   0  0  0  0  0  0  0  0  0  0  0  0
    0.7005   -0.0501   -0.0329 C   0  0  0  0  0  0  0  0  0  0  0  0
    1.4508   -0.7458   -1.1152 C   0  0  0  0  0  0  0  0  0  0  0  0
    0.7264    1.4594   -0.2733 C   0  0  0  0  0  0  0  0  0  0  0  0
   -0.7850    1.4794   -0.1598 C   0  0  0  0  0  0  0  0  0  0  0  0
   -0.7534   -0.0013   -0.0628 C   0  0  0  0  0  0  0  0  0  0  0  0
   -1.5549   -0.8170   -0.9649 C   0  0  0  0  0  0  0  0  0  0  0  0
   -2.1848   -1.4068    0.1577 O   0  0  0  0  0  0  0  0  0  0  0  0
   -1.5475   -0.5475    1.0662 C   0  0  0  0  0  0  0  0  0  0  0  0
    0.9055    0.4530    2.0633 H   0  0  0  0  0  0  0  0  0  0  0  0
    0.9958   -1.3520    1.6733 H   0  0  0  0  0  0  0  0  0  0  0  0
    2.4051   -0.2966    1.3281 H   0  0  0  0  0  0  0  0  0  0  0  0
    2.4158   -1.1379   -0.6952 H   0  0  0  0  0  0  0  0  0  0  0  0
    1.7786   -0.0517   -1.9415 H   0  0  0  0  0  0  0  0  0  0  0  0
    0.9478   -1.5882   -1.5794 H   0  0  0  0  0  0  0  0  0  0  0  0
    1.0377    1.7395   -1.3088 H   0  0  0  0  0  0  0  0  0  0  0  0
    1.2661    2.0403    0.4869 H   0  0  0  0  0  0  0  0  0  0  0  0
   -1.0573    1.9489    0.8178 H   0  0  0  0  0  0  0  0  0  0  0  0
   -1.3303    1.9488   -0.9700 H   0  0  0  0  0  0  0  0  0  0  0  0
   -2.3126   -0.3008   -1.6144 H   0  0  0  0  0  0  0  0  0  0  0  0
   -1.0918   -1.6212   -1.5528 H   0  0  0  0  0  0  0  0  0  0  0  0
   -1.0173   -1.0365    1.8896 H   0  0  0  0  0  0  0  0  0  0  0  0
   -2.2814    0.2139    1.4319 H   0  0  0  0  0  0  0  0  0  0  0  0
  1  2  1  0
  2  3  1  0
  2  4  1  0
  4  5  1  0
  5  6  1  0
  6  7  1  0
  7  8  1  0
  8  9  1  0
  6  2  1  0
  9  6  1  0
  1 10  1  0
  1 11  1  0
  1 12  1  0
  3 13  1  0
  3 14  1  0
  3 15  1  0
  4 16  1  0
  4 17  1  0
  5 18  1  0
  5 19  1  0
  7 20  1  0
  7 21  1  0
  9 22  1  0
  9 23  1  0
M  END
