
     RDKit          3D

 20 21  0  0  0  0  0  0  0  0999 V2000
   -1.7342    0.3621    1.3814 C   0  0  0  0  0  0  0  0  0  0  0  0
   -0.7873   -0.0228    0.2595 C   0  0  0  0  0  0  0  0  0  0  0  0
   -1.0179    0.7937   -1.0091 C   0  0  0  0  0  0  0  0  0  0  0  0
   -0.6117   -1.5173    0.1063 C   0  0  0  0  0  0  0  0  0  0  0  0
    0.5224   -0.6086    0.5583 C   0  0  0  0  0  0  0  0  0  0  0  0
    1.6858   -0.4768   -0.3761 C   0  0  0  0  0  0  0  0  0  0  0  0
    2.2632    0.7720   -0.7864 C   0  0  0  0  0  0  0  0  0  0  0  0
    2.9021    0.0012    0.3059 O   0  0  0  0  0  0  0  0  0  0  0  0
   -1.6912    1.4757    1.4654 H   0  0  0  0  0  0  0  0  0  0  0  0
   -2.7745    0.0341    1.1823 H   0  0  0  0  0  0  0  0  0  0  0  0
   -1.4028   -0.1358    2.3161 H   0  0  0  0  0  0  0  0  0  0  0  0
   -0.0767    1.0468   -1.5178 H   0  0  0  0  0  0  0  0  0  0  0  0
   -1.6768    0.1879   -1.6888 H   0  0  0  0  0  0  0  0  0  0  0  0
   -1.5666    1.7297   -0.8037 H   0  0  0  0  0  0  0  0  0  0  0  0
   -0.5877   -1.8861   -0.9298 H   0  0  0  0  0  0  0  0  0  0  0  0
   -1.0750   -2.1997    0.8232 H   0  0  0  0  0  0  0  0  0  0  0  0
    0.7686   -0.7214    1.6535 H   0  0  0  0  0  0  0  0  0  0  0  0
    1.9419   -1.3890   -0.9251 H   0  0  0  0  0  0  0  0  0  0  0  0
    1.9774    1.7525   -0.3749 H   0  0  0  0  0  0  0  0  0  0  0  0
    2.9409    0.8017   -1.6405 H   0  0  0  0  0  0  0  0  0  0  0  0
  1  2  1  0
  2  3  1  0
  2  4  1  0
  4  5  1  0
  5  6  1  0
  6  7  1  0
  7  8  1  0
  5  2  1  0
  8  6  1  0
  1  9  1  0
  1 10  1  0
  1 11  1  0
  3 12  1  0
  3 13  1  0
  3 14  1  0
  4 15  1  0
  4 16  1  0
  5 17  1  0
  6 18  1  0
  7 19  1  0
  7 20  1  0
M  END
