
     RDKit          3D

 16 16  0  0  0  0  0  0  0  0999 V2000
    1.8031    0.1230   -0.0879 C   0  0  0  0  0  0  0  0  0  0  0  0
    0.3806    0.0829    0.3512 C   0  0  0  0  0  0  0  0  0  0  0  0
    0.2278    0.2165    1.7093 O   0  0  0  0  0  0  0  0  0  0  0  0
   -0.4348   -1.0409   -0.2878 C   0  0  0  0  0  0  0  0  0  0  0  0
   -1.6056   -0.0658   -0.2814 C   0  0  0  0  0  0  0  0  0  0  0  0
   -0.5570    1.0477   -0.3690 C   0  0  0  0  0  0  0  0  0  0  0  0
    2.2434   -0.9051   -0.1460 H   0  0  0  0  0  0  0  0  0  0  0  0
    1.9430    0.5758   -1.0846 H   0  0  0  0  0  0  0  0  0  0  0  0
    2.3656    0.7634    0.6261 H   0  0  0  0  0  0  0  0  0  0  0  0
   -0.2451   -0.5660    2.1002 H   0  0  0  0  0  0  0  0  0  0  0  0
   -0.5853   -1.9163    0.3527 H   0  0  0  0  0  0  0  0  0  0  0  0
   -0.0480   -1.3027   -1.2820 H   0  0  0  0  0  0  0  0  0  0  0  0
   -2.0499   -0.0543    0.7264 H   0  0  0  0  0  0  0  0  0  0  0  0
   -2.2767   -0.1230   -1.1376 H   0  0  0  0  0  0  0  0  0  0  0  0
   -0.8653    1.9150    0.2308 H   0  0  0  0  0  0  0  0  0  0  0  0
   -0.2959    1.2497   -1.4204 H   0  0  0  0  0  0  0  0  0  0  0  0
  1  2  1  0
  2  3  1  0
  2  4  1  0
  4  5  1  0
  5  6  1  0
  6  2  1  0
  1  7  1  0
  1  8  1  0
  1  9  1  0
  3 10  1  0
  4 11  1  0
  4 12  1  0
  5 13  1  0
  5 14  1  0
  6 15  1  0
  6 16  1  0
M  END
