
     RDKit          3D

 23 24  0  0  0  0  0  0  0  0999 V2000
   -2.1191    0.1205   -0.1875 C   0  0  0  0  0  0  0  0  0  0  0  0
   -0.7761   -0.4858   -0.2680 C   0  0  0  0  0  0  0  0  0  0  0  0
   -0.8233   -1.7379   -0.8190 O   0  0  0  0  0  0  0  0  0  0  0  0
    0.2155    0.3443   -1.0923 C   0  0  0  0  0  0  0  0  0  0  0  0
    0.4713    1.5249   -0.2035 C   0  0  0  0  0  0  0  0  0  0  0  0
    0.1498    1.0667    1.2099 C   0  0  0  0  0  0  0  0  0  0  0  0
    0.0145   -0.4171    1.0220 C   0  0  0  0  0  0  0  0  0  0  0  0
    1.3771   -0.9120    0.5190 C   0  0  0  0  0  0  0  0  0  0  0  0
    1.4148   -0.5734   -0.9595 C   0  0  0  0  0  0  0  0  0  0  0  0
   -2.7127   -0.1993   -1.0622 H   0  0  0  0  0  0  0  0  0  0  0  0
   -2.1352    1.2222   -0.1193 H   0  0  0  0  0  0  0  0  0  0  0  0
   -2.6354   -0.3001    0.7055 H   0  0  0  0  0  0  0  0  0  0  0  0
   -0.9123   -2.4709   -0.1586 H   0  0  0  0  0  0  0  0  0  0  0  0
   -0.1032    0.5478   -2.0877 H   0  0  0  0  0  0  0  0  0  0  0  0
    1.5512    1.7794   -0.2207 H   0  0  0  0  0  0  0  0  0  0  0  0
   -0.0874    2.4301   -0.4844 H   0  0  0  0  0  0  0  0  0  0  0  0
   -0.7529    1.5525    1.5833 H   0  0  0  0  0  0  0  0  0  0  0  0
    0.9955    1.2877    1.9099 H   0  0  0  0  0  0  0  0  0  0  0  0
   -0.3816   -0.9748    1.8419 H   0  0  0  0  0  0  0  0  0  0  0  0
    1.4774   -2.0033    0.6577 H   0  0  0  0  0  0  0  0  0  0  0  0
    2.1722   -0.3366    1.0278 H   0  0  0  0  0  0  0  0  0  0  0  0
    2.3185    0.0087   -1.2207 H   0  0  0  0  0  0  0  0  0  0  0  0
    1.2816   -1.4737   -1.5938 H   0  0  0  0  0  0  0  0  0  0  0  0
  1  2  1  0
  2  3  1  0
  2  4  1  0
  4  5  1  0
  5  6  1  0
  6  7  1  0
  7  8  1  0
  8  9  1  0
  7  2  1  0
  9  4  1  0
  1 10  1  0
  1 11  1  0
  1 12  1  0
  3 13  1  0
  4 14  1  0
  5 15  1  0
  5 16  1  0
  6 17  1  0
  6 18  1  0
  7 19  1  0
  8 20  1  0
  8 21  1  0
  9 22  1  0
  9 23  1  0
M  END
