
     RDKit          3D

 21 22  0  0  0  0  0  0  0  0999 V2000
    2.0309    0.1150   -0.9464 C   0  0  0  0  0  0  0  0  0  0  0  0
    0.7151    0.0160   -0.2504 C   0  0  0  0  0  0  0  0  0  0  0  0
    0.9064    0.1432    1.1195 O   0  0  0  0  0  0  0  0  0  0  0  0
    0.1875   -1.4086   -0.4717 C   0  0  0  0  0  0  0  0  0  0  0  0
   -0.9782   -1.6138    0.4577 C   0  0  0  0  0  0  0  0  0  0  0  0
   -1.4348   -0.3729    0.9382 O   0  0  0  0  0  0  0  0  0  0  0  0
   -1.6608    0.5155   -0.1133 C   0  0  0  0  0  0  0  0  0  0  0  0
   -1.0872    1.8710    0.0813 C   0  0  0  0  0  0  0  0  0  0  0  0
   -0.3311    0.9504   -0.7545 C   0  0  0  0  0  0  0  0  0  0  0  0
    2.6526    0.9662   -0.5836 H   0  0  0  0  0  0  0  0  0  0  0  0
    2.6011   -0.8292   -0.7034 H   0  0  0  0  0  0  0  0  0  0  0  0
    1.9609    0.1638   -2.0388 H   0  0  0  0  0  0  0  0  0  0  0  0
    1.1990    1.0655    1.3094 H   0  0  0  0  0  0  0  0  0  0  0  0
   -0.1370   -1.4557   -1.5506 H   0  0  0  0  0  0  0  0  0  0  0  0
    1.0063   -2.1081   -0.2815 H   0  0  0  0  0  0  0  0  0  0  0  0
   -1.8453   -2.0599   -0.0764 H   0  0  0  0  0  0  0  0  0  0  0  0
   -0.7208   -2.2439    1.3146 H   0  0  0  0  0  0  0  0  0  0  0  0
   -2.4588    0.3180   -0.8270 H   0  0  0  0  0  0  0  0  0  0  0  0
   -0.6582    2.1477    1.0572 H   0  0  0  0  0  0  0  0  0  0  0  0
   -1.6238    2.6918   -0.4146 H   0  0  0  0  0  0  0  0  0  0  0  0
   -0.3240    1.1282   -1.8468 H   0  0  0  0  0  0  0  0  0  0  0  0
  1  2  1  0
  2  3  1  0
  2  4  1  0
  4  5  1  0
  5  6  1  0
  6  7  1  0
  7  8  1  0
  8  9  1  0
  9  2  1  0
  9  7  1  0
  1 10  1  0
  1 11  1  0
  1 12  1  0
  3 13  1  0
  4 14  1  0
  4 15  1  0
  5 16  1  0
  5 17  1  0
  7 18  1  0
  8 19  1  0
  8 20  1  0
  9 21  1  0
M  END
