
     RDKit          3D

 15 15  0  0  0  0  0  0  0  0999 V2000
   -1.0434    1.1351   -0.3341 C   0  0  0  0  0  0  0  0  0  0  0  0
   -0.1375   -0.0053    0.1051 C   0  0  0  0  0  0  0  0  0  0  0  0
   -0.9871   -1.1633    0.5787 C   0  0  0  0  0  0  0  0  0  0  0  0
    0.8087    0.3439    1.0643 O   0  0  0  0  0  0  0  0  0  0  0  0
    1.8498    0.1933    0.1498 C   0  0  0  0  0  0  0  0  0  0  0  0
    0.9174   -0.3311   -0.8622 C   0  0  0  0  0  0  0  0  0  0  0  0
    1.0858   -0.7994   -1.9732 O   0  0  0  0  0  0  0  0  0  0  0  0
   -2.1048    0.9466   -0.0834 H   0  0  0  0  0  0  0  0  0  0  0  0
   -0.6929    2.0483    0.2260 H   0  0  0  0  0  0  0  0  0  0  0  0
   -0.9554    1.2921   -1.4148 H   0  0  0  0  0  0  0  0  0  0  0  0
   -1.2229   -0.9629    1.6639 H   0  0  0  0  0  0  0  0  0  0  0  0
   -0.4477   -2.1036    0.4455 H   0  0  0  0  0  0  0  0  0  0  0  0
   -1.9765   -1.1889    0.0762 H   0  0  0  0  0  0  0  0  0  0  0  0
    2.5994   -0.5333    0.5382 H   0  0  0  0  0  0  0  0  0  0  0  0
    2.3069    1.1286   -0.1798 H   0  0  0  0  0  0  0  0  0  0  0  0
  1  2  1  0
  2  3  1  0
  2  4  1  0
  4  5  1  0
  5  6  1  0
  6  7  2  0
  6  2  1  0
  1  8  1  0
  1  9  1  0
  1 10  1  0
  3 11  1  0
  3 12  1  0
  3 13  1  0
  5 14  1  0
  5 15  1  0
M  END
