
     RDKit          3D

 21 22  0  0  0  0  0  0  0  0999 V2000
    0.7165   -1.4617   -0.7339 C   0  0  0  0  0  0  0  0  0  0  0  0
    0.4332   -0.1294   -0.1184 C   0  0  0  0  0  0  0  0  0  0  0  0
   -1.0196    0.0538    0.2165 C   0  0  0  0  0  0  0  0  0  0  0  0
   -1.4969    1.1834    1.0551 C   0  0  0  0  0  0  0  0  0  0  0  0
   -1.8792   -1.1512    0.0976 C   0  0  0  0  0  0  0  0  0  0  0  0
   -1.9174   -0.1097   -0.9539 O   0  0  0  0  0  0  0  0  0  0  0  0
    1.1339    1.0450   -0.7234 C   0  0  0  0  0  0  0  0  0  0  0  0
    2.1913    0.5864    0.2534 C   0  0  0  0  0  0  0  0  0  0  0  0
    1.2050    0.0395    1.0302 O   0  0  0  0  0  0  0  0  0  0  0  0
    0.0422   -1.6610   -1.5920 H   0  0  0  0  0  0  0  0  0  0  0  0
    0.5188   -2.2876    0.0016 H   0  0  0  0  0  0  0  0  0  0  0  0
    1.7594   -1.5925   -1.0547 H   0  0  0  0  0  0  0  0  0  0  0  0
   -2.3784    0.8420    1.6558 H   0  0  0  0  0  0  0  0  0  0  0  0
   -1.9019    2.0104    0.4079 H   0  0  0  0  0  0  0  0  0  0  0  0
   -0.7776    1.5985    1.7471 H   0  0  0  0  0  0  0  0  0  0  0  0
   -1.4877   -2.0998   -0.3163 H   0  0  0  0  0  0  0  0  0  0  0  0
   -2.8246   -1.1871    0.6824 H   0  0  0  0  0  0  0  0  0  0  0  0
    0.6989    1.9990   -0.4384 H   0  0  0  0  0  0  0  0  0  0  0  0
    1.4111    0.9553   -1.7908 H   0  0  0  0  0  0  0  0  0  0  0  0
    2.6568    1.4641    0.7779 H   0  0  0  0  0  0  0  0  0  0  0  0
    2.9161   -0.0972   -0.2037 H   0  0  0  0  0  0  0  0  0  0  0  0
  1  2  1  0
  2  3  1  0
  3  4  1  0
  3  5  1  0
  5  6  1  0
  2  7  1  0
  7  8  1  0
  8  9  1  0
  9  2  1  0
  6  3  1  0
  1 10  1  0
  1 11  1  0
  1 12  1  0
  4 13  1  0
  4 14  1  0
  4 15  1  0
  5 16  1  0
  5 17  1  0
  7 18  1  0
  7 19  1  0
  8 20  1  0
  8 21  1  0
M  END
