
     RDKit          3D

 19 20  0  0  0  0  0  0  0  0999 V2000
   -0.8252   -1.5218   -0.1903 C   0  0  0  0  0  0  0  0  0  0  0  0
   -0.2214   -0.1515    0.1196 C   0  0  0  0  0  0  0  0  0  0  0  0
   -1.1933    0.8189    0.6909 C   0  0  0  0  0  0  0  0  0  0  0  0
   -2.2542    1.0353   -0.2195 O   0  0  0  0  0  0  0  0  0  0  0  0
    1.1385   -0.2479    0.6956 C   0  0  0  0  0  0  0  0  0  0  0  0
    1.4556    1.0377   -0.0014 C   0  0  0  0  0  0  0  0  0  0  0  0
    0.6629    0.2801   -0.9957 C   0  0  0  0  0  0  0  0  0  0  0  0
    1.5162   -0.8785   -0.5959 C   0  0  0  0  0  0  0  0  0  0  0  0
    2.1319   -1.7774   -1.0900 O   0  0  0  0  0  0  0  0  0  0  0  0
   -0.6505   -1.8064   -1.2397 H   0  0  0  0  0  0  0  0  0  0  0  0
   -1.9095   -1.5422    0.0859 H   0  0  0  0  0  0  0  0  0  0  0  0
   -0.3366   -2.2874    0.4368 H   0  0  0  0  0  0  0  0  0  0  0  0
   -0.7808    1.7676    1.0554 H   0  0  0  0  0  0  0  0  0  0  0  0
   -1.6938    0.3132    1.5718 H   0  0  0  0  0  0  0  0  0  0  0  0
   -2.5248    1.9779   -0.0890 H   0  0  0  0  0  0  0  0  0  0  0  0
    1.4290   -0.5410    1.6059 H   0  0  0  0  0  0  0  0  0  0  0  0
    1.0977    1.9736    0.4053 H   0  0  0  0  0  0  0  0  0  0  0  0
    2.5388    1.0265   -0.3109 H   0  0  0  0  0  0  0  0  0  0  0  0
    0.4196    0.5234   -1.9349 H   0  0  0  0  0  0  0  0  0  0  0  0
  1  2  1  0
  2  3  1  0
  3  4  1  0
  2  5  1  0
  5  6  1  0
  6  7  1  0
  7  8  1  0
  8  9  2  0
  7  2  1  0
  8  5  1  0
  1 10  1  0
  1 11  1  0
  1 12  1  0
  3 13  1  0
  3 14  1  0
  4 15  1  0
  5 16  1  0
  6 17  1  0
  6 18  1  0
  7 19  1  0
M  END
