
     RDKit          3D

 21 23  0  0  0  0  0  0  0  0999 V2000
   -1.9909   -0.7859    0.9869 C   0  0  0  0  0  0  0  0  0  0  0  0
   -1.1672    0.1352    0.0734 C   0  0  0  0  0  0  0  0  0  0  0  0
   -2.0170    0.8685   -0.9242 C   0  0  0  0  0  0  0  0  0  0  0  0
   -0.3802    1.0295    0.9675 O   0  0  0  0  0  0  0  0  0  0  0  0
    0.1761    0.1129    0.1084 C   0  0  0  0  0  0  0  0  0  0  0  0
    1.0011   -1.0336    0.6404 C   0  0  0  0  0  0  0  0  0  0  0  0
    2.1546   -0.5446   -0.1626 C   0  0  0  0  0  0  0  0  0  0  0  0
    2.5672    0.8802   -0.1798 C   0  0  0  0  0  0  0  0  0  0  0  0
    1.2579    0.5185   -0.8067 C   0  0  0  0  0  0  0  0  0  0  0  0
   -2.4559   -1.5909    0.3892 H   0  0  0  0  0  0  0  0  0  0  0  0
   -2.7066   -0.2128    1.5924 H   0  0  0  0  0  0  0  0  0  0  0  0
   -1.3089   -1.2978    1.7148 H   0  0  0  0  0  0  0  0  0  0  0  0
   -2.0376    1.9428   -0.6737 H   0  0  0  0  0  0  0  0  0  0  0  0
   -3.0341    0.4421   -1.0396 H   0  0  0  0  0  0  0  0  0  0  0  0
   -1.5401    0.7911   -1.9331 H   0  0  0  0  0  0  0  0  0  0  0  0
    0.5785   -1.9929    0.2345 H   0  0  0  0  0  0  0  0  0  0  0  0
    1.1010   -1.0034    1.7446 H   0  0  0  0  0  0  0  0  0  0  0  0
    2.6678   -1.2670   -0.8110 H   0  0  0  0  0  0  0  0  0  0  0  0
    3.4143    1.1180   -0.8444 H   0  0  0  0  0  0  0  0  0  0  0  0
    2.5590    1.3720    0.8249 H   0  0  0  0  0  0  0  0  0  0  0  0
    1.1610    0.5182   -1.9020 H   0  0  0  0  0  0  0  0  0  0  0  0
  1  2  1  0
  2  3  1  0
  2  4  1  0
  4  5  1  0
  5  6  1  0
  6  7  1  0
  7  8  1  0
  8  9  1  0
  5  2  1  0
  9  7  1  0
  9  5  1  0
  1 10  1  0
  1 11  1  0
  1 12  1  0
  3 13  1  0
  3 14  1  0
  3 15  1  0
  6 16  1  0
  6 17  1  0
  7 18  1  0
  8 19  1  0
  8 20  1  0
  9 21  1  0
M  END
