
     RDKit          3D

 19 20  0  0  0  0  0  0  0  0999 V2000
   -2.1998   -0.6729   -0.6135 C   0  0  0  0  0  0  0  0  0  0  0  0
   -1.2480    0.3016    0.1054 C   0  0  0  0  0  0  0  0  0  0  0  0
   -2.0114    1.1140    0.9818 O   0  0  0  0  0  0  0  0  0  0  0  0
   -0.1811    0.9349   -0.5771 C   0  0  0  0  0  0  0  0  0  0  0  0
    1.2519    1.1767   -0.0889 C   0  0  0  0  0  0  0  0  0  0  0  0
    1.2862   -0.3519   -0.3343 C   0  0  0  0  0  0  0  0  0  0  0  0
    2.3778   -1.0163    0.3904 C   0  0  0  0  0  0  0  0  0  0  0  0
    2.4770   -0.7682    1.5925 O   0  0  0  0  0  0  0  0  0  0  0  0
    0.0095   -0.2275    0.4906 C   0  0  0  0  0  0  0  0  0  0  0  0
   -3.0281   -0.0998   -1.0801 H   0  0  0  0  0  0  0  0  0  0  0  0
   -2.5671   -1.3553    0.1843 H   0  0  0  0  0  0  0  0  0  0  0  0
   -1.5671   -1.2047   -1.3518 H   0  0  0  0  0  0  0  0  0  0  0  0
   -2.2709    0.5309    1.7588 H   0  0  0  0  0  0  0  0  0  0  0  0
   -0.0760    0.5793   -1.6531 H   0  0  0  0  0  0  0  0  0  0  0  0
    1.3352    1.4093    0.9777 H   0  0  0  0  0  0  0  0  0  0  0  0
    1.8458    1.7518   -0.7891 H   0  0  0  0  0  0  0  0  0  0  0  0
    1.1550   -0.5683   -1.3869 H   0  0  0  0  0  0  0  0  0  0  0  0
    3.0543   -1.6871   -0.1142 H   0  0  0  0  0  0  0  0  0  0  0  0
    0.3570    0.1536    1.5074 H   0  0  0  0  0  0  0  0  0  0  0  0
  1  2  1  0
  2  3  1  0
  2  4  1  0
  4  5  1  0
  5  6  1  0
  6  7  1  0
  7  8  2  0
  6  9  1  0
  9  2  1  0
  9  4  1  0
  1 10  1  0
  1 11  1  0
  1 12  1  0
  3 13  1  0
  4 14  1  0
  5 15  1  0
  5 16  1  0
  6 17  1  0
  7 18  1  0
  9 19  1  0
M  END
