
     RDKit          3D

 16 16  0  0  0  0  0  0  0  0999 V2000
   -1.2415   -1.1868    0.1324 C   0  0  0  0  0  0  0  0  0  0  0  0
   -0.3313   -0.0357   -0.1694 C   0  0  0  0  0  0  0  0  0  0  0  0
   -0.6653    1.1823    0.6471 C   0  0  0  0  0  0  0  0  0  0  0  0
   -0.2514    0.3138   -1.5485 O   0  0  0  0  0  0  0  0  0  0  0  0
    1.1217    0.5119   -1.4691 C   0  0  0  0  0  0  0  0  0  0  0  0
    1.9863    1.1613   -2.1126 O   0  0  0  0  0  0  0  0  0  0  0  0
    1.1162   -0.3886   -0.2800 C   0  0  0  0  0  0  0  0  0  0  0  0
    1.9534    0.0938    0.7116 O   0  0  0  0  0  0  0  0  0  0  0  0
   -1.1032   -1.9405   -0.6689 H   0  0  0  0  0  0  0  0  0  0  0  0
   -2.2935   -0.7816    0.1401 H   0  0  0  0  0  0  0  0  0  0  0  0
   -1.0007   -1.5843    1.1364 H   0  0  0  0  0  0  0  0  0  0  0  0
   -0.8688    0.8834    1.6903 H   0  0  0  0  0  0  0  0  0  0  0  0
   -1.6259    1.5866    0.2508 H   0  0  0  0  0  0  0  0  0  0  0  0
    0.0854    1.9782    0.5607 H   0  0  0  0  0  0  0  0  0  0  0  0
    1.2715   -1.4323   -0.5946 H   0  0  0  0  0  0  0  0  0  0  0  0
    1.8471   -0.3616    1.5737 H   0  0  0  0  0  0  0  0  0  0  0  0
  1  2  1  0
  2  3  1  0
  2  4  1  0
  4  5  1  0
  5  6  2  0
  5  7  1  0
  7  8  1  0
  7  2  1  0
  1  9  1  0
  1 10  1  0
  1 11  1  0
  3 12  1  0
  3 13  1  0
  3 14  1  0
  7 15  1  0
  8 16  1  0
M  END
