
     RDKit          3D

 19 20  0  0  0  0  0  0  0  0999 V2000
   -1.7501   -0.9078   -0.5648 C   0  0  0  0  0  0  0  0  0  0  0  0
   -0.6796    0.0329   -0.0407 C   0  0  0  0  0  0  0  0  0  0  0  0
   -1.3891    1.1492    0.7018 C   0  0  0  0  0  0  0  0  0  0  0  0
    0.0409    0.4975   -1.1218 O   0  0  0  0  0  0  0  0  0  0  0  0
    1.3053   -0.0393   -1.0919 C   0  0  0  0  0  0  0  0  0  0  0  0
    2.2670    0.6263   -0.1414 C   0  0  0  0  0  0  0  0  0  0  0  0
    1.5747   -0.6211    0.2493 C   0  0  0  0  0  0  0  0  0  0  0  0
    0.2568   -0.6161    0.8837 C   0  0  0  0  0  0  0  0  0  0  0  0
   -0.0351   -1.0603    1.9729 O   0  0  0  0  0  0  0  0  0  0  0  0
   -2.1879   -1.4513    0.2934 H   0  0  0  0  0  0  0  0  0  0  0  0
   -2.5636   -0.2468   -0.9633 H   0  0  0  0  0  0  0  0  0  0  0  0
   -1.3624   -1.5982   -1.3185 H   0  0  0  0  0  0  0  0  0  0  0  0
   -1.4882    0.8365    1.7607 H   0  0  0  0  0  0  0  0  0  0  0  0
   -2.4257    1.2875    0.3257 H   0  0  0  0  0  0  0  0  0  0  0  0
   -0.8052    2.0959    0.6995 H   0  0  0  0  0  0  0  0  0  0  0  0
    1.6960   -0.6275   -1.9412 H   0  0  0  0  0  0  0  0  0  0  0  0
    3.3551    0.5685   -0.3330 H   0  0  0  0  0  0  0  0  0  0  0  0
    1.9801    1.6138    0.3071 H   0  0  0  0  0  0  0  0  0  0  0  0
    2.2112   -1.5398    0.3224 H   0  0  0  0  0  0  0  0  0  0  0  0
  1  2  1  0
  2  3  1  0
  2  4  1  0
  4  5  1  0
  5  6  1  0
  6  7  1  0
  7  8  1  0
  8  9  2  0
  8  2  1  0
  7  5  1  0
  1 10  1  0
  1 11  1  0
  1 12  1  0
  3 13  1  0
  3 14  1  0
  3 15  1  0
  5 16  1  0
  6 17  1  0
  6 18  1  0
  7 19  1  0
M  END
