
     RDKit          3D

 21 22  0  0  0  0  0  0  0  0999 V2000
   -1.9995    1.1471    0.2350 C   0  0  0  0  0  0  0  0  0  0  0  0
   -1.0616   -0.0267    0.1351 C   0  0  0  0  0  0  0  0  0  0  0  0
   -1.8157   -1.3166    0.2237 C   0  0  0  0  0  0  0  0  0  0  0  0
   -0.1582    0.1404   -1.0543 C   0  0  0  0  0  0  0  0  0  0  0  0
    0.8623   -0.0716   -0.0264 C   0  0  0  0  0  0  0  0  0  0  0  0
    2.0325   -0.9141   -0.1577 C   0  0  0  0  0  0  0  0  0  0  0  0
    2.1516    0.5925    0.0843 C   0  0  0  0  0  0  0  0  0  0  0  0
    2.5665    0.9136    1.3929 O   0  0  0  0  0  0  0  0  0  0  0  0
    0.0047   -0.0214    1.0270 O   0  0  0  0  0  0  0  0  0  0  0  0
   -2.2517    1.3814    1.2823 H   0  0  0  0  0  0  0  0  0  0  0  0
   -1.5640    2.0738   -0.1968 H   0  0  0  0  0  0  0  0  0  0  0  0
   -2.9002    0.8847   -0.3797 H   0  0  0  0  0  0  0  0  0  0  0  0
   -2.8611   -1.1626    0.5446 H   0  0  0  0  0  0  0  0  0  0  0  0
   -1.3566   -2.0203    0.9606 H   0  0  0  0  0  0  0  0  0  0  0  0
   -1.8329   -1.8342   -0.7374 H   0  0  0  0  0  0  0  0  0  0  0  0
   -0.3119   -0.6543   -1.8165 H   0  0  0  0  0  0  0  0  0  0  0  0
   -0.1840    1.1458   -1.5415 H   0  0  0  0  0  0  0  0  0  0  0  0
    2.4160   -1.6096    0.5904 H   0  0  0  0  0  0  0  0  0  0  0  0
    2.3065   -1.2283   -1.2082 H   0  0  0  0  0  0  0  0  0  0  0  0
    2.4971    1.2441   -0.7077 H   0  0  0  0  0  0  0  0  0  0  0  0
    3.4605    1.3362    1.3332 H   0  0  0  0  0  0  0  0  0  0  0  0
  1  2  1  0
  2  3  1  0
  2  4  1  0
  4  5  1  0
  5  6  1  0
  6  7  1  0
  7  8  1  0
  5  9  1  0
  9  2  1  0
  7  5  1  0
  1 10  1  0
  1 11  1  0
  1 12  1  0
  3 13  1  0
  3 14  1  0
  3 15  1  0
  4 16  1  0
  4 17  1  0
  6 18  1  0
  6 19  1  0
  7 20  1  0
  8 21  1  0
M  END
