
     RDKit          3D

 15 15  0  0  0  0  0  0  0  0999 V2000
   -1.3257   -1.1241    0.1159 C   0  0  0  0  0  0  0  0  0  0  0  0
   -0.2602   -0.0330    0.0123 C   0  0  0  0  0  0  0  0  0  0  0  0
   -0.9846    1.2208   -0.2921 C   0  0  0  0  0  0  0  0  0  0  0  0
   -1.8207    1.7114    0.4492 O   0  0  0  0  0  0  0  0  0  0  0  0
    0.6140   -0.3079   -1.0351 O   0  0  0  0  0  0  0  0  0  0  0  0
    1.8715    0.0939   -0.6686 C   0  0  0  0  0  0  0  0  0  0  0  0
    1.8972   -0.1663    0.7341 O   0  0  0  0  0  0  0  0  0  0  0  0
    0.6027    0.0274    1.1743 C   0  0  0  0  0  0  0  0  0  0  0  0
    0.2751    0.2161    2.3579 O   0  0  0  0  0  0  0  0  0  0  0  0
   -1.7514   -1.2381   -0.8973 H   0  0  0  0  0  0  0  0  0  0  0  0
   -0.9073   -2.0442    0.5336 H   0  0  0  0  0  0  0  0  0  0  0  0
   -2.1259   -0.7084    0.7538 H   0  0  0  0  0  0  0  0  0  0  0  0
   -0.7608    1.7271   -1.2191 H   0  0  0  0  0  0  0  0  0  0  0  0
    2.0566    1.1724   -0.8261 H   0  0  0  0  0  0  0  0  0  0  0  0
    2.6195   -0.5473   -1.1929 H   0  0  0  0  0  0  0  0  0  0  0  0
  1  2  1  0
  2  3  1  0
  3  4  2  0
  2  5  1  0
  5  6  1  0
  6  7  1  0
  7  8  1  0
  8  9  2  0
  8  2  1  0
  1 10  1  0
  1 11  1  0
  1 12  1  0
  3 13  1  0
  6 14  1  0
  6 15  1  0
M  END
