
     RDKit          3D

 21 21  0  0  0  0  0  0  0  0999 V2000
   -1.7296   -0.3566   -1.0730 C   0  0  0  0  0  0  0  0  0  0  0  0
   -0.7185    0.1020   -0.0773 C   0  0  0  0  0  0  0  0  0  0  0  0
   -1.1682    1.4228    0.5190 C   0  0  0  0  0  0  0  0  0  0  0  0
   -0.4995   -0.8704    1.0572 C   0  0  0  0  0  0  0  0  0  0  0  0
    0.8664   -0.8088    1.3444 O   0  0  0  0  0  0  0  0  0  0  0  0
    1.5145   -0.7317    0.1151 C   0  0  0  0  0  0  0  0  0  0  0  0
    2.8389   -0.0995    0.2334 C   0  0  0  0  0  0  0  0  0  0  0  0
    3.2156    0.2691    1.3139 O   0  0  0  0  0  0  0  0  0  0  0  0
    0.6450    0.2130   -0.7189 C   0  0  0  0  0  0  0  0  0  0  0  0
   -1.4180    0.0589   -2.0727 H   0  0  0  0  0  0  0  0  0  0  0  0
   -2.7445    0.0874   -0.8830 H   0  0  0  0  0  0  0  0  0  0  0  0
   -1.7792   -1.4428   -1.2029 H   0  0  0  0  0  0  0  0  0  0  0  0
   -2.2764    1.4691    0.4908 H   0  0  0  0  0  0  0  0  0  0  0  0
   -0.8455    1.4668    1.5960 H   0  0  0  0  0  0  0  0  0  0  0  0
   -0.7799    2.2918   -0.0247 H   0  0  0  0  0  0  0  0  0  0  0  0
   -0.8044   -1.8916    0.8250 H   0  0  0  0  0  0  0  0  0  0  0  0
   -1.0356   -0.5470    1.9730 H   0  0  0  0  0  0  0  0  0  0  0  0
    1.5667   -1.7406   -0.3347 H   0  0  0  0  0  0  0  0  0  0  0  0
    3.4548    0.0293   -0.6272 H   0  0  0  0  0  0  0  0  0  0  0  0
    1.0292    1.2474   -0.6977 H   0  0  0  0  0  0  0  0  0  0  0  0
    0.6683   -0.1687   -1.7556 H   0  0  0  0  0  0  0  0  0  0  0  0
  1  2  1  0
  2  3  1  0
  2  4  1  0
  4  5  1  0
  5  6  1  0
  6  7  1  0
  7  8  2  0
  6  9  1  0
  9  2  1  0
  1 10  1  0
  1 11  1  0
  1 12  1  0
  3 13  1  0
  3 14  1  0
  3 15  1  0
  4 16  1  0
  4 17  1  0
  6 18  1  0
  7 19  1  0
  9 20  1  0
  9 21  1  0
M  END
