
     RDKit          3D

 20 21  0  0  0  0  0  0  0  0999 V2000
   -1.4265   -0.9949   -0.9317 C   0  0  0  0  0  0  0  0  0  0  0  0
   -0.8210    0.0386    0.0186 C   0  0  0  0  0  0  0  0  0  0  0  0
   -1.1214    1.4493   -0.3911 C   0  0  0  0  0  0  0  0  0  0  0  0
   -1.0864   -0.1620    1.3489 O   0  0  0  0  0  0  0  0  0  0  0  0
    0.2922   -0.0175    1.5957 C   0  0  0  0  0  0  0  0  0  0  0  0
    1.0909   -1.2300    1.2581 C   0  0  0  0  0  0  0  0  0  0  0  0
    0.6290   -0.3020    0.2184 C   0  0  0  0  0  0  0  0  0  0  0  0
    1.6520    0.3953   -0.5948 C   0  0  0  0  0  0  0  0  0  0  0  0
   -1.1831   -2.0046   -0.5683 H   0  0  0  0  0  0  0  0  0  0  0  0
   -2.4986   -0.7866   -1.0324 H   0  0  0  0  0  0  0  0  0  0  0  0
   -0.8672   -0.8402   -1.9014 H   0  0  0  0  0  0  0  0  0  0  0  0
   -0.2441    2.0641   -0.5998 H   0  0  0  0  0  0  0  0  0  0  0  0
   -1.7557    1.9741    0.3785 H   0  0  0  0  0  0  0  0  0  0  0  0
   -1.7665    1.4306   -1.3068 H   0  0  0  0  0  0  0  0  0  0  0  0
    0.6620    0.7835    2.2151 H   0  0  0  0  0  0  0  0  0  0  0  0
    0.5634   -2.2115    1.3305 H   0  0  0  0  0  0  0  0  0  0  0  0
    2.1509   -1.1840    1.5421 H   0  0  0  0  0  0  0  0  0  0  0  0
    2.5397   -0.2829   -0.6899 H   0  0  0  0  0  0  0  0  0  0  0  0
    1.2530    0.4836   -1.6438 H   0  0  0  0  0  0  0  0  0  0  0  0
    1.9376    1.3970   -0.2457 H   0  0  0  0  0  0  0  0  0  0  0  0
  1  2  1  0
  2  3  1  0
  2  4  1  0
  4  5  1  0
  5  6  1  0
  6  7  1  0
  7  8  1  0
  7  2  1  0
  7  5  1  0
  1  9  1  0
  1 10  1  0
  1 11  1  0
  3 12  1  0
  3 13  1  0
  3 14  1  0
  5 15  1  0
  6 16  1  0
  6 17  1  0
  8 18  1  0
  8 19  1  0
  8 20  1  0
M  END
