
     RDKit          3D

 17 17  0  0  0  0  0  0  0  0999 V2000
   -0.4399    0.9869   -1.4252 C   0  0  0  0  0  0  0  0  0  0  0  0
   -0.3723   -0.0621   -0.3501 C   0  0  0  0  0  0  0  0  0  0  0  0
    0.6418    0.1712    0.6783 C   0  0  0  0  0  0  0  0  0  0  0  0
    1.4901    0.3446    1.5346 C   0  0  0  0  0  0  0  0  0  0  0  0
    2.5023    0.5553    2.5225 C   0  0  0  0  0  0  0  0  0  0  0  0
    2.1622    0.4687    3.7244 O   0  0  0  0  0  0  0  0  0  0  0  0
   -0.4250   -1.4843   -0.7925 C   0  0  0  0  0  0  0  0  0  0  0  0
   -1.7218   -1.5678   -0.2844 O   0  0  0  0  0  0  0  0  0  0  0  0
   -1.7040   -0.2932    0.2672 C   0  0  0  0  0  0  0  0  0  0  0  0
    0.5401    1.5219   -1.4179 H   0  0  0  0  0  0  0  0  0  0  0  0
   -0.5632    0.5566   -2.4421 H   0  0  0  0  0  0  0  0  0  0  0  0
   -1.2914    1.6753   -1.2437 H   0  0  0  0  0  0  0  0  0  0  0  0
    3.5322    0.7823    2.3126 H   0  0  0  0  0  0  0  0  0  0  0  0
    0.3111   -2.1321   -0.2326 H   0  0  0  0  0  0  0  0  0  0  0  0
   -0.3470   -1.5559   -1.8910 H   0  0  0  0  0  0  0  0  0  0  0  0
   -1.7525   -0.2543    1.3726 H   0  0  0  0  0  0  0  0  0  0  0  0
   -2.5627    0.2870   -0.1471 H   0  0  0  0  0  0  0  0  0  0  0  0
  1  2  1  0
  2  3  1  0
  3  4  3  0
  4  5  1  0
  5  6  2  0
  2  7  1  0
  7  8  1  0
  8  9  1  0
  9  2  1  0
  1 10  1  0
  1 11  1  0
  1 12  1  0
  5 13  1  0
  7 14  1  0
  7 15  1  0
  9 16  1  0
  9 17  1  0
M  END
