
     RDKit          3D

 21 21  0  0  0  0  0  0  0  0999 V2000
   -0.6684    1.6013   -0.0532 C   0  0  0  0  0  0  0  0  0  0  0  0
   -0.5667    0.1077   -0.0166 C   0  0  0  0  0  0  0  0  0  0  0  0
   -1.8538   -0.5106   -0.5466 C   0  0  0  0  0  0  0  0  0  0  0  0
   -2.9040   -0.2125    0.3097 O   0  0  0  0  0  0  0  0  0  0  0  0
    0.5983   -0.4168   -0.8485 C   0  0  0  0  0  0  0  0  0  0  0  0
    1.7397   -0.0581    0.0821 C   0  0  0  0  0  0  0  0  0  0  0  0
    2.8185   -0.9200   -0.1424 O   0  0  0  0  0  0  0  0  0  0  0  0
    1.0925   -0.3261    1.4194 C   0  0  0  0  0  0  0  0  0  0  0  0
   -0.2648   -0.3789    1.2317 O   0  0  0  0  0  0  0  0  0  0  0  0
   -0.3903    2.0484   -1.0116 H   0  0  0  0  0  0  0  0  0  0  0  0
   -1.7056    1.9125    0.1856 H   0  0  0  0  0  0  0  0  0  0  0  0
   -0.0104    1.9934    0.7743 H   0  0  0  0  0  0  0  0  0  0  0  0
   -2.0695   -0.0960   -1.5529 H   0  0  0  0  0  0  0  0  0  0  0  0
   -1.7552   -1.6086   -0.6485 H   0  0  0  0  0  0  0  0  0  0  0  0
   -3.3190   -1.0550    0.6606 H   0  0  0  0  0  0  0  0  0  0  0  0
    0.6664    0.0503   -1.8257 H   0  0  0  0  0  0  0  0  0  0  0  0
    0.5155   -1.5162   -0.8537 H   0  0  0  0  0  0  0  0  0  0  0  0
    2.0526    0.9995   -0.0406 H   0  0  0  0  0  0  0  0  0  0  0  0
    3.1207   -0.7662   -1.0672 H   0  0  0  0  0  0  0  0  0  0  0  0
    1.4018    0.4468    2.1555 H   0  0  0  0  0  0  0  0  0  0  0  0
    1.5016   -1.2948    1.7886 H   0  0  0  0  0  0  0  0  0  0  0  0
  1  2  1  0
  2  3  1  0
  3  4  1  0
  2  5  1  0
  5  6  1  0
  6  7  1  0
  6  8  1  0
  8  9  1  0
  9  2  1  0
  1 10  1  0
  1 11  1  0
  1 12  1  0
  3 13  1  0
  3 14  1  0
  4 15  1  0
  5 16  1  0
  5 17  1  0
  6 18  1  0
  7 19  1  0
  8 20  1  0
  8 21  1  0
M  END
