
     RDKit          3D

 21 22  0  0  0  0  0  0  0  0999 V2000
   -2.4883   -0.1299    0.3284 C   0  0  0  0  0  0  0  0  0  0  0  0
   -1.0448   -0.0844   -0.0570 C   0  0  0  0  0  0  0  0  0  0  0  0
   -0.8102    0.0254   -1.4179 O   0  0  0  0  0  0  0  0  0  0  0  0
   -0.1931    0.7632    0.8972 C   0  0  0  0  0  0  0  0  0  0  0  0
    0.9029    1.5079    0.2124 C   0  0  0  0  0  0  0  0  0  0  0  0
    2.0662    0.5457    0.3024 C   0  0  0  0  0  0  0  0  0  0  0  0
    1.3838   -0.7897    0.1175 C   0  0  0  0  0  0  0  0  0  0  0  0
    0.0246   -0.6877    0.7469 C   0  0  0  0  0  0  0  0  0  0  0  0
   -0.2407   -1.5701    1.7830 O   0  0  0  0  0  0  0  0  0  0  0  0
   -2.9861    0.7606   -0.1516 H   0  0  0  0  0  0  0  0  0  0  0  0
   -2.6434    0.0421    1.4330 H   0  0  0  0  0  0  0  0  0  0  0  0
   -3.0074   -1.0549    0.0847 H   0  0  0  0  0  0  0  0  0  0  0  0
   -0.6669   -0.8522   -1.8651 H   0  0  0  0  0  0  0  0  0  0  0  0
   -0.6285    1.1052    1.8367 H   0  0  0  0  0  0  0  0  0  0  0  0
    1.0833    2.4502    0.7324 H   0  0  0  0  0  0  0  0  0  0  0  0
    0.6694    1.6429   -0.8803 H   0  0  0  0  0  0  0  0  0  0  0  0
    2.5381    0.6686    1.2831 H   0  0  0  0  0  0  0  0  0  0  0  0
    2.7673    0.7053   -0.5500 H   0  0  0  0  0  0  0  0  0  0  0  0
    1.9918   -1.6230    0.4974 H   0  0  0  0  0  0  0  0  0  0  0  0
    1.2873   -0.9432   -0.9837 H   0  0  0  0  0  0  0  0  0  0  0  0
   -0.0052   -2.4818    1.5297 H   0  0  0  0  0  0  0  0  0  0  0  0
  1  2  1  0
  2  3  1  0
  2  4  1  0
  4  5  1  0
  5  6  1  0
  6  7  1  0
  7  8  1  0
  8  9  1  0
  8  2  1  0
  8  4  1  0
  1 10  1  0
  1 11  1  0
  1 12  1  0
  3 13  1  0
  4 14  1  0
  5 15  1  0
  5 16  1  0
  6 17  1  0
  6 18  1  0
  7 19  1  0
  7 20  1  0
  9 21  1  0
M  END
