
     RDKit          3D

 19 19  0  0  0  0  0  0  0  0999 V2000
   -0.9253   -1.3147   -0.7692 C   0  0  0  0  0  0  0  0  0  0  0  0
   -0.2819   -0.2464    0.0777 C   0  0  0  0  0  0  0  0  0  0  0  0
   -0.6958    1.1159   -0.3781 C   0  0  0  0  0  0  0  0  0  0  0  0
   -0.3437    1.3819   -1.6980 O   0  0  0  0  0  0  0  0  0  0  0  0
   -0.5663   -0.4941    1.5343 C   0  0  0  0  0  0  0  0  0  0  0  0
    0.7966   -0.3649    1.8460 O   0  0  0  0  0  0  0  0  0  0  0  0
    1.1264   -0.4569    0.4792 C   0  0  0  0  0  0  0  0  0  0  0  0
    2.1312    0.5282    0.0757 C   0  0  0  0  0  0  0  0  0  0  0  0
    2.4949    0.5375   -1.1024 O   0  0  0  0  0  0  0  0  0  0  0  0
   -1.7703   -1.7925   -0.2275 H   0  0  0  0  0  0  0  0  0  0  0  0
   -1.3619   -0.9029   -1.7077 H   0  0  0  0  0  0  0  0  0  0  0  0
   -0.1586   -2.0833   -1.0377 H   0  0  0  0  0  0  0  0  0  0  0  0
   -1.7975    1.2374   -0.3263 H   0  0  0  0  0  0  0  0  0  0  0  0
   -0.2455    1.9292    0.2410 H   0  0  0  0  0  0  0  0  0  0  0  0
   -0.4319    2.3614   -1.8191 H   0  0  0  0  0  0  0  0  0  0  0  0
   -0.8960   -1.5145    1.7889 H   0  0  0  0  0  0  0  0  0  0  0  0
   -1.1292    0.3070    2.0456 H   0  0  0  0  0  0  0  0  0  0  0  0
    1.4568   -1.4910    0.2660 H   0  0  0  0  0  0  0  0  0  0  0  0
    2.5979    1.2627    0.7115 H   0  0  0  0  0  0  0  0  0  0  0  0
  1  2  1  0
  2  3  1  0
  3  4  1  0
  2  5  1  0
  5  6  1  0
  6  7  1  0
  7  8  1  0
  8  9  2  0
  7  2  1  0
  1 10  1  0
  1 11  1  0
  1 12  1  0
  3 13  1  0
  3 14  1  0
  4 15  1  0
  5 16  1  0
  5 17  1  0
  7 18  1  0
  8 19  1  0
M  END
