
     RDKit          3D

 21 22  0  0  0  0  0  0  0  0999 V2000
   -1.4016    1.4926    0.1509 C   0  0  0  0  0  0  0  0  0  0  0  0
   -0.8556    0.1435   -0.1740 C   0  0  0  0  0  0  0  0  0  0  0  0
   -1.6679   -1.0601    0.3213 C   0  0  0  0  0  0  0  0  0  0  0  0
   -0.1957   -0.1196   -1.5060 C   0  0  0  0  0  0  0  0  0  0  0  0
    0.5675   -0.0637   -0.2896 C   0  0  0  0  0  0  0  0  0  0  0  0
    1.6495    0.8568    0.0553 C   0  0  0  0  0  0  0  0  0  0  0  0
    2.3257   -0.2703    0.7769 C   0  0  0  0  0  0  0  0  0  0  0  0
    3.3728   -0.3117    1.3790 O   0  0  0  0  0  0  0  0  0  0  0  0
    1.1987   -1.2020    0.4242 C   0  0  0  0  0  0  0  0  0  0  0  0
   -0.9108    1.8242    1.1095 H   0  0  0  0  0  0  0  0  0  0  0  0
   -1.1634    2.2677   -0.5894 H   0  0  0  0  0  0  0  0  0  0  0  0
   -2.4831    1.4384    0.3865 H   0  0  0  0  0  0  0  0  0  0  0  0
   -1.9911   -0.9129    1.3666 H   0  0  0  0  0  0  0  0  0  0  0  0
   -1.0755   -1.9902    0.1994 H   0  0  0  0  0  0  0  0  0  0  0  0
   -2.5512   -1.1707   -0.3489 H   0  0  0  0  0  0  0  0  0  0  0  0
   -0.1398    0.7819   -2.1836 H   0  0  0  0  0  0  0  0  0  0  0  0
   -0.4490   -1.0304   -2.0770 H   0  0  0  0  0  0  0  0  0  0  0  0
    2.2466    1.1452   -0.8540 H   0  0  0  0  0  0  0  0  0  0  0  0
    1.4502    1.7278    0.6947 H   0  0  0  0  0  0  0  0  0  0  0  0
    0.6000   -1.4749    1.3251 H   0  0  0  0  0  0  0  0  0  0  0  0
    1.4739   -2.0715   -0.1669 H   0  0  0  0  0  0  0  0  0  0  0  0
  1  2  1  0
  2  3  1  0
  2  4  1  0
  4  5  1  0
  5  6  1  0
  6  7  1  0
  7  8  2  0
  7  9  1  0
  5  2  1  0
  9  5  1  0
  1 10  1  0
  1 11  1  0
  1 12  1  0
  3 13  1  0
  3 14  1  0
  3 15  1  0
  4 16  1  0
  4 17  1  0
  6 18  1  0
  6 19  1  0
  9 20  1  0
  9 21  1  0
M  END
