
     RDKit          3D

 19 19  0  0  0  0  0  0  0  0999 V2000
   -1.7722   -1.0046    0.1003 C   0  0  0  0  0  0  0  0  0  0  0  0
   -0.5226   -0.1140    0.0493 C   0  0  0  0  0  0  0  0  0  0  0  0
    0.6795   -0.9993    0.1221 C   0  0  0  0  0  0  0  0  0  0  0  0
    1.9844   -0.2604    0.0822 C   0  0  0  0  0  0  0  0  0  0  0  0
    2.1366    0.4819   -1.0885 O   0  0  0  0  0  0  0  0  0  0  0  0
   -0.5900    0.7660   -1.0107 O   0  0  0  0  0  0  0  0  0  0  0  0
   -1.2182    1.6808   -0.1639 C   0  0  0  0  0  0  0  0  0  0  0  0
   -0.5538    1.0189    0.9856 C   0  0  0  0  0  0  0  0  0  0  0  0
   -0.2074    1.2631    2.1145 O   0  0  0  0  0  0  0  0  0  0  0  0
   -2.6853   -0.4287    0.2269 H   0  0  0  0  0  0  0  0  0  0  0  0
   -1.7628   -1.5607   -0.8697 H   0  0  0  0  0  0  0  0  0  0  0  0
   -1.6171   -1.7846    0.8827 H   0  0  0  0  0  0  0  0  0  0  0  0
    0.6394   -1.5539    1.0780 H   0  0  0  0  0  0  0  0  0  0  0  0
    0.6583   -1.7226   -0.6978 H   0  0  0  0  0  0  0  0  0  0  0  0
    2.7932   -1.0283    0.0719 H   0  0  0  0  0  0  0  0  0  0  0  0
    2.1703    0.3733    0.9592 H   0  0  0  0  0  0  0  0  0  0  0  0
    3.1141    0.5915   -1.2219 H   0  0  0  0  0  0  0  0  0  0  0  0
   -2.3163    1.5573   -0.0777 H   0  0  0  0  0  0  0  0  0  0  0  0
   -0.9300    2.7244   -0.3069 H   0  0  0  0  0  0  0  0  0  0  0  0
  1  2  1  0
  2  3  1  0
  3  4  1  0
  4  5  1  0
  2  6  1  0
  6  7  1  0
  7  8  1  0
  8  9  2  0
  8  2  1  0
  1 10  1  0
  1 11  1  0
  1 12  1  0
  3 13  1  0
  3 14  1  0
  4 15  1  0
  4 16  1  0
  5 17  1  0
  7 18  1  0
  7 19  1  0
M  END
