
     RDKit          3D

 23 23  0  0  0  0  0  0  0  0999 V2000
   -2.1570    1.0601   -0.1039 C   0  0  0  0  0  0  0  0  0  0  0  0
   -1.0136    0.0935   -0.0479 C   0  0  0  0  0  0  0  0  0  0  0  0
   -1.3943   -1.2126    0.1867 O   0  0  0  0  0  0  0  0  0  0  0  0
   -0.1538    0.1208   -1.2759 C   0  0  0  0  0  0  0  0  0  0  0  0
    1.0220   -0.7915   -1.0972 C   0  0  0  0  0  0  0  0  0  0  0  0
    1.8066   -0.5411    0.1459 C   0  0  0  0  0  0  0  0  0  0  0  0
    2.2922    0.7719    0.1878 O   0  0  0  0  0  0  0  0  0  0  0  0
    0.8381   -0.6530    1.3323 C   0  0  0  0  0  0  0  0  0  0  0  0
   -0.1349    0.5160    1.1351 C   0  0  0  0  0  0  0  0  0  0  0  0
   -2.7290    0.9465    0.8480 H   0  0  0  0  0  0  0  0  0  0  0  0
   -2.8197    0.9093   -0.9598 H   0  0  0  0  0  0  0  0  0  0  0  0
   -1.7072    2.0922   -0.0718 H   0  0  0  0  0  0  0  0  0  0  0  0
   -2.3089   -1.2236    0.5477 H   0  0  0  0  0  0  0  0  0  0  0  0
    0.1264    1.1486   -1.5960 H   0  0  0  0  0  0  0  0  0  0  0  0
   -0.7518   -0.2981   -2.1382 H   0  0  0  0  0  0  0  0  0  0  0  0
    0.6145   -1.8340   -1.0287 H   0  0  0  0  0  0  0  0  0  0  0  0
    1.6662   -0.7920   -2.0025 H   0  0  0  0  0  0  0  0  0  0  0  0
    2.5865   -1.2913    0.2480 H   0  0  0  0  0  0  0  0  0  0  0  0
    2.8170    1.0075   -0.6019 H   0  0  0  0  0  0  0  0  0  0  0  0
    1.3917   -0.5698    2.2794 H   0  0  0  0  0  0  0  0  0  0  0  0
    0.2963   -1.6182    1.2190 H   0  0  0  0  0  0  0  0  0  0  0  0
    0.4206    1.4170    0.7676 H   0  0  0  0  0  0  0  0  0  0  0  0
   -0.7079    0.7418    2.0264 H   0  0  0  0  0  0  0  0  0  0  0  0
  1  2  1  0
  2  3  1  0
  2  4  1  0
  4  5  1  0
  5  6  1  0
  6  7  1  0
  6  8  1  0
  8  9  1  0
  9  2  1  0
  1 10  1  0
  1 11  1  0
  1 12  1  0
  3 13  1  0
  4 14  1  0
  4 15  1  0
  5 16  1  0
  5 17  1  0
  6 18  1  0
  7 19  1  0
  8 20  1  0
  8 21  1  0
  9 22  1  0
  9 23  1  0
M  END
