
     RDKit          3D

 19 20  0  0  0  0  0  0  0  0999 V2000
    0.8968   -1.3790   -0.6639 C   0  0  0  0  0  0  0  0  0  0  0  0
    0.0780   -0.2383   -0.0259 C   0  0  0  0  0  0  0  0  0  0  0  0
    0.9414    0.4751    0.9140 C   0  0  0  0  0  0  0  0  0  0  0  0
    2.1178    1.0505    0.2183 C   0  0  0  0  0  0  0  0  0  0  0  0
    2.2646    0.9037   -0.9691 O   0  0  0  0  0  0  0  0  0  0  0  0
   -0.5380    0.4130   -1.0932 O   0  0  0  0  0  0  0  0  0  0  0  0
   -1.4461    0.8770   -0.1812 C   0  0  0  0  0  0  0  0  0  0  0  0
   -2.4389    0.2321    0.6327 C   0  0  0  0  0  0  0  0  0  0  0  0
   -1.3175   -0.6089    0.3248 C   0  0  0  0  0  0  0  0  0  0  0  0
    0.2558   -2.2815   -0.7793 H   0  0  0  0  0  0  0  0  0  0  0  0
    1.7893   -1.6309   -0.0600 H   0  0  0  0  0  0  0  0  0  0  0  0
    1.2634   -1.0848   -1.6677 H   0  0  0  0  0  0  0  0  0  0  0  0
    1.4034   -0.3417    1.5669 H   0  0  0  0  0  0  0  0  0  0  0  0
    0.5075    1.1346    1.6657 H   0  0  0  0  0  0  0  0  0  0  0  0
    2.8447    1.6036    0.7841 H   0  0  0  0  0  0  0  0  0  0  0  0
   -0.9282    1.6738    0.3920 H   0  0  0  0  0  0  0  0  0  0  0  0
   -2.5704    0.4339    1.7396 H   0  0  0  0  0  0  0  0  0  0  0  0
   -3.4712    0.1562    0.1743 H   0  0  0  0  0  0  0  0  0  0  0  0
   -1.6525   -1.3883   -0.4394 H   0  0  0  0  0  0  0  0  0  0  0  0
  1  2  1  0
  2  3  1  0
  3  4  1  0
  4  5  2  0
  2  6  1  0
  6  7  1  0
  7  8  1  0
  8  9  1  0
  9  2  1  0
  9  7  1  0
  1 10  1  0
  1 11  1  0
  1 12  1  0
  3 13  1  0
  3 14  1  0
  4 15  1  0
  7 16  1  0
  8 17  1  0
  8 18  1  0
  9 19  1  0
M  END
