
     RDKit          3D

 21 21  0  0  0  0  0  0  0  0999 V2000
    0.8097    1.7041   -0.2665 C   0  0  0  0  0  0  0  0  0  0  0  0
    0.9546    0.2264   -0.0010 C   0  0  0  0  0  0  0  0  0  0  0  0
    2.3796   -0.1568    0.0150 C   0  0  0  0  0  0  0  0  0  0  0  0
    3.1938    0.5302    0.5788 O   0  0  0  0  0  0  0  0  0  0  0  0
    0.1212   -0.6424   -0.9227 C   0  0  0  0  0  0  0  0  0  0  0  0
   -0.7429   -1.0988    0.2256 C   0  0  0  0  0  0  0  0  0  0  0  0
   -2.1841   -0.6739    0.1462 C   0  0  0  0  0  0  0  0  0  0  0  0
   -2.3659    0.6872    0.1156 O   0  0  0  0  0  0  0  0  0  0  0  0
    0.1299   -0.3019    1.1509 C   0  0  0  0  0  0  0  0  0  0  0  0
    1.7250    2.2230    0.1272 H   0  0  0  0  0  0  0  0  0  0  0  0
    0.7965    1.8967   -1.3612 H   0  0  0  0  0  0  0  0  0  0  0  0
   -0.0485    2.1651    0.2223 H   0  0  0  0  0  0  0  0  0  0  0  0
    2.6900   -1.0528   -0.4790 H   0  0  0  0  0  0  0  0  0  0  0  0
   -0.4116   -0.0542   -1.6971 H   0  0  0  0  0  0  0  0  0  0  0  0
    0.6977   -1.4590   -1.4171 H   0  0  0  0  0  0  0  0  0  0  0  0
   -0.6887   -2.2043    0.3362 H   0  0  0  0  0  0  0  0  0  0  0  0
   -2.5812   -1.0784   -0.8306 H   0  0  0  0  0  0  0  0  0  0  0  0
   -2.7416   -1.1775    0.9570 H   0  0  0  0  0  0  0  0  0  0  0  0
   -2.1548    1.0465   -0.7794 H   0  0  0  0  0  0  0  0  0  0  0  0
    0.7722   -1.0156    1.7439 H   0  0  0  0  0  0  0  0  0  0  0  0
   -0.3509    0.4363    1.7901 H   0  0  0  0  0  0  0  0  0  0  0  0
  1  2  1  0
  2  3  1  0
  3  4  2  0
  2  5  1  0
  5  6  1  0
  6  7  1  0
  7  8  1  0
  6  9  1  0
  9  2  1  0
  1 10  1  0
  1 11  1  0
  1 12  1  0
  3 13  1  0
  5 14  1  0
  5 15  1  0
  6 16  1  0
  7 17  1  0
  7 18  1  0
  8 19  1  0
  9 20  1  0
  9 21  1  0
M  END
