
     RDKit          3D

 19 19  0  0  0  0  0  0  0  0999 V2000
   -0.2222    1.7055    0.1709 C   0  0  0  0  0  0  0  0  0  0  0  0
    0.3432    0.2822    0.0508 C   0  0  0  0  0  0  0  0  0  0  0  0
    1.7968    0.2881   -0.2720 C   0  0  0  0  0  0  0  0  0  0  0  0
    2.4620   -1.0045   -0.4092 C   0  0  0  0  0  0  0  0  0  0  0  0
    2.0339   -2.1100   -0.2942 O   0  0  0  0  0  0  0  0  0  0  0  0
    0.1675   -0.4560    1.3297 O   0  0  0  0  0  0  0  0  0  0  0  0
   -0.5121   -0.8133    0.0654 C   0  0  0  0  0  0  0  0  0  0  0  0
   -2.0070   -0.6864    0.2501 C   0  0  0  0  0  0  0  0  0  0  0  0
   -2.7035   -1.0061   -0.9072 O   0  0  0  0  0  0  0  0  0  0  0  0
   -1.2510    1.7776   -0.2179 H   0  0  0  0  0  0  0  0  0  0  0  0
    0.3790    2.3870   -0.4628 H   0  0  0  0  0  0  0  0  0  0  0  0
   -0.1105    2.0219    1.2230 H   0  0  0  0  0  0  0  0  0  0  0  0
    2.0414    0.9806   -1.1320 H   0  0  0  0  0  0  0  0  0  0  0  0
    2.2997    0.7991    0.6080 H   0  0  0  0  0  0  0  0  0  0  0  0
    3.5430   -0.9480   -0.6617 H   0  0  0  0  0  0  0  0  0  0  0  0
   -0.2320   -1.8055   -0.3364 H   0  0  0  0  0  0  0  0  0  0  0  0
   -2.3398    0.2917    0.6282 H   0  0  0  0  0  0  0  0  0  0  0  0
   -2.3639   -1.4302    1.0244 H   0  0  0  0  0  0  0  0  0  0  0  0
   -3.3246   -0.2738   -1.1722 H   0  0  0  0  0  0  0  0  0  0  0  0
  1  2  1  0
  2  3  1  0
  3  4  1  0
  4  5  2  0
  2  6  1  0
  6  7  1  0
  7  8  1  0
  8  9  1  0
  7  2  1  0
  1 10  1  0
  1 11  1  0
  1 12  1  0
  3 13  1  0
  3 14  1  0
  4 15  1  0
  7 16  1  0
  8 17  1  0
  8 18  1  0
  9 19  1  0
M  END
