
     RDKit          3D

 20 21  0  0  0  0  0  0  0  0999 V2000
   -0.7034   -0.9375   -1.3990 C   0  0  0  0  0  0  0  0  0  0  0  0
   -0.3688    0.0014   -0.2682 C   0  0  0  0  0  0  0  0  0  0  0  0
    1.0441    0.5138   -0.1732 C   0  0  0  0  0  0  0  0  0  0  0  0
    2.1883   -0.4128   -0.0100 C   0  0  0  0  0  0  0  0  0  0  0  0
    1.7892    0.5223    1.1011 C   0  0  0  0  0  0  0  0  0  0  0  0
   -1.1403   -0.2708    1.0148 C   0  0  0  0  0  0  0  0  0  0  0  0
   -1.4250    0.9603    0.2182 C   0  0  0  0  0  0  0  0  0  0  0  0
   -2.6134    1.0973   -0.4786 O   0  0  0  0  0  0  0  0  0  0  0  0
   -1.3936   -0.4497   -2.1469 H   0  0  0  0  0  0  0  0  0  0  0  0
    0.1663   -1.2725   -1.9665 H   0  0  0  0  0  0  0  0  0  0  0  0
   -1.2185   -1.8403   -1.0150 H   0  0  0  0  0  0  0  0  0  0  0  0
    1.2664    1.3921   -0.8491 H   0  0  0  0  0  0  0  0  0  0  0  0
    3.1387   -0.2243   -0.5715 H   0  0  0  0  0  0  0  0  0  0  0  0
    2.0576   -1.4778    0.2368 H   0  0  0  0  0  0  0  0  0  0  0  0
    2.5446    1.3336    1.2823 H   0  0  0  0  0  0  0  0  0  0  0  0
    1.3857    0.1214    2.0422 H   0  0  0  0  0  0  0  0  0  0  0  0
   -0.6282   -0.1946    1.9840 H   0  0  0  0  0  0  0  0  0  0  0  0
   -1.9473   -1.0185    0.9986 H   0  0  0  0  0  0  0  0  0  0  0  0
   -1.0922    1.9018    0.7037 H   0  0  0  0  0  0  0  0  0  0  0  0
   -3.0503    0.2547   -0.7037 H   0  0  0  0  0  0  0  0  0  0  0  0
  1  2  1  0
  2  3  1  0
  3  4  1  0
  4  5  1  0
  2  6  1  0
  6  7  1  0
  7  8  1  0
  7  2  1  0
  5  3  1  0
  1  9  1  0
  1 10  1  0
  1 11  1  0
  3 12  1  0
  4 13  1  0
  4 14  1  0
  5 15  1  0
  5 16  1  0
  6 17  1  0
  6 18  1  0
  7 19  1  0
  8 20  1  0
M  END
