
     RDKit          3D

 21 22  0  0  0  0  0  0  0  0999 V2000
   -2.0019    0.2271   -0.2767 C   0  0  0  0  0  0  0  0  0  0  0  0
   -0.7334   -0.2827    0.4211 C   0  0  0  0  0  0  0  0  0  0  0  0
   -1.1416   -0.6712    1.7116 O   0  0  0  0  0  0  0  0  0  0  0  0
   -0.2433   -1.4538   -0.3382 C   0  0  0  0  0  0  0  0  0  0  0  0
    0.9675   -1.3107   -0.9523 O   0  0  0  0  0  0  0  0  0  0  0  0
    1.8969   -0.7719   -0.0552 C   0  0  0  0  0  0  0  0  0  0  0  0
    1.5682    0.6774    0.0903 C   0  0  0  0  0  0  0  0  0  0  0  0
    0.6734    1.3847   -0.8576 C   0  0  0  0  0  0  0  0  0  0  0  0
    0.1963    0.8738    0.5086 C   0  0  0  0  0  0  0  0  0  0  0  0
   -1.8152    0.0809   -1.3596 H   0  0  0  0  0  0  0  0  0  0  0  0
   -2.8934   -0.3098    0.0357 H   0  0  0  0  0  0  0  0  0  0  0  0
   -2.1384    1.3215   -0.0455 H   0  0  0  0  0  0  0  0  0  0  0  0
   -1.2463    0.1859    2.2155 H   0  0  0  0  0  0  0  0  0  0  0  0
   -0.1700   -2.3432    0.3501 H   0  0  0  0  0  0  0  0  0  0  0  0
   -0.9767   -1.7927   -1.1285 H   0  0  0  0  0  0  0  0  0  0  0  0
    1.8046   -1.2451    0.9585 H   0  0  0  0  0  0  0  0  0  0  0  0
    2.9354   -0.8854   -0.4080 H   0  0  0  0  0  0  0  0  0  0  0  0
    2.3653    1.3036    0.5463 H   0  0  0  0  0  0  0  0  0  0  0  0
    0.2915    0.9018   -1.7643 H   0  0  0  0  0  0  0  0  0  0  0  0
    0.7402    2.4782   -0.9246 H   0  0  0  0  0  0  0  0  0  0  0  0
   -0.0792    1.6317    1.2725 H   0  0  0  0  0  0  0  0  0  0  0  0
  1  2  1  0
  2  3  1  0
  2  4  1  0
  4  5  1  0
  5  6  1  0
  6  7  1  0
  7  8  1  0
  8  9  1  0
  9  2  1  0
  9  7  1  0
  1 10  1  0
  1 11  1  0
  1 12  1  0
  3 13  1  0
  4 14  1  0
  4 15  1  0
  6 16  1  0
  6 17  1  0
  7 18  1  0
  8 19  1  0
  8 20  1  0
  9 21  1  0
M  END
