
     RDKit          3D

 21 22  0  0  0  0  0  0  0  0999 V2000
   -2.1751   -0.3633    1.1664 C   0  0  0  0  0  0  0  0  0  0  0  0
   -1.2032   -0.0542    0.0879 C   0  0  0  0  0  0  0  0  0  0  0  0
    0.2458   -0.3901    0.1885 C   0  0  0  0  0  0  0  0  0  0  0  0
    0.9575    0.2218    1.2971 C   0  0  0  0  0  0  0  0  0  0  0  0
    2.1876    0.5098    0.9084 C   0  0  0  0  0  0  0  0  0  0  0  0
    2.3949    0.1011   -0.5310 C   0  0  0  0  0  0  0  0  0  0  0  0
    0.9489    0.1450   -1.0352 C   0  0  0  0  0  0  0  0  0  0  0  0
   -1.7724    0.0237   -1.2965 C   0  0  0  0  0  0  0  0  0  0  0  0
   -1.4978    1.2060   -0.6067 O   0  0  0  0  0  0  0  0  0  0  0  0
   -2.9926    0.3812    1.2726 H   0  0  0  0  0  0  0  0  0  0  0  0
   -2.6969   -1.3251    0.8891 H   0  0  0  0  0  0  0  0  0  0  0  0
   -1.7350   -0.5394    2.1549 H   0  0  0  0  0  0  0  0  0  0  0  0
    0.4049   -1.5100    0.1498 H   0  0  0  0  0  0  0  0  0  0  0  0
    0.6206    0.4519    2.3291 H   0  0  0  0  0  0  0  0  0  0  0  0
    3.0053    0.9787    1.4836 H   0  0  0  0  0  0  0  0  0  0  0  0
    3.0436    0.8015   -1.0676 H   0  0  0  0  0  0  0  0  0  0  0  0
    2.7918   -0.9097   -0.6214 H   0  0  0  0  0  0  0  0  0  0  0  0
    0.6468    1.1721   -1.2284 H   0  0  0  0  0  0  0  0  0  0  0  0
    0.8112   -0.5519   -1.8866 H   0  0  0  0  0  0  0  0  0  0  0  0
   -2.8469   -0.2524   -1.4572 H   0  0  0  0  0  0  0  0  0  0  0  0
   -1.1392   -0.0967   -2.1969 H   0  0  0  0  0  0  0  0  0  0  0  0
  1  2  1  0
  2  3  1  0
  3  4  1  0
  4  5  2  0
  5  6  1  0
  6  7  1  0
  2  8  1  0
  8  9  1  0
  9  2  1  0
  7  3  1  0
  1 10  1  0
  1 11  1  0
  1 12  1  0
  3 13  1  0
  4 14  1  0
  5 15  1  0
  6 16  1  0
  6 17  1  0
  7 18  1  0
  7 19  1  0
  8 20  1  0
  8 21  1  0
M  END
