
     RDKit          3D

 19 20  0  0  0  0  0  0  0  0999 V2000
    1.5743    0.7022    0.9125 C   0  0  0  0  0  0  0  0  0  0  0  0
    1.0087   -0.2079   -0.1113 C   0  0  0  0  0  0  0  0  0  0  0  0
    1.4982   -1.5140   -0.1471 O   0  0  0  0  0  0  0  0  0  0  0  0
    0.6173    0.3824   -1.4923 C   0  0  0  0  0  0  0  0  0  0  0  0
   -0.3700   -0.0194   -0.5560 C   0  0  0  0  0  0  0  0  0  0  0  0
   -1.3810    0.8071    0.1413 C   0  0  0  0  0  0  0  0  0  0  0  0
   -1.9420   -0.5442    0.6071 C   0  0  0  0  0  0  0  0  0  0  0  0
   -1.2997   -1.1312   -0.6184 C   0  0  0  0  0  0  0  0  0  0  0  0
   -1.5935   -2.1337   -1.2478 O   0  0  0  0  0  0  0  0  0  0  0  0
    2.1606    1.5022    0.4424 H   0  0  0  0  0  0  0  0  0  0  0  0
    2.2910    0.1271    1.5697 H   0  0  0  0  0  0  0  0  0  0  0  0
    0.8239    1.1191    1.6273 H   0  0  0  0  0  0  0  0  0  0  0  0
    2.3894   -1.5073    0.3145 H   0  0  0  0  0  0  0  0  0  0  0  0
    0.8989   -0.2481   -2.3670 H   0  0  0  0  0  0  0  0  0  0  0  0
    0.9203    1.4273   -1.6026 H   0  0  0  0  0  0  0  0  0  0  0  0
   -2.1170    1.2314   -0.5924 H   0  0  0  0  0  0  0  0  0  0  0  0
   -1.0691    1.4643    0.9500 H   0  0  0  0  0  0  0  0  0  0  0  0
   -1.3883   -0.8461    1.5280 H   0  0  0  0  0  0  0  0  0  0  0  0
   -3.0218   -0.6112    0.6419 H   0  0  0  0  0  0  0  0  0  0  0  0
  1  2  1  0
  2  3  1  0
  2  4  1  0
  4  5  1  0
  5  6  1  0
  6  7  1  0
  7  8  1  0
  8  9  2  0
  5  2  1  0
  8  5  1  0
  1 10  1  0
  1 11  1  0
  1 12  1  0
  3 13  1  0
  4 14  1  0
  4 15  1  0
  6 16  1  0
  6 17  1  0
  7 18  1  0
  7 19  1  0
M  END
