
     RDKit          3D

 19 20  0  0  0  0  0  0  0  0999 V2000
   -1.5691    1.2502   -0.7979 C   0  0  0  0  0  0  0  0  0  0  0  0
   -0.8788    0.0287   -0.2176 C   0  0  0  0  0  0  0  0  0  0  0  0
   -1.6602   -0.6781    0.8872 C   0  0  0  0  0  0  0  0  0  0  0  0
   -0.4592   -0.8599   -1.3057 O   0  0  0  0  0  0  0  0  0  0  0  0
    0.4212   -0.2723   -0.4634 C   0  0  0  0  0  0  0  0  0  0  0  0
    1.3461   -1.0788    0.4197 C   0  0  0  0  0  0  0  0  0  0  0  0
    2.1605    0.2249    0.4533 C   0  0  0  0  0  0  0  0  0  0  0  0
    1.5746    0.5072   -0.8828 C   0  0  0  0  0  0  0  0  0  0  0  0
    1.9381    1.1231   -1.8604 O   0  0  0  0  0  0  0  0  0  0  0  0
   -2.4860    0.8725   -1.3033 H   0  0  0  0  0  0  0  0  0  0  0  0
   -0.9396    1.7403   -1.5426 H   0  0  0  0  0  0  0  0  0  0  0  0
   -1.8666    1.9308    0.0131 H   0  0  0  0  0  0  0  0  0  0  0  0
   -2.6554   -0.2242    1.0271 H   0  0  0  0  0  0  0  0  0  0  0  0
   -1.6755   -1.7599    0.7134 H   0  0  0  0  0  0  0  0  0  0  0  0
   -1.0724   -0.5274    1.8345 H   0  0  0  0  0  0  0  0  0  0  0  0
    1.9308   -1.8315   -0.1413 H   0  0  0  0  0  0  0  0  0  0  0  0
    0.9408   -1.3797    1.3895 H   0  0  0  0  0  0  0  0  0  0  0  0
    3.2353    0.0823    0.5024 H   0  0  0  0  0  0  0  0  0  0  0  0
    1.7151    0.8516    1.2749 H   0  0  0  0  0  0  0  0  0  0  0  0
  1  2  1  0
  2  3  1  0
  2  4  1  0
  4  5  1  0
  5  6  1  0
  6  7  1  0
  7  8  1  0
  8  9  2  0
  5  2  1  0
  8  5  1  0
  1 10  1  0
  1 11  1  0
  1 12  1  0
  3 13  1  0
  3 14  1  0
  3 15  1  0
  6 16  1  0
  6 17  1  0
  7 18  1  0
  7 19  1  0
M  END
