
     RDKit          3D

 25 26  0  0  0  0  0  0  0  0999 V2000
    1.5619    1.1223   -0.0032 C   0  0  0  0  0  0  0  0  0  0  0  0
    0.6945   -0.0948   -0.0560 C   0  0  0  0  0  0  0  0  0  0  0  0
    1.3089   -1.1618   -0.9597 C   0  0  0  0  0  0  0  0  0  0  0  0
    0.6263   -0.7059    1.3326 C   0  0  0  0  0  0  0  0  0  0  0  0
   -0.5434    0.0076    1.9481 C   0  0  0  0  0  0  0  0  0  0  0  0
   -1.4642    0.3506    0.7797 C   0  0  0  0  0  0  0  0  0  0  0  0
   -1.7756   -0.7998   -0.1067 C   0  0  0  0  0  0  0  0  0  0  0  0
   -0.7130    0.1657   -0.4641 C   0  0  0  0  0  0  0  0  0  0  0  0
   -0.9409    0.9835   -1.6939 C   0  0  0  0  0  0  0  0  0  0  0  0
    2.4302    0.9794   -0.6958 H   0  0  0  0  0  0  0  0  0  0  0  0
    1.0118    2.0696   -0.2173 H   0  0  0  0  0  0  0  0  0  0  0  0
    1.9932    1.2676    1.0237 H   0  0  0  0  0  0  0  0  0  0  0  0
    1.1529   -0.8959   -2.0294 H   0  0  0  0  0  0  0  0  0  0  0  0
    2.3964   -1.2089   -0.6969 H   0  0  0  0  0  0  0  0  0  0  0  0
    0.8342   -2.1525   -0.7457 H   0  0  0  0  0  0  0  0  0  0  0  0
    1.5406   -0.4141    1.8858 H   0  0  0  0  0  0  0  0  0  0  0  0
    0.4944   -1.8025    1.2743 H   0  0  0  0  0  0  0  0  0  0  0  0
   -0.2461    0.9077    2.4821 H   0  0  0  0  0  0  0  0  0  0  0  0
   -1.0852   -0.7404    2.5767 H   0  0  0  0  0  0  0  0  0  0  0  0
   -2.1680    1.1853    0.9271 H   0  0  0  0  0  0  0  0  0  0  0  0
   -2.7397   -0.8190   -0.6352 H   0  0  0  0  0  0  0  0  0  0  0  0
   -1.4474   -1.8307    0.2028 H   0  0  0  0  0  0  0  0  0  0  0  0
   -0.9534    0.3040   -2.5864 H   0  0  0  0  0  0  0  0  0  0  0  0
   -1.8760    1.5949   -1.6523 H   0  0  0  0  0  0  0  0  0  0  0  0
   -0.0923    1.6882   -1.8902 H   0  0  0  0  0  0  0  0  0  0  0  0
  1  2  1  0
  2  3  1  0
  2  4  1  0
  4  5  1  0
  5  6  1  0
  6  7  1  0
  7  8  1  0
  8  9  1  0
  8  2  1  0
  8  6  1  0
  1 10  1  0
  1 11  1  0
  1 12  1  0
  3 13  1  0
  3 14  1  0
  3 15  1  0
  4 16  1  0
  4 17  1  0
  5 18  1  0
  5 19  1  0
  6 20  1  0
  7 21  1  0
  7 22  1  0
  9 23  1  0
  9 24  1  0
  9 25  1  0
M  END
