
     RDKit          3D

 17 17  0  0  0  0  0  0  0  0999 V2000
   -1.0726   -1.0097   -0.9807 C   0  0  0  0  0  0  0  0  0  0  0  0
   -0.2734   -0.1734    0.0198 C   0  0  0  0  0  0  0  0  0  0  0  0
   -1.1622    0.5951    0.9669 C   0  0  0  0  0  0  0  0  0  0  0  0
    0.9000    0.5332   -0.6211 C   0  0  0  0  0  0  0  0  0  0  0  0
    1.0087    1.8636   -0.2898 O   0  0  0  0  0  0  0  0  0  0  0  0
    1.1019   -0.5448    0.3537 C   0  0  0  0  0  0  0  0  0  0  0  0
    1.6392   -0.2991    1.6165 O   0  0  0  0  0  0  0  0  0  0  0  0
   -0.4926   -1.9485   -1.1091 H   0  0  0  0  0  0  0  0  0  0  0  0
   -2.1062   -1.1686   -0.6633 H   0  0  0  0  0  0  0  0  0  0  0  0
   -1.1174   -0.4159   -1.9271 H   0  0  0  0  0  0  0  0  0  0  0  0
   -0.6329    1.0186    1.8222 H   0  0  0  0  0  0  0  0  0  0  0  0
   -1.7658    1.3779    0.4385 H   0  0  0  0  0  0  0  0  0  0  0  0
   -1.8962   -0.1429    1.3789 H   0  0  0  0  0  0  0  0  0  0  0  0
    1.1651    0.3094   -1.6755 H   0  0  0  0  0  0  0  0  0  0  0  0
    0.8477    2.4210   -1.0976 H   0  0  0  0  0  0  0  0  0  0  0  0
    1.4338   -1.5486   -0.0448 H   0  0  0  0  0  0  0  0  0  0  0  0
    2.4230   -0.8673    1.8124 H   0  0  0  0  0  0  0  0  0  0  0  0
  1  2  1  0
  2  3  1  0
  2  4  1  0
  4  5  1  0
  4  6  1  0
  6  7  1  0
  6  2  1  0
  1  8  1  0
  1  9  1  0
  1 10  1  0
  3 11  1  0
  3 12  1  0
  3 13  1  0
  4 14  1  0
  5 15  1  0
  6 16  1  0
  7 17  1  0
M  END
