
     RDKit          3D

 21 22  0  0  0  0  0  0  0  0999 V2000
   -1.3849   -1.3195   -0.5873 C   0  0  0  0  0  0  0  0  0  0  0  0
   -0.9321   -0.1744    0.2827 C   0  0  0  0  0  0  0  0  0  0  0  0
   -2.0982    0.6513    0.7262 C   0  0  0  0  0  0  0  0  0  0  0  0
   -0.0666   -0.6112    1.2526 O   0  0  0  0  0  0  0  0  0  0  0  0
    0.9912   -0.1772    0.4545 C   0  0  0  0  0  0  0  0  0  0  0  0
    1.9396   -1.1552   -0.1478 C   0  0  0  0  0  0  0  0  0  0  0  0
    1.2241    1.2796    0.4483 C   0  0  0  0  0  0  0  0  0  0  0  0
    2.2721    1.8132   -0.3027 O   0  0  0  0  0  0  0  0  0  0  0  0
    0.1207    0.6918   -0.3579 C   0  0  0  0  0  0  0  0  0  0  0  0
   -0.6598   -2.1473   -0.6225 H   0  0  0  0  0  0  0  0  0  0  0  0
   -2.3098   -1.7386   -0.1174 H   0  0  0  0  0  0  0  0  0  0  0  0
   -1.5677   -0.9369   -1.5960 H   0  0  0  0  0  0  0  0  0  0  0  0
   -2.8608    0.1083    1.2846 H   0  0  0  0  0  0  0  0  0  0  0  0
   -2.6055    1.0196   -0.2142 H   0  0  0  0  0  0  0  0  0  0  0  0
   -1.7713    1.5880    1.2425 H   0  0  0  0  0  0  0  0  0  0  0  0
    2.8936   -0.5945   -0.3717 H   0  0  0  0  0  0  0  0  0  0  0  0
    2.2078   -1.9471    0.5704 H   0  0  0  0  0  0  0  0  0  0  0  0
    1.6085   -1.5554   -1.1370 H   0  0  0  0  0  0  0  0  0  0  0  0
    0.9834    1.9020    1.3374 H   0  0  0  0  0  0  0  0  0  0  0  0
    1.8651    2.5758   -0.8227 H   0  0  0  0  0  0  0  0  0  0  0  0
    0.1507    0.7277   -1.4557 H   0  0  0  0  0  0  0  0  0  0  0  0
  1  2  1  0
  2  3  1  0
  2  4  1  0
  4  5  1  0
  5  6  1  0
  5  7  1  0
  7  8  1  0
  7  9  1  0
  9  2  1  0
  9  5  1  0
  1 10  1  0
  1 11  1  0
  1 12  1  0
  3 13  1  0
  3 14  1  0
  3 15  1  0
  6 16  1  0
  6 17  1  0
  6 18  1  0
  7 19  1  0
  8 20  1  0
  9 21  1  0
M  END
