
     RDKit          3D

 19 19  0  0  0  0  0  0  0  0999 V2000
   -0.8816   -1.0299   -1.1086 C   0  0  0  0  0  0  0  0  0  0  0  0
   -0.6969   -0.1282    0.1010 C   0  0  0  0  0  0  0  0  0  0  0  0
   -1.6940   -0.4374    1.2104 C   0  0  0  0  0  0  0  0  0  0  0  0
   -0.3016    1.2855   -0.1654 C   0  0  0  0  0  0  0  0  0  0  0  0
   -0.1899    1.6513   -1.5044 O   0  0  0  0  0  0  0  0  0  0  0  0
    0.6757    0.3171    0.4253 C   0  0  0  0  0  0  0  0  0  0  0  0
    1.7038   -0.1771   -0.4240 O   0  0  0  0  0  0  0  0  0  0  0  0
    2.9939   -0.4134    0.0526 C   0  0  0  0  0  0  0  0  0  0  0  0
    3.1610   -0.1513    1.2903 O   0  0  0  0  0  0  0  0  0  0  0  0
   -1.9206   -0.8530   -1.4659 H   0  0  0  0  0  0  0  0  0  0  0  0
   -0.7213   -2.0693   -0.7539 H   0  0  0  0  0  0  0  0  0  0  0  0
   -0.1143   -0.7283   -1.8509 H   0  0  0  0  0  0  0  0  0  0  0  0
   -1.6519    0.2777    2.0348 H   0  0  0  0  0  0  0  0  0  0  0  0
   -2.6986   -0.4324    0.7329 H   0  0  0  0  0  0  0  0  0  0  0  0
   -1.5403   -1.4945    1.5542 H   0  0  0  0  0  0  0  0  0  0  0  0
   -0.7984    2.0339    0.4819 H   0  0  0  0  0  0  0  0  0  0  0  0
   -0.0938    2.6371   -1.5353 H   0  0  0  0  0  0  0  0  0  0  0  0
    0.9728    0.5006    1.4909 H   0  0  0  0  0  0  0  0  0  0  0  0
    3.7960   -0.7880   -0.5659 H   0  0  0  0  0  0  0  0  0  0  0  0
  1  2  1  0
  2  3  1  0
  2  4  1  0
  4  5  1  0
  4  6  1  0
  6  7  1  0
  7  8  1  0
  8  9  2  0
  6  2  1  0
  1 10  1  0
  1 11  1  0
  1 12  1  0
  3 13  1  0
  3 14  1  0
  3 15  1  0
  4 16  1  0
  5 17  1  0
  6 18  1  0
  8 19  1  0
M  END
