
     RDKit          3D

 22 23  0  0  0  0  0  0  0  0999 V2000
   -1.7590   -1.0520    0.2421 C   0  0  0  0  0  0  0  0  0  0  0  0
   -0.7282    0.0220    0.1662 C   0  0  0  0  0  0  0  0  0  0  0  0
   -1.3907    1.3595    0.1306 C   0  0  0  0  0  0  0  0  0  0  0  0
    0.2747   -0.0741    1.3345 C   0  0  0  0  0  0  0  0  0  0  0  0
    1.4548    0.4509    0.6186 C   0  0  0  0  0  0  0  0  0  0  0  0
    2.5678   -0.1233   -0.0147 C   0  0  0  0  0  0  0  0  0  0  0  0
    1.3742   -0.6655   -0.5032 C   0  0  0  0  0  0  0  0  0  0  0  0
    0.1406   -0.1151   -1.1007 C   0  0  0  0  0  0  0  0  0  0  0  0
   -1.3882   -2.0452   -0.0843 H   0  0  0  0  0  0  0  0  0  0  0  0
   -2.6189   -0.7289   -0.4003 H   0  0  0  0  0  0  0  0  0  0  0  0
   -2.1371   -1.0798    1.2901 H   0  0  0  0  0  0  0  0  0  0  0  0
   -1.7950    1.6599    1.1180 H   0  0  0  0  0  0  0  0  0  0  0  0
   -0.7320    2.1855   -0.2059 H   0  0  0  0  0  0  0  0  0  0  0  0
   -2.2340    1.3151   -0.5640 H   0  0  0  0  0  0  0  0  0  0  0  0
   -0.0600    0.5067    2.2002 H   0  0  0  0  0  0  0  0  0  0  0  0
    0.3411   -1.1726    1.5520 H   0  0  0  0  0  0  0  0  0  0  0  0
    1.1989    1.5013    0.2660 H   0  0  0  0  0  0  0  0  0  0  0  0
    3.1997    0.4977   -0.7116 H   0  0  0  0  0  0  0  0  0  0  0  0
    3.2594   -0.7389    0.6191 H   0  0  0  0  0  0  0  0  0  0  0  0
    1.1418   -1.7119   -0.1268 H   0  0  0  0  0  0  0  0  0  0  0  0
   -0.3609   -0.8449   -1.7574 H   0  0  0  0  0  0  0  0  0  0  0  0
    0.2510    0.8536   -1.6031 H   0  0  0  0  0  0  0  0  0  0  0  0
  1  2  1  0
  2  3  1  0
  2  4  1  0
  4  5  1  0
  5  6  1  0
  6  7  1  0
  7  8  1  0
  8  2  1  0
  7  5  1  0
  1  9  1  0
  1 10  1  0
  1 11  1  0
  3 12  1  0
  3 13  1  0
  3 14  1  0
  4 15  1  0
  4 16  1  0
  5 17  1  0
  6 18  1  0
  6 19  1  0
  7 20  1  0
  8 21  1  0
  8 22  1  0
M  END
