
     RDKit          3D

 18 18  0  0  0  0  0  0  0  0999 V2000
    1.3375   -0.2369    1.1762 C   0  0  0  0  0  0  0  0  0  0  0  0
    0.6848   -0.3728   -0.1738 C   0  0  0  0  0  0  0  0  0  0  0  0
    1.3693   -1.2969   -0.9997 O   0  0  0  0  0  0  0  0  0  0  0  0
    0.0806    0.7554   -0.8825 C   0  0  0  0  0  0  0  0  0  0  0  0
   -0.0545    2.0175   -0.3358 O   0  0  0  0  0  0  0  0  0  0  0  0
   -0.7805   -0.3449   -0.3415 C   0  0  0  0  0  0  0  0  0  0  0  0
   -1.7091    0.0600    0.7669 C   0  0  0  0  0  0  0  0  0  0  0  0
   -1.3799   -1.2248   -1.2651 O   0  0  0  0  0  0  0  0  0  0  0  0
    2.4103    0.0548    1.0056 H   0  0  0  0  0  0  0  0  0  0  0  0
    0.8761    0.5022    1.8304 H   0  0  0  0  0  0  0  0  0  0  0  0
    1.4041   -1.2393    1.6778 H   0  0  0  0  0  0  0  0  0  0  0  0
    1.7549   -0.8076   -1.7644 H   0  0  0  0  0  0  0  0  0  0  0  0
    0.1318    0.7850   -2.0109 H   0  0  0  0  0  0  0  0  0  0  0  0
    0.6275    2.2000    0.3413 H   0  0  0  0  0  0  0  0  0  0  0  0
   -1.3353    0.9024    1.3756 H   0  0  0  0  0  0  0  0  0  0  0  0
   -1.9770   -0.8279    1.3603 H   0  0  0  0  0  0  0  0  0  0  0  0
   -2.6596    0.4028    0.2838 H   0  0  0  0  0  0  0  0  0  0  0  0
   -0.7811   -1.3291   -2.0443 H   0  0  0  0  0  0  0  0  0  0  0  0
  1  2  1  0
  2  3  1  0
  2  4  1  0
  4  5  1  0
  4  6  1  0
  6  7  1  0
  6  8  1  0
  6  2  1  0
  1  9  1  0
  1 10  1  0
  1 11  1  0
  3 12  1  0
  4 13  1  0
  5 14  1  0
  7 15  1  0
  7 16  1  0
  7 17  1  0
  8 18  1  0
M  END
