
     RDKit          3D

 21 22  0  0  0  0  0  0  0  0999 V2000
   -1.9664    1.0287   -0.0345 C   0  0  0  0  0  0  0  0  0  0  0  0
   -0.9251   -0.0875    0.1470 C   0  0  0  0  0  0  0  0  0  0  0  0
   -1.7459   -1.3880    0.2179 C   0  0  0  0  0  0  0  0  0  0  0  0
   -0.2562    0.0248    1.3092 O   0  0  0  0  0  0  0  0  0  0  0  0
    1.0295    0.4386    1.2913 C   0  0  0  0  0  0  0  0  0  0  0  0
    1.8733   -0.1465    0.1987 C   0  0  0  0  0  0  0  0  0  0  0  0
    2.0767    0.6229   -1.0381 C   0  0  0  0  0  0  0  0  0  0  0  0
    1.0728   -0.5270   -0.9523 C   0  0  0  0  0  0  0  0  0  0  0  0
   -0.2200   -0.1431   -1.0070 O   0  0  0  0  0  0  0  0  0  0  0  0
   -2.6833    1.0634    0.7829 H   0  0  0  0  0  0  0  0  0  0  0  0
   -2.4914    0.7857   -0.9930 H   0  0  0  0  0  0  0  0  0  0  0  0
   -1.4105    1.9709   -0.2027 H   0  0  0  0  0  0  0  0  0  0  0  0
   -2.5027   -1.3773   -0.5840 H   0  0  0  0  0  0  0  0  0  0  0  0
   -2.1592   -1.5415    1.2143 H   0  0  0  0  0  0  0  0  0  0  0  0
   -0.9993   -2.1897   -0.0628 H   0  0  0  0  0  0  0  0  0  0  0  0
    1.5094    0.1235    2.2657 H   0  0  0  0  0  0  0  0  0  0  0  0
    1.1762    1.5454    1.2629 H   0  0  0  0  0  0  0  0  0  0  0  0
    2.7305   -0.8306    0.4713 H   0  0  0  0  0  0  0  0  0  0  0  0
    1.6825    1.6620   -1.0733 H   0  0  0  0  0  0  0  0  0  0  0  0
    2.8892    0.4421   -1.7418 H   0  0  0  0  0  0  0  0  0  0  0  0
    1.3198   -1.4768   -1.4717 H   0  0  0  0  0  0  0  0  0  0  0  0
  1  2  1  0
  2  3  1  0
  2  4  1  0
  4  5  1  0
  5  6  1  0
  6  7  1  0
  7  8  1  0
  8  9  1  0
  9  2  1  0
  8  6  1  0
  1 10  1  0
  1 11  1  0
  1 12  1  0
  3 13  1  0
  3 14  1  0
  3 15  1  0
  5 16  1  0
  5 17  1  0
  6 18  1  0
  7 19  1  0
  7 20  1  0
  8 21  1  0
M  END
