
     RDKit          3D

 23 24  0  0  0  0  0  0  0  0999 V2000
    0.7758    1.0395    1.3544 C   0  0  0  0  0  0  0  0  0  0  0  0
    0.6397    0.1342    0.1953 C   0  0  0  0  0  0  0  0  0  0  0  0
    1.6773    0.3098   -0.8748 C   0  0  0  0  0  0  0  0  0  0  0  0
    0.6865   -1.3539    0.6026 C   0  0  0  0  0  0  0  0  0  0  0  0
   -0.5717   -1.7714   -0.1464 C   0  0  0  0  0  0  0  0  0  0  0  0
   -1.5803   -0.8053    0.3928 C   0  0  0  0  0  0  0  0  0  0  0  0
   -0.7304    0.1102   -0.4320 C   0  0  0  0  0  0  0  0  0  0  0  0
   -1.2955    1.3375   -0.9724 C   0  0  0  0  0  0  0  0  0  0  0  0
   -0.5702   -0.9856   -1.3173 O   0  0  0  0  0  0  0  0  0  0  0  0
    0.3145    2.0169    1.1668 H   0  0  0  0  0  0  0  0  0  0  0  0
    1.8450    1.2035    1.5670 H   0  0  0  0  0  0  0  0  0  0  0  0
    0.3389    0.5460    2.2478 H   0  0  0  0  0  0  0  0  0  0  0  0
    1.4279    1.1817   -1.5325 H   0  0  0  0  0  0  0  0  0  0  0  0
    2.6929    0.3971   -0.4658 H   0  0  0  0  0  0  0  0  0  0  0  0
    1.6239   -0.5850   -1.5525 H   0  0  0  0  0  0  0  0  0  0  0  0
    1.5857   -1.8458    0.2225 H   0  0  0  0  0  0  0  0  0  0  0  0
    0.5312   -1.4634    1.6847 H   0  0  0  0  0  0  0  0  0  0  0  0
   -0.7977   -2.8022   -0.2314 H   0  0  0  0  0  0  0  0  0  0  0  0
   -1.5632   -0.6599    1.4761 H   0  0  0  0  0  0  0  0  0  0  0  0
   -2.5636   -0.9525   -0.0662 H   0  0  0  0  0  0  0  0  0  0  0  0
   -2.0186    1.0873   -1.7987 H   0  0  0  0  0  0  0  0  0  0  0  0
   -0.5169    2.0158   -1.3207 H   0  0  0  0  0  0  0  0  0  0  0  0
   -1.9311    1.8454   -0.1991 H   0  0  0  0  0  0  0  0  0  0  0  0
  1  2  1  0
  2  3  1  0
  2  4  1  0
  4  5  1  0
  5  6  1  0
  6  7  1  0
  7  8  1  0
  7  9  1  0
  7  2  1  0
  9  5  1  0
  1 10  1  0
  1 11  1  0
  1 12  1  0
  3 13  1  0
  3 14  1  0
  3 15  1  0
  4 16  1  0
  4 17  1  0
  5 18  1  0
  6 19  1  0
  6 20  1  0
  8 21  1  0
  8 22  1  0
  8 23  1  0
M  END
