
     RDKit          3D

 19 21  0  0  0  0  0  0  0  0999 V2000
   -1.1468    0.3470   -1.2753 C   0  0  0  0  0  0  0  0  0  0  0  0
   -0.4714    0.1313    0.0409 C   0  0  0  0  0  0  0  0  0  0  0  0
   -1.2868    0.5269    1.2047 C   0  0  0  0  0  0  0  0  0  0  0  0
    0.0013   -1.3225    0.1006 C   0  0  0  0  0  0  0  0  0  0  0  0
    0.8487   -1.3384   -0.9904 O   0  0  0  0  0  0  0  0  0  0  0  0
    1.6769   -0.2433   -0.7317 C   0  0  0  0  0  0  0  0  0  0  0  0
    1.7226   -0.2319    0.7748 C   0  0  0  0  0  0  0  0  0  0  0  0
    0.8776   -1.2741    1.1626 O   0  0  0  0  0  0  0  0  0  0  0  0
    0.9348    0.7515    0.0523 C   0  0  0  0  0  0  0  0  0  0  0  0
   -2.0853    0.9000   -1.0897 H   0  0  0  0  0  0  0  0  0  0  0  0
   -0.5133    0.8519   -2.0245 H   0  0  0  0  0  0  0  0  0  0  0  0
   -1.4454   -0.6302   -1.7231 H   0  0  0  0  0  0  0  0  0  0  0  0
   -0.7467    0.7866    2.1118 H   0  0  0  0  0  0  0  0  0  0  0  0
   -2.0096   -0.3065    1.4502 H   0  0  0  0  0  0  0  0  0  0  0  0
   -1.8981    1.4279    0.9104 H   0  0  0  0  0  0  0  0  0  0  0  0
   -0.7761   -2.0457    0.1301 H   0  0  0  0  0  0  0  0  0  0  0  0
    2.5534   -0.0433   -1.3317 H   0  0  0  0  0  0  0  0  0  0  0  0
    2.7015   -0.1005    1.2073 H   0  0  0  0  0  0  0  0  0  0  0  0
    1.0628    1.8135    0.0205 H   0  0  0  0  0  0  0  0  0  0  0  0
  1  2  1  0
  2  3  1  0
  2  4  1  0
  4  5  1  0
  5  6  1  0
  6  7  1  0
  7  8  1  0
  7  9  1  0
  9  2  1  0
  8  4  1  0
  9  6  1  0
  1 10  1  0
  1 11  1  0
  1 12  1  0
  3 13  1  0
  3 14  1  0
  3 15  1  0
  4 16  1  0
  6 17  1  0
  7 18  1  0
  9 19  1  0
M  END
