
     RDKit          3D

 21 22  0  0  0  0  0  0  0  0999 V2000
   -1.8543    0.4388   -1.0921 C   0  0  0  0  0  0  0  0  0  0  0  0
   -0.8517    0.2310    0.0006 C   0  0  0  0  0  0  0  0  0  0  0  0
   -1.5118   -0.2008    1.2805 C   0  0  0  0  0  0  0  0  0  0  0  0
    0.0264    1.3056    0.2204 O   0  0  0  0  0  0  0  0  0  0  0  0
    0.9537    0.7754   -0.6594 C   0  0  0  0  0  0  0  0  0  0  0  0
    2.3398    0.5617   -0.0903 C   0  0  0  0  0  0  0  0  0  0  0  0
    2.2309   -0.3798    0.8959 O   0  0  0  0  0  0  0  0  0  0  0  0
    1.1032   -1.1252    0.7068 C   0  0  0  0  0  0  0  0  0  0  0  0
    0.3294   -0.5757   -0.4425 C   0  0  0  0  0  0  0  0  0  0  0  0
   -2.0188    1.5137   -1.2690 H   0  0  0  0  0  0  0  0  0  0  0  0
   -1.4485    0.0327   -2.0572 H   0  0  0  0  0  0  0  0  0  0  0  0
   -2.7798   -0.1241   -0.8588 H   0  0  0  0  0  0  0  0  0  0  0  0
   -1.0424    0.3187    2.1536 H   0  0  0  0  0  0  0  0  0  0  0  0
   -2.5692    0.1673    1.2669 H   0  0  0  0  0  0  0  0  0  0  0  0
   -1.5474   -1.3004    1.4105 H   0  0  0  0  0  0  0  0  0  0  0  0
    0.9091    1.1907   -1.6679 H   0  0  0  0  0  0  0  0  0  0  0  0
    2.7932    1.5184    0.2475 H   0  0  0  0  0  0  0  0  0  0  0  0
    2.9377    0.0939   -0.9261 H   0  0  0  0  0  0  0  0  0  0  0  0
    0.4886   -1.0411    1.6507 H   0  0  0  0  0  0  0  0  0  0  0  0
    1.2873   -2.2147    0.5675 H   0  0  0  0  0  0  0  0  0  0  0  0
    0.2246   -1.1862   -1.3376 H   0  0  0  0  0  0  0  0  0  0  0  0
  1  2  1  0
  2  3  1  0
  2  4  1  0
  4  5  1  0
  5  6  1  0
  6  7  1  0
  7  8  1  0
  8  9  1  0
  9  2  1  0
  9  5  1  0
  1 10  1  0
  1 11  1  0
  1 12  1  0
  3 13  1  0
  3 14  1  0
  3 15  1  0
  5 16  1  0
  6 17  1  0
  6 18  1  0
  8 19  1  0
  8 20  1  0
  9 21  1  0
M  END
