
     RDKit          3D

 21 23  0  0  0  0  0  0  0  0999 V2000
   -1.9667   -0.3886    1.3426 C   0  0  0  0  0  0  0  0  0  0  0  0
   -1.0625    0.2960    0.3193 C   0  0  0  0  0  0  0  0  0  0  0  0
    0.1429   -0.4644   -0.0919 C   0  0  0  0  0  0  0  0  0  0  0  0
    1.0951    0.1348   -1.0633 C   0  0  0  0  0  0  0  0  0  0  0  0
    2.0464   -0.9321   -0.5648 C   0  0  0  0  0  0  0  0  0  0  0  0
    1.3930   -0.3780    0.6919 C   0  0  0  0  0  0  0  0  0  0  0  0
    1.6225    0.9545    0.0638 C   0  0  0  0  0  0  0  0  0  0  0  0
   -1.8879    0.7862   -0.8805 C   0  0  0  0  0  0  0  0  0  0  0  0
   -1.2566    1.6246    0.0232 O   0  0  0  0  0  0  0  0  0  0  0  0
   -2.5248   -1.1683    0.7695 H   0  0  0  0  0  0  0  0  0  0  0  0
   -1.3834   -0.9273    2.1109 H   0  0  0  0  0  0  0  0  0  0  0  0
   -2.6802    0.3405    1.7923 H   0  0  0  0  0  0  0  0  0  0  0  0
   -0.1421   -1.5119   -0.3719 H   0  0  0  0  0  0  0  0  0  0  0  0
    0.9476    0.3983   -2.0151 H   0  0  0  0  0  0  0  0  0  0  0  0
    1.7449   -1.9673   -0.7264 H   0  0  0  0  0  0  0  0  0  0  0  0
    3.0814   -0.6461   -0.7346 H   0  0  0  0  0  0  0  0  0  0  0  0
    1.5883   -0.6700    1.6258 H   0  0  0  0  0  0  0  0  0  0  0  0
    0.9920    1.7739    0.3851 H   0  0  0  0  0  0  0  0  0  0  0  0
    2.6987    1.2217    0.0155 H   0  0  0  0  0  0  0  0  0  0  0  0
   -2.9909    0.8202   -0.7968 H   0  0  0  0  0  0  0  0  0  0  0  0
   -1.4577    0.7031   -1.8947 H   0  0  0  0  0  0  0  0  0  0  0  0
  1  2  1  0
  2  3  1  0
  3  4  1  0
  4  5  1  0
  5  6  1  0
  6  7  1  0
  2  8  1  0
  8  9  1  0
  9  2  1  0
  6  3  1  0
  7  4  1  0
  1 10  1  0
  1 11  1  0
  1 12  1  0
  3 13  1  0
  4 14  1  0
  5 15  1  0
  5 16  1  0
  6 17  1  0
  7 18  1  0
  7 19  1  0
  8 20  1  0
  8 21  1  0
M  END
