
     RDKit          3D

 21 21  0  0  0  0  0  0  0  0999 V2000
   -0.7765    1.8151    0.5542 C   0  0  0  0  0  0  0  0  0  0  0  0
   -0.1430    0.4734    0.0933 C   0  0  0  0  0  0  0  0  0  0  0  0
    0.8981    0.7194   -0.6585 O   0  0  0  0  0  0  0  0  0  0  0  0
    1.7490   -0.1296   -1.2091 C   0  0  0  0  0  0  0  0  0  0  0  0
    2.6017   -0.9102   -0.2814 C   0  0  0  0  0  0  0  0  0  0  0  0
    2.6019   -0.7341    0.9172 O   0  0  0  0  0  0  0  0  0  0  0  0
   -1.2529   -0.2124   -0.7743 C   0  0  0  0  0  0  0  0  0  0  0  0
   -1.8152   -0.7486    0.5500 C   0  0  0  0  0  0  0  0  0  0  0  0
   -0.3745   -0.5480    1.0935 C   0  0  0  0  0  0  0  0  0  0  0  0
   -0.3912    1.9830    1.5893 H   0  0  0  0  0  0  0  0  0  0  0  0
   -0.4467    2.6424   -0.0760 H   0  0  0  0  0  0  0  0  0  0  0  0
   -1.8774    1.7448    0.5870 H   0  0  0  0  0  0  0  0  0  0  0  0
    2.4959    0.4894   -1.8076 H   0  0  0  0  0  0  0  0  0  0  0  0
    1.3473   -0.8121   -1.9944 H   0  0  0  0  0  0  0  0  0  0  0  0
    3.2504   -1.6720   -0.7160 H   0  0  0  0  0  0  0  0  0  0  0  0
   -0.8291   -1.0085   -1.4163 H   0  0  0  0  0  0  0  0  0  0  0  0
   -1.9253    0.5141   -1.2539 H   0  0  0  0  0  0  0  0  0  0  0  0
   -2.5669   -0.1155    1.0270 H   0  0  0  0  0  0  0  0  0  0  0  0
   -2.1339   -1.8050    0.5159 H   0  0  0  0  0  0  0  0  0  0  0  0
   -0.5011   -0.1648    2.1460 H   0  0  0  0  0  0  0  0  0  0  0  0
    0.0894   -1.5207    1.1139 H   0  0  0  0  0  0  0  0  0  0  0  0
  1  2  1  0
  2  3  1  0
  3  4  1  0
  4  5  1  0
  5  6  2  0
  2  7  1  0
  7  8  1  0
  8  9  1  0
  9  2  1  0
  1 10  1  0
  1 11  1  0
  1 12  1  0
  4 13  1  0
  4 14  1  0
  5 15  1  0
  7 16  1  0
  7 17  1  0
  8 18  1  0
  8 19  1  0
  9 20  1  0
  9 21  1  0
M  END
