
     RDKit          3D

 18 19  0  0  0  0  0  0  0  0999 V2000
    1.9808   -0.1414    0.2006 C   0  0  0  0  0  0  0  0  0  0  0  0
    0.5484    0.3544    0.4417 C   0  0  0  0  0  0  0  0  0  0  0  0
    0.4491    1.3576    1.3763 O   0  0  0  0  0  0  0  0  0  0  0  0
   -0.3319   -0.8601    0.6889 C   0  0  0  0  0  0  0  0  0  0  0  0
   -1.3875   -0.6310    1.5657 O   0  0  0  0  0  0  0  0  0  0  0  0
   -0.8347   -0.6681   -0.7450 C   0  0  0  0  0  0  0  0  0  0  0  0
   -1.6069    0.5613   -0.9672 C   0  0  0  0  0  0  0  0  0  0  0  0
   -0.1307    0.6513   -0.8574 C   0  0  0  0  0  0  0  0  0  0  0  0
    2.6709    0.7125    0.0455 H   0  0  0  0  0  0  0  0  0  0  0  0
    2.2600   -0.7739    1.0633 H   0  0  0  0  0  0  0  0  0  0  0  0
    1.9120   -0.8026   -0.7016 H   0  0  0  0  0  0  0  0  0  0  0  0
    0.7998    2.1976    0.9778 H   0  0  0  0  0  0  0  0  0  0  0  0
    0.1824   -1.8157    0.7813 H   0  0  0  0  0  0  0  0  0  0  0  0
   -2.0905   -1.3083    1.3660 H   0  0  0  0  0  0  0  0  0  0  0  0
   -0.6585   -1.4408   -1.4851 H   0  0  0  0  0  0  0  0  0  0  0  0
   -2.0748    0.6944   -1.9380 H   0  0  0  0  0  0  0  0  0  0  0  0
   -2.1597    0.9949   -0.0911 H   0  0  0  0  0  0  0  0  0  0  0  0
    0.4716    0.9181   -1.7218 H   0  0  0  0  0  0  0  0  0  0  0  0
  1  2  1  0
  2  3  1  0
  2  4  1  0
  4  5  1  0
  4  6  1  0
  6  7  1  0
  7  8  1  0
  8  2  1  0
  8  6  1  0
  1  9  1  0
  1 10  1  0
  1 11  1  0
  3 12  1  0
  4 13  1  0
  5 14  1  0
  6 15  1  0
  7 16  1  0
  7 17  1  0
  8 18  1  0
M  END
