
     RDKit          3D

 21 21  0  0  0  0  0  0  0  0999 V2000
   -1.9184    0.8634    0.0200 C   0  0  0  0  0  0  0  0  0  0  0  0
   -0.8297   -0.1799   -0.2808 C   0  0  0  0  0  0  0  0  0  0  0  0
   -1.5197   -1.2251   -0.9407 O   0  0  0  0  0  0  0  0  0  0  0  0
   -0.3786   -0.6881    1.0347 C   0  0  0  0  0  0  0  0  0  0  0  0
    1.0024   -1.1341    1.1097 C   0  0  0  0  0  0  0  0  0  0  0  0
    1.9178   -0.6510    0.3095 C   0  0  0  0  0  0  0  0  0  0  0  0
    1.5968    0.3814   -0.7216 C   0  0  0  0  0  0  0  0  0  0  0  0
    1.9082    1.6662   -0.2455 O   0  0  0  0  0  0  0  0  0  0  0  0
    0.1970    0.3388   -1.2018 C   0  0  0  0  0  0  0  0  0  0  0  0
   -2.6565    0.8926   -0.7842 H   0  0  0  0  0  0  0  0  0  0  0  0
   -1.4534    1.8516    0.2437 H   0  0  0  0  0  0  0  0  0  0  0  0
   -2.4478    0.5639    0.9486 H   0  0  0  0  0  0  0  0  0  0  0  0
   -2.3121   -1.4733   -0.4222 H   0  0  0  0  0  0  0  0  0  0  0  0
   -0.5301    0.0845    1.8397 H   0  0  0  0  0  0  0  0  0  0  0  0
   -1.0483   -1.5363    1.3531 H   0  0  0  0  0  0  0  0  0  0  0  0
    1.2749   -1.8790    1.8418 H   0  0  0  0  0  0  0  0  0  0  0  0
    2.9400   -1.0265    0.4145 H   0  0  0  0  0  0  0  0  0  0  0  0
    2.3167    0.1999   -1.5607 H   0  0  0  0  0  0  0  0  0  0  0  0
    1.8437    1.7462    0.7198 H   0  0  0  0  0  0  0  0  0  0  0  0
   -0.0936    1.3968   -1.4770 H   0  0  0  0  0  0  0  0  0  0  0  0
    0.1908   -0.1921   -2.2005 H   0  0  0  0  0  0  0  0  0  0  0  0
  1  2  1  0
  2  3  1  0
  2  4  1  0
  4  5  1  0
  5  6  2  0
  6  7  1  0
  7  8  1  0
  7  9  1  0
  9  2  1  0
  1 10  1  0
  1 11  1  0
  1 12  1  0
  3 13  1  0
  4 14  1  0
  4 15  1  0
  5 16  1  0
  6 17  1  0
  7 18  1  0
  8 19  1  0
  9 20  1  0
  9 21  1  0
M  END
