
     RDKit          3D

 17 19  0  0  0  0  0  0  0  0999 V2000
    1.8278    0.8928    0.3016 C   0  0  0  0  0  0  0  0  0  0  0  0
    0.8574   -0.1984   -0.1810 C   0  0  0  0  0  0  0  0  0  0  0  0
    1.5639   -1.0795   -1.0429 O   0  0  0  0  0  0  0  0  0  0  0  0
   -0.1618   -0.6506    0.7251 C   0  0  0  0  0  0  0  0  0  0  0  0
   -1.5257   -0.1003    1.0092 C   0  0  0  0  0  0  0  0  0  0  0  0
   -2.6977   -0.5104    0.4748 O   0  0  0  0  0  0  0  0  0  0  0  0
   -1.7301   -0.6743   -0.4214 C   0  0  0  0  0  0  0  0  0  0  0  0
   -0.4773    0.1287   -0.6125 C   0  0  0  0  0  0  0  0  0  0  0  0
   -0.7698    1.4969   -0.4757 O   0  0  0  0  0  0  0  0  0  0  0  0
    1.2653    1.7006    0.7690 H   0  0  0  0  0  0  0  0  0  0  0  0
    2.3755    1.3013   -0.5904 H   0  0  0  0  0  0  0  0  0  0  0  0
    2.5181    0.4446    1.0193 H   0  0  0  0  0  0  0  0  0  0  0  0
    1.1552   -1.9867   -0.9090 H   0  0  0  0  0  0  0  0  0  0  0  0
   -0.2981   -1.7776    0.6514 H   0  0  0  0  0  0  0  0  0  0  0  0
   -1.5140    0.9661    1.1853 H   0  0  0  0  0  0  0  0  0  0  0  0
   -1.4676   -1.7727   -0.5268 H   0  0  0  0  0  0  0  0  0  0  0  0
   -0.9209    1.8197   -1.3760 H   0  0  0  0  0  0  0  0  0  0  0  0
  1  2  1  0
  2  3  1  0
  2  4  1  0
  4  5  1  0
  5  6  1  0
  6  7  1  0
  7  8  1  0
  8  9  1  0
  8  2  1  0
  8  4  1  0
  7  5  1  0
  1 10  1  0
  1 11  1  0
  1 12  1  0
  3 13  1  0
  4 14  1  0
  5 15  1  0
  7 16  1  0
  9 17  1  0
M  END
