
     RDKit          3D

 23 24  0  0  0  0  0  0  0  0999 V2000
    1.6344    1.3209    0.4533 C   0  0  0  0  0  0  0  0  0  0  0  0
    1.1600   -0.0176   -0.0523 C   0  0  0  0  0  0  0  0  0  0  0  0
    2.2238   -1.0499   -0.0919 C   0  0  0  0  0  0  0  0  0  0  0  0
    0.3435    0.1074   -1.3547 C   0  0  0  0  0  0  0  0  0  0  0  0
   -0.7295    0.5906   -0.4040 C   0  0  0  0  0  0  0  0  0  0  0  0
   -2.1229    0.0714   -0.6346 C   0  0  0  0  0  0  0  0  0  0  0  0
   -2.4569   -0.3449    0.8084 C   0  0  0  0  0  0  0  0  0  0  0  0
   -1.1572   -0.9289    1.2370 C   0  0  0  0  0  0  0  0  0  0  0  0
   -0.1360   -0.4235    0.5598 C   0  0  0  0  0  0  0  0  0  0  0  0
    0.9944    1.7296    1.2644 H   0  0  0  0  0  0  0  0  0  0  0  0
    2.6817    1.2775    0.8319 H   0  0  0  0  0  0  0  0  0  0  0  0
    1.6618    2.0050   -0.4351 H   0  0  0  0  0  0  0  0  0  0  0  0
    3.2121   -0.5831    0.1884 H   0  0  0  0  0  0  0  0  0  0  0  0
    2.0748   -1.8949    0.5948 H   0  0  0  0  0  0  0  0  0  0  0  0
    2.3531   -1.4250   -1.1333 H   0  0  0  0  0  0  0  0  0  0  0  0
    0.7425    0.8419   -2.0554 H   0  0  0  0  0  0  0  0  0  0  0  0
    0.1462   -0.8981   -1.7339 H   0  0  0  0  0  0  0  0  0  0  0  0
   -0.6326    1.6124   -0.0535 H   0  0  0  0  0  0  0  0  0  0  0  0
   -2.1702   -0.7643   -1.3283 H   0  0  0  0  0  0  0  0  0  0  0  0
   -2.7852    0.9268   -0.8900 H   0  0  0  0  0  0  0  0  0  0  0  0
   -3.2784   -1.0564    0.8223 H   0  0  0  0  0  0  0  0  0  0  0  0
   -2.6865    0.5934    1.3812 H   0  0  0  0  0  0  0  0  0  0  0  0
   -1.0728   -1.6902    2.0256 H   0  0  0  0  0  0  0  0  0  0  0  0
  1  2  1  0
  2  3  1  0
  2  4  1  0
  4  5  1  0
  5  6  1  0
  6  7  1  0
  7  8  1  0
  8  9  2  0
  9  2  1  0
  9  5  1  0
  1 10  1  0
  1 11  1  0
  1 12  1  0
  3 13  1  0
  3 14  1  0
  3 15  1  0
  4 16  1  0
  4 17  1  0
  5 18  1  0
  6 19  1  0
  6 20  1  0
  7 21  1  0
  7 22  1  0
  8 23  1  0
M  END
