
     RDKit          3D

 23 23  0  0  0  0  0  0  0  0999 V2000
   -1.8559    1.1436    0.1799 C   0  0  0  0  0  0  0  0  0  0  0  0
   -0.7156    0.2118   -0.2401 C   0  0  0  0  0  0  0  0  0  0  0  0
   -1.3097   -0.8845   -1.0507 C   0  0  0  0  0  0  0  0  0  0  0  0
    0.2820    1.0585   -0.9749 C   0  0  0  0  0  0  0  0  0  0  0  0
    1.4263    0.4476   -1.3231 O   0  0  0  0  0  0  0  0  0  0  0  0
    1.9894   -0.4519   -0.4931 C   0  0  0  0  0  0  0  0  0  0  0  0
    1.3678   -0.7104    0.8144 C   0  0  0  0  0  0  0  0  0  0  0  0
    2.1036   -0.1008    1.8612 O   0  0  0  0  0  0  0  0  0  0  0  0
   -0.0520   -0.3375    0.9889 C   0  0  0  0  0  0  0  0  0  0  0  0
   -2.7748    0.5946    0.3926 H   0  0  0  0  0  0  0  0  0  0  0  0
   -2.0349    1.8009   -0.7172 H   0  0  0  0  0  0  0  0  0  0  0  0
   -1.5050    1.7946    1.0043 H   0  0  0  0  0  0  0  0  0  0  0  0
   -0.7457   -1.8430   -0.8728 H   0  0  0  0  0  0  0  0  0  0  0  0
   -1.3702   -0.6481   -2.1210 H   0  0  0  0  0  0  0  0  0  0  0  0
   -2.3362   -1.0951   -0.6474 H   0  0  0  0  0  0  0  0  0  0  0  0
   -0.2377    1.4154   -1.9040 H   0  0  0  0  0  0  0  0  0  0  0  0
    0.4663    1.9795   -0.3786 H   0  0  0  0  0  0  0  0  0  0  0  0
    3.0567   -0.1232   -0.3035 H   0  0  0  0  0  0  0  0  0  0  0  0
    2.1257   -1.4121   -1.0783 H   0  0  0  0  0  0  0  0  0  0  0  0
    1.4590   -1.8162    1.0369 H   0  0  0  0  0  0  0  0  0  0  0  0
    1.5509   -0.2634    2.6913 H   0  0  0  0  0  0  0  0  0  0  0  0
   -0.1981    0.4384    1.7979 H   0  0  0  0  0  0  0  0  0  0  0  0
   -0.6920   -1.1987    1.3375 H   0  0  0  0  0  0  0  0  0  0  0  0
  1  2  1  0
  2  3  1  0
  2  4  1  0
  4  5  1  0
  5  6  1  0
  6  7  1  0
  7  8  1  0
  7  9  1  0
  9  2  1  0
  1 10  1  0
  1 11  1  0
  1 12  1  0
  3 13  1  0
  3 14  1  0
  3 15  1  0
  4 16  1  0
  4 17  1  0
  6 18  1  0
  6 19  1  0
  7 20  1  0
  8 21  1  0
  9 22  1  0
  9 23  1  0
M  END
