
     RDKit          3D

 23 24  0  0  0  0  0  0  0  0999 V2000
   -1.1719    1.2372   -0.6628 C   0  0  0  0  0  0  0  0  0  0  0  0
   -0.6654   -0.0521   -0.0783 C   0  0  0  0  0  0  0  0  0  0  0  0
   -1.1497   -1.2404   -0.8575 C   0  0  0  0  0  0  0  0  0  0  0  0
   -1.0244   -0.2043    1.3788 C   0  0  0  0  0  0  0  0  0  0  0  0
   -0.0680    0.7200    2.0337 C   0  0  0  0  0  0  0  0  0  0  0  0
    0.9931    0.8569    1.2535 C   0  0  0  0  0  0  0  0  0  0  0  0
    0.8310    0.0340    0.0116 C   0  0  0  0  0  0  0  0  0  0  0  0
    1.6921    0.2046   -1.1517 C   0  0  0  0  0  0  0  0  0  0  0  0
    1.7356   -1.0524   -0.3321 C   0  0  0  0  0  0  0  0  0  0  0  0
   -1.6577    1.8807    0.1163 H   0  0  0  0  0  0  0  0  0  0  0  0
   -1.8706    1.0153   -1.4993 H   0  0  0  0  0  0  0  0  0  0  0  0
   -0.3426    1.8412   -1.1136 H   0  0  0  0  0  0  0  0  0  0  0  0
   -0.7846   -1.2598   -1.8850 H   0  0  0  0  0  0  0  0  0  0  0  0
   -0.9235   -2.1719   -0.3127 H   0  0  0  0  0  0  0  0  0  0  0  0
   -2.2590   -1.1678   -0.9061 H   0  0  0  0  0  0  0  0  0  0  0  0
   -0.7355   -1.2309    1.6770 H   0  0  0  0  0  0  0  0  0  0  0  0
   -2.0790    0.0305    1.5901 H   0  0  0  0  0  0  0  0  0  0  0  0
   -0.2276    1.2061    3.0103 H   0  0  0  0  0  0  0  0  0  0  0  0
    1.8708    1.4625    1.4439 H   0  0  0  0  0  0  0  0  0  0  0  0
    2.5042    0.9542   -1.0741 H   0  0  0  0  0  0  0  0  0  0  0  0
    1.2586    0.0911   -2.1655 H   0  0  0  0  0  0  0  0  0  0  0  0
    2.6430   -1.1680    0.3273 H   0  0  0  0  0  0  0  0  0  0  0  0
    1.4311   -1.9865   -0.8039 H   0  0  0  0  0  0  0  0  0  0  0  0
  1  2  1  0
  2  3  1  0
  2  4  1  0
  4  5  1  0
  5  6  2  0
  6  7  1  0
  7  8  1  0
  8  9  1  0
  7  2  1  0
  9  7  1  0
  1 10  1  0
  1 11  1  0
  1 12  1  0
  3 13  1  0
  3 14  1  0
  3 15  1  0
  4 16  1  0
  4 17  1  0
  5 18  1  0
  6 19  1  0
  8 20  1  0
  8 21  1  0
  9 22  1  0
  9 23  1  0
M  END
