
     RDKit          3D

 19 20  0  0  0  0  0  0  0  0999 V2000
   -1.1651    0.5005    0.9310 C   0  0  0  0  0  0  0  0  0  0  0  0
   -0.5651   -0.3814   -0.1485 C   0  0  0  0  0  0  0  0  0  0  0  0
   -1.2682   -1.7181   -0.2183 C   0  0  0  0  0  0  0  0  0  0  0  0
   -0.6916    0.3395   -1.3611 O   0  0  0  0  0  0  0  0  0  0  0  0
    0.2540    1.3467   -1.2783 C   0  0  0  0  0  0  0  0  0  0  0  0
    0.1701    2.5738   -1.6268 O   0  0  0  0  0  0  0  0  0  0  0  0
    1.4576    0.7530   -0.6873 C   0  0  0  0  0  0  0  0  0  0  0  0
    1.6389    0.5212    0.7442 C   0  0  0  0  0  0  0  0  0  0  0  0
    0.9226   -0.5275   -0.0162 C   0  0  0  0  0  0  0  0  0  0  0  0
   -0.7801    1.5231    0.7898 H   0  0  0  0  0  0  0  0  0  0  0  0
   -1.0263    0.0851    1.9265 H   0  0  0  0  0  0  0  0  0  0  0  0
   -2.2650    0.5535    0.6908 H   0  0  0  0  0  0  0  0  0  0  0  0
   -2.2325   -1.6041   -0.7115 H   0  0  0  0  0  0  0  0  0  0  0  0
   -1.3613   -2.0894    0.8179 H   0  0  0  0  0  0  0  0  0  0  0  0
   -0.5706   -2.4136   -0.7345 H   0  0  0  0  0  0  0  0  0  0  0  0
    2.3235    0.6250   -1.3741 H   0  0  0  0  0  0  0  0  0  0  0  0
    2.6717    0.2887    1.0762 H   0  0  0  0  0  0  0  0  0  0  0  0
    1.0745    1.0896    1.5202 H   0  0  0  0  0  0  0  0  0  0  0  0
    1.4128   -1.4657   -0.3399 H   0  0  0  0  0  0  0  0  0  0  0  0
  1  2  1  0
  2  3  1  0
  2  4  1  0
  4  5  1  0
  5  6  2  0
  5  7  1  0
  7  8  1  0
  8  9  1  0
  9  2  1  0
  9  7  1  0
  1 10  1  0
  1 11  1  0
  1 12  1  0
  3 13  1  0
  3 14  1  0
  3 15  1  0
  7 16  1  0
  8 17  1  0
  8 18  1  0
  9 19  1  0
M  END
