
     RDKit          3D

 20 21  0  0  0  0  0  0  0  0999 V2000
   -0.7934    1.3276    0.7065 C   0  0  0  0  0  0  0  0  0  0  0  0
   -0.5813   -0.0485    0.1440 C   0  0  0  0  0  0  0  0  0  0  0  0
    0.7840   -0.3273   -0.4051 C   0  0  0  0  0  0  0  0  0  0  0  0
    1.0324   -1.6022   -0.9492 O   0  0  0  0  0  0  0  0  0  0  0  0
    1.5684    0.8473   -0.9542 C   0  0  0  0  0  0  0  0  0  0  0  0
    1.9378    0.2294    0.3504 C   0  0  0  0  0  0  0  0  0  0  0  0
   -1.1865   -1.1529    0.9345 C   0  0  0  0  0  0  0  0  0  0  0  0
   -1.7819   -0.7316   -0.3894 C   0  0  0  0  0  0  0  0  0  0  0  0
   -1.8097    1.4720    1.1258 H   0  0  0  0  0  0  0  0  0  0  0  0
   -0.7407    2.0446   -0.1643 H   0  0  0  0  0  0  0  0  0  0  0  0
   -0.0465    1.5943    1.4662 H   0  0  0  0  0  0  0  0  0  0  0  0
    0.6081   -1.7409   -1.8100 H   0  0  0  0  0  0  0  0  0  0  0  0
    1.0969    1.8313   -1.0118 H   0  0  0  0  0  0  0  0  0  0  0  0
    2.1475    0.5883   -1.8673 H   0  0  0  0  0  0  0  0  0  0  0  0
    1.7903    0.7479    1.2976 H   0  0  0  0  0  0  0  0  0  0  0  0
    2.9312   -0.3071    0.3180 H   0  0  0  0  0  0  0  0  0  0  0  0
   -1.8462   -0.9416    1.7998 H   0  0  0  0  0  0  0  0  0  0  0  0
   -0.6884   -2.1462    1.0063 H   0  0  0  0  0  0  0  0  0  0  0  0
   -1.7038   -1.5122   -1.1760 H   0  0  0  0  0  0  0  0  0  0  0  0
   -2.7184   -0.1722   -0.4220 H   0  0  0  0  0  0  0  0  0  0  0  0
  1  2  1  0
  2  3  1  0
  3  4  1  0
  3  5  1  0
  5  6  1  0
  2  7  1  0
  7  8  1  0
  8  2  1  0
  6  3  1  0
  1  9  1  0
  1 10  1  0
  1 11  1  0
  4 12  1  0
  5 13  1  0
  5 14  1  0
  6 15  1  0
  6 16  1  0
  7 17  1  0
  7 18  1  0
  8 19  1  0
  8 20  1  0
M  END
