
     RDKit          3D

 18 18  0  0  0  0  0  0  0  0999 V2000
   -1.7318   -0.4103   -0.7257 C   0  0  0  0  0  0  0  0  0  0  0  0
   -0.5313   -0.3877    0.1652 C   0  0  0  0  0  0  0  0  0  0  0  0
   -0.6837   -1.1914    1.2831 O   0  0  0  0  0  0  0  0  0  0  0  0
    0.7979   -0.5732   -0.4872 C   0  0  0  0  0  0  0  0  0  0  0  0
    1.4418   -1.7698   -0.2871 O   0  0  0  0  0  0  0  0  0  0  0  0
    1.3386    0.4997    0.4696 C   0  0  0  0  0  0  0  0  0  0  0  0
   -0.0849    1.0469    0.4859 C   0  0  0  0  0  0  0  0  0  0  0  0
   -0.3817    1.9081   -0.5540 O   0  0  0  0  0  0  0  0  0  0  0  0
   -2.6261   -0.2293   -0.0768 H   0  0  0  0  0  0  0  0  0  0  0  0
   -1.7389    0.4064   -1.4726 H   0  0  0  0  0  0  0  0  0  0  0  0
   -1.8770   -1.4134   -1.1615 H   0  0  0  0  0  0  0  0  0  0  0  0
   -0.7281   -0.5704    2.0675 H   0  0  0  0  0  0  0  0  0  0  0  0
    0.8855   -0.2380   -1.5402 H   0  0  0  0  0  0  0  0  0  0  0  0
    2.3597   -1.6327    0.0702 H   0  0  0  0  0  0  0  0  0  0  0  0
    1.5611    0.0097    1.4350 H   0  0  0  0  0  0  0  0  0  0  0  0
    2.0951    1.1562    0.0452 H   0  0  0  0  0  0  0  0  0  0  0  0
   -0.4655    1.3345    1.4625 H   0  0  0  0  0  0  0  0  0  0  0  0
    0.3693    2.0546   -1.1791 H   0  0  0  0  0  0  0  0  0  0  0  0
  1  2  1  0
  2  3  1  0
  2  4  1  0
  4  5  1  0
  4  6  1  0
  6  7  1  0
  7  8  1  0
  7  2  1  0
  1  9  1  0
  1 10  1  0
  1 11  1  0
  3 12  1  0
  4 13  1  0
  5 14  1  0
  6 15  1  0
  6 16  1  0
  7 17  1  0
  8 18  1  0
M  END
