
     RDKit          3D

 19 19  0  0  0  0  0  0  0  0999 V2000
   -0.8905    1.3974    0.8276 C   0  0  0  0  0  0  0  0  0  0  0  0
   -0.4721    0.1332    0.1247 C   0  0  0  0  0  0  0  0  0  0  0  0
   -1.5926   -0.6273   -0.5184 C   0  0  0  0  0  0  0  0  0  0  0  0
   -2.5634   -0.8917    0.4510 O   0  0  0  0  0  0  0  0  0  0  0  0
    0.5470   -0.7027    0.8594 C   0  0  0  0  0  0  0  0  0  0  0  0
    1.4467    0.3255    0.2458 C   0  0  0  0  0  0  0  0  0  0  0  0
    2.7914   -0.1070   -0.1382 C   0  0  0  0  0  0  0  0  0  0  0  0
    3.6775   -0.2474    0.6850 O   0  0  0  0  0  0  0  0  0  0  0  0
    0.5534    0.4376   -0.8012 O   0  0  0  0  0  0  0  0  0  0  0  0
   -0.8689    1.3158    1.9209 H   0  0  0  0  0  0  0  0  0  0  0  0
   -0.3048    2.2907    0.4949 H   0  0  0  0  0  0  0  0  0  0  0  0
   -1.9459    1.6046    0.4980 H   0  0  0  0  0  0  0  0  0  0  0  0
   -2.0318   -0.0500   -1.3579 H   0  0  0  0  0  0  0  0  0  0  0  0
   -1.1835   -1.5585   -0.9586 H   0  0  0  0  0  0  0  0  0  0  0  0
   -2.7626   -1.8564    0.5000 H   0  0  0  0  0  0  0  0  0  0  0  0
    0.5863   -1.7118    0.4397 H   0  0  0  0  0  0  0  0  0  0  0  0
    0.4965   -0.6647    1.9644 H   0  0  0  0  0  0  0  0  0  0  0  0
    1.4900    1.2247    0.9227 H   0  0  0  0  0  0  0  0  0  0  0  0
    3.0272   -0.3120   -1.1660 H   0  0  0  0  0  0  0  0  0  0  0  0
  1  2  1  0
  2  3  1  0
  3  4  1  0
  2  5  1  0
  5  6  1  0
  6  7  1  0
  7  8  2  0
  6  9  1  0
  9  2  1  0
  1 10  1  0
  1 11  1  0
  1 12  1  0
  3 13  1  0
  3 14  1  0
  4 15  1  0
  5 16  1  0
  5 17  1  0
  6 18  1  0
  7 19  1  0
M  END
