
     RDKit          3D

 18 19  0  0  0  0  0  0  0  0999 V2000
   -0.8586   -1.5230   -0.5413 C   0  0  0  0  0  0  0  0  0  0  0  0
   -0.6410   -0.2736    0.2579 C   0  0  0  0  0  0  0  0  0  0  0  0
   -1.3530   -0.3519    1.4767 O   0  0  0  0  0  0  0  0  0  0  0  0
   -1.0055    1.0029   -0.5125 C   0  0  0  0  0  0  0  0  0  0  0  0
    0.4947    1.2242   -0.7293 C   0  0  0  0  0  0  0  0  0  0  0  0
    0.7383    0.2401    0.3713 C   0  0  0  0  0  0  0  0  0  0  0  0
    1.9283   -0.3415    0.6864 C   0  0  0  0  0  0  0  0  0  0  0  0
    1.3232    0.5946    1.5513 O   0  0  0  0  0  0  0  0  0  0  0  0
   -1.9425   -1.7415   -0.5755 H   0  0  0  0  0  0  0  0  0  0  0  0
   -0.3686   -2.3708   -0.0489 H   0  0  0  0  0  0  0  0  0  0  0  0
   -0.5207   -1.4330   -1.5868 H   0  0  0  0  0  0  0  0  0  0  0  0
   -1.4834    0.5967    1.7539 H   0  0  0  0  0  0  0  0  0  0  0  0
   -1.3844    1.7845    0.1917 H   0  0  0  0  0  0  0  0  0  0  0  0
   -1.5872    0.8423   -1.4208 H   0  0  0  0  0  0  0  0  0  0  0  0
    0.8357    2.2550   -0.5287 H   0  0  0  0  0  0  0  0  0  0  0  0
    0.8667    0.8503   -1.7082 H   0  0  0  0  0  0  0  0  0  0  0  0
    2.0538   -1.3839    1.0917 H   0  0  0  0  0  0  0  0  0  0  0  0
    2.9040    0.0287    0.2710 H   0  0  0  0  0  0  0  0  0  0  0  0
  1  2  1  0
  2  3  1  0
  2  4  1  0
  4  5  1  0
  5  6  1  0
  6  7  1  0
  7  8  1  0
  6  2  1  0
  8  6  1  0
  1  9  1  0
  1 10  1  0
  1 11  1  0
  3 12  1  0
  4 13  1  0
  4 14  1  0
  5 15  1  0
  5 16  1  0
  7 17  1  0
  7 18  1  0
M  END
