
     RDKit          3D

 23 23  0  0  0  0  0  0  0  0999 V2000
   -1.7091   -1.3624   -1.0529 C   0  0  0  0  0  0  0  0  0  0  0  0
   -1.3336   -0.0490   -0.4253 C   0  0  0  0  0  0  0  0  0  0  0  0
   -2.4466    0.5378    0.4417 C   0  0  0  0  0  0  0  0  0  0  0  0
   -0.6558    0.8064   -1.2922 O   0  0  0  0  0  0  0  0  0  0  0  0
    0.0182    0.3483   -0.1038 C   0  0  0  0  0  0  0  0  0  0  0  0
    0.2028    1.4680    0.9000 C   0  0  0  0  0  0  0  0  0  0  0  0
    1.1624   -0.6051   -0.3317 C   0  0  0  0  0  0  0  0  0  0  0  0
    2.4936   -0.0268    0.0574 C   0  0  0  0  0  0  0  0  0  0  0  0
    3.4553   -1.0163   -0.2071 O   0  0  0  0  0  0  0  0  0  0  0  0
   -2.3803   -1.9446   -0.3645 H   0  0  0  0  0  0  0  0  0  0  0  0
   -2.3008   -1.1178   -1.9732 H   0  0  0  0  0  0  0  0  0  0  0  0
   -0.8658   -2.0028   -1.2958 H   0  0  0  0  0  0  0  0  0  0  0  0
   -2.0818    0.3844    1.4994 H   0  0  0  0  0  0  0  0  0  0  0  0
   -2.5504    1.6379    0.2241 H   0  0  0  0  0  0  0  0  0  0  0  0
   -3.4072    0.0167    0.2912 H   0  0  0  0  0  0  0  0  0  0  0  0
   -0.1972    1.1915    1.9081 H   0  0  0  0  0  0  0  0  0  0  0  0
   -0.3134    2.3982    0.6095 H   0  0  0  0  0  0  0  0  0  0  0  0
    1.2689    1.7261    1.0384 H   0  0  0  0  0  0  0  0  0  0  0  0
    0.9919   -1.4854    0.3236 H   0  0  0  0  0  0  0  0  0  0  0  0
    1.1880   -1.0017   -1.3723 H   0  0  0  0  0  0  0  0  0  0  0  0
    2.7726    0.8750   -0.4815 H   0  0  0  0  0  0  0  0  0  0  0  0
    2.4922    0.0995    1.1764 H   0  0  0  0  0  0  0  0  0  0  0  0
    4.1960   -0.8778    0.4304 H   0  0  0  0  0  0  0  0  0  0  0  0
  1  2  1  0
  2  3  1  0
  2  4  1  0
  4  5  1  0
  5  6  1  0
  5  7  1  0
  7  8  1  0
  8  9  1  0
  5  2  1  0
  1 10  1  0
  1 11  1  0
  1 12  1  0
  3 13  1  0
  3 14  1  0
  3 15  1  0
  6 16  1  0
  6 17  1  0
  6 18  1  0
  7 19  1  0
  7 20  1  0
  8 21  1  0
  8 22  1  0
  9 23  1  0
M  END
