
     RDKit          3D

 21 22  0  0  0  0  0  0  0  0999 V2000
   -2.4128   -0.1487   -0.1774 C   0  0  0  0  0  0  0  0  0  0  0  0
   -0.9411   -0.0376   -0.4316 C   0  0  0  0  0  0  0  0  0  0  0  0
   -0.5595    0.3024   -1.7168 O   0  0  0  0  0  0  0  0  0  0  0  0
   -0.1529   -1.1005    0.2508 C   0  0  0  0  0  0  0  0  0  0  0  0
    1.2663   -1.2152   -0.2352 C   0  0  0  0  0  0  0  0  0  0  0  0
    2.0354    0.0597   -0.0485 C   0  0  0  0  0  0  0  0  0  0  0  0
    1.0790    1.2148    0.0707 C   0  0  0  0  0  0  0  0  0  0  0  0
   -0.2476    0.8003    0.6435 C   0  0  0  0  0  0  0  0  0  0  0  0
   -0.1848   -0.3393    1.4163 O   0  0  0  0  0  0  0  0  0  0  0  0
   -3.0462    0.2842   -0.9599 H   0  0  0  0  0  0  0  0  0  0  0  0
   -2.6723   -1.2233   -0.0444 H   0  0  0  0  0  0  0  0  0  0  0  0
   -2.6857    0.3686    0.7734 H   0  0  0  0  0  0  0  0  0  0  0  0
   -0.9127    1.2231   -1.9016 H   0  0  0  0  0  0  0  0  0  0  0  0
   -0.6764   -2.0608    0.2803 H   0  0  0  0  0  0  0  0  0  0  0  0
    1.7621   -1.9872    0.4142 H   0  0  0  0  0  0  0  0  0  0  0  0
    1.3150   -1.6217   -1.2615 H   0  0  0  0  0  0  0  0  0  0  0  0
    2.6745    0.0551    0.8693 H   0  0  0  0  0  0  0  0  0  0  0  0
    2.7482    0.2067   -0.8988 H   0  0  0  0  0  0  0  0  0  0  0  0
    0.8761    1.5708   -0.9771 H   0  0  0  0  0  0  0  0  0  0  0  0
    1.5789    2.0166    0.6181 H   0  0  0  0  0  0  0  0  0  0  0  0
   -0.8434    1.6319    1.0378 H   0  0  0  0  0  0  0  0  0  0  0  0
  1  2  1  0
  2  3  1  0
  2  4  1  0
  4  5  1  0
  5  6  1  0
  6  7  1  0
  7  8  1  0
  8  9  1  0
  8  2  1  0
  9  4  1  0
  1 10  1  0
  1 11  1  0
  1 12  1  0
  3 13  1  0
  4 14  1  0
  5 15  1  0
  5 16  1  0
  6 17  1  0
  6 18  1  0
  7 19  1  0
  7 20  1  0
  8 21  1  0
M  END
