
     RDKit          3D

 19 21  0  0  0  0  0  0  0  0999 V2000
   -1.7010   -1.1855    0.4495 C   0  0  0  0  0  0  0  0  0  0  0  0
   -0.9049    0.0337   -0.0476 C   0  0  0  0  0  0  0  0  0  0  0  0
   -1.8253    1.1774   -0.4073 C   0  0  0  0  0  0  0  0  0  0  0  0
   -0.1636   -0.3323   -1.3062 O   0  0  0  0  0  0  0  0  0  0  0  0
    0.4193    0.0304   -0.1322 C   0  0  0  0  0  0  0  0  0  0  0  0
    1.5057   -0.7107    0.5305 C   0  0  0  0  0  0  0  0  0  0  0  0
    2.4322   -0.1468   -0.5027 C   0  0  0  0  0  0  0  0  0  0  0  0
    1.5415    0.9656   -0.0029 C   0  0  0  0  0  0  0  0  0  0  0  0
    1.7627    0.4401    1.2667 O   0  0  0  0  0  0  0  0  0  0  0  0
   -2.3612   -0.8068    1.2348 H   0  0  0  0  0  0  0  0  0  0  0  0
   -2.2246   -1.6867   -0.3775 H   0  0  0  0  0  0  0  0  0  0  0  0
   -0.9709   -1.8933    0.9217 H   0  0  0  0  0  0  0  0  0  0  0  0
   -2.7220    1.1848    0.2656 H   0  0  0  0  0  0  0  0  0  0  0  0
   -2.2607    1.0312   -1.4388 H   0  0  0  0  0  0  0  0  0  0  0  0
   -1.3579    2.1587   -0.3574 H   0  0  0  0  0  0  0  0  0  0  0  0
    1.5097   -1.6562    0.8882 H   0  0  0  0  0  0  0  0  0  0  0  0
    2.2192   -0.4797   -1.5427 H   0  0  0  0  0  0  0  0  0  0  0  0
    3.4850   -0.0618   -0.2444 H   0  0  0  0  0  0  0  0  0  0  0  0
    1.6167    1.9379   -0.2655 H   0  0  0  0  0  0  0  0  0  0  0  0
  1  2  1  0
  2  3  1  0
  2  4  1  0
  4  5  1  0
  5  6  1  0
  6  7  1  0
  7  8  1  0
  8  9  1  0
  5  2  1  0
  9  6  1  0
  8  5  1  0
  1 10  1  0
  1 11  1  0
  1 12  1  0
  3 13  1  0
  3 14  1  0
  3 15  1  0
  6 16  1  0
  7 17  1  0
  7 18  1  0
  8 19  1  0
M  END
