
     RDKit          3D

 23 23  0  0  0  0  0  0  0  0999 V2000
   -1.2600   -1.2927   -0.2210 C   0  0  0  0  0  0  0  0  0  0  0  0
   -0.4821   -0.0304    0.1145 C   0  0  0  0  0  0  0  0  0  0  0  0
   -1.3922    0.9586    0.8567 C   0  0  0  0  0  0  0  0  0  0  0  0
   -2.4482    1.2470    0.0073 O   0  0  0  0  0  0  0  0  0  0  0  0
   -0.0183    0.6567   -1.1284 C   0  0  0  0  0  0  0  0  0  0  0  0
    1.4274    0.9814   -1.1309 C   0  0  0  0  0  0  0  0  0  0  0  0
    2.3224    0.2630   -0.4845 C   0  0  0  0  0  0  0  0  0  0  0  0
    1.7982   -0.9294    0.2740 C   0  0  0  0  0  0  0  0  0  0  0  0
    0.6083   -0.4102    1.0617 C   0  0  0  0  0  0  0  0  0  0  0  0
   -1.0222   -2.1087    0.4980 H   0  0  0  0  0  0  0  0  0  0  0  0
   -2.3458   -1.1370   -0.1924 H   0  0  0  0  0  0  0  0  0  0  0  0
   -0.9583   -1.6842   -1.2261 H   0  0  0  0  0  0  0  0  0  0  0  0
   -1.7503    0.4858    1.8022 H   0  0  0  0  0  0  0  0  0  0  0  0
   -0.7623    1.8426    1.0872 H   0  0  0  0  0  0  0  0  0  0  0  0
   -3.2810    0.8669    0.3388 H   0  0  0  0  0  0  0  0  0  0  0  0
   -0.5727    1.6197   -1.3285 H   0  0  0  0  0  0  0  0  0  0  0  0
   -0.2675    0.0197   -2.0262 H   0  0  0  0  0  0  0  0  0  0  0  0
    1.8145    1.8509   -1.6831 H   0  0  0  0  0  0  0  0  0  0  0  0
    3.3639    0.4801   -0.4743 H   0  0  0  0  0  0  0  0  0  0  0  0
    1.4875   -1.6777   -0.4602 H   0  0  0  0  0  0  0  0  0  0  0  0
    2.5708   -1.3448    0.9461 H   0  0  0  0  0  0  0  0  0  0  0  0
    0.2401   -1.1652    1.7608 H   0  0  0  0  0  0  0  0  0  0  0  0
    0.9277    0.5078    1.6084 H   0  0  0  0  0  0  0  0  0  0  0  0
  1  2  1  0
  2  3  1  0
  3  4  1  0
  2  5  1  0
  5  6  1  0
  6  7  2  0
  7  8  1  0
  8  9  1  0
  9  2  1  0
  1 10  1  0
  1 11  1  0
  1 12  1  0
  3 13  1  0
  3 14  1  0
  4 15  1  0
  5 16  1  0
  5 17  1  0
  6 18  1  0
  7 19  1  0
  8 20  1  0
  8 21  1  0
  9 22  1  0
  9 23  1  0
M  END
