
     RDKit          3D

 23 23  0  0  0  0  0  0  0  0999 V2000
   -1.7002   -1.0345   -0.2618 C   0  0  0  0  0  0  0  0  0  0  0  0
   -0.7770    0.1500    0.0493 C   0  0  0  0  0  0  0  0  0  0  0  0
   -1.6753    1.3182    0.4472 C   0  0  0  0  0  0  0  0  0  0  0  0
    0.0594   -0.2458    1.2240 C   0  0  0  0  0  0  0  0  0  0  0  0
    0.9089   -1.2721    0.9065 O   0  0  0  0  0  0  0  0  0  0  0  0
    1.9031   -0.9697    0.0289 C   0  0  0  0  0  0  0  0  0  0  0  0
    2.1208    0.4641   -0.2573 C   0  0  0  0  0  0  0  0  0  0  0  0
    1.1834    1.0983   -0.9963 O   0  0  0  0  0  0  0  0  0  0  0  0
    0.0014    0.4335   -1.1934 C   0  0  0  0  0  0  0  0  0  0  0  0
   -1.1821   -1.6699   -1.0163 H   0  0  0  0  0  0  0  0  0  0  0  0
   -2.6329   -0.6273   -0.7098 H   0  0  0  0  0  0  0  0  0  0  0  0
   -1.9239   -1.6158    0.6360 H   0  0  0  0  0  0  0  0  0  0  0  0
   -1.8687    1.2504    1.5298 H   0  0  0  0  0  0  0  0  0  0  0  0
   -2.6351    1.1916   -0.0932 H   0  0  0  0  0  0  0  0  0  0  0  0
   -1.1847    2.2640    0.1534 H   0  0  0  0  0  0  0  0  0  0  0  0
    0.5511    0.6184    1.7249 H   0  0  0  0  0  0  0  0  0  0  0  0
   -0.6512   -0.6427    2.0068 H   0  0  0  0  0  0  0  0  0  0  0  0
    2.8657   -1.3614    0.4748 H   0  0  0  0  0  0  0  0  0  0  0  0
    1.7803   -1.5539   -0.9123 H   0  0  0  0  0  0  0  0  0  0  0  0
    2.2760    1.0117    0.7094 H   0  0  0  0  0  0  0  0  0  0  0  0
    3.1172    0.5598   -0.7833 H   0  0  0  0  0  0  0  0  0  0  0  0
    0.1141   -0.4792   -1.8475 H   0  0  0  0  0  0  0  0  0  0  0  0
   -0.6504    1.1122   -1.8201 H   0  0  0  0  0  0  0  0  0  0  0  0
  1  2  1  0
  2  3  1  0
  2  4  1  0
  4  5  1  0
  5  6  1  0
  6  7  1  0
  7  8  1  0
  8  9  1  0
  9  2  1  0
  1 10  1  0
  1 11  1  0
  1 12  1  0
  3 13  1  0
  3 14  1  0
  3 15  1  0
  4 16  1  0
  4 17  1  0
  6 18  1  0
  6 19  1  0
  7 20  1  0
  7 21  1  0
  9 22  1  0
  9 23  1  0
M  END
