
     RDKit          3D

 21 22  0  0  0  0  0  0  0  0999 V2000
    2.0916   -0.5355    0.6790 C   0  0  0  0  0  0  0  0  0  0  0  0
    0.9593    0.1372   -0.0896 C   0  0  0  0  0  0  0  0  0  0  0  0
    1.5357    1.0023   -1.2217 C   0  0  0  0  0  0  0  0  0  0  0  0
   -0.1931   -0.5924   -0.4122 C   0  0  0  0  0  0  0  0  0  0  0  0
   -1.5746   -0.2548   -0.8641 C   0  0  0  0  0  0  0  0  0  0  0  0
   -2.2760   -0.3308    0.5165 C   0  0  0  0  0  0  0  0  0  0  0  0
   -1.1774   -0.0113    1.4697 C   0  0  0  0  0  0  0  0  0  0  0  0
   -1.1521   -0.2069    2.6534 O   0  0  0  0  0  0  0  0  0  0  0  0
   -0.1502    0.5867    0.6483 C   0  0  0  0  0  0  0  0  0  0  0  0
    2.8118   -0.9155   -0.0818 H   0  0  0  0  0  0  0  0  0  0  0  0
    1.6947   -1.3852    1.2305 H   0  0  0  0  0  0  0  0  0  0  0  0
    2.6232    0.2079    1.3295 H   0  0  0  0  0  0  0  0  0  0  0  0
    0.6755    1.4629   -1.7396 H   0  0  0  0  0  0  0  0  0  0  0  0
    1.9971    0.2872   -1.9363 H   0  0  0  0  0  0  0  0  0  0  0  0
    2.2763    1.7100   -0.8491 H   0  0  0  0  0  0  0  0  0  0  0  0
   -0.2371   -1.6341    0.0400 H   0  0  0  0  0  0  0  0  0  0  0  0
   -1.6241    0.7700   -1.2674 H   0  0  0  0  0  0  0  0  0  0  0  0
   -1.9368   -1.0353   -1.5333 H   0  0  0  0  0  0  0  0  0  0  0  0
   -2.7318   -1.3062    0.6763 H   0  0  0  0  0  0  0  0  0  0  0  0
   -3.0439    0.4670    0.4799 H   0  0  0  0  0  0  0  0  0  0  0  0
   -0.5683    1.5769    0.2723 H   0  0  0  0  0  0  0  0  0  0  0  0
  1  2  1  0
  2  3  1  0
  2  4  1  0
  4  5  1  0
  5  6  1  0
  6  7  1  0
  7  8  2  0
  7  9  1  0
  9  2  1  0
  9  4  1  0
  1 10  1  0
  1 11  1  0
  1 12  1  0
  3 13  1  0
  3 14  1  0
  3 15  1  0
  4 16  1  0
  5 17  1  0
  5 18  1  0
  6 19  1  0
  6 20  1  0
  9 21  1  0
M  END
