
     RDKit          3D

 21 23  0  0  0  0  0  0  0  0999 V2000
   -1.9202   -1.0915    0.0295 C   0  0  0  0  0  0  0  0  0  0  0  0
   -1.0675    0.1789    0.0334 C   0  0  0  0  0  0  0  0  0  0  0  0
    0.2881    0.0410    0.0610 C   0  0  0  0  0  0  0  0  0  0  0  0
    1.1007   -0.6533    1.1505 C   0  0  0  0  0  0  0  0  0  0  0  0
    2.1294   -0.1660    0.1605 C   0  0  0  0  0  0  0  0  0  0  0  0
    1.3303    1.1155    0.1502 C   0  0  0  0  0  0  0  0  0  0  0  0
    1.1883   -0.6501   -0.9026 C   0  0  0  0  0  0  0  0  0  0  0  0
   -1.7132    1.3876   -0.6380 C   0  0  0  0  0  0  0  0  0  0  0  0
   -1.6879    1.2088    0.7612 O   0  0  0  0  0  0  0  0  0  0  0  0
   -1.3991   -1.8373   -0.6267 H   0  0  0  0  0  0  0  0  0  0  0  0
   -1.8528   -1.5020    1.0531 H   0  0  0  0  0  0  0  0  0  0  0  0
   -2.9323   -0.8713   -0.3098 H   0  0  0  0  0  0  0  0  0  0  0  0
    0.9139   -1.7300    1.1747 H   0  0  0  0  0  0  0  0  0  0  0  0
    1.1492   -0.1159    2.1032 H   0  0  0  0  0  0  0  0  0  0  0  0
    3.1192   -0.2644    0.2108 H   0  0  0  0  0  0  0  0  0  0  0  0
    1.4645    1.7579   -0.7300 H   0  0  0  0  0  0  0  0  0  0  0  0
    1.3824    1.6251    1.1169 H   0  0  0  0  0  0  0  0  0  0  0  0
    1.0679   -1.7578   -0.8896 H   0  0  0  0  0  0  0  0  0  0  0  0
    1.2257   -0.1652   -1.8746 H   0  0  0  0  0  0  0  0  0  0  0  0
   -2.7193    1.2721   -1.0753 H   0  0  0  0  0  0  0  0  0  0  0  0
   -1.0672    2.2180   -0.9584 H   0  0  0  0  0  0  0  0  0  0  0  0
  1  2  1  0
  2  3  1  0
  3  4  1  0
  4  5  1  0
  5  6  1  0
  5  7  1  0
  2  8  1  0
  8  9  1  0
  9  2  1  0
  6  3  1  0
  7  3  1  0
  1 10  1  0
  1 11  1  0
  1 12  1  0
  4 13  1  0
  4 14  1  0
  5 15  1  0
  6 16  1  0
  6 17  1  0
  7 18  1  0
  7 19  1  0
  8 20  1  0
  8 21  1  0
M  END
