
     RDKit          3D

 23 23  0  0  0  0  0  0  0  0999 V2000
   -1.0051   -0.7079   -1.0758 C   0  0  0  0  0  0  0  0  0  0  0  0
   -0.6132    0.1006    0.1415 C   0  0  0  0  0  0  0  0  0  0  0  0
   -1.3322   -0.4097    1.3516 C   0  0  0  0  0  0  0  0  0  0  0  0
   -1.0195    1.5336   -0.1300 C   0  0  0  0  0  0  0  0  0  0  0  0
    0.1351    2.2789   -0.2299 O   0  0  0  0  0  0  0  0  0  0  0  0
    1.1773    1.4432   -0.5461 C   0  0  0  0  0  0  0  0  0  0  0  0
    0.8653    0.2137    0.3174 C   0  0  0  0  0  0  0  0  0  0  0  0
    1.6168   -0.9866   -0.2037 C   0  0  0  0  0  0  0  0  0  0  0  0
    1.1574   -2.0987    0.5105 O   0  0  0  0  0  0  0  0  0  0  0  0
   -1.0175   -1.7803   -0.9015 H   0  0  0  0  0  0  0  0  0  0  0  0
   -2.0213   -0.3403   -1.3794 H   0  0  0  0  0  0  0  0  0  0  0  0
   -0.3371   -0.4011   -1.9262 H   0  0  0  0  0  0  0  0  0  0  0  0
   -1.0034   -1.4299    1.6150 H   0  0  0  0  0  0  0  0  0  0  0  0
   -2.4112   -0.4917    1.0878 H   0  0  0  0  0  0  0  0  0  0  0  0
   -1.1808    0.2905    2.1988 H   0  0  0  0  0  0  0  0  0  0  0  0
   -1.6209    1.6349   -1.0595 H   0  0  0  0  0  0  0  0  0  0  0  0
   -1.6199    1.9098    0.7244 H   0  0  0  0  0  0  0  0  0  0  0  0
    2.1426    1.8774   -0.2876 H   0  0  0  0  0  0  0  0  0  0  0  0
    1.0888    1.1125   -1.5982 H   0  0  0  0  0  0  0  0  0  0  0  0
    1.1493    0.4224    1.3512 H   0  0  0  0  0  0  0  0  0  0  0  0
    2.6975   -0.8372   -0.0123 H   0  0  0  0  0  0  0  0  0  0  0  0
    1.4331   -1.1711   -1.2646 H   0  0  0  0  0  0  0  0  0  0  0  0
    1.7189   -2.1630    1.3165 H   0  0  0  0  0  0  0  0  0  0  0  0
  1  2  1  0
  2  3  1  0
  2  4  1  0
  4  5  1  0
  5  6  1  0
  6  7  1  0
  7  8  1  0
  8  9  1  0
  7  2  1  0
  1 10  1  0
  1 11  1  0
  1 12  1  0
  3 13  1  0
  3 14  1  0
  3 15  1  0
  4 16  1  0
  4 17  1  0
  6 18  1  0
  6 19  1  0
  7 20  1  0
  8 21  1  0
  8 22  1  0
  9 23  1  0
M  END
