
     RDKit          3D

 17 17  0  0  0  0  0  0  0  0999 V2000
   -1.3593   -0.8342   -0.2081 C   0  0  0  0  0  0  0  0  0  0  0  0
   -0.3582    0.2635    0.0662 C   0  0  0  0  0  0  0  0  0  0  0  0
   -0.9794    1.5681    0.2601 C   0  0  0  0  0  0  0  0  0  0  0  0
   -1.7517    1.9924   -0.5712 O   0  0  0  0  0  0  0  0  0  0  0  0
    0.7633    0.3350   -0.9723 C   0  0  0  0  0  0  0  0  0  0  0  0
    1.4725   -0.7309   -0.1246 C   0  0  0  0  0  0  0  0  0  0  0  0
    0.6708   -0.1699    1.0504 C   0  0  0  0  0  0  0  0  0  0  0  0
   -2.0531   -0.5908   -1.0140 H   0  0  0  0  0  0  0  0  0  0  0  0
   -1.9537   -0.9638    0.7175 H   0  0  0  0  0  0  0  0  0  0  0  0
   -0.8297   -1.7951   -0.3770 H   0  0  0  0  0  0  0  0  0  0  0  0
   -0.7747    2.1750    1.1247 H   0  0  0  0  0  0  0  0  0  0  0  0
    0.4914    0.0210   -1.9765 H   0  0  0  0  0  0  0  0  0  0  0  0
    1.2787    1.3130   -0.8625 H   0  0  0  0  0  0  0  0  0  0  0  0
    2.5482   -0.5077    0.0035 H   0  0  0  0  0  0  0  0  0  0  0  0
    1.2102   -1.7540   -0.4078 H   0  0  0  0  0  0  0  0  0  0  0  0
    0.4142   -0.9861    1.7376 H   0  0  0  0  0  0  0  0  0  0  0  0
    1.2107    0.6644    1.5539 H   0  0  0  0  0  0  0  0  0  0  0  0
  1  2  1  0
  2  3  1  0
  3  4  2  0
  2  5  1  0
  5  6  1  0
  6  7  1  0
  7  2  1  0
  1  8  1  0
  1  9  1  0
  1 10  1  0
  3 11  1  0
  5 12  1  0
  5 13  1  0
  6 14  1  0
  6 15  1  0
  7 16  1  0
  7 17  1  0
M  END
