
     RDKit          3D

 16 17  0  0  0  0  0  0  0  0999 V2000
   -1.9130    0.3906   -0.7610 C   0  0  0  0  0  0  0  0  0  0  0  0
   -0.8597   -0.1650    0.2148 C   0  0  0  0  0  0  0  0  0  0  0  0
   -1.5078   -0.8102    1.2799 O   0  0  0  0  0  0  0  0  0  0  0  0
    0.2505    0.6602    0.4587 C   0  0  0  0  0  0  0  0  0  0  0  0
    1.2607    1.1683   -0.3042 O   0  0  0  0  0  0  0  0  0  0  0  0
    2.2550    0.1842   -0.0656 C   0  0  0  0  0  0  0  0  0  0  0  0
    1.5531   -1.0118    0.2356 O   0  0  0  0  0  0  0  0  0  0  0  0
    0.3265   -0.7437   -0.2715 C   0  0  0  0  0  0  0  0  0  0  0  0
   -2.4605    1.1706   -0.1767 H   0  0  0  0  0  0  0  0  0  0  0  0
   -2.5486   -0.4383   -1.0888 H   0  0  0  0  0  0  0  0  0  0  0  0
   -1.3126    0.8481   -1.5857 H   0  0  0  0  0  0  0  0  0  0  0  0
   -1.7770   -1.7341    1.0512 H   0  0  0  0  0  0  0  0  0  0  0  0
    0.6103    0.6596    1.5363 H   0  0  0  0  0  0  0  0  0  0  0  0
    2.8909    0.4741    0.7863 H   0  0  0  0  0  0  0  0  0  0  0  0
    2.8091    0.0403   -1.0039 H   0  0  0  0  0  0  0  0  0  0  0  0
    0.4233   -0.6929   -1.4018 H   0  0  0  0  0  0  0  0  0  0  0  0
  1  2  1  0
  2  3  1  0
  2  4  1  0
  4  5  1  0
  5  6  1  0
  6  7  1  0
  7  8  1  0
  8  2  1  0
  8  4  1  0
  1  9  1  0
  1 10  1  0
  1 11  1  0
  3 12  1  0
  4 13  1  0
  6 14  1  0
  6 15  1  0
  8 16  1  0
M  END
