
     RDKit          3D

 23 23  0  0  0  0  0  0  0  0999 V2000
    1.6990   -0.7484   -1.0859 C   0  0  0  0  0  0  0  0  0  0  0  0
    0.9662   -0.0004    0.0336 C   0  0  0  0  0  0  0  0  0  0  0  0
    2.0837    0.6296    0.8787 C   0  0  0  0  0  0  0  0  0  0  0  0
    0.1751    1.0588   -0.6061 C   0  0  0  0  0  0  0  0  0  0  0  0
   -1.1002    1.3937   -0.6275 C   0  0  0  0  0  0  0  0  0  0  0  0
   -2.2038    0.7105    0.0697 C   0  0  0  0  0  0  0  0  0  0  0  0
   -2.1049   -0.7811   -0.1307 C   0  0  0  0  0  0  0  0  0  0  0  0
   -1.0917   -1.2844    0.8682 C   0  0  0  0  0  0  0  0  0  0  0  0
    0.1913   -0.9123    0.8799 C   0  0  0  0  0  0  0  0  0  0  0  0
    2.3815   -1.5093   -0.6998 H   0  0  0  0  0  0  0  0  0  0  0  0
    1.0000   -1.0983   -1.8581 H   0  0  0  0  0  0  0  0  0  0  0  0
    2.3379    0.0367   -1.5788 H   0  0  0  0  0  0  0  0  0  0  0  0
    1.6180    1.3672    1.5262 H   0  0  0  0  0  0  0  0  0  0  0  0
    2.5253   -0.2357    1.4411 H   0  0  0  0  0  0  0  0  0  0  0  0
    2.8955    1.0238    0.2318 H   0  0  0  0  0  0  0  0  0  0  0  0
    0.7879    1.7357   -1.2120 H   0  0  0  0  0  0  0  0  0  0  0  0
   -1.3636    2.2768   -1.2307 H   0  0  0  0  0  0  0  0  0  0  0  0
   -3.2104    1.0843   -0.2797 H   0  0  0  0  0  0  0  0  0  0  0  0
   -2.1511    0.8961    1.1825 H   0  0  0  0  0  0  0  0  0  0  0  0
   -3.0744   -1.2660    0.0241 H   0  0  0  0  0  0  0  0  0  0  0  0
   -1.6678   -0.9854   -1.1351 H   0  0  0  0  0  0  0  0  0  0  0  0
   -1.4283   -1.9882    1.6179 H   0  0  0  0  0  0  0  0  0  0  0  0
    0.7348   -1.4036    1.6907 H   0  0  0  0  0  0  0  0  0  0  0  0
  1  2  1  0
  2  3  1  0
  2  4  1  0
  4  5  2  0
  5  6  1  0
  6  7  1  0
  7  8  1  0
  8  9  2  0
  9  2  1  0
  1 10  1  0
  1 11  1  0
  1 12  1  0
  3 13  1  0
  3 14  1  0
  3 15  1  0
  4 16  1  0
  5 17  1  0
  6 18  1  0
  6 19  1  0
  7 20  1  0
  7 21  1  0
  8 22  1  0
  9 23  1  0
M  END
