
     RDKit          3D

 21 22  0  0  0  0  0  0  0  0999 V2000
   -0.4952    1.6982   -0.0517 C   0  0  0  0  0  0  0  0  0  0  0  0
   -0.4904    0.2452   -0.0061 C   0  0  0  0  0  0  0  0  0  0  0  0
   -1.8070   -0.3080    0.5006 C   0  0  0  0  0  0  0  0  0  0  0  0
   -1.7117   -1.7139    0.5112 O   0  0  0  0  0  0  0  0  0  0  0  0
   -0.1570   -0.4995   -1.3175 C   0  0  0  0  0  0  0  0  0  0  0  0
    1.2350   -0.0281   -0.9725 C   0  0  0  0  0  0  0  0  0  0  0  0
    2.0800   -0.3809    0.1208 C   0  0  0  0  0  0  0  0  0  0  0  0
    2.7818    0.5666    0.9151 O   0  0  0  0  0  0  0  0  0  0  0  0
    0.7068   -0.5099    0.4406 C   0  0  0  0  0  0  0  0  0  0  0  0
    0.4103    2.2295    0.2978 H   0  0  0  0  0  0  0  0  0  0  0  0
   -1.3160    2.0882    0.5881 H   0  0  0  0  0  0  0  0  0  0  0  0
   -0.7636    2.0381   -1.0947 H   0  0  0  0  0  0  0  0  0  0  0  0
   -2.0346    0.0224    1.5332 H   0  0  0  0  0  0  0  0  0  0  0  0
   -2.6561   -0.0409   -0.1341 H   0  0  0  0  0  0  0  0  0  0  0  0
   -2.4463   -2.1146    1.0583 H   0  0  0  0  0  0  0  0  0  0  0  0
   -0.3454   -1.5730   -1.1399 H   0  0  0  0  0  0  0  0  0  0  0  0
   -0.5660   -0.0525   -2.2134 H   0  0  0  0  0  0  0  0  0  0  0  0
    1.2620    1.0699   -1.1388 H   0  0  0  0  0  0  0  0  0  0  0  0
    2.7854   -1.2449   -0.0821 H   0  0  0  0  0  0  0  0  0  0  0  0
    3.1142    0.1214    1.7359 H   0  0  0  0  0  0  0  0  0  0  0  0
    0.4139   -1.6131    0.4491 H   0  0  0  0  0  0  0  0  0  0  0  0
  1  2  1  0
  2  3  1  0
  3  4  1  0
  2  5  1  0
  5  6  1  0
  6  7  1  0
  7  8  1  0
  7  9  1  0
  9  2  1  0
  9  6  1  0
  1 10  1  0
  1 11  1  0
  1 12  1  0
  3 13  1  0
  3 14  1  0
  4 15  1  0
  5 16  1  0
  5 17  1  0
  6 18  1  0
  7 19  1  0
  8 20  1  0
  9 21  1  0
M  END
