
     RDKit          3D

 23 24  0  0  0  0  0  0  0  0999 V2000
   -1.5395   -0.6134   -1.4554 C   0  0  0  0  0  0  0  0  0  0  0  0
   -0.8532   -0.3519   -0.1315 C   0  0  0  0  0  0  0  0  0  0  0  0
   -1.7736   -0.1552    1.0156 C   0  0  0  0  0  0  0  0  0  0  0  0
    0.2783   -1.3291    0.0929 C   0  0  0  0  0  0  0  0  0  0  0  0
    1.2349   -0.2385   -0.3331 C   0  0  0  0  0  0  0  0  0  0  0  0
    2.6433   -0.2734    0.1373 C   0  0  0  0  0  0  0  0  0  0  0  0
    0.9753    0.5470   -1.4263 O   0  0  0  0  0  0  0  0  0  0  0  0
    0.2568    0.7016   -0.2682 C   0  0  0  0  0  0  0  0  0  0  0  0
    0.1261    1.9947    0.4322 C   0  0  0  0  0  0  0  0  0  0  0  0
   -2.0413   -1.5927   -1.3659 H   0  0  0  0  0  0  0  0  0  0  0  0
   -0.7788   -0.6358   -2.2641 H   0  0  0  0  0  0  0  0  0  0  0  0
   -2.2696    0.1596   -1.6915 H   0  0  0  0  0  0  0  0  0  0  0  0
   -1.2534    0.2161    1.8972 H   0  0  0  0  0  0  0  0  0  0  0  0
   -2.5846    0.5145    0.7379 H   0  0  0  0  0  0  0  0  0  0  0  0
   -2.2384   -1.1489    1.2574 H   0  0  0  0  0  0  0  0  0  0  0  0
    0.3998   -1.4966    1.1950 H   0  0  0  0  0  0  0  0  0  0  0  0
    0.2843   -2.2224   -0.5308 H   0  0  0  0  0  0  0  0  0  0  0  0
    3.2439   -0.8204   -0.6480 H   0  0  0  0  0  0  0  0  0  0  0  0
    2.7191   -0.9165    1.0438 H   0  0  0  0  0  0  0  0  0  0  0  0
    3.0863    0.7196    0.3340 H   0  0  0  0  0  0  0  0  0  0  0  0
   -0.9766    2.2073    0.5597 H   0  0  0  0  0  0  0  0  0  0  0  0
    0.4985    1.8807    1.4867 H   0  0  0  0  0  0  0  0  0  0  0  0
    0.5626    2.8535   -0.0750 H   0  0  0  0  0  0  0  0  0  0  0  0
  1  2  1  0
  2  3  1  0
  2  4  1  0
  4  5  1  0
  5  6  1  0
  5  7  1  0
  7  8  1  0
  8  9  1  0
  8  2  1  0
  8  5  1  0
  1 10  1  0
  1 11  1  0
  1 12  1  0
  3 13  1  0
  3 14  1  0
  3 15  1  0
  4 16  1  0
  4 17  1  0
  6 18  1  0
  6 19  1  0
  6 20  1  0
  9 21  1  0
  9 22  1  0
  9 23  1  0
M  END
