
     RDKit          3D

 21 22  0  0  0  0  0  0  0  0999 V2000
   -1.7607    0.0686   -0.7405 C   0  0  0  0  0  0  0  0  0  0  0  0
   -0.5305   -0.0267    0.0935 C   0  0  0  0  0  0  0  0  0  0  0  0
   -0.8634   -0.1898    1.5545 C   0  0  0  0  0  0  0  0  0  0  0  0
    0.5772   -0.8962   -0.4155 C   0  0  0  0  0  0  0  0  0  0  0  0
    0.6144   -2.1372   -0.5478 O   0  0  0  0  0  0  0  0  0  0  0  0
    1.4917   -0.0415    0.4501 C   0  0  0  0  0  0  0  0  0  0  0  0
    0.5707    0.9585   -0.2143 C   0  0  0  0  0  0  0  0  0  0  0  0
    0.5585    2.1995   -0.0692 O   0  0  0  0  0  0  0  0  0  0  0  0
    0.8076    0.1614   -1.4675 C   0  0  0  0  0  0  0  0  0  0  0  0
   -2.0256   -0.9554   -1.1287 H   0  0  0  0  0  0  0  0  0  0  0  0
   -1.7372    0.8297   -1.5279 H   0  0  0  0  0  0  0  0  0  0  0  0
   -2.6427    0.3380   -0.0864 H   0  0  0  0  0  0  0  0  0  0  0  0
   -0.3759   -1.0503    2.0292 H   0  0  0  0  0  0  0  0  0  0  0  0
   -1.9712   -0.3573    1.6911 H   0  0  0  0  0  0  0  0  0  0  0  0
   -0.6635    0.7782    2.0671 H   0  0  0  0  0  0  0  0  0  0  0  0
    1.0366   -2.6715    0.1559 H   0  0  0  0  0  0  0  0  0  0  0  0
    1.3914   -0.1652    1.5238 H   0  0  0  0  0  0  0  0  0  0  0  0
    2.4966    0.0242    0.0170 H   0  0  0  0  0  0  0  0  0  0  0  0
    1.0843    2.6340    0.6581 H   0  0  0  0  0  0  0  0  0  0  0  0
    1.8686    0.2574   -1.7808 H   0  0  0  0  0  0  0  0  0  0  0  0
    0.0731    0.2418   -2.2619 H   0  0  0  0  0  0  0  0  0  0  0  0
  1  2  1  0
  2  3  1  0
  2  4  1  0
  4  5  1  0
  4  6  1  0
  6  7  1  0
  7  8  1  0
  7  9  1  0
  7  2  1  0
  9  4  1  0
  1 10  1  0
  1 11  1  0
  1 12  1  0
  3 13  1  0
  3 14  1  0
  3 15  1  0
  5 16  1  0
  6 17  1  0
  6 18  1  0
  8 19  1  0
  9 20  1  0
  9 21  1  0
M  END
