
     RDKit          3D

 19 19  0  0  0  0  0  0  0  0999 V2000
   -1.1634   -1.2749   -0.4201 C   0  0  0  0  0  0  0  0  0  0  0  0
   -0.7012    0.1109   -0.0412 C   0  0  0  0  0  0  0  0  0  0  0  0
    0.7554    0.3626   -0.2384 C   0  0  0  0  0  0  0  0  0  0  0  0
    1.6193   -0.5378    0.5458 C   0  0  0  0  0  0  0  0  0  0  0  0
    1.0823   -1.4030    1.2818 O   0  0  0  0  0  0  0  0  0  0  0  0
    3.0715   -0.4625    0.4999 C   0  0  0  0  0  0  0  0  0  0  0  0
    3.6104    0.4013   -0.2349 O   0  0  0  0  0  0  0  0  0  0  0  0
   -1.4875    0.7993    1.0033 C   0  0  0  0  0  0  0  0  0  0  0  0
   -1.6166    1.2877   -0.4017 C   0  0  0  0  0  0  0  0  0  0  0  0
   -2.0796   -1.1577   -1.0317 H   0  0  0  0  0  0  0  0  0  0  0  0
   -0.3793   -1.8527   -0.9554 H   0  0  0  0  0  0  0  0  0  0  0  0
   -1.4388   -1.8912    0.4711 H   0  0  0  0  0  0  0  0  0  0  0  0
    1.0523    1.4051    0.0223 H   0  0  0  0  0  0  0  0  0  0  0  0
    0.9802    0.2706   -1.3375 H   0  0  0  0  0  0  0  0  0  0  0  0
    3.7023   -1.1201    1.0726 H   0  0  0  0  0  0  0  0  0  0  0  0
   -2.3820    0.2808    1.4034 H   0  0  0  0  0  0  0  0  0  0  0  0
   -0.9874    1.4377    1.7769 H   0  0  0  0  0  0  0  0  0  0  0  0
   -1.1238    2.2705   -0.5863 H   0  0  0  0  0  0  0  0  0  0  0  0
   -2.5143    1.0734   -0.9973 H   0  0  0  0  0  0  0  0  0  0  0  0
  1  2  1  0
  2  3  1  0
  3  4  1  0
  4  5  2  0
  4  6  1  0
  6  7  2  0
  2  8  1  0
  8  9  1  0
  9  2  1  0
  1 10  1  0
  1 11  1  0
  1 12  1  0
  3 13  1  0
  3 14  1  0
  6 15  1  0
  8 16  1  0
  8 17  1  0
  9 18  1  0
  9 19  1  0
M  END
