
     RDKit          3D

 23 24  0  0  0  0  0  0  0  0999 V2000
   -0.5338    1.6372    0.5321 C   0  0  0  0  0  0  0  0  0  0  0  0
   -0.2427    0.2716   -0.0981 C   0  0  0  0  0  0  0  0  0  0  0  0
    1.2055    0.2475   -0.4661 C   0  0  0  0  0  0  0  0  0  0  0  0
    2.1409    0.4407    0.7231 C   0  0  0  0  0  0  0  0  0  0  0  0
    2.1305   -0.8107   -0.0860 C   0  0  0  0  0  0  0  0  0  0  0  0
   -1.1685    0.0349   -1.2425 C   0  0  0  0  0  0  0  0  0  0  0  0
   -2.0681   -1.0641   -0.7173 C   0  0  0  0  0  0  0  0  0  0  0  0
   -2.0401   -0.8414    0.6797 O   0  0  0  0  0  0  0  0  0  0  0  0
   -0.6448   -0.7586    0.9015 C   0  0  0  0  0  0  0  0  0  0  0  0
   -0.4489    2.4500   -0.1982 H   0  0  0  0  0  0  0  0  0  0  0  0
   -1.4863    1.5617    1.0527 H   0  0  0  0  0  0  0  0  0  0  0  0
    0.2551    1.7582    1.3259 H   0  0  0  0  0  0  0  0  0  0  0  0
    1.4392    0.8408   -1.3904 H   0  0  0  0  0  0  0  0  0  0  0  0
    1.7236    0.3895    1.7445 H   0  0  0  0  0  0  0  0  0  0  0  0
    2.9755    1.1566    0.5582 H   0  0  0  0  0  0  0  0  0  0  0  0
    1.7431   -1.7577    0.3091 H   0  0  0  0  0  0  0  0  0  0  0  0
    3.0303   -0.9606   -0.7490 H   0  0  0  0  0  0  0  0  0  0  0  0
   -0.6832   -0.2700   -2.1692 H   0  0  0  0  0  0  0  0  0  0  0  0
   -1.8275    0.9317   -1.3927 H   0  0  0  0  0  0  0  0  0  0  0  0
   -1.6254   -2.0794   -0.8798 H   0  0  0  0  0  0  0  0  0  0  0  0
   -3.0890   -1.0184   -1.0996 H   0  0  0  0  0  0  0  0  0  0  0  0
   -0.5315   -0.3954    1.9391 H   0  0  0  0  0  0  0  0  0  0  0  0
   -0.2543   -1.7643    0.7228 H   0  0  0  0  0  0  0  0  0  0  0  0
  1  2  1  0
  2  3  1  0
  3  4  1  0
  4  5  1  0
  2  6  1  0
  6  7  1  0
  7  8  1  0
  8  9  1  0
  9  2  1  0
  5  3  1  0
  1 10  1  0
  1 11  1  0
  1 12  1  0
  3 13  1  0
  4 14  1  0
  4 15  1  0
  5 16  1  0
  5 17  1  0
  6 18  1  0
  6 19  1  0
  7 20  1  0
  7 21  1  0
  9 22  1  0
  9 23  1  0
M  END
