
     RDKit          3D

 17 18  0  0  0  0  0  0  0  0999 V2000
   -1.7348   -0.1174    0.5593 C   0  0  0  0  0  0  0  0  0  0  0  0
   -0.8400    0.2354   -0.5737 C   0  0  0  0  0  0  0  0  0  0  0  0
   -1.4429    1.0454   -1.5197 O   0  0  0  0  0  0  0  0  0  0  0  0
    0.0414   -0.8611   -1.1077 C   0  0  0  0  0  0  0  0  0  0  0  0
    1.2341   -0.0150   -0.6347 C   0  0  0  0  0  0  0  0  0  0  0  0
    2.3799   -0.6984   -0.0389 C   0  0  0  0  0  0  0  0  0  0  0  0
    3.4568   -0.1565    0.0214 O   0  0  0  0  0  0  0  0  0  0  0  0
    1.3369    1.2607   -1.1452 O   0  0  0  0  0  0  0  0  0  0  0  0
    0.4248    0.9222   -0.0930 C   0  0  0  0  0  0  0  0  0  0  0  0
   -1.9152   -1.2266    0.6150 H   0  0  0  0  0  0  0  0  0  0  0  0
   -2.7452    0.3723    0.4346 H   0  0  0  0  0  0  0  0  0  0  0  0
   -1.3282    0.1718    1.5509 H   0  0  0  0  0  0  0  0  0  0  0  0
   -1.5166    1.9491   -1.1030 H   0  0  0  0  0  0  0  0  0  0  0  0
   -0.0493   -1.7799   -0.5089 H   0  0  0  0  0  0  0  0  0  0  0  0
    0.0155   -1.0389   -2.1840 H   0  0  0  0  0  0  0  0  0  0  0  0
    2.2686   -1.6918    0.3503 H   0  0  0  0  0  0  0  0  0  0  0  0
    0.4142    1.6288    0.7107 H   0  0  0  0  0  0  0  0  0  0  0  0
  1  2  1  0
  2  3  1  0
  2  4  1  0
  4  5  1  0
  5  6  1  0
  6  7  2  0
  5  8  1  0
  8  9  1  0
  9  2  1  0
  9  5  1  0
  1 10  1  0
  1 11  1  0
  1 12  1  0
  3 13  1  0
  4 14  1  0
  4 15  1  0
  6 16  1  0
  9 17  1  0
M  END
