
     RDKit          3D

 16 16  0  0  0  0  0  0  0  0999 V2000
   -1.2475   -0.8859    0.7767 C   0  0  0  0  0  0  0  0  0  0  0  0
   -0.3213    0.0978    0.1215 C   0  0  0  0  0  0  0  0  0  0  0  0
   -1.0460    1.2975   -0.4382 C   0  0  0  0  0  0  0  0  0  0  0  0
    0.4980   -0.5845   -0.8806 C   0  0  0  0  0  0  0  0  0  0  0  0
    1.7865   -0.5243   -0.6060 C   0  0  0  0  0  0  0  0  0  0  0  0
    1.9055    0.2185    0.6234 C   0  0  0  0  0  0  0  0  0  0  0  0
    2.9716    0.4899    1.2126 O   0  0  0  0  0  0  0  0  0  0  0  0
    0.6371    0.5809    1.0416 O   0  0  0  0  0  0  0  0  0  0  0  0
   -2.0295   -1.1933    0.0665 H   0  0  0  0  0  0  0  0  0  0  0  0
   -1.6740   -0.5223    1.7258 H   0  0  0  0  0  0  0  0  0  0  0  0
   -0.6511   -1.7903    1.0185 H   0  0  0  0  0  0  0  0  0  0  0  0
   -1.6389    1.7476    0.3713 H   0  0  0  0  0  0  0  0  0  0  0  0
   -0.2399    2.0212   -0.7588 H   0  0  0  0  0  0  0  0  0  0  0  0
   -1.6375    1.0850   -1.3259 H   0  0  0  0  0  0  0  0  0  0  0  0
    0.1079   -1.0851   -1.7515 H   0  0  0  0  0  0  0  0  0  0  0  0
    2.5791   -0.9527   -1.1970 H   0  0  0  0  0  0  0  0  0  0  0  0
  1  2  1  0
  2  3  1  0
  2  4  1  0
  4  5  2  0
  5  6  1  0
  6  7  2  0
  6  8  1  0
  8  2  1  0
  1  9  1  0
  1 10  1  0
  1 11  1  0
  3 12  1  0
  3 13  1  0
  3 14  1  0
  4 15  1  0
  5 16  1  0
M  END
