
     RDKit          3D

 21 22  0  0  0  0  0  0  0  0999 V2000
   -0.7026   -0.8839    1.4773 C   0  0  0  0  0  0  0  0  0  0  0  0
   -0.4925   -0.1707    0.1930 C   0  0  0  0  0  0  0  0  0  0  0  0
   -1.1775   -0.7134   -1.0233 C   0  0  0  0  0  0  0  0  0  0  0  0
   -0.6848    1.3392    0.3914 C   0  0  0  0  0  0  0  0  0  0  0  0
   -1.5620    1.8932   -0.5095 O   0  0  0  0  0  0  0  0  0  0  0  0
    0.7972    1.4659   -0.0001 C   0  0  0  0  0  0  0  0  0  0  0  0
    0.9921    1.0296   -1.3122 O   0  0  0  0  0  0  0  0  0  0  0  0
    0.9460    0.1484   -0.1146 C   0  0  0  0  0  0  0  0  0  0  0  0
    1.9972   -0.8597   -0.1699 C   0  0  0  0  0  0  0  0  0  0  0  0
    0.2207   -1.0335    2.0562 H   0  0  0  0  0  0  0  0  0  0  0  0
   -1.1917   -1.8574    1.2795 H   0  0  0  0  0  0  0  0  0  0  0  0
   -1.4416   -0.3119    2.1095 H   0  0  0  0  0  0  0  0  0  0  0  0
   -2.2647   -0.6618   -1.0059 H   0  0  0  0  0  0  0  0  0  0  0  0
   -0.8156   -1.7558   -1.1671 H   0  0  0  0  0  0  0  0  0  0  0  0
   -0.7573   -0.1461   -1.9052 H   0  0  0  0  0  0  0  0  0  0  0  0
   -0.8633    1.6435    1.4265 H   0  0  0  0  0  0  0  0  0  0  0  0
   -1.1742    2.0662   -1.3862 H   0  0  0  0  0  0  0  0  0  0  0  0
    1.3455    2.3248    0.3879 H   0  0  0  0  0  0  0  0  0  0  0  0
    2.0854   -1.2358   -1.2330 H   0  0  0  0  0  0  0  0  0  0  0  0
    2.9946   -0.4878    0.0910 H   0  0  0  0  0  0  0  0  0  0  0  0
    1.7492   -1.7930    0.4146 H   0  0  0  0  0  0  0  0  0  0  0  0
  1  2  1  0
  2  3  1  0
  2  4  1  0
  4  5  1  0
  4  6  1  0
  6  7  1  0
  7  8  1  0
  8  9  1  0
  8  2  1  0
  8  6  1  0
  1 10  1  0
  1 11  1  0
  1 12  1  0
  3 13  1  0
  3 14  1  0
  3 15  1  0
  4 16  1  0
  5 17  1  0
  6 18  1  0
  9 19  1  0
  9 20  1  0
  9 21  1  0
M  END
