
     RDKit          3D

 19 21  0  0  0  0  0  0  0  0999 V2000
   -2.2400    0.1607    0.7342 C   0  0  0  0  0  0  0  0  0  0  0  0
   -1.2014   -0.0027   -0.3740 C   0  0  0  0  0  0  0  0  0  0  0  0
   -1.3345    0.8604   -1.4515 O   0  0  0  0  0  0  0  0  0  0  0  0
   -0.6848   -1.4025   -0.5954 C   0  0  0  0  0  0  0  0  0  0  0  0
    0.1519   -0.3898    0.0023 C   0  0  0  0  0  0  0  0  0  0  0  0
    0.6470   -0.3909    1.2728 O   0  0  0  0  0  0  0  0  0  0  0  0
    1.6265    0.5320    0.8461 C   0  0  0  0  0  0  0  0  0  0  0  0
    2.7111   -0.0309    0.0361 C   0  0  0  0  0  0  0  0  0  0  0  0
    1.3910    0.1709   -0.5928 C   0  0  0  0  0  0  0  0  0  0  0  0
   -2.7406   -0.8181    0.9018 H   0  0  0  0  0  0  0  0  0  0  0  0
   -1.7147    0.4832    1.6594 H   0  0  0  0  0  0  0  0  0  0  0  0
   -2.9676    0.9638    0.4588 H   0  0  0  0  0  0  0  0  0  0  0  0
   -1.5607    1.7559   -1.0583 H   0  0  0  0  0  0  0  0  0  0  0  0
   -1.0422   -2.2344    0.0338 H   0  0  0  0  0  0  0  0  0  0  0  0
   -0.4937   -1.6766   -1.6607 H   0  0  0  0  0  0  0  0  0  0  0  0
    1.5704    1.5676    1.1810 H   0  0  0  0  0  0  0  0  0  0  0  0
    3.0112   -1.0767    0.2809 H   0  0  0  0  0  0  0  0  0  0  0  0
    3.5490    0.5912   -0.3035 H   0  0  0  0  0  0  0  0  0  0  0  0
    1.3222    0.9371   -1.3711 H   0  0  0  0  0  0  0  0  0  0  0  0
  1  2  1  0
  2  3  1  0
  2  4  1  0
  4  5  1  0
  5  6  1  0
  6  7  1  0
  7  8  1  0
  8  9  1  0
  5  2  1  0
  9  7  1  0
  9  5  1  0
  1 10  1  0
  1 11  1  0
  1 12  1  0
  3 13  1  0
  4 14  1  0
  4 15  1  0
  7 16  1  0
  8 17  1  0
  8 18  1  0
  9 19  1  0
M  END
