
     RDKit          3D

 21 22  0  0  0  0  0  0  0  0999 V2000
   -0.5951    1.7067   -0.1774 C   0  0  0  0  0  0  0  0  0  0  0  0
   -0.5108    0.2405    0.0019 C   0  0  0  0  0  0  0  0  0  0  0  0
    0.8002   -0.4859    0.0685 C   0  0  0  0  0  0  0  0  0  0  0  0
    1.6847   -0.3696   -1.1286 C   0  0  0  0  0  0  0  0  0  0  0  0
    2.2513    0.7837   -0.5432 O   0  0  0  0  0  0  0  0  0  0  0  0
    1.9402    0.2383    0.7037 C   0  0  0  0  0  0  0  0  0  0  0  0
   -1.6246   -0.5536   -0.6432 C   0  0  0  0  0  0  0  0  0  0  0  0
   -1.6470   -0.4069    0.8374 C   0  0  0  0  0  0  0  0  0  0  0  0
   -1.2838   -1.4645    1.6582 O   0  0  0  0  0  0  0  0  0  0  0  0
   -1.5548    2.1060    0.2160 H   0  0  0  0  0  0  0  0  0  0  0  0
    0.2071    2.2860    0.2894 H   0  0  0  0  0  0  0  0  0  0  0  0
   -0.6246    1.9208   -1.2832 H   0  0  0  0  0  0  0  0  0  0  0  0
    0.6748   -1.5329    0.4171 H   0  0  0  0  0  0  0  0  0  0  0  0
    2.4155   -1.1733   -1.2558 H   0  0  0  0  0  0  0  0  0  0  0  0
    1.1829   -0.1513   -2.0912 H   0  0  0  0  0  0  0  0  0  0  0  0
    2.7102   -0.4865    1.0657 H   0  0  0  0  0  0  0  0  0  0  0  0
    1.7074    0.9674    1.4872 H   0  0  0  0  0  0  0  0  0  0  0  0
   -1.4076   -1.5899   -1.0010 H   0  0  0  0  0  0  0  0  0  0  0  0
   -2.3322   -0.0188   -1.2887 H   0  0  0  0  0  0  0  0  0  0  0  0
   -2.3367    0.3117    1.3220 H   0  0  0  0  0  0  0  0  0  0  0  0
   -1.6570   -2.3279    1.3449 H   0  0  0  0  0  0  0  0  0  0  0  0
  1  2  1  0
  2  3  1  0
  3  4  1  0
  4  5  1  0
  5  6  1  0
  2  7  1  0
  7  8  1  0
  8  9  1  0
  8  2  1  0
  6  3  1  0
  1 10  1  0
  1 11  1  0
  1 12  1  0
  3 13  1  0
  4 14  1  0
  4 15  1  0
  6 16  1  0
  6 17  1  0
  7 18  1  0
  7 19  1  0
  8 20  1  0
  9 21  1  0
M  END
