
     RDKit          3D

 23 24  0  0  0  0  0  0  0  0999 V2000
   -1.6601    0.3202    1.0488 C   0  0  0  0  0  0  0  0  0  0  0  0
   -0.7528   -0.1461   -0.0917 C   0  0  0  0  0  0  0  0  0  0  0  0
   -1.5088   -0.1378   -1.3941 C   0  0  0  0  0  0  0  0  0  0  0  0
   -0.1773   -1.5061    0.2962 C   0  0  0  0  0  0  0  0  0  0  0  0
    1.1117   -0.7561    0.6354 C   0  0  0  0  0  0  0  0  0  0  0  0
    1.8167   -0.2063   -0.5342 C   0  0  0  0  0  0  0  0  0  0  0  0
    1.8486   -1.0585   -1.6565 O   0  0  0  0  0  0  0  0  0  0  0  0
    0.5955    0.4858   -0.1304 C   0  0  0  0  0  0  0  0  0  0  0  0
    0.7727    1.8294    0.5762 C   0  0  0  0  0  0  0  0  0  0  0  0
   -2.6291   -0.2095    0.8904 H   0  0  0  0  0  0  0  0  0  0  0  0
   -1.8613    1.3903    1.0171 H   0  0  0  0  0  0  0  0  0  0  0  0
   -1.2584   -0.0365    2.0321 H   0  0  0  0  0  0  0  0  0  0  0  0
   -0.7498   -0.2838   -2.2084 H   0  0  0  0  0  0  0  0  0  0  0  0
   -2.2909   -0.9012   -1.4541 H   0  0  0  0  0  0  0  0  0  0  0  0
   -1.9236    0.8613   -1.5364 H   0  0  0  0  0  0  0  0  0  0  0  0
   -0.6664   -2.0001    1.1349 H   0  0  0  0  0  0  0  0  0  0  0  0
   -0.0349   -2.1916   -0.5849 H   0  0  0  0  0  0  0  0  0  0  0  0
    1.3673   -0.5541    1.6692 H   0  0  0  0  0  0  0  0  0  0  0  0
    2.7696    0.2882   -0.3534 H   0  0  0  0  0  0  0  0  0  0  0  0
    2.5885   -1.7125   -1.4425 H   0  0  0  0  0  0  0  0  0  0  0  0
    1.4883    2.4044   -0.0760 H   0  0  0  0  0  0  0  0  0  0  0  0
   -0.1422    2.4132    0.6177 H   0  0  0  0  0  0  0  0  0  0  0  0
    1.2968    1.7074    1.5446 H   0  0  0  0  0  0  0  0  0  0  0  0
  1  2  1  0
  2  3  1  0
  2  4  1  0
  4  5  1  0
  5  6  1  0
  6  7  1  0
  6  8  1  0
  8  9  1  0
  8  2  1  0
  8  5  1  0
  1 10  1  0
  1 11  1  0
  1 12  1  0
  3 13  1  0
  3 14  1  0
  3 15  1  0
  4 16  1  0
  4 17  1  0
  5 18  1  0
  6 19  1  0
  7 20  1  0
  9 21  1  0
  9 22  1  0
  9 23  1  0
M  END
