
     RDKit          3D

 23 24  0  0  0  0  0  0  0  0999 V2000
   -0.9715    0.4184    1.6798 C   0  0  0  0  0  0  0  0  0  0  0  0
   -0.8110    0.1163    0.1938 C   0  0  0  0  0  0  0  0  0  0  0  0
   -1.6621    0.9824   -0.6764 C   0  0  0  0  0  0  0  0  0  0  0  0
   -1.0774   -1.3638   -0.1119 C   0  0  0  0  0  0  0  0  0  0  0  0
    0.3716   -1.5281   -0.5781 C   0  0  0  0  0  0  0  0  0  0  0  0
    0.5905   -0.1119   -0.1940 C   0  0  0  0  0  0  0  0  0  0  0  0
    1.6653    0.3802    0.6438 C   0  0  0  0  0  0  0  0  0  0  0  0
    1.4995    0.8100   -0.8156 C   0  0  0  0  0  0  0  0  0  0  0  0
    2.4903    0.2665   -1.6604 O   0  0  0  0  0  0  0  0  0  0  0  0
   -2.0479    0.5037    1.9649 H   0  0  0  0  0  0  0  0  0  0  0  0
   -0.5279    1.4115    1.8727 H   0  0  0  0  0  0  0  0  0  0  0  0
   -0.4751   -0.4045    2.2295 H   0  0  0  0  0  0  0  0  0  0  0  0
   -1.2317    0.9506   -1.7052 H   0  0  0  0  0  0  0  0  0  0  0  0
   -1.6534    2.0263   -0.3280 H   0  0  0  0  0  0  0  0  0  0  0  0
   -2.7114    0.5876   -0.7042 H   0  0  0  0  0  0  0  0  0  0  0  0
   -1.2939   -1.9791    0.7720 H   0  0  0  0  0  0  0  0  0  0  0  0
   -1.7918   -1.5309   -0.9255 H   0  0  0  0  0  0  0  0  0  0  0  0
    0.9680   -2.2333    0.0071 H   0  0  0  0  0  0  0  0  0  0  0  0
    0.4528   -1.6449   -1.6916 H   0  0  0  0  0  0  0  0  0  0  0  0
    1.4362    1.2110    1.3575 H   0  0  0  0  0  0  0  0  0  0  0  0
    2.5206   -0.2632    0.9099 H   0  0  0  0  0  0  0  0  0  0  0  0
    1.2692    1.8613   -1.0369 H   0  0  0  0  0  0  0  0  0  0  0  0
    2.9911   -0.4661   -1.2033 H   0  0  0  0  0  0  0  0  0  0  0  0
  1  2  1  0
  2  3  1  0
  2  4  1  0
  4  5  1  0
  5  6  1  0
  6  7  1  0
  7  8  1  0
  8  9  1  0
  6  2  1  0
  8  6  1  0
  1 10  1  0
  1 11  1  0
  1 12  1  0
  3 13  1  0
  3 14  1  0
  3 15  1  0
  4 16  1  0
  4 17  1  0
  5 18  1  0
  5 19  1  0
  7 20  1  0
  7 21  1  0
  8 22  1  0
  9 23  1  0
M  END
