
     RDKit          3D

 19 20  0  0  0  0  0  0  0  0999 V2000
   -1.9774   -1.0844    0.1996 C   0  0  0  0  0  0  0  0  0  0  0  0
   -0.9797    0.0598    0.4342 C   0  0  0  0  0  0  0  0  0  0  0  0
   -1.6472    1.1693    1.0029 O   0  0  0  0  0  0  0  0  0  0  0  0
    0.3790   -0.3432    0.8290 C   0  0  0  0  0  0  0  0  0  0  0  0
    1.7460    0.0010    0.3282 C   0  0  0  0  0  0  0  0  0  0  0  0
    2.1949   -0.8561   -0.6577 O   0  0  0  0  0  0  0  0  0  0  0  0
    1.1326    1.3065   -0.2050 C   0  0  0  0  0  0  0  0  0  0  0  0
    0.0425    0.2874   -0.4223 C   0  0  0  0  0  0  0  0  0  0  0  0
    0.2619   -0.4871   -1.5694 O   0  0  0  0  0  0  0  0  0  0  0  0
   -2.4901   -1.2606    1.1684 H   0  0  0  0  0  0  0  0  0  0  0  0
   -1.4123   -1.9555   -0.1515 H   0  0  0  0  0  0  0  0  0  0  0  0
   -2.7367   -0.7737   -0.5557 H   0  0  0  0  0  0  0  0  0  0  0  0
   -2.2641    1.5714    0.3629 H   0  0  0  0  0  0  0  0  0  0  0  0
    0.3744   -0.2176    1.8861 H   0  0  0  0  0  0  0  0  0  0  0  0
    2.5346    0.2619    1.0183 H   0  0  0  0  0  0  0  0  0  0  0  0
    2.9103   -0.4722   -1.2207 H   0  0  0  0  0  0  0  0  0  0  0  0
    0.8778    1.9885    0.5985 H   0  0  0  0  0  0  0  0  0  0  0  0
    1.5966    1.6867   -1.1116 H   0  0  0  0  0  0  0  0  0  0  0  0
   -0.5432   -0.8821   -1.9341 H   0  0  0  0  0  0  0  0  0  0  0  0
  1  2  1  0
  2  3  1  0
  2  4  1  0
  4  5  1  0
  5  6  1  0
  5  7  1  0
  7  8  1  0
  8  9  1  0
  8  2  1  0
  8  4  1  0
  1 10  1  0
  1 11  1  0
  1 12  1  0
  3 13  1  0
  4 14  1  0
  5 15  1  0
  6 16  1  0
  7 17  1  0
  7 18  1  0
  9 19  1  0
M  END
