
     RDKit          3D

 21 21  0  0  0  0  0  0  0  0999 V2000
   -2.1608    0.9772    0.6445 C   0  0  0  0  0  0  0  0  0  0  0  0
   -1.2281   -0.0045    0.0393 C   0  0  0  0  0  0  0  0  0  0  0  0
   -1.8513   -0.8739   -0.8242 O   0  0  0  0  0  0  0  0  0  0  0  0
   -0.2582   -0.6881    0.9552 C   0  0  0  0  0  0  0  0  0  0  0  0
    0.8035   -0.4603   -0.1192 C   0  0  0  0  0  0  0  0  0  0  0  0
    0.8543   -1.4703   -1.0653 O   0  0  0  0  0  0  0  0  0  0  0  0
    2.1618   -0.1234    0.4185 C   0  0  0  0  0  0  0  0  0  0  0  0
    2.0863    0.8899    1.3636 O   0  0  0  0  0  0  0  0  0  0  0  0
   -0.0254    0.6992   -0.6045 C   0  0  0  0  0  0  0  0  0  0  0  0
   -1.6599    1.7640    1.2406 H   0  0  0  0  0  0  0  0  0  0  0  0
   -2.9007    0.4906    1.3186 H   0  0  0  0  0  0  0  0  0  0  0  0
   -2.6969    1.5019   -0.1719 H   0  0  0  0  0  0  0  0  0  0  0  0
   -2.5541   -1.3606   -0.3270 H   0  0  0  0  0  0  0  0  0  0  0  0
   -0.0494   -0.2285    1.9148 H   0  0  0  0  0  0  0  0  0  0  0  0
   -0.4035   -1.7905    1.0558 H   0  0  0  0  0  0  0  0  0  0  0  0
    1.5481   -2.1209   -0.8246 H   0  0  0  0  0  0  0  0  0  0  0  0
    2.5448   -1.0513    0.9257 H   0  0  0  0  0  0  0  0  0  0  0  0
    2.7994    0.1564   -0.4447 H   0  0  0  0  0  0  0  0  0  0  0  0
    2.9843    1.2761    1.5248 H   0  0  0  0  0  0  0  0  0  0  0  0
   -0.2011    0.7485   -1.6851 H   0  0  0  0  0  0  0  0  0  0  0  0
    0.2067    1.6685   -0.1078 H   0  0  0  0  0  0  0  0  0  0  0  0
  1  2  1  0
  2  3  1  0
  2  4  1  0
  4  5  1  0
  5  6  1  0
  5  7  1  0
  7  8  1  0
  5  9  1  0
  9  2  1  0
  1 10  1  0
  1 11  1  0
  1 12  1  0
  3 13  1  0
  4 14  1  0
  4 15  1  0
  6 16  1  0
  7 17  1  0
  7 18  1  0
  8 19  1  0
  9 20  1  0
  9 21  1  0
M  END
