
     RDKit          3D

 19 21  0  0  0  0  0  0  0  0999 V2000
    1.5459    0.3541   -1.0161 C   0  0  0  0  0  0  0  0  0  0  0  0
    0.7647    0.2609    0.2470 C   0  0  0  0  0  0  0  0  0  0  0  0
    0.8706    1.3275    1.1220 O   0  0  0  0  0  0  0  0  0  0  0  0
    0.8473   -1.1089    0.8875 C   0  0  0  0  0  0  0  0  0  0  0  0
    0.3083   -1.5405    2.0033 O   0  0  0  0  0  0  0  0  0  0  0  0
   -0.5098   -0.6255    1.4948 C   0  0  0  0  0  0  0  0  0  0  0  0
   -0.6678   -0.1560    0.1032 C   0  0  0  0  0  0  0  0  0  0  0  0
   -1.6914    0.7632   -0.3342 C   0  0  0  0  0  0  0  0  0  0  0  0
   -1.3900   -0.6084   -0.9872 C   0  0  0  0  0  0  0  0  0  0  0  0
    2.3587   -0.4226   -1.0128 H   0  0  0  0  0  0  0  0  0  0  0  0
    0.9376    0.1386   -1.9103 H   0  0  0  0  0  0  0  0  0  0  0  0
    1.9904    1.3858   -1.0649 H   0  0  0  0  0  0  0  0  0  0  0  0
    1.4830    1.1790    1.8730 H   0  0  0  0  0  0  0  0  0  0  0  0
    0.7056   -1.8642    0.0478 H   0  0  0  0  0  0  0  0  0  0  0  0
   -0.4384    0.3090    2.1447 H   0  0  0  0  0  0  0  0  0  0  0  0
   -1.3435    1.6646   -0.9038 H   0  0  0  0  0  0  0  0  0  0  0  0
   -2.6071    0.8634    0.2461 H   0  0  0  0  0  0  0  0  0  0  0  0
   -0.9779   -0.5527   -2.0323 H   0  0  0  0  0  0  0  0  0  0  0  0
   -2.1861   -1.3673   -0.9077 H   0  0  0  0  0  0  0  0  0  0  0  0
  1  2  1  0
  2  3  1  0
  2  4  1  0
  4  5  1  0
  5  6  1  0
  6  7  1  0
  7  8  1  0
  8  9  1  0
  7  2  1  0
  6  4  1  0
  9  7  1  0
  1 10  1  0
  1 11  1  0
  1 12  1  0
  3 13  1  0
  4 14  1  0
  6 15  1  0
  8 16  1  0
  8 17  1  0
  9 18  1  0
  9 19  1  0
M  END
