
     RDKit          3D

 22 23  0  0  0  0  0  0  0  0999 V2000
   -1.0317   -0.6111    1.3102 C   0  0  0  0  0  0  0  0  0  0  0  0
   -0.6121   -0.1666   -0.0572 C   0  0  0  0  0  0  0  0  0  0  0  0
   -1.7357   -0.5443   -1.0205 C   0  0  0  0  0  0  0  0  0  0  0  0
   -0.4317    1.3218   -0.0708 C   0  0  0  0  0  0  0  0  0  0  0  0
    1.0559    1.5217    0.0973 C   0  0  0  0  0  0  0  0  0  0  0  0
    1.7418    0.2943   -0.3967 C   0  0  0  0  0  0  0  0  0  0  0  0
    1.8023   -0.9562    0.3572 C   0  0  0  0  0  0  0  0  0  0  0  0
    0.6570   -0.7773   -0.5419 C   0  0  0  0  0  0  0  0  0  0  0  0
   -1.8873    0.0524    1.6162 H   0  0  0  0  0  0  0  0  0  0  0  0
   -0.2529   -0.5584    2.0667 H   0  0  0  0  0  0  0  0  0  0  0  0
   -1.4524   -1.6384    1.2979 H   0  0  0  0  0  0  0  0  0  0  0  0
   -1.6616   -0.0196   -1.9781 H   0  0  0  0  0  0  0  0  0  0  0  0
   -1.6878   -1.6590   -1.1227 H   0  0  0  0  0  0  0  0  0  0  0  0
   -2.7062   -0.3518   -0.4915 H   0  0  0  0  0  0  0  0  0  0  0  0
   -1.0300    1.7471    0.7421 H   0  0  0  0  0  0  0  0  0  0  0  0
   -0.7567    1.6906   -1.0814 H   0  0  0  0  0  0  0  0  0  0  0  0
    1.3334    1.8057    1.1370 H   0  0  0  0  0  0  0  0  0  0  0  0
    1.3290    2.3981   -0.5423 H   0  0  0  0  0  0  0  0  0  0  0  0
    2.4425    0.4315   -1.2597 H   0  0  0  0  0  0  0  0  0  0  0  0
    2.5709   -1.6965    0.0214 H   0  0  0  0  0  0  0  0  0  0  0  0
    1.6546   -1.0067    1.4658 H   0  0  0  0  0  0  0  0  0  0  0  0
    0.6587   -1.2773   -1.5488 H   0  0  0  0  0  0  0  0  0  0  0  0
  1  2  1  0
  2  3  1  0
  2  4  1  0
  4  5  1  0
  5  6  1  0
  6  7  1  0
  7  8  1  0
  8  2  1  0
  8  6  1  0
  1  9  1  0
  1 10  1  0
  1 11  1  0
  3 12  1  0
  3 13  1  0
  3 14  1  0
  4 15  1  0
  4 16  1  0
  5 17  1  0
  5 18  1  0
  6 19  1  0
  7 20  1  0
  7 21  1  0
  8 22  1  0
M  END
