
     RDKit          3D

 21 21  0  0  0  0  0  0  0  0999 V2000
   -2.4452   -0.4732   -0.3917 C   0  0  0  0  0  0  0  0  0  0  0  0
   -1.0910   -0.0481    0.1438 C   0  0  0  0  0  0  0  0  0  0  0  0
   -1.3664    0.5830    1.3821 O   0  0  0  0  0  0  0  0  0  0  0  0
   -0.4702    0.9958   -0.7014 C   0  0  0  0  0  0  0  0  0  0  0  0
    0.7781    1.4316   -0.6370 C   0  0  0  0  0  0  0  0  0  0  0  0
    1.8458    0.9518    0.3219 C   0  0  0  0  0  0  0  0  0  0  0  0
    2.1113   -0.4942    0.1243 C   0  0  0  0  0  0  0  0  0  0  0  0
    1.0119   -1.4216    0.3149 C   0  0  0  0  0  0  0  0  0  0  0  0
   -0.2924   -1.2613    0.3264 C   0  0  0  0  0  0  0  0  0  0  0  0
   -2.7549   -1.3533    0.2128 H   0  0  0  0  0  0  0  0  0  0  0  0
   -2.2810   -0.8398   -1.4202 H   0  0  0  0  0  0  0  0  0  0  0  0
   -3.1640    0.3683   -0.3340 H   0  0  0  0  0  0  0  0  0  0  0  0
   -1.9995    1.3251    1.1564 H   0  0  0  0  0  0  0  0  0  0  0  0
   -1.1191    1.4332   -1.4391 H   0  0  0  0  0  0  0  0  0  0  0  0
    1.0690    2.2012   -1.3304 H   0  0  0  0  0  0  0  0  0  0  0  0
    2.7536    1.5189    0.1099 H   0  0  0  0  0  0  0  0  0  0  0  0
    1.4531    1.1471    1.3595 H   0  0  0  0  0  0  0  0  0  0  0  0
    2.4701   -0.6167   -0.9405 H   0  0  0  0  0  0  0  0  0  0  0  0
    2.9736   -0.7882    0.7595 H   0  0  0  0  0  0  0  0  0  0  0  0
    1.3773   -2.4597    0.4807 H   0  0  0  0  0  0  0  0  0  0  0  0
   -0.8601   -2.1998    0.5022 H   0  0  0  0  0  0  0  0  0  0  0  0
  1  2  1  0
  2  3  1  0
  2  4  1  0
  4  5  2  0
  5  6  1  0
  6  7  1  0
  7  8  1  0
  8  9  2  0
  9  2  1  0
  1 10  1  0
  1 11  1  0
  1 12  1  0
  3 13  1  0
  4 14  1  0
  5 15  1  0
  6 16  1  0
  6 17  1  0
  7 18  1  0
  7 19  1  0
  8 20  1  0
  9 21  1  0
M  END
