
     RDKit          3D

 19 19  0  0  0  0  0  0  0  0999 V2000
   -1.6994   -1.1034    0.1119 C   0  0  0  0  0  0  0  0  0  0  0  0
   -1.0129    0.2243   -0.1128 C   0  0  0  0  0  0  0  0  0  0  0  0
    0.3399    0.1321   -0.5257 O   0  0  0  0  0  0  0  0  0  0  0  0
    1.2300   -0.5133    0.3254 C   0  0  0  0  0  0  0  0  0  0  0  0
    0.8114   -0.9870    1.4175 O   0  0  0  0  0  0  0  0  0  0  0  0
    2.6688   -0.6855    0.0283 C   0  0  0  0  0  0  0  0  0  0  0  0
    2.9349   -0.1047   -1.2027 O   0  0  0  0  0  0  0  0  0  0  0  0
   -1.8345    1.4046   -0.4728 C   0  0  0  0  0  0  0  0  0  0  0  0
   -1.2529    1.3366    0.8852 C   0  0  0  0  0  0  0  0  0  0  0  0
   -1.4902   -1.4228    1.1572 H   0  0  0  0  0  0  0  0  0  0  0  0
   -1.2253   -1.8361   -0.5733 H   0  0  0  0  0  0  0  0  0  0  0  0
   -2.7907   -1.0462   -0.0718 H   0  0  0  0  0  0  0  0  0  0  0  0
    3.3075   -0.2803    0.8371 H   0  0  0  0  0  0  0  0  0  0  0  0
    2.9082   -1.7851   -0.0086 H   0  0  0  0  0  0  0  0  0  0  0  0
    3.8373    0.2942   -1.1488 H   0  0  0  0  0  0  0  0  0  0  0  0
   -2.9395    1.2056   -0.5375 H   0  0  0  0  0  0  0  0  0  0  0  0
   -1.4669    2.0678   -1.2541 H   0  0  0  0  0  0  0  0  0  0  0  0
   -0.4238    2.0415    1.1237 H   0  0  0  0  0  0  0  0  0  0  0  0
   -1.9022    1.0577    1.7321 H   0  0  0  0  0  0  0  0  0  0  0  0
  1  2  1  0
  2  3  1  0
  3  4  1  0
  4  5  2  0
  4  6  1  0
  6  7  1  0
  2  8  1  0
  8  9  1  0
  9  2  1  0
  1 10  1  0
  1 11  1  0
  1 12  1  0
  6 13  1  0
  6 14  1  0
  7 15  1  0
  8 16  1  0
  8 17  1  0
  9 18  1  0
  9 19  1  0
M  END
