
     RDKit          3D

 19 19  0  0  0  0  0  0  0  0999 V2000
   -1.3671   -1.2916    0.4710 C   0  0  0  0  0  0  0  0  0  0  0  0
   -0.7355   -0.0157   -0.0117 C   0  0  0  0  0  0  0  0  0  0  0  0
   -0.7143    0.1507   -1.3998 O   0  0  0  0  0  0  0  0  0  0  0  0
   -1.0489    1.1994    0.7632 C   0  0  0  0  0  0  0  0  0  0  0  0
   -1.9888    1.6249    1.3684 O   0  0  0  0  0  0  0  0  0  0  0  0
    0.3206    1.6555    0.4558 C   0  0  0  0  0  0  0  0  0  0  0  0
    0.6995    0.1697    0.4993 C   0  0  0  0  0  0  0  0  0  0  0  0
    1.7356   -0.2501   -0.4761 C   0  0  0  0  0  0  0  0  0  0  0  0
    1.5370   -1.6180   -0.7527 O   0  0  0  0  0  0  0  0  0  0  0  0
   -2.3425   -1.0848    0.9403 H   0  0  0  0  0  0  0  0  0  0  0  0
   -0.7383   -1.8196    1.2161 H   0  0  0  0  0  0  0  0  0  0  0  0
   -1.4901   -1.9439   -0.4307 H   0  0  0  0  0  0  0  0  0  0  0  0
   -1.5672    0.5785   -1.7059 H   0  0  0  0  0  0  0  0  0  0  0  0
    0.8234    2.2770    1.2031 H   0  0  0  0  0  0  0  0  0  0  0  0
    0.3809    2.0782   -0.5712 H   0  0  0  0  0  0  0  0  0  0  0  0
    0.7831   -0.1826    1.5289 H   0  0  0  0  0  0  0  0  0  0  0  0
    1.6509    0.3724   -1.3827 H   0  0  0  0  0  0  0  0  0  0  0  0
    2.7259   -0.1831    0.0058 H   0  0  0  0  0  0  0  0  0  0  0  0
    1.3357   -1.7168   -1.7210 H   0  0  0  0  0  0  0  0  0  0  0  0
  1  2  1  0
  2  3  1  0
  2  4  1  0
  4  5  2  0
  4  6  1  0
  6  7  1  0
  7  8  1  0
  8  9  1  0
  7  2  1  0
  1 10  1  0
  1 11  1  0
  1 12  1  0
  3 13  1  0
  6 14  1  0
  6 15  1  0
  7 16  1  0
  8 17  1  0
  8 18  1  0
  9 19  1  0
M  END
