
     RDKit          3D

 17 18  0  0  0  0  0  0  0  0999 V2000
    1.7619   -0.0123   -0.6578 C   0  0  0  0  0  0  0  0  0  0  0  0
    0.6992    0.0514    0.3854 C   0  0  0  0  0  0  0  0  0  0  0  0
    1.1242    0.1756    1.7027 O   0  0  0  0  0  0  0  0  0  0  0  0
   -0.4558   -0.8873    0.2484 C   0  0  0  0  0  0  0  0  0  0  0  0
   -1.2011    0.0837    1.0877 C   0  0  0  0  0  0  0  0  0  0  0  0
   -1.9624    0.1263    2.0262 O   0  0  0  0  0  0  0  0  0  0  0  0
   -0.4744    0.9417    0.1148 C   0  0  0  0  0  0  0  0  0  0  0  0
   -0.9005   -0.0536   -0.9177 C   0  0  0  0  0  0  0  0  0  0  0  0
   -2.2611   -0.1774   -1.1349 O   0  0  0  0  0  0  0  0  0  0  0  0
    1.5610    0.6585   -1.5281 H   0  0  0  0  0  0  0  0  0  0  0  0
    2.7176    0.3439   -0.1707 H   0  0  0  0  0  0  0  0  0  0  0  0
    1.9454   -1.0453   -0.9948 H   0  0  0  0  0  0  0  0  0  0  0  0
    1.4716   -0.7207    1.9843 H   0  0  0  0  0  0  0  0  0  0  0  0
   -0.4628   -1.8835    0.3295 H   0  0  0  0  0  0  0  0  0  0  0  0
   -0.4960    1.9393    0.0640 H   0  0  0  0  0  0  0  0  0  0  0  0
   -0.3021   -0.1151   -1.8346 H   0  0  0  0  0  0  0  0  0  0  0  0
   -2.7647    0.5749   -0.7042 H   0  0  0  0  0  0  0  0  0  0  0  0
  1  2  1  0
  2  3  1  0
  2  4  1  0
  4  5  1  0
  5  6  2  0
  5  7  1  0
  7  8  1  0
  8  9  1  0
  7  2  1  0
  8  4  1  0
  1 10  1  0
  1 11  1  0
  1 12  1  0
  3 13  1  0
  4 14  1  0
  7 15  1  0
  8 16  1  0
  9 17  1  0
M  END
