
     RDKit          3D

 19 20  0  0  0  0  0  0  0  0999 V2000
   -1.4670   -1.1153   -0.4761 C   0  0  0  0  0  0  0  0  0  0  0  0
   -0.4395   -0.3845    0.3395 C   0  0  0  0  0  0  0  0  0  0  0  0
   -0.0252   -1.1283    1.4452 O   0  0  0  0  0  0  0  0  0  0  0  0
   -1.0865    0.9104    0.8244 C   0  0  0  0  0  0  0  0  0  0  0  0
    0.0010    1.8091    0.8456 O   0  0  0  0  0  0  0  0  0  0  0  0
    0.5985    1.5930   -0.4191 C   0  0  0  0  0  0  0  0  0  0  0  0
    0.7204    0.1206   -0.4472 C   0  0  0  0  0  0  0  0  0  0  0  0
    2.0902   -0.4854   -0.2841 C   0  0  0  0  0  0  0  0  0  0  0  0
    1.3221   -0.5893   -1.4322 O   0  0  0  0  0  0  0  0  0  0  0  0
   -2.3032   -1.3813    0.2079 H   0  0  0  0  0  0  0  0  0  0  0  0
   -1.8877   -0.4217   -1.2231 H   0  0  0  0  0  0  0  0  0  0  0  0
   -1.0862   -2.0206   -0.9729 H   0  0  0  0  0  0  0  0  0  0  0  0
    0.2871   -2.0136    1.1459 H   0  0  0  0  0  0  0  0  0  0  0  0
   -1.7993    1.3079    0.0582 H   0  0  0  0  0  0  0  0  0  0  0  0
   -1.5542    0.8159    1.8010 H   0  0  0  0  0  0  0  0  0  0  0  0
    1.5981    2.0930   -0.3905 H   0  0  0  0  0  0  0  0  0  0  0  0
   -0.0223    2.0238   -1.2304 H   0  0  0  0  0  0  0  0  0  0  0  0
    2.9538    0.1986   -0.2415 H   0  0  0  0  0  0  0  0  0  0  0  0
    2.0998   -1.3322    0.4495 H   0  0  0  0  0  0  0  0  0  0  0  0
  1  2  1  0
  2  3  1  0
  2  4  1  0
  4  5  1  0
  5  6  1  0
  6  7  1  0
  7  8  1  0
  8  9  1  0
  7  2  1  0
  9  7  1  0
  1 10  1  0
  1 11  1  0
  1 12  1  0
  3 13  1  0
  4 14  1  0
  4 15  1  0
  6 16  1  0
  6 17  1  0
  8 18  1  0
  8 19  1  0
M  END
