
     RDKit          3D

 15 15  0  0  0  0  0  0  0  0999 V2000
   -0.7565    1.3453   -0.3261 C   0  0  0  0  0  0  0  0  0  0  0  0
   -0.5149   -0.1116   -0.0159 C   0  0  0  0  0  0  0  0  0  0  0  0
   -1.6721   -0.8331   -0.0225 O   0  0  0  0  0  0  0  0  0  0  0  0
    0.1417   -0.2869    1.3482 C   0  0  0  0  0  0  0  0  0  0  0  0
    1.4848    0.0690    1.0571 O   0  0  0  0  0  0  0  0  0  0  0  0
    1.8060   -0.3277   -0.2328 C   0  0  0  0  0  0  0  0  0  0  0  0
    2.9829   -0.3585   -0.6722 O   0  0  0  0  0  0  0  0  0  0  0  0
    0.5494   -0.6687   -0.8904 C   0  0  0  0  0  0  0  0  0  0  0  0
    0.4789   -1.2974   -1.9589 O   0  0  0  0  0  0  0  0  0  0  0  0
    0.1740    1.9246   -0.2832 H   0  0  0  0  0  0  0  0  0  0  0  0
   -1.5363    1.7010    0.3825 H   0  0  0  0  0  0  0  0  0  0  0  0
   -1.1879    1.3958   -1.3402 H   0  0  0  0  0  0  0  0  0  0  0  0
   -1.7788   -1.4889   -0.7294 H   0  0  0  0  0  0  0  0  0  0  0  0
    0.1451   -1.3763    1.5583 H   0  0  0  0  0  0  0  0  0  0  0  0
   -0.3164    0.3134    2.1254 H   0  0  0  0  0  0  0  0  0  0  0  0
  1  2  1  0
  2  3  1  0
  2  4  1  0
  4  5  1  0
  5  6  1  0
  6  7  2  0
  6  8  1  0
  8  9  2  0
  8  2  1  0
  1 10  1  0
  1 11  1  0
  1 12  1  0
  3 13  1  0
  4 14  1  0
  4 15  1  0
M  END
