
     RDKit          3D

 21 21  0  0  0  0  0  0  0  0999 V2000
   -0.8016    1.6038    0.6663 C   0  0  0  0  0  0  0  0  0  0  0  0
   -0.3408    0.9682   -0.6342 C   0  0  0  0  0  0  0  0  0  0  0  0
   -0.4901    1.7672   -1.7424 O   0  0  0  0  0  0  0  0  0  0  0  0
   -0.5822   -0.5078   -0.6921 C   0  0  0  0  0  0  0  0  0  0  0  0
   -1.1715   -1.2429    0.4740 C   0  0  0  0  0  0  0  0  0  0  0  0
   -1.2663   -2.6038    0.0962 O   0  0  0  0  0  0  0  0  0  0  0  0
    0.7882   -0.0021   -0.6212 C   0  0  0  0  0  0  0  0  0  0  0  0
    1.6374    0.0189    0.6112 C   0  0  0  0  0  0  0  0  0  0  0  0
    2.6516   -0.9562    0.4594 O   0  0  0  0  0  0  0  0  0  0  0  0
   -0.7060    0.9200    1.5156 H   0  0  0  0  0  0  0  0  0  0  0  0
   -1.9071    1.7839    0.5405 H   0  0  0  0  0  0  0  0  0  0  0  0
   -0.2673    2.5535    0.7808 H   0  0  0  0  0  0  0  0  0  0  0  0
   -0.3917    1.2894   -2.6004 H   0  0  0  0  0  0  0  0  0  0  0  0
   -0.9528   -0.9073   -1.6735 H   0  0  0  0  0  0  0  0  0  0  0  0
   -2.1875   -0.8439    0.7208 H   0  0  0  0  0  0  0  0  0  0  0  0
   -0.5714   -1.2483    1.3892 H   0  0  0  0  0  0  0  0  0  0  0  0
   -1.6280   -2.6583   -0.8056 H   0  0  0  0  0  0  0  0  0  0  0  0
    1.3677   -0.0684   -1.5916 H   0  0  0  0  0  0  0  0  0  0  0  0
    1.1155   -0.1712    1.5541 H   0  0  0  0  0  0  0  0  0  0  0  0
    2.2124    0.9825    0.6867 H   0  0  0  0  0  0  0  0  0  0  0  0
    3.4913   -0.6773    0.8661 H   0  0  0  0  0  0  0  0  0  0  0  0
  1  2  1  0
  2  3  1  0
  2  4  1  0
  4  5  1  0
  5  6  1  0
  4  7  1  0
  7  8  1  0
  8  9  1  0
  7  2  1  0
  1 10  1  0
  1 11  1  0
  1 12  1  0
  3 13  1  0
  4 14  1  0
  5 15  1  0
  5 16  1  0
  6 17  1  0
  7 18  1  0
  8 19  1  0
  8 20  1  0
  9 21  1  0
M  END
