
     RDKit          3D

 21 22  0  0  0  0  0  0  0  0999 V2000
   -2.4923    0.7418   -0.9330 C   0  0  0  0  0  0  0  0  0  0  0  0
   -1.3500    0.2704   -0.0036 C   0  0  0  0  0  0  0  0  0  0  0  0
    0.0174    0.6433   -0.4413 C   0  0  0  0  0  0  0  0  0  0  0  0
    1.1614    0.2113    0.3795 C   0  0  0  0  0  0  0  0  0  0  0  0
    1.5529   -1.1602    0.6620 C   0  0  0  0  0  0  0  0  0  0  0  0
    2.3489   -0.3626   -0.3796 C   0  0  0  0  0  0  0  0  0  0  0  0
    3.6114    0.1196    0.0037 O   0  0  0  0  0  0  0  0  0  0  0  0
   -1.7056   -0.8386    0.9029 C   0  0  0  0  0  0  0  0  0  0  0  0
   -1.6926    0.4819    1.3496 O   0  0  0  0  0  0  0  0  0  0  0  0
   -2.0681    0.9169   -1.9607 H   0  0  0  0  0  0  0  0  0  0  0  0
   -3.2806   -0.0132   -1.0028 H   0  0  0  0  0  0  0  0  0  0  0  0
   -2.8798    1.6853   -0.4976 H   0  0  0  0  0  0  0  0  0  0  0  0
    0.1931    0.3753   -1.5197 H   0  0  0  0  0  0  0  0  0  0  0  0
    0.0298    1.7806   -0.4849 H   0  0  0  0  0  0  0  0  0  0  0  0
    1.4338    0.9818    1.1828 H   0  0  0  0  0  0  0  0  0  0  0  0
    0.9656   -2.0004    0.3064 H   0  0  0  0  0  0  0  0  0  0  0  0
    2.1409   -1.3535    1.5893 H   0  0  0  0  0  0  0  0  0  0  0  0
    2.2086   -0.7301   -1.3960 H   0  0  0  0  0  0  0  0  0  0  0  0
    3.5173    1.1070    0.0741 H   0  0  0  0  0  0  0  0  0  0  0  0
   -2.7187   -1.3318    0.7877 H   0  0  0  0  0  0  0  0  0  0  0  0
   -0.9934   -1.5248    1.3811 H   0  0  0  0  0  0  0  0  0  0  0  0
  1  2  1  0
  2  3  1  0
  3  4  1  0
  4  5  1  0
  5  6  1  0
  6  7  1  0
  2  8  1  0
  8  9  1  0
  9  2  1  0
  6  4  1  0
  1 10  1  0
  1 11  1  0
  1 12  1  0
  3 13  1  0
  3 14  1  0
  4 15  1  0
  5 16  1  0
  5 17  1  0
  6 18  1  0
  7 19  1  0
  8 20  1  0
  8 21  1  0
M  END
