
     RDKit          3D

 17 18  0  0  0  0  0  0  0  0999 V2000
   -1.2059   -1.0719   -0.0740 C   0  0  0  0  0  0  0  0  0  0  0  0
   -0.8287    0.3462    0.2964 C   0  0  0  0  0  0  0  0  0  0  0  0
    0.6578    0.5432    0.5172 C   0  0  0  0  0  0  0  0  0  0  0  0
    1.2768   -0.5327    1.1655 O   0  0  0  0  0  0  0  0  0  0  0  0
    2.1284   -0.7732    0.1010 C   0  0  0  0  0  0  0  0  0  0  0  0
    1.5072    0.3344   -0.6716 C   0  0  0  0  0  0  0  0  0  0  0  0
    1.5777    0.8865   -1.7491 O   0  0  0  0  0  0  0  0  0  0  0  0
   -1.7264    1.1163    1.0850 C   0  0  0  0  0  0  0  0  0  0  0  0
   -1.4380    1.4085   -0.3433 O   0  0  0  0  0  0  0  0  0  0  0  0
   -1.7261   -1.0929   -1.0482 H   0  0  0  0  0  0  0  0  0  0  0  0
   -0.3442   -1.7466   -0.1018 H   0  0  0  0  0  0  0  0  0  0  0  0
   -1.8905   -1.4769    0.7272 H   0  0  0  0  0  0  0  0  0  0  0  0
    0.9121    1.4754    1.0602 H   0  0  0  0  0  0  0  0  0  0  0  0
    3.1944   -0.5398    0.3820 H   0  0  0  0  0  0  0  0  0  0  0  0
    2.0398   -1.7681   -0.3795 H   0  0  0  0  0  0  0  0  0  0  0  0
   -1.3266    1.9161    1.7543 H   0  0  0  0  0  0  0  0  0  0  0  0
   -2.8080    0.9756    1.1891 H   0  0  0  0  0  0  0  0  0  0  0  0
  1  2  1  0
  2  3  1  0
  3  4  1  0
  4  5  1  0
  5  6  1  0
  6  7  2  0
  2  8  1  0
  8  9  1  0
  9  2  1  0
  6  3  1  0
  1 10  1  0
  1 11  1  0
  1 12  1  0
  3 13  1  0
  5 14  1  0
  5 15  1  0
  8 16  1  0
  8 17  1  0
M  END
