
     RDKit          3D

 23 23  0  0  0  0  0  0  0  0999 V2000
   -1.4815    0.4744    1.1839 C   0  0  0  0  0  0  0  0  0  0  0  0
   -0.8497   -0.0014   -0.1017 C   0  0  0  0  0  0  0  0  0  0  0  0
   -1.9679   -0.2247   -1.0950 C   0  0  0  0  0  0  0  0  0  0  0  0
   -0.1244   -1.3057    0.0673 C   0  0  0  0  0  0  0  0  0  0  0  0
    1.0919   -1.0842    0.9197 C   0  0  0  0  0  0  0  0  0  0  0  0
    2.1245   -0.3155    0.6071 C   0  0  0  0  0  0  0  0  0  0  0  0
    2.3433    0.5023   -0.6279 C   0  0  0  0  0  0  0  0  0  0  0  0
    1.1504    0.5880   -1.3208 O   0  0  0  0  0  0  0  0  0  0  0  0
    0.1185    1.0657   -0.5509 C   0  0  0  0  0  0  0  0  0  0  0  0
   -0.7288    0.8346    1.9156 H   0  0  0  0  0  0  0  0  0  0  0  0
   -2.1542   -0.3095    1.6177 H   0  0  0  0  0  0  0  0  0  0  0  0
   -2.0998    1.3615    0.9243 H   0  0  0  0  0  0  0  0  0  0  0  0
   -1.8621   -1.2038   -1.6138 H   0  0  0  0  0  0  0  0  0  0  0  0
   -2.9713   -0.2835   -0.5797 H   0  0  0  0  0  0  0  0  0  0  0  0
   -2.0276    0.5567   -1.8529 H   0  0  0  0  0  0  0  0  0  0  0  0
   -0.8068   -2.0377    0.4980 H   0  0  0  0  0  0  0  0  0  0  0  0
    0.2510   -1.5996   -0.9430 H   0  0  0  0  0  0  0  0  0  0  0  0
    1.0727   -1.6186    1.8535 H   0  0  0  0  0  0  0  0  0  0  0  0
    2.9183   -0.2838    1.3648 H   0  0  0  0  0  0  0  0  0  0  0  0
    3.0888   -0.0498   -1.2325 H   0  0  0  0  0  0  0  0  0  0  0  0
    2.7765    1.4875   -0.3629 H   0  0  0  0  0  0  0  0  0  0  0  0
    0.5587    1.5213    0.3748 H   0  0  0  0  0  0  0  0  0  0  0  0
   -0.4207    1.9256   -1.0456 H   0  0  0  0  0  0  0  0  0  0  0  0
  1  2  1  0
  2  3  1  0
  2  4  1  0
  4  5  1  0
  5  6  2  0
  6  7  1  0
  7  8  1  0
  8  9  1  0
  9  2  1  0
  1 10  1  0
  1 11  1  0
  1 12  1  0
  3 13  1  0
  3 14  1  0
  3 15  1  0
  4 16  1  0
  4 17  1  0
  5 18  1  0
  6 19  1  0
  7 20  1  0
  7 21  1  0
  9 22  1  0
  9 23  1  0
M  END
