
     RDKit          3D

 23 24  0  0  0  0  0  0  0  0999 V2000
   -0.4943   -1.2250    1.3800 C   0  0  0  0  0  0  0  0  0  0  0  0
   -0.4520   -0.2639    0.2117 C   0  0  0  0  0  0  0  0  0  0  0  0
   -0.9914   -0.9947   -0.9970 C   0  0  0  0  0  0  0  0  0  0  0  0
   -1.3669    0.9238    0.4787 C   0  0  0  0  0  0  0  0  0  0  0  0
   -0.4320    2.0833    0.1773 C   0  0  0  0  0  0  0  0  0  0  0  0
    0.8215    1.5914    0.5847 O   0  0  0  0  0  0  0  0  0  0  0  0
    0.8827    0.3524   -0.0075 C   0  0  0  0  0  0  0  0  0  0  0  0
    1.6223    0.1692   -1.2648 C   0  0  0  0  0  0  0  0  0  0  0  0
    2.0833   -0.4926    0.0014 C   0  0  0  0  0  0  0  0  0  0  0  0
   -0.9669   -0.7397    2.2704 H   0  0  0  0  0  0  0  0  0  0  0  0
   -1.0696   -2.1463    1.1329 H   0  0  0  0  0  0  0  0  0  0  0  0
    0.5093   -1.5456    1.7031 H   0  0  0  0  0  0  0  0  0  0  0  0
   -1.3166   -0.2889   -1.7858 H   0  0  0  0  0  0  0  0  0  0  0  0
   -1.9124   -1.5312   -0.6411 H   0  0  0  0  0  0  0  0  0  0  0  0
   -0.2805   -1.7569   -1.3419 H   0  0  0  0  0  0  0  0  0  0  0  0
   -1.6410    0.9806    1.5453 H   0  0  0  0  0  0  0  0  0  0  0  0
   -2.2483    0.9021   -0.1723 H   0  0  0  0  0  0  0  0  0  0  0  0
   -0.7249    2.9616    0.7890 H   0  0  0  0  0  0  0  0  0  0  0  0
   -0.4654    2.2687   -0.9084 H   0  0  0  0  0  0  0  0  0  0  0  0
    1.1662   -0.4599   -2.0560 H   0  0  0  0  0  0  0  0  0  0  0  0
    2.3257    0.9207   -1.6650 H   0  0  0  0  0  0  0  0  0  0  0  0
    1.9977   -1.5929    0.0083 H   0  0  0  0  0  0  0  0  0  0  0  0
    2.9537   -0.1162    0.5571 H   0  0  0  0  0  0  0  0  0  0  0  0
  1  2  1  0
  2  3  1  0
  2  4  1  0
  4  5  1  0
  5  6  1  0
  6  7  1  0
  7  8  1  0
  8  9  1  0
  7  2  1  0
  9  7  1  0
  1 10  1  0
  1 11  1  0
  1 12  1  0
  3 13  1  0
  3 14  1  0
  3 15  1  0
  4 16  1  0
  4 17  1  0
  5 18  1  0
  5 19  1  0
  8 20  1  0
  8 21  1  0
  9 22  1  0
  9 23  1  0
M  END
