
     RDKit          3D

 18 19  0  0  0  0  0  0  0  0999 V2000
   -1.1465    1.3483   -0.2932 C   0  0  0  0  0  0  0  0  0  0  0  0
   -0.5383   -0.0011   -0.0616 C   0  0  0  0  0  0  0  0  0  0  0  0
   -1.4757   -1.1249   -0.0857 C   0  0  0  0  0  0  0  0  0  0  0  0
   -1.8570   -1.7169    0.8894 O   0  0  0  0  0  0  0  0  0  0  0  0
    0.5278    0.0031    0.9691 C   0  0  0  0  0  0  0  0  0  0  0  0
    1.3637    0.7674   -0.0445 C   0  0  0  0  0  0  0  0  0  0  0  0
    0.7092   -0.3099   -0.8507 C   0  0  0  0  0  0  0  0  0  0  0  0
    1.0642   -1.2331    0.2825 C   0  0  0  0  0  0  0  0  0  0  0  0
   -0.9652    1.7734   -1.2810 H   0  0  0  0  0  0  0  0  0  0  0  0
   -2.2615    1.2238   -0.1817 H   0  0  0  0  0  0  0  0  0  0  0  0
   -0.8647    2.0482    0.5371 H   0  0  0  0  0  0  0  0  0  0  0  0
   -1.8526   -1.4429   -1.0735 H   0  0  0  0  0  0  0  0  0  0  0  0
    0.4853    0.1762    1.9470 H   0  0  0  0  0  0  0  0  0  0  0  0
    2.4497    0.6900    0.1002 H   0  0  0  0  0  0  0  0  0  0  0  0
    0.9826    1.7845   -0.2871 H   0  0  0  0  0  0  0  0  0  0  0  0
    0.7785   -0.4873   -1.8292 H   0  0  0  0  0  0  0  0  0  0  0  0
    2.1294   -1.3554    0.5003 H   0  0  0  0  0  0  0  0  0  0  0  0
    0.4712   -2.1434    0.3829 H   0  0  0  0  0  0  0  0  0  0  0  0
  1  2  1  0
  2  3  1  0
  3  4  2  0
  2  5  1  0
  5  6  1  0
  6  7  1  0
  7  8  1  0
  7  2  1  0
  8  5  1  0
  1  9  1  0
  1 10  1  0
  1 11  1  0
  3 12  1  0
  5 13  1  0
  6 14  1  0
  6 15  1  0
  7 16  1  0
  8 17  1  0
  8 18  1  0
M  END
