
     RDKit          3D

 19 20  0  0  0  0  0  0  0  0999 V2000
   -1.1022    1.4820    0.4325 C   0  0  0  0  0  0  0  0  0  0  0  0
   -0.6453    0.1947   -0.1989 C   0  0  0  0  0  0  0  0  0  0  0  0
   -1.6683   -0.8960   -0.0760 C   0  0  0  0  0  0  0  0  0  0  0  0
   -0.2522    0.3219   -1.5441 O   0  0  0  0  0  0  0  0  0  0  0  0
    1.0285   -0.1126   -1.3055 C   0  0  0  0  0  0  0  0  0  0  0  0
    1.8548    0.7286   -0.4064 C   0  0  0  0  0  0  0  0  0  0  0  0
    0.7606   -0.1520    0.1500 C   0  0  0  0  0  0  0  0  0  0  0  0
    1.1099   -1.2831    0.9954 C   0  0  0  0  0  0  0  0  0  0  0  0
    1.2809   -2.3852    0.5258 O   0  0  0  0  0  0  0  0  0  0  0  0
   -2.0762    1.3141    0.9792 H   0  0  0  0  0  0  0  0  0  0  0  0
   -1.1894    2.3183   -0.2942 H   0  0  0  0  0  0  0  0  0  0  0  0
   -0.3836    1.7981    1.2262 H   0  0  0  0  0  0  0  0  0  0  0  0
   -2.6740   -0.4068   -0.2092 H   0  0  0  0  0  0  0  0  0  0  0  0
   -1.6290   -1.3294    0.9397 H   0  0  0  0  0  0  0  0  0  0  0  0
   -1.5943   -1.6526   -0.8797 H   0  0  0  0  0  0  0  0  0  0  0  0
    1.4405   -1.0022   -1.8083 H   0  0  0  0  0  0  0  0  0  0  0  0
    1.6489    1.8195   -0.4611 H   0  0  0  0  0  0  0  0  0  0  0  0
    2.8682    0.3986   -0.1239 H   0  0  0  0  0  0  0  0  0  0  0  0
    1.2222   -1.1559    2.0586 H   0  0  0  0  0  0  0  0  0  0  0  0
  1  2  1  0
  2  3  1  0
  2  4  1  0
  4  5  1  0
  5  6  1  0
  6  7  1  0
  7  8  1  0
  8  9  2  0
  7  2  1  0
  7  5  1  0
  1 10  1  0
  1 11  1  0
  1 12  1  0
  3 13  1  0
  3 14  1  0
  3 15  1  0
  5 16  1  0
  6 17  1  0
  6 18  1  0
  8 19  1  0
M  END
