
     RDKit          3D

 18 18  0  0  0  0  0  0  0  0999 V2000
   -0.9567    1.3199   -0.3911 C   0  0  0  0  0  0  0  0  0  0  0  0
   -0.4253   -0.0528    0.0028 C   0  0  0  0  0  0  0  0  0  0  0  0
   -1.5056   -1.1177    0.0539 C   0  0  0  0  0  0  0  0  0  0  0  0
    0.6539   -0.0991    1.0132 C   0  0  0  0  0  0  0  0  0  0  0  0
    0.7737   -1.1293    1.9179 O   0  0  0  0  0  0  0  0  0  0  0  0
    0.9022   -0.4863   -0.4821 C   0  0  0  0  0  0  0  0  0  0  0  0
    1.8012    0.4403   -1.2151 C   0  0  0  0  0  0  0  0  0  0  0  0
    1.7309    1.6492   -1.1036 O   0  0  0  0  0  0  0  0  0  0  0  0
   -2.0644    1.3481   -0.3939 H   0  0  0  0  0  0  0  0  0  0  0  0
   -0.6283    1.5462   -1.4206 H   0  0  0  0  0  0  0  0  0  0  0  0
   -0.6122    2.1110    0.3001 H   0  0  0  0  0  0  0  0  0  0  0  0
   -1.9474   -1.1695    1.0623 H   0  0  0  0  0  0  0  0  0  0  0  0
   -2.3435   -0.8455   -0.6403 H   0  0  0  0  0  0  0  0  0  0  0  0
   -1.1303   -2.0931   -0.3063 H   0  0  0  0  0  0  0  0  0  0  0  0
    1.0786    0.8749    1.3292 H   0  0  0  0  0  0  0  0  0  0  0  0
    1.0634   -0.7871    2.8114 H   0  0  0  0  0  0  0  0  0  0  0  0
    1.0481   -1.5718   -0.6535 H   0  0  0  0  0  0  0  0  0  0  0  0
    2.5617    0.0628   -1.8844 H   0  0  0  0  0  0  0  0  0  0  0  0
  1  2  1  0
  2  3  1  0
  2  4  1  0
  4  5  1  0
  4  6  1  0
  6  7  1  0
  7  8  2  0
  6  2  1  0
  1  9  1  0
  1 10  1  0
  1 11  1  0
  3 12  1  0
  3 13  1  0
  3 14  1  0
  4 15  1  0
  5 16  1  0
  6 17  1  0
  7 18  1  0
M  END
