
     RDKit          3D

 23 24  0  0  0  0  0  0  0  0999 V2000
   -1.1579   -0.1192    1.5469 C   0  0  0  0  0  0  0  0  0  0  0  0
   -0.7548   -0.0616    0.0870 C   0  0  0  0  0  0  0  0  0  0  0  0
   -2.0580   -0.1476   -0.7222 C   0  0  0  0  0  0  0  0  0  0  0  0
   -0.0690    1.2152   -0.2396 C   0  0  0  0  0  0  0  0  0  0  0  0
    1.4019    1.2485   -0.0557 C   0  0  0  0  0  0  0  0  0  0  0  0
    2.1230   -0.0304   -0.0516 C   0  0  0  0  0  0  0  0  0  0  0  0
    1.3463   -1.2365   -0.4764 C   0  0  0  0  0  0  0  0  0  0  0  0
    0.5489   -1.1989   -1.6144 O   0  0  0  0  0  0  0  0  0  0  0  0
    0.0100   -1.2947   -0.2293 C   0  0  0  0  0  0  0  0  0  0  0  0
   -2.1008    0.4901    1.6622 H   0  0  0  0  0  0  0  0  0  0  0  0
   -1.4051   -1.1553    1.8640 H   0  0  0  0  0  0  0  0  0  0  0  0
   -0.4055    0.3637    2.2099 H   0  0  0  0  0  0  0  0  0  0  0  0
   -2.7529    0.6647   -0.4428 H   0  0  0  0  0  0  0  0  0  0  0  0
   -2.4982   -1.1356   -0.5107 H   0  0  0  0  0  0  0  0  0  0  0  0
   -1.8246   -0.1274   -1.8200 H   0  0  0  0  0  0  0  0  0  0  0  0
   -0.5325    2.0088    0.3860 H   0  0  0  0  0  0  0  0  0  0  0  0
   -0.3456    1.4952   -1.2953 H   0  0  0  0  0  0  0  0  0  0  0  0
    1.6511    1.7951    0.9038 H   0  0  0  0  0  0  0  0  0  0  0  0
    1.8333    1.9091   -0.8496 H   0  0  0  0  0  0  0  0  0  0  0  0
    3.0349    0.0060   -0.7211 H   0  0  0  0  0  0  0  0  0  0  0  0
    2.5579   -0.2845    0.9598 H   0  0  0  0  0  0  0  0  0  0  0  0
    1.9768   -2.1705   -0.4412 H   0  0  0  0  0  0  0  0  0  0  0  0
   -0.5792   -2.2340   -0.1497 H   0  0  0  0  0  0  0  0  0  0  0  0
  1  2  1  0
  2  3  1  0
  2  4  1  0
  4  5  1  0
  5  6  1  0
  6  7  1  0
  7  8  1  0
  8  9  1  0
  9  2  1  0
  9  7  1  0
  1 10  1  0
  1 11  1  0
  1 12  1  0
  3 13  1  0
  3 14  1  0
  3 15  1  0
  4 16  1  0
  4 17  1  0
  5 18  1  0
  5 19  1  0
  6 20  1  0
  6 21  1  0
  7 22  1  0
  9 23  1  0
M  END
