
     RDKit          3D

 19 20  0  0  0  0  0  0  0  0999 V2000
   -2.3049   -0.5346   -0.2917 C   0  0  0  0  0  0  0  0  0  0  0  0
   -1.1719    0.4726   -0.3390 C   0  0  0  0  0  0  0  0  0  0  0  0
   -1.6640    1.7538   -0.6870 O   0  0  0  0  0  0  0  0  0  0  0  0
   -0.1573    0.4023    0.6298 C   0  0  0  0  0  0  0  0  0  0  0  0
    0.6408   -0.6911    1.2023 C   0  0  0  0  0  0  0  0  0  0  0  0
    1.8634   -0.7271    0.6773 C   0  0  0  0  0  0  0  0  0  0  0  0
    2.2378    0.2697   -0.3441 C   0  0  0  0  0  0  0  0  0  0  0  0
    1.2200    0.7284   -1.1664 O   0  0  0  0  0  0  0  0  0  0  0  0
    0.0729    0.0902   -0.8972 C   0  0  0  0  0  0  0  0  0  0  0  0
   -1.9501   -1.5557   -0.5792 H   0  0  0  0  0  0  0  0  0  0  0  0
   -3.1705   -0.2331   -0.9122 H   0  0  0  0  0  0  0  0  0  0  0  0
   -2.6740   -0.6063    0.7637 H   0  0  0  0  0  0  0  0  0  0  0  0
   -2.1000    2.1546    0.1106 H   0  0  0  0  0  0  0  0  0  0  0  0
    0.2774    1.3832    0.9932 H   0  0  0  0  0  0  0  0  0  0  0  0
    0.3428   -1.3949    1.9400 H   0  0  0  0  0  0  0  0  0  0  0  0
    2.6070   -1.4624    0.9681 H   0  0  0  0  0  0  0  0  0  0  0  0
    3.0039   -0.1972   -1.0141 H   0  0  0  0  0  0  0  0  0  0  0  0
    2.7776    1.1450    0.1322 H   0  0  0  0  0  0  0  0  0  0  0  0
    0.1489   -0.9972   -1.1862 H   0  0  0  0  0  0  0  0  0  0  0  0
  1  2  1  0
  2  3  1  0
  2  4  1  0
  4  5  1  0
  5  6  2  0
  6  7  1  0
  7  8  1  0
  8  9  1  0
  9  2  1  0
  9  4  1  0
  1 10  1  0
  1 11  1  0
  1 12  1  0
  3 13  1  0
  4 14  1  0
  5 15  1  0
  6 16  1  0
  7 17  1  0
  7 18  1  0
  9 19  1  0
M  END
