
     RDKit          3D

 19 19  0  0  0  0  0  0  0  0999 V2000
   -1.9737    0.6384   -0.9295 C   0  0  0  0  0  0  0  0  0  0  0  0
   -1.3608   -0.2657    0.0817 C   0  0  0  0  0  0  0  0  0  0  0  0
   -2.1081   -1.4276    0.3365 O   0  0  0  0  0  0  0  0  0  0  0  0
   -0.8531    0.4654    1.3298 C   0  0  0  0  0  0  0  0  0  0  0  0
    0.0767   -0.2670    0.3973 C   0  0  0  0  0  0  0  0  0  0  0  0
    1.0664    0.5170   -0.3500 C   0  0  0  0  0  0  0  0  0  0  0  0
    0.8253    1.5807   -0.8942 O   0  0  0  0  0  0  0  0  0  0  0  0
    2.4569    0.0090   -0.4682 C   0  0  0  0  0  0  0  0  0  0  0  0
    2.5948   -1.1978    0.1897 O   0  0  0  0  0  0  0  0  0  0  0  0
   -2.4759    1.4855   -0.3768 H   0  0  0  0  0  0  0  0  0  0  0  0
   -2.8166    0.1399   -1.4794 H   0  0  0  0  0  0  0  0  0  0  0  0
   -1.2945    1.0172   -1.6990 H   0  0  0  0  0  0  0  0  0  0  0  0
   -1.7535   -1.8214    1.1958 H   0  0  0  0  0  0  0  0  0  0  0  0
   -1.1259    0.0151    2.3090 H   0  0  0  0  0  0  0  0  0  0  0  0
   -0.7621    1.5596    1.3006 H   0  0  0  0  0  0  0  0  0  0  0  0
    0.4527   -1.2182    0.8369 H   0  0  0  0  0  0  0  0  0  0  0  0
    3.1366    0.7366    0.0631 H   0  0  0  0  0  0  0  0  0  0  0  0
    2.7757   -0.1069   -1.5232 H   0  0  0  0  0  0  0  0  0  0  0  0
    3.1391   -1.8598   -0.3203 H   0  0  0  0  0  0  0  0  0  0  0  0
  1  2  1  0
  2  3  1  0
  2  4  1  0
  4  5  1  0
  5  6  1  0
  6  7  2  0
  6  8  1  0
  8  9  1  0
  5  2  1  0
  1 10  1  0
  1 11  1  0
  1 12  1  0
  3 13  1  0
  4 14  1  0
  4 15  1  0
  5 16  1  0
  8 17  1  0
  8 18  1  0
  9 19  1  0
M  END
