
     RDKit          3D

 23 23  0  0  0  0  0  0  0  0999 V2000
   -1.1776   -1.2934    0.6153 C   0  0  0  0  0  0  0  0  0  0  0  0
   -0.6285   -0.0758   -0.1148 C   0  0  0  0  0  0  0  0  0  0  0  0
   -1.8003    0.7563   -0.5556 C   0  0  0  0  0  0  0  0  0  0  0  0
    0.2689   -0.5062   -1.2261 C   0  0  0  0  0  0  0  0  0  0  0  0
    1.4852   -1.0178   -0.5016 C   0  0  0  0  0  0  0  0  0  0  0  0
    1.5840   -0.1613    0.7378 C   0  0  0  0  0  0  0  0  0  0  0  0
    0.3037    0.6417    0.8185 C   0  0  0  0  0  0  0  0  0  0  0  0
    0.6259    2.0231    0.3792 C   0  0  0  0  0  0  0  0  0  0  0  0
    0.6581    2.3966   -0.7782 O   0  0  0  0  0  0  0  0  0  0  0  0
   -1.8771   -1.8022   -0.0780 H   0  0  0  0  0  0  0  0  0  0  0  0
   -0.3780   -1.9794    0.9253 H   0  0  0  0  0  0  0  0  0  0  0  0
   -1.7131   -0.9207    1.5210 H   0  0  0  0  0  0  0  0  0  0  0  0
   -2.6104    0.6147    0.2183 H   0  0  0  0  0  0  0  0  0  0  0  0
   -1.6020    1.8229   -0.6360 H   0  0  0  0  0  0  0  0  0  0  0  0
   -2.1982    0.3638   -1.5100 H   0  0  0  0  0  0  0  0  0  0  0  0
    0.5782    0.3265   -1.8593 H   0  0  0  0  0  0  0  0  0  0  0  0
   -0.1844   -1.2717   -1.8894 H   0  0  0  0  0  0  0  0  0  0  0  0
    2.4071   -0.9730   -1.1147 H   0  0  0  0  0  0  0  0  0  0  0  0
    1.3669   -2.0839   -0.1896 H   0  0  0  0  0  0  0  0  0  0  0  0
    2.4785    0.5002    0.6285 H   0  0  0  0  0  0  0  0  0  0  0  0
    1.6916   -0.7869    1.6431 H   0  0  0  0  0  0  0  0  0  0  0  0
   -0.1280    0.6717    1.8219 H   0  0  0  0  0  0  0  0  0  0  0  0
    0.8493    2.7547    1.1444 H   0  0  0  0  0  0  0  0  0  0  0  0
  1  2  1  0
  2  3  1  0
  2  4  1  0
  4  5  1  0
  5  6  1  0
  6  7  1  0
  7  8  1  0
  8  9  2  0
  7  2  1  0
  1 10  1  0
  1 11  1  0
  1 12  1  0
  3 13  1  0
  3 14  1  0
  3 15  1  0
  4 16  1  0
  4 17  1  0
  5 18  1  0
  5 19  1  0
  6 20  1  0
  6 21  1  0
  7 22  1  0
  8 23  1  0
M  END
