
     RDKit          3D

 19 19  0  0  0  0  0  0  0  0999 V2000
   -0.5906    1.3922    0.2030 C   0  0  0  0  0  0  0  0  0  0  0  0
   -0.2315   -0.0545    0.1793 C   0  0  0  0  0  0  0  0  0  0  0  0
   -1.2615   -0.9486    0.8022 C   0  0  0  0  0  0  0  0  0  0  0  0
   -2.4483   -0.7912    0.1015 O   0  0  0  0  0  0  0  0  0  0  0  0
    0.1357   -0.5106   -1.2322 C   0  0  0  0  0  0  0  0  0  0  0  0
    1.3058    0.2063   -1.4471 O   0  0  0  0  0  0  0  0  0  0  0  0
    2.0444    0.1852   -0.2951 C   0  0  0  0  0  0  0  0  0  0  0  0
    1.1111   -0.2027    0.8155 C   0  0  0  0  0  0  0  0  0  0  0  0
    1.4054   -0.5419    1.9256 O   0  0  0  0  0  0  0  0  0  0  0  0
   -1.6408    1.5950   -0.0706 H   0  0  0  0  0  0  0  0  0  0  0  0
   -0.4054    1.8207    1.2094 H   0  0  0  0  0  0  0  0  0  0  0  0
    0.0400    1.9141   -0.5647 H   0  0  0  0  0  0  0  0  0  0  0  0
   -0.8998   -1.9820    0.7797 H   0  0  0  0  0  0  0  0  0  0  0  0
   -1.3898   -0.6479    1.8468 H   0  0  0  0  0  0  0  0  0  0  0  0
   -2.2988   -0.3419   -0.7476 H   0  0  0  0  0  0  0  0  0  0  0  0
   -0.6255   -0.2607   -1.9675 H   0  0  0  0  0  0  0  0  0  0  0  0
    0.4022   -1.5824   -1.1989 H   0  0  0  0  0  0  0  0  0  0  0  0
    2.4141    1.2086   -0.0048 H   0  0  0  0  0  0  0  0  0  0  0  0
    2.9335   -0.4576   -0.3343 H   0  0  0  0  0  0  0  0  0  0  0  0
  1  2  1  0
  2  3  1  0
  3  4  1  0
  2  5  1  0
  5  6  1  0
  6  7  1  0
  7  8  1  0
  8  9  2  0
  8  2  1  0
  1 10  1  0
  1 11  1  0
  1 12  1  0
  3 13  1  0
  3 14  1  0
  4 15  1  0
  5 16  1  0
  5 17  1  0
  7 18  1  0
  7 19  1  0
M  END
