
     RDKit          3D

 21 22  0  0  0  0  0  0  0  0999 V2000
   -0.9061    0.9808   -1.1794 C   0  0  0  0  0  0  0  0  0  0  0  0
   -0.5548    0.0094   -0.1105 C   0  0  0  0  0  0  0  0  0  0  0  0
    0.8989   -0.1253    0.2300 C   0  0  0  0  0  0  0  0  0  0  0  0
    1.8874   -0.5608   -0.8221 C   0  0  0  0  0  0  0  0  0  0  0  0
    1.4102    0.8425    1.2411 C   0  0  0  0  0  0  0  0  0  0  0  0
    1.2361   -0.5834    1.5275 O   0  0  0  0  0  0  0  0  0  0  0  0
   -1.4318    0.0992    1.1097 C   0  0  0  0  0  0  0  0  0  0  0  0
   -2.4105   -0.6070    0.3745 O   0  0  0  0  0  0  0  0  0  0  0  0
   -1.3275   -1.2698   -0.2503 C   0  0  0  0  0  0  0  0  0  0  0  0
   -0.1685    1.8173   -1.1527 H   0  0  0  0  0  0  0  0  0  0  0  0
   -1.9242    1.4184   -1.0576 H   0  0  0  0  0  0  0  0  0  0  0  0
   -0.8817    0.4693   -2.1825 H   0  0  0  0  0  0  0  0  0  0  0  0
    2.9093   -0.3436   -0.4873 H   0  0  0  0  0  0  0  0  0  0  0  0
    1.7628   -1.6685   -0.9326 H   0  0  0  0  0  0  0  0  0  0  0  0
    1.6047   -0.0280   -1.7633 H   0  0  0  0  0  0  0  0  0  0  0  0
    0.7182    1.4982    1.7940 H   0  0  0  0  0  0  0  0  0  0  0  0
    2.4774    1.1528    1.2504 H   0  0  0  0  0  0  0  0  0  0  0  0
   -1.7119    1.1116    1.3961 H   0  0  0  0  0  0  0  0  0  0  0  0
   -1.0355   -0.5567    1.9071 H   0  0  0  0  0  0  0  0  0  0  0  0
   -1.5320   -1.5541   -1.3076 H   0  0  0  0  0  0  0  0  0  0  0  0
   -1.0205   -2.1021    0.4155 H   0  0  0  0  0  0  0  0  0  0  0  0
  1  2  1  0
  2  3  1  0
  3  4  1  0
  3  5  1  0
  5  6  1  0
  2  7  1  0
  7  8  1  0
  8  9  1  0
  9  2  1  0
  6  3  1  0
  1 10  1  0
  1 11  1  0
  1 12  1  0
  4 13  1  0
  4 14  1  0
  4 15  1  0
  5 16  1  0
  5 17  1  0
  7 18  1  0
  7 19  1  0
  9 20  1  0
  9 21  1  0
M  END
