
     RDKit          3D

 21 22  0  0  0  0  0  0  0  0999 V2000
    1.8073    0.7184    0.4034 C   0  0  0  0  0  0  0  0  0  0  0  0
    0.6654   -0.1248   -0.0343 C   0  0  0  0  0  0  0  0  0  0  0  0
    0.8408   -0.6557   -1.3215 O   0  0  0  0  0  0  0  0  0  0  0  0
    0.4239   -1.3262    0.8769 C   0  0  0  0  0  0  0  0  0  0  0  0
   -0.9419   -1.7447    0.3071 C   0  0  0  0  0  0  0  0  0  0  0  0
   -1.6457   -0.3875    0.3403 C   0  0  0  0  0  0  0  0  0  0  0  0
   -1.2909    0.4044    1.4404 O   0  0  0  0  0  0  0  0  0  0  0  0
   -0.6817    0.5798    0.0843 C   0  0  0  0  0  0  0  0  0  0  0  0
   -0.8290    1.9801   -0.3875 C   0  0  0  0  0  0  0  0  0  0  0  0
    2.5962    0.1485    0.9482 H   0  0  0  0  0  0  0  0  0  0  0  0
    2.3212    1.0855   -0.5337 H   0  0  0  0  0  0  0  0  0  0  0  0
    1.4998    1.6371    0.9679 H   0  0  0  0  0  0  0  0  0  0  0  0
    1.4401   -1.4535   -1.2415 H   0  0  0  0  0  0  0  0  0  0  0  0
    1.1638   -2.1125    0.7532 H   0  0  0  0  0  0  0  0  0  0  0  0
    0.2237   -1.0231    1.9180 H   0  0  0  0  0  0  0  0  0  0  0  0
   -1.4335   -2.4960    0.9136 H   0  0  0  0  0  0  0  0  0  0  0  0
   -0.7729   -2.0182   -0.7435 H   0  0  0  0  0  0  0  0  0  0  0  0
   -2.7235   -0.3532    0.1233 H   0  0  0  0  0  0  0  0  0  0  0  0
   -1.1414    2.6898    0.4228 H   0  0  0  0  0  0  0  0  0  0  0  0
    0.1121    2.4195   -0.8065 H   0  0  0  0  0  0  0  0  0  0  0  0
   -1.6341    2.0324   -1.1569 H   0  0  0  0  0  0  0  0  0  0  0  0
  1  2  1  0
  2  3  1  0
  2  4  1  0
  4  5  1  0
  5  6  1  0
  6  7  1  0
  7  8  1  0
  8  9  1  0
  8  2  1  0
  8  6  1  0
  1 10  1  0
  1 11  1  0
  1 12  1  0
  3 13  1  0
  4 14  1  0
  4 15  1  0
  5 16  1  0
  5 17  1  0
  6 18  1  0
  9 19  1  0
  9 20  1  0
  9 21  1  0
M  END
