
     RDKit          3D

 21 22  0  0  0  0  0  0  0  0999 V2000
   -2.0093   -0.5313   -0.7318 C   0  0  0  0  0  0  0  0  0  0  0  0
   -0.7844   -0.1260    0.0630 C   0  0  0  0  0  0  0  0  0  0  0  0
   -0.4269   -1.1837    1.0484 C   0  0  0  0  0  0  0  0  0  0  0  0
   -0.9910    1.1522    0.6305 O   0  0  0  0  0  0  0  0  0  0  0  0
   -0.5793    1.6743   -0.5941 C   0  0  0  0  0  0  0  0  0  0  0  0
    0.3273    0.4626   -0.7156 C   0  0  0  0  0  0  0  0  0  0  0  0
    1.5925    0.6433    0.0434 C   0  0  0  0  0  0  0  0  0  0  0  0
    2.3879   -0.4280    0.6117 C   0  0  0  0  0  0  0  0  0  0  0  0
    2.8087    0.2930   -0.5444 O   0  0  0  0  0  0  0  0  0  0  0  0
   -2.6040   -1.2139   -0.0912 H   0  0  0  0  0  0  0  0  0  0  0  0
   -1.7289   -1.1297   -1.6330 H   0  0  0  0  0  0  0  0  0  0  0  0
   -2.6725    0.3057   -0.9807 H   0  0  0  0  0  0  0  0  0  0  0  0
    0.2996   -0.7864    1.7679 H   0  0  0  0  0  0  0  0  0  0  0  0
   -0.1194   -2.1308    0.5477 H   0  0  0  0  0  0  0  0  0  0  0  0
   -1.3588   -1.3952    1.6492 H   0  0  0  0  0  0  0  0  0  0  0  0
   -1.3468    1.7985   -1.3521 H   0  0  0  0  0  0  0  0  0  0  0  0
   -0.0059    2.6171   -0.4736 H   0  0  0  0  0  0  0  0  0  0  0  0
    0.4409    0.0969   -1.7663 H   0  0  0  0  0  0  0  0  0  0  0  0
    1.6443    1.6139    0.6072 H   0  0  0  0  0  0  0  0  0  0  0  0
    2.1313   -1.4723    0.3705 H   0  0  0  0  0  0  0  0  0  0  0  0
    2.9948   -0.2603    1.5432 H   0  0  0  0  0  0  0  0  0  0  0  0
  1  2  1  0
  2  3  1  0
  2  4  1  0
  4  5  1  0
  5  6  1  0
  6  7  1  0
  7  8  1  0
  8  9  1  0
  6  2  1  0
  9  7  1  0
  1 10  1  0
  1 11  1  0
  1 12  1  0
  3 13  1  0
  3 14  1  0
  3 15  1  0
  5 16  1  0
  5 17  1  0
  6 18  1  0
  7 19  1  0
  8 20  1  0
  8 21  1  0
M  END
