
     RDKit          3D

 23 24  0  0  0  0  0  0  0  0999 V2000
   -1.1617   -1.3474    0.8676 C   0  0  0  0  0  0  0  0  0  0  0  0
   -0.4842   -0.6459   -0.3120 C   0  0  0  0  0  0  0  0  0  0  0  0
   -0.3582   -1.5871   -1.3147 O   0  0  0  0  0  0  0  0  0  0  0  0
   -1.4110    0.4703   -0.7337 C   0  0  0  0  0  0  0  0  0  0  0  0
   -0.7812    1.7334   -0.2282 C   0  0  0  0  0  0  0  0  0  0  0  0
    0.3297    1.3017    0.7260 C   0  0  0  0  0  0  0  0  0  0  0  0
    0.7857    0.0141    0.0869 C   0  0  0  0  0  0  0  0  0  0  0  0
    1.9554   -0.7049    0.5873 C   0  0  0  0  0  0  0  0  0  0  0  0
    1.9958    0.0421   -0.7292 C   0  0  0  0  0  0  0  0  0  0  0  0
   -1.3704   -0.6376    1.6950 H   0  0  0  0  0  0  0  0  0  0  0  0
   -0.5847   -2.2370    1.1953 H   0  0  0  0  0  0  0  0  0  0  0  0
   -2.1686   -1.6549    0.4749 H   0  0  0  0  0  0  0  0  0  0  0  0
   -1.2705   -1.7904   -1.6626 H   0  0  0  0  0  0  0  0  0  0  0  0
   -2.4192    0.3871   -0.2604 H   0  0  0  0  0  0  0  0  0  0  0  0
   -1.5930    0.4658   -1.8258 H   0  0  0  0  0  0  0  0  0  0  0  0
   -0.3630    2.3444   -1.0372 H   0  0  0  0  0  0  0  0  0  0  0  0
   -1.4707    2.3620    0.3765 H   0  0  0  0  0  0  0  0  0  0  0  0
    1.1166    2.0619    0.6808 H   0  0  0  0  0  0  0  0  0  0  0  0
   -0.0424    1.0723    1.7295 H   0  0  0  0  0  0  0  0  0  0  0  0
    2.4834   -0.2587    1.4723 H   0  0  0  0  0  0  0  0  0  0  0  0
    2.0584   -1.8014    0.5594 H   0  0  0  0  0  0  0  0  0  0  0  0
    2.1643   -0.5804   -1.6198 H   0  0  0  0  0  0  0  0  0  0  0  0
    2.5896    0.9908   -0.7278 H   0  0  0  0  0  0  0  0  0  0  0  0
  1  2  1  0
  2  3  1  0
  2  4  1  0
  4  5  1  0
  5  6  1  0
  6  7  1  0
  7  8  1  0
  8  9  1  0
  7  2  1  0
  9  7  1  0
  1 10  1  0
  1 11  1  0
  1 12  1  0
  3 13  1  0
  4 14  1  0
  4 15  1  0
  5 16  1  0
  5 17  1  0
  6 18  1  0
  6 19  1  0
  8 20  1  0
  8 21  1  0
  9 22  1  0
  9 23  1  0
M  END
