
     RDKit          3D

 21 21  0  0  0  0  0  0  0  0999 V2000
   -1.3118    1.1627   -0.5571 C   0  0  0  0  0  0  0  0  0  0  0  0
   -0.6305   -0.0880    0.0197 C   0  0  0  0  0  0  0  0  0  0  0  0
   -1.7965   -1.0423    0.3224 C   0  0  0  0  0  0  0  0  0  0  0  0
    0.3151   -0.6565   -0.9671 C   0  0  0  0  0  0  0  0  0  0  0  0
    1.7606   -0.5768   -0.6466 C   0  0  0  0  0  0  0  0  0  0  0  0
    2.1483    0.4187    0.3514 C   0  0  0  0  0  0  0  0  0  0  0  0
    1.3235    0.8646    1.2746 C   0  0  0  0  0  0  0  0  0  0  0  0
   -0.0339    0.3412    1.3000 C   0  0  0  0  0  0  0  0  0  0  0  0
   -0.6865    0.2519    2.3631 O   0  0  0  0  0  0  0  0  0  0  0  0
   -1.9705    1.5308    0.2597 H   0  0  0  0  0  0  0  0  0  0  0  0
   -0.5088    1.9309   -0.7247 H   0  0  0  0  0  0  0  0  0  0  0  0
   -1.8466    0.9419   -1.4873 H   0  0  0  0  0  0  0  0  0  0  0  0
   -1.4424   -2.0026    0.7095 H   0  0  0  0  0  0  0  0  0  0  0  0
   -2.4526   -0.4831    1.0215 H   0  0  0  0  0  0  0  0  0  0  0  0
   -2.3823   -1.1346   -0.6280 H   0  0  0  0  0  0  0  0  0  0  0  0
    0.1541   -0.2080   -1.9910 H   0  0  0  0  0  0  0  0  0  0  0  0
    0.0489   -1.7424   -1.1020 H   0  0  0  0  0  0  0  0  0  0  0  0
    2.3566   -0.3543   -1.5815 H   0  0  0  0  0  0  0  0  0  0  0  0
    2.1499   -1.5761   -0.2842 H   0  0  0  0  0  0  0  0  0  0  0  0
    3.1499    0.8051    0.3347 H   0  0  0  0  0  0  0  0  0  0  0  0
    1.6554    1.6170    2.0130 H   0  0  0  0  0  0  0  0  0  0  0  0
  1  2  1  0
  2  3  1  0
  2  4  1  0
  4  5  1  0
  5  6  1  0
  6  7  2  0
  7  8  1  0
  8  9  2  0
  8  2  1  0
  1 10  1  0
  1 11  1  0
  1 12  1  0
  3 13  1  0
  3 14  1  0
  3 15  1  0
  4 16  1  0
  4 17  1  0
  5 18  1  0
  5 19  1  0
  6 20  1  0
  7 21  1  0
M  END
