
     RDKit          3D

 17 17  0  0  0  0  0  0  0  0999 V2000
    0.2860    1.7390    0.1345 C   0  0  0  0  0  0  0  0  0  0  0  0
   -0.0608    0.2731    0.2687 C   0  0  0  0  0  0  0  0  0  0  0  0
    0.8468   -0.4607    1.0601 O   0  0  0  0  0  0  0  0  0  0  0  0
    2.1637   -0.4838    0.6164 C   0  0  0  0  0  0  0  0  0  0  0  0
    2.5704    0.0982   -0.4223 O   0  0  0  0  0  0  0  0  0  0  0  0
   -1.4443   -0.1760    0.0408 C   0  0  0  0  0  0  0  0  0  0  0  0
   -1.9945   -1.2401    0.7536 O   0  0  0  0  0  0  0  0  0  0  0  0
   -0.4337   -0.4847   -1.0127 C   0  0  0  0  0  0  0  0  0  0  0  0
   -0.0863   -1.8184   -1.1292 O   0  0  0  0  0  0  0  0  0  0  0  0
    0.1647    2.0941   -0.9284 H   0  0  0  0  0  0  0  0  0  0  0  0
    1.3357    1.8922    0.4085 H   0  0  0  0  0  0  0  0  0  0  0  0
   -0.3954    2.3379    0.7783 H   0  0  0  0  0  0  0  0  0  0  0  0
    2.9424   -1.0310    1.1704 H   0  0  0  0  0  0  0  0  0  0  0  0
   -2.1614    0.6482   -0.2360 H   0  0  0  0  0  0  0  0  0  0  0  0
   -2.9917   -1.1738    0.7397 H   0  0  0  0  0  0  0  0  0  0  0  0
   -0.3402    0.1257   -1.9170 H   0  0  0  0  0  0  0  0  0  0  0  0
   -0.4016   -2.3399   -0.3255 H   0  0  0  0  0  0  0  0  0  0  0  0
  1  2  1  0
  2  3  1  0
  3  4  1  0
  4  5  2  0
  2  6  1  0
  6  7  1  0
  6  8  1  0
  8  9  1  0
  8  2  1  0
  1 10  1  0
  1 11  1  0
  1 12  1  0
  4 13  1  0
  6 14  1  0
  7 15  1  0
  8 16  1  0
  9 17  1  0
M  END
