
     RDKit          3D

 19 19  0  0  0  0  0  0  0  0999 V2000
   -0.5850    1.5372    1.0053 C   0  0  0  0  0  0  0  0  0  0  0  0
   -0.0961    0.3137    0.1989 C   0  0  0  0  0  0  0  0  0  0  0  0
    0.6254    0.7661   -1.0432 C   0  0  0  0  0  0  0  0  0  0  0  0
    1.1234   -0.3344   -1.7445 O   0  0  0  0  0  0  0  0  0  0  0  0
    2.1849   -1.0448   -1.2124 C   0  0  0  0  0  0  0  0  0  0  0  0
    2.6721   -0.6521   -0.1171 O   0  0  0  0  0  0  0  0  0  0  0  0
   -0.1185   -1.0295    0.7249 C   0  0  0  0  0  0  0  0  0  0  0  0
   -1.3254   -0.5985   -0.0508 C   0  0  0  0  0  0  0  0  0  0  0  0
   -2.4843   -0.3688    0.6425 O   0  0  0  0  0  0  0  0  0  0  0  0
   -1.0961    2.1810    0.2592 H   0  0  0  0  0  0  0  0  0  0  0  0
    0.2711    2.0940    1.3947 H   0  0  0  0  0  0  0  0  0  0  0  0
   -1.3239    1.2366    1.7521 H   0  0  0  0  0  0  0  0  0  0  0  0
    1.5163    1.4014   -0.7872 H   0  0  0  0  0  0  0  0  0  0  0  0
   -0.0191    1.4236   -1.6773 H   0  0  0  0  0  0  0  0  0  0  0  0
    2.6140   -1.9164   -1.6889 H   0  0  0  0  0  0  0  0  0  0  0  0
   -0.3163   -1.2534    1.8037 H   0  0  0  0  0  0  0  0  0  0  0  0
    0.4272   -1.8643    0.2520 H   0  0  0  0  0  0  0  0  0  0  0  0
   -1.4380   -0.8705   -1.1055 H   0  0  0  0  0  0  0  0  0  0  0  0
   -2.6317   -1.0210    1.3936 H   0  0  0  0  0  0  0  0  0  0  0  0
  1  2  1  0
  2  3  1  0
  3  4  1  0
  4  5  1  0
  5  6  2  0
  2  7  1  0
  7  8  1  0
  8  9  1  0
  8  2  1  0
  1 10  1  0
  1 11  1  0
  1 12  1  0
  3 13  1  0
  3 14  1  0
  5 15  1  0
  7 16  1  0
  7 17  1  0
  8 18  1  0
  9 19  1  0
M  END
