
     RDKit          3D

 21 22  0  0  0  0  0  0  0  0999 V2000
   -2.0702    0.5203   -0.4913 C   0  0  0  0  0  0  0  0  0  0  0  0
   -0.7341    0.2716    0.1755 C   0  0  0  0  0  0  0  0  0  0  0  0
   -0.6801    1.0553    1.3109 O   0  0  0  0  0  0  0  0  0  0  0  0
   -0.6209   -1.1971    0.4423 C   0  0  0  0  0  0  0  0  0  0  0  0
    0.8234   -1.5549    0.2537 C   0  0  0  0  0  0  0  0  0  0  0  0
    1.4503   -0.4677   -0.5768 C   0  0  0  0  0  0  0  0  0  0  0  0
    2.2945    0.3053    0.2135 O   0  0  0  0  0  0  0  0  0  0  0  0
    1.5111    1.4114   -0.0090 C   0  0  0  0  0  0  0  0  0  0  0  0
    0.4320    0.6240   -0.6978 C   0  0  0  0  0  0  0  0  0  0  0  0
   -2.8200    0.8595    0.2693 H   0  0  0  0  0  0  0  0  0  0  0  0
   -1.9790    1.2906   -1.2771 H   0  0  0  0  0  0  0  0  0  0  0  0
   -2.4648   -0.4157   -0.9196 H   0  0  0  0  0  0  0  0  0  0  0  0
   -0.4354    0.5644    2.1317 H   0  0  0  0  0  0  0  0  0  0  0  0
   -1.0010   -1.4805    1.4490 H   0  0  0  0  0  0  0  0  0  0  0  0
   -1.2471   -1.7815   -0.2891 H   0  0  0  0  0  0  0  0  0  0  0  0
    0.8925   -2.4955   -0.3140 H   0  0  0  0  0  0  0  0  0  0  0  0
    1.3683   -1.7002    1.2003 H   0  0  0  0  0  0  0  0  0  0  0  0
    1.9327   -0.8020   -1.5057 H   0  0  0  0  0  0  0  0  0  0  0  0
    1.9964    2.2015   -0.6049 H   0  0  0  0  0  0  0  0  0  0  0  0
    1.1826    1.8444    0.9628 H   0  0  0  0  0  0  0  0  0  0  0  0
    0.1689    0.9468   -1.7238 H   0  0  0  0  0  0  0  0  0  0  0  0
  1  2  1  0
  2  3  1  0
  2  4  1  0
  4  5  1  0
  5  6  1  0
  6  7  1  0
  7  8  1  0
  8  9  1  0
  9  2  1  0
  9  6  1  0
  1 10  1  0
  1 11  1  0
  1 12  1  0
  3 13  1  0
  4 14  1  0
  4 15  1  0
  5 16  1  0
  5 17  1  0
  6 18  1  0
  8 19  1  0
  8 20  1  0
  9 21  1  0
M  END
