
     RDKit          3D

 25 26  0  0  0  0  0  0  0  0999 V2000
   -1.6292   -1.2165    0.8999 C   0  0  0  0  0  0  0  0  0  0  0  0
   -1.1114   -0.1304   -0.0155 C   0  0  0  0  0  0  0  0  0  0  0  0
   -2.2175    0.8220   -0.4449 C   0  0  0  0  0  0  0  0  0  0  0  0
   -0.4197   -0.6710   -1.2338 C   0  0  0  0  0  0  0  0  0  0  0  0
    0.8262    0.2160   -1.3525 C   0  0  0  0  0  0  0  0  0  0  0  0
    1.2286    0.3117    0.0927 C   0  0  0  0  0  0  0  0  0  0  0  0
    2.4980    0.8599    0.5440 C   0  0  0  0  0  0  0  0  0  0  0  0
    2.1923   -0.6432    0.6230 C   0  0  0  0  0  0  0  0  0  0  0  0
   -0.0696    0.6462    0.7732 C   0  0  0  0  0  0  0  0  0  0  0  0
   -1.7327   -2.1787    0.3703 H   0  0  0  0  0  0  0  0  0  0  0  0
   -0.9294   -1.3892    1.7619 H   0  0  0  0  0  0  0  0  0  0  0  0
   -2.6153   -0.9838    1.3366 H   0  0  0  0  0  0  0  0  0  0  0  0
   -2.3404    1.6403    0.3031 H   0  0  0  0  0  0  0  0  0  0  0  0
   -1.8674    1.3076   -1.3930 H   0  0  0  0  0  0  0  0  0  0  0  0
   -3.1646    0.2979   -0.6616 H   0  0  0  0  0  0  0  0  0  0  0  0
   -0.9824   -0.5581   -2.1646 H   0  0  0  0  0  0  0  0  0  0  0  0
   -0.0733   -1.7019   -1.0523 H   0  0  0  0  0  0  0  0  0  0  0  0
    1.5931   -0.2253   -1.9875 H   0  0  0  0  0  0  0  0  0  0  0  0
    0.5307    1.2478   -1.6721 H   0  0  0  0  0  0  0  0  0  0  0  0
    2.4818    1.3811    1.5434 H   0  0  0  0  0  0  0  0  0  0  0  0
    3.2202    1.2033   -0.2192 H   0  0  0  0  0  0  0  0  0  0  0  0
    2.1126   -1.1124    1.6106 H   0  0  0  0  0  0  0  0  0  0  0  0
    2.7882   -1.2646   -0.0989 H   0  0  0  0  0  0  0  0  0  0  0  0
   -0.0797    0.3920    1.8423 H   0  0  0  0  0  0  0  0  0  0  0  0
   -0.2389    1.7491    0.5952 H   0  0  0  0  0  0  0  0  0  0  0  0
  1  2  1  0
  2  3  1  0
  2  4  1  0
  4  5  1  0
  5  6  1  0
  6  7  1  0
  7  8  1  0
  6  9  1  0
  9  2  1  0
  8  6  1  0
  1 10  1  0
  1 11  1  0
  1 12  1  0
  3 13  1  0
  3 14  1  0
  3 15  1  0
  4 16  1  0
  4 17  1  0
  5 18  1  0
  5 19  1  0
  7 20  1  0
  7 21  1  0
  8 22  1  0
  8 23  1  0
  9 24  1  0
  9 25  1  0
M  END
