
     RDKit          3D

 21 21  0  0  0  0  0  0  0  0999 V2000
   -0.7507   -1.0549    1.0724 C   0  0  0  0  0  0  0  0  0  0  0  0
   -0.5013   -0.3316   -0.2567 C   0  0  0  0  0  0  0  0  0  0  0  0
   -1.8324   -0.2439   -0.9502 C   0  0  0  0  0  0  0  0  0  0  0  0
    0.4468   -1.0427   -0.9332 O   0  0  0  0  0  0  0  0  0  0  0  0
    1.7395   -0.6465   -0.7806 C   0  0  0  0  0  0  0  0  0  0  0  0
    2.0497    0.0536    0.4743 C   0  0  0  0  0  0  0  0  0  0  0  0
    1.1581    0.9553    0.9070 C   0  0  0  0  0  0  0  0  0  0  0  0
   -0.0389    1.0955    0.0041 C   0  0  0  0  0  0  0  0  0  0  0  0
   -1.0168    1.8869    0.5372 O   0  0  0  0  0  0  0  0  0  0  0  0
   -1.7566   -0.8819    1.4580 H   0  0  0  0  0  0  0  0  0  0  0  0
   -0.6728   -2.1477    0.8368 H   0  0  0  0  0  0  0  0  0  0  0  0
    0.0584   -0.8364    1.7878 H   0  0  0  0  0  0  0  0  0  0  0  0
   -2.0139    0.7758   -1.3767 H   0  0  0  0  0  0  0  0  0  0  0  0
   -1.9598   -0.9814   -1.7478 H   0  0  0  0  0  0  0  0  0  0  0  0
   -2.6818   -0.4053   -0.2339 H   0  0  0  0  0  0  0  0  0  0  0  0
    2.0217   -0.0472   -1.6889 H   0  0  0  0  0  0  0  0  0  0  0  0
    2.3928   -1.5548   -0.8210 H   0  0  0  0  0  0  0  0  0  0  0  0
    2.9492   -0.1309    1.0432 H   0  0  0  0  0  0  0  0  0  0  0  0
    1.3000    1.5087    1.8043 H   0  0  0  0  0  0  0  0  0  0  0  0
    0.3730    1.4648   -0.9656 H   0  0  0  0  0  0  0  0  0  0  0  0
   -1.2643    2.5644   -0.1704 H   0  0  0  0  0  0  0  0  0  0  0  0
  1  2  1  0
  2  3  1  0
  2  4  1  0
  4  5  1  0
  5  6  1  0
  6  7  2  0
  7  8  1  0
  8  9  1  0
  8  2  1  0
  1 10  1  0
  1 11  1  0
  1 12  1  0
  3 13  1  0
  3 14  1  0
  3 15  1  0
  5 16  1  0
  5 17  1  0
  6 18  1  0
  7 19  1  0
  8 20  1  0
  9 21  1  0
M  END
