
     RDKit          3D

 21 21  0  0  0  0  0  0  0  0999 V2000
    0.1715    1.7704    0.8700 C   0  0  0  0  0  0  0  0  0  0  0  0
    0.2497    0.3329    0.3350 C   0  0  0  0  0  0  0  0  0  0  0  0
    1.7014   -0.0425    0.1634 C   0  0  0  0  0  0  0  0  0  0  0  0
    1.8833   -1.4123   -0.3351 C   0  0  0  0  0  0  0  0  0  0  0  0
    2.2247   -1.6034   -1.4815 O   0  0  0  0  0  0  0  0  0  0  0  0
   -0.5152    0.3458   -0.9132 C   0  0  0  0  0  0  0  0  0  0  0  0
   -1.7042   -0.1672   -0.7515 C   0  0  0  0  0  0  0  0  0  0  0  0
   -1.8935   -0.5982    0.6493 C   0  0  0  0  0  0  0  0  0  0  0  0
   -0.4975   -0.5845    1.2276 C   0  0  0  0  0  0  0  0  0  0  0  0
   -0.8194    1.8364    1.3557 H   0  0  0  0  0  0  0  0  0  0  0  0
    1.0036    1.9727    1.5564 H   0  0  0  0  0  0  0  0  0  0  0  0
    0.2002    2.4547   -0.0053 H   0  0  0  0  0  0  0  0  0  0  0  0
    2.1975    0.0826    1.1400 H   0  0  0  0  0  0  0  0  0  0  0  0
    2.2082    0.7037   -0.5197 H   0  0  0  0  0  0  0  0  0  0  0  0
    1.7168   -2.2538    0.3091 H   0  0  0  0  0  0  0  0  0  0  0  0
   -0.1191    0.7372   -1.8510 H   0  0  0  0  0  0  0  0  0  0  0  0
   -2.5006   -0.2868   -1.5414 H   0  0  0  0  0  0  0  0  0  0  0  0
   -2.5348    0.1190    1.2250 H   0  0  0  0  0  0  0  0  0  0  0  0
   -2.3654   -1.6074    0.6404 H   0  0  0  0  0  0  0  0  0  0  0  0
   -0.1283   -1.6272    1.1767 H   0  0  0  0  0  0  0  0  0  0  0  0
   -0.4787   -0.1720    2.2494 H   0  0  0  0  0  0  0  0  0  0  0  0
  1  2  1  0
  2  3  1  0
  3  4  1  0
  4  5  2  0
  2  6  1  0
  6  7  2  0
  7  8  1  0
  8  9  1  0
  9  2  1  0
  1 10  1  0
  1 11  1  0
  1 12  1  0
  3 13  1  0
  3 14  1  0
  4 15  1  0
  6 16  1  0
  7 17  1  0
  8 18  1  0
  8 19  1  0
  9 20  1  0
  9 21  1  0
M  END
