
     RDKit          3D

 21 22  0  0  0  0  0  0  0  0999 V2000
   -1.3915    0.7703    1.3027 C   0  0  0  0  0  0  0  0  0  0  0  0
   -0.5965   -0.0833    0.3807 C   0  0  0  0  0  0  0  0  0  0  0  0
   -1.3448   -0.2767   -0.9220 C   0  0  0  0  0  0  0  0  0  0  0  0
   -0.2643   -1.2989    0.9561 O   0  0  0  0  0  0  0  0  0  0  0  0
    0.7589   -1.8562    0.2270 C   0  0  0  0  0  0  0  0  0  0  0  0
    1.4421   -0.7476   -0.5365 C   0  0  0  0  0  0  0  0  0  0  0  0
    0.7579    0.4808    0.0395 C   0  0  0  0  0  0  0  0  0  0  0  0
    1.0004    1.7597   -0.3849 C   0  0  0  0  0  0  0  0  0  0  0  0
    1.4426    1.2616    0.9269 O   0  0  0  0  0  0  0  0  0  0  0  0
   -0.8282    1.1608    2.1549 H   0  0  0  0  0  0  0  0  0  0  0  0
   -2.2490    0.1439    1.6707 H   0  0  0  0  0  0  0  0  0  0  0  0
   -1.8853    1.5979    0.7153 H   0  0  0  0  0  0  0  0  0  0  0  0
   -2.3785    0.0874   -0.8183 H   0  0  0  0  0  0  0  0  0  0  0  0
   -0.8148    0.2221   -1.7815 H   0  0  0  0  0  0  0  0  0  0  0  0
   -1.3203   -1.3714   -1.1586 H   0  0  0  0  0  0  0  0  0  0  0  0
    0.3671   -2.5807   -0.4909 H   0  0  0  0  0  0  0  0  0  0  0  0
    1.4600   -2.3331    0.9658 H   0  0  0  0  0  0  0  0  0  0  0  0
    2.5163   -0.7700   -0.3426 H   0  0  0  0  0  0  0  0  0  0  0  0
    1.1816   -0.8042   -1.6162 H   0  0  0  0  0  0  0  0  0  0  0  0
    1.8651    2.0350   -1.0461 H   0  0  0  0  0  0  0  0  0  0  0  0
    0.2812    2.6026   -0.2420 H   0  0  0  0  0  0  0  0  0  0  0  0
  1  2  1  0
  2  3  1  0
  2  4  1  0
  4  5  1  0
  5  6  1  0
  6  7  1  0
  7  8  1  0
  8  9  1  0
  7  2  1  0
  9  7  1  0
  1 10  1  0
  1 11  1  0
  1 12  1  0
  3 13  1  0
  3 14  1  0
  3 15  1  0
  5 16  1  0
  5 17  1  0
  6 18  1  0
  6 19  1  0
  8 20  1  0
  8 21  1  0
M  END
