
     RDKit          3D

 19 19  0  0  0  0  0  0  0  0999 V2000
   -1.5140    0.8069   -0.9211 C   0  0  0  0  0  0  0  0  0  0  0  0
   -0.5793    0.3208    0.1336 C   0  0  0  0  0  0  0  0  0  0  0  0
   -0.5293    1.1460    1.2531 O   0  0  0  0  0  0  0  0  0  0  0  0
   -0.8911   -1.0757    0.6176 C   0  0  0  0  0  0  0  0  0  0  0  0
   -0.2497   -1.8957   -0.2966 O   0  0  0  0  0  0  0  0  0  0  0  0
    1.0270   -1.3241   -0.3329 C   0  0  0  0  0  0  0  0  0  0  0  0
    0.7856    0.1628   -0.4589 C   0  0  0  0  0  0  0  0  0  0  0  0
    1.7467    0.9747    0.2846 C   0  0  0  0  0  0  0  0  0  0  0  0
    1.4423    2.0751    0.6830 O   0  0  0  0  0  0  0  0  0  0  0  0
   -2.2637    0.0321   -1.1358 H   0  0  0  0  0  0  0  0  0  0  0  0
   -0.9949    1.0180   -1.8873 H   0  0  0  0  0  0  0  0  0  0  0  0
   -1.9615    1.7656   -0.6032 H   0  0  0  0  0  0  0  0  0  0  0  0
   -0.3515    0.6106    2.0795 H   0  0  0  0  0  0  0  0  0  0  0  0
   -0.4603   -1.2716    1.6028 H   0  0  0  0  0  0  0  0  0  0  0  0
   -1.9741   -1.1912    0.6421 H   0  0  0  0  0  0  0  0  0  0  0  0
    1.5926   -1.5381    0.5957 H   0  0  0  0  0  0  0  0  0  0  0  0
    1.6185   -1.6528   -1.1999 H   0  0  0  0  0  0  0  0  0  0  0  0
    0.8220    0.4307   -1.5433 H   0  0  0  0  0  0  0  0  0  0  0  0
    2.7347    0.6059    0.4871 H   0  0  0  0  0  0  0  0  0  0  0  0
  1  2  1  0
  2  3  1  0
  2  4  1  0
  4  5  1  0
  5  6  1  0
  6  7  1  0
  7  8  1  0
  8  9  2  0
  7  2  1  0
  1 10  1  0
  1 11  1  0
  1 12  1  0
  3 13  1  0
  4 14  1  0
  4 15  1  0
  6 16  1  0
  6 17  1  0
  7 18  1  0
  8 19  1  0
M  END
