
     RDKit          3D

 22 23  0  0  0  0  0  0  0  0999 V2000
   -2.3714   -0.3567   -0.9856 C   0  0  0  0  0  0  0  0  0  0  0  0
   -1.1134   -0.0529   -0.1752 C   0  0  0  0  0  0  0  0  0  0  0  0
    0.1624   -0.5299   -0.7544 C   0  0  0  0  0  0  0  0  0  0  0  0
    1.3660   -0.1924    0.0516 C   0  0  0  0  0  0  0  0  0  0  0  0
    2.7309   -0.5921   -0.3738 C   0  0  0  0  0  0  0  0  0  0  0  0
    2.2863    0.8065   -0.6263 C   0  0  0  0  0  0  0  0  0  0  0  0
   -1.2489   -0.1585    1.3327 C   0  0  0  0  0  0  0  0  0  0  0  0
   -1.2123    1.1579    0.6994 C   0  0  0  0  0  0  0  0  0  0  0  0
   -2.4990    0.4590   -1.7110 H   0  0  0  0  0  0  0  0  0  0  0  0
   -3.2475   -0.3937   -0.3090 H   0  0  0  0  0  0  0  0  0  0  0  0
   -2.2765   -1.3283   -1.5113 H   0  0  0  0  0  0  0  0  0  0  0  0
    0.0752   -1.6540   -0.8678 H   0  0  0  0  0  0  0  0  0  0  0  0
    0.2484   -0.1820   -1.8260 H   0  0  0  0  0  0  0  0  0  0  0  0
    1.2267   -0.1164    1.1401 H   0  0  0  0  0  0  0  0  0  0  0  0
    3.4982   -0.7669    0.4073 H   0  0  0  0  0  0  0  0  0  0  0  0
    2.8720   -1.2541   -1.2559 H   0  0  0  0  0  0  0  0  0  0  0  0
    2.6099    1.6308    0.0454 H   0  0  0  0  0  0  0  0  0  0  0  0
    2.1078    1.0792   -1.6633 H   0  0  0  0  0  0  0  0  0  0  0  0
   -0.4740   -0.6321    1.9241 H   0  0  0  0  0  0  0  0  0  0  0  0
   -2.2825   -0.4990    1.6588 H   0  0  0  0  0  0  0  0  0  0  0  0
   -2.1487    1.7709    0.6600 H   0  0  0  0  0  0  0  0  0  0  0  0
   -0.3094    1.8047    0.6948 H   0  0  0  0  0  0  0  0  0  0  0  0
  1  2  1  0
  2  3  1  0
  3  4  1  0
  4  5  1  0
  5  6  1  0
  2  7  1  0
  7  8  1  0
  8  2  1  0
  6  4  1  0
  1  9  1  0
  1 10  1  0
  1 11  1  0
  3 12  1  0
  3 13  1  0
  4 14  1  0
  5 15  1  0
  5 16  1  0
  6 17  1  0
  6 18  1  0
  7 19  1  0
  7 20  1  0
  8 21  1  0
  8 22  1  0
M  END
