
     RDKit          3D

 21 21  0  0  0  0  0  0  0  0999 V2000
   -2.0801    0.2610    1.0216 C   0  0  0  0  0  0  0  0  0  0  0  0
   -1.0757    0.0624   -0.1031 C   0  0  0  0  0  0  0  0  0  0  0  0
   -1.0059    1.0614   -1.0618 O   0  0  0  0  0  0  0  0  0  0  0  0
   -1.0077   -1.3565   -0.5991 C   0  0  0  0  0  0  0  0  0  0  0  0
    0.1401   -0.7488    0.1798 C   0  0  0  0  0  0  0  0  0  0  0  0
    0.3446   -1.2939    1.4428 O   0  0  0  0  0  0  0  0  0  0  0  0
    1.3832   -0.5329   -0.6308 C   0  0  0  0  0  0  0  0  0  0  0  0
    1.9184    0.8779   -0.5259 C   0  0  0  0  0  0  0  0  0  0  0  0
    2.2317    1.1835    0.7919 O   0  0  0  0  0  0  0  0  0  0  0  0
   -2.3288    1.3320    1.1533 H   0  0  0  0  0  0  0  0  0  0  0  0
   -1.7229   -0.2242    1.9541 H   0  0  0  0  0  0  0  0  0  0  0  0
   -3.0124   -0.2505    0.6965 H   0  0  0  0  0  0  0  0  0  0  0  0
   -1.9023    1.3174   -1.4100 H   0  0  0  0  0  0  0  0  0  0  0  0
   -0.9277   -1.4927   -1.6822 H   0  0  0  0  0  0  0  0  0  0  0  0
   -1.6249   -2.1414   -0.0974 H   0  0  0  0  0  0  0  0  0  0  0  0
    0.4584   -0.6059    2.1469 H   0  0  0  0  0  0  0  0  0  0  0  0
    2.1660   -1.2241   -0.2607 H   0  0  0  0  0  0  0  0  0  0  0  0
    1.2336   -0.7808   -1.7102 H   0  0  0  0  0  0  0  0  0  0  0  0
    1.2630    1.6199   -1.0092 H   0  0  0  0  0  0  0  0  0  0  0  0
    2.8713    0.8848   -1.1262 H   0  0  0  0  0  0  0  0  0  0  0  0
    2.6780    2.0513    0.8297 H   0  0  0  0  0  0  0  0  0  0  0  0
  1  2  1  0
  2  3  1  0
  2  4  1  0
  4  5  1  0
  5  6  1  0
  5  7  1  0
  7  8  1  0
  8  9  1  0
  5  2  1  0
  1 10  1  0
  1 11  1  0
  1 12  1  0
  3 13  1  0
  4 14  1  0
  4 15  1  0
  6 16  1  0
  7 17  1  0
  7 18  1  0
  8 19  1  0
  8 20  1  0
  9 21  1  0
M  END
