
     RDKit          3D

 23 24  0  0  0  0  0  0  0  0999 V2000
   -1.8734   -0.4304    0.6051 C   0  0  0  0  0  0  0  0  0  0  0  0
   -0.6432   -0.0726   -0.2432 C   0  0  0  0  0  0  0  0  0  0  0  0
   -1.0871    0.8076   -1.3798 C   0  0  0  0  0  0  0  0  0  0  0  0
    0.1623   -1.2680   -0.5821 C   0  0  0  0  0  0  0  0  0  0  0  0
    1.6098   -1.4022   -0.4934 C   0  0  0  0  0  0  0  0  0  0  0  0
    0.9311   -0.9474    0.7219 C   0  0  0  0  0  0  0  0  0  0  0  0
    0.4226    0.4752    0.6499 C   0  0  0  0  0  0  0  0  0  0  0  0
    1.3068    1.4430   -0.0593 C   0  0  0  0  0  0  0  0  0  0  0  0
   -0.0381    0.9950    1.8489 O   0  0  0  0  0  0  0  0  0  0  0  0
   -2.2478    0.4261    1.1644 H   0  0  0  0  0  0  0  0  0  0  0  0
   -2.6456   -0.7445   -0.1212 H   0  0  0  0  0  0  0  0  0  0  0  0
   -1.6483   -1.2913    1.2692 H   0  0  0  0  0  0  0  0  0  0  0  0
   -1.8435    0.2178   -1.9598 H   0  0  0  0  0  0  0  0  0  0  0  0
   -1.6661    1.6477   -0.9205 H   0  0  0  0  0  0  0  0  0  0  0  0
   -0.2847    1.1911   -2.0038 H   0  0  0  0  0  0  0  0  0  0  0  0
   -0.4242   -2.2230   -0.5944 H   0  0  0  0  0  0  0  0  0  0  0  0
    2.3245   -0.6719   -0.9649 H   0  0  0  0  0  0  0  0  0  0  0  0
    2.0434   -2.4174   -0.4569 H   0  0  0  0  0  0  0  0  0  0  0  0
    0.6447   -1.5750    1.5551 H   0  0  0  0  0  0  0  0  0  0  0  0
    1.5402    1.2053   -1.0946 H   0  0  0  0  0  0  0  0  0  0  0  0
    2.2468    1.6270    0.5110 H   0  0  0  0  0  0  0  0  0  0  0  0
    0.7766    2.4289   -0.0665 H   0  0  0  0  0  0  0  0  0  0  0  0
    0.3932    0.5791    2.6151 H   0  0  0  0  0  0  0  0  0  0  0  0
  1  2  1  0
  2  3  1  0
  2  4  1  0
  4  5  1  0
  5  6  1  0
  6  7  1  0
  7  8  1  0
  7  9  1  0
  7  2  1  0
  6  4  1  0
  1 10  1  0
  1 11  1  0
  1 12  1  0
  3 13  1  0
  3 14  1  0
  3 15  1  0
  4 16  1  0
  5 17  1  0
  5 18  1  0
  6 19  1  0
  8 20  1  0
  8 21  1  0
  8 22  1  0
  9 23  1  0
M  END
