
     RDKit          3D

 19 20  0  0  0  0  0  0  0  0999 V2000
   -1.5898   -1.0410    0.5211 C   0  0  0  0  0  0  0  0  0  0  0  0
   -0.7561    0.1618    0.2761 C   0  0  0  0  0  0  0  0  0  0  0  0
   -1.3373    1.3543    0.5960 O   0  0  0  0  0  0  0  0  0  0  0  0
    0.6609    0.0222    0.8593 C   0  0  0  0  0  0  0  0  0  0  0  0
    1.2926    1.2236    0.2367 C   0  0  0  0  0  0  0  0  0  0  0  0
    0.8089    1.2306   -1.0273 C   0  0  0  0  0  0  0  0  0  0  0  0
   -0.2167    0.1519   -1.1678 C   0  0  0  0  0  0  0  0  0  0  0  0
    0.4246   -1.0833   -1.1773 O   0  0  0  0  0  0  0  0  0  0  0  0
    1.1274   -1.1534    0.0338 C   0  0  0  0  0  0  0  0  0  0  0  0
   -2.3206   -1.1270   -0.3337 H   0  0  0  0  0  0  0  0  0  0  0  0
   -1.0097   -1.9591    0.5333 H   0  0  0  0  0  0  0  0  0  0  0  0
   -2.2009   -0.9174    1.4299 H   0  0  0  0  0  0  0  0  0  0  0  0
   -0.9894    2.1017    0.0504 H   0  0  0  0  0  0  0  0  0  0  0  0
    0.7118   -0.0616    1.9094 H   0  0  0  0  0  0  0  0  0  0  0  0
    1.9708    1.9473    0.6311 H   0  0  0  0  0  0  0  0  0  0  0  0
    1.1536    1.9387   -1.7823 H   0  0  0  0  0  0  0  0  0  0  0  0
   -0.9577    0.3068   -1.9095 H   0  0  0  0  0  0  0  0  0  0  0  0
    1.0262   -2.1156    0.5329 H   0  0  0  0  0  0  0  0  0  0  0  0
    2.2014   -0.9807   -0.2123 H   0  0  0  0  0  0  0  0  0  0  0  0
  1  2  1  0
  2  3  1  0
  2  4  1  0
  4  5  1  0
  5  6  2  0
  6  7  1  0
  7  8  1  0
  8  9  1  0
  7  2  1  0
  9  4  1  0
  1 10  1  0
  1 11  1  0
  1 12  1  0
  3 13  1  0
  4 14  1  0
  5 15  1  0
  6 16  1  0
  7 17  1  0
  9 18  1  0
  9 19  1  0
M  END
