
     RDKit          3D

 19 19  0  0  0  0  0  0  0  0999 V2000
    1.0598    1.6471    0.0175 C   0  0  0  0  0  0  0  0  0  0  0  0
    0.2236    0.4182    0.1342 C   0  0  0  0  0  0  0  0  0  0  0  0
    0.9760   -0.7717    0.6793 C   0  0  0  0  0  0  0  0  0  0  0  0
    2.0534   -1.1306   -0.1086 O   0  0  0  0  0  0  0  0  0  0  0  0
   -0.5072    0.0717   -1.1313 C   0  0  0  0  0  0  0  0  0  0  0  0
   -1.7966   -0.5498   -0.6364 C   0  0  0  0  0  0  0  0  0  0  0  0
   -1.7536   -0.3535    0.8378 C   0  0  0  0  0  0  0  0  0  0  0  0
   -2.4217   -1.0082    1.7127 O   0  0  0  0  0  0  0  0  0  0  0  0
   -0.8444    0.6768    1.0283 O   0  0  0  0  0  0  0  0  0  0  0  0
    1.4778    1.7897   -1.0083 H   0  0  0  0  0  0  0  0  0  0  0  0
    1.8492    1.6454    0.7955 H   0  0  0  0  0  0  0  0  0  0  0  0
    0.4583    2.5798    0.2100 H   0  0  0  0  0  0  0  0  0  0  0  0
    1.3628   -0.5327    1.6910 H   0  0  0  0  0  0  0  0  0  0  0  0
    0.2663   -1.6206    0.7377 H   0  0  0  0  0  0  0  0  0  0  0  0
    2.7393   -1.5386    0.4617 H   0  0  0  0  0  0  0  0  0  0  0  0
    0.0288   -0.6832   -1.7539 H   0  0  0  0  0  0  0  0  0  0  0  0
   -0.6725    0.9919   -1.7055 H   0  0  0  0  0  0  0  0  0  0  0  0
   -2.6501    0.0079   -1.0860 H   0  0  0  0  0  0  0  0  0  0  0  0
   -1.8491   -1.6394   -0.8759 H   0  0  0  0  0  0  0  0  0  0  0  0
  1  2  1  0
  2  3  1  0
  3  4  1  0
  2  5  1  0
  5  6  1  0
  6  7  1  0
  7  8  2  0
  7  9  1  0
  9  2  1  0
  1 10  1  0
  1 11  1  0
  1 12  1  0
  3 13  1  0
  3 14  1  0
  4 15  1  0
  5 16  1  0
  5 17  1  0
  6 18  1  0
  6 19  1  0
M  END
