
     RDKit          3D

 21 21  0  0  0  0  0  0  0  0999 V2000
   -1.2232    0.8848    1.1948 C   0  0  0  0  0  0  0  0  0  0  0  0
   -0.3341    0.0570    0.3020 C   0  0  0  0  0  0  0  0  0  0  0  0
   -1.0947   -0.6125   -0.8130 C   0  0  0  0  0  0  0  0  0  0  0  0
   -2.0792   -1.4694   -0.3566 O   0  0  0  0  0  0  0  0  0  0  0  0
    0.4099   -0.9087    1.1328 C   0  0  0  0  0  0  0  0  0  0  0  0
    1.6189   -1.0517    0.6334 C   0  0  0  0  0  0  0  0  0  0  0  0
    1.7980   -0.1847   -0.5901 C   0  0  0  0  0  0  0  0  0  0  0  0
    0.7484    0.8916   -0.3200 C   0  0  0  0  0  0  0  0  0  0  0  0
    0.3550    1.5205   -1.4925 O   0  0  0  0  0  0  0  0  0  0  0  0
   -2.2636    0.9714    0.8115 H   0  0  0  0  0  0  0  0  0  0  0  0
   -0.7925    1.9057    1.2426 H   0  0  0  0  0  0  0  0  0  0  0  0
   -1.2545    0.4908    2.2448 H   0  0  0  0  0  0  0  0  0  0  0  0
   -1.5580    0.1458   -1.4647 H   0  0  0  0  0  0  0  0  0  0  0  0
   -0.3874   -1.2111   -1.4139 H   0  0  0  0  0  0  0  0  0  0  0  0
   -2.5302   -1.8428   -1.1517 H   0  0  0  0  0  0  0  0  0  0  0  0
    0.0198   -1.4295    2.0292 H   0  0  0  0  0  0  0  0  0  0  0  0
    2.3808   -1.7160    1.0618 H   0  0  0  0  0  0  0  0  0  0  0  0
    1.5977   -0.7742   -1.4831 H   0  0  0  0  0  0  0  0  0  0  0  0
    2.8137    0.2654   -0.5583 H   0  0  0  0  0  0  0  0  0  0  0  0
    1.1220    1.5854    0.4363 H   0  0  0  0  0  0  0  0  0  0  0  0
    0.6533    2.4820   -1.4451 H   0  0  0  0  0  0  0  0  0  0  0  0
  1  2  1  0
  2  3  1  0
  3  4  1  0
  2  5  1  0
  5  6  2  0
  6  7  1  0
  7  8  1  0
  8  9  1  0
  8  2  1  0
  1 10  1  0
  1 11  1  0
  1 12  1  0
  3 13  1  0
  3 14  1  0
  4 15  1  0
  5 16  1  0
  6 17  1  0
  7 18  1  0
  7 19  1  0
  8 20  1  0
  9 21  1  0
M  END
