
     RDKit          3D

 19 20  0  0  0  0  0  0  0  0999 V2000
   -1.6438    0.8828    0.4254 C   0  0  0  0  0  0  0  0  0  0  0  0
   -0.2050    0.7956    0.0097 C   0  0  0  0  0  0  0  0  0  0  0  0
    0.2206    1.9733   -0.6049 O   0  0  0  0  0  0  0  0  0  0  0  0
    0.6348    0.5734    1.2421 C   0  0  0  0  0  0  0  0  0  0  0  0
    1.6280   -0.2666    0.9596 C   0  0  0  0  0  0  0  0  0  0  0  0
    1.5469   -0.6833   -0.4803 C   0  0  0  0  0  0  0  0  0  0  0  0
    0.1268   -0.4242   -0.7842 C   0  0  0  0  0  0  0  0  0  0  0  0
   -0.8828   -1.5556   -0.6409 C   0  0  0  0  0  0  0  0  0  0  0  0
   -0.5686   -0.8849   -1.8248 O   0  0  0  0  0  0  0  0  0  0  0  0
   -1.7863    1.9184    0.8529 H   0  0  0  0  0  0  0  0  0  0  0  0
   -2.3443    0.8113   -0.4131 H   0  0  0  0  0  0  0  0  0  0  0  0
   -1.8529    0.1907    1.2442 H   0  0  0  0  0  0  0  0  0  0  0  0
    0.4685    1.7536   -1.5331 H   0  0  0  0  0  0  0  0  0  0  0  0
    0.4331    1.0382    2.1864 H   0  0  0  0  0  0  0  0  0  0  0  0
    2.4088   -0.6325    1.6255 H   0  0  0  0  0  0  0  0  0  0  0  0
    1.9023   -1.7068   -0.6446 H   0  0  0  0  0  0  0  0  0  0  0  0
    2.1737    0.0779   -1.0324 H   0  0  0  0  0  0  0  0  0  0  0  0
   -0.4039   -2.5342   -0.4339 H   0  0  0  0  0  0  0  0  0  0  0  0
   -1.8558   -1.3270   -0.1536 H   0  0  0  0  0  0  0  0  0  0  0  0
  1  2  1  0
  2  3  1  0
  2  4  1  0
  4  5  2  0
  5  6  1  0
  6  7  1  0
  7  8  1  0
  8  9  1  0
  7  2  1  0
  9  7  1  0
  1 10  1  0
  1 11  1  0
  1 12  1  0
  3 13  1  0
  4 14  1  0
  5 15  1  0
  6 16  1  0
  6 17  1  0
  8 18  1  0
  8 19  1  0
M  END
