
     RDKit          3D

 15 16  0  0  0  0  0  0  0  0999 V2000
   -1.2487   -1.2539   -0.1268 C   0  0  0  0  0  0  0  0  0  0  0  0
   -0.6393    0.0970    0.1525 C   0  0  0  0  0  0  0  0  0  0  0  0
   -1.4842    1.0142    0.7324 O   0  0  0  0  0  0  0  0  0  0  0  0
    0.2540    0.5929   -0.9760 C   0  0  0  0  0  0  0  0  0  0  0  0
    1.1767   -0.3115   -1.5207 O   0  0  0  0  0  0  0  0  0  0  0  0
    1.7305   -0.6727   -0.2806 C   0  0  0  0  0  0  0  0  0  0  0  0
    2.6222   -1.4410    0.1351 O   0  0  0  0  0  0  0  0  0  0  0  0
    0.8010    0.2610    0.4112 C   0  0  0  0  0  0  0  0  0  0  0  0
    1.2803    1.3232    1.1253 O   0  0  0  0  0  0  0  0  0  0  0  0
   -1.9623   -1.0962   -0.9886 H   0  0  0  0  0  0  0  0  0  0  0  0
   -1.8380   -1.6561    0.7046 H   0  0  0  0  0  0  0  0  0  0  0  0
   -0.4871   -1.9662   -0.5155 H   0  0  0  0  0  0  0  0  0  0  0  0
   -1.1174    1.9232    0.5333 H   0  0  0  0  0  0  0  0  0  0  0  0
    0.2068    1.6338   -1.2928 H   0  0  0  0  0  0  0  0  0  0  0  0
    0.7055    1.5523    1.9067 H   0  0  0  0  0  0  0  0  0  0  0  0
  1  2  1  0
  2  3  1  0
  2  4  1  0
  4  5  1  0
  5  6  1  0
  6  7  2  0
  6  8  1  0
  8  9  1  0
  8  2  1  0
  8  4  1  0
  1 10  1  0
  1 11  1  0
  1 12  1  0
  3 13  1  0
  4 14  1  0
  9 15  1  0
M  END
