
     RDKit          3D

 18 18  0  0  0  0  0  0  0  0999 V2000
   -0.6234    1.2141    0.7868 C   0  0  0  0  0  0  0  0  0  0  0  0
   -0.3491   -0.0482    0.0507 C   0  0  0  0  0  0  0  0  0  0  0  0
   -1.5244   -0.9486   -0.1199 C   0  0  0  0  0  0  0  0  0  0  0  0
    0.4464    0.2276   -1.2235 C   0  0  0  0  0  0  0  0  0  0  0  0
    1.6688    0.2493   -0.2951 C   0  0  0  0  0  0  0  0  0  0  0  0
    0.9023   -0.8014    0.5216 C   0  0  0  0  0  0  0  0  0  0  0  0
   -1.7249    1.3632    0.8736 H   0  0  0  0  0  0  0  0  0  0  0  0
   -0.2044    2.0930    0.2725 H   0  0  0  0  0  0  0  0  0  0  0  0
   -0.1920    1.2060    1.8213 H   0  0  0  0  0  0  0  0  0  0  0  0
   -1.2817   -1.8482   -0.6960 H   0  0  0  0  0  0  0  0  0  0  0  0
   -1.8239   -1.3030    0.9011 H   0  0  0  0  0  0  0  0  0  0  0  0
   -2.3776   -0.4007   -0.5230 H   0  0  0  0  0  0  0  0  0  0  0  0
    0.5498   -0.6594   -1.8907 H   0  0  0  0  0  0  0  0  0  0  0  0
    0.2231    1.1669   -1.7183 H   0  0  0  0  0  0  0  0  0  0  0  0
    1.7229    1.1730    0.3309 H   0  0  0  0  0  0  0  0  0  0  0  0
    2.5958   -0.0992   -0.7421 H   0  0  0  0  0  0  0  0  0  0  0  0
    1.0792   -0.7721    1.5933 H   0  0  0  0  0  0  0  0  0  0  0  0
    0.9129   -1.8124    0.0567 H   0  0  0  0  0  0  0  0  0  0  0  0
  1  2  1  0
  2  3  1  0
  2  4  1  0
  4  5  1  0
  5  6  1  0
  6  2  1  0
  1  7  1  0
  1  8  1  0
  1  9  1  0
  3 10  1  0
  3 11  1  0
  3 12  1  0
  4 13  1  0
  4 14  1  0
  5 15  1  0
  5 16  1  0
  6 17  1  0
  6 18  1  0
M  END
