
     RDKit          3D

 21 21  0  0  0  0  0  0  0  0999 V2000
   -0.1557   -1.2093    0.9441 C   0  0  0  0  0  0  0  0  0  0  0  0
   -0.3234    0.0749    0.2043 C   0  0  0  0  0  0  0  0  0  0  0  0
    0.9599    0.8020   -0.0275 C   0  0  0  0  0  0  0  0  0  0  0  0
    1.9616    0.0174   -0.8295 C   0  0  0  0  0  0  0  0  0  0  0  0
    2.2589   -1.1610   -0.1468 O   0  0  0  0  0  0  0  0  0  0  0  0
   -1.2731    0.9534    0.7573 O   0  0  0  0  0  0  0  0  0  0  0  0
   -1.6532    1.2484   -0.5659 C   0  0  0  0  0  0  0  0  0  0  0  0
   -1.2113   -0.1022   -0.9967 C   0  0  0  0  0  0  0  0  0  0  0  0
   -2.2064   -1.0612   -0.7163 O   0  0  0  0  0  0  0  0  0  0  0  0
    0.1097   -2.0021    0.2240 H   0  0  0  0  0  0  0  0  0  0  0  0
    0.7023   -1.1071    1.6453 H   0  0  0  0  0  0  0  0  0  0  0  0
   -1.0800   -1.5478    1.4562 H   0  0  0  0  0  0  0  0  0  0  0  0
    1.4211    0.9880    0.9764 H   0  0  0  0  0  0  0  0  0  0  0  0
    0.7861    1.8091   -0.4593 H   0  0  0  0  0  0  0  0  0  0  0  0
    2.9080    0.6267   -0.8336 H   0  0  0  0  0  0  0  0  0  0  0  0
    1.6617   -0.1621   -1.8621 H   0  0  0  0  0  0  0  0  0  0  0  0
    2.8573   -0.9094    0.6076 H   0  0  0  0  0  0  0  0  0  0  0  0
   -2.7580    1.4319   -0.5632 H   0  0  0  0  0  0  0  0  0  0  0  0
   -1.1548    2.1189   -1.0064 H   0  0  0  0  0  0  0  0  0  0  0  0
   -0.7146   -0.2171   -1.9552 H   0  0  0  0  0  0  0  0  0  0  0  0
   -3.0962   -0.5916   -0.6374 H   0  0  0  0  0  0  0  0  0  0  0  0
  1  2  1  0
  2  3  1  0
  3  4  1  0
  4  5  1  0
  2  6  1  0
  6  7  1  0
  7  8  1  0
  8  9  1  0
  8  2  1  0
  1 10  1  0
  1 11  1  0
  1 12  1  0
  3 13  1  0
  3 14  1  0
  4 15  1  0
  4 16  1  0
  5 17  1  0
  7 18  1  0
  7 19  1  0
  8 20  1  0
  9 21  1  0
M  END
