
     RDKit          3D

 19 20  0  0  0  0  0  0  0  0999 V2000
   -1.7141   -0.6676   -0.1874 C   0  0  0  0  0  0  0  0  0  0  0  0
   -0.6483    0.2903    0.1611 C   0  0  0  0  0  0  0  0  0  0  0  0
   -1.0410    1.3794    0.9039 O   0  0  0  0  0  0  0  0  0  0  0  0
    0.6031   -0.3812    0.7461 C   0  0  0  0  0  0  0  0  0  0  0  0
    1.0324   -1.1923   -0.4477 C   0  0  0  0  0  0  0  0  0  0  0  0
    0.6026   -0.4760   -1.5481 O   0  0  0  0  0  0  0  0  0  0  0  0
    0.1374    0.7720   -1.0775 C   0  0  0  0  0  0  0  0  0  0  0  0
    1.1365    1.5043   -0.4784 O   0  0  0  0  0  0  0  0  0  0  0  0
    1.4730    0.8758    0.7262 C   0  0  0  0  0  0  0  0  0  0  0  0
   -1.7882   -0.8026   -1.3027 H   0  0  0  0  0  0  0  0  0  0  0  0
   -2.7417   -0.3296    0.1349 H   0  0  0  0  0  0  0  0  0  0  0  0
   -1.5023   -1.6545    0.2273 H   0  0  0  0  0  0  0  0  0  0  0  0
   -2.0324    1.4617    0.8482 H   0  0  0  0  0  0  0  0  0  0  0  0
    0.4819   -0.8617    1.6710 H   0  0  0  0  0  0  0  0  0  0  0  0
    2.1506   -1.2000   -0.4406 H   0  0  0  0  0  0  0  0  0  0  0  0
    0.6561   -2.2102   -0.4661 H   0  0  0  0  0  0  0  0  0  0  0  0
   -0.4799    1.2970   -1.7744 H   0  0  0  0  0  0  0  0  0  0  0  0
    2.5372    0.6565    0.7430 H   0  0  0  0  0  0  0  0  0  0  0  0
    1.1369    1.5388    1.5611 H   0  0  0  0  0  0  0  0  0  0  0  0
  1  2  1  0
  2  3  1  0
  2  4  1  0
  4  5  1  0
  5  6  1  0
  6  7  1  0
  7  8  1  0
  8  9  1  0
  7  2  1  0
  9  4  1  0
  1 10  1  0
  1 11  1  0
  1 12  1  0
  3 13  1  0
  4 14  1  0
  5 15  1  0
  5 16  1  0
  7 17  1  0
  9 18  1  0
  9 19  1  0
M  END
