
     RDKit          3D

 19 19  0  0  0  0  0  0  0  0999 V2000
    0.4603    1.5093    0.0725 C   0  0  0  0  0  0  0  0  0  0  0  0
    0.4111    0.0163   -0.0748 C   0  0  0  0  0  0  0  0  0  0  0  0
    1.7596   -0.5445   -0.3900 C   0  0  0  0  0  0  0  0  0  0  0  0
   -0.1894   -0.5541    1.1966 C   0  0  0  0  0  0  0  0  0  0  0  0
   -1.6364   -0.2859    0.9756 C   0  0  0  0  0  0  0  0  0  0  0  0
   -2.5359   -0.1898    1.8465 O   0  0  0  0  0  0  0  0  0  0  0  0
   -1.8608   -0.1461   -0.4578 C   0  0  0  0  0  0  0  0  0  0  0  0
   -2.9339    0.1684   -1.0309 O   0  0  0  0  0  0  0  0  0  0  0  0
   -0.5639   -0.4508   -1.1043 C   0  0  0  0  0  0  0  0  0  0  0  0
   -0.4820    1.8976    0.4991 H   0  0  0  0  0  0  0  0  0  0  0  0
    1.2624    1.7606    0.7788 H   0  0  0  0  0  0  0  0  0  0  0  0
    0.7202    1.9660   -0.8970 H   0  0  0  0  0  0  0  0  0  0  0  0
    2.2228    0.1239   -1.1597 H   0  0  0  0  0  0  0  0  0  0  0  0
    1.6682   -1.5619   -0.8408 H   0  0  0  0  0  0  0  0  0  0  0  0
    2.3751   -0.5291    0.5210 H   0  0  0  0  0  0  0  0  0  0  0  0
    0.2217    0.0180    2.0347 H   0  0  0  0  0  0  0  0  0  0  0  0
    0.0127   -1.6329    1.2815 H   0  0  0  0  0  0  0  0  0  0  0  0
   -0.4718   -1.5630   -1.1614 H   0  0  0  0  0  0  0  0  0  0  0  0
   -0.4399   -0.0020   -2.0897 H   0  0  0  0  0  0  0  0  0  0  0  0
  1  2  1  0
  2  3  1  0
  2  4  1  0
  4  5  1  0
  5  6  2  0
  5  7  1  0
  7  8  2  0
  7  9  1  0
  9  2  1  0
  1 10  1  0
  1 11  1  0
  1 12  1  0
  3 13  1  0
  3 14  1  0
  3 15  1  0
  4 16  1  0
  4 17  1  0
  9 18  1  0
  9 19  1  0
M  END
