
     RDKit          3D

 21 23  0  0  0  0  0  0  0  0999 V2000
   -1.7215    0.8798    0.7889 C   0  0  0  0  0  0  0  0  0  0  0  0
   -1.3174    0.0155   -0.3407 C   0  0  0  0  0  0  0  0  0  0  0  0
   -2.5043   -0.3291   -1.0587 O   0  0  0  0  0  0  0  0  0  0  0  0
   -0.3839   -1.1114   -0.2130 C   0  0  0  0  0  0  0  0  0  0  0  0
    0.7287   -1.1801    0.7558 C   0  0  0  0  0  0  0  0  0  0  0  0
    1.8361   -0.3946    0.1207 C   0  0  0  0  0  0  0  0  0  0  0  0
    1.7897    1.0698    0.4284 C   0  0  0  0  0  0  0  0  0  0  0  0
    1.2043    0.6337   -0.8076 C   0  0  0  0  0  0  0  0  0  0  0  0
   -0.0962    0.0652   -1.1192 C   0  0  0  0  0  0  0  0  0  0  0  0
   -1.0229    1.1507    1.5452 H   0  0  0  0  0  0  0  0  0  0  0  0
   -2.1653    1.8319    0.3755 H   0  0  0  0  0  0  0  0  0  0  0  0
   -2.5888    0.3795    1.3146 H   0  0  0  0  0  0  0  0  0  0  0  0
   -3.2215   -0.5822   -0.4558 H   0  0  0  0  0  0  0  0  0  0  0  0
   -0.6414   -2.1138   -0.6647 H   0  0  0  0  0  0  0  0  0  0  0  0
    0.4822   -0.7402    1.7615 H   0  0  0  0  0  0  0  0  0  0  0  0
    1.0888   -2.1904    0.9493 H   0  0  0  0  0  0  0  0  0  0  0  0
    2.7593   -0.8951   -0.1810 H   0  0  0  0  0  0  0  0  0  0  0  0
    2.8203    1.5410    0.3910 H   0  0  0  0  0  0  0  0  0  0  0  0
    1.3277    1.3519    1.3722 H   0  0  0  0  0  0  0  0  0  0  0  0
    1.8536    0.8538   -1.7220 H   0  0  0  0  0  0  0  0  0  0  0  0
   -0.2274   -0.2358   -2.2122 H   0  0  0  0  0  0  0  0  0  0  0  0
  1  2  1  0
  2  3  1  0
  2  4  1  0
  4  5  1  0
  5  6  1  0
  6  7  1  0
  7  8  1  0
  8  9  1  0
  9  2  1  0
  9  4  1  0
  8  6  1  0
  1 10  1  0
  1 11  1  0
  1 12  1  0
  3 13  1  0
  4 14  1  0
  5 15  1  0
  5 16  1  0
  6 17  1  0
  7 18  1  0
  7 19  1  0
  8 20  1  0
  9 21  1  0
M  END
