
     RDKit          3D

 17 17  0  0  0  0  0  0  0  0999 V2000
    0.9110    1.2006   -0.0147 C   0  0  0  0  0  0  0  0  0  0  0  0
    0.5918   -0.1752   -0.5467 C   0  0  0  0  0  0  0  0  0  0  0  0
    1.8075   -1.0483   -0.7615 C   0  0  0  0  0  0  0  0  0  0  0  0
   -0.2855   -0.2244   -1.6858 O   0  0  0  0  0  0  0  0  0  0  0  0
   -0.6761   -0.8154   -0.3786 C   0  0  0  0  0  0  0  0  0  0  0  0
   -1.9160   -0.1234    0.1328 C   0  0  0  0  0  0  0  0  0  0  0  0
   -1.7239    1.2257    0.3150 O   0  0  0  0  0  0  0  0  0  0  0  0
    0.4565    2.0004   -0.6290 H   0  0  0  0  0  0  0  0  0  0  0  0
    2.0104    1.4025   -0.0133 H   0  0  0  0  0  0  0  0  0  0  0  0
    0.5824    1.3151    1.0337 H   0  0  0  0  0  0  0  0  0  0  0  0
    1.5294   -2.0324   -1.1734 H   0  0  0  0  0  0  0  0  0  0  0  0
    2.4750   -0.4924   -1.4563 H   0  0  0  0  0  0  0  0  0  0  0  0
    2.3734   -1.1278    0.1977 H   0  0  0  0  0  0  0  0  0  0  0  0
   -0.7529   -1.9160   -0.4121 H   0  0  0  0  0  0  0  0  0  0  0  0
   -2.7748   -0.2668   -0.5725 H   0  0  0  0  0  0  0  0  0  0  0  0
   -2.2489   -0.5598    1.0947 H   0  0  0  0  0  0  0  0  0  0  0  0
   -2.3594    1.6376    0.9224 H   0  0  0  0  0  0  0  0  0  0  0  0
  1  2  1  0
  2  3  1  0
  2  4  1  0
  4  5  1  0
  5  6  1  0
  6  7  1  0
  5  2  1  0
  1  8  1  0
  1  9  1  0
  1 10  1  0
  3 11  1  0
  3 12  1  0
  3 13  1  0
  5 14  1  0
  6 15  1  0
  6 16  1  0
  7 17  1  0
M  END
