
     RDKit          3D

 17 17  0  0  0  0  0  0  0  0999 V2000
   -1.3588    0.1772   -0.9886 C   0  0  0  0  0  0  0  0  0  0  0  0
   -0.4188    0.0839    0.2000 C   0  0  0  0  0  0  0  0  0  0  0  0
   -1.1872   -0.3674    1.3822 C   0  0  0  0  0  0  0  0  0  0  0  0
   -1.4803    0.3380    2.3213 O   0  0  0  0  0  0  0  0  0  0  0  0
    0.6816   -0.8781   -0.1717 C   0  0  0  0  0  0  0  0  0  0  0  0
    1.9298   -0.0540   -0.2150 C   0  0  0  0  0  0  0  0  0  0  0  0
    1.4743    1.2663   -0.2448 O   0  0  0  0  0  0  0  0  0  0  0  0
    0.2415    1.3726    0.3793 C   0  0  0  0  0  0  0  0  0  0  0  0
   -0.1259    2.4237    0.9544 O   0  0  0  0  0  0  0  0  0  0  0  0
   -1.9223    1.1315   -0.9902 H   0  0  0  0  0  0  0  0  0  0  0  0
   -1.9988   -0.7094   -0.9767 H   0  0  0  0  0  0  0  0  0  0  0  0
   -0.7302    0.1419   -1.8950 H   0  0  0  0  0  0  0  0  0  0  0  0
   -1.5088   -1.3996    1.4078 H   0  0  0  0  0  0  0  0  0  0  0  0
    0.5401   -1.3127   -1.1952 H   0  0  0  0  0  0  0  0  0  0  0  0
    0.7431   -1.7376    0.5208 H   0  0  0  0  0  0  0  0  0  0  0  0
    2.5276   -0.2279   -1.1398 H   0  0  0  0  0  0  0  0  0  0  0  0
    2.5930   -0.2484    0.6510 H   0  0  0  0  0  0  0  0  0  0  0  0
  1  2  1  0
  2  3  1  0
  3  4  2  0
  2  5  1  0
  5  6  1  0
  6  7  1  0
  7  8  1  0
  8  9  2  0
  8  2  1  0
  1 10  1  0
  1 11  1  0
  1 12  1  0
  3 13  1  0
  5 14  1  0
  5 15  1  0
  6 16  1  0
  6 17  1  0
M  END
