
     RDKit          3D

 19 19  0  0  0  0  0  0  0  0999 V2000
   -0.7860   -1.3239   -0.6444 C   0  0  0  0  0  0  0  0  0  0  0  0
   -0.4531    0.1033   -0.3291 C   0  0  0  0  0  0  0  0  0  0  0  0
    0.9197    0.3528    0.1507 C   0  0  0  0  0  0  0  0  0  0  0  0
    1.2498    1.4819    0.4218 O   0  0  0  0  0  0  0  0  0  0  0  0
    1.8722   -0.7544    0.2972 C   0  0  0  0  0  0  0  0  0  0  0  0
    3.0983   -0.3088    0.7584 O   0  0  0  0  0  0  0  0  0  0  0  0
   -1.1635    1.2329   -0.9628 C   0  0  0  0  0  0  0  0  0  0  0  0
   -1.5978    0.8298    0.3992 C   0  0  0  0  0  0  0  0  0  0  0  0
   -1.1826    1.5558    1.5132 O   0  0  0  0  0  0  0  0  0  0  0  0
   -1.2611   -1.4631   -1.6243 H   0  0  0  0  0  0  0  0  0  0  0  0
    0.1317   -1.9817   -0.6239 H   0  0  0  0  0  0  0  0  0  0  0  0
   -1.4322   -1.7220    0.1673 H   0  0  0  0  0  0  0  0  0  0  0  0
    2.0592   -1.3097   -0.6421 H   0  0  0  0  0  0  0  0  0  0  0  0
    1.4706   -1.4846    1.0264 H   0  0  0  0  0  0  0  0  0  0  0  0
    3.6196    0.1229    0.0263 H   0  0  0  0  0  0  0  0  0  0  0  0
   -1.9042    1.1019   -1.7621 H   0  0  0  0  0  0  0  0  0  0  0  0
   -0.6236    2.2023   -1.0138 H   0  0  0  0  0  0  0  0  0  0  0  0
   -2.5598    0.3272    0.5136 H   0  0  0  0  0  0  0  0  0  0  0  0
   -1.4573    1.0376    2.3286 H   0  0  0  0  0  0  0  0  0  0  0  0
  1  2  1  0
  2  3  1  0
  3  4  2  0
  3  5  1  0
  5  6  1  0
  2  7  1  0
  7  8  1  0
  8  9  1  0
  8  2  1  0
  1 10  1  0
  1 11  1  0
  1 12  1  0
  5 13  1  0
  5 14  1  0
  6 15  1  0
  7 16  1  0
  7 17  1  0
  8 18  1  0
  9 19  1  0
M  END
