
     RDKit          3D

 23 23  0  0  0  0  0  0  0  0999 V2000
   -1.4446   -0.8222   -1.4011 C   0  0  0  0  0  0  0  0  0  0  0  0
   -1.1078    0.0656   -0.2229 C   0  0  0  0  0  0  0  0  0  0  0  0
   -2.3190    0.4318    0.6232 C   0  0  0  0  0  0  0  0  0  0  0  0
   -1.9934    1.2394    1.6897 O   0  0  0  0  0  0  0  0  0  0  0  0
   -0.1419    1.2051   -0.4060 C   0  0  0  0  0  0  0  0  0  0  0  0
    0.1980   -0.0220    0.4261 C   0  0  0  0  0  0  0  0  0  0  0  0
    1.3300   -0.8265   -0.0862 C   0  0  0  0  0  0  0  0  0  0  0  0
    2.5730   -0.7501    0.7655 C   0  0  0  0  0  0  0  0  0  0  0  0
    3.0426    0.5472    0.8649 O   0  0  0  0  0  0  0  0  0  0  0  0
   -2.4569   -1.2682   -1.3050 H   0  0  0  0  0  0  0  0  0  0  0  0
   -0.7374   -1.6671   -1.5134 H   0  0  0  0  0  0  0  0  0  0  0  0
   -1.4753   -0.2351   -2.3598 H   0  0  0  0  0  0  0  0  0  0  0  0
   -2.8924   -0.4786    0.9310 H   0  0  0  0  0  0  0  0  0  0  0  0
   -3.0014    1.0013   -0.0427 H   0  0  0  0  0  0  0  0  0  0  0  0
   -2.0499    2.2089    1.4211 H   0  0  0  0  0  0  0  0  0  0  0  0
    0.3568    1.3594   -1.3741 H   0  0  0  0  0  0  0  0  0  0  0  0
   -0.2950    2.1424    0.1638 H   0  0  0  0  0  0  0  0  0  0  0  0
    0.1932    0.1173    1.5401 H   0  0  0  0  0  0  0  0  0  0  0  0
    1.1033   -1.9105   -0.1997 H   0  0  0  0  0  0  0  0  0  0  0  0
    1.6009   -0.4796   -1.1022 H   0  0  0  0  0  0  0  0  0  0  0  0
    2.3734   -1.2001    1.7730 H   0  0  0  0  0  0  0  0  0  0  0  0
    3.3861   -1.3607    0.3202 H   0  0  0  0  0  0  0  0  0  0  0  0
    3.7580    0.7024    0.1964 H   0  0  0  0  0  0  0  0  0  0  0  0
  1  2  1  0
  2  3  1  0
  3  4  1  0
  2  5  1  0
  5  6  1  0
  6  7  1  0
  7  8  1  0
  8  9  1  0
  6  2  1  0
  1 10  1  0
  1 11  1  0
  1 12  1  0
  3 13  1  0
  3 14  1  0
  4 15  1  0
  5 16  1  0
  5 17  1  0
  6 18  1  0
  7 19  1  0
  7 20  1  0
  8 21  1  0
  8 22  1  0
  9 23  1  0
M  END
