
     RDKit          3D

 15 15  0  0  0  0  0  0  0  0999 V2000
   -1.2774   -0.7419    0.5922 C   0  0  0  0  0  0  0  0  0  0  0  0
   -0.4916    0.4337    0.0760 C   0  0  0  0  0  0  0  0  0  0  0  0
   -1.1721    1.6180    0.1145 O   0  0  0  0  0  0  0  0  0  0  0  0
    0.8225    0.4560    0.7526 C   0  0  0  0  0  0  0  0  0  0  0  0
    1.0734    1.0641    1.7708 O   0  0  0  0  0  0  0  0  0  0  0  0
    1.7029   -0.4032   -0.0812 C   0  0  0  0  0  0  0  0  0  0  0  0
    1.2650   -0.0710   -1.3967 O   0  0  0  0  0  0  0  0  0  0  0  0
   -0.0989    0.0994   -1.3361 C   0  0  0  0  0  0  0  0  0  0  0  0
   -0.9708    0.0135   -2.2506 O   0  0  0  0  0  0  0  0  0  0  0  0
   -1.6867   -0.5249    1.5836 H   0  0  0  0  0  0  0  0  0  0  0  0
   -0.5846   -1.6079    0.6284 H   0  0  0  0  0  0  0  0  0  0  0  0
   -2.0647   -0.9726   -0.1521 H   0  0  0  0  0  0  0  0  0  0  0  0
   -0.7467    2.2931   -0.4330 H   0  0  0  0  0  0  0  0  0  0  0  0
    1.4597   -1.4804    0.0546 H   0  0  0  0  0  0  0  0  0  0  0  0
    2.7701   -0.1759    0.0770 H   0  0  0  0  0  0  0  0  0  0  0  0
  1  2  1  0
  2  3  1  0
  2  4  1  0
  4  5  2  0
  4  6  1  0
  6  7  1  0
  7  8  1  0
  8  9  2  0
  8  2  1  0
  1 10  1  0
  1 11  1  0
  1 12  1  0
  3 13  1  0
  6 14  1  0
  6 15  1  0
M  END
