
     RDKit          3D

 25 26  0  0  0  0  0  0  0  0999 V2000
   -1.6530    1.2903    0.8230 C   0  0  0  0  0  0  0  0  0  0  0  0
   -1.2133    0.0113    0.1508 C   0  0  0  0  0  0  0  0  0  0  0  0
   -2.3698   -0.6963   -0.5571 C   0  0  0  0  0  0  0  0  0  0  0  0
   -0.2792   -0.9079    0.8547 C   0  0  0  0  0  0  0  0  0  0  0  0
    0.1259   -0.1552   -0.4106 C   0  0  0  0  0  0  0  0  0  0  0  0
    0.2251   -0.9236   -1.7031 C   0  0  0  0  0  0  0  0  0  0  0  0
    1.2307    0.8380   -0.1624 C   0  0  0  0  0  0  0  0  0  0  0  0
    2.5692    0.7028   -0.7039 C   0  0  0  0  0  0  0  0  0  0  0  0
    2.3552    0.2605    0.7087 C   0  0  0  0  0  0  0  0  0  0  0  0
   -2.4600    1.0198    1.5451 H   0  0  0  0  0  0  0  0  0  0  0  0
   -2.1038    1.9618    0.0756 H   0  0  0  0  0  0  0  0  0  0  0  0
   -0.8548    1.7998    1.3569 H   0  0  0  0  0  0  0  0  0  0  0  0
   -2.4490   -0.3917   -1.6098 H   0  0  0  0  0  0  0  0  0  0  0  0
   -2.2608   -1.8007   -0.5115 H   0  0  0  0  0  0  0  0  0  0  0  0
   -3.3350   -0.4801   -0.0124 H   0  0  0  0  0  0  0  0  0  0  0  0
   -0.3345   -2.0028    0.6978 H   0  0  0  0  0  0  0  0  0  0  0  0
    0.0852   -0.5654    1.8252 H   0  0  0  0  0  0  0  0  0  0  0  0
    1.2392   -1.0738   -2.0652 H   0  0  0  0  0  0  0  0  0  0  0  0
   -0.2177   -1.9531   -1.5706 H   0  0  0  0  0  0  0  0  0  0  0  0
   -0.3535   -0.4238   -2.5196 H   0  0  0  0  0  0  0  0  0  0  0  0
    0.8795    1.8316    0.1732 H   0  0  0  0  0  0  0  0  0  0  0  0
    2.8872   -0.0492   -1.4364 H   0  0  0  0  0  0  0  0  0  0  0  0
    3.1708    1.6499   -0.7846 H   0  0  0  0  0  0  0  0  0  0  0  0
    2.3931   -0.8152    0.8775 H   0  0  0  0  0  0  0  0  0  0  0  0
    2.7231    0.8731    1.5506 H   0  0  0  0  0  0  0  0  0  0  0  0
  1  2  1  0
  2  3  1  0
  2  4  1  0
  4  5  1  0
  5  6  1  0
  5  7  1  0
  7  8  1  0
  8  9  1  0
  5  2  1  0
  9  7  1  0
  1 10  1  0
  1 11  1  0
  1 12  1  0
  3 13  1  0
  3 14  1  0
  3 15  1  0
  4 16  1  0
  4 17  1  0
  6 18  1  0
  6 19  1  0
  6 20  1  0
  7 21  1  0
  8 22  1  0
  8 23  1  0
  9 24  1  0
  9 25  1  0
M  END
