
     RDKit          3D

 22 23  0  0  0  0  0  0  0  0999 V2000
   -1.1382    0.2951    1.3486 C   0  0  0  0  0  0  0  0  0  0  0  0
   -0.6741   -0.0125   -0.0477 C   0  0  0  0  0  0  0  0  0  0  0  0
   -1.8673   -0.2340   -0.9488 C   0  0  0  0  0  0  0  0  0  0  0  0
    0.3951    0.8869   -0.6016 C   0  0  0  0  0  0  0  0  0  0  0  0
    1.4399    0.9008    0.4715 C   0  0  0  0  0  0  0  0  0  0  0  0
    1.4125   -0.5942    0.8520 C   0  0  0  0  0  0  0  0  0  0  0  0
    0.3961   -1.0727   -0.1467 C   0  0  0  0  0  0  0  0  0  0  0  0
    0.8588   -0.3397   -1.4031 C   0  0  0  0  0  0  0  0  0  0  0  0
   -0.9197   -0.5783    2.0179 H   0  0  0  0  0  0  0  0  0  0  0  0
   -0.7300    1.2296    1.7613 H   0  0  0  0  0  0  0  0  0  0  0  0
   -2.2605    0.4084    1.4108 H   0  0  0  0  0  0  0  0  0  0  0  0
   -2.6159    0.5622   -0.6598 H   0  0  0  0  0  0  0  0  0  0  0  0
   -2.3612   -1.1908   -0.7098 H   0  0  0  0  0  0  0  0  0  0  0  0
   -1.6634   -0.0857   -2.0061 H   0  0  0  0  0  0  0  0  0  0  0  0
    0.1438    1.7608   -1.1377 H   0  0  0  0  0  0  0  0  0  0  0  0
    1.2358    1.5440    1.3169 H   0  0  0  0  0  0  0  0  0  0  0  0
    2.4044    1.1839    0.0330 H   0  0  0  0  0  0  0  0  0  0  0  0
    1.1360   -0.7431    1.8936 H   0  0  0  0  0  0  0  0  0  0  0  0
    2.3993   -1.0119    0.5676 H   0  0  0  0  0  0  0  0  0  0  0  0
    0.1352   -2.0909   -0.2164 H   0  0  0  0  0  0  0  0  0  0  0  0
    1.9714   -0.2761   -1.4881 H   0  0  0  0  0  0  0  0  0  0  0  0
    0.3020   -0.5417   -2.3072 H   0  0  0  0  0  0  0  0  0  0  0  0
  1  2  1  0
  2  3  1  0
  2  4  1  0
  4  5  1  0
  5  6  1  0
  6  7  1  0
  7  8  1  0
  7  2  1  0
  8  4  1  0
  1  9  1  0
  1 10  1  0
  1 11  1  0
  3 12  1  0
  3 13  1  0
  3 14  1  0
  4 15  1  0
  5 16  1  0
  5 17  1  0
  6 18  1  0
  6 19  1  0
  7 20  1  0
  8 21  1  0
  8 22  1  0
M  END
