
     RDKit          3D

 21 22  0  0  0  0  0  0  0  0999 V2000
   -1.4618    0.0853   -1.5326 C   0  0  0  0  0  0  0  0  0  0  0  0
   -1.0196    0.0129   -0.0923 C   0  0  0  0  0  0  0  0  0  0  0  0
   -2.2437   -0.2808    0.7442 C   0  0  0  0  0  0  0  0  0  0  0  0
   -0.1246   -1.0248    0.1030 O   0  0  0  0  0  0  0  0  0  0  0  0
    0.8797   -0.5654    0.9220 C   0  0  0  0  0  0  0  0  0  0  0  0
    2.2153   -0.6557    0.2383 C   0  0  0  0  0  0  0  0  0  0  0  0
    1.9055    0.6719   -0.4310 C   0  0  0  0  0  0  0  0  0  0  0  0
    0.8825    0.9154    0.6586 C   0  0  0  0  0  0  0  0  0  0  0  0
   -0.3955    1.1882    0.2322 O   0  0  0  0  0  0  0  0  0  0  0  0
   -2.2639   -0.6531   -1.7573 H   0  0  0  0  0  0  0  0  0  0  0  0
   -0.6459   -0.1158   -2.2502 H   0  0  0  0  0  0  0  0  0  0  0  0
   -1.8941    1.0841   -1.7669 H   0  0  0  0  0  0  0  0  0  0  0  0
   -3.1401    0.2576    0.4196 H   0  0  0  0  0  0  0  0  0  0  0  0
   -2.0246   -0.1292    1.8204 H   0  0  0  0  0  0  0  0  0  0  0  0
   -2.4436   -1.3847    0.6073 H   0  0  0  0  0  0  0  0  0  0  0  0
    0.8368   -0.8019    1.9808 H   0  0  0  0  0  0  0  0  0  0  0  0
    3.1044   -0.5790    0.8736 H   0  0  0  0  0  0  0  0  0  0  0  0
    2.2820   -1.5217   -0.4270 H   0  0  0  0  0  0  0  0  0  0  0  0
    2.7697    1.3753   -0.3790 H   0  0  0  0  0  0  0  0  0  0  0  0
    1.5023    0.6057   -1.4522 H   0  0  0  0  0  0  0  0  0  0  0  0
    1.2793    1.5156    1.4884 H   0  0  0  0  0  0  0  0  0  0  0  0
  1  2  1  0
  2  3  1  0
  2  4  1  0
  4  5  1  0
  5  6  1  0
  6  7  1  0
  7  8  1  0
  8  9  1  0
  9  2  1  0
  8  5  1  0
  1 10  1  0
  1 11  1  0
  1 12  1  0
  3 13  1  0
  3 14  1  0
  3 15  1  0
  5 16  1  0
  6 17  1  0
  6 18  1  0
  7 19  1  0
  7 20  1  0
  8 21  1  0
M  END
