
     RDKit          3D

 21 22  0  0  0  0  0  0  0  0999 V2000
    0.4807   -1.7737   -0.6358 C   0  0  0  0  0  0  0  0  0  0  0  0
   -0.1397   -0.6715    0.1539 C   0  0  0  0  0  0  0  0  0  0  0  0
   -1.4310   -1.1409    0.7651 C   0  0  0  0  0  0  0  0  0  0  0  0
    0.7615   -0.2601    1.1216 O   0  0  0  0  0  0  0  0  0  0  0  0
    1.6374    0.6354    0.5216 C   0  0  0  0  0  0  0  0  0  0  0  0
    0.8991    1.2840   -0.6208 C   0  0  0  0  0  0  0  0  0  0  0  0
    0.2546    2.4270   -0.1880 O   0  0  0  0  0  0  0  0  0  0  0  0
   -0.9038    1.7190    0.0916 C   0  0  0  0  0  0  0  0  0  0  0  0
   -0.4100    0.5437   -0.6769 C   0  0  0  0  0  0  0  0  0  0  0  0
    0.1231   -1.8620   -1.6703 H   0  0  0  0  0  0  0  0  0  0  0  0
    0.2473   -2.7349   -0.1046 H   0  0  0  0  0  0  0  0  0  0  0  0
    1.5836   -1.6449   -0.6287 H   0  0  0  0  0  0  0  0  0  0  0  0
   -2.0332   -1.6975    0.0310 H   0  0  0  0  0  0  0  0  0  0  0  0
   -2.0104   -0.2369    1.0441 H   0  0  0  0  0  0  0  0  0  0  0  0
   -1.2798   -1.7077    1.7170 H   0  0  0  0  0  0  0  0  0  0  0  0
    1.9333    1.4130    1.2546 H   0  0  0  0  0  0  0  0  0  0  0  0
    2.5684    0.1601    0.1592 H   0  0  0  0  0  0  0  0  0  0  0  0
    1.4460    1.3904   -1.5623 H   0  0  0  0  0  0  0  0  0  0  0  0
   -1.0218    1.5586    1.1782 H   0  0  0  0  0  0  0  0  0  0  0  0
   -1.8449    2.2009   -0.2917 H   0  0  0  0  0  0  0  0  0  0  0  0
   -0.8603    0.3980   -1.6586 H   0  0  0  0  0  0  0  0  0  0  0  0
  1  2  1  0
  2  3  1  0
  2  4  1  0
  4  5  1  0
  5  6  1  0
  6  7  1  0
  7  8  1  0
  8  9  1  0
  9  2  1  0
  9  6  1  0
  1 10  1  0
  1 11  1  0
  1 12  1  0
  3 13  1  0
  3 14  1  0
  3 15  1  0
  5 16  1  0
  5 17  1  0
  6 18  1  0
  8 19  1  0
  8 20  1  0
  9 21  1  0
M  END
