
     RDKit          3D

 17 17  0  0  0  0  0  0  0  0999 V2000
   -0.0813    1.9178    0.1687 C   0  0  0  0  0  0  0  0  0  0  0  0
    0.1746    0.4218    0.0734 C   0  0  0  0  0  0  0  0  0  0  0  0
    1.5584    0.1990    0.0716 O   0  0  0  0  0  0  0  0  0  0  0  0
    2.1613   -1.0257   -0.0027 C   0  0  0  0  0  0  0  0  0  0  0  0
    1.4673   -2.0458   -0.0758 O   0  0  0  0  0  0  0  0  0  0  0  0
   -0.5915   -0.2621   -1.0395 C   0  0  0  0  0  0  0  0  0  0  0  0
   -1.4127   -0.9750    0.0064 C   0  0  0  0  0  0  0  0  0  0  0  0
   -0.6186   -0.3058    1.0734 C   0  0  0  0  0  0  0  0  0  0  0  0
   -0.6726   -0.3881    2.2857 O   0  0  0  0  0  0  0  0  0  0  0  0
    0.5138    2.4244   -0.6329 H   0  0  0  0  0  0  0  0  0  0  0  0
    0.3602    2.2659    1.1317 H   0  0  0  0  0  0  0  0  0  0  0  0
   -1.1359    2.1793    0.1059 H   0  0  0  0  0  0  0  0  0  0  0  0
    3.2361   -1.1190    0.0011 H   0  0  0  0  0  0  0  0  0  0  0  0
    0.0448   -0.9239   -1.6321 H   0  0  0  0  0  0  0  0  0  0  0  0
   -1.2347    0.4458   -1.5975 H   0  0  0  0  0  0  0  0  0  0  0  0
   -2.4899   -0.7395    0.0026 H   0  0  0  0  0  0  0  0  0  0  0  0
   -1.2792   -2.0692    0.0600 H   0  0  0  0  0  0  0  0  0  0  0  0
  1  2  1  0
  2  3  1  0
  3  4  1  0
  4  5  2  0
  2  6  1  0
  6  7  1  0
  7  8  1  0
  8  9  2  0
  8  2  1  0
  1 10  1  0
  1 11  1  0
  1 12  1  0
  4 13  1  0
  6 14  1  0
  6 15  1  0
  7 16  1  0
  7 17  1  0
M  END
