
     RDKit          3D

 19 20  0  0  0  0  0  0  0  0999 V2000
    1.9630    0.6876   -0.7171 C   0  0  0  0  0  0  0  0  0  0  0  0
    1.0769   -0.0148    0.3282 C   0  0  0  0  0  0  0  0  0  0  0  0
    1.7704   -1.0890    1.0706 C   0  0  0  0  0  0  0  0  0  0  0  0
    2.7705   -1.5848    0.6302 O   0  0  0  0  0  0  0  0  0  0  0  0
    0.3443    0.9492    1.0650 O   0  0  0  0  0  0  0  0  0  0  0  0
   -0.2696    0.0541    0.1942 C   0  0  0  0  0  0  0  0  0  0  0  0
   -1.0517    0.5448   -0.9849 C   0  0  0  0  0  0  0  0  0  0  0  0
   -2.3092    0.1307   -0.2087 C   0  0  0  0  0  0  0  0  0  0  0  0
   -1.4251   -0.6898    0.7425 C   0  0  0  0  0  0  0  0  0  0  0  0
    2.7030    1.3154   -0.1830 H   0  0  0  0  0  0  0  0  0  0  0  0
    1.3283    1.3877   -1.2928 H   0  0  0  0  0  0  0  0  0  0  0  0
    2.3995   -0.0117   -1.4348 H   0  0  0  0  0  0  0  0  0  0  0  0
    1.3807   -1.4328    2.0161 H   0  0  0  0  0  0  0  0  0  0  0  0
   -0.8452   -0.1062   -1.8773 H   0  0  0  0  0  0  0  0  0  0  0  0
   -0.9864    1.6165   -1.2115 H   0  0  0  0  0  0  0  0  0  0  0  0
   -2.9874   -0.5029   -0.7720 H   0  0  0  0  0  0  0  0  0  0  0  0
   -2.7202    1.0428    0.2821 H   0  0  0  0  0  0  0  0  0  0  0  0
   -1.4755   -1.7732    0.5403 H   0  0  0  0  0  0  0  0  0  0  0  0
   -1.6662   -0.5236    1.8129 H   0  0  0  0  0  0  0  0  0  0  0  0
  1  2  1  0
  2  3  1  0
  3  4  2  0
  2  5  1  0
  5  6  1  0
  6  7  1  0
  7  8  1  0
  8  9  1  0
  6  2  1  0
  9  6  1  0
  1 10  1  0
  1 11  1  0
  1 12  1  0
  3 13  1  0
  7 14  1  0
  7 15  1  0
  8 16  1  0
  8 17  1  0
  9 18  1  0
  9 19  1  0
M  END
