
     RDKit          3D

 19 19  0  0  0  0  0  0  0  0999 V2000
    0.5717   -0.7697    1.3866 C   0  0  0  0  0  0  0  0  0  0  0  0
    0.1848    0.1494    0.2581 C   0  0  0  0  0  0  0  0  0  0  0  0
    1.1833    0.9863   -0.2343 O   0  0  0  0  0  0  0  0  0  0  0  0
    2.3724    0.5799   -0.7890 C   0  0  0  0  0  0  0  0  0  0  0  0
    2.6036   -0.6514   -0.8707 O   0  0  0  0  0  0  0  0  0  0  0  0
   -1.0116    1.0005    0.7057 C   0  0  0  0  0  0  0  0  0  0  0  0
   -1.6437    0.6798   -0.6274 C   0  0  0  0  0  0  0  0  0  0  0  0
   -0.6388   -0.4564   -0.8279 C   0  0  0  0  0  0  0  0  0  0  0  0
   -1.1916   -1.7000   -0.5350 O   0  0  0  0  0  0  0  0  0  0  0  0
    1.3057   -1.5192    1.0899 H   0  0  0  0  0  0  0  0  0  0  0  0
   -0.3597   -1.1856    1.8056 H   0  0  0  0  0  0  0  0  0  0  0  0
    1.0375   -0.1380    2.1844 H   0  0  0  0  0  0  0  0  0  0  0  0
    3.0525    1.3505   -1.1290 H   0  0  0  0  0  0  0  0  0  0  0  0
   -0.7657    2.0678    0.8644 H   0  0  0  0  0  0  0  0  0  0  0  0
   -1.5395    0.6097    1.5891 H   0  0  0  0  0  0  0  0  0  0  0  0
   -2.6607    0.2806   -0.5979 H   0  0  0  0  0  0  0  0  0  0  0  0
   -1.4877    1.5272   -1.3261 H   0  0  0  0  0  0  0  0  0  0  0  0
   -0.2335   -0.4028   -1.8562 H   0  0  0  0  0  0  0  0  0  0  0  0
   -0.7789   -2.4085   -1.0902 H   0  0  0  0  0  0  0  0  0  0  0  0
  1  2  1  0
  2  3  1  0
  3  4  1  0
  4  5  2  0
  2  6  1  0
  6  7  1  0
  7  8  1  0
  8  9  1  0
  8  2  1  0
  1 10  1  0
  1 11  1  0
  1 12  1  0
  4 13  1  0
  6 14  1  0
  6 15  1  0
  7 16  1  0
  7 17  1  0
  8 18  1  0
  9 19  1  0
M  END
