
     RDKit          3D

 23 24  0  0  0  0  0  0  0  0999 V2000
   -1.9351   -0.3383   -1.2338 C   0  0  0  0  0  0  0  0  0  0  0  0
   -0.9852   -0.0882   -0.1052 C   0  0  0  0  0  0  0  0  0  0  0  0
   -1.5807    0.8310    0.9179 C   0  0  0  0  0  0  0  0  0  0  0  0
   -0.4954   -1.3735    0.5421 C   0  0  0  0  0  0  0  0  0  0  0  0
    0.6093   -0.8722    1.2692 O   0  0  0  0  0  0  0  0  0  0  0  0
    1.3074   -0.1340    0.3545 C   0  0  0  0  0  0  0  0  0  0  0  0
    2.6966   -0.5170   -0.0419 C   0  0  0  0  0  0  0  0  0  0  0  0
    1.0418    1.3747    0.2742 C   0  0  0  0  0  0  0  0  0  0  0  0
    0.3492    0.4505   -0.6353 C   0  0  0  0  0  0  0  0  0  0  0  0
   -1.4060   -0.7246   -2.1443 H   0  0  0  0  0  0  0  0  0  0  0  0
   -2.4040    0.6339   -1.4967 H   0  0  0  0  0  0  0  0  0  0  0  0
   -2.7482   -1.0125   -0.9406 H   0  0  0  0  0  0  0  0  0  0  0  0
   -2.6703    0.6429    0.9993 H   0  0  0  0  0  0  0  0  0  0  0  0
   -1.4742    1.9037    0.6475 H   0  0  0  0  0  0  0  0  0  0  0  0
   -1.0705    0.6188    1.8864 H   0  0  0  0  0  0  0  0  0  0  0  0
   -1.2331   -1.8452    1.1835 H   0  0  0  0  0  0  0  0  0  0  0  0
   -0.0785   -2.0215   -0.2521 H   0  0  0  0  0  0  0  0  0  0  0  0
    2.7926   -1.5824   -0.3393 H   0  0  0  0  0  0  0  0  0  0  0  0
    2.9791    0.0889   -0.9313 H   0  0  0  0  0  0  0  0  0  0  0  0
    3.4315   -0.2869    0.7837 H   0  0  0  0  0  0  0  0  0  0  0  0
    0.5086    1.8421    1.1269 H   0  0  0  0  0  0  0  0  0  0  0  0
    1.8140    2.0199   -0.1619 H   0  0  0  0  0  0  0  0  0  0  0  0
    0.5511    0.3897   -1.7029 H   0  0  0  0  0  0  0  0  0  0  0  0
  1  2  1  0
  2  3  1  0
  2  4  1  0
  4  5  1  0
  5  6  1  0
  6  7  1  0
  6  8  1  0
  8  9  1  0
  9  2  1  0
  9  6  1  0
  1 10  1  0
  1 11  1  0
  1 12  1  0
  3 13  1  0
  3 14  1  0
  3 15  1  0
  4 16  1  0
  4 17  1  0
  7 18  1  0
  7 19  1  0
  7 20  1  0
  8 21  1  0
  8 22  1  0
  9 23  1  0
M  END
