
     RDKit          3D

 19 19  0  0  0  0  0  0  0  0999 V2000
   -1.6622    0.2365    1.0372 C   0  0  0  0  0  0  0  0  0  0  0  0
   -0.7745   -0.0707   -0.1812 C   0  0  0  0  0  0  0  0  0  0  0  0
   -1.7428   -0.3015   -1.3082 C   0  0  0  0  0  0  0  0  0  0  0  0
   -2.4399    0.6125   -1.7120 O   0  0  0  0  0  0  0  0  0  0  0  0
    0.0159    1.1125   -0.4493 C   0  0  0  0  0  0  0  0  0  0  0  0
    1.3271    1.1351   -0.3695 C   0  0  0  0  0  0  0  0  0  0  0  0
    2.0199   -0.1122    0.0130 C   0  0  0  0  0  0  0  0  0  0  0  0
    1.1629   -1.2271    0.4312 C   0  0  0  0  0  0  0  0  0  0  0  0
   -0.1367   -1.2261    0.0678 O   0  0  0  0  0  0  0  0  0  0  0  0
   -1.9892    1.2936    1.0248 H   0  0  0  0  0  0  0  0  0  0  0  0
   -1.0919   -0.0245    1.9480 H   0  0  0  0  0  0  0  0  0  0  0  0
   -2.5310   -0.4547    0.9941 H   0  0  0  0  0  0  0  0  0  0  0  0
   -1.8639   -1.2596   -1.7997 H   0  0  0  0  0  0  0  0  0  0  0  0
   -0.4878    2.0302   -0.7305 H   0  0  0  0  0  0  0  0  0  0  0  0
    1.9261    2.0112   -0.5671 H   0  0  0  0  0  0  0  0  0  0  0  0
    2.6854   -0.4186   -0.8454 H   0  0  0  0  0  0  0  0  0  0  0  0
    2.7540    0.1745    0.8223 H   0  0  0  0  0  0  0  0  0  0  0  0
    1.2074   -1.3177    1.5560 H   0  0  0  0  0  0  0  0  0  0  0  0
    1.6212   -2.1934    0.0685 H   0  0  0  0  0  0  0  0  0  0  0  0
  1  2  1  0
  2  3  1  0
  3  4  2  0
  2  5  1  0
  5  6  2  0
  6  7  1  0
  7  8  1  0
  8  9  1  0
  9  2  1  0
  1 10  1  0
  1 11  1  0
  1 12  1  0
  3 13  1  0
  5 14  1  0
  6 15  1  0
  7 16  1  0
  7 17  1  0
  8 18  1  0
  8 19  1  0
M  END
