
     RDKit          3D

 19 20  0  0  0  0  0  0  0  0999 V2000
   -1.3399    0.7008   -1.0342 C   0  0  0  0  0  0  0  0  0  0  0  0
   -0.4114    0.1193    0.0113 C   0  0  0  0  0  0  0  0  0  0  0  0
   -1.1206   -0.2868    1.2627 C   0  0  0  0  0  0  0  0  0  0  0  0
    0.7073    1.0533    0.3786 C   0  0  0  0  0  0  0  0  0  0  0  0
    1.9140    0.2201    0.2497 C   0  0  0  0  0  0  0  0  0  0  0  0
    3.0507    0.5171    0.5670 O   0  0  0  0  0  0  0  0  0  0  0  0
    1.5618   -1.0985   -0.3462 C   0  0  0  0  0  0  0  0  0  0  0  0
    1.1018   -0.9207   -1.6954 O   0  0  0  0  0  0  0  0  0  0  0  0
    0.2243   -1.1198   -0.5998 C   0  0  0  0  0  0  0  0  0  0  0  0
   -0.8258    1.4795   -1.5983 H   0  0  0  0  0  0  0  0  0  0  0  0
   -2.2508    1.0246   -0.5098 H   0  0  0  0  0  0  0  0  0  0  0  0
   -1.6497   -0.0833   -1.7614 H   0  0  0  0  0  0  0  0  0  0  0  0
   -2.2270   -0.1750    1.0852 H   0  0  0  0  0  0  0  0  0  0  0  0
   -0.9101    0.4199    2.1113 H   0  0  0  0  0  0  0  0  0  0  0  0
   -0.8768   -1.2858    1.6323 H   0  0  0  0  0  0  0  0  0  0  0  0
    0.6401    1.3688    1.4601 H   0  0  0  0  0  0  0  0  0  0  0  0
    0.7112    1.9588   -0.2527 H   0  0  0  0  0  0  0  0  0  0  0  0
    2.2024   -1.9762   -0.1539 H   0  0  0  0  0  0  0  0  0  0  0  0
   -0.5011   -1.9161   -0.8065 H   0  0  0  0  0  0  0  0  0  0  0  0
  1  2  1  0
  2  3  1  0
  2  4  1  0
  4  5  1  0
  5  6  2  0
  5  7  1  0
  7  8  1  0
  8  9  1  0
  9  2  1  0
  9  7  1  0
  1 10  1  0
  1 11  1  0
  1 12  1  0
  3 13  1  0
  3 14  1  0
  3 15  1  0
  4 16  1  0
  4 17  1  0
  7 18  1  0
  9 19  1  0
M  END
