
     RDKit          3D

 23 24  0  0  0  0  0  0  0  0999 V2000
    1.3393    0.0903   -1.3310 C   0  0  0  0  0  0  0  0  0  0  0  0
    0.7214   -0.1183    0.0577 C   0  0  0  0  0  0  0  0  0  0  0  0
    1.5666    0.6044    1.0959 C   0  0  0  0  0  0  0  0  0  0  0  0
    0.6972   -1.5706    0.2658 C   0  0  0  0  0  0  0  0  0  0  0  0
   -0.5351   -2.0115    0.2268 C   0  0  0  0  0  0  0  0  0  0  0  0
   -1.4974   -0.9213   -0.0097 C   0  0  0  0  0  0  0  0  0  0  0  0
   -1.6590    0.0034    1.1513 C   0  0  0  0  0  0  0  0  0  0  0  0
   -0.6700    0.3625    0.1178 C   0  0  0  0  0  0  0  0  0  0  0  0
   -1.0233    1.4789   -0.8497 C   0  0  0  0  0  0  0  0  0  0  0  0
    0.9316    0.9790   -1.8350 H   0  0  0  0  0  0  0  0  0  0  0  0
    2.4206    0.2945   -1.1467 H   0  0  0  0  0  0  0  0  0  0  0  0
    1.2274   -0.8140   -1.9576 H   0  0  0  0  0  0  0  0  0  0  0  0
    2.1757   -0.1360    1.6326 H   0  0  0  0  0  0  0  0  0  0  0  0
    0.9245    1.0992    1.8590 H   0  0  0  0  0  0  0  0  0  0  0  0
    2.1618    1.4008    0.6084 H   0  0  0  0  0  0  0  0  0  0  0  0
    1.6109   -2.2044    0.4340 H   0  0  0  0  0  0  0  0  0  0  0  0
   -0.8310   -3.0500    0.3513 H   0  0  0  0  0  0  0  0  0  0  0  0
   -2.2389   -0.9763   -0.8149 H   0  0  0  0  0  0  0  0  0  0  0  0
   -1.3812   -0.3765    2.1513 H   0  0  0  0  0  0  0  0  0  0  0  0
   -2.5661    0.6549    1.1885 H   0  0  0  0  0  0  0  0  0  0  0  0
   -0.2811    2.2738   -0.8319 H   0  0  0  0  0  0  0  0  0  0  0  0
   -1.9831    1.9115   -0.5092 H   0  0  0  0  0  0  0  0  0  0  0  0
   -1.1109    1.0257   -1.8548 H   0  0  0  0  0  0  0  0  0  0  0  0
  1  2  1  0
  2  3  1  0
  2  4  1  0
  4  5  2  0
  5  6  1  0
  6  7  1  0
  7  8  1  0
  8  9  1  0
  8  2  1  0
  8  6  1  0
  1 10  1  0
  1 11  1  0
  1 12  1  0
  3 13  1  0
  3 14  1  0
  3 15  1  0
  4 16  1  0
  5 17  1  0
  6 18  1  0
  7 19  1  0
  7 20  1  0
  9 21  1  0
  9 22  1  0
  9 23  1  0
M  END
