
     RDKit          3D

 21 21  0  0  0  0  0  0  0  0999 V2000
    1.4600    0.0241    1.1303 C   0  0  0  0  0  0  0  0  0  0  0  0
    0.4888    0.1671   -0.0236 C   0  0  0  0  0  0  0  0  0  0  0  0
    0.6597    1.4732   -0.7284 C   0  0  0  0  0  0  0  0  0  0  0  0
    0.6123   -0.9496   -1.0249 C   0  0  0  0  0  0  0  0  0  0  0  0
   -0.3087   -1.9078   -0.7320 O   0  0  0  0  0  0  0  0  0  0  0  0
   -1.0462   -1.5318    0.3593 C   0  0  0  0  0  0  0  0  0  0  0  0
   -0.8926   -0.0392    0.5311 C   0  0  0  0  0  0  0  0  0  0  0  0
   -1.9346    0.7173   -0.2210 C   0  0  0  0  0  0  0  0  0  0  0  0
   -1.9294    1.9289   -0.0875 O   0  0  0  0  0  0  0  0  0  0  0  0
    1.4673   -1.0294    1.4391 H   0  0  0  0  0  0  0  0  0  0  0  0
    2.4314    0.4742    0.9496 H   0  0  0  0  0  0  0  0  0  0  0  0
    0.9898    0.5880    1.9877 H   0  0  0  0  0  0  0  0  0  0  0  0
    0.3782    2.3542   -0.1407 H   0  0  0  0  0  0  0  0  0  0  0  0
    0.1280    1.4170   -1.7182 H   0  0  0  0  0  0  0  0  0  0  0  0
    1.7384    1.5632   -0.9971 H   0  0  0  0  0  0  0  0  0  0  0  0
    0.3542   -0.5352   -2.0436 H   0  0  0  0  0  0  0  0  0  0  0  0
    1.6552   -1.2720   -1.0616 H   0  0  0  0  0  0  0  0  0  0  0  0
   -0.5452   -1.9935    1.2612 H   0  0  0  0  0  0  0  0  0  0  0  0
   -2.0831   -1.8683    0.3686 H   0  0  0  0  0  0  0  0  0  0  0  0
   -0.9754    0.2171    1.5980 H   0  0  0  0  0  0  0  0  0  0  0  0
   -2.6481    0.2027   -0.8461 H   0  0  0  0  0  0  0  0  0  0  0  0
  1  2  1  0
  2  3  1  0
  2  4  1  0
  4  5  1  0
  5  6  1  0
  6  7  1  0
  7  8  1  0
  8  9  2  0
  7  2  1  0
  1 10  1  0
  1 11  1  0
  1 12  1  0
  3 13  1  0
  3 14  1  0
  3 15  1  0
  4 16  1  0
  4 17  1  0
  6 18  1  0
  6 19  1  0
  7 20  1  0
  8 21  1  0
M  END
