
     RDKit          3D

 19 19  0  0  0  0  0  0  0  0999 V2000
    1.6241    0.9160   -0.3555 C   0  0  0  0  0  0  0  0  0  0  0  0
    0.5902    0.0618    0.3647 C   0  0  0  0  0  0  0  0  0  0  0  0
    1.3132   -0.5722    1.5284 C   0  0  0  0  0  0  0  0  0  0  0  0
    2.2408   -1.3247    1.3010 O   0  0  0  0  0  0  0  0  0  0  0  0
    0.1399   -1.0398   -0.5268 C   0  0  0  0  0  0  0  0  0  0  0  0
   -1.3547   -1.1815   -0.5662 C   0  0  0  0  0  0  0  0  0  0  0  0
   -2.1264   -0.1366   -0.2975 C   0  0  0  0  0  0  0  0  0  0  0  0
   -1.4344    1.1356    0.0326 C   0  0  0  0  0  0  0  0  0  0  0  0
   -0.3946    0.8509    0.8789 O   0  0  0  0  0  0  0  0  0  0  0  0
    1.2549    1.9478   -0.5348 H   0  0  0  0  0  0  0  0  0  0  0  0
    1.8634    0.4890   -1.3568 H   0  0  0  0  0  0  0  0  0  0  0  0
    2.5658    1.0062    0.2100 H   0  0  0  0  0  0  0  0  0  0  0  0
    1.0363   -0.3815    2.5542 H   0  0  0  0  0  0  0  0  0  0  0  0
    0.4931   -0.8855   -1.5884 H   0  0  0  0  0  0  0  0  0  0  0  0
    0.5300   -2.0419   -0.2351 H   0  0  0  0  0  0  0  0  0  0  0  0
   -1.8361   -2.1217   -0.8101 H   0  0  0  0  0  0  0  0  0  0  0  0
   -3.2046   -0.2190   -0.3208 H   0  0  0  0  0  0  0  0  0  0  0  0
   -2.1509    1.7865    0.5918 H   0  0  0  0  0  0  0  0  0  0  0  0
   -1.1499    1.7106   -0.8697 H   0  0  0  0  0  0  0  0  0  0  0  0
  1  2  1  0
  2  3  1  0
  3  4  2  0
  2  5  1  0
  5  6  1  0
  6  7  2  0
  7  8  1  0
  8  9  1  0
  9  2  1  0
  1 10  1  0
  1 11  1  0
  1 12  1  0
  3 13  1  0
  5 14  1  0
  5 15  1  0
  6 16  1  0
  7 17  1  0
  8 18  1  0
  8 19  1  0
M  END
