
     RDKit          3D

 21 22  0  0  0  0  0  0  0  0999 V2000
   -1.4797    0.1069    1.0088 C   0  0  0  0  0  0  0  0  0  0  0  0
   -0.4827   -0.1172   -0.1245 C   0  0  0  0  0  0  0  0  0  0  0  0
   -1.0972   -0.9553   -1.2002 C   0  0  0  0  0  0  0  0  0  0  0  0
    0.1550    1.1637   -0.5414 C   0  0  0  0  0  0  0  0  0  0  0  0
   -0.5294    2.2820   -0.1481 O   0  0  0  0  0  0  0  0  0  0  0  0
    1.3275    0.7658    0.3622 C   0  0  0  0  0  0  0  0  0  0  0  0
    2.1177   -0.3395   -0.1754 C   0  0  0  0  0  0  0  0  0  0  0  0
    0.8054   -0.6226    0.3974 C   0  0  0  0  0  0  0  0  0  0  0  0
    0.7494   -1.3708    1.5483 O   0  0  0  0  0  0  0  0  0  0  0  0
   -1.6316    1.1898    1.1801 H   0  0  0  0  0  0  0  0  0  0  0  0
   -2.4600   -0.3576    0.7954 H   0  0  0  0  0  0  0  0  0  0  0  0
   -1.0833   -0.2999    1.9677 H   0  0  0  0  0  0  0  0  0  0  0  0
   -1.9389   -0.3828   -1.6434 H   0  0  0  0  0  0  0  0  0  0  0  0
   -0.3469   -1.2812   -1.9373 H   0  0  0  0  0  0  0  0  0  0  0  0
   -1.5590   -1.8437   -0.6854 H   0  0  0  0  0  0  0  0  0  0  0  0
    0.4491    1.1137   -1.6196 H   0  0  0  0  0  0  0  0  0  0  0  0
   -0.4339    3.0491   -0.7839 H   0  0  0  0  0  0  0  0  0  0  0  0
    1.5525    1.3455    1.2452 H   0  0  0  0  0  0  0  0  0  0  0  0
    2.2255   -0.4551   -1.2811 H   0  0  0  0  0  0  0  0  0  0  0  0
    2.9993   -0.6558    0.3781 H   0  0  0  0  0  0  0  0  0  0  0  0
    0.6611   -2.3350    1.2571 H   0  0  0  0  0  0  0  0  0  0  0  0
  1  2  1  0
  2  3  1  0
  2  4  1  0
  4  5  1  0
  4  6  1  0
  6  7  1  0
  7  8  1  0
  8  9  1  0
  8  2  1  0
  8  6  1  0
  1 10  1  0
  1 11  1  0
  1 12  1  0
  3 13  1  0
  3 14  1  0
  3 15  1  0
  4 16  1  0
  5 17  1  0
  6 18  1  0
  7 19  1  0
  7 20  1  0
  9 21  1  0
M  END
