
     RDKit          3D

 18 19  0  0  0  0  0  0  0  0999 V2000
   -0.5511   -0.6723    1.3087 C   0  0  0  0  0  0  0  0  0  0  0  0
   -0.2286   -0.1193   -0.0618 C   0  0  0  0  0  0  0  0  0  0  0  0
    1.1679   -0.3602   -0.5437 C   0  0  0  0  0  0  0  0  0  0  0  0
    2.3311    0.1076    0.1281 C   0  0  0  0  0  0  0  0  0  0  0  0
    1.9369   -1.3331    0.2320 O   0  0  0  0  0  0  0  0  0  0  0  0
   -1.3625   -0.3676   -1.0789 C   0  0  0  0  0  0  0  0  0  0  0  0
   -0.9576    1.0090   -0.6347 C   0  0  0  0  0  0  0  0  0  0  0  0
   -1.8960    1.7448    0.1109 O   0  0  0  0  0  0  0  0  0  0  0  0
   -0.7575   -1.7596    1.1717 H   0  0  0  0  0  0  0  0  0  0  0  0
    0.2792   -0.5615    2.0121 H   0  0  0  0  0  0  0  0  0  0  0  0
   -1.4934   -0.2241    1.6764 H   0  0  0  0  0  0  0  0  0  0  0  0
    1.2546   -0.6632   -1.6224 H   0  0  0  0  0  0  0  0  0  0  0  0
    3.3043    0.1160   -0.4040 H   0  0  0  0  0  0  0  0  0  0  0  0
    2.2490    0.6046    1.1217 H   0  0  0  0  0  0  0  0  0  0  0  0
   -1.0294   -0.7671   -2.0514 H   0  0  0  0  0  0  0  0  0  0  0  0
   -2.3252   -0.7160   -0.7119 H   0  0  0  0  0  0  0  0  0  0  0  0
   -0.4636    1.6166   -1.4114 H   0  0  0  0  0  0  0  0  0  0  0  0
   -1.4580    2.3454    0.7585 H   0  0  0  0  0  0  0  0  0  0  0  0
  1  2  1  0
  2  3  1  0
  3  4  1  0
  4  5  1  0
  2  6  1  0
  6  7  1  0
  7  8  1  0
  7  2  1  0
  5  3  1  0
  1  9  1  0
  1 10  1  0
  1 11  1  0
  3 12  1  0
  4 13  1  0
  4 14  1  0
  6 15  1  0
  6 16  1  0
  7 17  1  0
  8 18  1  0
M  END
