
     RDKit          3D

 23 24  0  0  0  0  0  0  0  0999 V2000
    1.5335    0.4964   -0.8634 C   0  0  0  0  0  0  0  0  0  0  0  0
    0.8306   -0.2235    0.2609 C   0  0  0  0  0  0  0  0  0  0  0  0
    1.8309   -0.9954    1.0499 C   0  0  0  0  0  0  0  0  0  0  0  0
    0.1623    0.8296    1.1204 C   0  0  0  0  0  0  0  0  0  0  0  0
   -0.5306    1.6648    0.2981 O   0  0  0  0  0  0  0  0  0  0  0  0
   -1.5012    1.1004   -0.4622 C   0  0  0  0  0  0  0  0  0  0  0  0
   -2.4728    0.1497    0.2857 C   0  0  0  0  0  0  0  0  0  0  0  0
   -1.4782   -0.3246   -0.7027 C   0  0  0  0  0  0  0  0  0  0  0  0
   -0.2676   -1.0869   -0.3069 C   0  0  0  0  0  0  0  0  0  0  0  0
    1.3603    0.0093   -1.8509 H   0  0  0  0  0  0  0  0  0  0  0  0
    2.6083    0.5849   -0.6346 H   0  0  0  0  0  0  0  0  0  0  0  0
    1.1274    1.5407   -0.9889 H   0  0  0  0  0  0  0  0  0  0  0  0
    2.4989   -0.2656    1.5657 H   0  0  0  0  0  0  0  0  0  0  0  0
    2.4791   -1.6120    0.4134 H   0  0  0  0  0  0  0  0  0  0  0  0
    1.4034   -1.6346    1.8304 H   0  0  0  0  0  0  0  0  0  0  0  0
    0.9945    1.4164    1.5872 H   0  0  0  0  0  0  0  0  0  0  0  0
   -0.4083    0.3991    1.9575 H   0  0  0  0  0  0  0  0  0  0  0  0
   -1.9862    1.8170   -1.1821 H   0  0  0  0  0  0  0  0  0  0  0  0
   -3.5426    0.2652   -0.0194 H   0  0  0  0  0  0  0  0  0  0  0  0
   -2.3335    0.0808    1.3628 H   0  0  0  0  0  0  0  0  0  0  0  0
   -1.9375   -0.6762   -1.6738 H   0  0  0  0  0  0  0  0  0  0  0  0
    0.1721   -1.6323   -1.1718 H   0  0  0  0  0  0  0  0  0  0  0  0
   -0.5428   -1.9032    0.4246 H   0  0  0  0  0  0  0  0  0  0  0  0
  1  2  1  0
  2  3  1  0
  2  4  1  0
  4  5  1  0
  5  6  1  0
  6  7  1  0
  7  8  1  0
  8  9  1  0
  9  2  1  0
  8  6  1  0
  1 10  1  0
  1 11  1  0
  1 12  1  0
  3 13  1  0
  3 14  1  0
  3 15  1  0
  4 16  1  0
  4 17  1  0
  6 18  1  0
  7 19  1  0
  7 20  1  0
  8 21  1  0
  9 22  1  0
  9 23  1  0
M  END
