
     RDKit          3D

 17 18  0  0  0  0  0  0  0  0999 V2000
   -0.9226   -1.3860    0.5164 C   0  0  0  0  0  0  0  0  0  0  0  0
   -0.4828   -0.0011    0.0029 C   0  0  0  0  0  0  0  0  0  0  0  0
   -1.6997    0.9375    0.0027 C   0  0  0  0  0  0  0  0  0  0  0  0
    0.8064    0.4086    0.5075 C   0  0  0  0  0  0  0  0  0  0  0  0
    2.1506    0.1534   -0.1946 C   0  0  0  0  0  0  0  0  0  0  0  0
    1.5526    1.0369   -1.1356 O   0  0  0  0  0  0  0  0  0  0  0  0
    0.4940    0.1233   -1.0176 C   0  0  0  0  0  0  0  0  0  0  0  0
   -0.9875   -1.3584    1.6301 H   0  0  0  0  0  0  0  0  0  0  0  0
   -1.8839   -1.6842    0.0598 H   0  0  0  0  0  0  0  0  0  0  0  0
   -0.0905   -2.0701    0.2003 H   0  0  0  0  0  0  0  0  0  0  0  0
   -1.5361    1.8260   -0.6050 H   0  0  0  0  0  0  0  0  0  0  0  0
   -2.6181    0.3834   -0.2466 H   0  0  0  0  0  0  0  0  0  0  0  0
   -1.7878    1.2736    1.0721 H   0  0  0  0  0  0  0  0  0  0  0  0
    0.8065    1.5146    0.7739 H   0  0  0  0  0  0  0  0  0  0  0  0
    2.3223   -0.8612   -0.5360 H   0  0  0  0  0  0  0  0  0  0  0  0
    2.9862    0.5773    0.3600 H   0  0  0  0  0  0  0  0  0  0  0  0
    0.8903   -0.8735   -1.3903 H   0  0  0  0  0  0  0  0  0  0  0  0
  1  2  1  0
  2  3  1  0
  2  4  1  0
  4  5  1  0
  5  6  1  0
  6  7  1  0
  7  2  1  0
  7  4  1  0
  1  8  1  0
  1  9  1  0
  1 10  1  0
  3 11  1  0
  3 12  1  0
  3 13  1  0
  4 14  1  0
  5 15  1  0
  5 16  1  0
  7 17  1  0
M  END
