
     RDKit          3D

 19 20  0  0  0  0  0  0  0  0999 V2000
    1.5425    0.4317   -1.2462 C   0  0  0  0  0  0  0  0  0  0  0  0
    0.8656   -0.3898   -0.1690 C   0  0  0  0  0  0  0  0  0  0  0  0
    1.3472   -1.6823    0.0701 O   0  0  0  0  0  0  0  0  0  0  0  0
    0.2178    0.2926    0.9864 C   0  0  0  0  0  0  0  0  0  0  0  0
   -0.3535    1.6713    0.7434 C   0  0  0  0  0  0  0  0  0  0  0  0
   -1.2591    1.0454   -0.2573 C   0  0  0  0  0  0  0  0  0  0  0  0
   -2.1690    1.4877   -0.9294 O   0  0  0  0  0  0  0  0  0  0  0  0
   -0.6231   -0.2646   -0.0991 C   0  0  0  0  0  0  0  0  0  0  0  0
   -1.4380   -1.5065    0.0950 C   0  0  0  0  0  0  0  0  0  0  0  0
    1.0007    0.4098   -2.2088 H   0  0  0  0  0  0  0  0  0  0  0  0
    1.7076    1.4837   -0.9365 H   0  0  0  0  0  0  0  0  0  0  0  0
    2.5614   -0.0264   -1.3809 H   0  0  0  0  0  0  0  0  0  0  0  0
    1.6628   -1.7581    1.0167 H   0  0  0  0  0  0  0  0  0  0  0  0
    0.2346   -0.1271    1.9975 H   0  0  0  0  0  0  0  0  0  0  0  0
    0.3633    2.4042    0.3256 H   0  0  0  0  0  0  0  0  0  0  0  0
   -0.8478    2.1094    1.6292 H   0  0  0  0  0  0  0  0  0  0  0  0
   -2.3624   -1.3676    0.6587 H   0  0  0  0  0  0  0  0  0  0  0  0
   -1.6216   -1.9489   -0.9268 H   0  0  0  0  0  0  0  0  0  0  0  0
   -0.8291   -2.2647    0.6315 H   0  0  0  0  0  0  0  0  0  0  0  0
  1  2  1  0
  2  3  1  0
  2  4  1  0
  4  5  1  0
  5  6  1  0
  6  7  2  0
  6  8  1  0
  8  9  1  0
  8  2  1  0
  8  4  1  0
  1 10  1  0
  1 11  1  0
  1 12  1  0
  3 13  1  0
  4 14  1  0
  5 15  1  0
  5 16  1  0
  9 17  1  0
  9 18  1  0
  9 19  1  0
M  END
