
     RDKit          3D

 19 20  0  0  0  0  0  0  0  0999 V2000
   -2.2808    0.3511    0.2190 C   0  0  0  0  0  0  0  0  0  0  0  0
   -1.0155   -0.4686   -0.0531 C   0  0  0  0  0  0  0  0  0  0  0  0
   -1.3882   -1.7847   -0.4204 O   0  0  0  0  0  0  0  0  0  0  0  0
    0.0744   -0.2714    0.8080 C   0  0  0  0  0  0  0  0  0  0  0  0
    0.9132    0.7723    1.0910 O   0  0  0  0  0  0  0  0  0  0  0  0
    2.0595    0.3573    0.3680 C   0  0  0  0  0  0  0  0  0  0  0  0
    1.4873   -0.2519   -0.9269 C   0  0  0  0  0  0  0  0  0  0  0  0
    0.0562    0.1093   -0.7332 C   0  0  0  0  0  0  0  0  0  0  0  0
   -0.0877    1.5039   -0.9903 O   0  0  0  0  0  0  0  0  0  0  0  0
   -2.8872    0.3989   -0.7159 H   0  0  0  0  0  0  0  0  0  0  0  0
   -2.0652    1.3212    0.6639 H   0  0  0  0  0  0  0  0  0  0  0  0
   -2.8581   -0.2382    0.9679 H   0  0  0  0  0  0  0  0  0  0  0  0
   -1.6419   -2.2548    0.4375 H   0  0  0  0  0  0  0  0  0  0  0  0
    0.6428   -1.2223    1.0659 H   0  0  0  0  0  0  0  0  0  0  0  0
    2.4900   -0.4709    0.9962 H   0  0  0  0  0  0  0  0  0  0  0  0
    2.7494    1.1677    0.1734 H   0  0  0  0  0  0  0  0  0  0  0  0
    1.7064   -1.3104   -1.0148 H   0  0  0  0  0  0  0  0  0  0  0  0
    1.9478    0.2732   -1.7720 H   0  0  0  0  0  0  0  0  0  0  0  0
    0.0976    2.0184   -0.1642 H   0  0  0  0  0  0  0  0  0  0  0  0
  1  2  1  0
  2  3  1  0
  2  4  1  0
  4  5  1  0
  5  6  1  0
  6  7  1  0
  7  8  1  0
  8  9  1  0
  8  2  1  0
  8  4  1  0
  1 10  1  0
  1 11  1  0
  1 12  1  0
  3 13  1  0
  4 14  1  0
  6 15  1  0
  6 16  1  0
  7 17  1  0
  7 18  1  0
  9 19  1  0
M  END
