
     RDKit          3D

 23 23  0  0  0  0  0  0  0  0999 V2000
    1.4034    0.8795   -0.9381 C   0  0  0  0  0  0  0  0  0  0  0  0
    0.9334   -0.0594    0.1522 C   0  0  0  0  0  0  0  0  0  0  0  0
   -0.5248   -0.3485    0.1614 C   0  0  0  0  0  0  0  0  0  0  0  0
   -1.2519    0.9908    0.3517 C   0  0  0  0  0  0  0  0  0  0  0  0
   -2.6374    0.7926    0.3700 O   0  0  0  0  0  0  0  0  0  0  0  0
   -1.0607   -0.9865   -1.0720 C   0  0  0  0  0  0  0  0  0  0  0  0
   -2.4475   -1.1770   -0.8657 O   0  0  0  0  0  0  0  0  0  0  0  0
    1.4932    0.2363    1.5573 C   0  0  0  0  0  0  0  0  0  0  0  0
    1.9362   -0.9329    0.7841 C   0  0  0  0  0  0  0  0  0  0  0  0
    2.4220    0.6249   -1.2996 H   0  0  0  0  0  0  0  0  0  0  0  0
    1.3608    1.9104   -0.5032 H   0  0  0  0  0  0  0  0  0  0  0  0
    0.7141    0.7740   -1.7900 H   0  0  0  0  0  0  0  0  0  0  0  0
   -0.7911   -1.0027    1.0248 H   0  0  0  0  0  0  0  0  0  0  0  0
   -0.9495    1.4336    1.3174 H   0  0  0  0  0  0  0  0  0  0  0  0
   -0.9607    1.7128   -0.4325 H   0  0  0  0  0  0  0  0  0  0  0  0
   -3.0453    1.2623   -0.4068 H   0  0  0  0  0  0  0  0  0  0  0  0
   -0.9752   -0.3501   -1.9732 H   0  0  0  0  0  0  0  0  0  0  0  0
   -0.5487   -1.9749   -1.2130 H   0  0  0  0  0  0  0  0  0  0  0  0
   -2.6700   -2.1369   -0.8221 H   0  0  0  0  0  0  0  0  0  0  0  0
    0.8606    0.0448    2.4284 H   0  0  0  0  0  0  0  0  0  0  0  0
    2.1064    1.1604    1.6466 H   0  0  0  0  0  0  0  0  0  0  0  0
    1.6789   -1.9512    1.1734 H   0  0  0  0  0  0  0  0  0  0  0  0
    2.9538   -0.9022    0.3488 H   0  0  0  0  0  0  0  0  0  0  0  0
  1  2  1  0
  2  3  1  0
  3  4  1  0
  4  5  1  0
  3  6  1  0
  6  7  1  0
  2  8  1  0
  8  9  1  0
  9  2  1  0
  1 10  1  0
  1 11  1  0
  1 12  1  0
  3 13  1  0
  4 14  1  0
  4 15  1  0
  5 16  1  0
  6 17  1  0
  6 18  1  0
  7 19  1  0
  8 20  1  0
  8 21  1  0
  9 22  1  0
  9 23  1  0
M  END
