
     RDKit          3D

 23 23  0  0  0  0  0  0  0  0999 V2000
   -2.0493   -1.0244   -1.0106 C   0  0  0  0  0  0  0  0  0  0  0  0
   -1.0028   -0.2802   -0.2151 C   0  0  0  0  0  0  0  0  0  0  0  0
    0.4043   -0.6464   -0.5331 C   0  0  0  0  0  0  0  0  0  0  0  0
    1.4233    0.1231    0.2861 C   0  0  0  0  0  0  0  0  0  0  0  0
    2.8369   -0.3252   -0.1170 C   0  0  0  0  0  0  0  0  0  0  0  0
    3.7112    0.4202    0.6724 O   0  0  0  0  0  0  0  0  0  0  0  0
   -1.4254    0.0086    1.2140 C   0  0  0  0  0  0  0  0  0  0  0  0
   -1.2730    1.1175    0.1731 C   0  0  0  0  0  0  0  0  0  0  0  0
   -2.4169    1.6833   -0.3728 O   0  0  0  0  0  0  0  0  0  0  0  0
   -2.2334   -0.6117   -1.9998 H   0  0  0  0  0  0  0  0  0  0  0  0
   -3.0253   -1.0809   -0.4829 H   0  0  0  0  0  0  0  0  0  0  0  0
   -1.6941   -2.0675   -1.1126 H   0  0  0  0  0  0  0  0  0  0  0  0
    0.6555   -0.3993   -1.6056 H   0  0  0  0  0  0  0  0  0  0  0  0
    0.5197   -1.7381   -0.3796 H   0  0  0  0  0  0  0  0  0  0  0  0
    1.3979    1.2032    0.0649 H   0  0  0  0  0  0  0  0  0  0  0  0
    1.2583   -0.1307    1.3460 H   0  0  0  0  0  0  0  0  0  0  0  0
    2.9538   -1.4050   -0.0104 H   0  0  0  0  0  0  0  0  0  0  0  0
    3.0447   -0.0490   -1.1694 H   0  0  0  0  0  0  0  0  0  0  0  0
    3.2660    1.2046    1.0952 H   0  0  0  0  0  0  0  0  0  0  0  0
   -0.6597   -0.0929    1.9975 H   0  0  0  0  0  0  0  0  0  0  0  0
   -2.4985   -0.1626    1.4854 H   0  0  0  0  0  0  0  0  0  0  0  0
   -0.4994    1.8362    0.4328 H   0  0  0  0  0  0  0  0  0  0  0  0
   -2.6936    2.4173    0.2414 H   0  0  0  0  0  0  0  0  0  0  0  0
  1  2  1  0
  2  3  1  0
  3  4  1  0
  4  5  1  0
  5  6  1  0
  2  7  1  0
  7  8  1  0
  8  9  1  0
  8  2  1  0
  1 10  1  0
  1 11  1  0
  1 12  1  0
  3 13  1  0
  3 14  1  0
  4 15  1  0
  4 16  1  0
  5 17  1  0
  5 18  1  0
  6 19  1  0
  7 20  1  0
  7 21  1  0
  8 22  1  0
  9 23  1  0
M  END
