
     RDKit          3D

 20 20  0  0  0  0  0  0  0  0999 V2000
   -0.5429   -0.8077   -1.3474 C   0  0  0  0  0  0  0  0  0  0  0  0
   -0.3947    0.1462   -0.1606 C   0  0  0  0  0  0  0  0  0  0  0  0
   -1.7842    0.4213    0.3465 C   0  0  0  0  0  0  0  0  0  0  0  0
    0.3670    1.3854   -0.5243 C   0  0  0  0  0  0  0  0  0  0  0  0
    1.4859    1.4504    0.2909 O   0  0  0  0  0  0  0  0  0  0  0  0
    1.8536    0.0967    0.4688 C   0  0  0  0  0  0  0  0  0  0  0  0
    0.4954   -0.4664    0.9102 C   0  0  0  0  0  0  0  0  0  0  0  0
    0.4717   -1.8323    0.9210 O   0  0  0  0  0  0  0  0  0  0  0  0
    0.4359   -1.0896   -1.7435 H   0  0  0  0  0  0  0  0  0  0  0  0
   -1.1052   -0.2468   -2.1145 H   0  0  0  0  0  0  0  0  0  0  0  0
   -1.1473   -1.6666   -0.9768 H   0  0  0  0  0  0  0  0  0  0  0  0
   -2.3268    0.9561   -0.4464 H   0  0  0  0  0  0  0  0  0  0  0  0
   -2.2490   -0.5533    0.5809 H   0  0  0  0  0  0  0  0  0  0  0  0
   -1.7026    1.1019    1.2055 H   0  0  0  0  0  0  0  0  0  0  0  0
   -0.2686    2.2588   -0.3088 H   0  0  0  0  0  0  0  0  0  0  0  0
    0.7413    1.3781   -1.5756 H   0  0  0  0  0  0  0  0  0  0  0  0
    2.6020   -0.0310    1.2556 H   0  0  0  0  0  0  0  0  0  0  0  0
    2.1249   -0.3711   -0.5013 H   0  0  0  0  0  0  0  0  0  0  0  0
    0.2336    0.0144    1.8721 H   0  0  0  0  0  0  0  0  0  0  0  0
    0.7101   -2.1447    1.8475 H   0  0  0  0  0  0  0  0  0  0  0  0
  1  2  1  0
  2  3  1  0
  2  4  1  0
  4  5  1  0
  5  6  1  0
  6  7  1  0
  7  8  1  0
  7  2  1  0
  1  9  1  0
  1 10  1  0
  1 11  1  0
  3 12  1  0
  3 13  1  0
  3 14  1  0
  4 15  1  0
  4 16  1  0
  6 17  1  0
  6 18  1  0
  7 19  1  0
  8 20  1  0
M  END
