
     RDKit          3D

 21 22  0  0  0  0  0  0  0  0999 V2000
    0.8486   -1.5130    0.8662 C   0  0  0  0  0  0  0  0  0  0  0  0
    0.4612   -0.2002    0.2246 C   0  0  0  0  0  0  0  0  0  0  0  0
    1.6429    0.3610   -0.5166 C   0  0  0  0  0  0  0  0  0  0  0  0
    2.7022    0.6334    0.3809 O   0  0  0  0  0  0  0  0  0  0  0  0
   -0.0255    0.6791    1.1963 O   0  0  0  0  0  0  0  0  0  0  0  0
   -1.3358    0.8599    0.8345 C   0  0  0  0  0  0  0  0  0  0  0  0
   -1.2317    1.1209   -0.6788 C   0  0  0  0  0  0  0  0  0  0  0  0
   -0.7322   -0.3156   -0.6608 C   0  0  0  0  0  0  0  0  0  0  0  0
   -1.8184   -0.5292    0.3808 C   0  0  0  0  0  0  0  0  0  0  0  0
    0.8838   -2.3027    0.0934 H   0  0  0  0  0  0  0  0  0  0  0  0
    1.9142   -1.3934    1.2131 H   0  0  0  0  0  0  0  0  0  0  0  0
    0.2631   -1.7666    1.7494 H   0  0  0  0  0  0  0  0  0  0  0  0
    2.0479   -0.3822   -1.2410 H   0  0  0  0  0  0  0  0  0  0  0  0
    1.4021    1.2863   -1.0772 H   0  0  0  0  0  0  0  0  0  0  0  0
    2.9288    1.6049    0.3256 H   0  0  0  0  0  0  0  0  0  0  0  0
   -2.0052    1.4573    1.3920 H   0  0  0  0  0  0  0  0  0  0  0  0
   -2.2274    1.1378   -1.1784 H   0  0  0  0  0  0  0  0  0  0  0  0
   -0.5268    1.8908   -0.9713 H   0  0  0  0  0  0  0  0  0  0  0  0
   -0.7338   -0.8813   -1.5429 H   0  0  0  0  0  0  0  0  0  0  0  0
   -1.6410   -1.3286    1.0987 H   0  0  0  0  0  0  0  0  0  0  0  0
   -2.8169   -0.4188   -0.0494 H   0  0  0  0  0  0  0  0  0  0  0  0
  1  2  1  0
  2  3  1  0
  3  4  1  0
  2  5  1  0
  5  6  1  0
  6  7  1  0
  7  8  1  0
  8  9  1  0
  8  2  1  0
  9  6  1  0
  1 10  1  0
  1 11  1  0
  1 12  1  0
  3 13  1  0
  3 14  1  0
  4 15  1  0
  6 16  1  0
  7 17  1  0
  7 18  1  0
  8 19  1  0
  9 20  1  0
  9 21  1  0
M  END
