
     RDKit          3D

 19 19  0  0  0  0  0  0  0  0999 V2000
   -0.8832    1.3163    0.0715 C   0  0  0  0  0  0  0  0  0  0  0  0
   -0.8632   -0.1686    0.1237 C   0  0  0  0  0  0  0  0  0  0  0  0
   -2.0330   -0.7384    0.9733 C   0  0  0  0  0  0  0  0  0  0  0  0
   -0.8803   -0.6930   -1.2383 O   0  0  0  0  0  0  0  0  0  0  0  0
    0.1431   -1.0842   -0.2087 C   0  0  0  0  0  0  0  0  0  0  0  0
    1.5139   -0.9495   -0.7529 C   0  0  0  0  0  0  0  0  0  0  0  0
    2.0001    0.2877   -1.0874 O   0  0  0  0  0  0  0  0  0  0  0  0
    2.3077    1.3239   -0.2235 C   0  0  0  0  0  0  0  0  0  0  0  0
    2.1476    1.1394    1.0086 O   0  0  0  0  0  0  0  0  0  0  0  0
   -0.4409    1.7661   -0.8474 H   0  0  0  0  0  0  0  0  0  0  0  0
   -0.4869    1.7344    1.0041 H   0  0  0  0  0  0  0  0  0  0  0  0
   -1.9646    1.6816    0.0160 H   0  0  0  0  0  0  0  0  0  0  0  0
   -1.6684   -1.6342    1.5457 H   0  0  0  0  0  0  0  0  0  0  0  0
   -2.8969   -0.9688    0.3303 H   0  0  0  0  0  0  0  0  0  0  0  0
   -2.3468    0.0107    1.7280 H   0  0  0  0  0  0  0  0  0  0  0  0
   -0.1059   -2.1940   -0.0330 H   0  0  0  0  0  0  0  0  0  0  0  0
    2.2436   -1.5411   -0.1039 H   0  0  0  0  0  0  0  0  0  0  0  0
    1.5305   -1.5772   -1.7066 H   0  0  0  0  0  0  0  0  0  0  0  0
    2.6839    2.2889   -0.5997 H   0  0  0  0  0  0  0  0  0  0  0  0
  1  2  1  0
  2  3  1  0
  2  4  1  0
  4  5  1  0
  5  6  1  0
  6  7  1  0
  7  8  1  0
  8  9  2  0
  5  2  1  0
  1 10  1  0
  1 11  1  0
  1 12  1  0
  3 13  1  0
  3 14  1  0
  3 15  1  0
  5 16  1  0
  6 17  1  0
  6 18  1  0
  8 19  1  0
M  END
