
     RDKit          3D

 21 22  0  0  0  0  0  0  0  0999 V2000
   -1.0623    1.1829    0.2506 C   0  0  0  0  0  0  0  0  0  0  0  0
   -0.5116   -0.1974    0.0043 C   0  0  0  0  0  0  0  0  0  0  0  0
   -1.5771   -1.2459   -0.2541 C   0  0  0  0  0  0  0  0  0  0  0  0
   -2.4563   -1.3745    0.8200 O   0  0  0  0  0  0  0  0  0  0  0  0
    0.7467   -0.6568    0.5978 C   0  0  0  0  0  0  0  0  0  0  0  0
    1.7973    0.2863    1.0676 C   0  0  0  0  0  0  0  0  0  0  0  0
    2.5271    0.6887   -0.0594 O   0  0  0  0  0  0  0  0  0  0  0  0
    1.5701    0.8993   -1.0318 C   0  0  0  0  0  0  0  0  0  0  0  0
    0.6834   -0.3238   -0.9052 C   0  0  0  0  0  0  0  0  0  0  0  0
   -1.8909    1.0898    1.0014 H   0  0  0  0  0  0  0  0  0  0  0  0
   -0.3174    1.8655    0.7069 H   0  0  0  0  0  0  0  0  0  0  0  0
   -1.4599    1.5552   -0.7156 H   0  0  0  0  0  0  0  0  0  0  0  0
   -1.0604   -2.2029   -0.4779 H   0  0  0  0  0  0  0  0  0  0  0  0
   -2.1646   -0.8714   -1.1343 H   0  0  0  0  0  0  0  0  0  0  0  0
   -3.3742   -1.5167    0.4538 H   0  0  0  0  0  0  0  0  0  0  0  0
    0.8358   -1.7250    0.8678 H   0  0  0  0  0  0  0  0  0  0  0  0
    2.5425   -0.2464    1.7214 H   0  0  0  0  0  0  0  0  0  0  0  0
    1.4430    1.1585    1.6164 H   0  0  0  0  0  0  0  0  0  0  0  0
    1.9723    0.9422   -2.0477 H   0  0  0  0  0  0  0  0  0  0  0  0
    0.9858    1.8410   -0.8653 H   0  0  0  0  0  0  0  0  0  0  0  0
    0.7707   -1.1485   -1.6167 H   0  0  0  0  0  0  0  0  0  0  0  0
  1  2  1  0
  2  3  1  0
  3  4  1  0
  2  5  1  0
  5  6  1  0
  6  7  1  0
  7  8  1  0
  8  9  1  0
  9  2  1  0
  9  5  1  0
  1 10  1  0
  1 11  1  0
  1 12  1  0
  3 13  1  0
  3 14  1  0
  4 15  1  0
  5 16  1  0
  6 17  1  0
  6 18  1  0
  8 19  1  0
  8 20  1  0
  9 21  1  0
M  END
