
     RDKit          3D

 23 24  0  0  0  0  0  0  0  0999 V2000
    0.1605   -1.5077    1.0069 C   0  0  0  0  0  0  0  0  0  0  0  0
   -0.2411   -0.2155    0.3628 C   0  0  0  0  0  0  0  0  0  0  0  0
    0.9185    0.5736   -0.1806 C   0  0  0  0  0  0  0  0  0  0  0  0
    1.7421   -0.1080   -1.2375 C   0  0  0  0  0  0  0  0  0  0  0  0
    2.3133    0.2489    0.1176 C   0  0  0  0  0  0  0  0  0  0  0  0
   -1.1645    0.6180    1.2158 C   0  0  0  0  0  0  0  0  0  0  0  0
   -1.8321    1.4643    0.1897 C   0  0  0  0  0  0  0  0  0  0  0  0
   -1.8383    0.8313   -0.9806 C   0  0  0  0  0  0  0  0  0  0  0  0
   -1.1638   -0.5074   -0.8206 C   0  0  0  0  0  0  0  0  0  0  0  0
    0.4298   -2.2622    0.2503 H   0  0  0  0  0  0  0  0  0  0  0  0
    0.9420   -1.3452    1.7612 H   0  0  0  0  0  0  0  0  0  0  0  0
   -0.7340   -1.8852    1.5658 H   0  0  0  0  0  0  0  0  0  0  0  0
    0.6709    1.6350   -0.4082 H   0  0  0  0  0  0  0  0  0  0  0  0
    2.0680    0.4549   -2.1308 H   0  0  0  0  0  0  0  0  0  0  0  0
    1.6170   -1.1933   -1.4109 H   0  0  0  0  0  0  0  0  0  0  0  0
    2.5986   -0.5348    0.8254 H   0  0  0  0  0  0  0  0  0  0  0  0
    3.0589    1.0814    0.0671 H   0  0  0  0  0  0  0  0  0  0  0  0
   -0.6647    1.1802    1.9999 H   0  0  0  0  0  0  0  0  0  0  0  0
   -1.9519   -0.0774    1.5983 H   0  0  0  0  0  0  0  0  0  0  0  0
   -2.2479    2.4402    0.3640 H   0  0  0  0  0  0  0  0  0  0  0  0
   -2.2380    1.1516   -1.9325 H   0  0  0  0  0  0  0  0  0  0  0  0
   -1.8974   -1.2794   -0.5354 H   0  0  0  0  0  0  0  0  0  0  0  0
   -0.5459   -0.7629   -1.6877 H   0  0  0  0  0  0  0  0  0  0  0  0
  1  2  1  0
  2  3  1  0
  3  4  1  0
  4  5  1  0
  2  6  1  0
  6  7  1  0
  7  8  2  0
  8  9  1  0
  9  2  1  0
  5  3  1  0
  1 10  1  0
  1 11  1  0
  1 12  1  0
  3 13  1  0
  4 14  1  0
  4 15  1  0
  5 16  1  0
  5 17  1  0
  6 18  1  0
  6 19  1  0
  7 20  1  0
  8 21  1  0
  9 22  1  0
  9 23  1  0
M  END
