
     RDKit          3D

 21 22  0  0  0  0  0  0  0  0999 V2000
   -1.2665    0.3140    1.3459 C   0  0  0  0  0  0  0  0  0  0  0  0
   -0.5098   -0.0290    0.1022 C   0  0  0  0  0  0  0  0  0  0  0  0
   -0.9242   -1.4021   -0.4289 C   0  0  0  0  0  0  0  0  0  0  0  0
   -0.8581    1.0130   -0.9708 C   0  0  0  0  0  0  0  0  0  0  0  0
    0.2624    1.7998   -1.1208 O   0  0  0  0  0  0  0  0  0  0  0  0
    1.2951    0.8630   -1.0893 C   0  0  0  0  0  0  0  0  0  0  0  0
    0.9624    0.1276    0.2145 C   0  0  0  0  0  0  0  0  0  0  0  0
    1.9092   -0.6703    0.8219 C   0  0  0  0  0  0  0  0  0  0  0  0
    1.5079    0.6182    1.3858 O   0  0  0  0  0  0  0  0  0  0  0  0
   -0.6130    0.5545    2.2120 H   0  0  0  0  0  0  0  0  0  0  0  0
   -1.9347    1.1942    1.2160 H   0  0  0  0  0  0  0  0  0  0  0  0
   -1.9353   -0.5340    1.6096 H   0  0  0  0  0  0  0  0  0  0  0  0
   -0.0699   -1.9744   -0.8145 H   0  0  0  0  0  0  0  0  0  0  0  0
   -1.4702   -1.9271    0.3872 H   0  0  0  0  0  0  0  0  0  0  0  0
   -1.6658   -1.2503   -1.2588 H   0  0  0  0  0  0  0  0  0  0  0  0
   -1.0572    0.5043   -1.9170 H   0  0  0  0  0  0  0  0  0  0  0  0
   -1.7501    1.5963   -0.6726 H   0  0  0  0  0  0  0  0  0  0  0  0
    2.2911    1.3000   -1.0750 H   0  0  0  0  0  0  0  0  0  0  0  0
    1.1965    0.1309   -1.9027 H   0  0  0  0  0  0  0  0  0  0  0  0
    2.9641   -0.7019    0.4706 H   0  0  0  0  0  0  0  0  0  0  0  0
    1.6661   -1.5267    1.4846 H   0  0  0  0  0  0  0  0  0  0  0  0
  1  2  1  0
  2  3  1  0
  2  4  1  0
  4  5  1  0
  5  6  1  0
  6  7  1  0
  7  8  1  0
  8  9  1  0
  7  2  1  0
  9  7  1  0
  1 10  1  0
  1 11  1  0
  1 12  1  0
  3 13  1  0
  3 14  1  0
  3 15  1  0
  4 16  1  0
  4 17  1  0
  6 18  1  0
  6 19  1  0
  8 20  1  0
  8 21  1  0
M  END
