
     RDKit          3D

 19 20  0  0  0  0  0  0  0  0999 V2000
    2.1419   -0.6554   -0.9113 C   0  0  0  0  0  0  0  0  0  0  0  0
    0.9424    0.0869   -0.3242 C   0  0  0  0  0  0  0  0  0  0  0  0
    1.0135    0.2896    1.1594 C   0  0  0  0  0  0  0  0  0  0  0  0
    1.0340    1.4168    1.5985 O   0  0  0  0  0  0  0  0  0  0  0  0
   -0.3731   -0.6081   -0.7673 C   0  0  0  0  0  0  0  0  0  0  0  0
   -1.4525   -0.6192    0.2409 C   0  0  0  0  0  0  0  0  0  0  0  0
   -1.9697    0.7752    0.1951 C   0  0  0  0  0  0  0  0  0  0  0  0
   -1.0489    1.5822   -0.4281 O   0  0  0  0  0  0  0  0  0  0  0  0
   -0.0983    0.7899   -1.0620 C   0  0  0  0  0  0  0  0  0  0  0  0
    3.0211   -0.1167   -0.3956 H   0  0  0  0  0  0  0  0  0  0  0  0
    2.1940   -0.2824   -1.9894 H   0  0  0  0  0  0  0  0  0  0  0  0
    2.1047   -1.7116   -0.7678 H   0  0  0  0  0  0  0  0  0  0  0  0
    1.0409   -0.4923    1.9237 H   0  0  0  0  0  0  0  0  0  0  0  0
   -0.3105   -1.3398   -1.5942 H   0  0  0  0  0  0  0  0  0  0  0  0
   -2.2568   -1.3553    0.0082 H   0  0  0  0  0  0  0  0  0  0  0  0
   -1.0618   -0.8513    1.2386 H   0  0  0  0  0  0  0  0  0  0  0  0
   -2.9846    0.7685   -0.2508 H   0  0  0  0  0  0  0  0  0  0  0  0
   -2.1019    1.1656    1.2373 H   0  0  0  0  0  0  0  0  0  0  0  0
    0.1655    1.1574   -2.0766 H   0  0  0  0  0  0  0  0  0  0  0  0
  1  2  1  0
  2  3  1  0
  3  4  2  0
  2  5  1  0
  5  6  1  0
  6  7  1  0
  7  8  1  0
  8  9  1  0
  9  2  1  0
  9  5  1  0
  1 10  1  0
  1 11  1  0
  1 12  1  0
  3 13  1  0
  5 14  1  0
  6 15  1  0
  6 16  1  0
  7 17  1  0
  7 18  1  0
  9 19  1  0
M  END
