
     RDKit          3D

 22 23  0  0  0  0  0  0  0  0999 V2000
   -1.8465   -1.0896   -0.2273 C   0  0  0  0  0  0  0  0  0  0  0  0
   -0.9725    0.1181   -0.0699 C   0  0  0  0  0  0  0  0  0  0  0  0
   -1.7709    1.3571    0.1882 C   0  0  0  0  0  0  0  0  0  0  0  0
    0.1677   -0.1499    0.8690 C   0  0  0  0  0  0  0  0  0  0  0  0
    1.0960   -0.0246   -0.2828 C   0  0  0  0  0  0  0  0  0  0  0  0
    2.4260    0.5074   -0.2558 C   0  0  0  0  0  0  0  0  0  0  0  0
    2.1359   -0.9799   -0.6272 C   0  0  0  0  0  0  0  0  0  0  0  0
    0.0062    0.3498   -1.2226 C   0  0  0  0  0  0  0  0  0  0  0  0
   -2.6453   -1.0377    0.5253 H   0  0  0  0  0  0  0  0  0  0  0  0
   -1.2477   -2.0015   -0.0018 H   0  0  0  0  0  0  0  0  0  0  0  0
   -2.2660   -1.1440   -1.2504 H   0  0  0  0  0  0  0  0  0  0  0  0
   -1.2676    2.2923   -0.1047 H   0  0  0  0  0  0  0  0  0  0  0  0
   -2.1474    1.4457    1.2192 H   0  0  0  0  0  0  0  0  0  0  0  0
   -2.6847    1.2929   -0.4697 H   0  0  0  0  0  0  0  0  0  0  0  0
    0.2062   -1.2027    1.2756 H   0  0  0  0  0  0  0  0  0  0  0  0
    0.2727    0.5463    1.7048 H   0  0  0  0  0  0  0  0  0  0  0  0
    2.9388    0.6102    0.7388 H   0  0  0  0  0  0  0  0  0  0  0  0
    2.8807    1.0957   -1.0644 H   0  0  0  0  0  0  0  0  0  0  0  0
    2.4995   -1.7434    0.0653 H   0  0  0  0  0  0  0  0  0  0  0  0
    2.2463   -1.2317   -1.7106 H   0  0  0  0  0  0  0  0  0  0  0  0
    0.0681    1.3990   -1.5629 H   0  0  0  0  0  0  0  0  0  0  0  0
   -0.0957   -0.4094   -2.0317 H   0  0  0  0  0  0  0  0  0  0  0  0
  1  2  1  0
  2  3  1  0
  2  4  1  0
  4  5  1  0
  5  6  1  0
  6  7  1  0
  5  8  1  0
  8  2  1  0
  7  5  1  0
  1  9  1  0
  1 10  1  0
  1 11  1  0
  3 12  1  0
  3 13  1  0
  3 14  1  0
  4 15  1  0
  4 16  1  0
  6 17  1  0
  6 18  1  0
  7 19  1  0
  7 20  1  0
  8 21  1  0
  8 22  1  0
M  END
