
     RDKit          3D

 23 24  0  0  0  0  0  0  0  0999 V2000
    1.8227   -0.6996   -1.1001 C   0  0  0  0  0  0  0  0  0  0  0  0
    1.0364   -0.2977    0.1196 C   0  0  0  0  0  0  0  0  0  0  0  0
    1.7932    0.4504    1.1524 C   0  0  0  0  0  0  0  0  0  0  0  0
    0.2503   -1.3564    0.5473 O   0  0  0  0  0  0  0  0  0  0  0  0
   -0.9267   -0.8667    0.0440 C   0  0  0  0  0  0  0  0  0  0  0  0
   -2.1582   -0.9725    0.8760 C   0  0  0  0  0  0  0  0  0  0  0  0
   -1.0385   -0.2466   -1.2945 C   0  0  0  0  0  0  0  0  0  0  0  0
   -0.2556    0.4114   -0.2494 C   0  0  0  0  0  0  0  0  0  0  0  0
   -0.6240    1.6958    0.3864 C   0  0  0  0  0  0  0  0  0  0  0  0
    1.6011   -0.0253   -1.9457 H   0  0  0  0  0  0  0  0  0  0  0  0
    2.8961   -0.7139   -0.8150 H   0  0  0  0  0  0  0  0  0  0  0  0
    1.5913   -1.7542   -1.4263 H   0  0  0  0  0  0  0  0  0  0  0  0
    1.2341    0.5621    2.0734 H   0  0  0  0  0  0  0  0  0  0  0  0
    2.0725    1.4498    0.7076 H   0  0  0  0  0  0  0  0  0  0  0  0
    2.7700   -0.0337    1.3802 H   0  0  0  0  0  0  0  0  0  0  0  0
   -2.3856   -0.1056    1.4970 H   0  0  0  0  0  0  0  0  0  0  0  0
   -3.0151   -1.1791    0.1695 H   0  0  0  0  0  0  0  0  0  0  0  0
   -2.1194   -1.9024    1.5167 H   0  0  0  0  0  0  0  0  0  0  0  0
   -0.4358   -0.6548   -2.1591 H   0  0  0  0  0  0  0  0  0  0  0  0
   -2.0398    0.0600   -1.6043 H   0  0  0  0  0  0  0  0  0  0  0  0
    0.1517    2.0079    1.1107 H   0  0  0  0  0  0  0  0  0  0  0  0
   -1.5833    1.6859    0.9410 H   0  0  0  0  0  0  0  0  0  0  0  0
   -0.6375    2.4855   -0.4096 H   0  0  0  0  0  0  0  0  0  0  0  0
  1  2  1  0
  2  3  1  0
  2  4  1  0
  4  5  1  0
  5  6  1  0
  5  7  1  0
  7  8  1  0
  8  9  1  0
  8  2  1  0
  8  5  1  0
  1 10  1  0
  1 11  1  0
  1 12  1  0
  3 13  1  0
  3 14  1  0
  3 15  1  0
  6 16  1  0
  6 17  1  0
  6 18  1  0
  7 19  1  0
  7 20  1  0
  9 21  1  0
  9 22  1  0
  9 23  1  0
M  END
