
     RDKit          3D

 17 18  0  0  0  0  0  0  0  0999 V2000
   -1.6073   -0.2252   -0.7856 C   0  0  0  0  0  0  0  0  0  0  0  0
   -0.3591    0.2292   -0.0920 C   0  0  0  0  0  0  0  0  0  0  0  0
   -0.6639    1.3422    0.8465 C   0  0  0  0  0  0  0  0  0  0  0  0
   -0.1991    1.3166    1.9704 O   0  0  0  0  0  0  0  0  0  0  0  0
    0.5175   -0.8356    0.4805 C   0  0  0  0  0  0  0  0  0  0  0  0
    0.5904   -0.9021    1.8588 O   0  0  0  0  0  0  0  0  0  0  0  0
    1.6939   -0.2097   -0.2182 C   0  0  0  0  0  0  0  0  0  0  0  0
    1.8664    1.1396   -0.2808 O   0  0  0  0  0  0  0  0  0  0  0  0
    0.7867    0.6313   -0.9788 C   0  0  0  0  0  0  0  0  0  0  0  0
   -2.2094   -0.7947   -0.0296 H   0  0  0  0  0  0  0  0  0  0  0  0
   -1.4225   -0.8171   -1.6980 H   0  0  0  0  0  0  0  0  0  0  0  0
   -2.2018    0.6825   -1.0235 H   0  0  0  0  0  0  0  0  0  0  0  0
   -1.2856    2.1649    0.5487 H   0  0  0  0  0  0  0  0  0  0  0  0
    0.2813   -1.8224   -0.0050 H   0  0  0  0  0  0  0  0  0  0  0  0
    1.0138   -1.7700    2.0914 H   0  0  0  0  0  0  0  0  0  0  0  0
    2.5000   -0.8229   -0.6325 H   0  0  0  0  0  0  0  0  0  0  0  0
    0.6986    0.6933   -2.0523 H   0  0  0  0  0  0  0  0  0  0  0  0
  1  2  1  0
  2  3  1  0
  3  4  2  0
  2  5  1  0
  5  6  1  0
  5  7  1  0
  7  8  1  0
  8  9  1  0
  9  2  1  0
  9  7  1  0
  1 10  1  0
  1 11  1  0
  1 12  1  0
  3 13  1  0
  5 14  1  0
  6 15  1  0
  7 16  1  0
  9 17  1  0
M  END
