
     RDKit          3D

 23 24  0  0  0  0  0  0  0  0999 V2000
    1.6312    1.3296    0.1122 C   0  0  0  0  0  0  0  0  0  0  0  0
    1.6101   -0.1070   -0.3173 C   0  0  0  0  0  0  0  0  0  0  0  0
    0.3270   -0.6063   -0.9120 C   0  0  0  0  0  0  0  0  0  0  0  0
   -0.7721   -0.5028    0.0551 C   0  0  0  0  0  0  0  0  0  0  0  0
   -1.2031    0.8046    0.6246 C   0  0  0  0  0  0  0  0  0  0  0  0
   -2.6054    0.1408    0.7309 C   0  0  0  0  0  0  0  0  0  0  0  0
   -2.1850   -0.6289   -0.5065 C   0  0  0  0  0  0  0  0  0  0  0  0
    2.7774   -0.8732   -0.2577 C   0  0  0  0  0  0  0  0  0  0  0  0
    1.8774   -0.9334    0.9181 O   0  0  0  0  0  0  0  0  0  0  0  0
    0.9783    1.9294   -0.5383 H   0  0  0  0  0  0  0  0  0  0  0  0
    1.4351    1.5034    1.1828 H   0  0  0  0  0  0  0  0  0  0  0  0
    2.6715    1.7709   -0.0636 H   0  0  0  0  0  0  0  0  0  0  0  0
    0.1543    0.0307   -1.8327 H   0  0  0  0  0  0  0  0  0  0  0  0
    0.4680   -1.6433   -1.3054 H   0  0  0  0  0  0  0  0  0  0  0  0
   -0.7091   -1.2472    0.9114 H   0  0  0  0  0  0  0  0  0  0  0  0
   -1.2973    1.6724   -0.0760 H   0  0  0  0  0  0  0  0  0  0  0  0
   -0.8075    1.0525    1.6315 H   0  0  0  0  0  0  0  0  0  0  0  0
   -2.6306   -0.5139    1.6264 H   0  0  0  0  0  0  0  0  0  0  0  0
   -3.4285    0.8385    0.6017 H   0  0  0  0  0  0  0  0  0  0  0  0
   -2.5421   -1.6951   -0.4862 H   0  0  0  0  0  0  0  0  0  0  0  0
   -2.3724   -0.0816   -1.4331 H   0  0  0  0  0  0  0  0  0  0  0  0
    3.7270   -0.3933    0.0981 H   0  0  0  0  0  0  0  0  0  0  0  0
    2.8958   -1.8468   -0.7641 H   0  0  0  0  0  0  0  0  0  0  0  0
  1  2  1  0
  2  3  1  0
  3  4  1  0
  4  5  1  0
  5  6  1  0
  6  7  1  0
  2  8  1  0
  8  9  1  0
  9  2  1  0
  7  4  1  0
  1 10  1  0
  1 11  1  0
  1 12  1  0
  3 13  1  0
  3 14  1  0
  4 15  1  0
  5 16  1  0
  5 17  1  0
  6 18  1  0
  6 19  1  0
  7 20  1  0
  7 21  1  0
  8 22  1  0
  8 23  1  0
M  END
