
     RDKit          3D

 19 20  0  0  0  0  0  0  0  0999 V2000
   -1.6702   -0.0237   -1.3162 C   0  0  0  0  0  0  0  0  0  0  0  0
   -0.9544   -0.0691    0.0336 C   0  0  0  0  0  0  0  0  0  0  0  0
    0.4029   -0.7037    0.0069 C   0  0  0  0  0  0  0  0  0  0  0  0
    1.0657   -0.7446    1.2235 O   0  0  0  0  0  0  0  0  0  0  0  0
    1.6373    0.4774    0.9081 C   0  0  0  0  0  0  0  0  0  0  0  0
    1.4835    0.1543   -0.5327 C   0  0  0  0  0  0  0  0  0  0  0  0
    2.6025   -0.4959   -1.0293 O   0  0  0  0  0  0  0  0  0  0  0  0
   -1.6095    0.5232    1.1482 C   0  0  0  0  0  0  0  0  0  0  0  0
   -1.8220   -0.8521    0.9500 O   0  0  0  0  0  0  0  0  0  0  0  0
   -1.1724    0.6475   -2.0218 H   0  0  0  0  0  0  0  0  0  0  0  0
   -1.6509   -1.0690   -1.7088 H   0  0  0  0  0  0  0  0  0  0  0  0
   -2.7110    0.3552   -1.1864 H   0  0  0  0  0  0  0  0  0  0  0  0
    0.4098   -1.7335   -0.4443 H   0  0  0  0  0  0  0  0  0  0  0  0
    0.9894    1.3000    1.2955 H   0  0  0  0  0  0  0  0  0  0  0  0
    2.6767    0.6233    1.2739 H   0  0  0  0  0  0  0  0  0  0  0  0
    1.1914    0.9827   -1.2009 H   0  0  0  0  0  0  0  0  0  0  0  0
    2.7808   -1.2696   -0.4576 H   0  0  0  0  0  0  0  0  0  0  0  0
   -2.5029    1.1765    0.9286 H   0  0  0  0  0  0  0  0  0  0  0  0
   -1.1468    0.7211    2.1300 H   0  0  0  0  0  0  0  0  0  0  0  0
  1  2  1  0
  2  3  1  0
  3  4  1  0
  4  5  1  0
  5  6  1  0
  6  7  1  0
  2  8  1  0
  8  9  1  0
  9  2  1  0
  6  3  1  0
  1 10  1  0
  1 11  1  0
  1 12  1  0
  3 13  1  0
  5 14  1  0
  5 15  1  0
  6 16  1  0
  7 17  1  0
  8 18  1  0
  8 19  1  0
M  END
