
     RDKit          3D

 17 17  0  0  0  0  0  0  0  0999 V2000
   -1.4910   -0.6627   -1.1054 C   0  0  0  0  0  0  0  0  0  0  0  0
   -0.5626   -0.1308   -0.0115 C   0  0  0  0  0  0  0  0  0  0  0  0
   -1.2721    0.3839    1.2081 C   0  0  0  0  0  0  0  0  0  0  0  0
    0.3977   -1.0646    0.3417 O   0  0  0  0  0  0  0  0  0  0  0  0
    1.3834   -0.3610   -0.3172 C   0  0  0  0  0  0  0  0  0  0  0  0
    2.4681    0.1351    0.5686 C   0  0  0  0  0  0  0  0  0  0  0  0
    3.3831    0.7681    0.0733 O   0  0  0  0  0  0  0  0  0  0  0  0
    0.4386    0.7698   -0.6124 C   0  0  0  0  0  0  0  0  0  0  0  0
    0.6043    1.8434   -1.1142 O   0  0  0  0  0  0  0  0  0  0  0  0
   -2.4728   -0.7985   -0.6461 H   0  0  0  0  0  0  0  0  0  0  0  0
   -1.5952    0.1352   -1.8758 H   0  0  0  0  0  0  0  0  0  0  0  0
   -1.0613   -1.5726   -1.5369 H   0  0  0  0  0  0  0  0  0  0  0  0
   -1.3548    1.4742    1.2124 H   0  0  0  0  0  0  0  0  0  0  0  0
   -2.3059   -0.0394    1.2422 H   0  0  0  0  0  0  0  0  0  0  0  0
   -0.7744    0.0339    2.1586 H   0  0  0  0  0  0  0  0  0  0  0  0
    1.7092   -0.8871   -1.2229 H   0  0  0  0  0  0  0  0  0  0  0  0
    2.5056   -0.0269    1.6375 H   0  0  0  0  0  0  0  0  0  0  0  0
  1  2  1  0
  2  3  1  0
  2  4  1  0
  4  5  1  0
  5  6  1  0
  6  7  2  0
  5  8  1  0
  8  9  2  0
  8  2  1  0
  1 10  1  0
  1 11  1  0
  1 12  1  0
  3 13  1  0
  3 14  1  0
  3 15  1  0
  5 16  1  0
  6 17  1  0
M  END
