
     RDKit          3D

 23 24  0  0  0  0  0  0  0  0999 V2000
   -1.9189   -0.9151   -0.5562 C   0  0  0  0  0  0  0  0  0  0  0  0
   -1.0485   -0.0596    0.3245 C   0  0  0  0  0  0  0  0  0  0  0  0
   -1.5471    1.3594    0.3918 C   0  0  0  0  0  0  0  0  0  0  0  0
   -0.9386   -0.6398    1.6109 O   0  0  0  0  0  0  0  0  0  0  0  0
    0.4742   -0.7049    1.5678 C   0  0  0  0  0  0  0  0  0  0  0  0
    0.3982   -0.1591    0.1928 C   0  0  0  0  0  0  0  0  0  0  0  0
    1.0307   -0.8864   -0.9123 C   0  0  0  0  0  0  0  0  0  0  0  0
    2.2057    0.0974   -0.7901 C   0  0  0  0  0  0  0  0  0  0  0  0
    1.2037    1.0539   -0.1255 C   0  0  0  0  0  0  0  0  0  0  0  0
   -1.9110   -0.5685   -1.5955 H   0  0  0  0  0  0  0  0  0  0  0  0
   -2.9727   -0.7791   -0.1914 H   0  0  0  0  0  0  0  0  0  0  0  0
   -1.6916   -1.9920   -0.4757 H   0  0  0  0  0  0  0  0  0  0  0  0
   -1.4044    1.8097   -0.6060 H   0  0  0  0  0  0  0  0  0  0  0  0
   -0.8777    1.8948    1.1160 H   0  0  0  0  0  0  0  0  0  0  0  0
   -2.5963    1.3931    0.7420 H   0  0  0  0  0  0  0  0  0  0  0  0
    0.9741    0.0078    2.2544 H   0  0  0  0  0  0  0  0  0  0  0  0
    0.8395   -1.7457    1.6039 H   0  0  0  0  0  0  0  0  0  0  0  0
    0.5390   -0.7463   -1.9129 H   0  0  0  0  0  0  0  0  0  0  0  0
    1.3690   -1.9150   -0.7535 H   0  0  0  0  0  0  0  0  0  0  0  0
    2.6141    0.4413   -1.7361 H   0  0  0  0  0  0  0  0  0  0  0  0
    2.9282   -0.2301   -0.0094 H   0  0  0  0  0  0  0  0  0  0  0  0
    1.6300    1.5894    0.7440 H   0  0  0  0  0  0  0  0  0  0  0  0
    0.7004    1.6948   -0.8836 H   0  0  0  0  0  0  0  0  0  0  0  0
  1  2  1  0
  2  3  1  0
  2  4  1  0
  4  5  1  0
  5  6  1  0
  6  7  1  0
  7  8  1  0
  8  9  1  0
  6  2  1  0
  9  6  1  0
  1 10  1  0
  1 11  1  0
  1 12  1  0
  3 13  1  0
  3 14  1  0
  3 15  1  0
  5 16  1  0
  5 17  1  0
  7 18  1  0
  7 19  1  0
  8 20  1  0
  8 21  1  0
  9 22  1  0
  9 23  1  0
M  END
