
     RDKit          3D

 16 16  0  0  0  0  0  0  0  0999 V2000
   -0.5209    1.2128    0.6021 C   0  0  0  0  0  0  0  0  0  0  0  0
    0.0110   -0.0534   -0.0074 C   0  0  0  0  0  0  0  0  0  0  0  0
    1.4623   -0.3223    0.3065 C   0  0  0  0  0  0  0  0  0  0  0  0
    2.2787    0.6470   -0.3084 O   0  0  0  0  0  0  0  0  0  0  0  0
   -0.8753   -1.2590    0.0837 C   0  0  0  0  0  0  0  0  0  0  0  0
   -1.5855   -0.4932   -0.9988 C   0  0  0  0  0  0  0  0  0  0  0  0
   -2.7711   -0.3060   -1.3752 O   0  0  0  0  0  0  0  0  0  0  0  0
   -0.2967   -0.0793   -1.3991 O   0  0  0  0  0  0  0  0  0  0  0  0
   -0.1617    2.0690   -0.0390 H   0  0  0  0  0  0  0  0  0  0  0  0
   -0.2454    1.3275    1.6535 H   0  0  0  0  0  0  0  0  0  0  0  0
   -1.6242    1.1882    0.5055 H   0  0  0  0  0  0  0  0  0  0  0  0
    1.5758   -0.1923    1.4077 H   0  0  0  0  0  0  0  0  0  0  0  0
    1.7491   -1.3417    0.0263 H   0  0  0  0  0  0  0  0  0  0  0  0
    2.8333    1.1325    0.3721 H   0  0  0  0  0  0  0  0  0  0  0  0
   -0.3752   -2.1429   -0.3188 H   0  0  0  0  0  0  0  0  0  0  0  0
   -1.4542   -1.3867    1.0087 H   0  0  0  0  0  0  0  0  0  0  0  0
  1  2  1  0
  2  3  1  0
  3  4  1  0
  2  5  1  0
  5  6  1  0
  6  7  2  0
  6  8  1  0
  8  2  1  0
  1  9  1  0
  1 10  1  0
  1 11  1  0
  3 12  1  0
  3 13  1  0
  4 14  1  0
  5 15  1  0
  5 16  1  0
M  END
