
     RDKit          3D

 18 19  0  0  0  0  0  0  0  0999 V2000
    1.3585    0.9919    0.7493 C   0  0  0  0  0  0  0  0  0  0  0  0
    0.8091   -0.2718    0.0778 C   0  0  0  0  0  0  0  0  0  0  0  0
   -0.5519   -0.3090   -0.3833 C   0  0  0  0  0  0  0  0  0  0  0  0
   -1.2655   -0.0922    0.8501 C   0  0  0  0  0  0  0  0  0  0  0  0
   -1.9737   -0.3267   -0.2799 C   0  0  0  0  0  0  0  0  0  0  0  0
   -2.8469    0.6994   -0.7342 O   0  0  0  0  0  0  0  0  0  0  0  0
    1.8595   -0.9935   -0.7365 C   0  0  0  0  0  0  0  0  0  0  0  0
    1.4962   -1.4513    0.5029 O   0  0  0  0  0  0  0  0  0  0  0  0
    0.6189    1.8142    0.7113 H   0  0  0  0  0  0  0  0  0  0  0  0
    1.6501    0.7960    1.7999 H   0  0  0  0  0  0  0  0  0  0  0  0
    2.2541    1.3710    0.1834 H   0  0  0  0  0  0  0  0  0  0  0  0
   -0.4840    0.0235   -1.4165 H   0  0  0  0  0  0  0  0  0  0  0  0
   -1.1721   -0.9234    1.6177 H   0  0  0  0  0  0  0  0  0  0  0  0
   -1.3196    0.8839    1.3939 H   0  0  0  0  0  0  0  0  0  0  0  0
   -2.4838   -1.3251   -0.4585 H   0  0  0  0  0  0  0  0  0  0  0  0
   -2.3681    1.2221   -1.4235 H   0  0  0  0  0  0  0  0  0  0  0  0
    1.5387   -1.5129   -1.6578 H   0  0  0  0  0  0  0  0  0  0  0  0
    2.8806   -0.5961   -0.7959 H   0  0  0  0  0  0  0  0  0  0  0  0
  1  2  1  0
  2  3  1  0
  3  4  1  0
  4  5  1  0
  5  6  1  0
  2  7  1  0
  7  8  1  0
  8  2  1  0
  5  3  1  0
  1  9  1  0
  1 10  1  0
  1 11  1  0
  3 12  1  0
  4 13  1  0
  4 14  1  0
  5 15  1  0
  6 16  1  0
  7 17  1  0
  7 18  1  0
M  END
