
     RDKit          3D

 21 21  0  0  0  0  0  0  0  0999 V2000
   -1.7984   -0.8593    1.1456 C   0  0  0  0  0  0  0  0  0  0  0  0
   -0.9031   -0.0561    0.2147 C   0  0  0  0  0  0  0  0  0  0  0  0
   -1.8123    0.8870   -0.5614 C   0  0  0  0  0  0  0  0  0  0  0  0
   -0.0145    0.7576    0.9512 O   0  0  0  0  0  0  0  0  0  0  0  0
    1.0023    1.1540    0.0624 C   0  0  0  0  0  0  0  0  0  0  0  0
    1.9244   -0.0697   -0.0313 C   0  0  0  0  0  0  0  0  0  0  0  0
    2.6197   -0.2176    1.1677 O   0  0  0  0  0  0  0  0  0  0  0  0
    1.0131   -1.2495   -0.3064 C   0  0  0  0  0  0  0  0  0  0  0  0
   -0.2598   -0.8744   -0.6747 O   0  0  0  0  0  0  0  0  0  0  0  0
   -2.8820   -0.7578    0.8551 H   0  0  0  0  0  0  0  0  0  0  0  0
   -1.7457   -0.5058    2.1910 H   0  0  0  0  0  0  0  0  0  0  0  0
   -1.5413   -1.9312    1.0791 H   0  0  0  0  0  0  0  0  0  0  0  0
   -2.8408    0.9183   -0.1231 H   0  0  0  0  0  0  0  0  0  0  0  0
   -1.4480    1.9436   -0.5084 H   0  0  0  0  0  0  0  0  0  0  0  0
   -1.8710    0.5994   -1.6331 H   0  0  0  0  0  0  0  0  0  0  0  0
    0.5939    1.2998   -0.9596 H   0  0  0  0  0  0  0  0  0  0  0  0
    1.5909    1.9943    0.4362 H   0  0  0  0  0  0  0  0  0  0  0  0
    2.6434    0.1247   -0.8281 H   0  0  0  0  0  0  0  0  0  0  0  0
    3.2066    0.5735    1.2461 H   0  0  0  0  0  0  0  0  0  0  0  0
    1.0604   -1.9638    0.5249 H   0  0  0  0  0  0  0  0  0  0  0  0
    1.4621   -1.7668   -1.2056 H   0  0  0  0  0  0  0  0  0  0  0  0
  1  2  1  0
  2  3  1  0
  2  4  1  0
  4  5  1  0
  5  6  1  0
  6  7  1  0
  6  8  1  0
  8  9  1  0
  9  2  1  0
  1 10  1  0
  1 11  1  0
  1 12  1  0
  3 13  1  0
  3 14  1  0
  3 15  1  0
  5 16  1  0
  5 17  1  0
  6 18  1  0
  7 19  1  0
  8 20  1  0
  8 21  1  0
M  END
