
     RDKit          3D

 21 22  0  0  0  0  0  0  0  0999 V2000
    2.2883    0.3648    0.3806 C   0  0  0  0  0  0  0  0  0  0  0  0
    1.2129   -0.5974   -0.1291 C   0  0  0  0  0  0  0  0  0  0  0  0
    1.6322   -1.9171   -0.1957 O   0  0  0  0  0  0  0  0  0  0  0  0
    0.4403   -0.0279   -1.3112 C   0  0  0  0  0  0  0  0  0  0  0  0
   -0.1513   -0.2092    0.0243 C   0  0  0  0  0  0  0  0  0  0  0  0
   -0.6914    0.9101    0.8282 C   0  0  0  0  0  0  0  0  0  0  0  0
   -2.0521    0.2157    0.7297 C   0  0  0  0  0  0  0  0  0  0  0  0
   -2.8939    0.7944   -0.2103 O   0  0  0  0  0  0  0  0  0  0  0  0
   -1.3441   -1.0416    0.2007 C   0  0  0  0  0  0  0  0  0  0  0  0
    2.8638   -0.0963    1.2140 H   0  0  0  0  0  0  0  0  0  0  0  0
    1.7968    1.2622    0.8191 H   0  0  0  0  0  0  0  0  0  0  0  0
    3.0113    0.6303   -0.4031 H   0  0  0  0  0  0  0  0  0  0  0  0
    2.4857   -1.9508   -0.7155 H   0  0  0  0  0  0  0  0  0  0  0  0
    0.1865   -0.7301   -2.1330 H   0  0  0  0  0  0  0  0  0  0  0  0
    0.6161    1.0104   -1.6241 H   0  0  0  0  0  0  0  0  0  0  0  0
   -0.6399    1.8689    0.2485 H   0  0  0  0  0  0  0  0  0  0  0  0
   -0.4128    0.9876    1.8820 H   0  0  0  0  0  0  0  0  0  0  0  0
   -2.5595    0.0606    1.6914 H   0  0  0  0  0  0  0  0  0  0  0  0
   -2.6375    1.7268   -0.4179 H   0  0  0  0  0  0  0  0  0  0  0  0
   -1.8054   -1.4242   -0.7337 H   0  0  0  0  0  0  0  0  0  0  0  0
   -1.3460   -1.8370    0.9586 H   0  0  0  0  0  0  0  0  0  0  0  0
  1  2  1  0
  2  3  1  0
  2  4  1  0
  4  5  1  0
  5  6  1  0
  6  7  1  0
  7  8  1  0
  7  9  1  0
  5  2  1  0
  9  5  1  0
  1 10  1  0
  1 11  1  0
  1 12  1  0
  3 13  1  0
  4 14  1  0
  4 15  1  0
  6 16  1  0
  6 17  1  0
  7 18  1  0
  8 19  1  0
  9 20  1  0
  9 21  1  0
M  END
