
     RDKit          3D

 21 22  0  0  0  0  0  0  0  0999 V2000
   -2.3427    0.3890   -0.4788 C   0  0  0  0  0  0  0  0  0  0  0  0
   -1.1490   -0.2748    0.1603 C   0  0  0  0  0  0  0  0  0  0  0  0
   -1.4146   -1.3785    0.9407 O   0  0  0  0  0  0  0  0  0  0  0  0
   -0.1841    0.7079    0.8413 C   0  0  0  0  0  0  0  0  0  0  0  0
    0.8962    0.0934    0.0355 C   0  0  0  0  0  0  0  0  0  0  0  0
    1.9619    0.9255   -0.5235 C   0  0  0  0  0  0  0  0  0  0  0  0
    2.8123    0.4591    0.5052 O   0  0  0  0  0  0  0  0  0  0  0  0
    1.9688   -0.6547    0.7306 C   0  0  0  0  0  0  0  0  0  0  0  0
   -0.0407   -0.6253   -0.8401 C   0  0  0  0  0  0  0  0  0  0  0  0
   -2.1591    1.4662   -0.6754 H   0  0  0  0  0  0  0  0  0  0  0  0
   -2.6290   -0.1731   -1.3966 H   0  0  0  0  0  0  0  0  0  0  0  0
   -3.1863    0.2875    0.2472 H   0  0  0  0  0  0  0  0  0  0  0  0
   -2.2001   -1.8419    0.5811 H   0  0  0  0  0  0  0  0  0  0  0  0
   -0.0540    0.4895    1.9348 H   0  0  0  0  0  0  0  0  0  0  0  0
   -0.4427    1.7589    0.6609 H   0  0  0  0  0  0  0  0  0  0  0  0
    1.8281    2.0134   -0.5508 H   0  0  0  0  0  0  0  0  0  0  0  0
    2.3425    0.5099   -1.4951 H   0  0  0  0  0  0  0  0  0  0  0  0
    2.3220   -1.5929    0.2830 H   0  0  0  0  0  0  0  0  0  0  0  0
    1.8090   -0.7645    1.8339 H   0  0  0  0  0  0  0  0  0  0  0  0
    0.0958   -1.7008   -1.0121 H   0  0  0  0  0  0  0  0  0  0  0  0
   -0.2344   -0.0940   -1.7822 H   0  0  0  0  0  0  0  0  0  0  0  0
  1  2  1  0
  2  3  1  0
  2  4  1  0
  4  5  1  0
  5  6  1  0
  6  7  1  0
  7  8  1  0
  5  9  1  0
  9  2  1  0
  8  5  1  0
  1 10  1  0
  1 11  1  0
  1 12  1  0
  3 13  1  0
  4 14  1  0
  4 15  1  0
  6 16  1  0
  6 17  1  0
  8 18  1  0
  8 19  1  0
  9 20  1  0
  9 21  1  0
M  END
