
     RDKit          3D

 19 19  0  0  0  0  0  0  0  0999 V2000
    1.8998   -0.7930   -0.1340 C   0  0  0  0  0  0  0  0  0  0  0  0
    0.6838   -0.0242    0.2354 C   0  0  0  0  0  0  0  0  0  0  0  0
    0.8445    0.9082    1.2436 O   0  0  0  0  0  0  0  0  0  0  0  0
   -0.5653   -0.8722    0.5147 C   0  0  0  0  0  0  0  0  0  0  0  0
   -0.7658   -1.1883    1.8290 O   0  0  0  0  0  0  0  0  0  0  0  0
   -1.3206    0.3735    0.0227 C   0  0  0  0  0  0  0  0  0  0  0  0
   -2.5099    0.0214   -0.5415 O   0  0  0  0  0  0  0  0  0  0  0  0
   -0.1404    0.5008   -0.9507 C   0  0  0  0  0  0  0  0  0  0  0  0
    0.1537    1.7497   -1.3719 O   0  0  0  0  0  0  0  0  0  0  0  0
    1.9563   -0.8912   -1.2265 H   0  0  0  0  0  0  0  0  0  0  0  0
    2.7913   -0.1919    0.1782 H   0  0  0  0  0  0  0  0  0  0  0  0
    1.9336   -1.7241    0.4268 H   0  0  0  0  0  0  0  0  0  0  0  0
    1.4063    1.6726    0.9751 H   0  0  0  0  0  0  0  0  0  0  0  0
   -0.6264   -1.6767   -0.2246 H   0  0  0  0  0  0  0  0  0  0  0  0
   -1.3930   -1.9617    1.8627 H   0  0  0  0  0  0  0  0  0  0  0  0
   -1.3203    1.1115    0.8359 H   0  0  0  0  0  0  0  0  0  0  0  0
   -3.0382    0.7592   -0.8758 H   0  0  0  0  0  0  0  0  0  0  0  0
   -0.2169   -0.2243   -1.7531 H   0  0  0  0  0  0  0  0  0  0  0  0
    0.2274    2.4508   -0.7152 H   0  0  0  0  0  0  0  0  0  0  0  0
  1  2  1  0
  2  3  1  0
  2  4  1  0
  4  5  1  0
  4  6  1  0
  6  7  1  0
  6  8  1  0
  8  9  1  0
  8  2  1  0
  1 10  1  0
  1 11  1  0
  1 12  1  0
  3 13  1  0
  4 14  1  0
  5 15  1  0
  6 16  1  0
  7 17  1  0
  8 18  1  0
  9 19  1  0
M  END
