
     RDKit          3D

 19 19  0  0  0  0  0  0  0  0999 V2000
    0.0391   -0.6634   -1.6246 C   0  0  0  0  0  0  0  0  0  0  0  0
   -0.0371    0.0024   -0.2758 C   0  0  0  0  0  0  0  0  0  0  0  0
    0.9513   -0.5518    0.7166 C   0  0  0  0  0  0  0  0  0  0  0  0
    2.3557   -0.3901    0.2544 C   0  0  0  0  0  0  0  0  0  0  0  0
    2.6704    0.1255   -0.7953 O   0  0  0  0  0  0  0  0  0  0  0  0
    0.0322    1.4018   -0.3550 O   0  0  0  0  0  0  0  0  0  0  0  0
   -1.1409    1.5768    0.3709 C   0  0  0  0  0  0  0  0  0  0  0  0
   -1.4409    0.1310    0.1828 C   0  0  0  0  0  0  0  0  0  0  0  0
   -1.8167   -0.5832    1.3043 O   0  0  0  0  0  0  0  0  0  0  0  0
   -0.2312    0.1133   -2.3854 H   0  0  0  0  0  0  0  0  0  0  0  0
   -0.8150   -1.3967   -1.6647 H   0  0  0  0  0  0  0  0  0  0  0  0
    1.0026   -1.1378   -1.8377 H   0  0  0  0  0  0  0  0  0  0  0  0
    0.7539   -1.6359    0.8135 H   0  0  0  0  0  0  0  0  0  0  0  0
    0.8706   -0.0335    1.6848 H   0  0  0  0  0  0  0  0  0  0  0  0
    3.1616   -0.7501    0.8832 H   0  0  0  0  0  0  0  0  0  0  0  0
   -0.9946    1.9250    1.4164 H   0  0  0  0  0  0  0  0  0  0  0  0
   -1.8583    2.2550   -0.1660 H   0  0  0  0  0  0  0  0  0  0  0  0
   -2.1989   -0.0341   -0.6325 H   0  0  0  0  0  0  0  0  0  0  0  0
   -1.3035   -0.3542    2.1100 H   0  0  0  0  0  0  0  0  0  0  0  0
  1  2  1  0
  2  3  1  0
  3  4  1  0
  4  5  2  0
  2  6  1  0
  6  7  1  0
  7  8  1  0
  8  9  1  0
  8  2  1  0
  1 10  1  0
  1 11  1  0
  1 12  1  0
  3 13  1  0
  3 14  1  0
  4 15  1  0
  7 16  1  0
  7 17  1  0
  8 18  1  0
  9 19  1  0
M  END
