
     RDKit          3D

 22 23  0  0  0  0  0  0  0  0999 V2000
   -1.6891   -0.9830    0.5809 C   0  0  0  0  0  0  0  0  0  0  0  0
   -0.7420    0.1232    0.1684 C   0  0  0  0  0  0  0  0  0  0  0  0
    0.7155   -0.2472   -0.0170 C   0  0  0  0  0  0  0  0  0  0  0  0
    0.9506   -1.3072   -1.0813 C   0  0  0  0  0  0  0  0  0  0  0  0
    1.7849    0.7631    0.1553 C   0  0  0  0  0  0  0  0  0  0  0  0
    1.5987   -0.3601    1.1710 C   0  0  0  0  0  0  0  0  0  0  0  0
   -1.3161    1.1038   -0.8297 C   0  0  0  0  0  0  0  0  0  0  0  0
   -1.0973    1.4881    0.6258 C   0  0  0  0  0  0  0  0  0  0  0  0
   -1.2196   -1.5031    1.4363 H   0  0  0  0  0  0  0  0  0  0  0  0
   -2.6476   -0.5572    0.9194 H   0  0  0  0  0  0  0  0  0  0  0  0
   -1.9208   -1.6590   -0.2658 H   0  0  0  0  0  0  0  0  0  0  0  0
    0.9133   -2.3198   -0.6680 H   0  0  0  0  0  0  0  0  0  0  0  0
    0.1887   -1.1651   -1.8743 H   0  0  0  0  0  0  0  0  0  0  0  0
    1.9464   -1.1403   -1.5723 H   0  0  0  0  0  0  0  0  0  0  0  0
    2.6414    0.7116   -0.5378 H   0  0  0  0  0  0  0  0  0  0  0  0
    1.6084    1.7604    0.5694 H   0  0  0  0  0  0  0  0  0  0  0  0
    2.4500   -1.0503    1.2066 H   0  0  0  0  0  0  0  0  0  0  0  0
    1.2189   -0.0846    2.1898 H   0  0  0  0  0  0  0  0  0  0  0  0
   -2.3412    0.9761   -1.2074 H   0  0  0  0  0  0  0  0  0  0  0  0
   -0.6404    1.5880   -1.5613 H   0  0  0  0  0  0  0  0  0  0  0  0
   -0.3519    2.2508    0.8701 H   0  0  0  0  0  0  0  0  0  0  0  0
   -2.0509    1.6119    1.1851 H   0  0  0  0  0  0  0  0  0  0  0  0
  1  2  1  0
  2  3  1  0
  3  4  1  0
  3  5  1  0
  5  6  1  0
  2  7  1  0
  7  8  1  0
  8  2  1  0
  6  3  1  0
  1  9  1  0
  1 10  1  0
  1 11  1  0
  4 12  1  0
  4 13  1  0
  4 14  1  0
  5 15  1  0
  5 16  1  0
  6 17  1  0
  6 18  1  0
  7 19  1  0
  7 20  1  0
  8 21  1  0
  8 22  1  0
M  END
