
     RDKit          3D

 18 18  0  0  0  0  0  0  0  0999 V2000
   -1.6800   -0.5574    0.6324 C   0  0  0  0  0  0  0  0  0  0  0  0
   -0.4658    0.0513   -0.0082 C   0  0  0  0  0  0  0  0  0  0  0  0
   -0.7604    1.1667   -0.9149 C   0  0  0  0  0  0  0  0  0  0  0  0
   -1.2911    0.9458   -1.9790 O   0  0  0  0  0  0  0  0  0  0  0  0
    0.3568   -0.9741   -0.7678 C   0  0  0  0  0  0  0  0  0  0  0  0
    1.6972   -0.2934   -0.7301 C   0  0  0  0  0  0  0  0  0  0  0  0
    1.7864    0.4915    0.3238 C   0  0  0  0  0  0  0  0  0  0  0  0
    0.5152    0.4050    1.0844 C   0  0  0  0  0  0  0  0  0  0  0  0
   -1.4679   -1.5882    0.9727 H   0  0  0  0  0  0  0  0  0  0  0  0
   -1.9640    0.0515    1.5306 H   0  0  0  0  0  0  0  0  0  0  0  0
   -2.5135   -0.5169   -0.0633 H   0  0  0  0  0  0  0  0  0  0  0  0
   -0.4944    2.1702   -0.6098 H   0  0  0  0  0  0  0  0  0  0  0  0
   -0.0153   -1.0207   -1.7966 H   0  0  0  0  0  0  0  0  0  0  0  0
    0.3594   -1.9311   -0.2280 H   0  0  0  0  0  0  0  0  0  0  0  0
    2.4819   -0.4266   -1.4639 H   0  0  0  0  0  0  0  0  0  0  0  0
    2.6215    1.1240    0.6425 H   0  0  0  0  0  0  0  0  0  0  0  0
    0.2607    1.3542    1.5932 H   0  0  0  0  0  0  0  0  0  0  0  0
    0.5734   -0.4519    1.7820 H   0  0  0  0  0  0  0  0  0  0  0  0
  1  2  1  0
  2  3  1  0
  3  4  2  0
  2  5  1  0
  5  6  1  0
  6  7  2  0
  7  8  1  0
  8  2  1  0
  1  9  1  0
  1 10  1  0
  1 11  1  0
  3 12  1  0
  5 13  1  0
  5 14  1  0
  6 15  1  0
  7 16  1  0
  8 17  1  0
  8 18  1  0
M  END
