
     RDKit          3D

 23 24  0  0  0  0  0  0  0  0999 V2000
   -2.2610   -0.1779    0.4901 C   0  0  0  0  0  0  0  0  0  0  0  0
   -0.9132    0.1406   -0.1633 C   0  0  0  0  0  0  0  0  0  0  0  0
   -1.0784    1.3176   -1.0805 C   0  0  0  0  0  0  0  0  0  0  0  0
   -0.3624   -1.1133   -0.7995 C   0  0  0  0  0  0  0  0  0  0  0  0
    0.4879   -1.2648    0.4418 C   0  0  0  0  0  0  0  0  0  0  0  0
    0.1655    0.1939    0.8417 C   0  0  0  0  0  0  0  0  0  0  0  0
    1.5524   -0.2535    0.6138 C   0  0  0  0  0  0  0  0  0  0  0  0
    2.3195    0.3063   -0.5478 C   0  0  0  0  0  0  0  0  0  0  0  0
    2.3471   -0.4439    1.7466 O   0  0  0  0  0  0  0  0  0  0  0  0
   -2.0876   -1.0990    1.0941 H   0  0  0  0  0  0  0  0  0  0  0  0
   -3.0566   -0.2885   -0.2498 H   0  0  0  0  0  0  0  0  0  0  0  0
   -2.4428    0.6448    1.2102 H   0  0  0  0  0  0  0  0  0  0  0  0
   -2.0023    1.1120   -1.6878 H   0  0  0  0  0  0  0  0  0  0  0  0
   -1.2635    2.2106   -0.4313 H   0  0  0  0  0  0  0  0  0  0  0  0
   -0.2633    1.4575   -1.7948 H   0  0  0  0  0  0  0  0  0  0  0  0
    0.1656   -0.8706   -1.7259 H   0  0  0  0  0  0  0  0  0  0  0  0
   -1.1177   -1.9061   -0.9516 H   0  0  0  0  0  0  0  0  0  0  0  0
    0.2615   -2.0162    1.1922 H   0  0  0  0  0  0  0  0  0  0  0  0
   -0.1413    0.3735    1.8897 H   0  0  0  0  0  0  0  0  0  0  0  0
    3.4260    0.1308   -0.4389 H   0  0  0  0  0  0  0  0  0  0  0  0
    2.0382   -0.0886   -1.5207 H   0  0  0  0  0  0  0  0  0  0  0  0
    2.2108    1.4252   -0.5525 H   0  0  0  0  0  0  0  0  0  0  0  0
    2.0155    0.2098    2.4239 H   0  0  0  0  0  0  0  0  0  0  0  0
  1  2  1  0
  2  3  1  0
  2  4  1  0
  4  5  1  0
  5  6  1  0
  6  7  1  0
  7  8  1  0
  7  9  1  0
  6  2  1  0
  7  5  1  0
  1 10  1  0
  1 11  1  0
  1 12  1  0
  3 13  1  0
  3 14  1  0
  3 15  1  0
  4 16  1  0
  4 17  1  0
  5 18  1  0
  6 19  1  0
  8 20  1  0
  8 21  1  0
  8 22  1  0
  9 23  1  0
M  END
