
     RDKit          3D

 21 21  0  0  0  0  0  0  0  0999 V2000
   -2.1712   -0.1799   -0.5060 C   0  0  0  0  0  0  0  0  0  0  0  0
   -0.7614   -0.0889    0.0409 C   0  0  0  0  0  0  0  0  0  0  0  0
   -0.8657    0.6506    1.2434 O   0  0  0  0  0  0  0  0  0  0  0  0
    0.1402    0.7335   -0.8629 C   0  0  0  0  0  0  0  0  0  0  0  0
    1.1809    1.3849    0.0267 C   0  0  0  0  0  0  0  0  0  0  0  0
    1.4092    0.5064    1.0991 O   0  0  0  0  0  0  0  0  0  0  0  0
    1.9515   -0.6380    0.6010 C   0  0  0  0  0  0  0  0  0  0  0  0
    1.1209   -1.6089    0.1927 O   0  0  0  0  0  0  0  0  0  0  0  0
   -0.2068   -1.4491    0.2711 C   0  0  0  0  0  0  0  0  0  0  0  0
   -2.2080   -0.3723   -1.5757 H   0  0  0  0  0  0  0  0  0  0  0  0
   -2.6391   -1.0626    0.0200 H   0  0  0  0  0  0  0  0  0  0  0  0
   -2.7843    0.6928   -0.1744 H   0  0  0  0  0  0  0  0  0  0  0  0
   -1.2763    1.5192    0.9663 H   0  0  0  0  0  0  0  0  0  0  0  0
   -0.4304    1.4711   -1.4542 H   0  0  0  0  0  0  0  0  0  0  0  0
    0.6077    0.0035   -1.5664 H   0  0  0  0  0  0  0  0  0  0  0  0
    0.8478    2.3670    0.3769 H   0  0  0  0  0  0  0  0  0  0  0  0
    2.1179    1.4257   -0.5715 H   0  0  0  0  0  0  0  0  0  0  0  0
    2.6684   -1.0592    1.3648 H   0  0  0  0  0  0  0  0  0  0  0  0
    2.6176   -0.3473   -0.2627 H   0  0  0  0  0  0  0  0  0  0  0  0
   -0.6180   -1.8182    1.2561 H   0  0  0  0  0  0  0  0  0  0  0  0
   -0.7008   -2.1303   -0.4851 H   0  0  0  0  0  0  0  0  0  0  0  0
  1  2  1  0
  2  3  1  0
  2  4  1  0
  4  5  1  0
  5  6  1  0
  6  7  1  0
  7  8  1  0
  8  9  1  0
  9  2  1  0
  1 10  1  0
  1 11  1  0
  1 12  1  0
  3 13  1  0
  4 14  1  0
  4 15  1  0
  5 16  1  0
  5 17  1  0
  7 18  1  0
  7 19  1  0
  9 20  1  0
  9 21  1  0
M  END
