
     RDKit          3D

 20 21  0  0  0  0  0  0  0  0999 V2000
   -1.6613    1.4486   -0.0864 C   0  0  0  0  0  0  0  0  0  0  0  0
   -0.8682    0.1293   -0.0886 C   0  0  0  0  0  0  0  0  0  0  0  0
   -1.8085   -1.0490   -0.3015 C   0  0  0  0  0  0  0  0  0  0  0  0
    0.2342   -0.0422    0.7588 C   0  0  0  0  0  0  0  0  0  0  0  0
    1.4737   -0.8650    0.7474 C   0  0  0  0  0  0  0  0  0  0  0  0
    2.3581    0.1312   -0.0255 C   0  0  0  0  0  0  0  0  0  0  0  0
    1.4529    0.9836   -0.7102 O   0  0  0  0  0  0  0  0  0  0  0  0
    0.3470    0.2054   -0.8007 C   0  0  0  0  0  0  0  0  0  0  0  0
   -2.6980    1.3063    0.2027 H   0  0  0  0  0  0  0  0  0  0  0  0
   -1.6435    1.8992   -1.1097 H   0  0  0  0  0  0  0  0  0  0  0  0
   -1.0980    2.1452    0.5621 H   0  0  0  0  0  0  0  0  0  0  0  0
   -2.7305   -0.8537    0.2958 H   0  0  0  0  0  0  0  0  0  0  0  0
   -2.1196   -1.1552   -1.3527 H   0  0  0  0  0  0  0  0  0  0  0  0
   -1.3812   -1.9909    0.0968 H   0  0  0  0  0  0  0  0  0  0  0  0
    0.4622    0.8706    1.4005 H   0  0  0  0  0  0  0  0  0  0  0  0
    1.8664   -1.0723    1.7401 H   0  0  0  0  0  0  0  0  0  0  0  0
    1.3563   -1.7669    0.1063 H   0  0  0  0  0  0  0  0  0  0  0  0
    3.0174   -0.3759   -0.7300 H   0  0  0  0  0  0  0  0  0  0  0  0
    2.8633    0.7651    0.7165 H   0  0  0  0  0  0  0  0  0  0  0  0
    0.5774   -0.7135   -1.4218 H   0  0  0  0  0  0  0  0  0  0  0  0
  1  2  1  0
  2  3  1  0
  2  4  1  0
  4  5  1  0
  5  6  1  0
  6  7  1  0
  7  8  1  0
  8  2  1  0
  8  4  1  0
  1  9  1  0
  1 10  1  0
  1 11  1  0
  3 12  1  0
  3 13  1  0
  3 14  1  0
  4 15  1  0
  5 16  1  0
  5 17  1  0
  6 18  1  0
  6 19  1  0
  8 20  1  0
M  END
