
     RDKit          3D

 19 19  0  0  0  0  0  0  0  0999 V2000
   -1.9277   -1.0607    0.1341 C   0  0  0  0  0  0  0  0  0  0  0  0
   -0.6802   -0.2293    0.1757 C   0  0  0  0  0  0  0  0  0  0  0  0
   -0.6235    0.3767    1.4524 O   0  0  0  0  0  0  0  0  0  0  0  0
   -0.6429    0.8324   -0.8338 C   0  0  0  0  0  0  0  0  0  0  0  0
    0.4765    1.5308   -0.9457 C   0  0  0  0  0  0  0  0  0  0  0  0
    1.5925    1.2038   -0.0663 C   0  0  0  0  0  0  0  0  0  0  0  0
    2.3628    2.1158    0.3693 O   0  0  0  0  0  0  0  0  0  0  0  0
    1.7865   -0.2255    0.2931 C   0  0  0  0  0  0  0  0  0  0  0  0
    0.5692   -1.0562    0.0482 C   0  0  0  0  0  0  0  0  0  0  0  0
   -1.7119   -2.1170   -0.1246 H   0  0  0  0  0  0  0  0  0  0  0  0
   -2.5200   -0.9859    1.0778 H   0  0  0  0  0  0  0  0  0  0  0  0
   -2.5773   -0.6213   -0.6729 H   0  0  0  0  0  0  0  0  0  0  0  0
   -1.1721    1.1895    1.4657 H   0  0  0  0  0  0  0  0  0  0  0  0
   -1.4470    1.0994   -1.4979 H   0  0  0  0  0  0  0  0  0  0  0  0
    0.5919    2.3370   -1.6652 H   0  0  0  0  0  0  0  0  0  0  0  0
    2.5893   -0.6040   -0.4010 H   0  0  0  0  0  0  0  0  0  0  0  0
    2.1758   -0.3272    1.3396 H   0  0  0  0  0  0  0  0  0  0  0  0
    0.5825   -1.8966    0.7961 H   0  0  0  0  0  0  0  0  0  0  0  0
    0.5757   -1.5617   -0.9445 H   0  0  0  0  0  0  0  0  0  0  0  0
  1  2  1  0
  2  3  1  0
  2  4  1  0
  4  5  2  0
  5  6  1  0
  6  7  2  0
  6  8  1  0
  8  9  1  0
  9  2  1  0
  1 10  1  0
  1 11  1  0
  1 12  1  0
  3 13  1  0
  4 14  1  0
  5 15  1  0
  8 16  1  0
  8 17  1  0
  9 18  1  0
  9 19  1  0
M  END
