
     RDKit          3D

 17 18  0  0  0  0  0  0  0  0999 V2000
    1.7638    0.5447   -0.4709 C   0  0  0  0  0  0  0  0  0  0  0  0
    0.7021   -0.0036    0.4392 C   0  0  0  0  0  0  0  0  0  0  0  0
    1.1596   -0.1031    1.7351 O   0  0  0  0  0  0  0  0  0  0  0  0
    0.0581   -1.2001   -0.1269 C   0  0  0  0  0  0  0  0  0  0  0  0
    0.4431   -2.3410   -0.3191 O   0  0  0  0  0  0  0  0  0  0  0  0
   -1.2263   -0.5272   -0.3813 C   0  0  0  0  0  0  0  0  0  0  0  0
   -2.3808   -1.0849    0.1610 O   0  0  0  0  0  0  0  0  0  0  0  0
   -1.2923    0.8368   -0.9389 C   0  0  0  0  0  0  0  0  0  0  0  0
   -0.6319    0.6989    0.3695 C   0  0  0  0  0  0  0  0  0  0  0  0
    2.4202    1.2832    0.0333 H   0  0  0  0  0  0  0  0  0  0  0  0
    1.3738    0.9135   -1.4386 H   0  0  0  0  0  0  0  0  0  0  0  0
    2.4444   -0.3178   -0.7263 H   0  0  0  0  0  0  0  0  0  0  0  0
    1.6117   -0.9704    1.9267 H   0  0  0  0  0  0  0  0  0  0  0  0
   -2.3723   -1.0904    1.1478 H   0  0  0  0  0  0  0  0  0  0  0  0
   -0.6507    1.1353   -1.7994 H   0  0  0  0  0  0  0  0  0  0  0  0
   -2.2905    1.3123   -0.9292 H   0  0  0  0  0  0  0  0  0  0  0  0
   -1.1318    0.9138    1.3178 H   0  0  0  0  0  0  0  0  0  0  0  0
  1  2  1  0
  2  3  1  0
  2  4  1  0
  4  5  2  0
  4  6  1  0
  6  7  1  0
  6  8  1  0
  8  9  1  0
  9  2  1  0
  9  6  1  0
  1 10  1  0
  1 11  1  0
  1 12  1  0
  3 13  1  0
  7 14  1  0
  8 15  1  0
  8 16  1  0
  9 17  1  0
M  END
