
     RDKit          3D

 19 20  0  0  0  0  0  0  0  0999 V2000
   -1.8459    0.7431   -0.8167 C   0  0  0  0  0  0  0  0  0  0  0  0
   -0.7601    0.2258    0.0617 C   0  0  0  0  0  0  0  0  0  0  0  0
   -1.1385    0.3896    1.3994 O   0  0  0  0  0  0  0  0  0  0  0  0
   -0.5355   -1.2506   -0.1618 C   0  0  0  0  0  0  0  0  0  0  0  0
    0.7305   -1.6558   -0.0082 C   0  0  0  0  0  0  0  0  0  0  0  0
    1.7763   -0.6110   -0.2875 C   0  0  0  0  0  0  0  0  0  0  0  0
    1.6574    0.5433    0.6690 C   0  0  0  0  0  0  0  0  0  0  0  0
    0.5386    0.9126   -0.2586 C   0  0  0  0  0  0  0  0  0  0  0  0
    1.2227    0.2197   -1.2745 O   0  0  0  0  0  0  0  0  0  0  0  0
   -1.4346    1.1451   -1.7711 H   0  0  0  0  0  0  0  0  0  0  0  0
   -2.3681    1.5952   -0.2995 H   0  0  0  0  0  0  0  0  0  0  0  0
   -2.6101   -0.0308   -1.0374 H   0  0  0  0  0  0  0  0  0  0  0  0
   -1.9441   -0.1899    1.5160 H   0  0  0  0  0  0  0  0  0  0  0  0
   -1.3480   -1.8879   -0.4206 H   0  0  0  0  0  0  0  0  0  0  0  0
    0.9917   -2.6682    0.2970 H   0  0  0  0  0  0  0  0  0  0  0  0
    2.7745   -0.9946   -0.4909 H   0  0  0  0  0  0  0  0  0  0  0  0
    1.3667    0.2862    1.7066 H   0  0  0  0  0  0  0  0  0  0  0  0
    2.5101    1.2273    0.5504 H   0  0  0  0  0  0  0  0  0  0  0  0
    0.4164    2.0010   -0.4527 H   0  0  0  0  0  0  0  0  0  0  0  0
  1  2  1  0
  2  3  1  0
  2  4  1  0
  4  5  2  0
  5  6  1  0
  6  7  1  0
  7  8  1  0
  8  9  1  0
  8  2  1  0
  9  6  1  0
  1 10  1  0
  1 11  1  0
  1 12  1  0
  3 13  1  0
  4 14  1  0
  5 15  1  0
  6 16  1  0
  7 17  1  0
  7 18  1  0
  8 19  1  0
M  END
