
     RDKit          3D

 21 22  0  0  0  0  0  0  0  0999 V2000
   -1.7300   -0.4777   -1.0101 C   0  0  0  0  0  0  0  0  0  0  0  0
   -1.3055   -0.1490    0.3727 C   0  0  0  0  0  0  0  0  0  0  0  0
   -1.8058   -0.9435    1.3828 O   0  0  0  0  0  0  0  0  0  0  0  0
   -1.4680    1.3586    0.6128 C   0  0  0  0  0  0  0  0  0  0  0  0
   -0.2133    1.4723   -0.0290 O   0  0  0  0  0  0  0  0  0  0  0  0
    0.0898    0.2722    0.6131 C   0  0  0  0  0  0  0  0  0  0  0  0
    1.1970   -0.5321    0.0418 C   0  0  0  0  0  0  0  0  0  0  0  0
    2.5979    0.0158    0.3667 C   0  0  0  0  0  0  0  0  0  0  0  0
    2.0726   -0.1068   -1.0376 C   0  0  0  0  0  0  0  0  0  0  0  0
   -1.2007   -1.3367   -1.4629 H   0  0  0  0  0  0  0  0  0  0  0  0
   -2.8074   -0.7624   -0.9829 H   0  0  0  0  0  0  0  0  0  0  0  0
   -1.6911    0.4163   -1.6836 H   0  0  0  0  0  0  0  0  0  0  0  0
   -1.9547   -1.8460    0.9576 H   0  0  0  0  0  0  0  0  0  0  0  0
   -1.3767    1.6485    1.6767 H   0  0  0  0  0  0  0  0  0  0  0  0
   -2.2861    1.8193    0.0542 H   0  0  0  0  0  0  0  0  0  0  0  0
    0.2640    0.4813    1.6891 H   0  0  0  0  0  0  0  0  0  0  0  0
    1.1001   -1.6364    0.2206 H   0  0  0  0  0  0  0  0  0  0  0  0
    2.6647    1.0620    0.7345 H   0  0  0  0  0  0  0  0  0  0  0  0
    3.3516   -0.6892    0.7497 H   0  0  0  0  0  0  0  0  0  0  0  0
    1.9193    0.8267   -1.6298 H   0  0  0  0  0  0  0  0  0  0  0  0
    2.5822   -0.8931   -1.6362 H   0  0  0  0  0  0  0  0  0  0  0  0
  1  2  1  0
  2  3  1  0
  2  4  1  0
  4  5  1  0
  5  6  1  0
  6  7  1  0
  7  8  1  0
  8  9  1  0
  6  2  1  0
  9  7  1  0
  1 10  1  0
  1 11  1  0
  1 12  1  0
  3 13  1  0
  4 14  1  0
  4 15  1  0
  6 16  1  0
  7 17  1  0
  8 18  1  0
  8 19  1  0
  9 20  1  0
  9 21  1  0
M  END
