
     RDKit          3D

 18 18  0  0  0  0  0  0  0  0999 V2000
   -1.4603    0.4426   -1.0167 C   0  0  0  0  0  0  0  0  0  0  0  0
   -0.9474   -0.0652    0.3098 C   0  0  0  0  0  0  0  0  0  0  0  0
   -1.8361   -0.9367    0.9664 O   0  0  0  0  0  0  0  0  0  0  0  0
   -0.1973    0.8354    1.2305 C   0  0  0  0  0  0  0  0  0  0  0  0
    0.4970   -0.2973    0.5006 C   0  0  0  0  0  0  0  0  0  0  0  0
    0.8558   -1.4398    1.2141 O   0  0  0  0  0  0  0  0  0  0  0  0
    1.5213    0.1507   -0.4996 C   0  0  0  0  0  0  0  0  0  0  0  0
    1.7924   -0.8097   -1.4700 O   0  0  0  0  0  0  0  0  0  0  0  0
   -0.6402    0.4038   -1.7581 H   0  0  0  0  0  0  0  0  0  0  0  0
   -1.8128    1.4867   -0.9764 H   0  0  0  0  0  0  0  0  0  0  0  0
   -2.2570   -0.2247   -1.3969 H   0  0  0  0  0  0  0  0  0  0  0  0
   -1.5989   -1.0247    1.9204 H   0  0  0  0  0  0  0  0  0  0  0  0
    0.0111    1.8769    0.9335 H   0  0  0  0  0  0  0  0  0  0  0  0
   -0.3091    0.7027    2.3364 H   0  0  0  0  0  0  0  0  0  0  0  0
    0.3296   -2.1938    0.8543 H   0  0  0  0  0  0  0  0  0  0  0  0
    1.2716    1.1018   -0.9939 H   0  0  0  0  0  0  0  0  0  0  0  0
    2.4954    0.3146    0.0426 H   0  0  0  0  0  0  0  0  0  0  0  0
    2.2845   -0.3234   -2.1970 H   0  0  0  0  0  0  0  0  0  0  0  0
  1  2  1  0
  2  3  1  0
  2  4  1  0
  4  5  1  0
  5  6  1  0
  5  7  1  0
  7  8  1  0
  5  2  1  0
  1  9  1  0
  1 10  1  0
  1 11  1  0
  3 12  1  0
  4 13  1  0
  4 14  1  0
  6 15  1  0
  7 16  1  0
  7 17  1  0
  8 18  1  0
M  END
