
     RDKit          3D

 23 24  0  0  0  0  0  0  0  0999 V2000
   -2.3717   -1.5002    0.2583 C   0  0  0  0  0  0  0  0  0  0  0  0
   -1.3785   -0.3294    0.1741 C   0  0  0  0  0  0  0  0  0  0  0  0
   -0.0821   -0.7585    0.0708 O   0  0  0  0  0  0  0  0  0  0  0  0
    0.8749    0.1974   -0.0098 C   0  0  0  0  0  0  0  0  0  0  0  0
    2.0726   -0.1104    0.8966 C   0  0  0  0  0  0  0  0  0  0  0  0
    2.9524    0.3561   -0.2496 C   0  0  0  0  0  0  0  0  0  0  0  0
    1.8188   -0.0937   -1.1787 C   0  0  0  0  0  0  0  0  0  0  0  0
   -1.8961    0.8099   -0.6576 C   0  0  0  0  0  0  0  0  0  0  0  0
   -1.7959    0.8923    0.8596 C   0  0  0  0  0  0  0  0  0  0  0  0
   -1.9579   -2.1713    1.0470 H   0  0  0  0  0  0  0  0  0  0  0  0
   -2.2491   -2.0457   -0.7053 H   0  0  0  0  0  0  0  0  0  0  0  0
   -3.3902   -1.1594    0.4518 H   0  0  0  0  0  0  0  0  0  0  0  0
    0.5802    1.2548    0.0104 H   0  0  0  0  0  0  0  0  0  0  0  0
    2.1228    0.4757    1.8119 H   0  0  0  0  0  0  0  0  0  0  0  0
    2.1657   -1.2169    0.9964 H   0  0  0  0  0  0  0  0  0  0  0  0
    3.8893   -0.2167   -0.3740 H   0  0  0  0  0  0  0  0  0  0  0  0
    3.0837    1.4555   -0.2622 H   0  0  0  0  0  0  0  0  0  0  0  0
    1.9109   -1.1775   -1.3398 H   0  0  0  0  0  0  0  0  0  0  0  0
    1.6733    0.5368   -2.0558 H   0  0  0  0  0  0  0  0  0  0  0  0
   -2.9341    0.7695   -1.0693 H   0  0  0  0  0  0  0  0  0  0  0  0
   -1.2183    1.4150   -1.2766 H   0  0  0  0  0  0  0  0  0  0  0  0
   -1.1022    1.6854    1.1945 H   0  0  0  0  0  0  0  0  0  0  0  0
   -2.7684    0.9313    1.4074 H   0  0  0  0  0  0  0  0  0  0  0  0
  1  2  1  0
  2  3  1  0
  3  4  1  0
  4  5  1  0
  5  6  1  0
  6  7  1  0
  2  8  1  0
  8  9  1  0
  9  2  1  0
  7  4  1  0
  1 10  1  0
  1 11  1  0
  1 12  1  0
  4 13  1  0
  5 14  1  0
  5 15  1  0
  6 16  1  0
  6 17  1  0
  7 18  1  0
  7 19  1  0
  8 20  1  0
  8 21  1  0
  9 22  1  0
  9 23  1  0
M  END
