
     RDKit          3D

 21 22  0  0  0  0  0  0  0  0999 V2000
   -2.2301   -0.4244    0.5573 C   0  0  0  0  0  0  0  0  0  0  0  0
   -1.0569   -0.0437   -0.3222 C   0  0  0  0  0  0  0  0  0  0  0  0
   -1.5577    0.2420   -1.5860 O   0  0  0  0  0  0  0  0  0  0  0  0
   -0.0175   -1.1190   -0.3759 C   0  0  0  0  0  0  0  0  0  0  0  0
    1.2489   -0.3620   -0.6281 C   0  0  0  0  0  0  0  0  0  0  0  0
    2.0161    0.0393    0.5893 C   0  0  0  0  0  0  0  0  0  0  0  0
    3.3851    0.2099    0.3725 O   0  0  0  0  0  0  0  0  0  0  0  0
    1.1189    1.0009   -0.0751 C   0  0  0  0  0  0  0  0  0  0  0  0
   -0.3241    1.1207    0.2874 C   0  0  0  0  0  0  0  0  0  0  0  0
   -1.8785   -0.7437    1.5449 H   0  0  0  0  0  0  0  0  0  0  0  0
   -2.8856    0.4445    0.6982 H   0  0  0  0  0  0  0  0  0  0  0  0
   -2.8240   -1.2323    0.1054 H   0  0  0  0  0  0  0  0  0  0  0  0
   -2.5541    0.2018   -1.6159 H   0  0  0  0  0  0  0  0  0  0  0  0
   -0.2036   -1.8898   -1.1413 H   0  0  0  0  0  0  0  0  0  0  0  0
    0.0155   -1.5993    0.6323 H   0  0  0  0  0  0  0  0  0  0  0  0
    1.7513   -0.4224   -1.6225 H   0  0  0  0  0  0  0  0  0  0  0  0
    1.7657   -0.4734    1.5304 H   0  0  0  0  0  0  0  0  0  0  0  0
    3.8529   -0.6644    0.4639 H   0  0  0  0  0  0  0  0  0  0  0  0
    1.5929    1.8822   -0.5828 H   0  0  0  0  0  0  0  0  0  0  0  0
   -0.7451    2.0455   -0.1983 H   0  0  0  0  0  0  0  0  0  0  0  0
   -0.4700    1.2246    1.3665 H   0  0  0  0  0  0  0  0  0  0  0  0
  1  2  1  0
  2  3  1  0
  2  4  1  0
  4  5  1  0
  5  6  1  0
  6  7  1  0
  6  8  1  0
  8  9  1  0
  9  2  1  0
  8  5  1  0
  1 10  1  0
  1 11  1  0
  1 12  1  0
  3 13  1  0
  4 14  1  0
  4 15  1  0
  5 16  1  0
  6 17  1  0
  7 18  1  0
  8 19  1  0
  9 20  1  0
  9 21  1  0
M  END
