
     RDKit          3D

 21 22  0  0  0  0  0  0  0  0999 V2000
    0.3302   -0.1485   -1.6805 C   0  0  0  0  0  0  0  0  0  0  0  0
    0.1372   -0.0662   -0.1868 C   0  0  0  0  0  0  0  0  0  0  0  0
    1.3877   -0.3106    0.5867 C   0  0  0  0  0  0  0  0  0  0  0  0
    2.5814    0.4966    0.4627 C   0  0  0  0  0  0  0  0  0  0  0  0
    1.6941    0.8544    1.4715 O   0  0  0  0  0  0  0  0  0  0  0  0
   -0.5396    1.2037    0.1344 C   0  0  0  0  0  0  0  0  0  0  0  0
   -1.7937    0.9974    0.4901 C   0  0  0  0  0  0  0  0  0  0  0  0
   -2.1542   -0.4307    0.4642 C   0  0  0  0  0  0  0  0  0  0  0  0
   -0.8676   -1.1460    0.2071 C   0  0  0  0  0  0  0  0  0  0  0  0
    0.7528   -1.1428   -1.9139 H   0  0  0  0  0  0  0  0  0  0  0  0
    1.0011    0.6864   -1.9684 H   0  0  0  0  0  0  0  0  0  0  0  0
   -0.6710    0.0179   -2.1447 H   0  0  0  0  0  0  0  0  0  0  0  0
    1.4783   -1.2654    1.1851 H   0  0  0  0  0  0  0  0  0  0  0  0
    2.6737    1.1595   -0.4300 H   0  0  0  0  0  0  0  0  0  0  0  0
    3.5393    0.0923    0.8349 H   0  0  0  0  0  0  0  0  0  0  0  0
   -0.0700    2.1817    0.0855 H   0  0  0  0  0  0  0  0  0  0  0  0
   -2.4869    1.7837    0.7709 H   0  0  0  0  0  0  0  0  0  0  0  0
   -2.9050   -0.6608   -0.3359 H   0  0  0  0  0  0  0  0  0  0  0  0
   -2.6115   -0.7207    1.4357 H   0  0  0  0  0  0  0  0  0  0  0  0
   -0.9451   -1.9015   -0.6036 H   0  0  0  0  0  0  0  0  0  0  0  0
   -0.5311   -1.6801    1.1350 H   0  0  0  0  0  0  0  0  0  0  0  0
  1  2  1  0
  2  3  1  0
  3  4  1  0
  4  5  1  0
  2  6  1  0
  6  7  2  0
  7  8  1  0
  8  9  1  0
  9  2  1  0
  5  3  1  0
  1 10  1  0
  1 11  1  0
  1 12  1  0
  3 13  1  0
  4 14  1  0
  4 15  1  0
  6 16  1  0
  7 17  1  0
  8 18  1  0
  8 19  1  0
  9 20  1  0
  9 21  1  0
M  END
