
     RDKit          3D

 21 23  0  0  0  0  0  0  0  0999 V2000
   -1.7422    1.1868    0.1589 C   0  0  0  0  0  0  0  0  0  0  0  0
   -0.8151    0.0295   -0.2081 C   0  0  0  0  0  0  0  0  0  0  0  0
    0.6300    0.3622   -0.0444 C   0  0  0  0  0  0  0  0  0  0  0  0
    1.1009    0.7496    1.3099 C   0  0  0  0  0  0  0  0  0  0  0  0
    2.4858    0.3481    0.8853 C   0  0  0  0  0  0  0  0  0  0  0  0
    1.5318   -0.7189    0.4452 C   0  0  0  0  0  0  0  0  0  0  0  0
    0.9366   -0.5706    1.6904 O   0  0  0  0  0  0  0  0  0  0  0  0
   -1.1620   -0.8735   -1.3293 C   0  0  0  0  0  0  0  0  0  0  0  0
   -1.3620   -1.3121    0.0980 C   0  0  0  0  0  0  0  0  0  0  0  0
   -2.8054    0.8673    0.1564 H   0  0  0  0  0  0  0  0  0  0  0  0
   -1.4618    1.4486    1.2208 H   0  0  0  0  0  0  0  0  0  0  0  0
   -1.5281    2.0568   -0.4581 H   0  0  0  0  0  0  0  0  0  0  0  0
    1.0739    0.9463   -0.8498 H   0  0  0  0  0  0  0  0  0  0  0  0
    0.8566    1.5695    1.8452 H   0  0  0  0  0  0  0  0  0  0  0  0
    3.1579   -0.0083    1.6761 H   0  0  0  0  0  0  0  0  0  0  0  0
    2.8754    1.0295    0.1349 H   0  0  0  0  0  0  0  0  0  0  0  0
    1.7611   -1.5863   -0.0117 H   0  0  0  0  0  0  0  0  0  0  0  0
   -2.0376   -0.6099   -1.9563 H   0  0  0  0  0  0  0  0  0  0  0  0
   -0.3320   -1.3909   -1.8439 H   0  0  0  0  0  0  0  0  0  0  0  0
   -2.4287   -1.4033    0.3846 H   0  0  0  0  0  0  0  0  0  0  0  0
   -0.7353   -2.1205    0.5250 H   0  0  0  0  0  0  0  0  0  0  0  0
  1  2  1  0
  2  3  1  0
  3  4  1  0
  4  5  1  0
  5  6  1  0
  6  7  1  0
  2  8  1  0
  8  9  1  0
  9  2  1  0
  6  3  1  0
  7  4  1  0
  1 10  1  0
  1 11  1  0
  1 12  1  0
  3 13  1  0
  4 14  1  0
  5 15  1  0
  5 16  1  0
  6 17  1  0
  8 18  1  0
  8 19  1  0
  9 20  1  0
  9 21  1  0
M  END
