
     RDKit          3D

 23 23  0  0  0  0  0  0  0  0999 V2000
   -1.6057   -0.5891    1.0994 C   0  0  0  0  0  0  0  0  0  0  0  0
   -1.1623    0.0868   -0.1564 C   0  0  0  0  0  0  0  0  0  0  0  0
   -2.2152    0.8798   -0.8482 C   0  0  0  0  0  0  0  0  0  0  0  0
    0.0508    0.9600    0.0618 C   0  0  0  0  0  0  0  0  0  0  0  0
    1.1507    0.2338   -0.0512 C   0  0  0  0  0  0  0  0  0  0  0  0
    2.5747    0.7238    0.0941 C   0  0  0  0  0  0  0  0  0  0  0  0
    3.1579    0.0194    1.1394 O   0  0  0  0  0  0  0  0  0  0  0  0
    0.7569   -1.1615   -0.3363 C   0  0  0  0  0  0  0  0  0  0  0  0
   -0.5499   -0.9905   -1.0738 C   0  0  0  0  0  0  0  0  0  0  0  0
   -1.4140   -1.6851    1.1072 H   0  0  0  0  0  0  0  0  0  0  0  0
   -2.7218   -0.4877    1.2379 H   0  0  0  0  0  0  0  0  0  0  0  0
   -1.0692   -0.1983    2.0117 H   0  0  0  0  0  0  0  0  0  0  0  0
   -3.1405    0.2729   -0.9078 H   0  0  0  0  0  0  0  0  0  0  0  0
   -2.3612    1.8225   -0.2813 H   0  0  0  0  0  0  0  0  0  0  0  0
   -1.8247    1.1540   -1.8575 H   0  0  0  0  0  0  0  0  0  0  0  0
    0.0715    2.0203    0.2796 H   0  0  0  0  0  0  0  0  0  0  0  0
    3.1517    0.5096   -0.8438 H   0  0  0  0  0  0  0  0  0  0  0  0
    2.5395    1.8105    0.2601 H   0  0  0  0  0  0  0  0  0  0  0  0
    4.0426    0.4558    1.3254 H   0  0  0  0  0  0  0  0  0  0  0  0
    0.5811   -1.6486    0.6561 H   0  0  0  0  0  0  0  0  0  0  0  0
    1.5118   -1.7117   -0.9310 H   0  0  0  0  0  0  0  0  0  0  0  0
   -0.3457   -0.5869   -2.0722 H   0  0  0  0  0  0  0  0  0  0  0  0
   -1.1791   -1.8899   -1.0640 H   0  0  0  0  0  0  0  0  0  0  0  0
  1  2  1  0
  2  3  1  0
  2  4  1  0
  4  5  2  0
  5  6  1  0
  6  7  1  0
  5  8  1  0
  8  9  1  0
  9  2  1  0
  1 10  1  0
  1 11  1  0
  1 12  1  0
  3 13  1  0
  3 14  1  0
  3 15  1  0
  4 16  1  0
  6 17  1  0
  6 18  1  0
  7 19  1  0
  8 20  1  0
  8 21  1  0
  9 22  1  0
  9 23  1  0
M  END
