
     RDKit          3D

 19 21  0  0  0  0  0  0  0  0999 V2000
   -1.4145   -1.1834   -0.4937 C   0  0  0  0  0  0  0  0  0  0  0  0
   -0.2553   -0.6279    0.2453 C   0  0  0  0  0  0  0  0  0  0  0  0
   -0.1253   -1.1764    1.5268 O   0  0  0  0  0  0  0  0  0  0  0  0
    1.0892   -0.6994   -0.4579 C   0  0  0  0  0  0  0  0  0  0  0  0
    2.2209   -0.2475    0.3718 C   0  0  0  0  0  0  0  0  0  0  0  0
    1.3145    0.8080   -0.1002 C   0  0  0  0  0  0  0  0  0  0  0  0
   -0.1318    0.8603    0.1779 C   0  0  0  0  0  0  0  0  0  0  0  0
   -1.1103    1.6752   -0.3503 C   0  0  0  0  0  0  0  0  0  0  0  0
   -0.7056    1.6865    1.0966 O   0  0  0  0  0  0  0  0  0  0  0  0
   -2.3453   -0.7076   -0.0692 H   0  0  0  0  0  0  0  0  0  0  0  0
   -1.3642   -1.0345   -1.5761 H   0  0  0  0  0  0  0  0  0  0  0  0
   -1.5110   -2.2674   -0.2138 H   0  0  0  0  0  0  0  0  0  0  0  0
   -0.8208   -0.7521    2.0826 H   0  0  0  0  0  0  0  0  0  0  0  0
    1.1525   -0.9386   -1.5145 H   0  0  0  0  0  0  0  0  0  0  0  0
    3.2253   -0.2961   -0.0514 H   0  0  0  0  0  0  0  0  0  0  0  0
    2.1918   -0.6194    1.4383 H   0  0  0  0  0  0  0  0  0  0  0  0
    1.6792    1.4504   -0.9123 H   0  0  0  0  0  0  0  0  0  0  0  0
   -2.1830    1.4010   -0.3752 H   0  0  0  0  0  0  0  0  0  0  0  0
   -0.9063    2.6685   -0.8248 H   0  0  0  0  0  0  0  0  0  0  0  0
  1  2  1  0
  2  3  1  0
  2  4  1  0
  4  5  1  0
  5  6  1  0
  6  7  1  0
  7  8  1  0
  8  9  1  0
  7  2  1  0
  6  4  1  0
  9  7  1  0
  1 10  1  0
  1 11  1  0
  1 12  1  0
  3 13  1  0
  4 14  1  0
  5 15  1  0
  5 16  1  0
  6 17  1  0
  8 18  1  0
  8 19  1  0
M  END
