
     RDKit          3D

 17 18  0  0  0  0  0  0  0  0999 V2000
    1.7292   -0.0538   -0.5665 C   0  0  0  0  0  0  0  0  0  0  0  0
    0.5612   -0.0213    0.3726 C   0  0  0  0  0  0  0  0  0  0  0  0
    0.8751   -0.0466    1.7132 O   0  0  0  0  0  0  0  0  0  0  0  0
   -0.4980    1.0025    0.0875 C   0  0  0  0  0  0  0  0  0  0  0  0
   -1.4410    0.0819    0.8126 C   0  0  0  0  0  0  0  0  0  0  0  0
   -0.6261   -0.8425   -0.0532 C   0  0  0  0  0  0  0  0  0  0  0  0
   -0.8257    0.1800   -1.1328 C   0  0  0  0  0  0  0  0  0  0  0  0
    1.8205    0.8621   -1.1906 H   0  0  0  0  0  0  0  0  0  0  0  0
    2.6562   -0.1346    0.0511 H   0  0  0  0  0  0  0  0  0  0  0  0
    1.6202   -0.9359   -1.2467 H   0  0  0  0  0  0  0  0  0  0  0  0
    0.9999   -0.9425    2.0909 H   0  0  0  0  0  0  0  0  0  0  0  0
   -0.4363    1.9939    0.1538 H   0  0  0  0  0  0  0  0  0  0  0  0
   -1.2567    0.0332    1.8894 H   0  0  0  0  0  0  0  0  0  0  0  0
   -2.5051    0.1420    0.4887 H   0  0  0  0  0  0  0  0  0  0  0  0
   -0.6930   -1.8340   -0.1187 H   0  0  0  0  0  0  0  0  0  0  0  0
   -0.0871    0.2232   -1.9313 H   0  0  0  0  0  0  0  0  0  0  0  0
   -1.8935    0.2925   -1.4200 H   0  0  0  0  0  0  0  0  0  0  0  0
  1  2  1  0
  2  3  1  0
  2  4  1  0
  4  5  1  0
  5  6  1  0
  6  7  1  0
  6  2  1  0
  7  4  1  0
  1  8  1  0
  1  9  1  0
  1 10  1  0
  3 11  1  0
  4 12  1  0
  5 13  1  0
  5 14  1  0
  6 15  1  0
  7 16  1  0
  7 17  1  0
M  END
