
     RDKit          3D

 21 22  0  0  0  0  0  0  0  0999 V2000
   -2.4439   -0.6663    0.6767 C   0  0  0  0  0  0  0  0  0  0  0  0
   -1.4428    0.1238   -0.1811 C   0  0  0  0  0  0  0  0  0  0  0  0
   -2.1512    0.9615   -1.0689 O   0  0  0  0  0  0  0  0  0  0  0  0
   -0.2988    0.5997    0.4685 C   0  0  0  0  0  0  0  0  0  0  0  0
    0.8208   -0.0223    1.2113 C   0  0  0  0  0  0  0  0  0  0  0  0
    1.8572   -0.0683    0.0655 C   0  0  0  0  0  0  0  0  0  0  0  0
    2.5786    1.1235    0.1745 O   0  0  0  0  0  0  0  0  0  0  0  0
    1.0055   -0.0502   -1.2209 C   0  0  0  0  0  0  0  0  0  0  0  0
   -0.2878   -0.5052   -0.6662 C   0  0  0  0  0  0  0  0  0  0  0  0
   -2.7467   -1.5958    0.1902 H   0  0  0  0  0  0  0  0  0  0  0  0
   -1.9641   -0.9558    1.6578 H   0  0  0  0  0  0  0  0  0  0  0  0
   -3.2765    0.0061    0.9536 H   0  0  0  0  0  0  0  0  0  0  0  0
   -1.5228    1.2912   -1.7576 H   0  0  0  0  0  0  0  0  0  0  0  0
    0.0402    1.6311    0.1347 H   0  0  0  0  0  0  0  0  0  0  0  0
    0.6134   -1.1022    1.4416 H   0  0  0  0  0  0  0  0  0  0  0  0
    1.2068    0.5380    2.0641 H   0  0  0  0  0  0  0  0  0  0  0  0
    2.4772   -0.9633    0.1263 H   0  0  0  0  0  0  0  0  0  0  0  0
    3.3190    1.1720   -0.4528 H   0  0  0  0  0  0  0  0  0  0  0  0
    1.4375   -0.6738   -2.0015 H   0  0  0  0  0  0  0  0  0  0  0  0
    0.9253    1.0331   -1.5184 H   0  0  0  0  0  0  0  0  0  0  0  0
   -0.1468   -1.5705   -0.2976 H   0  0  0  0  0  0  0  0  0  0  0  0
  1  2  1  0
  2  3  1  0
  2  4  1  0
  4  5  1  0
  5  6  1  0
  6  7  1  0
  6  8  1  0
  8  9  1  0
  9  2  1  0
  9  4  1  0
  1 10  1  0
  1 11  1  0
  1 12  1  0
  3 13  1  0
  4 14  1  0
  5 15  1  0
  5 16  1  0
  6 17  1  0
  7 18  1  0
  8 19  1  0
  8 20  1  0
  9 21  1  0
M  END
