
     RDKit          3D

 23 23  0  0  0  0  0  0  0  0999 V2000
   -1.0990   -0.9618   -1.4111 C   0  0  0  0  0  0  0  0  0  0  0  0
   -0.7214   -0.0794   -0.2661 C   0  0  0  0  0  0  0  0  0  0  0  0
   -1.1639   -0.7735    1.0222 C   0  0  0  0  0  0  0  0  0  0  0  0
   -1.4110    1.1013   -0.3485 O   0  0  0  0  0  0  0  0  0  0  0  0
   -0.5497    2.1520   -0.1692 C   0  0  0  0  0  0  0  0  0  0  0  0
    0.6980    1.5793    0.5170 C   0  0  0  0  0  0  0  0  0  0  0  0
    0.7469    0.2351   -0.1995 C   0  0  0  0  0  0  0  0  0  0  0  0
    1.5468   -0.7804    0.5498 C   0  0  0  0  0  0  0  0  0  0  0  0
    1.3961   -2.0035   -0.0909 O   0  0  0  0  0  0  0  0  0  0  0  0
   -0.1870   -1.1300   -2.0332 H   0  0  0  0  0  0  0  0  0  0  0  0
   -1.8887   -0.4954   -2.0332 H   0  0  0  0  0  0  0  0  0  0  0  0
   -1.5297   -1.9400   -1.0664 H   0  0  0  0  0  0  0  0  0  0  0  0
   -0.6750   -0.2862    1.8656 H   0  0  0  0  0  0  0  0  0  0  0  0
   -1.0617   -1.8578    0.9664 H   0  0  0  0  0  0  0  0  0  0  0  0
   -2.2702   -0.5658    1.0927 H   0  0  0  0  0  0  0  0  0  0  0  0
   -0.9802    2.9803    0.4012 H   0  0  0  0  0  0  0  0  0  0  0  0
   -0.1943    2.4700   -1.1868 H   0  0  0  0  0  0  0  0  0  0  0  0
    0.4495    1.4320    1.6052 H   0  0  0  0  0  0  0  0  0  0  0  0
    1.5824    2.1891    0.3512 H   0  0  0  0  0  0  0  0  0  0  0  0
    1.1953    0.4022   -1.1755 H   0  0  0  0  0  0  0  0  0  0  0  0
    2.6064   -0.4865    0.5025 H   0  0  0  0  0  0  0  0  0  0  0  0
    1.2636   -0.8701    1.6131 H   0  0  0  0  0  0  0  0  0  0  0  0
    2.2468   -2.3110   -0.5063 H   0  0  0  0  0  0  0  0  0  0  0  0
  1  2  1  0
  2  3  1  0
  2  4  1  0
  4  5  1  0
  5  6  1  0
  6  7  1  0
  7  8  1  0
  8  9  1  0
  7  2  1  0
  1 10  1  0
  1 11  1  0
  1 12  1  0
  3 13  1  0
  3 14  1  0
  3 15  1  0
  5 16  1  0
  5 17  1  0
  6 18  1  0
  6 19  1  0
  7 20  1  0
  8 21  1  0
  8 22  1  0
  9 23  1  0
M  END
