
     RDKit          3D

 19 21  0  0  0  0  0  0  0  0999 V2000
   -1.1804    1.0067   -0.6094 C   0  0  0  0  0  0  0  0  0  0  0  0
   -0.6043   -0.0154    0.3839 C   0  0  0  0  0  0  0  0  0  0  0  0
   -1.7553   -0.8354    0.8721 C   0  0  0  0  0  0  0  0  0  0  0  0
    0.0463    0.7008    1.3533 O   0  0  0  0  0  0  0  0  0  0  0  0
    1.4066    0.7477    0.9892 C   0  0  0  0  0  0  0  0  0  0  0  0
    1.8257    0.5185   -0.4043 C   0  0  0  0  0  0  0  0  0  0  0  0
    1.0177   -0.1100   -1.3379 O   0  0  0  0  0  0  0  0  0  0  0  0
    0.4359   -0.8781   -0.3290 C   0  0  0  0  0  0  0  0  0  0  0  0
    1.6463   -0.6082    0.5001 C   0  0  0  0  0  0  0  0  0  0  0  0
   -2.0279    1.4902   -0.0554 H   0  0  0  0  0  0  0  0  0  0  0  0
   -0.3849    1.7358   -0.8589 H   0  0  0  0  0  0  0  0  0  0  0  0
   -1.6022    0.4852   -1.4788 H   0  0  0  0  0  0  0  0  0  0  0  0
   -1.4901   -1.8696    1.1510 H   0  0  0  0  0  0  0  0  0  0  0  0
   -2.2475   -0.3692    1.7613 H   0  0  0  0  0  0  0  0  0  0  0  0
   -2.4952   -0.9175    0.0451 H   0  0  0  0  0  0  0  0  0  0  0  0
    2.1164    1.2025    1.6609 H   0  0  0  0  0  0  0  0  0  0  0  0
    2.7786    0.9324   -0.7333 H   0  0  0  0  0  0  0  0  0  0  0  0
    0.1576   -1.8925   -0.5567 H   0  0  0  0  0  0  0  0  0  0  0  0
    2.3566   -1.3239    0.8261 H   0  0  0  0  0  0  0  0  0  0  0  0
  1  2  1  0
  2  3  1  0
  2  4  1  0
  4  5  1  0
  5  6  1  0
  6  7  1  0
  7  8  1  0
  8  9  1  0
  8  2  1  0
  9  5  1  0
  9  6  1  0
  1 10  1  0
  1 11  1  0
  1 12  1  0
  3 13  1  0
  3 14  1  0
  3 15  1  0
  5 16  1  0
  6 17  1  0
  8 18  1  0
  9 19  1  0
M  END
