
     RDKit          3D

 18 18  0  0  0  0  0  0  0  0999 V2000
   -1.4526    1.1759   -0.2831 C   0  0  0  0  0  0  0  0  0  0  0  0
   -0.4278    0.1141    0.0708 C   0  0  0  0  0  0  0  0  0  0  0  0
   -1.0456   -0.9101    0.9815 C   0  0  0  0  0  0  0  0  0  0  0  0
    0.2645   -0.5287   -1.0898 C   0  0  0  0  0  0  0  0  0  0  0  0
    1.5530   -0.0816   -0.4853 C   0  0  0  0  0  0  0  0  0  0  0  0
    2.2912   -1.0599    0.1817 O   0  0  0  0  0  0  0  0  0  0  0  0
    0.8176    0.7404    0.5285 C   0  0  0  0  0  0  0  0  0  0  0  0
    1.2356    1.5571    1.3354 O   0  0  0  0  0  0  0  0  0  0  0  0
   -2.3564    0.6967   -0.6627 H   0  0  0  0  0  0  0  0  0  0  0  0
   -0.9961    1.8475   -1.0521 H   0  0  0  0  0  0  0  0  0  0  0  0
   -1.6505    1.7349    0.6746 H   0  0  0  0  0  0  0  0  0  0  0  0
   -1.7131   -1.5587    0.3438 H   0  0  0  0  0  0  0  0  0  0  0  0
   -0.2872   -1.5726    1.4132 H   0  0  0  0  0  0  0  0  0  0  0  0
   -1.7035   -0.4269    1.7079 H   0  0  0  0  0  0  0  0  0  0  0  0
    0.1001   -0.0372   -2.0742 H   0  0  0  0  0  0  0  0  0  0  0  0
    0.1514   -1.6245   -1.1635 H   0  0  0  0  0  0  0  0  0  0  0  0
    2.2331    0.4989   -1.1360 H   0  0  0  0  0  0  0  0  0  0  0  0
    2.9863   -0.5653    0.7095 H   0  0  0  0  0  0  0  0  0  0  0  0
  1  2  1  0
  2  3  1  0
  2  4  1  0
  4  5  1  0
  5  6  1  0
  5  7  1  0
  7  8  2  0
  7  2  1  0
  1  9  1  0
  1 10  1  0
  1 11  1  0
  3 12  1  0
  3 13  1  0
  3 14  1  0
  4 15  1  0
  4 16  1  0
  5 17  1  0
  6 18  1  0
M  END
