
     RDKit          3D

 21 23  0  0  0  0  0  0  0  0999 V2000
    2.0957   -0.7339   -0.1674 C   0  0  0  0  0  0  0  0  0  0  0  0
    0.7027   -0.3018    0.2911 C   0  0  0  0  0  0  0  0  0  0  0  0
    0.5808   -0.2688    1.6525 O   0  0  0  0  0  0  0  0  0  0  0  0
    0.3921    0.9843   -0.3956 C   0  0  0  0  0  0  0  0  0  0  0  0
   -0.2752    2.1653   -0.0569 C   0  0  0  0  0  0  0  0  0  0  0  0
   -1.0528    1.0273    0.2503 C   0  0  0  0  0  0  0  0  0  0  0  0
   -1.5314   -0.1335   -0.4996 C   0  0  0  0  0  0  0  0  0  0  0  0
   -1.6205   -1.5218    0.2091 C   0  0  0  0  0  0  0  0  0  0  0  0
   -0.3579   -1.1780   -0.3774 C   0  0  0  0  0  0  0  0  0  0  0  0
    2.6867    0.2041   -0.3551 H   0  0  0  0  0  0  0  0  0  0  0  0
    1.9578   -1.3127   -1.0916 H   0  0  0  0  0  0  0  0  0  0  0  0
    2.6243   -1.3125    0.5944 H   0  0  0  0  0  0  0  0  0  0  0  0
    1.1053    0.4897    1.9943 H   0  0  0  0  0  0  0  0  0  0  0  0
    0.4150    0.7780   -1.5130 H   0  0  0  0  0  0  0  0  0  0  0  0
    0.1593    2.8098    0.7558 H   0  0  0  0  0  0  0  0  0  0  0  0
   -0.6794    2.8539   -0.8508 H   0  0  0  0  0  0  0  0  0  0  0  0
   -1.0886    0.8108    1.3656 H   0  0  0  0  0  0  0  0  0  0  0  0
   -1.9613   -0.0717   -1.5062 H   0  0  0  0  0  0  0  0  0  0  0  0
   -2.2495   -2.2497   -0.2884 H   0  0  0  0  0  0  0  0  0  0  0  0
   -1.8628   -1.3951    1.2968 H   0  0  0  0  0  0  0  0  0  0  0  0
   -0.0402   -1.6438   -1.3081 H   0  0  0  0  0  0  0  0  0  0  0  0
  1  2  1  0
  2  3  1  0
  2  4  1  0
  4  5  1  0
  5  6  1  0
  6  7  1  0
  7  8  1  0
  8  9  1  0
  9  2  1  0
  6  4  1  0
  9  7  1  0
  1 10  1  0
  1 11  1  0
  1 12  1  0
  3 13  1  0
  4 14  1  0
  5 15  1  0
  5 16  1  0
  6 17  1  0
  7 18  1  0
  8 19  1  0
  8 20  1  0
  9 21  1  0
M  END
