
     RDKit          3D

 23 23  0  0  0  0  0  0  0  0999 V2000
    1.4370   -0.3814   -1.1767 C   0  0  0  0  0  0  0  0  0  0  0  0
    0.8578   -0.0339    0.1911 C   0  0  0  0  0  0  0  0  0  0  0  0
    2.0876    0.0209    1.1221 C   0  0  0  0  0  0  0  0  0  0  0  0
    0.2800    1.3381    0.2304 C   0  0  0  0  0  0  0  0  0  0  0  0
   -1.0566    1.4935   -0.3046 C   0  0  0  0  0  0  0  0  0  0  0  0
   -2.0852    0.6668   -0.2625 C   0  0  0  0  0  0  0  0  0  0  0  0
   -2.2101   -0.6839    0.3423 C   0  0  0  0  0  0  0  0  0  0  0  0
   -0.9515   -1.4666   -0.0585 C   0  0  0  0  0  0  0  0  0  0  0  0
    0.0715   -1.0158    0.7126 O   0  0  0  0  0  0  0  0  0  0  0  0
    1.8256   -1.4187   -1.1271 H   0  0  0  0  0  0  0  0  0  0  0  0
    2.2741    0.2839   -1.4149 H   0  0  0  0  0  0  0  0  0  0  0  0
    0.7096   -0.3294   -1.9789 H   0  0  0  0  0  0  0  0  0  0  0  0
    1.8474    0.5983    2.0388 H   0  0  0  0  0  0  0  0  0  0  0  0
    2.8585    0.5841    0.5545 H   0  0  0  0  0  0  0  0  0  0  0  0
    2.4753   -0.9864    1.3276 H   0  0  0  0  0  0  0  0  0  0  0  0
    0.2649    1.6735    1.3084 H   0  0  0  0  0  0  0  0  0  0  0  0
    0.9740    2.0348   -0.2745 H   0  0  0  0  0  0  0  0  0  0  0  0
   -1.2577    2.4190   -0.8177 H   0  0  0  0  0  0  0  0  0  0  0  0
   -2.9968    1.0094   -0.7408 H   0  0  0  0  0  0  0  0  0  0  0  0
   -2.3501   -0.6644    1.4238 H   0  0  0  0  0  0  0  0  0  0  0  0
   -3.0550   -1.2558   -0.0966 H   0  0  0  0  0  0  0  0  0  0  0  0
   -1.1507   -2.5412    0.1366 H   0  0  0  0  0  0  0  0  0  0  0  0
   -0.8493   -1.3449   -1.1355 H   0  0  0  0  0  0  0  0  0  0  0  0
  1  2  1  0
  2  3  1  0
  2  4  1  0
  4  5  1  0
  5  6  2  0
  6  7  1  0
  7  8  1  0
  8  9  1  0
  9  2  1  0
  1 10  1  0
  1 11  1  0
  1 12  1  0
  3 13  1  0
  3 14  1  0
  3 15  1  0
  4 16  1  0
  4 17  1  0
  5 18  1  0
  6 19  1  0
  7 20  1  0
  7 21  1  0
  8 22  1  0
  8 23  1  0
M  END
