
     RDKit          3D

 19 20  0  0  0  0  0  0  0  0999 V2000
   -0.3763    0.9482   -1.5089 C   0  0  0  0  0  0  0  0  0  0  0  0
   -0.2979    0.1216   -0.2687 C   0  0  0  0  0  0  0  0  0  0  0  0
   -1.6577   -0.2972    0.2428 C   0  0  0  0  0  0  0  0  0  0  0  0
   -1.5851   -1.0570    1.3828 O   0  0  0  0  0  0  0  0  0  0  0  0
    0.5287   -1.0933   -0.5936 C   0  0  0  0  0  0  0  0  0  0  0  0
    1.6842   -1.0488    0.0295 C   0  0  0  0  0  0  0  0  0  0  0  0
    1.8480    0.1505    0.8554 C   0  0  0  0  0  0  0  0  0  0  0  0
    1.6614    1.4157    0.3460 O   0  0  0  0  0  0  0  0  0  0  0  0
    0.5009    0.8246    0.7805 C   0  0  0  0  0  0  0  0  0  0  0  0
   -0.6382    1.9924   -1.2840 H   0  0  0  0  0  0  0  0  0  0  0  0
   -1.0338    0.4891   -2.2748 H   0  0  0  0  0  0  0  0  0  0  0  0
    0.6588    0.9624   -1.9604 H   0  0  0  0  0  0  0  0  0  0  0  0
   -2.1379   -0.9354   -0.5488 H   0  0  0  0  0  0  0  0  0  0  0  0
   -2.2632    0.5934    0.4259 H   0  0  0  0  0  0  0  0  0  0  0  0
   -1.9266   -0.5417    2.1540 H   0  0  0  0  0  0  0  0  0  0  0  0
    0.1246   -1.8581   -1.2748 H   0  0  0  0  0  0  0  0  0  0  0  0
    2.4387   -1.8299   -0.0644 H   0  0  0  0  0  0  0  0  0  0  0  0
    2.4017    0.1012    1.7939 H   0  0  0  0  0  0  0  0  0  0  0  0
    0.0696    1.0623    1.7678 H   0  0  0  0  0  0  0  0  0  0  0  0
  1  2  1  0
  2  3  1  0
  3  4  1  0
  2  5  1  0
  5  6  2  0
  6  7  1  0
  7  8  1  0
  8  9  1  0
  9  2  1  0
  9  7  1  0
  1 10  1  0
  1 11  1  0
  1 12  1  0
  3 13  1  0
  3 14  1  0
  4 15  1  0
  5 16  1  0
  6 17  1  0
  7 18  1  0
  9 19  1  0
M  END
