
     RDKit          3D

 21 22  0  0  0  0  0  0  0  0999 V2000
   -1.7769    1.0094   -0.4352 C   0  0  0  0  0  0  0  0  0  0  0  0
   -1.2965   -0.2608    0.2295 C   0  0  0  0  0  0  0  0  0  0  0  0
   -2.3340   -0.8510    0.9367 O   0  0  0  0  0  0  0  0  0  0  0  0
   -0.7621   -1.2441   -0.7453 C   0  0  0  0  0  0  0  0  0  0  0  0
    0.5511   -1.2007   -0.7591 C   0  0  0  0  0  0  0  0  0  0  0  0
    1.0189   -0.2033    0.1855 C   0  0  0  0  0  0  0  0  0  0  0  0
    1.7507    0.9618   -0.4312 C   0  0  0  0  0  0  0  0  0  0  0  0
    2.4324   -0.0090    0.5358 C   0  0  0  0  0  0  0  0  0  0  0  0
   -0.1003    0.0461    1.1448 C   0  0  0  0  0  0  0  0  0  0  0  0
   -2.2653    0.7856   -1.4230 H   0  0  0  0  0  0  0  0  0  0  0  0
   -0.8918    1.6765   -0.5843 H   0  0  0  0  0  0  0  0  0  0  0  0
   -2.5235    1.4618    0.2643 H   0  0  0  0  0  0  0  0  0  0  0  0
   -2.8366   -1.4079    0.2709 H   0  0  0  0  0  0  0  0  0  0  0  0
   -1.3915   -1.8888   -1.3427 H   0  0  0  0  0  0  0  0  0  0  0  0
    1.2214   -1.8157   -1.3824 H   0  0  0  0  0  0  0  0  0  0  0  0
    1.4648    1.9549   -0.0478 H   0  0  0  0  0  0  0  0  0  0  0  0
    2.0866    0.8826   -1.4895 H   0  0  0  0  0  0  0  0  0  0  0  0
    2.6942    0.4394    1.5033 H   0  0  0  0  0  0  0  0  0  0  0  0
    3.1457   -0.7474    0.1064 H   0  0  0  0  0  0  0  0  0  0  0  0
   -0.0651   -0.6860    1.9721 H   0  0  0  0  0  0  0  0  0  0  0  0
   -0.1223    1.0967    1.4913 H   0  0  0  0  0  0  0  0  0  0  0  0
  1  2  1  0
  2  3  1  0
  2  4  1  0
  4  5  2  0
  5  6  1  0
  6  7  1  0
  7  8  1  0
  6  9  1  0
  9  2  1  0
  8  6  1  0
  1 10  1  0
  1 11  1  0
  1 12  1  0
  3 13  1  0
  4 14  1  0
  5 15  1  0
  7 16  1  0
  7 17  1  0
  8 18  1  0
  8 19  1  0
  9 20  1  0
  9 21  1  0
M  END
