
     RDKit          3D

 17 18  0  0  0  0  0  0  0  0999 V2000
   -1.5464    1.3135    0.2082 C   0  0  0  0  0  0  0  0  0  0  0  0
   -0.7406    0.1077   -0.2236 C   0  0  0  0  0  0  0  0  0  0  0  0
    0.6016   -0.0280    0.4549 C   0  0  0  0  0  0  0  0  0  0  0  0
    1.7205    0.1497   -0.5786 C   0  0  0  0  0  0  0  0  0  0  0  0
    2.3458   -0.8626    0.2857 C   0  0  0  0  0  0  0  0  0  0  0  0
    3.4921   -1.1910    0.6226 O   0  0  0  0  0  0  0  0  0  0  0  0
    1.0900   -1.3343    0.5958 O   0  0  0  0  0  0  0  0  0  0  0  0
   -1.5169   -1.1215   -0.5366 C   0  0  0  0  0  0  0  0  0  0  0  0
   -0.8684   -0.3601   -1.5204 O   0  0  0  0  0  0  0  0  0  0  0  0
   -1.9626    1.1116    1.2167 H   0  0  0  0  0  0  0  0  0  0  0  0
   -0.8829    2.2177    0.3164 H   0  0  0  0  0  0  0  0  0  0  0  0
   -2.3174    1.6003   -0.5324 H   0  0  0  0  0  0  0  0  0  0  0  0
    0.7481    0.6210    1.3313 H   0  0  0  0  0  0  0  0  0  0  0  0
    1.3806   -0.2069   -1.5510 H   0  0  0  0  0  0  0  0  0  0  0  0
    2.1728    1.1600   -0.5505 H   0  0  0  0  0  0  0  0  0  0  0  0
   -2.6179   -1.0927   -0.5883 H   0  0  0  0  0  0  0  0  0  0  0  0
   -1.0985   -2.0843   -0.2355 H   0  0  0  0  0  0  0  0  0  0  0  0
  1  2  1  0
  2  3  1  0
  3  4  1  0
  4  5  1  0
  5  6  2  0
  5  7  1  0
  2  8  1  0
  8  9  1  0
  9  2  1  0
  7  3  1  0
  1 10  1  0
  1 11  1  0
  1 12  1  0
  3 13  1  0
  4 14  1  0
  4 15  1  0
  8 16  1  0
  8 17  1  0
M  END
