
     RDKit          3D

 23 24  0  0  0  0  0  0  0  0999 V2000
    1.7887    0.2727   -0.7548 C   0  0  0  0  0  0  0  0  0  0  0  0
    0.8045    0.2313    0.3885 C   0  0  0  0  0  0  0  0  0  0  0  0
    1.1336    1.0455    1.4382 O   0  0  0  0  0  0  0  0  0  0  0  0
    0.7127   -1.2502    0.8143 C   0  0  0  0  0  0  0  0  0  0  0  0
   -0.6378   -1.5623    0.2641 C   0  0  0  0  0  0  0  0  0  0  0  0
   -1.4489   -0.4087    0.8781 C   0  0  0  0  0  0  0  0  0  0  0  0
   -0.6024    0.4333   -0.0781 C   0  0  0  0  0  0  0  0  0  0  0  0
   -1.0933    1.7194   -0.4955 C   0  0  0  0  0  0  0  0  0  0  0  0
   -0.7542   -0.7589   -1.0252 C   0  0  0  0  0  0  0  0  0  0  0  0
    2.7705    0.7145   -0.4586 H   0  0  0  0  0  0  0  0  0  0  0  0
    1.3460    0.8505   -1.6130 H   0  0  0  0  0  0  0  0  0  0  0  0
    2.0316   -0.7398   -1.1502 H   0  0  0  0  0  0  0  0  0  0  0  0
    2.0821    1.1004    1.6235 H   0  0  0  0  0  0  0  0  0  0  0  0
    0.6484   -1.2210    1.9204 H   0  0  0  0  0  0  0  0  0  0  0  0
    1.5346   -1.8385    0.4163 H   0  0  0  0  0  0  0  0  0  0  0  0
   -1.0510   -2.5318    0.3052 H   0  0  0  0  0  0  0  0  0  0  0  0
   -2.4952   -0.4505    0.5389 H   0  0  0  0  0  0  0  0  0  0  0  0
   -1.2612   -0.2406    1.9396 H   0  0  0  0  0  0  0  0  0  0  0  0
   -1.3124    1.8360   -1.5935 H   0  0  0  0  0  0  0  0  0  0  0  0
   -2.0851    1.9435   -0.0001 H   0  0  0  0  0  0  0  0  0  0  0  0
   -0.4383    2.5796   -0.1677 H   0  0  0  0  0  0  0  0  0  0  0  0
    0.0732   -0.8577   -1.7234 H   0  0  0  0  0  0  0  0  0  0  0  0
   -1.7461   -0.8665   -1.4672 H   0  0  0  0  0  0  0  0  0  0  0  0
  1  2  1  0
  2  3  1  0
  2  4  1  0
  4  5  1  0
  5  6  1  0
  6  7  1  0
  7  8  1  0
  7  9  1  0
  7  2  1  0
  9  5  1  0
  1 10  1  0
  1 11  1  0
  1 12  1  0
  3 13  1  0
  4 14  1  0
  4 15  1  0
  5 16  1  0
  6 17  1  0
  6 18  1  0
  8 19  1  0
  8 20  1  0
  8 21  1  0
  9 22  1  0
  9 23  1  0
M  END
