
     RDKit          3D

 21 22  0  0  0  0  0  0  0  0999 V2000
   -1.7940    0.6864    1.1425 C   0  0  0  0  0  0  0  0  0  0  0  0
   -0.8674    0.2589    0.0067 C   0  0  0  0  0  0  0  0  0  0  0  0
    0.5284    0.7832    0.1634 C   0  0  0  0  0  0  0  0  0  0  0  0
    1.5091    0.4143   -0.9052 C   0  0  0  0  0  0  0  0  0  0  0  0
    2.3205   -0.3990    0.0519 C   0  0  0  0  0  0  0  0  0  0  0  0
    1.2860   -0.1340    1.0928 C   0  0  0  0  0  0  0  0  0  0  0  0
    1.1028   -0.4929    2.2263 O   0  0  0  0  0  0  0  0  0  0  0  0
   -0.9119   -1.2373   -0.3687 C   0  0  0  0  0  0  0  0  0  0  0  0
   -1.4336   -0.1723   -1.2636 C   0  0  0  0  0  0  0  0  0  0  0  0
   -1.2162    0.9468    2.0472 H   0  0  0  0  0  0  0  0  0  0  0  0
   -2.5108   -0.1253    1.3831 H   0  0  0  0  0  0  0  0  0  0  0  0
   -2.3374    1.5911    0.8158 H   0  0  0  0  0  0  0  0  0  0  0  0
    0.5270    1.8269    0.5043 H   0  0  0  0  0  0  0  0  0  0  0  0
    1.0316   -0.1177   -1.7411 H   0  0  0  0  0  0  0  0  0  0  0  0
    2.1196    1.2883   -1.2708 H   0  0  0  0  0  0  0  0  0  0  0  0
    3.2798    0.0351    0.3830 H   0  0  0  0  0  0  0  0  0  0  0  0
    2.4124   -1.4700   -0.2486 H   0  0  0  0  0  0  0  0  0  0  0  0
    0.0231   -1.7138   -0.6959 H   0  0  0  0  0  0  0  0  0  0  0  0
   -1.5659   -1.8459    0.2640 H   0  0  0  0  0  0  0  0  0  0  0  0
   -2.5569   -0.1247   -1.3456 H   0  0  0  0  0  0  0  0  0  0  0  0
   -0.9463    0.0019   -2.2414 H   0  0  0  0  0  0  0  0  0  0  0  0
  1  2  1  0
  2  3  1  0
  3  4  1  0
  4  5  1  0
  5  6  1  0
  6  7  2  0
  2  8  1  0
  8  9  1  0
  9  2  1  0
  6  3  1  0
  1 10  1  0
  1 11  1  0
  1 12  1  0
  3 13  1  0
  4 14  1  0
  4 15  1  0
  5 16  1  0
  5 17  1  0
  8 18  1  0
  8 19  1  0
  9 20  1  0
  9 21  1  0
M  END
