
     RDKit          3D

 19 21  0  0  0  0  0  0  0  0999 V2000
   -2.5210   -0.3103   -0.0223 C   0  0  0  0  0  0  0  0  0  0  0  0
   -1.1097   -0.0752    0.4078 C   0  0  0  0  0  0  0  0  0  0  0  0
   -0.9900    0.9121    1.4102 O   0  0  0  0  0  0  0  0  0  0  0  0
   -0.1173   -1.1406    0.2816 C   0  0  0  0  0  0  0  0  0  0  0  0
    1.0669   -1.1939    0.9471 O   0  0  0  0  0  0  0  0  0  0  0  0
    1.7890   -0.0586    0.7277 C   0  0  0  0  0  0  0  0  0  0  0  0
    2.5191    0.2317   -0.5154 C   0  0  0  0  0  0  0  0  0  0  0  0
    1.1494    0.7236   -0.3718 C   0  0  0  0  0  0  0  0  0  0  0  0
   -0.0646   -0.0538   -0.7098 C   0  0  0  0  0  0  0  0  0  0  0  0
   -2.6024   -0.1143   -1.1050 H   0  0  0  0  0  0  0  0  0  0  0  0
   -3.2563    0.3735    0.4919 H   0  0  0  0  0  0  0  0  0  0  0  0
   -2.8039   -1.3362    0.2126 H   0  0  0  0  0  0  0  0  0  0  0  0
   -1.3047    1.7553    0.9605 H   0  0  0  0  0  0  0  0  0  0  0  0
   -0.5150   -2.1441   -0.0301 H   0  0  0  0  0  0  0  0  0  0  0  0
    2.1273    0.4574    1.6611 H   0  0  0  0  0  0  0  0  0  0  0  0
    3.3239    1.0017   -0.4537 H   0  0  0  0  0  0  0  0  0  0  0  0
    2.7269   -0.5298   -1.2907 H   0  0  0  0  0  0  0  0  0  0  0  0
    0.9490    1.7950   -0.0939 H   0  0  0  0  0  0  0  0  0  0  0  0
   -0.3665   -0.2935   -1.7305 H   0  0  0  0  0  0  0  0  0  0  0  0
  1  2  1  0
  2  3  1  0
  2  4  1  0
  4  5  1  0
  5  6  1  0
  6  7  1  0
  7  8  1  0
  8  9  1  0
  9  2  1  0
  9  4  1  0
  8  6  1  0
  1 10  1  0
  1 11  1  0
  1 12  1  0
  3 13  1  0
  4 14  1  0
  6 15  1  0
  7 16  1  0
  7 17  1  0
  8 18  1  0
  9 19  1  0
M  END
