
     RDKit          3D

 23 24  0  0  0  0  0  0  0  0999 V2000
   -1.4187    0.5136    1.7033 C   0  0  0  0  0  0  0  0  0  0  0  0
   -1.1206   -0.0090    0.3474 C   0  0  0  0  0  0  0  0  0  0  0  0
    0.0180   -0.9647    0.1120 C   0  0  0  0  0  0  0  0  0  0  0  0
    1.3533   -0.4134    0.4917 C   0  0  0  0  0  0  0  0  0  0  0  0
    1.9217    0.7896   -0.1130 C   0  0  0  0  0  0  0  0  0  0  0  0
    2.4979   -0.5574   -0.4556 C   0  0  0  0  0  0  0  0  0  0  0  0
    2.2533   -0.9445   -1.7793 O   0  0  0  0  0  0  0  0  0  0  0  0
   -1.5052    0.8194   -0.8780 C   0  0  0  0  0  0  0  0  0  0  0  0
   -2.3618   -0.3341   -0.4827 C   0  0  0  0  0  0  0  0  0  0  0  0
   -0.5622    0.6777    2.3502 H   0  0  0  0  0  0  0  0  0  0  0  0
   -2.0954   -0.2288    2.2141 H   0  0  0  0  0  0  0  0  0  0  0  0
   -2.0254    1.4573    1.5988 H   0  0  0  0  0  0  0  0  0  0  0  0
   -0.1902   -1.8875    0.6997 H   0  0  0  0  0  0  0  0  0  0  0  0
    0.0653   -1.2825   -0.9458 H   0  0  0  0  0  0  0  0  0  0  0  0
    1.6284   -0.6036    1.5646 H   0  0  0  0  0  0  0  0  0  0  0  0
    2.5396    1.4728    0.5347 H   0  0  0  0  0  0  0  0  0  0  0  0
    1.3466    1.3564   -0.8797 H   0  0  0  0  0  0  0  0  0  0  0  0
    3.4781   -0.8602   -0.0791 H   0  0  0  0  0  0  0  0  0  0  0  0
    2.6690   -0.2279   -2.3545 H   0  0  0  0  0  0  0  0  0  0  0  0
   -0.8941    0.7115   -1.7970 H   0  0  0  0  0  0  0  0  0  0  0  0
   -1.8616    1.8558   -0.7180 H   0  0  0  0  0  0  0  0  0  0  0  0
   -3.3572   -0.0728   -0.0651 H   0  0  0  0  0  0  0  0  0  0  0  0
   -2.3788   -1.2677   -1.0689 H   0  0  0  0  0  0  0  0  0  0  0  0
  1  2  1  0
  2  3  1  0
  3  4  1  0
  4  5  1  0
  5  6  1  0
  6  7  1  0
  2  8  1  0
  8  9  1  0
  9  2  1  0
  6  4  1  0
  1 10  1  0
  1 11  1  0
  1 12  1  0
  3 13  1  0
  3 14  1  0
  4 15  1  0
  5 16  1  0
  5 17  1  0
  6 18  1  0
  7 19  1  0
  8 20  1  0
  8 21  1  0
  9 22  1  0
  9 23  1  0
M  END
