
     RDKit          3D

 21 23  0  0  0  0  0  0  0  0999 V2000
    2.1974   -0.7442    0.3087 C   0  0  0  0  0  0  0  0  0  0  0  0
    0.8814   -0.0307    0.0072 C   0  0  0  0  0  0  0  0  0  0  0  0
    1.0168    1.4516   -0.1797 C   0  0  0  0  0  0  0  0  0  0  0  0
   -0.0586   -0.7603   -0.9261 C   0  0  0  0  0  0  0  0  0  0  0  0
   -1.0895    0.0724   -1.6302 C   0  0  0  0  0  0  0  0  0  0  0  0
   -2.1808    0.2303   -0.5902 C   0  0  0  0  0  0  0  0  0  0  0  0
   -2.6870   -0.8831    0.0485 O   0  0  0  0  0  0  0  0  0  0  0  0
   -1.6458    0.0283    0.6465 C   0  0  0  0  0  0  0  0  0  0  0  0
   -0.3189   -0.6708    0.5353 C   0  0  0  0  0  0  0  0  0  0  0  0
    2.7747   -0.9167   -0.6331 H   0  0  0  0  0  0  0  0  0  0  0  0
    2.0381   -1.7342    0.7638 H   0  0  0  0  0  0  0  0  0  0  0  0
    2.7762   -0.1138    1.0285 H   0  0  0  0  0  0  0  0  0  0  0  0
    1.7271    1.8213    0.6043 H   0  0  0  0  0  0  0  0  0  0  0  0
    0.0603    1.9905   -0.1215 H   0  0  0  0  0  0  0  0  0  0  0  0
    1.5115    1.7147   -1.1515 H   0  0  0  0  0  0  0  0  0  0  0  0
    0.2881   -1.6949   -1.4023 H   0  0  0  0  0  0  0  0  0  0  0  0
   -0.7017    1.0946   -1.8297 H   0  0  0  0  0  0  0  0  0  0  0  0
   -1.4156   -0.4649   -2.5261 H   0  0  0  0  0  0  0  0  0  0  0  0
   -2.9486    0.9788   -0.8944 H   0  0  0  0  0  0  0  0  0  0  0  0
   -1.9705    0.2202    1.6709 H   0  0  0  0  0  0  0  0  0  0  0  0
   -0.2543   -1.5892    1.1591 H   0  0  0  0  0  0  0  0  0  0  0  0
  1  2  1  0
  2  3  1  0
  2  4  1  0
  4  5  1  0
  5  6  1  0
  6  7  1  0
  7  8  1  0
  8  9  1  0
  9  2  1  0
  9  4  1  0
  8  6  1  0
  1 10  1  0
  1 11  1  0
  1 12  1  0
  3 13  1  0
  3 14  1  0
  3 15  1  0
  4 16  1  0
  5 17  1  0
  5 18  1  0
  6 19  1  0
  8 20  1  0
  9 21  1  0
M  END
