
     RDKit          3D

 21 22  0  0  0  0  0  0  0  0999 V2000
    1.6746   -0.1610   -1.1091 C   0  0  0  0  0  0  0  0  0  0  0  0
    0.5932    0.1876   -0.1011 C   0  0  0  0  0  0  0  0  0  0  0  0
    1.3216    0.5257    1.1723 C   0  0  0  0  0  0  0  0  0  0  0  0
   -0.0854    1.2747   -0.6336 O   0  0  0  0  0  0  0  0  0  0  0  0
   -1.3440    1.1237   -1.0314 C   0  0  0  0  0  0  0  0  0  0  0  0
   -2.2147    0.3013   -0.3565 O   0  0  0  0  0  0  0  0  0  0  0  0
   -1.5672   -0.2271    0.6963 C   0  0  0  0  0  0  0  0  0  0  0  0
   -1.0984   -1.5248    1.0212 C   0  0  0  0  0  0  0  0  0  0  0  0
   -0.3552   -0.9169   -0.0206 C   0  0  0  0  0  0  0  0  0  0  0  0
    1.2686   -0.2709   -2.1371 H   0  0  0  0  0  0  0  0  0  0  0  0
    2.3536    0.7261   -1.1487 H   0  0  0  0  0  0  0  0  0  0  0  0
    2.2639   -1.0472   -0.8054 H   0  0  0  0  0  0  0  0  0  0  0  0
    0.8111    0.2014    2.0813 H   0  0  0  0  0  0  0  0  0  0  0  0
    1.4663    1.6302    1.1756 H   0  0  0  0  0  0  0  0  0  0  0  0
    2.3452    0.0794    1.2037 H   0  0  0  0  0  0  0  0  0  0  0  0
   -1.8236    2.1464   -1.0854 H   0  0  0  0  0  0  0  0  0  0  0  0
   -1.3561    0.7790   -2.1085 H   0  0  0  0  0  0  0  0  0  0  0  0
   -1.3172    0.5884    1.4412 H   0  0  0  0  0  0  0  0  0  0  0  0
   -0.6238   -1.6931    2.0201 H   0  0  0  0  0  0  0  0  0  0  0  0
   -1.7569   -2.3977    0.7846 H   0  0  0  0  0  0  0  0  0  0  0  0
   -0.5556   -1.3254   -1.0590 H   0  0  0  0  0  0  0  0  0  0  0  0
  1  2  1  0
  2  3  1  0
  2  4  1  0
  4  5  1  0
  5  6  1  0
  6  7  1  0
  7  8  1  0
  8  9  1  0
  9  2  1  0
  9  7  1  0
  1 10  1  0
  1 11  1  0
  1 12  1  0
  3 13  1  0
  3 14  1  0
  3 15  1  0
  5 16  1  0
  5 17  1  0
  7 18  1  0
  8 19  1  0
  8 20  1  0
  9 21  1  0
M  END
