
     RDKit          3D

 19 19  0  0  0  0  0  0  0  0999 V2000
   -1.8247   -0.0572   -0.2475 C   0  0  0  0  0  0  0  0  0  0  0  0
   -0.5144    0.0169    0.5122 C   0  0  0  0  0  0  0  0  0  0  0  0
   -0.7394    0.3425    1.8420 O   0  0  0  0  0  0  0  0  0  0  0  0
    0.2440   -1.2871    0.4060 C   0  0  0  0  0  0  0  0  0  0  0  0
    1.4192   -1.0510   -0.4922 C   0  0  0  0  0  0  0  0  0  0  0  0
    1.1315    0.2570   -1.1096 C   0  0  0  0  0  0  0  0  0  0  0  0
    1.4197    0.6209   -2.2172 O   0  0  0  0  0  0  0  0  0  0  0  0
    0.4111    1.0452   -0.0916 C   0  0  0  0  0  0  0  0  0  0  0  0
   -0.2462    2.1386   -0.5990 O   0  0  0  0  0  0  0  0  0  0  0  0
   -1.6798    0.4594   -1.2328 H   0  0  0  0  0  0  0  0  0  0  0  0
   -2.1035   -1.1209   -0.3670 H   0  0  0  0  0  0  0  0  0  0  0  0
   -2.6417    0.4121    0.3393 H   0  0  0  0  0  0  0  0  0  0  0  0
    0.1273    0.4494    2.2925 H   0  0  0  0  0  0  0  0  0  0  0  0
    0.5248   -1.6480    1.4119 H   0  0  0  0  0  0  0  0  0  0  0  0
   -0.4194   -2.0232   -0.1096 H   0  0  0  0  0  0  0  0  0  0  0  0
    1.5620   -1.8483   -1.2480 H   0  0  0  0  0  0  0  0  0  0  0  0
    2.3245   -0.9462    0.1755 H   0  0  0  0  0  0  0  0  0  0  0  0
    1.1485    1.3186    0.7110 H   0  0  0  0  0  0  0  0  0  0  0  0
   -0.1436    2.9214    0.0240 H   0  0  0  0  0  0  0  0  0  0  0  0
  1  2  1  0
  2  3  1  0
  2  4  1  0
  4  5  1  0
  5  6  1  0
  6  7  2  0
  6  8  1  0
  8  9  1  0
  8  2  1  0
  1 10  1  0
  1 11  1  0
  1 12  1  0
  3 13  1  0
  4 14  1  0
  4 15  1  0
  5 16  1  0
  5 17  1  0
  8 18  1  0
  9 19  1  0
M  END
