
     RDKit          3D

 21 22  0  0  0  0  0  0  0  0999 V2000
   -1.7820    0.8286   -0.4334 C   0  0  0  0  0  0  0  0  0  0  0  0
   -0.8656   -0.2885   -0.0398 C   0  0  0  0  0  0  0  0  0  0  0  0
   -1.6695   -1.3727    0.3716 O   0  0  0  0  0  0  0  0  0  0  0  0
    0.0454   -0.6825   -1.1407 C   0  0  0  0  0  0  0  0  0  0  0  0
    1.4081   -0.2000   -0.8811 C   0  0  0  0  0  0  0  0  0  0  0  0
    1.7743    1.1112   -0.3528 C   0  0  0  0  0  0  0  0  0  0  0  0
    1.4477    0.0086    0.6068 C   0  0  0  0  0  0  0  0  0  0  0  0
    0.0345    0.0338    1.1025 C   0  0  0  0  0  0  0  0  0  0  0  0
   -0.1452   -0.7742    2.2102 O   0  0  0  0  0  0  0  0  0  0  0  0
   -2.4118    0.4502   -1.2791 H   0  0  0  0  0  0  0  0  0  0  0  0
   -1.2578    1.7362   -0.7242 H   0  0  0  0  0  0  0  0  0  0  0  0
   -2.5017    0.9877    0.4095 H   0  0  0  0  0  0  0  0  0  0  0  0
   -2.3165   -1.0789    1.0424 H   0  0  0  0  0  0  0  0  0  0  0  0
    0.0719   -1.8120   -1.1680 H   0  0  0  0  0  0  0  0  0  0  0  0
   -0.3668   -0.4036   -2.1495 H   0  0  0  0  0  0  0  0  0  0  0  0
    2.2249   -0.8128   -1.3621 H   0  0  0  0  0  0  0  0  0  0  0  0
    1.1035    1.9999   -0.3874 H   0  0  0  0  0  0  0  0  0  0  0  0
    2.8395    1.3875   -0.3824 H   0  0  0  0  0  0  0  0  0  0  0  0
    2.2302   -0.5624    1.1139 H   0  0  0  0  0  0  0  0  0  0  0  0
   -0.1826    1.0878    1.4327 H   0  0  0  0  0  0  0  0  0  0  0  0
    0.3195   -1.6439    2.0110 H   0  0  0  0  0  0  0  0  0  0  0  0
  1  2  1  0
  2  3  1  0
  2  4  1  0
  4  5  1  0
  5  6  1  0
  6  7  1  0
  7  8  1  0
  8  9  1  0
  8  2  1  0
  7  5  1  0
  1 10  1  0
  1 11  1  0
  1 12  1  0
  3 13  1  0
  4 14  1  0
  4 15  1  0
  5 16  1  0
  6 17  1  0
  6 18  1  0
  7 19  1  0
  8 20  1  0
  9 21  1  0
M  END
