
     RDKit          3D

 23 24  0  0  0  0  0  0  0  0999 V2000
   -1.8044   -1.0522    0.4481 C   0  0  0  0  0  0  0  0  0  0  0  0
   -0.8109    0.0697    0.1190 C   0  0  0  0  0  0  0  0  0  0  0  0
   -1.6328    1.1928   -0.5057 C   0  0  0  0  0  0  0  0  0  0  0  0
   -0.2686    0.4969    1.2828 O   0  0  0  0  0  0  0  0  0  0  0  0
    1.0671    0.7030    1.3336 C   0  0  0  0  0  0  0  0  0  0  0  0
    1.8444    0.0590    0.2257 C   0  0  0  0  0  0  0  0  0  0  0  0
    1.2561    0.5508   -1.0867 C   0  0  0  0  0  0  0  0  0  0  0  0
    0.1724   -0.4873   -0.8573 C   0  0  0  0  0  0  0  0  0  0  0  0
    1.1999   -1.2804   -0.0671 C   0  0  0  0  0  0  0  0  0  0  0  0
   -2.7728   -0.8966   -0.0689 H   0  0  0  0  0  0  0  0  0  0  0  0
   -1.4262   -2.0372    0.0902 H   0  0  0  0  0  0  0  0  0  0  0  0
   -1.9781   -1.1173    1.5391 H   0  0  0  0  0  0  0  0  0  0  0  0
   -2.6435    1.2676   -0.0329 H   0  0  0  0  0  0  0  0  0  0  0  0
   -1.8084    0.9736   -1.5790 H   0  0  0  0  0  0  0  0  0  0  0  0
   -1.1310    2.1545   -0.3445 H   0  0  0  0  0  0  0  0  0  0  0  0
    1.4512    0.2489    2.2947 H   0  0  0  0  0  0  0  0  0  0  0  0
    1.3709    1.7873    1.4191 H   0  0  0  0  0  0  0  0  0  0  0  0
    2.9160    0.0843    0.3237 H   0  0  0  0  0  0  0  0  0  0  0  0
    0.8468    1.5812   -1.0279 H   0  0  0  0  0  0  0  0  0  0  0  0
    1.8846    0.3972   -1.9715 H   0  0  0  0  0  0  0  0  0  0  0  0
   -0.2438   -0.9637   -1.7334 H   0  0  0  0  0  0  0  0  0  0  0  0
    0.7198   -1.7343    0.8241 H   0  0  0  0  0  0  0  0  0  0  0  0
    1.7913   -1.9980   -0.6249 H   0  0  0  0  0  0  0  0  0  0  0  0
  1  2  1  0
  2  3  1  0
  2  4  1  0
  4  5  1  0
  5  6  1  0
  6  7  1  0
  7  8  1  0
  8  9  1  0
  8  2  1  0
  9  6  1  0
  1 10  1  0
  1 11  1  0
  1 12  1  0
  3 13  1  0
  3 14  1  0
  3 15  1  0
  5 16  1  0
  5 17  1  0
  6 18  1  0
  7 19  1  0
  7 20  1  0
  8 21  1  0
  9 22  1  0
  9 23  1  0
M  END
