
     RDKit          3D

 21 22  0  0  0  0  0  0  0  0999 V2000
   -1.4810   -0.5567   -0.9118 C   0  0  0  0  0  0  0  0  0  0  0  0
   -0.6320    0.2349    0.0152 C   0  0  0  0  0  0  0  0  0  0  0  0
   -1.3123    1.0561    1.0498 C   0  0  0  0  0  0  0  0  0  0  0  0
   -2.0662    0.2030    1.8556 O   0  0  0  0  0  0  0  0  0  0  0  0
    0.4497   -0.6372    0.6407 C   0  0  0  0  0  0  0  0  0  0  0  0
    1.3350   -0.2238   -0.5023 C   0  0  0  0  0  0  0  0  0  0  0  0
    2.6703   -0.4465   -0.5789 C   0  0  0  0  0  0  0  0  0  0  0  0
    1.6953   -1.1123   -1.4779 O   0  0  0  0  0  0  0  0  0  0  0  0
    0.4850    0.9576   -0.7487 C   0  0  0  0  0  0  0  0  0  0  0  0
   -1.0240   -0.6134   -1.9417 H   0  0  0  0  0  0  0  0  0  0  0  0
   -2.4671   -0.0608   -1.0196 H   0  0  0  0  0  0  0  0  0  0  0  0
   -1.6032   -1.6185   -0.5837 H   0  0  0  0  0  0  0  0  0  0  0  0
   -1.9467    1.8368    0.5677 H   0  0  0  0  0  0  0  0  0  0  0  0
   -0.5371    1.5507    1.6704 H   0  0  0  0  0  0  0  0  0  0  0  0
   -2.2086   -0.6836    1.4239 H   0  0  0  0  0  0  0  0  0  0  0  0
    0.8613   -0.2115    1.5950 H   0  0  0  0  0  0  0  0  0  0  0  0
    0.2549   -1.7074    0.6438 H   0  0  0  0  0  0  0  0  0  0  0  0
    3.3927    0.1835   -1.1613 H   0  0  0  0  0  0  0  0  0  0  0  0
    3.1990   -1.2086    0.0298 H   0  0  0  0  0  0  0  0  0  0  0  0
    0.1632    1.1448   -1.7993 H   0  0  0  0  0  0  0  0  0  0  0  0
    0.7717    1.9132   -0.2894 H   0  0  0  0  0  0  0  0  0  0  0  0
  1  2  1  0
  2  3  1  0
  3  4  1  0
  2  5  1  0
  5  6  1  0
  6  7  1  0
  7  8  1  0
  6  9  1  0
  9  2  1  0
  8  6  1  0
  1 10  1  0
  1 11  1  0
  1 12  1  0
  3 13  1  0
  3 14  1  0
  4 15  1  0
  5 16  1  0
  5 17  1  0
  7 18  1  0
  7 19  1  0
  9 20  1  0
  9 21  1  0
M  END
