
     RDKit          3D

 17 17  0  0  0  0  0  0  0  0999 V2000
    1.6749    0.2814   -0.1554 C   0  0  0  0  0  0  0  0  0  0  0  0
    0.2037    0.3304    0.1797 C   0  0  0  0  0  0  0  0  0  0  0  0
   -0.0728    1.0824    1.4229 C   0  0  0  0  0  0  0  0  0  0  0  0
   -0.6881    0.6666    2.3707 O   0  0  0  0  0  0  0  0  0  0  0  0
   -0.7076    0.7460   -0.9358 C   0  0  0  0  0  0  0  0  0  0  0  0
   -0.8045   -0.7051   -1.3210 C   0  0  0  0  0  0  0  0  0  0  0  0
   -1.0862   -1.3172   -2.3384 O   0  0  0  0  0  0  0  0  0  0  0  0
   -0.4072   -1.0270    0.0805 C   0  0  0  0  0  0  0  0  0  0  0  0
   -1.4979   -1.2714    0.9168 O   0  0  0  0  0  0  0  0  0  0  0  0
    1.8460   -0.2981   -1.0774 H   0  0  0  0  0  0  0  0  0  0  0  0
    2.1766   -0.2690    0.6711 H   0  0  0  0  0  0  0  0  0  0  0  0
    2.1430    1.2906   -0.1733 H   0  0  0  0  0  0  0  0  0  0  0  0
    0.3127    2.0956    1.4844 H   0  0  0  0  0  0  0  0  0  0  0  0
   -1.6792    1.1191   -0.5839 H   0  0  0  0  0  0  0  0  0  0  0  0
   -0.2605    1.3830   -1.7233 H   0  0  0  0  0  0  0  0  0  0  0  0
    0.3558   -1.8577    0.0942 H   0  0  0  0  0  0  0  0  0  0  0  0
   -1.5087   -2.2495    1.0883 H   0  0  0  0  0  0  0  0  0  0  0  0
  1  2  1  0
  2  3  1  0
  3  4  2  0
  2  5  1  0
  5  6  1  0
  6  7  2  0
  6  8  1  0
  8  9  1  0
  8  2  1  0
  1 10  1  0
  1 11  1  0
  1 12  1  0
  3 13  1  0
  5 14  1  0
  5 15  1  0
  8 16  1  0
  9 17  1  0
M  END
