
     RDKit          3D

 20 21  0  0  0  0  0  0  0  0999 V2000
   -2.4752   -0.0526    0.2614 C   0  0  0  0  0  0  0  0  0  0  0  0
   -1.0442   -0.2198   -0.1773 C   0  0  0  0  0  0  0  0  0  0  0  0
   -0.8400   -1.3214   -1.0059 O   0  0  0  0  0  0  0  0  0  0  0  0
   -0.0476    0.0750    0.9194 C   0  0  0  0  0  0  0  0  0  0  0  0
    1.2126   -0.7263    0.8977 C   0  0  0  0  0  0  0  0  0  0  0  0
    2.1270    0.1342    0.0402 C   0  0  0  0  0  0  0  0  0  0  0  0
    1.1737    0.6297   -1.0424 C   0  0  0  0  0  0  0  0  0  0  0  0
   -0.1177    0.9162   -0.2910 C   0  0  0  0  0  0  0  0  0  0  0  0
   -3.1456   -0.4002   -0.5316 H   0  0  0  0  0  0  0  0  0  0  0  0
   -2.6150   -0.7584    1.1322 H   0  0  0  0  0  0  0  0  0  0  0  0
   -2.7133    0.9427    0.6478 H   0  0  0  0  0  0  0  0  0  0  0  0
   -1.2452   -1.1041   -1.8918 H   0  0  0  0  0  0  0  0  0  0  0  0
   -0.3920    0.4956    1.8785 H   0  0  0  0  0  0  0  0  0  0  0  0
    1.0004   -1.7049    0.4484 H   0  0  0  0  0  0  0  0  0  0  0  0
    1.6109   -0.8649    1.9252 H   0  0  0  0  0  0  0  0  0  0  0  0
    2.9817   -0.4126   -0.3615 H   0  0  0  0  0  0  0  0  0  0  0  0
    2.3959    1.0114    0.6659 H   0  0  0  0  0  0  0  0  0  0  0  0
    1.6214    1.5387   -1.4768 H   0  0  0  0  0  0  0  0  0  0  0  0
    0.9574   -0.1518   -1.7875 H   0  0  0  0  0  0  0  0  0  0  0  0
   -0.4452    1.9736   -0.2509 H   0  0  0  0  0  0  0  0  0  0  0  0
  1  2  1  0
  2  3  1  0
  2  4  1  0
  4  5  1  0
  5  6  1  0
  6  7  1  0
  7  8  1  0
  8  2  1  0
  8  4  1  0
  1  9  1  0
  1 10  1  0
  1 11  1  0
  3 12  1  0
  4 13  1  0
  5 14  1  0
  5 15  1  0
  6 16  1  0
  6 17  1  0
  7 18  1  0
  7 19  1  0
  8 20  1  0
M  END
