
     RDKit          3D

 17 17  0  0  0  0  0  0  0  0999 V2000
   -0.1182    1.6696   -0.6091 C   0  0  0  0  0  0  0  0  0  0  0  0
    0.0146    0.2341   -0.0983 C   0  0  0  0  0  0  0  0  0  0  0  0
    1.4222   -0.0217    0.2732 C   0  0  0  0  0  0  0  0  0  0  0  0
    1.9825    0.8203    1.0202 O   0  0  0  0  0  0  0  0  0  0  0  0
    2.1475   -1.2018   -0.2007 C   0  0  0  0  0  0  0  0  0  0  0  0
    1.6543   -2.0639   -0.9348 O   0  0  0  0  0  0  0  0  0  0  0  0
   -0.9694   -0.1264    0.9773 C   0  0  0  0  0  0  0  0  0  0  0  0
   -1.6991   -0.8994   -0.1229 C   0  0  0  0  0  0  0  0  0  0  0  0
   -0.5729   -0.7022   -0.9156 O   0  0  0  0  0  0  0  0  0  0  0  0
   -0.0324    1.6728   -1.7249 H   0  0  0  0  0  0  0  0  0  0  0  0
   -1.0775    2.1200   -0.3355 H   0  0  0  0  0  0  0  0  0  0  0  0
    0.6945    2.3095   -0.2040 H   0  0  0  0  0  0  0  0  0  0  0  0
    3.1756   -1.3308    0.1073 H   0  0  0  0  0  0  0  0  0  0  0  0
   -0.5160   -0.8287    1.6930 H   0  0  0  0  0  0  0  0  0  0  0  0
   -1.5845    0.6802    1.3839 H   0  0  0  0  0  0  0  0  0  0  0  0
   -2.6075   -0.3717   -0.4517 H   0  0  0  0  0  0  0  0  0  0  0  0
   -1.9139   -1.9598    0.1425 H   0  0  0  0  0  0  0  0  0  0  0  0
  1  2  1  0
  2  3  1  0
  3  4  2  0
  3  5  1  0
  5  6  2  0
  2  7  1  0
  7  8  1  0
  8  9  1  0
  9  2  1  0
  1 10  1  0
  1 11  1  0
  1 12  1  0
  5 13  1  0
  7 14  1  0
  7 15  1  0
  8 16  1  0
  8 17  1  0
M  END
