
     RDKit          3D

 23 24  0  0  0  0  0  0  0  0999 V2000
   -1.2208   -1.1903   -0.9514 C   0  0  0  0  0  0  0  0  0  0  0  0
   -1.0654   -0.2067    0.1866 C   0  0  0  0  0  0  0  0  0  0  0  0
    0.3287   -0.1600    0.7346 C   0  0  0  0  0  0  0  0  0  0  0  0
    1.3601    0.2394   -0.2805 C   0  0  0  0  0  0  0  0  0  0  0  0
    2.7741    0.2845    0.2843 C   0  0  0  0  0  0  0  0  0  0  0  0
    2.3854   -0.6703   -0.7820 C   0  0  0  0  0  0  0  0  0  0  0  0
   -1.7696    1.0865   -0.0025 C   0  0  0  0  0  0  0  0  0  0  0  0
   -2.1814    0.8198    1.4346 C   0  0  0  0  0  0  0  0  0  0  0  0
   -1.9641   -0.5374    1.2050 O   0  0  0  0  0  0  0  0  0  0  0  0
   -0.9714   -2.2023   -0.5597 H   0  0  0  0  0  0  0  0  0  0  0  0
   -2.2854   -1.1892   -1.2805 H   0  0  0  0  0  0  0  0  0  0  0  0
   -0.5225   -0.8978   -1.7590 H   0  0  0  0  0  0  0  0  0  0  0  0
    0.5773   -1.1790    1.1023 H   0  0  0  0  0  0  0  0  0  0  0  0
    0.3917    0.5468    1.5869 H   0  0  0  0  0  0  0  0  0  0  0  0
    1.0803    1.1160   -0.9132 H   0  0  0  0  0  0  0  0  0  0  0  0
    3.3940    1.1811    0.0655 H   0  0  0  0  0  0  0  0  0  0  0  0
    2.9639   -0.1634    1.2772 H   0  0  0  0  0  0  0  0  0  0  0  0
    2.8103   -0.4388   -1.7986 H   0  0  0  0  0  0  0  0  0  0  0  0
    2.4200   -1.7465   -0.5618 H   0  0  0  0  0  0  0  0  0  0  0  0
   -2.6536    0.9773   -0.6602 H   0  0  0  0  0  0  0  0  0  0  0  0
   -1.1660    1.9890   -0.1636 H   0  0  0  0  0  0  0  0  0  0  0  0
   -1.4606    1.2933    2.1333 H   0  0  0  0  0  0  0  0  0  0  0  0
   -3.2252    1.0479    1.6508 H   0  0  0  0  0  0  0  0  0  0  0  0
  1  2  1  0
  2  3  1  0
  3  4  1  0
  4  5  1  0
  5  6  1  0
  2  7  1  0
  7  8  1  0
  8  9  1  0
  9  2  1  0
  6  4  1  0
  1 10  1  0
  1 11  1  0
  1 12  1  0
  3 13  1  0
  3 14  1  0
  4 15  1  0
  5 16  1  0
  5 17  1  0
  6 18  1  0
  6 19  1  0
  7 20  1  0
  7 21  1  0
  8 22  1  0
  8 23  1  0
M  END
