
     RDKit          3D

 21 22  0  0  0  0  0  0  0  0999 V2000
    0.7940   -1.5249   -0.2401 C   0  0  0  0  0  0  0  0  0  0  0  0
    0.3555   -0.1360    0.1506 C   0  0  0  0  0  0  0  0  0  0  0  0
    1.4673    0.6513    0.7057 C   0  0  0  0  0  0  0  0  0  0  0  0
    2.4696    0.7414   -0.2903 O   0  0  0  0  0  0  0  0  0  0  0  0
   -0.9921   -0.1118    0.7696 C   0  0  0  0  0  0  0  0  0  0  0  0
   -1.7871   -0.8948   -0.2606 C   0  0  0  0  0  0  0  0  0  0  0  0
   -1.2525   -0.3109   -1.4402 O   0  0  0  0  0  0  0  0  0  0  0  0
   -0.3663    0.6158   -0.9775 C   0  0  0  0  0  0  0  0  0  0  0  0
   -1.1459    1.2856    0.1569 C   0  0  0  0  0  0  0  0  0  0  0  0
    1.8796   -1.5138   -0.5019 H   0  0  0  0  0  0  0  0  0  0  0  0
    0.7080   -2.1679    0.6635 H   0  0  0  0  0  0  0  0  0  0  0  0
    0.2628   -1.9261   -1.1141 H   0  0  0  0  0  0  0  0  0  0  0  0
    1.9683    0.0510    1.5235 H   0  0  0  0  0  0  0  0  0  0  0  0
    1.2488    1.6173    1.1503 H   0  0  0  0  0  0  0  0  0  0  0  0
    2.6055    1.6776   -0.5798 H   0  0  0  0  0  0  0  0  0  0  0  0
   -1.1661   -0.2426    1.7927 H   0  0  0  0  0  0  0  0  0  0  0  0
   -1.5826   -1.9666   -0.2445 H   0  0  0  0  0  0  0  0  0  0  0  0
   -2.8375   -0.6146   -0.1338 H   0  0  0  0  0  0  0  0  0  0  0  0
    0.2124    1.2237   -1.6156 H   0  0  0  0  0  0  0  0  0  0  0  0
   -0.6606    2.1018    0.6700 H   0  0  0  0  0  0  0  0  0  0  0  0
   -2.1809    1.4444   -0.1845 H   0  0  0  0  0  0  0  0  0  0  0  0
  1  2  1  0
  2  3  1  0
  3  4  1  0
  2  5  1  0
  5  6  1  0
  6  7  1  0
  7  8  1  0
  8  9  1  0
  8  2  1  0
  9  5  1  0
  1 10  1  0
  1 11  1  0
  1 12  1  0
  3 13  1  0
  3 14  1  0
  4 15  1  0
  5 16  1  0
  6 17  1  0
  6 18  1  0
  8 19  1  0
  9 20  1  0
  9 21  1  0
M  END
