
     RDKit          3D

 21 21  0  0  0  0  0  0  0  0999 V2000
   -0.6745    1.3881    0.9680 C   0  0  0  0  0  0  0  0  0  0  0  0
   -0.4796    0.6168   -0.3316 C   0  0  0  0  0  0  0  0  0  0  0  0
   -1.3431    1.2004   -1.2628 O   0  0  0  0  0  0  0  0  0  0  0  0
    0.9481    0.8453   -0.7671 C   0  0  0  0  0  0  0  0  0  0  0  0
    1.8154    0.2614    0.3212 C   0  0  0  0  0  0  0  0  0  0  0  0
    1.5744   -1.0080    0.6681 C   0  0  0  0  0  0  0  0  0  0  0  0
    0.4842   -1.6877   -0.0588 C   0  0  0  0  0  0  0  0  0  0  0  0
   -0.7660   -0.8449   -0.1626 C   0  0  0  0  0  0  0  0  0  0  0  0
   -1.4879   -1.2672   -1.2747 O   0  0  0  0  0  0  0  0  0  0  0  0
   -1.6602    1.8988    0.9944 H   0  0  0  0  0  0  0  0  0  0  0  0
    0.0835    2.2122    1.0330 H   0  0  0  0  0  0  0  0  0  0  0  0
   -0.6010    0.7078    1.8395 H   0  0  0  0  0  0  0  0  0  0  0  0
   -2.2342    1.2437   -0.8090 H   0  0  0  0  0  0  0  0  0  0  0  0
    1.0998    1.9455   -0.8153 H   0  0  0  0  0  0  0  0  0  0  0  0
    1.1951    0.3266   -1.6906 H   0  0  0  0  0  0  0  0  0  0  0  0
    2.5799    0.8508    0.7798 H   0  0  0  0  0  0  0  0  0  0  0  0
    2.1640   -1.4721    1.4383 H   0  0  0  0  0  0  0  0  0  0  0  0
    0.1785   -2.6444    0.4522 H   0  0  0  0  0  0  0  0  0  0  0  0
    0.8264   -1.9648   -1.0749 H   0  0  0  0  0  0  0  0  0  0  0  0
   -1.3181   -0.9716    0.7859 H   0  0  0  0  0  0  0  0  0  0  0  0
   -2.3845   -1.6366   -1.0328 H   0  0  0  0  0  0  0  0  0  0  0  0
  1  2  1  0
  2  3  1  0
  2  4  1  0
  4  5  1  0
  5  6  2  0
  6  7  1  0
  7  8  1  0
  8  9  1  0
  8  2  1  0
  1 10  1  0
  1 11  1  0
  1 12  1  0
  3 13  1  0
  4 14  1  0
  4 15  1  0
  5 16  1  0
  6 17  1  0
  7 18  1  0
  7 19  1  0
  8 20  1  0
  9 21  1  0
M  END
