
     RDKit          3D

 23 23  0  0  0  0  0  0  0  0999 V2000
    1.5637    0.5482    1.1690 C   0  0  0  0  0  0  0  0  0  0  0  0
    1.2361   -0.2664   -0.0629 C   0  0  0  0  0  0  0  0  0  0  0  0
    2.4743   -0.8081   -0.4837 O   0  0  0  0  0  0  0  0  0  0  0  0
    0.6453    0.5356   -1.1408 C   0  0  0  0  0  0  0  0  0  0  0  0
   -0.5351    1.1208   -1.1912 C   0  0  0  0  0  0  0  0  0  0  0  0
   -1.6635    1.1826   -0.2102 C   0  0  0  0  0  0  0  0  0  0  0  0
   -1.7028   -0.0530    0.6677 C   0  0  0  0  0  0  0  0  0  0  0  0
   -1.1038   -1.1822   -0.1028 C   0  0  0  0  0  0  0  0  0  0  0  0
    0.3423   -1.4372    0.2321 C   0  0  0  0  0  0  0  0  0  0  0  0
    2.5270    1.0814    0.9373 H   0  0  0  0  0  0  0  0  0  0  0  0
    0.8287    1.3233    1.3915 H   0  0  0  0  0  0  0  0  0  0  0  0
    1.7806   -0.1392    1.9862 H   0  0  0  0  0  0  0  0  0  0  0  0
    3.0261   -0.1414   -0.9488 H   0  0  0  0  0  0  0  0  0  0  0  0
    1.2669    0.6652   -2.0195 H   0  0  0  0  0  0  0  0  0  0  0  0
   -0.7082    1.6557   -2.1273 H   0  0  0  0  0  0  0  0  0  0  0  0
   -1.7005    2.1181    0.3485 H   0  0  0  0  0  0  0  0  0  0  0  0
   -2.5993    1.1415   -0.8349 H   0  0  0  0  0  0  0  0  0  0  0  0
   -1.2299    0.1182    1.6599 H   0  0  0  0  0  0  0  0  0  0  0  0
   -2.7842   -0.2780    0.9073 H   0  0  0  0  0  0  0  0  0  0  0  0
   -1.1410   -0.9773   -1.2037 H   0  0  0  0  0  0  0  0  0  0  0  0
   -1.6628   -2.1045    0.1530 H   0  0  0  0  0  0  0  0  0  0  0  0
    0.6546   -2.3165   -0.4045 H   0  0  0  0  0  0  0  0  0  0  0  0
    0.4855   -1.7867    1.2778 H   0  0  0  0  0  0  0  0  0  0  0  0
  1  2  1  0
  2  3  1  0
  2  4  1  0
  4  5  2  0
  5  6  1  0
  6  7  1  0
  7  8  1  0
  8  9  1  0
  9  2  1  0
  1 10  1  0
  1 11  1  0
  1 12  1  0
  3 13  1  0
  4 14  1  0
  5 15  1  0
  6 16  1  0
  6 17  1  0
  7 18  1  0
  7 19  1  0
  8 20  1  0
  8 21  1  0
  9 22  1  0
  9 23  1  0
M  END
