
     RDKit          3D

 21 22  0  0  0  0  0  0  0  0999 V2000
    1.0501   -1.2817   -0.8100 C   0  0  0  0  0  0  0  0  0  0  0  0
    0.8666   -0.2679    0.2579 C   0  0  0  0  0  0  0  0  0  0  0  0
    2.1071    0.5191    0.6146 C   0  0  0  0  0  0  0  0  0  0  0  0
   -0.0293   -0.4193    1.2820 O   0  0  0  0  0  0  0  0  0  0  0  0
   -0.4698    0.4346    0.2775 C   0  0  0  0  0  0  0  0  0  0  0  0
   -0.3554    1.9290    0.4682 C   0  0  0  0  0  0  0  0  0  0  0  0
   -1.6086   -0.0833   -0.5308 C   0  0  0  0  0  0  0  0  0  0  0  0
   -2.2914   -1.3807   -0.1155 C   0  0  0  0  0  0  0  0  0  0  0  0
   -1.4967   -1.2633   -1.2545 O   0  0  0  0  0  0  0  0  0  0  0  0
    0.7700   -0.7983   -1.7874 H   0  0  0  0  0  0  0  0  0  0  0  0
    0.5503   -2.2393   -0.6541 H   0  0  0  0  0  0  0  0  0  0  0  0
    2.1462   -1.5244   -0.9393 H   0  0  0  0  0  0  0  0  0  0  0  0
    2.4737    1.1478   -0.2113 H   0  0  0  0  0  0  0  0  0  0  0  0
    1.8941    1.1704    1.5025 H   0  0  0  0  0  0  0  0  0  0  0  0
    2.8902   -0.2137    0.9205 H   0  0  0  0  0  0  0  0  0  0  0  0
    0.3119    2.2899   -0.3693 H   0  0  0  0  0  0  0  0  0  0  0  0
    0.1449    2.2194    1.3936 H   0  0  0  0  0  0  0  0  0  0  0  0
   -1.3259    2.4417    0.2906 H   0  0  0  0  0  0  0  0  0  0  0  0
   -2.3374    0.6913   -0.8619 H   0  0  0  0  0  0  0  0  0  0  0  0
   -3.3802   -1.4833   -0.2537 H   0  0  0  0  0  0  0  0  0  0  0  0
   -1.9105   -1.8877    0.7803 H   0  0  0  0  0  0  0  0  0  0  0  0
  1  2  1  0
  2  3  1  0
  2  4  1  0
  4  5  1  0
  5  6  1  0
  5  7  1  0
  7  8  1  0
  8  9  1  0
  5  2  1  0
  9  7  1  0
  1 10  1  0
  1 11  1  0
  1 12  1  0
  3 13  1  0
  3 14  1  0
  3 15  1  0
  6 16  1  0
  6 17  1  0
  6 18  1  0
  7 19  1  0
  8 20  1  0
  8 21  1  0
M  END
