
     RDKit          3D

 25 26  0  0  0  0  0  0  0  0999 V2000
    1.7479   -1.0652    0.3535 C   0  0  0  0  0  0  0  0  0  0  0  0
    0.7373   -0.0941   -0.1403 C   0  0  0  0  0  0  0  0  0  0  0  0
    1.0693    0.2962   -1.5870 C   0  0  0  0  0  0  0  0  0  0  0  0
    0.7167    1.1450    0.7444 C   0  0  0  0  0  0  0  0  0  0  0  0
   -0.1513    2.2395    0.2509 C   0  0  0  0  0  0  0  0  0  0  0  0
   -0.8436    1.0529    0.7690 C   0  0  0  0  0  0  0  0  0  0  0  0
   -0.6867   -0.3050    0.1617 C   0  0  0  0  0  0  0  0  0  0  0  0
   -1.6021   -0.4609   -1.0589 C   0  0  0  0  0  0  0  0  0  0  0  0
   -1.0538   -1.3851    1.1428 C   0  0  0  0  0  0  0  0  0  0  0  0
    1.8521   -1.9473   -0.3161 H   0  0  0  0  0  0  0  0  0  0  0  0
    2.7558   -0.5551    0.3073 H   0  0  0  0  0  0  0  0  0  0  0  0
    1.6279   -1.4079    1.3758 H   0  0  0  0  0  0  0  0  0  0  0  0
    0.2920    0.8959   -2.0485 H   0  0  0  0  0  0  0  0  0  0  0  0
    1.1827   -0.6698   -2.1576 H   0  0  0  0  0  0  0  0  0  0  0  0
    2.0186    0.8627   -1.6243 H   0  0  0  0  0  0  0  0  0  0  0  0
    1.1897    1.1354    1.7201 H   0  0  0  0  0  0  0  0  0  0  0  0
   -0.1740    3.1459    0.8779 H   0  0  0  0  0  0  0  0  0  0  0  0
   -0.1343    2.4822   -0.8385 H   0  0  0  0  0  0  0  0  0  0  0  0
   -1.3123    1.1246    1.7678 H   0  0  0  0  0  0  0  0  0  0  0  0
   -2.6243   -0.6487   -0.6261 H   0  0  0  0  0  0  0  0  0  0  0  0
   -1.6579    0.4390   -1.6611 H   0  0  0  0  0  0  0  0  0  0  0  0
   -1.3022   -1.3777   -1.6031 H   0  0  0  0  0  0  0  0  0  0  0  0
   -1.9997   -1.0346    1.6522 H   0  0  0  0  0  0  0  0  0  0  0  0
   -1.3179   -2.3085    0.6103 H   0  0  0  0  0  0  0  0  0  0  0  0
   -0.3300   -1.5595    1.9276 H   0  0  0  0  0  0  0  0  0  0  0  0
  1  2  1  0
  2  3  1  0
  2  4  1  0
  4  5  1  0
  5  6  1  0
  6  7  1  0
  7  8  1  0
  7  9  1  0
  7  2  1  0
  6  4  1  0
  1 10  1  0
  1 11  1  0
  1 12  1  0
  3 13  1  0
  3 14  1  0
  3 15  1  0
  4 16  1  0
  5 17  1  0
  5 18  1  0
  6 19  1  0
  8 20  1  0
  8 21  1  0
  8 22  1  0
  9 23  1  0
  9 24  1  0
  9 25  1  0
M  END
