
     RDKit          3D

 17 17  0  0  0  0  0  0  0  0999 V2000
   -1.0894    1.1523    0.0899 C   0  0  0  0  0  0  0  0  0  0  0  0
   -0.1909   -0.0834    0.0230 C   0  0  0  0  0  0  0  0  0  0  0  0
   -1.0514   -1.3033   -0.0659 C   0  0  0  0  0  0  0  0  0  0  0  0
    0.8332    0.1026   -1.0543 C   0  0  0  0  0  0  0  0  0  0  0  0
    1.8523    0.3252    0.0122 C   0  0  0  0  0  0  0  0  0  0  0  0
    3.0025    0.7234   -0.0639 O   0  0  0  0  0  0  0  0  0  0  0  0
    0.8842   -0.1233    1.0629 C   0  0  0  0  0  0  0  0  0  0  0  0
   -1.7914    1.0806    0.9379 H   0  0  0  0  0  0  0  0  0  0  0  0
   -1.6282    1.1651   -0.8992 H   0  0  0  0  0  0  0  0  0  0  0  0
   -0.5137    2.0839    0.1502 H   0  0  0  0  0  0  0  0  0  0  0  0
   -1.5339   -1.4371    0.9469 H   0  0  0  0  0  0  0  0  0  0  0  0
   -0.5284   -2.2251   -0.2983 H   0  0  0  0  0  0  0  0  0  0  0  0
   -1.8984   -1.0640   -0.7509 H   0  0  0  0  0  0  0  0  0  0  0  0
    1.0229   -0.7779   -1.6934 H   0  0  0  0  0  0  0  0  0  0  0  0
    0.7468    1.0339   -1.6577 H   0  0  0  0  0  0  0  0  0  0  0  0
    0.7797    0.5397    1.9239 H   0  0  0  0  0  0  0  0  0  0  0  0
    1.1040   -1.1927    1.3366 H   0  0  0  0  0  0  0  0  0  0  0  0
  1  2  1  0
  2  3  1  0
  2  4  1  0
  4  5  1  0
  5  6  2  0
  5  7  1  0
  7  2  1  0
  1  8  1  0
  1  9  1  0
  1 10  1  0
  3 11  1  0
  3 12  1  0
  3 13  1  0
  4 14  1  0
  4 15  1  0
  7 16  1  0
  7 17  1  0
M  END
