
     RDKit          3D

 18 18  0  0  0  0  0  0  0  0999 V2000
   -2.0824    1.0855   -0.1857 C   0  0  0  0  0  0  0  0  0  0  0  0
   -1.0864   -0.0789   -0.0766 C   0  0  0  0  0  0  0  0  0  0  0  0
   -1.6231   -1.1474    0.6366 O   0  0  0  0  0  0  0  0  0  0  0  0
   -0.2281   -0.3755   -1.2352 C   0  0  0  0  0  0  0  0  0  0  0  0
    0.3360    0.2795    0.0372 C   0  0  0  0  0  0  0  0  0  0  0  0
    1.3417   -0.5821    0.7627 C   0  0  0  0  0  0  0  0  0  0  0  0
    2.6466    0.0974    0.6698 C   0  0  0  0  0  0  0  0  0  0  0  0
    2.8868    1.0306    1.3950 O   0  0  0  0  0  0  0  0  0  0  0  0
   -2.6683    1.1458    0.7602 H   0  0  0  0  0  0  0  0  0  0  0  0
   -2.7108    0.9822   -1.0798 H   0  0  0  0  0  0  0  0  0  0  0  0
   -1.5165    2.0360   -0.2750 H   0  0  0  0  0  0  0  0  0  0  0  0
   -1.4113   -1.9995    0.2070 H   0  0  0  0  0  0  0  0  0  0  0  0
    0.0327   -1.4536   -1.4082 H   0  0  0  0  0  0  0  0  0  0  0  0
   -0.3681    0.2391   -2.1340 H   0  0  0  0  0  0  0  0  0  0  0  0
    0.5948    1.3528   -0.1333 H   0  0  0  0  0  0  0  0  0  0  0  0
    1.4256   -1.5993    0.2840 H   0  0  0  0  0  0  0  0  0  0  0  0
    1.0576   -0.7748    1.8137 H   0  0  0  0  0  0  0  0  0  0  0  0
    3.3732   -0.2379   -0.0384 H   0  0  0  0  0  0  0  0  0  0  0  0
  1  2  1  0
  2  3  1  0
  2  4  1  0
  4  5  1  0
  5  6  1  0
  6  7  1  0
  7  8  2  0
  5  2  1  0
  1  9  1  0
  1 10  1  0
  1 11  1  0
  3 12  1  0
  4 13  1  0
  4 14  1  0
  5 15  1  0
  6 16  1  0
  6 17  1  0
  7 18  1  0
M  END
