
     RDKit          3D

 21 22  0  0  0  0  0  0  0  0999 V2000
   -1.4635   -0.9645   -0.6940 C   0  0  0  0  0  0  0  0  0  0  0  0
   -0.7005   -0.5143    0.4949 C   0  0  0  0  0  0  0  0  0  0  0  0
   -1.0118   -1.2637    1.6517 O   0  0  0  0  0  0  0  0  0  0  0  0
    0.7348   -0.1906    0.3586 C   0  0  0  0  0  0  0  0  0  0  0  0
    1.4932   -0.8151   -0.7758 C   0  0  0  0  0  0  0  0  0  0  0  0
    2.8302   -0.4172   -0.7730 O   0  0  0  0  0  0  0  0  0  0  0  0
    0.4997    1.2795    0.2645 C   0  0  0  0  0  0  0  0  0  0  0  0
   -0.6831    1.8432   -0.4332 C   0  0  0  0  0  0  0  0  0  0  0  0
   -0.9534    0.9820    0.7243 C   0  0  0  0  0  0  0  0  0  0  0  0
   -2.2695   -0.2348   -1.0024 H   0  0  0  0  0  0  0  0  0  0  0  0
   -0.8864   -1.1812   -1.5897 H   0  0  0  0  0  0  0  0  0  0  0  0
   -2.0446   -1.9001   -0.4411 H   0  0  0  0  0  0  0  0  0  0  0  0
   -0.7142   -0.8024    2.4730 H   0  0  0  0  0  0  0  0  0  0  0  0
    1.2784   -0.4111    1.3222 H   0  0  0  0  0  0  0  0  0  0  0  0
    1.4986   -1.9138   -0.7503 H   0  0  0  0  0  0  0  0  0  0  0  0
    1.0354   -0.5161   -1.7346 H   0  0  0  0  0  0  0  0  0  0  0  0
    3.2948   -0.6698    0.0612 H   0  0  0  0  0  0  0  0  0  0  0  0
    1.0921    1.9647    0.8891 H   0  0  0  0  0  0  0  0  0  0  0  0
   -0.9109    1.4774   -1.4519 H   0  0  0  0  0  0  0  0  0  0  0  0
   -0.8689    2.9210   -0.2998 H   0  0  0  0  0  0  0  0  0  0  0  0
   -1.2504    1.3269    1.7064 H   0  0  0  0  0  0  0  0  0  0  0  0
  1  2  1  0
  2  3  1  0
  2  4  1  0
  4  5  1  0
  5  6  1  0
  4  7  1  0
  7  8  1  0
  8  9  1  0
  9  2  1  0
  9  7  1  0
  1 10  1  0
  1 11  1  0
  1 12  1  0
  3 13  1  0
  4 14  1  0
  5 15  1  0
  5 16  1  0
  6 17  1  0
  7 18  1  0
  8 19  1  0
  8 20  1  0
  9 21  1  0
M  END
