
     RDKit          3D

 18 19  0  0  0  0  0  0  0  0999 V2000
   -2.1148   -0.3630   -0.2293 C   0  0  0  0  0  0  0  0  0  0  0  0
   -0.8868    0.5293   -0.1335 C   0  0  0  0  0  0  0  0  0  0  0  0
   -1.1340    1.8758   -0.0374 O   0  0  0  0  0  0  0  0  0  0  0  0
    0.0431   -0.0443    0.9321 C   0  0  0  0  0  0  0  0  0  0  0  0
    0.9222   -0.5803   -0.1446 C   0  0  0  0  0  0  0  0  0  0  0  0
    2.3965   -0.4489    0.1030 C   0  0  0  0  0  0  0  0  0  0  0  0
    0.4418   -1.1361   -1.2915 O   0  0  0  0  0  0  0  0  0  0  0  0
    0.1968    0.2079   -1.1362 C   0  0  0  0  0  0  0  0  0  0  0  0
   -1.7816   -1.3063   -0.7228 H   0  0  0  0  0  0  0  0  0  0  0  0
   -2.3824   -0.6219    0.8227 H   0  0  0  0  0  0  0  0  0  0  0  0
   -2.9274    0.1052   -0.7871 H   0  0  0  0  0  0  0  0  0  0  0  0
   -1.7405    2.1070    0.6972 H   0  0  0  0  0  0  0  0  0  0  0  0
   -0.3918   -0.8038    1.5803 H   0  0  0  0  0  0  0  0  0  0  0  0
    0.5323    0.7776    1.5112 H   0  0  0  0  0  0  0  0  0  0  0  0
    2.9596   -1.2031   -0.4880 H   0  0  0  0  0  0  0  0  0  0  0  0
    2.5513   -0.6532    1.2022 H   0  0  0  0  0  0  0  0  0  0  0  0
    2.6879    0.5879   -0.1047 H   0  0  0  0  0  0  0  0  0  0  0  0
    0.6278    0.9701   -1.7735 H   0  0  0  0  0  0  0  0  0  0  0  0
  1  2  1  0
  2  3  1  0
  2  4  1  0
  4  5  1  0
  5  6  1  0
  5  7  1  0
  7  8  1  0
  8  2  1  0
  8  5  1  0
  1  9  1  0
  1 10  1  0
  1 11  1  0
  3 12  1  0
  4 13  1  0
  4 14  1  0
  6 15  1  0
  6 16  1  0
  6 17  1  0
  8 18  1  0
M  END
