
     RDKit          3D

 23 24  0  0  0  0  0  0  0  0999 V2000
    2.2416    0.0047    1.3057 C   0  0  0  0  0  0  0  0  0  0  0  0
    1.8848   -0.1744   -0.1471 C   0  0  0  0  0  0  0  0  0  0  0  0
    0.4596   -0.5436   -0.5031 C   0  0  0  0  0  0  0  0  0  0  0  0
   -0.5288    0.4741   -0.0441 C   0  0  0  0  0  0  0  0  0  0  0  0
   -1.9097   -0.0090   -0.4584 C   0  0  0  0  0  0  0  0  0  0  0  0
   -3.1147    0.7722   -0.1534 C   0  0  0  0  0  0  0  0  0  0  0  0
   -2.8163   -0.4030    0.7252 C   0  0  0  0  0  0  0  0  0  0  0  0
    2.8190    0.1244   -1.1978 C   0  0  0  0  0  0  0  0  0  0  0  0
    2.7561   -1.2387   -0.7137 O   0  0  0  0  0  0  0  0  0  0  0  0
    3.3126   -0.1939    1.4945 H   0  0  0  0  0  0  0  0  0  0  0  0
    1.9937    1.0453    1.5860 H   0  0  0  0  0  0  0  0  0  0  0  0
    1.6453   -0.7315    1.8805 H   0  0  0  0  0  0  0  0  0  0  0  0
    0.3934   -0.6098   -1.6081 H   0  0  0  0  0  0  0  0  0  0  0  0
    0.2414   -1.5000   -0.0138 H   0  0  0  0  0  0  0  0  0  0  0  0
   -0.3163    1.4892   -0.4751 H   0  0  0  0  0  0  0  0  0  0  0  0
   -0.4861    0.6214    1.0678 H   0  0  0  0  0  0  0  0  0  0  0  0
   -1.9338   -0.7018   -1.3476 H   0  0  0  0  0  0  0  0  0  0  0  0
   -3.9900    0.6053   -0.8449 H   0  0  0  0  0  0  0  0  0  0  0  0
   -3.0466    1.7726    0.3132 H   0  0  0  0  0  0  0  0  0  0  0  0
   -3.3929   -1.3467    0.6129 H   0  0  0  0  0  0  0  0  0  0  0  0
   -2.4509   -0.2179    1.7378 H   0  0  0  0  0  0  0  0  0  0  0  0
    2.4384    0.1905   -2.2412 H   0  0  0  0  0  0  0  0  0  0  0  0
    3.8001    0.5708   -0.9752 H   0  0  0  0  0  0  0  0  0  0  0  0
  1  2  1  0
  2  3  1  0
  3  4  1  0
  4  5  1  0
  5  6  1  0
  6  7  1  0
  2  8  1  0
  8  9  1  0
  9  2  1  0
  7  5  1  0
  1 10  1  0
  1 11  1  0
  1 12  1  0
  3 13  1  0
  3 14  1  0
  4 15  1  0
  4 16  1  0
  5 17  1  0
  6 18  1  0
  6 19  1  0
  7 20  1  0
  7 21  1  0
  8 22  1  0
  8 23  1  0
M  END
