
     RDKit          3D

 19 19  0  0  0  0  0  0  0  0999 V2000
   -0.0749   -1.9260   -0.2067 C   0  0  0  0  0  0  0  0  0  0  0  0
    0.5490   -0.5270   -0.1924 C   0  0  0  0  0  0  0  0  0  0  0  0
    1.9011   -0.5458   -0.4932 O   0  0  0  0  0  0  0  0  0  0  0  0
    2.7195    0.5629   -0.5454 C   0  0  0  0  0  0  0  0  0  0  0  0
    2.2103    1.6777   -0.3019 O   0  0  0  0  0  0  0  0  0  0  0  0
    0.1557    0.3006    1.0048 C   0  0  0  0  0  0  0  0  0  0  0  0
   -0.3431    0.6364   -0.3628 C   0  0  0  0  0  0  0  0  0  0  0  0
   -1.8226    0.3545   -0.5573 C   0  0  0  0  0  0  0  0  0  0  0  0
   -2.5125    1.5685   -0.7016 O   0  0  0  0  0  0  0  0  0  0  0  0
    0.1424   -2.3662    0.7901 H   0  0  0  0  0  0  0  0  0  0  0  0
   -1.1593   -1.8789   -0.4031 H   0  0  0  0  0  0  0  0  0  0  0  0
    0.4336   -2.5832   -0.9513 H   0  0  0  0  0  0  0  0  0  0  0  0
    3.7862    0.4535   -0.7952 H   0  0  0  0  0  0  0  0  0  0  0  0
   -0.5506   -0.1509    1.7553 H   0  0  0  0  0  0  0  0  0  0  0  0
    0.8638    0.9908    1.4756 H   0  0  0  0  0  0  0  0  0  0  0  0
   -0.0267    1.5567   -0.8459 H   0  0  0  0  0  0  0  0  0  0  0  0
   -1.9966   -0.2087   -1.5049 H   0  0  0  0  0  0  0  0  0  0  0  0
   -2.2594   -0.2061    0.2965 H   0  0  0  0  0  0  0  0  0  0  0  0
   -2.0157    2.2911   -0.2139 H   0  0  0  0  0  0  0  0  0  0  0  0
  1  2  1  0
  2  3  1  0
  3  4  1  0
  4  5  2  0
  2  6  1  0
  6  7  1  0
  7  8  1  0
  8  9  1  0
  7  2  1  0
  1 10  1  0
  1 11  1  0
  1 12  1  0
  4 13  1  0
  6 14  1  0
  6 15  1  0
  7 16  1  0
  8 17  1  0
  8 18  1  0
  9 19  1  0
M  END
