
     RDKit          3D

 23 24  0  0  0  0  0  0  0  0999 V2000
   -1.3987    0.7345    0.8177 C   0  0  0  0  0  0  0  0  0  0  0  0
   -1.0652   -0.2616   -0.2293 C   0  0  0  0  0  0  0  0  0  0  0  0
   -2.2583   -0.4971   -1.1441 C   0  0  0  0  0  0  0  0  0  0  0  0
   -0.6628   -1.4735    0.3613 O   0  0  0  0  0  0  0  0  0  0  0  0
    0.6795   -1.2932    0.0501 C   0  0  0  0  0  0  0  0  0  0  0  0
    1.5263   -0.6680    1.1165 C   0  0  0  0  0  0  0  0  0  0  0  0
    1.9589    0.6668    0.5949 C   0  0  0  0  0  0  0  0  0  0  0  0
    1.1277    0.9823   -0.6162 C   0  0  0  0  0  0  0  0  0  0  0  0
    0.2548   -0.1858   -0.8925 C   0  0  0  0  0  0  0  0  0  0  0  0
   -1.8970    1.6459    0.4100 H   0  0  0  0  0  0  0  0  0  0  0  0
   -2.1332    0.2547    1.5226 H   0  0  0  0  0  0  0  0  0  0  0  0
   -0.5671    1.0824    1.4329 H   0  0  0  0  0  0  0  0  0  0  0  0
   -2.5833    0.4664   -1.5897 H   0  0  0  0  0  0  0  0  0  0  0  0
   -3.1241   -0.8752   -0.5554 H   0  0  0  0  0  0  0  0  0  0  0  0
   -2.0285   -1.1853   -1.9691 H   0  0  0  0  0  0  0  0  0  0  0  0
    1.1864   -2.1182   -0.4542 H   0  0  0  0  0  0  0  0  0  0  0  0
    1.0022   -0.6031    2.1080 H   0  0  0  0  0  0  0  0  0  0  0  0
    2.4428   -1.2898    1.3420 H   0  0  0  0  0  0  0  0  0  0  0  0
    3.0640    0.6447    0.3607 H   0  0  0  0  0  0  0  0  0  0  0  0
    1.8005    1.4996    1.3254 H   0  0  0  0  0  0  0  0  0  0  0  0
    0.6011    1.9474   -0.5587 H   0  0  0  0  0  0  0  0  0  0  0  0
    1.8414    1.0812   -1.4849 H   0  0  0  0  0  0  0  0  0  0  0  0
    0.2327   -0.5553   -1.9480 H   0  0  0  0  0  0  0  0  0  0  0  0
  1  2  1  0
  2  3  1  0
  2  4  1  0
  4  5  1  0
  5  6  1  0
  6  7  1  0
  7  8  1  0
  8  9  1  0
  9  2  1  0
  9  5  1  0
  1 10  1  0
  1 11  1  0
  1 12  1  0
  3 13  1  0
  3 14  1  0
  3 15  1  0
  5 16  1  0
  6 17  1  0
  6 18  1  0
  7 19  1  0
  7 20  1  0
  8 21  1  0
  8 22  1  0
  9 23  1  0
M  END
