
     RDKit          3D

 23 24  0  0  0  0  0  0  0  0999 V2000
    1.9962   -0.7492   -0.5171 C   0  0  0  0  0  0  0  0  0  0  0  0
    0.7991    0.0284   -0.0217 C   0  0  0  0  0  0  0  0  0  0  0  0
    0.9509    0.2222    1.4715 C   0  0  0  0  0  0  0  0  0  0  0  0
    0.6712    1.3820   -0.6420 C   0  0  0  0  0  0  0  0  0  0  0  0
   -0.5516    1.4919   -1.2361 O   0  0  0  0  0  0  0  0  0  0  0  0
   -1.2623    0.3465   -1.0963 C   0  0  0  0  0  0  0  0  0  0  0  0
   -2.2464    0.2700    0.0469 C   0  0  0  0  0  0  0  0  0  0  0  0
   -1.4827   -0.9136    0.6182 C   0  0  0  0  0  0  0  0  0  0  0  0
   -0.4344   -0.6878   -0.4169 C   0  0  0  0  0  0  0  0  0  0  0  0
    1.6748   -1.6988   -1.0389 H   0  0  0  0  0  0  0  0  0  0  0  0
    2.5860   -0.1974   -1.2744 H   0  0  0  0  0  0  0  0  0  0  0  0
    2.6335   -1.1156    0.3330 H   0  0  0  0  0  0  0  0  0  0  0  0
    1.8144    0.9420    1.5840 H   0  0  0  0  0  0  0  0  0  0  0  0
    1.2306   -0.6773    2.0117 H   0  0  0  0  0  0  0  0  0  0  0  0
    0.0789    0.7687    1.9004 H   0  0  0  0  0  0  0  0  0  0  0  0
    0.7430    2.2169    0.1172 H   0  0  0  0  0  0  0  0  0  0  0  0
    1.5366    1.5499   -1.3203 H   0  0  0  0  0  0  0  0  0  0  0  0
   -1.7676    0.0246   -2.0398 H   0  0  0  0  0  0  0  0  0  0  0  0
   -3.2679   -0.0631   -0.2252 H   0  0  0  0  0  0  0  0  0  0  0  0
   -2.2760    1.1321    0.7206 H   0  0  0  0  0  0  0  0  0  0  0  0
   -1.9708   -1.8988    0.4676 H   0  0  0  0  0  0  0  0  0  0  0  0
   -1.1859   -0.8159    1.6721 H   0  0  0  0  0  0  0  0  0  0  0  0
   -0.2694   -1.5577   -1.1143 H   0  0  0  0  0  0  0  0  0  0  0  0
  1  2  1  0
  2  3  1  0
  2  4  1  0
  4  5  1  0
  5  6  1  0
  6  7  1  0
  7  8  1  0
  8  9  1  0
  9  2  1  0
  9  6  1  0
  1 10  1  0
  1 11  1  0
  1 12  1  0
  3 13  1  0
  3 14  1  0
  3 15  1  0
  4 16  1  0
  4 17  1  0
  6 18  1  0
  7 19  1  0
  7 20  1  0
  8 21  1  0
  8 22  1  0
  9 23  1  0
M  END
