
     RDKit          3D

 23 25  0  0  0  0  0  0  0  0999 V2000
   -1.5010    1.3298   -1.0100 C   0  0  0  0  0  0  0  0  0  0  0  0
   -0.9657    0.1348   -0.2219 C   0  0  0  0  0  0  0  0  0  0  0  0
    0.3793   -0.3956   -0.5790 C   0  0  0  0  0  0  0  0  0  0  0  0
    1.5322    0.5214   -0.5272 C   0  0  0  0  0  0  0  0  0  0  0  0
    1.4199    0.4834    0.9680 C   0  0  0  0  0  0  0  0  0  0  0  0
    1.1961   -0.9318    0.5708 C   0  0  0  0  0  0  0  0  0  0  0  0
    2.3675   -0.7318   -0.3532 C   0  0  0  0  0  0  0  0  0  0  0  0
   -1.5042   -0.1252    1.1208 C   0  0  0  0  0  0  0  0  0  0  0  0
   -2.0469   -0.9315   -0.0005 C   0  0  0  0  0  0  0  0  0  0  0  0
   -2.6024    1.4076   -0.9008 H   0  0  0  0  0  0  0  0  0  0  0  0
   -1.2143    1.2830   -2.0609 H   0  0  0  0  0  0  0  0  0  0  0  0
   -1.0999    2.2831   -0.5590 H   0  0  0  0  0  0  0  0  0  0  0  0
    0.3627   -1.0271   -1.4909 H   0  0  0  0  0  0  0  0  0  0  0  0
    1.7653    1.3053   -1.0999 H   0  0  0  0  0  0  0  0  0  0  0  0
    0.6267    1.0670    1.4177 H   0  0  0  0  0  0  0  0  0  0  0  0
    2.4160    0.6261    1.4796 H   0  0  0  0  0  0  0  0  0  0  0  0
    0.9952   -1.7294    1.1333 H   0  0  0  0  0  0  0  0  0  0  0  0
    3.2745   -0.5059    0.2126 H   0  0  0  0  0  0  0  0  0  0  0  0
    2.4321   -1.3874   -1.2173 H   0  0  0  0  0  0  0  0  0  0  0  0
   -0.8937   -0.6760    1.8764 H   0  0  0  0  0  0  0  0  0  0  0  0
   -2.1049    0.6853    1.5776 H   0  0  0  0  0  0  0  0  0  0  0  0
   -1.7420   -1.9917   -0.0557 H   0  0  0  0  0  0  0  0  0  0  0  0
   -3.0927   -0.6934   -0.2805 H   0  0  0  0  0  0  0  0  0  0  0  0
  1  2  1  0
  2  3  1  0
  3  4  1  0
  4  5  1  0
  5  6  1  0
  6  7  1  0
  2  8  1  0
  8  9  1  0
  9  2  1  0
  6  3  1  0
  7  4  1  0
  1 10  1  0
  1 11  1  0
  1 12  1  0
  3 13  1  0
  4 14  1  0
  5 15  1  0
  5 16  1  0
  6 17  1  0
  7 18  1  0
  7 19  1  0
  8 20  1  0
  8 21  1  0
  9 22  1  0
  9 23  1  0
M  END
