
     RDKit          3D

 23 24  0  0  0  0  0  0  0  0999 V2000
    1.5986   -0.7533    0.9402 C   0  0  0  0  0  0  0  0  0  0  0  0
    0.8228   -0.0502   -0.1375 C   0  0  0  0  0  0  0  0  0  0  0  0
    1.6789    0.8155   -1.0537 C   0  0  0  0  0  0  0  0  0  0  0  0
   -0.3318   -0.6855   -0.8055 C   0  0  0  0  0  0  0  0  0  0  0  0
   -1.1461   -1.7600   -0.1767 C   0  0  0  0  0  0  0  0  0  0  0  0
   -2.1881   -1.0178    0.4265 O   0  0  0  0  0  0  0  0  0  0  0  0
   -1.4128   -0.1223    1.1958 C   0  0  0  0  0  0  0  0  0  0  0  0
   -0.5015    0.4661    0.1861 C   0  0  0  0  0  0  0  0  0  0  0  0
   -0.8849    1.8201   -0.3581 C   0  0  0  0  0  0  0  0  0  0  0  0
    1.8619   -1.8035    0.6760 H   0  0  0  0  0  0  0  0  0  0  0  0
    1.0883   -0.7800    1.9159 H   0  0  0  0  0  0  0  0  0  0  0  0
    2.5660   -0.2358    1.1122 H   0  0  0  0  0  0  0  0  0  0  0  0
    2.4047    1.4070   -0.4951 H   0  0  0  0  0  0  0  0  0  0  0  0
    2.2605    0.0929   -1.6865 H   0  0  0  0  0  0  0  0  0  0  0  0
    1.0643    1.4007   -1.7581 H   0  0  0  0  0  0  0  0  0  0  0  0
   -0.5741   -0.4285   -1.8431 H   0  0  0  0  0  0  0  0  0  0  0  0
   -1.6279   -2.4067   -0.9632 H   0  0  0  0  0  0  0  0  0  0  0  0
   -0.6391   -2.3528    0.5888 H   0  0  0  0  0  0  0  0  0  0  0  0
   -2.1206    0.6030    1.6402 H   0  0  0  0  0  0  0  0  0  0  0  0
   -0.9492   -0.7165    1.9812 H   0  0  0  0  0  0  0  0  0  0  0  0
   -0.9233    1.8293   -1.4536 H   0  0  0  0  0  0  0  0  0  0  0  0
   -1.8929    2.1089    0.0135 H   0  0  0  0  0  0  0  0  0  0  0  0
   -0.1535    2.5695    0.0545 H   0  0  0  0  0  0  0  0  0  0  0  0
  1  2  1  0
  2  3  1  0
  2  4  1  0
  4  5  1  0
  5  6  1  0
  6  7  1  0
  7  8  1  0
  8  9  1  0
  8  2  1  0
  8  4  1  0
  1 10  1  0
  1 11  1  0
  1 12  1  0
  3 13  1  0
  3 14  1  0
  3 15  1  0
  4 16  1  0
  5 17  1  0
  5 18  1  0
  7 19  1  0
  7 20  1  0
  9 21  1  0
  9 22  1  0
  9 23  1  0
M  END
