
     RDKit          3D

 21 22  0  0  0  0  0  0  0  0999 V2000
    1.2805    0.6448    1.4305 C   0  0  0  0  0  0  0  0  0  0  0  0
    0.7909    0.0550    0.1009 C   0  0  0  0  0  0  0  0  0  0  0  0
    1.7956   -0.6657   -0.7442 C   0  0  0  0  0  0  0  0  0  0  0  0
   -0.2161    0.8929   -0.5960 C   0  0  0  0  0  0  0  0  0  0  0  0
   -1.3715    1.5127    0.0951 C   0  0  0  0  0  0  0  0  0  0  0  0
   -1.5492    0.2928    0.9670 C   0  0  0  0  0  0  0  0  0  0  0  0
   -2.1431   -0.0439    1.9513 O   0  0  0  0  0  0  0  0  0  0  0  0
   -0.5992   -0.3900    0.0226 C   0  0  0  0  0  0  0  0  0  0  0  0
   -1.0650   -1.5548   -0.7742 C   0  0  0  0  0  0  0  0  0  0  0  0
    2.0432    1.4295    1.2048 H   0  0  0  0  0  0  0  0  0  0  0  0
    1.6545   -0.1480    2.0748 H   0  0  0  0  0  0  0  0  0  0  0  0
    0.4137    1.1918    1.8805 H   0  0  0  0  0  0  0  0  0  0  0  0
    1.4730   -0.6273   -1.7936 H   0  0  0  0  0  0  0  0  0  0  0  0
    1.8820   -1.7562   -0.4855 H   0  0  0  0  0  0  0  0  0  0  0  0
    2.7798   -0.1561   -0.6806 H   0  0  0  0  0  0  0  0  0  0  0  0
   -0.0821    1.0055   -1.6982 H   0  0  0  0  0  0  0  0  0  0  0  0
   -2.2629    1.5443   -0.5963 H   0  0  0  0  0  0  0  0  0  0  0  0
   -1.2290    2.4478    0.6336 H   0  0  0  0  0  0  0  0  0  0  0  0
   -1.7622   -2.2039   -0.2028 H   0  0  0  0  0  0  0  0  0  0  0  0
   -0.2233   -2.1900   -1.0813 H   0  0  0  0  0  0  0  0  0  0  0  0
   -1.6097   -1.2812   -1.7085 H   0  0  0  0  0  0  0  0  0  0  0  0
  1  2  1  0
  2  3  1  0
  2  4  1  0
  4  5  1  0
  5  6  1  0
  6  7  2  0
  6  8  1  0
  8  9  1  0
  8  2  1  0
  8  4  1  0
  1 10  1  0
  1 11  1  0
  1 12  1  0
  3 13  1  0
  3 14  1  0
  3 15  1  0
  4 16  1  0
  5 17  1  0
  5 18  1  0
  9 19  1  0
  9 20  1  0
  9 21  1  0
M  END
