
     RDKit          3D

 18 18  0  0  0  0  0  0  0  0999 V2000
   -1.5608   -0.9026   -0.2549 C   0  0  0  0  0  0  0  0  0  0  0  0
   -0.5386    0.1483    0.1321 C   0  0  0  0  0  0  0  0  0  0  0  0
   -1.2474    1.4175    0.4669 C   0  0  0  0  0  0  0  0  0  0  0  0
   -0.7222    2.4634    0.1237 O   0  0  0  0  0  0  0  0  0  0  0  0
    0.2938   -0.3160    1.2575 C   0  0  0  0  0  0  0  0  0  0  0  0
    1.5608   -0.4551    0.9134 C   0  0  0  0  0  0  0  0  0  0  0  0
    1.7818   -0.1035   -0.5088 C   0  0  0  0  0  0  0  0  0  0  0  0
    0.4263    0.3005   -0.9891 C   0  0  0  0  0  0  0  0  0  0  0  0
   -1.0079   -1.8207   -0.5219 H   0  0  0  0  0  0  0  0  0  0  0  0
   -2.2868   -1.1027    0.5753 H   0  0  0  0  0  0  0  0  0  0  0  0
   -2.1542   -0.5325   -1.1133 H   0  0  0  0  0  0  0  0  0  0  0  0
   -2.1889    1.4316    0.9916 H   0  0  0  0  0  0  0  0  0  0  0  0
   -0.0823   -0.5214    2.2536 H   0  0  0  0  0  0  0  0  0  0  0  0
    2.3932   -0.7845    1.5497 H   0  0  0  0  0  0  0  0  0  0  0  0
    2.1844   -0.9658   -1.0960 H   0  0  0  0  0  0  0  0  0  0  0  0
    2.5431    0.7064   -0.6252 H   0  0  0  0  0  0  0  0  0  0  0  0
    0.4502    1.3760   -1.2863 H   0  0  0  0  0  0  0  0  0  0  0  0
    0.1556   -0.3388   -1.8684 H   0  0  0  0  0  0  0  0  0  0  0  0
  1  2  1  0
  2  3  1  0
  3  4  2  0
  2  5  1  0
  5  6  2  0
  6  7  1  0
  7  8  1  0
  8  2  1  0
  1  9  1  0
  1 10  1  0
  1 11  1  0
  3 12  1  0
  5 13  1  0
  6 14  1  0
  7 15  1  0
  7 16  1  0
  8 17  1  0
  8 18  1  0
M  END
