
     RDKit          3D

 23 24  0  0  0  0  0  0  0  0999 V2000
   -1.9901   -0.6069    0.9385 C   0  0  0  0  0  0  0  0  0  0  0  0
   -1.0953    0.1129   -0.0676 C   0  0  0  0  0  0  0  0  0  0  0  0
   -1.9001    1.2925   -0.5948 C   0  0  0  0  0  0  0  0  0  0  0  0
    0.1431    0.6648    0.5666 C   0  0  0  0  0  0  0  0  0  0  0  0
    1.2668   -0.0660   -0.0969 C   0  0  0  0  0  0  0  0  0  0  0  0
    2.4043   -0.4665    0.8079 C   0  0  0  0  0  0  0  0  0  0  0  0
    1.5057   -0.0456   -1.5404 C   0  0  0  0  0  0  0  0  0  0  0  0
    0.5872   -1.0823   -0.9306 C   0  0  0  0  0  0  0  0  0  0  0  0
   -0.7465   -0.7846   -1.0303 O   0  0  0  0  0  0  0  0  0  0  0  0
   -1.9690   -1.7153    0.7721 H   0  0  0  0  0  0  0  0  0  0  0  0
   -1.6999   -0.3822    1.9791 H   0  0  0  0  0  0  0  0  0  0  0  0
   -3.0559   -0.3145    0.8220 H   0  0  0  0  0  0  0  0  0  0  0  0
   -1.2236    2.1803   -0.7383 H   0  0  0  0  0  0  0  0  0  0  0  0
   -2.6262    1.6057    0.1918 H   0  0  0  0  0  0  0  0  0  0  0  0
   -2.4383    1.0426   -1.5218 H   0  0  0  0  0  0  0  0  0  0  0  0
    0.2133    1.7562    0.5227 H   0  0  0  0  0  0  0  0  0  0  0  0
    0.1177    0.3511    1.6488 H   0  0  0  0  0  0  0  0  0  0  0  0
    3.3153    0.1504    0.6537 H   0  0  0  0  0  0  0  0  0  0  0  0
    2.1390   -0.3735    1.8825 H   0  0  0  0  0  0  0  0  0  0  0  0
    2.5942   -1.5536    0.6380 H   0  0  0  0  0  0  0  0  0  0  0  0
    1.0572    0.7350   -2.2073 H   0  0  0  0  0  0  0  0  0  0  0  0
    2.4875   -0.3859   -1.8932 H   0  0  0  0  0  0  0  0  0  0  0  0
    0.9137   -2.1147   -0.8025 H   0  0  0  0  0  0  0  0  0  0  0  0
  1  2  1  0
  2  3  1  0
  2  4  1  0
  4  5  1  0
  5  6  1  0
  5  7  1  0
  7  8  1  0
  8  9  1  0
  9  2  1  0
  8  5  1  0
  1 10  1  0
  1 11  1  0
  1 12  1  0
  3 13  1  0
  3 14  1  0
  3 15  1  0
  4 16  1  0
  4 17  1  0
  6 18  1  0
  6 19  1  0
  6 20  1  0
  7 21  1  0
  7 22  1  0
  8 23  1  0
M  END
