
     RDKit          3D

 22 23  0  0  0  0  0  0  0  0999 V2000
   -1.1591    1.2337   -0.8950 C   0  0  0  0  0  0  0  0  0  0  0  0
   -0.6826    0.0799   -0.0786 C   0  0  0  0  0  0  0  0  0  0  0  0
   -1.3893   -0.0188    1.2702 C   0  0  0  0  0  0  0  0  0  0  0  0
   -0.7527   -1.2794   -0.7754 C   0  0  0  0  0  0  0  0  0  0  0  0
    0.6617   -1.5628   -0.2544 C   0  0  0  0  0  0  0  0  0  0  0  0
    0.7688   -0.1286    0.0691 C   0  0  0  0  0  0  0  0  0  0  0  0
    1.6361    0.4836    1.0446 C   0  0  0  0  0  0  0  0  0  0  0  0
    1.8186    0.7238   -0.4523 C   0  0  0  0  0  0  0  0  0  0  0  0
   -1.6125    0.9062   -1.8538 H   0  0  0  0  0  0  0  0  0  0  0  0
   -0.3432    1.9247   -1.1505 H   0  0  0  0  0  0  0  0  0  0  0  0
   -1.9236    1.8122   -0.3124 H   0  0  0  0  0  0  0  0  0  0  0  0
   -1.1076   -0.9673    1.7616 H   0  0  0  0  0  0  0  0  0  0  0  0
   -2.4835   -0.0929    1.0672 H   0  0  0  0  0  0  0  0  0  0  0  0
   -1.1415    0.8542    1.9220 H   0  0  0  0  0  0  0  0  0  0  0  0
   -0.8107   -1.1290   -1.8670 H   0  0  0  0  0  0  0  0  0  0  0  0
   -1.5266   -1.9484   -0.3945 H   0  0  0  0  0  0  0  0  0  0  0  0
    0.6846   -2.3000    0.5543 H   0  0  0  0  0  0  0  0  0  0  0  0
    1.3068   -1.8392   -1.1155 H   0  0  0  0  0  0  0  0  0  0  0  0
    1.2452    1.3949    1.5768 H   0  0  0  0  0  0  0  0  0  0  0  0
    2.3838   -0.1102    1.5871 H   0  0  0  0  0  0  0  0  0  0  0  0
    2.7441    0.2261   -0.8507 H   0  0  0  0  0  0  0  0  0  0  0  0
    1.6833    1.7373   -0.8526 H   0  0  0  0  0  0  0  0  0  0  0  0
  1  2  1  0
  2  3  1  0
  2  4  1  0
  4  5  1  0
  5  6  1  0
  6  7  1  0
  7  8  1  0
  6  2  1  0
  8  6  1  0
  1  9  1  0
  1 10  1  0
  1 11  1  0
  3 12  1  0
  3 13  1  0
  3 14  1  0
  4 15  1  0
  4 16  1  0
  5 17  1  0
  5 18  1  0
  7 19  1  0
  7 20  1  0
  8 21  1  0
  8 22  1  0
M  END
