
     RDKit          3D

 17 17  0  0  0  0  0  0  0  0999 V2000
    0.0230    1.4846   -0.1575 C   0  0  0  0  0  0  0  0  0  0  0  0
   -0.0461   -0.0130   -0.1100 C   0  0  0  0  0  0  0  0  0  0  0  0
    1.2288   -0.6630    0.2851 C   0  0  0  0  0  0  0  0  0  0  0  0
    1.1980   -1.9400    0.3293 O   0  0  0  0  0  0  0  0  0  0  0  0
    2.4431    0.0669    0.6054 C   0  0  0  0  0  0  0  0  0  0  0  0
    2.5489    1.3147    0.5842 O   0  0  0  0  0  0  0  0  0  0  0  0
   -0.9093   -0.6663   -1.1414 C   0  0  0  0  0  0  0  0  0  0  0  0
   -1.2874   -0.7154    0.2896 C   0  0  0  0  0  0  0  0  0  0  0  0
   -2.3930   -0.0185    0.7595 O   0  0  0  0  0  0  0  0  0  0  0  0
   -0.9467    1.9491   -0.4403 H   0  0  0  0  0  0  0  0  0  0  0  0
    0.8078    1.7674   -0.8934 H   0  0  0  0  0  0  0  0  0  0  0  0
    0.3059    1.8841    0.8360 H   0  0  0  0  0  0  0  0  0  0  0  0
    3.3172   -0.5040    0.8815 H   0  0  0  0  0  0  0  0  0  0  0  0
   -1.5117    0.0090   -1.7991 H   0  0  0  0  0  0  0  0  0  0  0  0
   -0.4645   -1.5513   -1.6336 H   0  0  0  0  0  0  0  0  0  0  0  0
   -1.1773   -1.7232    0.7676 H   0  0  0  0  0  0  0  0  0  0  0  0
   -3.1366   -0.6809    0.8372 H   0  0  0  0  0  0  0  0  0  0  0  0
  1  2  1  0
  2  3  1  0
  3  4  2  0
  3  5  1  0
  5  6  2  0
  2  7  1  0
  7  8  1  0
  8  9  1  0
  8  2  1  0
  1 10  1  0
  1 11  1  0
  1 12  1  0
  5 13  1  0
  7 14  1  0
  7 15  1  0
  8 16  1  0
  9 17  1  0
M  END
