
     RDKit          3D

 22 23  0  0  0  0  0  0  0  0999 V2000
   -1.5471    0.2833    1.2663 C   0  0  0  0  0  0  0  0  0  0  0  0
   -0.7180   -0.0960    0.0878 C   0  0  0  0  0  0  0  0  0  0  0  0
   -1.1941    0.5070   -1.2422 C   0  0  0  0  0  0  0  0  0  0  0  0
   -0.4749   -1.5713   -0.1172 C   0  0  0  0  0  0  0  0  0  0  0  0
    0.9965   -1.2012   -0.3253 C   0  0  0  0  0  0  0  0  0  0  0  0
    1.6748   -0.7598    0.8946 C   0  0  0  0  0  0  0  0  0  0  0  0
    0.7275    0.1704    0.2726 C   0  0  0  0  0  0  0  0  0  0  0  0
    1.2679    1.3922   -0.3991 C   0  0  0  0  0  0  0  0  0  0  0  0
   -2.4373    0.8415    0.8979 H   0  0  0  0  0  0  0  0  0  0  0  0
   -0.9624    1.0438    1.8629 H   0  0  0  0  0  0  0  0  0  0  0  0
   -1.7859   -0.5241    1.9572 H   0  0  0  0  0  0  0  0  0  0  0  0
   -0.3431    0.3677   -1.9705 H   0  0  0  0  0  0  0  0  0  0  0  0
   -2.0367   -0.0629   -1.6624 H   0  0  0  0  0  0  0  0  0  0  0  0
   -1.3612    1.5872   -1.1643 H   0  0  0  0  0  0  0  0  0  0  0  0
   -0.5524   -2.1958    0.7866 H   0  0  0  0  0  0  0  0  0  0  0  0
   -0.9593   -2.0370   -0.9697 H   0  0  0  0  0  0  0  0  0  0  0  0
    1.4064   -1.1607   -1.3288 H   0  0  0  0  0  0  0  0  0  0  0  0
    1.4310   -1.3314    1.8229 H   0  0  0  0  0  0  0  0  0  0  0  0
    2.7399   -0.4861    0.8395 H   0  0  0  0  0  0  0  0  0  0  0  0
    2.0740    1.8049    0.2734 H   0  0  0  0  0  0  0  0  0  0  0  0
    1.5976    1.2510   -1.4266 H   0  0  0  0  0  0  0  0  0  0  0  0
    0.4565    2.1774   -0.3554 H   0  0  0  0  0  0  0  0  0  0  0  0
  1  2  1  0
  2  3  1  0
  2  4  1  0
  4  5  1  0
  5  6  1  0
  6  7  1  0
  7  8  1  0
  7  2  1  0
  7  5  1  0
  1  9  1  0
  1 10  1  0
  1 11  1  0
  3 12  1  0
  3 13  1  0
  3 14  1  0
  4 15  1  0
  4 16  1  0
  5 17  1  0
  6 18  1  0
  6 19  1  0
  8 20  1  0
  8 21  1  0
  8 22  1  0
M  END
