
     RDKit          3D

 21 21  0  0  0  0  0  0  0  0999 V2000
    1.2489    0.9795   -1.1058 C   0  0  0  0  0  0  0  0  0  0  0  0
    0.3568    0.1800   -0.1890 C   0  0  0  0  0  0  0  0  0  0  0  0
    1.2233   -0.4248    0.8923 C   0  0  0  0  0  0  0  0  0  0  0  0
    2.1655   -1.2428    0.2617 O   0  0  0  0  0  0  0  0  0  0  0  0
   -0.7088    1.0721    0.3478 C   0  0  0  0  0  0  0  0  0  0  0  0
   -1.8924    0.1865    0.6147 C   0  0  0  0  0  0  0  0  0  0  0  0
   -1.6468   -1.0971   -0.1444 C   0  0  0  0  0  0  0  0  0  0  0  0
   -0.3734   -0.8986   -0.8931 C   0  0  0  0  0  0  0  0  0  0  0  0
   -0.0796   -1.5411   -1.8745 O   0  0  0  0  0  0  0  0  0  0  0  0
    1.9770    1.5194   -0.4322 H   0  0  0  0  0  0  0  0  0  0  0  0
    0.6876    1.7884   -1.6267 H   0  0  0  0  0  0  0  0  0  0  0  0
    1.8109    0.3396   -1.8212 H   0  0  0  0  0  0  0  0  0  0  0  0
    1.7815    0.3998    1.3831 H   0  0  0  0  0  0  0  0  0  0  0  0
    0.6613   -0.9810    1.6423 H   0  0  0  0  0  0  0  0  0  0  0  0
    3.0739   -1.1327    0.6140 H   0  0  0  0  0  0  0  0  0  0  0  0
   -0.4112    1.6773    1.2075 H   0  0  0  0  0  0  0  0  0  0  0  0
   -0.9925    1.7947   -0.4697 H   0  0  0  0  0  0  0  0  0  0  0  0
   -2.8218    0.6370    0.1617 H   0  0  0  0  0  0  0  0  0  0  0  0
   -2.0800    0.0150    1.6891 H   0  0  0  0  0  0  0  0  0  0  0  0
   -2.4365   -1.3414   -0.8538 H   0  0  0  0  0  0  0  0  0  0  0  0
   -1.5437   -1.9298    0.5962 H   0  0  0  0  0  0  0  0  0  0  0  0
  1  2  1  0
  2  3  1  0
  3  4  1  0
  2  5  1  0
  5  6  1  0
  6  7  1  0
  7  8  1  0
  8  9  2  0
  8  2  1  0
  1 10  1  0
  1 11  1  0
  1 12  1  0
  3 13  1  0
  3 14  1  0
  4 15  1  0
  5 16  1  0
  5 17  1  0
  6 18  1  0
  6 19  1  0
  7 20  1  0
  7 21  1  0
M  END
