
     RDKit          3D

 23 24  0  0  0  0  0  0  0  0999 V2000
   -1.6470   -0.1694    1.1539 C   0  0  0  0  0  0  0  0  0  0  0  0
   -0.9584    0.2213   -0.1235 C   0  0  0  0  0  0  0  0  0  0  0  0
   -1.7125    1.3324   -0.8006 C   0  0  0  0  0  0  0  0  0  0  0  0
   -0.7300   -0.9681   -0.9890 C   0  0  0  0  0  0  0  0  0  0  0  0
    0.7269   -1.3358   -0.7439 C   0  0  0  0  0  0  0  0  0  0  0  0
    1.3624   -0.1251   -0.0980 C   0  0  0  0  0  0  0  0  0  0  0  0
    2.8414    0.1062   -0.2569 C   0  0  0  0  0  0  0  0  0  0  0  0
    0.9900    0.0411    1.3116 O   0  0  0  0  0  0  0  0  0  0  0  0
    0.4223    0.7777    0.2299 C   0  0  0  0  0  0  0  0  0  0  0  0
   -1.9053   -1.2472    1.1900 H   0  0  0  0  0  0  0  0  0  0  0  0
   -2.5864    0.4242    1.2717 H   0  0  0  0  0  0  0  0  0  0  0  0
   -1.0228    0.0602    2.0437 H   0  0  0  0  0  0  0  0  0  0  0  0
   -2.7666    1.0637   -1.0191 H   0  0  0  0  0  0  0  0  0  0  0  0
   -1.7415    2.1862   -0.0696 H   0  0  0  0  0  0  0  0  0  0  0  0
   -1.1565    1.6946   -1.6812 H   0  0  0  0  0  0  0  0  0  0  0  0
   -0.9362   -0.7946   -2.0651 H   0  0  0  0  0  0  0  0  0  0  0  0
   -1.3574   -1.8199   -0.6540 H   0  0  0  0  0  0  0  0  0  0  0  0
    0.7911   -2.2214   -0.0956 H   0  0  0  0  0  0  0  0  0  0  0  0
    1.2243   -1.4983   -1.7016 H   0  0  0  0  0  0  0  0  0  0  0  0
    3.0611    1.1842   -0.2918 H   0  0  0  0  0  0  0  0  0  0  0  0
    3.1802   -0.4605   -1.1324 H   0  0  0  0  0  0  0  0  0  0  0  0
    3.3804   -0.3337    0.6261 H   0  0  0  0  0  0  0  0  0  0  0  0
    0.5405    1.8824    0.2837 H   0  0  0  0  0  0  0  0  0  0  0  0
  1  2  1  0
  2  3  1  0
  2  4  1  0
  4  5  1  0
  5  6  1  0
  6  7  1  0
  6  8  1  0
  8  9  1  0
  9  2  1  0
  9  6  1  0
  1 10  1  0
  1 11  1  0
  1 12  1  0
  3 13  1  0
  3 14  1  0
  3 15  1  0
  4 16  1  0
  4 17  1  0
  5 18  1  0
  5 19  1  0
  7 20  1  0
  7 21  1  0
  7 22  1  0
  9 23  1  0
M  END
