
     RDKit          3D

 23 24  0  0  0  0  0  0  0  0999 V2000
   -2.1297    0.5040    0.9220 C   0  0  0  0  0  0  0  0  0  0  0  0
   -1.0330   -0.0849    0.0683 C   0  0  0  0  0  0  0  0  0  0  0  0
   -1.7188   -1.0311   -0.9239 C   0  0  0  0  0  0  0  0  0  0  0  0
   -0.2497    0.9573   -0.6549 C   0  0  0  0  0  0  0  0  0  0  0  0
    1.1214    0.8790   -0.0718 C   0  0  0  0  0  0  0  0  0  0  0  0
    2.1037   -0.0123   -0.7616 C   0  0  0  0  0  0  0  0  0  0  0  0
    2.2585   -0.7846    0.5221 C   0  0  0  0  0  0  0  0  0  0  0  0
    0.9856   -0.1326    1.0218 C   0  0  0  0  0  0  0  0  0  0  0  0
   -0.1687   -0.8462    0.8141 O   0  0  0  0  0  0  0  0  0  0  0  0
   -2.9044   -0.2868    1.1033 H   0  0  0  0  0  0  0  0  0  0  0  0
   -2.5644    1.3989    0.4373 H   0  0  0  0  0  0  0  0  0  0  0  0
   -1.7500    0.7770    1.9315 H   0  0  0  0  0  0  0  0  0  0  0  0
   -2.3146   -0.4569   -1.6563 H   0  0  0  0  0  0  0  0  0  0  0  0
   -2.4174   -1.6488   -0.3052 H   0  0  0  0  0  0  0  0  0  0  0  0
   -0.9427   -1.6727   -1.4146 H   0  0  0  0  0  0  0  0  0  0  0  0
   -0.6778    1.9582   -0.3820 H   0  0  0  0  0  0  0  0  0  0  0  0
   -0.2585    0.7949   -1.7460 H   0  0  0  0  0  0  0  0  0  0  0  0
    1.5863    1.8227    0.2594 H   0  0  0  0  0  0  0  0  0  0  0  0
    1.7021   -0.6418   -1.5858 H   0  0  0  0  0  0  0  0  0  0  0  0
    3.0151    0.5308   -1.1079 H   0  0  0  0  0  0  0  0  0  0  0  0
    2.1910   -1.8805    0.4115 H   0  0  0  0  0  0  0  0  0  0  0  0
    3.1470   -0.4121    1.0749 H   0  0  0  0  0  0  0  0  0  0  0  0
    1.0191    0.2684    2.0438 H   0  0  0  0  0  0  0  0  0  0  0  0
  1  2  1  0
  2  3  1  0
  2  4  1  0
  4  5  1  0
  5  6  1  0
  6  7  1  0
  7  8  1  0
  8  9  1  0
  9  2  1  0
  8  5  1  0
  1 10  1  0
  1 11  1  0
  1 12  1  0
  3 13  1  0
  3 14  1  0
  3 15  1  0
  4 16  1  0
  4 17  1  0
  5 18  1  0
  6 19  1  0
  6 20  1  0
  7 21  1  0
  7 22  1  0
  8 23  1  0
M  END
