
     RDKit          3D

 23 24  0  0  0  0  0  0  0  0999 V2000
   -1.2229    1.2359   -0.1977 C   0  0  0  0  0  0  0  0  0  0  0  0
   -0.7758   -0.0936    0.3148 C   0  0  0  0  0  0  0  0  0  0  0  0
    0.6522   -0.4696    0.0886 C   0  0  0  0  0  0  0  0  0  0  0  0
    1.7003    0.4042    0.6699 C   0  0  0  0  0  0  0  0  0  0  0  0
    2.2883    0.6404   -0.7144 C   0  0  0  0  0  0  0  0  0  0  0  0
    1.1192   -0.1273   -1.3106 C   0  0  0  0  0  0  0  0  0  0  0  0
   -1.6760   -1.2057   -0.2413 C   0  0  0  0  0  0  0  0  0  0  0  0
   -2.5694   -0.8782    0.7834 O   0  0  0  0  0  0  0  0  0  0  0  0
   -1.4243   -0.5810    1.5608 C   0  0  0  0  0  0  0  0  0  0  0  0
   -0.5070    2.0482   -0.0007 H   0  0  0  0  0  0  0  0  0  0  0  0
   -1.4893    1.1238   -1.2695 H   0  0  0  0  0  0  0  0  0  0  0  0
   -2.1999    1.4793    0.3154 H   0  0  0  0  0  0  0  0  0  0  0  0
    0.8140   -1.5404    0.2928 H   0  0  0  0  0  0  0  0  0  0  0  0
    1.3991    1.3120    1.1921 H   0  0  0  0  0  0  0  0  0  0  0  0
    2.4402   -0.1558    1.2980 H   0  0  0  0  0  0  0  0  0  0  0  0
    3.2468    0.1298   -0.9053 H   0  0  0  0  0  0  0  0  0  0  0  0
    2.2546    1.6791   -1.0622 H   0  0  0  0  0  0  0  0  0  0  0  0
    0.4036    0.4682   -1.8844 H   0  0  0  0  0  0  0  0  0  0  0  0
    1.4419   -1.0046   -1.9067 H   0  0  0  0  0  0  0  0  0  0  0  0
   -1.2653   -2.2092   -0.0565 H   0  0  0  0  0  0  0  0  0  0  0  0
   -1.9797   -0.9444   -1.2482 H   0  0  0  0  0  0  0  0  0  0  0  0
   -1.7081    0.1719    2.3184 H   0  0  0  0  0  0  0  0  0  0  0  0
   -0.9428   -1.4828    1.9632 H   0  0  0  0  0  0  0  0  0  0  0  0
  1  2  1  0
  2  3  1  0
  3  4  1  0
  4  5  1  0
  5  6  1  0
  2  7  1  0
  7  8  1  0
  8  9  1  0
  9  2  1  0
  6  3  1  0
  1 10  1  0
  1 11  1  0
  1 12  1  0
  3 13  1  0
  4 14  1  0
  4 15  1  0
  5 16  1  0
  5 17  1  0
  6 18  1  0
  6 19  1  0
  7 20  1  0
  7 21  1  0
  9 22  1  0
  9 23  1  0
M  END
