
     RDKit          3D

 21 22  0  0  0  0  0  0  0  0999 V2000
   -1.6229   -1.0412   -0.7334 C   0  0  0  0  0  0  0  0  0  0  0  0
   -0.7647    0.0445   -0.0877 C   0  0  0  0  0  0  0  0  0  0  0  0
   -1.6537    1.1971    0.4069 C   0  0  0  0  0  0  0  0  0  0  0  0
    0.3150   -0.4353    0.6857 C   0  0  0  0  0  0  0  0  0  0  0  0
    1.5955   -1.1094    0.4030 C   0  0  0  0  0  0  0  0  0  0  0  0
    2.4773   -0.0151    0.2261 O   0  0  0  0  0  0  0  0  0  0  0  0
    1.6761    1.0978   -0.1105 C   0  0  0  0  0  0  0  0  0  0  0  0
    0.4651    0.4338   -0.6356 C   0  0  0  0  0  0  0  0  0  0  0  0
    0.8248   -0.3122   -1.7933 O   0  0  0  0  0  0  0  0  0  0  0  0
   -1.9918   -1.6492    0.1451 H   0  0  0  0  0  0  0  0  0  0  0  0
   -1.0310   -1.7344   -1.3429 H   0  0  0  0  0  0  0  0  0  0  0  0
   -2.5167   -0.6366   -1.2173 H   0  0  0  0  0  0  0  0  0  0  0  0
   -1.6036    2.0538   -0.3059 H   0  0  0  0  0  0  0  0  0  0  0  0
   -1.1536    1.5663    1.3440 H   0  0  0  0  0  0  0  0  0  0  0  0
   -2.6711    0.8774    0.6128 H   0  0  0  0  0  0  0  0  0  0  0  0
    0.4372    0.1392    1.6578 H   0  0  0  0  0  0  0  0  0  0  0  0
    1.5138   -1.7039   -0.5378 H   0  0  0  0  0  0  0  0  0  0  0  0
    1.9389   -1.7748    1.2032 H   0  0  0  0  0  0  0  0  0  0  0  0
    2.1959    1.7731   -0.8075 H   0  0  0  0  0  0  0  0  0  0  0  0
    1.4901    1.6233    0.8510 H   0  0  0  0  0  0  0  0  0  0  0  0
    0.0795   -0.3940   -2.4091 H   0  0  0  0  0  0  0  0  0  0  0  0
  1  2  1  0
  2  3  1  0
  2  4  1  0
  4  5  1  0
  5  6  1  0
  6  7  1  0
  7  8  1  0
  8  9  1  0
  8  2  1  0
  8  4  1  0
  1 10  1  0
  1 11  1  0
  1 12  1  0
  3 13  1  0
  3 14  1  0
  3 15  1  0
  4 16  1  0
  5 17  1  0
  5 18  1  0
  7 19  1  0
  7 20  1  0
  9 21  1  0
M  END
