
     RDKit          3D

 19 20  0  0  0  0  0  0  0  0999 V2000
    1.9057    0.4880    0.4760 C   0  0  0  0  0  0  0  0  0  0  0  0
    0.8616   -0.4045   -0.1036 C   0  0  0  0  0  0  0  0  0  0  0  0
    1.3051   -1.6501   -0.4688 O   0  0  0  0  0  0  0  0  0  0  0  0
    0.1375    0.2321   -1.2908 C   0  0  0  0  0  0  0  0  0  0  0  0
   -1.0316   -0.5455   -1.3175 O   0  0  0  0  0  0  0  0  0  0  0  0
   -1.4994   -0.5787   -0.0235 C   0  0  0  0  0  0  0  0  0  0  0  0
   -1.9485    0.7688    0.5232 C   0  0  0  0  0  0  0  0  0  0  0  0
   -0.7062    0.8342    1.1740 O   0  0  0  0  0  0  0  0  0  0  0  0
   -0.3017   -0.4526    0.8799 C   0  0  0  0  0  0  0  0  0  0  0  0
    2.2627    1.2822   -0.1857 H   0  0  0  0  0  0  0  0  0  0  0  0
    2.8185   -0.1162    0.7570 H   0  0  0  0  0  0  0  0  0  0  0  0
    1.5875    0.9495    1.4563 H   0  0  0  0  0  0  0  0  0  0  0  0
    1.2600   -1.7822   -1.4527 H   0  0  0  0  0  0  0  0  0  0  0  0
    0.7402    0.0808   -2.1885 H   0  0  0  0  0  0  0  0  0  0  0  0
   -0.1450    1.2749   -1.0948 H   0  0  0  0  0  0  0  0  0  0  0  0
   -2.1634   -1.4022    0.2293 H   0  0  0  0  0  0  0  0  0  0  0  0
   -2.0810    1.4670   -0.3121 H   0  0  0  0  0  0  0  0  0  0  0  0
   -2.7919    0.7153    1.2465 H   0  0  0  0  0  0  0  0  0  0  0  0
   -0.2099   -1.1606    1.6956 H   0  0  0  0  0  0  0  0  0  0  0  0
  1  2  1  0
  2  3  1  0
  2  4  1  0
  4  5  1  0
  5  6  1  0
  6  7  1  0
  7  8  1  0
  8  9  1  0
  9  2  1  0
  9  6  1  0
  1 10  1  0
  1 11  1  0
  1 12  1  0
  3 13  1  0
  4 14  1  0
  4 15  1  0
  6 16  1  0
  7 17  1  0
  7 18  1  0
  9 19  1  0
M  END
