
     RDKit          3D

 21 21  0  0  0  0  0  0  0  0999 V2000
   -1.7116   -1.1126    0.0453 C   0  0  0  0  0  0  0  0  0  0  0  0
   -0.6629   -0.0392   -0.0054 C   0  0  0  0  0  0  0  0  0  0  0  0
   -1.3162    1.2418   -0.4795 C   0  0  0  0  0  0  0  0  0  0  0  0
   -0.0663    0.1070    1.3731 C   0  0  0  0  0  0  0  0  0  0  0  0
    1.3002    0.6461    1.0345 C   0  0  0  0  0  0  0  0  0  0  0  0
    1.8771    1.5612    1.5581 O   0  0  0  0  0  0  0  0  0  0  0  0
    1.7547   -0.2242   -0.0960 C   0  0  0  0  0  0  0  0  0  0  0  0
    2.7953    0.3348   -0.8030 O   0  0  0  0  0  0  0  0  0  0  0  0
    0.4852   -0.3559   -0.9110 C   0  0  0  0  0  0  0  0  0  0  0  0
   -1.7028   -1.6867    0.9931 H   0  0  0  0  0  0  0  0  0  0  0  0
   -2.7487   -0.6880   -0.0548 H   0  0  0  0  0  0  0  0  0  0  0  0
   -1.5607   -1.7646   -0.8490 H   0  0  0  0  0  0  0  0  0  0  0  0
   -0.8550    2.1422    0.0189 H   0  0  0  0  0  0  0  0  0  0  0  0
   -1.1517    1.2983   -1.5755 H   0  0  0  0  0  0  0  0  0  0  0  0
   -2.4018    1.2524   -0.2824 H   0  0  0  0  0  0  0  0  0  0  0  0
   -0.6229    0.7589    2.0391 H   0  0  0  0  0  0  0  0  0  0  0  0
    0.1033   -0.9157    1.7628 H   0  0  0  0  0  0  0  0  0  0  0  0
    2.0486   -1.2080    0.3285 H   0  0  0  0  0  0  0  0  0  0  0  0
    3.4666   -0.3562   -1.0737 H   0  0  0  0  0  0  0  0  0  0  0  0
    0.5715    0.3964   -1.7386 H   0  0  0  0  0  0  0  0  0  0  0  0
    0.3981   -1.3882   -1.2844 H   0  0  0  0  0  0  0  0  0  0  0  0
  1  2  1  0
  2  3  1  0
  2  4  1  0
  4  5  1  0
  5  6  2  0
  5  7  1  0
  7  8  1  0
  7  9  1  0
  9  2  1  0
  1 10  1  0
  1 11  1  0
  1 12  1  0
  3 13  1  0
  3 14  1  0
  3 15  1  0
  4 16  1  0
  4 17  1  0
  7 18  1  0
  8 19  1  0
  9 20  1  0
  9 21  1  0
M  END
