
     RDKit          3D

 16 16  0  0  0  0  0  0  0  0999 V2000
   -0.1038    1.3953    0.6456 C   0  0  0  0  0  0  0  0  0  0  0  0
    0.1781    0.0620   -0.0204 C   0  0  0  0  0  0  0  0  0  0  0  0
    1.6732   -0.1084   -0.3283 C   0  0  0  0  0  0  0  0  0  0  0  0
   -0.4600   -1.1815    0.4755 C   0  0  0  0  0  0  0  0  0  0  0  0
   -0.8229   -0.5678   -0.8986 C   0  0  0  0  0  0  0  0  0  0  0  0
   -2.0597    0.0580   -0.9618 O   0  0  0  0  0  0  0  0  0  0  0  0
    0.2885    2.1753   -0.0679 H   0  0  0  0  0  0  0  0  0  0  0  0
   -1.1656    1.5480    0.8785 H   0  0  0  0  0  0  0  0  0  0  0  0
    0.5496    1.4243    1.5555 H   0  0  0  0  0  0  0  0  0  0  0  0
    2.1137   -0.5661    0.5942 H   0  0  0  0  0  0  0  0  0  0  0  0
    2.1591    0.8738   -0.5033 H   0  0  0  0  0  0  0  0  0  0  0  0
    1.7599   -0.7666   -1.2014 H   0  0  0  0  0  0  0  0  0  0  0  0
    0.0959   -2.1500    0.4355 H   0  0  0  0  0  0  0  0  0  0  0  0
   -1.1795   -1.0521    1.2954 H   0  0  0  0  0  0  0  0  0  0  0  0
   -0.4869   -1.1365   -1.7988 H   0  0  0  0  0  0  0  0  0  0  0  0
   -2.5395   -0.0076   -0.0997 H   0  0  0  0  0  0  0  0  0  0  0  0
  1  2  1  0
  2  3  1  0
  2  4  1  0
  4  5  1  0
  5  6  1  0
  5  2  1  0
  1  7  1  0
  1  8  1  0
  1  9  1  0
  3 10  1  0
  3 11  1  0
  3 12  1  0
  4 13  1  0
  4 14  1  0
  5 15  1  0
  6 16  1  0
M  END
