
     RDKit          3D

 19 20  0  0  0  0  0  0  0  0999 V2000
    2.1693   -0.2927   -0.2584 C   0  0  0  0  0  0  0  0  0  0  0  0
    0.7388    0.1384   -0.2372 C   0  0  0  0  0  0  0  0  0  0  0  0
    0.4733    1.4117   -0.6888 O   0  0  0  0  0  0  0  0  0  0  0  0
   -0.1769   -0.9527   -0.6593 C   0  0  0  0  0  0  0  0  0  0  0  0
   -1.5953   -0.4531   -0.4769 C   0  0  0  0  0  0  0  0  0  0  0  0
   -1.3473    0.3293    0.8297 C   0  0  0  0  0  0  0  0  0  0  0  0
   -1.3702    1.6733    0.4635 O   0  0  0  0  0  0  0  0  0  0  0  0
    0.0516   -0.1751    1.0684 C   0  0  0  0  0  0  0  0  0  0  0  0
    0.0440   -1.5182    0.6210 O   0  0  0  0  0  0  0  0  0  0  0  0
    2.2760   -1.1109   -1.0155 H   0  0  0  0  0  0  0  0  0  0  0  0
    2.4687   -0.7591    0.7110 H   0  0  0  0  0  0  0  0  0  0  0  0
    2.8800    0.5119   -0.5082 H   0  0  0  0  0  0  0  0  0  0  0  0
    1.1191    2.0218   -0.2322 H   0  0  0  0  0  0  0  0  0  0  0  0
    0.0467   -1.5650   -1.5047 H   0  0  0  0  0  0  0  0  0  0  0  0
   -1.9519    0.1806   -1.2757 H   0  0  0  0  0  0  0  0  0  0  0  0
   -2.2123   -1.3051   -0.2025 H   0  0  0  0  0  0  0  0  0  0  0  0
   -2.0626    0.0632    1.6036 H   0  0  0  0  0  0  0  0  0  0  0  0
   -2.0942    1.7646   -0.2221 H   0  0  0  0  0  0  0  0  0  0  0  0
    0.5431    0.0370    1.9842 H   0  0  0  0  0  0  0  0  0  0  0  0
  1  2  1  0
  2  3  1  0
  2  4  1  0
  4  5  1  0
  5  6  1  0
  6  7  1  0
  6  8  1  0
  8  9  1  0
  8  2  1  0
  9  4  1  0
  1 10  1  0
  1 11  1  0
  1 12  1  0
  3 13  1  0
  4 14  1  0
  5 15  1  0
  5 16  1  0
  6 17  1  0
  7 18  1  0
  8 19  1  0
M  END
