
     RDKit          3D

 18 19  0  0  0  0  0  0  0  0999 V2000
   -1.9729    0.7898   -1.0726 C   0  0  0  0  0  0  0  0  0  0  0  0
   -0.9850   -0.1206   -0.3983 C   0  0  0  0  0  0  0  0  0  0  0  0
    0.4261    0.3802   -0.3748 C   0  0  0  0  0  0  0  0  0  0  0  0
    1.3785   -0.5615    0.3086 C   0  0  0  0  0  0  0  0  0  0  0  0
    2.8132   -0.0643    0.3387 C   0  0  0  0  0  0  0  0  0  0  0  0
    2.0190   -0.1898    1.4748 O   0  0  0  0  0  0  0  0  0  0  0  0
   -1.5467   -0.8197    0.8343 C   0  0  0  0  0  0  0  0  0  0  0  0
   -1.2009   -1.4732   -0.3229 O   0  0  0  0  0  0  0  0  0  0  0  0
   -2.5640    0.2841   -1.8553 H   0  0  0  0  0  0  0  0  0  0  0  0
   -2.6919    1.1683   -0.3228 H   0  0  0  0  0  0  0  0  0  0  0  0
   -1.4799    1.6666   -1.5515 H   0  0  0  0  0  0  0  0  0  0  0  0
    0.7768    0.4734   -1.4351 H   0  0  0  0  0  0  0  0  0  0  0  0
    0.5154    1.3649    0.1662 H   0  0  0  0  0  0  0  0  0  0  0  0
    1.3093   -1.6551    0.0471 H   0  0  0  0  0  0  0  0  0  0  0  0
    3.0128    0.9957    0.0269 H   0  0  0  0  0  0  0  0  0  0  0  0
    3.6375   -0.7889    0.2851 H   0  0  0  0  0  0  0  0  0  0  0  0
   -0.8364   -0.7828    1.6993 H   0  0  0  0  0  0  0  0  0  0  0  0
   -2.6108   -0.6671    1.0956 H   0  0  0  0  0  0  0  0  0  0  0  0
  1  2  1  0
  2  3  1  0
  3  4  1  0
  4  5  1  0
  5  6  1  0
  2  7  1  0
  7  8  1  0
  8  2  1  0
  6  4  1  0
  1  9  1  0
  1 10  1  0
  1 11  1  0
  3 12  1  0
  3 13  1  0
  4 14  1  0
  5 15  1  0
  5 16  1  0
  7 17  1  0
  7 18  1  0
M  END
