
     RDKit          3D

 21 21  0  0  0  0  0  0  0  0999 V2000
    0.7098    1.4711   -0.2610 C   0  0  0  0  0  0  0  0  0  0  0  0
    0.5726    0.0081    0.0467 C   0  0  0  0  0  0  0  0  0  0  0  0
    1.7257   -0.5421    0.8986 C   0  0  0  0  0  0  0  0  0  0  0  0
    2.8890   -0.3381    0.1633 O   0  0  0  0  0  0  0  0  0  0  0  0
    0.1462   -0.8376   -1.1123 C   0  0  0  0  0  0  0  0  0  0  0  0
   -0.7450   -0.6359    0.0989 C   0  0  0  0  0  0  0  0  0  0  0  0
   -0.9332   -1.8008    0.8490 O   0  0  0  0  0  0  0  0  0  0  0  0
   -2.0262    0.1454   -0.0813 C   0  0  0  0  0  0  0  0  0  0  0  0
   -2.5563    0.5392    1.1429 O   0  0  0  0  0  0  0  0  0  0  0  0
    1.5375    1.9510    0.3414 H   0  0  0  0  0  0  0  0  0  0  0  0
    1.0742    1.5562   -1.3263 H   0  0  0  0  0  0  0  0  0  0  0  0
   -0.2097    2.0577   -0.1904 H   0  0  0  0  0  0  0  0  0  0  0  0
    1.5640   -1.6013    1.1595 H   0  0  0  0  0  0  0  0  0  0  0  0
    1.8167    0.1162    1.8046 H   0  0  0  0  0  0  0  0  0  0  0  0
    2.7544    0.4871   -0.3626 H   0  0  0  0  0  0  0  0  0  0  0  0
   -0.2437   -0.3660   -2.0413 H   0  0  0  0  0  0  0  0  0  0  0  0
    0.6822   -1.7835   -1.2330 H   0  0  0  0  0  0  0  0  0  0  0  0
   -1.4137   -2.4506    0.2625 H   0  0  0  0  0  0  0  0  0  0  0  0
   -2.7956   -0.5127   -0.5438 H   0  0  0  0  0  0  0  0  0  0  0  0
   -1.8541    1.0165   -0.7376 H   0  0  0  0  0  0  0  0  0  0  0  0
   -2.6946    1.5201    1.1223 H   0  0  0  0  0  0  0  0  0  0  0  0
  1  2  1  0
  2  3  1  0
  3  4  1  0
  2  5  1  0
  5  6  1  0
  6  7  1  0
  6  8  1  0
  8  9  1  0
  6  2  1  0
  1 10  1  0
  1 11  1  0
  1 12  1  0
  3 13  1  0
  3 14  1  0
  4 15  1  0
  5 16  1  0
  5 17  1  0
  7 18  1  0
  8 19  1  0
  8 20  1  0
  9 21  1  0
M  END
