
     RDKit          3D

 16 17  0  0  0  0  0  0  0  0999 V2000
   -1.2271   -0.6102    0.7033 C   0  0  0  0  0  0  0  0  0  0  0  0
   -0.5942    0.1588   -0.4021 C   0  0  0  0  0  0  0  0  0  0  0  0
   -1.4910    0.6892   -1.2932 O   0  0  0  0  0  0  0  0  0  0  0  0
    0.4748    1.1294   -0.0134 C   0  0  0  0  0  0  0  0  0  0  0  0
    1.4413    0.3197    0.8211 C   0  0  0  0  0  0  0  0  0  0  0  0
    1.5184   -0.7905    0.0737 C   0  0  0  0  0  0  0  0  0  0  0  0
    0.6106   -0.4402   -1.0562 C   0  0  0  0  0  0  0  0  0  0  0  0
    1.0256    0.8941   -1.2939 O   0  0  0  0  0  0  0  0  0  0  0  0
   -0.5038   -1.1184    1.3558 H   0  0  0  0  0  0  0  0  0  0  0  0
   -1.8263    0.0899    1.3230 H   0  0  0  0  0  0  0  0  0  0  0  0
   -1.9429   -1.3344    0.2426 H   0  0  0  0  0  0  0  0  0  0  0  0
   -2.2575    1.1181   -0.8111 H   0  0  0  0  0  0  0  0  0  0  0  0
    0.2588    2.1151    0.2761 H   0  0  0  0  0  0  0  0  0  0  0  0
    1.9220    0.5792    1.7516 H   0  0  0  0  0  0  0  0  0  0  0  0
    2.0680   -1.7103    0.2055 H   0  0  0  0  0  0  0  0  0  0  0  0
    0.5233   -1.0894   -1.8829 H   0  0  0  0  0  0  0  0  0  0  0  0
  1  2  1  0
  2  3  1  0
  2  4  1  0
  4  5  1  0
  5  6  2  0
  6  7  1  0
  7  8  1  0
  7  2  1  0
  8  4  1  0
  1  9  1  0
  1 10  1  0
  1 11  1  0
  3 12  1  0
  4 13  1  0
  5 14  1  0
  6 15  1  0
  7 16  1  0
M  END
