
     RDKit          3D

 21 22  0  0  0  0  0  0  0  0999 V2000
   -0.7412    1.7632   -0.2543 C   0  0  0  0  0  0  0  0  0  0  0  0
   -0.6836    0.2596    0.0175 C   0  0  0  0  0  0  0  0  0  0  0  0
   -1.0796   -0.0835    1.4047 C   0  0  0  0  0  0  0  0  0  0  0  0
   -1.5855   -0.3678   -0.8584 O   0  0  0  0  0  0  0  0  0  0  0  0
   -0.8674   -1.4600   -1.3380 C   0  0  0  0  0  0  0  0  0  0  0  0
    0.3692   -0.8413   -1.6389 O   0  0  0  0  0  0  0  0  0  0  0  0
    0.6434   -0.2301   -0.4195 C   0  0  0  0  0  0  0  0  0  0  0  0
    1.6352   -0.8638    0.4308 C   0  0  0  0  0  0  0  0  0  0  0  0
    1.8407    0.5496   -0.1596 C   0  0  0  0  0  0  0  0  0  0  0  0
   -0.1865    2.3154    0.5264 H   0  0  0  0  0  0  0  0  0  0  0  0
   -1.7806    2.0781   -0.3758 H   0  0  0  0  0  0  0  0  0  0  0  0
   -0.1631    1.9180   -1.2023 H   0  0  0  0  0  0  0  0  0  0  0  0
   -1.5230   -1.1020    1.4688 H   0  0  0  0  0  0  0  0  0  0  0  0
   -1.9237    0.6107    1.6935 H   0  0  0  0  0  0  0  0  0  0  0  0
   -0.2979    0.0906    2.1689 H   0  0  0  0  0  0  0  0  0  0  0  0
   -1.3146   -1.9375   -2.2066 H   0  0  0  0  0  0  0  0  0  0  0  0
   -0.6518   -2.1565   -0.4911 H   0  0  0  0  0  0  0  0  0  0  0  0
    1.5801   -0.9638    1.5192 H   0  0  0  0  0  0  0  0  0  0  0  0
    2.3080   -1.6279   -0.0559 H   0  0  0  0  0  0  0  0  0  0  0  0
    2.6733    0.6972   -0.8585 H   0  0  0  0  0  0  0  0  0  0  0  0
    1.7487    1.3519    0.6292 H   0  0  0  0  0  0  0  0  0  0  0  0
  1  2  1  0
  2  3  1  0
  2  4  1  0
  4  5  1  0
  5  6  1  0
  6  7  1  0
  7  8  1  0
  8  9  1  0
  7  2  1  0
  9  7  1  0
  1 10  1  0
  1 11  1  0
  1 12  1  0
  3 13  1  0
  3 14  1  0
  3 15  1  0
  5 16  1  0
  5 17  1  0
  8 18  1  0
  8 19  1  0
  9 20  1  0
  9 21  1  0
M  END
