
     RDKit          3D

 21 21  0  0  0  0  0  0  0  0999 V2000
    0.7989    1.4456   -1.0488 C   0  0  0  0  0  0  0  0  0  0  0  0
   -0.0605    0.5497   -0.1597 C   0  0  0  0  0  0  0  0  0  0  0  0
   -1.4631    0.4049   -0.6394 C   0  0  0  0  0  0  0  0  0  0  0  0
   -2.3690   -0.4511    0.1524 C   0  0  0  0  0  0  0  0  0  0  0  0
   -2.0138   -1.7643    0.2511 O   0  0  0  0  0  0  0  0  0  0  0  0
    0.1493    0.8274    1.2145 O   0  0  0  0  0  0  0  0  0  0  0  0
    0.5286   -0.4239    0.7247 C   0  0  0  0  0  0  0  0  0  0  0  0
    2.0013   -0.7466    0.6401 C   0  0  0  0  0  0  0  0  0  0  0  0
    2.7392    0.0801   -0.1558 O   0  0  0  0  0  0  0  0  0  0  0  0
    1.4836    2.0060   -0.4093 H   0  0  0  0  0  0  0  0  0  0  0  0
    0.1337    2.1828   -1.5465 H   0  0  0  0  0  0  0  0  0  0  0  0
    1.3412    0.8970   -1.8205 H   0  0  0  0  0  0  0  0  0  0  0  0
   -1.9081    1.4216   -0.8219 H   0  0  0  0  0  0  0  0  0  0  0  0
   -1.3865   -0.0466   -1.6737 H   0  0  0  0  0  0  0  0  0  0  0  0
   -3.3930   -0.4055   -0.2934 H   0  0  0  0  0  0  0  0  0  0  0  0
   -2.4046   -0.0183    1.1962 H   0  0  0  0  0  0  0  0  0  0  0  0
   -2.3034   -2.2297    1.0630 H   0  0  0  0  0  0  0  0  0  0  0  0
   -0.0575   -1.2267    1.1782 H   0  0  0  0  0  0  0  0  0  0  0  0
    2.4183   -0.6987    1.6814 H   0  0  0  0  0  0  0  0  0  0  0  0
    2.0791   -1.8230    0.3412 H   0  0  0  0  0  0  0  0  0  0  0  0
    3.6864    0.0193    0.1261 H   0  0  0  0  0  0  0  0  0  0  0  0
  1  2  1  0
  2  3  1  0
  3  4  1  0
  4  5  1  0
  2  6  1  0
  6  7  1  0
  7  8  1  0
  8  9  1  0
  7  2  1  0
  1 10  1  0
  1 11  1  0
  1 12  1  0
  3 13  1  0
  3 14  1  0
  4 15  1  0
  4 16  1  0
  5 17  1  0
  7 18  1  0
  8 19  1  0
  8 20  1  0
  9 21  1  0
M  END
