
     RDKit          3D

 21 21  0  0  0  0  0  0  0  0999 V2000
   -1.5553   -0.3750    1.0162 C   0  0  0  0  0  0  0  0  0  0  0  0
   -1.0419    0.2240   -0.2765 C   0  0  0  0  0  0  0  0  0  0  0  0
   -2.1625    0.6072   -1.0129 O   0  0  0  0  0  0  0  0  0  0  0  0
   -0.3031   -0.8273   -1.0344 C   0  0  0  0  0  0  0  0  0  0  0  0
    0.8570   -1.3321   -0.6950 C   0  0  0  0  0  0  0  0  0  0  0  0
    1.7399   -1.0469    0.4569 C   0  0  0  0  0  0  0  0  0  0  0  0
    1.3530    0.0729    1.1575 O   0  0  0  0  0  0  0  0  0  0  0  0
    1.1766    1.1951    0.4011 C   0  0  0  0  0  0  0  0  0  0  0  0
   -0.2177    1.4595   -0.0450 C   0  0  0  0  0  0  0  0  0  0  0  0
   -0.7627   -0.7915    1.6456 H   0  0  0  0  0  0  0  0  0  0  0  0
   -2.2095   -1.2372    0.7225 H   0  0  0  0  0  0  0  0  0  0  0  0
   -2.2044    0.3497    1.5114 H   0  0  0  0  0  0  0  0  0  0  0  0
   -1.9935    0.4546   -1.9788 H   0  0  0  0  0  0  0  0  0  0  0  0
   -0.7969   -1.1833   -1.9406 H   0  0  0  0  0  0  0  0  0  0  0  0
    1.2386   -2.0837   -1.3648 H   0  0  0  0  0  0  0  0  0  0  0  0
    1.6513   -1.9226    1.1541 H   0  0  0  0  0  0  0  0  0  0  0  0
    2.7761   -0.9794    0.0617 H   0  0  0  0  0  0  0  0  0  0  0  0
    1.9157    1.2300   -0.4528 H   0  0  0  0  0  0  0  0  0  0  0  0
    1.4816    2.0757    1.0425 H   0  0  0  0  0  0  0  0  0  0  0  0
   -0.7791    2.1040    0.6553 H   0  0  0  0  0  0  0  0  0  0  0  0
   -0.1629    2.0061   -1.0240 H   0  0  0  0  0  0  0  0  0  0  0  0
  1  2  1  0
  2  3  1  0
  2  4  1  0
  4  5  2  0
  5  6  1  0
  6  7  1  0
  7  8  1  0
  8  9  1  0
  9  2  1  0
  1 10  1  0
  1 11  1  0
  1 12  1  0
  3 13  1  0
  4 14  1  0
  5 15  1  0
  6 16  1  0
  6 17  1  0
  8 18  1  0
  8 19  1  0
  9 20  1  0
  9 21  1  0
M  END
