
     RDKit          3D

 16 16  0  0  0  0  0  0  0  0999 V2000
    0.0579    1.2684   -0.7995 C   0  0  0  0  0  0  0  0  0  0  0  0
   -0.0720    0.0903    0.1586 C   0  0  0  0  0  0  0  0  0  0  0  0
    0.7867    0.1180    1.2588 O   0  0  0  0  0  0  0  0  0  0  0  0
    2.1556    0.1283    1.0401 C   0  0  0  0  0  0  0  0  0  0  0  0
    2.5947    0.1125   -0.1381 O   0  0  0  0  0  0  0  0  0  0  0  0
   -0.2053   -1.2838   -0.4879 C   0  0  0  0  0  0  0  0  0  0  0  0
   -1.3664   -0.6224    0.1787 C   0  0  0  0  0  0  0  0  0  0  0  0
   -2.3473   -0.1613   -0.7060 O   0  0  0  0  0  0  0  0  0  0  0  0
   -0.8670    1.3306   -1.4112 H   0  0  0  0  0  0  0  0  0  0  0  0
    0.2254    2.1788   -0.1946 H   0  0  0  0  0  0  0  0  0  0  0  0
    0.9068    1.0261   -1.4723 H   0  0  0  0  0  0  0  0  0  0  0  0
    2.8833    0.1500    1.8650 H   0  0  0  0  0  0  0  0  0  0  0  0
    0.2663   -2.1540    0.0289 H   0  0  0  0  0  0  0  0  0  0  0  0
   -0.1143   -1.2952   -1.5920 H   0  0  0  0  0  0  0  0  0  0  0  0
   -1.7674   -1.0926    1.1091 H   0  0  0  0  0  0  0  0  0  0  0  0
   -3.1368    0.2064   -0.2412 H   0  0  0  0  0  0  0  0  0  0  0  0
  1  2  1  0
  2  3  1  0
  3  4  1  0
  4  5  2  0
  2  6  1  0
  6  7  1  0
  7  8  1  0
  7  2  1  0
  1  9  1  0
  1 10  1  0
  1 11  1  0
  4 12  1  0
  6 13  1  0
  6 14  1  0
  7 15  1  0
  8 16  1  0
M  END
