
     RDKit          3D

 19 20  0  0  0  0  0  0  0  0999 V2000
    0.1810    1.9299   -0.0493 C   0  0  0  0  0  0  0  0  0  0  0  0
    0.0349    0.4235    0.1891 C   0  0  0  0  0  0  0  0  0  0  0  0
   -1.1786    0.1877    1.0306 C   0  0  0  0  0  0  0  0  0  0  0  0
   -2.1618   -0.8198    0.4960 C   0  0  0  0  0  0  0  0  0  0  0  0
   -2.4254    0.5461    0.5830 O   0  0  0  0  0  0  0  0  0  0  0  0
    1.2088    0.0055    0.7831 O   0  0  0  0  0  0  0  0  0  0  0  0
    1.9791   -0.5118   -0.2613 C   0  0  0  0  0  0  0  0  0  0  0  0
    0.8696   -1.2736   -1.0028 C   0  0  0  0  0  0  0  0  0  0  0  0
   -0.1064   -0.2630   -1.0055 O   0  0  0  0  0  0  0  0  0  0  0  0
    0.0572    2.0876   -1.1272 H   0  0  0  0  0  0  0  0  0  0  0  0
    1.1367    2.3240    0.3500 H   0  0  0  0  0  0  0  0  0  0  0  0
   -0.6286    2.4828    0.4951 H   0  0  0  0  0  0  0  0  0  0  0  0
   -0.9947    0.1241    2.1402 H   0  0  0  0  0  0  0  0  0  0  0  0
   -2.0189   -1.2047   -0.5534 H   0  0  0  0  0  0  0  0  0  0  0  0
   -2.6676   -1.5203    1.1608 H   0  0  0  0  0  0  0  0  0  0  0  0
    2.7786   -1.1696    0.0679 H   0  0  0  0  0  0  0  0  0  0  0  0
    2.2987    0.3147   -0.9288 H   0  0  0  0  0  0  0  0  0  0  0  0
    0.4618   -2.0871   -0.3697 H   0  0  0  0  0  0  0  0  0  0  0  0
    1.1756   -1.5760   -1.9978 H   0  0  0  0  0  0  0  0  0  0  0  0
  1  2  1  0
  2  3  1  0
  3  4  1  0
  4  5  1  0
  2  6  1  0
  6  7  1  0
  7  8  1  0
  8  9  1  0
  9  2  1  0
  5  3  1  0
  1 10  1  0
  1 11  1  0
  1 12  1  0
  3 13  1  0
  4 14  1  0
  4 15  1  0
  7 16  1  0
  7 17  1  0
  8 18  1  0
  8 19  1  0
M  END
