
     RDKit          3D

 21 22  0  0  0  0  0  0  0  0999 V2000
   -0.5646   -1.9783   -0.4440 C   0  0  0  0  0  0  0  0  0  0  0  0
   -0.9943   -0.6697    0.0999 C   0  0  0  0  0  0  0  0  0  0  0  0
   -2.4605   -0.4227    0.2383 C   0  0  0  0  0  0  0  0  0  0  0  0
   -0.3171   -0.4055    1.3353 O   0  0  0  0  0  0  0  0  0  0  0  0
    0.7937   -0.1862    0.5364 C   0  0  0  0  0  0  0  0  0  0  0  0
    1.7123    0.9455    0.9266 C   0  0  0  0  0  0  0  0  0  0  0  0
    1.8124    1.6892   -0.4249 C   0  0  0  0  0  0  0  0  0  0  0  0
    0.4225    1.4755   -0.9765 C   0  0  0  0  0  0  0  0  0  0  0  0
   -0.1825    0.4534   -0.4270 C   0  0  0  0  0  0  0  0  0  0  0  0
   -0.0417   -2.6172    0.3050 H   0  0  0  0  0  0  0  0  0  0  0  0
   -1.4950   -2.5518   -0.7264 H   0  0  0  0  0  0  0  0  0  0  0  0
    0.0988   -1.8545   -1.3352 H   0  0  0  0  0  0  0  0  0  0  0  0
   -2.6918    0.6755    0.2173 H   0  0  0  0  0  0  0  0  0  0  0  0
   -2.7837   -0.8681    1.2166 H   0  0  0  0  0  0  0  0  0  0  0  0
   -3.0166   -0.8693   -0.6025 H   0  0  0  0  0  0  0  0  0  0  0  0
    1.2925   -1.0657    0.1212 H   0  0  0  0  0  0  0  0  0  0  0  0
    2.6865    0.5941    1.2725 H   0  0  0  0  0  0  0  0  0  0  0  0
    1.2076    1.5691    1.6876 H   0  0  0  0  0  0  0  0  0  0  0  0
    2.5714    1.2107   -1.0358 H   0  0  0  0  0  0  0  0  0  0  0  0
    1.9649    2.7724   -0.2433 H   0  0  0  0  0  0  0  0  0  0  0  0
   -0.0147    2.1035   -1.7409 H   0  0  0  0  0  0  0  0  0  0  0  0
  1  2  1  0
  2  3  1  0
  2  4  1  0
  4  5  1  0
  5  6  1  0
  6  7  1  0
  7  8  1  0
  8  9  2  0
  9  2  1  0
  9  5  1  0
  1 10  1  0
  1 11  1  0
  1 12  1  0
  3 13  1  0
  3 14  1  0
  3 15  1  0
  5 16  1  0
  6 17  1  0
  6 18  1  0
  7 19  1  0
  7 20  1  0
  8 21  1  0
M  END
