
     RDKit          3D

 21 22  0  0  0  0  0  0  0  0999 V2000
   -1.2931   -1.1246    0.6926 C   0  0  0  0  0  0  0  0  0  0  0  0
   -0.5810    0.0434    0.0661 C   0  0  0  0  0  0  0  0  0  0  0  0
   -1.4549    1.1576   -0.3616 C   0  0  0  0  0  0  0  0  0  0  0  0
    0.7032    0.4093    0.7740 C   0  0  0  0  0  0  0  0  0  0  0  0
    1.3054   -0.9437    0.9784 C   0  0  0  0  0  0  0  0  0  0  0  0
    1.0804   -1.5329   -0.2247 C   0  0  0  0  0  0  0  0  0  0  0  0
    0.4120   -0.4622   -0.9921 C   0  0  0  0  0  0  0  0  0  0  0  0
    1.2474    0.7429   -0.5994 C   0  0  0  0  0  0  0  0  0  0  0  0
    0.8894    1.9361   -1.1353 O   0  0  0  0  0  0  0  0  0  0  0  0
   -1.9796   -1.6144   -0.0508 H   0  0  0  0  0  0  0  0  0  0  0  0
   -1.8529   -0.8054    1.5954 H   0  0  0  0  0  0  0  0  0  0  0  0
   -0.5885   -1.9050    1.0086 H   0  0  0  0  0  0  0  0  0  0  0  0
   -1.6165    1.0783   -1.4720 H   0  0  0  0  0  0  0  0  0  0  0  0
   -2.4793    0.9752    0.0786 H   0  0  0  0  0  0  0  0  0  0  0  0
   -1.1646    2.1568   -0.0415 H   0  0  0  0  0  0  0  0  0  0  0  0
    0.7139    1.1189    1.5411 H   0  0  0  0  0  0  0  0  0  0  0  0
    1.7932   -1.3493    1.8546 H   0  0  0  0  0  0  0  0  0  0  0  0
    1.3357   -2.5395   -0.5262 H   0  0  0  0  0  0  0  0  0  0  0  0
    0.0865   -0.5914   -1.9753 H   0  0  0  0  0  0  0  0  0  0  0  0
    2.3410    0.5362   -0.6114 H   0  0  0  0  0  0  0  0  0  0  0  0
    1.1022    2.7137   -0.5991 H   0  0  0  0  0  0  0  0  0  0  0  0
  1  2  1  0
  2  3  1  0
  2  4  1  0
  4  5  1  0
  5  6  2  0
  6  7  1  0
  7  8  1  0
  8  9  1  0
  7  2  1  0
  8  4  1  0
  1 10  1  0
  1 11  1  0
  1 12  1  0
  3 13  1  0
  3 14  1  0
  3 15  1  0
  4 16  1  0
  5 17  1  0
  6 18  1  0
  7 19  1  0
  8 20  1  0
  9 21  1  0
M  END
