
     RDKit          2D

 21 23  0  0  0  0  0  0  0  0999 V2000
    2.3660   -2.5981    0.0000 C   0  0  0  0  0  0  0  0  0  0  0  0
    1.6160   -1.2990    0.0000 C   0  0  0  0  0  0  0  0  0  0  0  0
    2.9151   -0.5490    0.0000 C   0  0  0  0  0  0  0  0  0  0  0  0
    0.8660    0.0000    0.0000 C   0  0  0  0  0  0  0  0  0  0  0  0
   -0.4330    0.7500    0.0000 C   0  0  0  0  0  0  0  0  0  0  0  0
   -0.9821   -1.2990    0.0000 C   0  0  0  0  0  0  0  0  0  0  0  0
    0.3170   -2.0490    0.0000 C   0  0  0  0  0  0  0  0  0  0  0  0
   -0.0712   -3.4979    0.0000 O   0  0  0  0  0  0  0  0  0  0  0  0
   -0.4330   -0.7500    0.0000 C   0  0  0  0  0  0  0  0  0  0  0  0
    3.1160   -3.8971    0.0000 H   0  0  0  0  0  0  0  0  0  0  0  0
    3.1814   -2.2520    0.0000 H   0  0  0  0  0  0  0  0  0  0  0  0
    1.0670   -3.3481    0.0000 H   0  0  0  0  0  0  0  0  0  0  0  0
    4.2141    0.2010    0.0000 H   0  0  0  0  0  0  0  0  0  0  0  0
    2.4404    0.5694    0.0000 H   0  0  0  0  0  0  0  0  0  0  0  0
    3.4481   -1.2564    0.0000 H   0  0  0  0  0  0  0  0  0  0  0  0
    1.6140    0.9575    0.0000 H   0  0  0  0  0  0  0  0  0  0  0  0
   -1.1830    2.0490    0.0000 H   0  0  0  0  0  0  0  0  0  0  0  0
   -1.7321   -2.5981    0.0000 H   0  0  0  0  0  0  0  0  0  0  0  0
   -2.1005   -0.8243    0.0000 H   0  0  0  0  0  0  0  0  0  0  0  0
    0.9894   -4.5586    0.0000 H   0  0  0  0  0  0  0  0  0  0  0  0
   -1.2224   -0.8609    0.0000 H   0  0  0  0  0  0  0  0  0  0  0  0
  1  2  1  0
  2  3  1  0
  2  4  1  0
  4  5  1  0
  5  6  1  0
  6  7  1  0
  7  8  1  0
  7  9  1  0
  7  2  1  0
  9  4  1  0
  9  5  1  0
  1 10  1  0
  1 11  1  0
  1 12  1  0
  3 13  1  0
  3 14  1  0
  3 15  1  0
  4 16  1  0
  5 17  1  0
  6 18  1  0
  6 19  1  0
  8 20  1  0
  9 21  1  0
M  END
