
     RDKit          3D

 20 21  0  0  0  0  0  0  0  0999 V2000
    1.7827    0.1561   -1.0314 C   0  0  0  0  0  0  0  0  0  0  0  0
    0.8164   -0.1409    0.0647 C   0  0  0  0  0  0  0  0  0  0  0  0
    1.3058    0.3877    1.2803 O   0  0  0  0  0  0  0  0  0  0  0  0
    0.4337   -1.5735    0.2715 C   0  0  0  0  0  0  0  0  0  0  0  0
   -1.0150   -1.0979    0.4305 C   0  0  0  0  0  0  0  0  0  0  0  0
   -1.6113   -0.5519   -0.7976 C   0  0  0  0  0  0  0  0  0  0  0  0
   -0.5932    0.2913   -0.1449 C   0  0  0  0  0  0  0  0  0  0  0  0
   -1.0592    1.5047    0.5973 C   0  0  0  0  0  0  0  0  0  0  0  0
    1.3513    0.1429   -2.0364 H   0  0  0  0  0  0  0  0  0  0  0  0
    2.6718   -0.4844   -0.9505 H   0  0  0  0  0  0  0  0  0  0  0  0
    2.1527    1.2078   -0.8673 H   0  0  0  0  0  0  0  0  0  0  0  0
    1.6068    1.3131    1.1813 H   0  0  0  0  0  0  0  0  0  0  0  0
    0.4798   -2.2375   -0.6067 H   0  0  0  0  0  0  0  0  0  0  0  0
    0.7473   -2.0439    1.2146 H   0  0  0  0  0  0  0  0  0  0  0  0
   -1.4526   -1.0311    1.4207 H   0  0  0  0  0  0  0  0  0  0  0  0
   -1.3560   -1.0869   -1.7435 H   0  0  0  0  0  0  0  0  0  0  0  0
   -2.6445   -0.1961   -0.7562 H   0  0  0  0  0  0  0  0  0  0  0  0
   -1.8024    2.1164    0.0162 H   0  0  0  0  0  0  0  0  0  0  0  0
   -0.2369    2.1647    0.9386 H   0  0  0  0  0  0  0  0  0  0  0  0
   -1.5770    1.1594    1.5187 H   0  0  0  0  0  0  0  0  0  0  0  0
  1  2  1  0
  2  3  1  0
  2  4  1  0
  4  5  1  0
  5  6  1  0
  6  7  1  0
  7  8  1  0
  7  2  1  0
  7  5  1  0
  1  9  1  0
  1 10  1  0
  1 11  1  0
  3 12  1  0
  4 13  1  0
  4 14  1  0
  5 15  1  0
  6 16  1  0
  6 17  1  0
  8 18  1  0
  8 19  1  0
  8 20  1  0
M  END
