
     RDKit          3D

 17 17  0  0  0  0  0  0  0  0999 V2000
   -1.1764   -0.7055   -1.1553 C   0  0  0  0  0  0  0  0  0  0  0  0
   -1.0733    0.3353   -0.0892 C   0  0  0  0  0  0  0  0  0  0  0  0
   -0.1513    0.0565    1.0883 C   0  0  0  0  0  0  0  0  0  0  0  0
    1.2291   -0.1347    0.6171 C   0  0  0  0  0  0  0  0  0  0  0  0
    2.3574   -0.3019    0.2124 C   0  0  0  0  0  0  0  0  0  0  0  0
    3.7129   -0.4947   -0.2637 C   0  0  0  0  0  0  0  0  0  0  0  0
    4.6858   -0.5490    0.5319 O   0  0  0  0  0  0  0  0  0  0  0  0
   -2.2850    1.1338    0.2654 C   0  0  0  0  0  0  0  0  0  0  0  0
   -1.2143    1.6894   -0.4345 O   0  0  0  0  0  0  0  0  0  0  0  0
   -0.2044   -0.9027   -1.6521 H   0  0  0  0  0  0  0  0  0  0  0  0
   -1.5859   -1.6399   -0.6723 H   0  0  0  0  0  0  0  0  0  0  0  0
   -1.9349   -0.3646   -1.8902 H   0  0  0  0  0  0  0  0  0  0  0  0
   -0.1626    0.8829    1.8087 H   0  0  0  0  0  0  0  0  0  0  0  0
   -0.5429   -0.8549    1.5881 H   0  0  0  0  0  0  0  0  0  0  0  0
    3.9163   -0.5963   -1.3176 H   0  0  0  0  0  0  0  0  0  0  0  0
   -3.1879    0.8865   -0.2993 H   0  0  0  0  0  0  0  0  0  0  0  0
   -2.3827    1.5598    1.2913 H   0  0  0  0  0  0  0  0  0  0  0  0
  1  2  1  0
  2  3  1  0
  3  4  1  0
  4  5  3  0
  5  6  1  0
  6  7  2  0
  2  8  1  0
  8  9  1  0
  9  2  1  0
  1 10  1  0
  1 11  1  0
  1 12  1  0
  3 13  1  0
  3 14  1  0
  6 15  1  0
  8 16  1  0
  8 17  1  0
M  END
