
     RDKit          3D

 19 19  0  0  0  0  0  0  0  0999 V2000
   -2.2817   -1.6472    0.3707 C   0  0  0  0  0  0  0  0  0  0  0  0
   -1.5280   -0.3898    0.0113 C   0  0  0  0  0  0  0  0  0  0  0  0
   -1.4079    0.5650    1.0204 O   0  0  0  0  0  0  0  0  0  0  0  0
   -1.3667    0.0517   -1.3750 C   0  0  0  0  0  0  0  0  0  0  0  0
   -0.2161   -0.6438   -0.7632 C   0  0  0  0  0  0  0  0  0  0  0  0
    0.9405    0.1767   -0.3984 C   0  0  0  0  0  0  0  0  0  0  0  0
    1.8855    0.8715   -0.1000 C   0  0  0  0  0  0  0  0  0  0  0  0
    3.0451    1.6984    0.2471 C   0  0  0  0  0  0  0  0  0  0  0  0
    3.9103    0.9990    1.1151 O   0  0  0  0  0  0  0  0  0  0  0  0
   -1.8895   -1.9880    1.3726 H   0  0  0  0  0  0  0  0  0  0  0  0
   -3.3447   -1.4089    0.3887 H   0  0  0  0  0  0  0  0  0  0  0  0
   -2.0597   -2.4795   -0.3282 H   0  0  0  0  0  0  0  0  0  0  0  0
   -2.1492    0.5004    1.6653 H   0  0  0  0  0  0  0  0  0  0  0  0
   -1.9337   -0.5089   -2.1595 H   0  0  0  0  0  0  0  0  0  0  0  0
   -1.3104    1.1389   -1.6096 H   0  0  0  0  0  0  0  0  0  0  0  0
   -0.0171   -1.6889   -1.0779 H   0  0  0  0  0  0  0  0  0  0  0  0
    2.6925    2.5829    0.8113 H   0  0  0  0  0  0  0  0  0  0  0  0
    3.6346    1.9448   -0.6383 H   0  0  0  0  0  0  0  0  0  0  0  0
    3.3964    0.2258    1.4477 H   0  0  0  0  0  0  0  0  0  0  0  0
  1  2  1  0
  2  3  1  0
  2  4  1  0
  4  5  1  0
  5  6  1  0
  6  7  3  0
  7  8  1  0
  8  9  1  0
  5  2  1  0
  1 10  1  0
  1 11  1  0
  1 12  1  0
  3 13  1  0
  4 14  1  0
  4 15  1  0
  5 16  1  0
  8 17  1  0
  8 18  1  0
  9 19  1  0
M  END
