
     RDKit          3D

 21 22  0  0  0  0  0  0  0  0999 V2000
    1.4689    0.8998    0.8474 C   0  0  0  0  0  0  0  0  0  0  0  0
    0.7275    0.2812   -0.2632 C   0  0  0  0  0  0  0  0  0  0  0  0
    1.5518    0.2852   -1.4011 O   0  0  0  0  0  0  0  0  0  0  0  0
    0.3868   -1.2001   -0.0165 C   0  0  0  0  0  0  0  0  0  0  0  0
    0.8111   -2.0123   -1.0250 O   0  0  0  0  0  0  0  0  0  0  0  0
   -1.1531   -1.2145    0.1165 C   0  0  0  0  0  0  0  0  0  0  0  0
   -1.3131    0.1500    0.6717 C   0  0  0  0  0  0  0  0  0  0  0  0
   -1.6464    1.4060    0.1553 C   0  0  0  0  0  0  0  0  0  0  0  0
   -0.6049    0.8189   -0.5794 C   0  0  0  0  0  0  0  0  0  0  0  0
    2.2063    1.6318    0.4254 H   0  0  0  0  0  0  0  0  0  0  0  0
    2.1116    0.1205    1.3483 H   0  0  0  0  0  0  0  0  0  0  0  0
    0.8688    1.4748    1.5742 H   0  0  0  0  0  0  0  0  0  0  0  0
    2.1992   -0.4730   -1.2399 H   0  0  0  0  0  0  0  0  0  0  0  0
    0.7781   -1.5210    0.9503 H   0  0  0  0  0  0  0  0  0  0  0  0
    0.3624   -1.8178   -1.8834 H   0  0  0  0  0  0  0  0  0  0  0  0
   -1.5677   -1.2689   -0.9220 H   0  0  0  0  0  0  0  0  0  0  0  0
   -1.4802   -2.0264    0.7645 H   0  0  0  0  0  0  0  0  0  0  0  0
   -0.7051    0.1804    1.6329 H   0  0  0  0  0  0  0  0  0  0  0  0
   -2.6639    1.5436   -0.3080 H   0  0  0  0  0  0  0  0  0  0  0  0
   -1.4142    2.3420    0.7399 H   0  0  0  0  0  0  0  0  0  0  0  0
   -0.9238    0.3997   -1.5881 H   0  0  0  0  0  0  0  0  0  0  0  0
  1  2  1  0
  2  3  1  0
  2  4  1  0
  4  5  1  0
  4  6  1  0
  6  7  1  0
  7  8  1  0
  8  9  1  0
  9  2  1  0
  9  7  1  0
  1 10  1  0
  1 11  1  0
  1 12  1  0
  3 13  1  0
  4 14  1  0
  5 15  1  0
  6 16  1  0
  6 17  1  0
  7 18  1  0
  8 19  1  0
  8 20  1  0
  9 21  1  0
M  END
