
     RDKit          3D

 19 20  0  0  0  0  0  0  0  0999 V2000
   -0.9514    1.6750   -0.5003 C   0  0  0  0  0  0  0  0  0  0  0  0
   -0.8331    0.3789    0.2553 C   0  0  0  0  0  0  0  0  0  0  0  0
   -1.3709    0.3754    1.5320 O   0  0  0  0  0  0  0  0  0  0  0  0
   -1.4089   -0.7201   -0.6039 C   0  0  0  0  0  0  0  0  0  0  0  0
   -2.5123   -0.9562   -1.0417 O   0  0  0  0  0  0  0  0  0  0  0  0
   -0.0928   -1.3512   -0.6716 C   0  0  0  0  0  0  0  0  0  0  0  0
    0.5450   -1.7443    0.6154 C   0  0  0  0  0  0  0  0  0  0  0  0
    0.4789   -0.3144    0.1948 C   0  0  0  0  0  0  0  0  0  0  0  0
    1.7541    0.3863   -0.0710 C   0  0  0  0  0  0  0  0  0  0  0  0
   -0.4063    1.5342   -1.4653 H   0  0  0  0  0  0  0  0  0  0  0  0
   -0.5626    2.4889    0.1134 H   0  0  0  0  0  0  0  0  0  0  0  0
   -2.0335    1.9038   -0.6845 H   0  0  0  0  0  0  0  0  0  0  0  0
   -0.7228    0.6652    2.2190 H   0  0  0  0  0  0  0  0  0  0  0  0
    0.3580   -1.6798   -1.6183 H   0  0  0  0  0  0  0  0  0  0  0  0
    1.5180   -2.2703    0.5132 H   0  0  0  0  0  0  0  0  0  0  0  0
   -0.0735   -1.9840    1.5064 H   0  0  0  0  0  0  0  0  0  0  0  0
    2.4819   -0.3645   -0.4829 H   0  0  0  0  0  0  0  0  0  0  0  0
    2.1850    0.7125    0.9155 H   0  0  0  0  0  0  0  0  0  0  0  0
    1.6470    1.2645   -0.7253 H   0  0  0  0  0  0  0  0  0  0  0  0
  1  2  1  0
  2  3  1  0
  2  4  1  0
  4  5  2  0
  4  6  1  0
  6  7  1  0
  7  8  1  0
  8  9  1  0
  8  2  1  0
  8  6  1  0
  1 10  1  0
  1 11  1  0
  1 12  1  0
  3 13  1  0
  6 14  1  0
  7 15  1  0
  7 16  1  0
  9 17  1  0
  9 18  1  0
  9 19  1  0
M  END
