
     RDKit          3D

 19 20  0  0  0  0  0  0  0  0999 V2000
   -1.9199    1.0723   -0.3523 C   0  0  0  0  0  0  0  0  0  0  0  0
   -0.8796    0.0982    0.1358 C   0  0  0  0  0  0  0  0  0  0  0  0
    0.3509   -0.1710   -0.6451 C   0  0  0  0  0  0  0  0  0  0  0  0
    1.3056   -1.1759    0.0001 C   0  0  0  0  0  0  0  0  0  0  0  0
    1.6977    0.2932   -0.3442 C   0  0  0  0  0  0  0  0  0  0  0  0
    2.0838    1.1277    0.7851 C   0  0  0  0  0  0  0  0  0  0  0  0
    1.3849    1.1773    1.7745 O   0  0  0  0  0  0  0  0  0  0  0  0
   -1.4798   -1.1792    0.7429 C   0  0  0  0  0  0  0  0  0  0  0  0
   -0.8782   -0.1079    1.5070 O   0  0  0  0  0  0  0  0  0  0  0  0
   -2.8690    0.9091    0.1991 H   0  0  0  0  0  0  0  0  0  0  0  0
   -2.1608    0.9524   -1.4283 H   0  0  0  0  0  0  0  0  0  0  0  0
   -1.6092    2.1149   -0.1186 H   0  0  0  0  0  0  0  0  0  0  0  0
    0.1401   -0.4603   -1.7133 H   0  0  0  0  0  0  0  0  0  0  0  0
    1.7436   -1.9787   -0.5816 H   0  0  0  0  0  0  0  0  0  0  0  0
    1.1554   -1.3857    1.0775 H   0  0  0  0  0  0  0  0  0  0  0  0
    2.4184    0.3229   -1.2037 H   0  0  0  0  0  0  0  0  0  0  0  0
    2.9847    1.7149    0.7756 H   0  0  0  0  0  0  0  0  0  0  0  0
   -2.5594   -1.2150    0.9241 H   0  0  0  0  0  0  0  0  0  0  0  0
   -0.9092   -2.1093    0.7183 H   0  0  0  0  0  0  0  0  0  0  0  0
  1  2  1  0
  2  3  1  0
  3  4  1  0
  4  5  1  0
  5  6  1  0
  6  7  2  0
  2  8  1  0
  8  9  1  0
  9  2  1  0
  5  3  1  0
  1 10  1  0
  1 11  1  0
  1 12  1  0
  3 13  1  0
  4 14  1  0
  4 15  1  0
  5 16  1  0
  6 17  1  0
  8 18  1  0
  8 19  1  0
M  END
