
     RDKit          3D

 21 22  0  0  0  0  0  0  0  0999 V2000
   -1.8635    1.0280   -0.4691 C   0  0  0  0  0  0  0  0  0  0  0  0
   -0.7932    0.0764   -0.0156 C   0  0  0  0  0  0  0  0  0  0  0  0
   -1.4062   -1.1413    0.6002 C   0  0  0  0  0  0  0  0  0  0  0  0
    0.0365    0.7737    0.8616 O   0  0  0  0  0  0  0  0  0  0  0  0
    1.1129    1.2047    0.1062 C   0  0  0  0  0  0  0  0  0  0  0  0
    2.1481    0.0847    0.1586 C   0  0  0  0  0  0  0  0  0  0  0  0
    1.3596   -1.0032   -0.5731 C   0  0  0  0  0  0  0  0  0  0  0  0
    0.1877   -0.2441   -1.1159 C   0  0  0  0  0  0  0  0  0  0  0  0
    0.7235    1.0634   -1.2471 O   0  0  0  0  0  0  0  0  0  0  0  0
   -2.8448    0.5669   -0.3376 H   0  0  0  0  0  0  0  0  0  0  0  0
   -1.6561    1.2874   -1.5397 H   0  0  0  0  0  0  0  0  0  0  0  0
   -1.8346    2.0055    0.0757 H   0  0  0  0  0  0  0  0  0  0  0  0
   -2.2498   -0.7855    1.2484 H   0  0  0  0  0  0  0  0  0  0  0  0
   -1.8957   -1.7119   -0.2256 H   0  0  0  0  0  0  0  0  0  0  0  0
   -0.7263   -1.7547    1.1921 H   0  0  0  0  0  0  0  0  0  0  0  0
    1.5006    2.1741    0.3450 H   0  0  0  0  0  0  0  0  0  0  0  0
    3.0103    0.4245   -0.4458 H   0  0  0  0  0  0  0  0  0  0  0  0
    2.4031   -0.1945    1.1806 H   0  0  0  0  0  0  0  0  0  0  0  0
    1.0692   -1.7404    0.2231 H   0  0  0  0  0  0  0  0  0  0  0  0
    1.9626   -1.4940   -1.3438 H   0  0  0  0  0  0  0  0  0  0  0  0
   -0.2438   -0.6198   -2.0235 H   0  0  0  0  0  0  0  0  0  0  0  0
  1  2  1  0
  2  3  1  0
  2  4  1  0
  4  5  1  0
  5  6  1  0
  6  7  1  0
  7  8  1  0
  8  9  1  0
  8  2  1  0
  9  5  1  0
  1 10  1  0
  1 11  1  0
  1 12  1  0
  3 13  1  0
  3 14  1  0
  3 15  1  0
  5 16  1  0
  6 17  1  0
  6 18  1  0
  7 19  1  0
  7 20  1  0
  8 21  1  0
M  END
