
     RDKit          3D

 19 20  0  0  0  0  0  0  0  0999 V2000
    2.0032   -0.0774   -0.3391 C   0  0  0  0  0  0  0  0  0  0  0  0
    0.6104    0.0894    0.2030 C   0  0  0  0  0  0  0  0  0  0  0  0
    0.6976   -0.0042    1.5959 O   0  0  0  0  0  0  0  0  0  0  0  0
   -0.0306    1.3849   -0.2321 C   0  0  0  0  0  0  0  0  0  0  0  0
   -1.3863    0.8536   -0.7193 C   0  0  0  0  0  0  0  0  0  0  0  0
   -2.0729    0.3765    0.3653 O   0  0  0  0  0  0  0  0  0  0  0  0
   -1.5651   -0.8976    0.6619 C   0  0  0  0  0  0  0  0  0  0  0  0
   -0.3565   -0.9383   -0.2614 C   0  0  0  0  0  0  0  0  0  0  0  0
   -0.9352   -0.3103   -1.3902 O   0  0  0  0  0  0  0  0  0  0  0  0
    2.0725   -0.0838   -1.4253 H   0  0  0  0  0  0  0  0  0  0  0  0
    2.3807   -1.0537    0.0289 H   0  0  0  0  0  0  0  0  0  0  0  0
    2.6377    0.6982    0.1322 H   0  0  0  0  0  0  0  0  0  0  0  0
    1.0950   -0.9117    1.7691 H   0  0  0  0  0  0  0  0  0  0  0  0
   -0.1386    2.1101    0.5772 H   0  0  0  0  0  0  0  0  0  0  0  0
    0.4570    1.8055   -1.1500 H   0  0  0  0  0  0  0  0  0  0  0  0
   -1.9060    1.5420   -1.3634 H   0  0  0  0  0  0  0  0  0  0  0  0
   -1.2912   -1.0173    1.7145 H   0  0  0  0  0  0  0  0  0  0  0  0
   -2.2940   -1.6453    0.2921 H   0  0  0  0  0  0  0  0  0  0  0  0
    0.0224   -1.9207   -0.4594 H   0  0  0  0  0  0  0  0  0  0  0  0
  1  2  1  0
  2  3  1  0
  2  4  1  0
  4  5  1  0
  5  6  1  0
  6  7  1  0
  7  8  1  0
  8  9  1  0
  8  2  1  0
  9  5  1  0
  1 10  1  0
  1 11  1  0
  1 12  1  0
  3 13  1  0
  4 14  1  0
  4 15  1  0
  5 16  1  0
  7 17  1  0
  7 18  1  0
  8 19  1  0
M  END
