
     RDKit          3D

 23 24  0  0  0  0  0  0  0  0999 V2000
   -2.0954    0.4657   -0.5790 C   0  0  0  0  0  0  0  0  0  0  0  0
   -0.8598   -0.1816    0.0167 C   0  0  0  0  0  0  0  0  0  0  0  0
   -1.1433   -0.8145    1.3472 C   0  0  0  0  0  0  0  0  0  0  0  0
   -0.0028   -0.8816   -0.9937 C   0  0  0  0  0  0  0  0  0  0  0  0
    0.4654    0.3735   -0.3269 C   0  0  0  0  0  0  0  0  0  0  0  0
    0.3974    1.6760   -1.1442 C   0  0  0  0  0  0  0  0  0  0  0  0
    1.6593    0.2424    0.5473 C   0  0  0  0  0  0  0  0  0  0  0  0
    2.2332   -1.0549    0.9518 C   0  0  0  0  0  0  0  0  0  0  0  0
    1.5459   -0.2348    1.8475 O   0  0  0  0  0  0  0  0  0  0  0  0
   -2.0936    0.4432   -1.6877 H   0  0  0  0  0  0  0  0  0  0  0  0
   -2.0243    1.5551   -0.3084 H   0  0  0  0  0  0  0  0  0  0  0  0
   -3.0233    0.0169   -0.2222 H   0  0  0  0  0  0  0  0  0  0  0  0
   -2.1172   -1.3689    1.2744 H   0  0  0  0  0  0  0  0  0  0  0  0
   -1.3392    0.0056    2.0840 H   0  0  0  0  0  0  0  0  0  0  0  0
   -0.3992   -1.5217    1.6930 H   0  0  0  0  0  0  0  0  0  0  0  0
    0.4128   -1.8613   -0.7800 H   0  0  0  0  0  0  0  0  0  0  0  0
   -0.2407   -0.7556   -2.0917 H   0  0  0  0  0  0  0  0  0  0  0  0
    1.3667    1.8613   -1.6529 H   0  0  0  0  0  0  0  0  0  0  0  0
    0.1243    2.4779   -0.4256 H   0  0  0  0  0  0  0  0  0  0  0  0
   -0.4445    1.6302   -1.8737 H   0  0  0  0  0  0  0  0  0  0  0  0
    2.4173    1.0804    0.4900 H   0  0  0  0  0  0  0  0  0  0  0  0
    1.8177   -2.0302    0.6812 H   0  0  0  0  0  0  0  0  0  0  0  0
    3.3434   -1.1231    1.1529 H   0  0  0  0  0  0  0  0  0  0  0  0
  1  2  1  0
  2  3  1  0
  2  4  1  0
  4  5  1  0
  5  6  1  0
  5  7  1  0
  7  8  1  0
  8  9  1  0
  5  2  1  0
  9  7  1  0
  1 10  1  0
  1 11  1  0
  1 12  1  0
  3 13  1  0
  3 14  1  0
  3 15  1  0
  4 16  1  0
  4 17  1  0
  6 18  1  0
  6 19  1  0
  6 20  1  0
  7 21  1  0
  8 22  1  0
  8 23  1  0
M  END
