
     RDKit          3D

 23 23  0  0  0  0  0  0  0  0999 V2000
    1.5609    1.0350   -1.0315 C   0  0  0  0  0  0  0  0  0  0  0  0
    0.5829    0.1359   -0.2642 C   0  0  0  0  0  0  0  0  0  0  0  0
    1.4082   -1.0502    0.2135 C   0  0  0  0  0  0  0  0  0  0  0  0
    2.4406   -0.5556    1.0443 O   0  0  0  0  0  0  0  0  0  0  0  0
    0.0949    0.8181    0.9543 C   0  0  0  0  0  0  0  0  0  0  0  0
   -1.0827    0.5135    1.4507 C   0  0  0  0  0  0  0  0  0  0  0  0
   -1.9177   -0.5100    0.7884 C   0  0  0  0  0  0  0  0  0  0  0  0
   -1.9095   -0.0864   -0.6895 C   0  0  0  0  0  0  0  0  0  0  0  0
   -0.5015   -0.2394   -1.1888 C   0  0  0  0  0  0  0  0  0  0  0  0
    2.1073    1.6454   -0.3124 H   0  0  0  0  0  0  0  0  0  0  0  0
    2.2862    0.3672   -1.5402 H   0  0  0  0  0  0  0  0  0  0  0  0
    1.0184    1.6590   -1.7748 H   0  0  0  0  0  0  0  0  0  0  0  0
    0.8354   -1.7396    0.8641 H   0  0  0  0  0  0  0  0  0  0  0  0
    1.9026   -1.5708   -0.6313 H   0  0  0  0  0  0  0  0  0  0  0  0
    2.0869   -0.2888    1.9309 H   0  0  0  0  0  0  0  0  0  0  0  0
    0.7351    1.5950    1.4504 H   0  0  0  0  0  0  0  0  0  0  0  0
   -1.4434    1.0018    2.3332 H   0  0  0  0  0  0  0  0  0  0  0  0
   -1.5357   -1.5273    0.8190 H   0  0  0  0  0  0  0  0  0  0  0  0
   -2.9602   -0.5260    1.1741 H   0  0  0  0  0  0  0  0  0  0  0  0
   -2.5903   -0.7114   -1.2848 H   0  0  0  0  0  0  0  0  0  0  0  0
   -2.2490    0.9813   -0.6792 H   0  0  0  0  0  0  0  0  0  0  0  0
   -0.4662    0.3773   -2.1420 H   0  0  0  0  0  0  0  0  0  0  0  0
   -0.4033   -1.3240   -1.4844 H   0  0  0  0  0  0  0  0  0  0  0  0
  1  2  1  0
  2  3  1  0
  3  4  1  0
  2  5  1  0
  5  6  2  0
  6  7  1  0
  7  8  1  0
  8  9  1  0
  9  2  1  0
  1 10  1  0
  1 11  1  0
  1 12  1  0
  3 13  1  0
  3 14  1  0
  4 15  1  0
  5 16  1  0
  6 17  1  0
  7 18  1  0
  7 19  1  0
  8 20  1  0
  8 21  1  0
  9 22  1  0
  9 23  1  0
M  END
