
     RDKit          3D

 21 22  0  0  0  0  0  0  0  0999 V2000
   -1.3144    1.3281   -0.7013 C   0  0  0  0  0  0  0  0  0  0  0  0
   -0.8229    0.3338    0.2834 C   0  0  0  0  0  0  0  0  0  0  0  0
   -1.1304    0.7021    1.5803 O   0  0  0  0  0  0  0  0  0  0  0  0
   -1.0982   -1.1165   -0.0179 C   0  0  0  0  0  0  0  0  0  0  0  0
    0.0222   -1.4101    0.9490 C   0  0  0  0  0  0  0  0  0  0  0  0
    0.5227   -0.2377    0.1237 C   0  0  0  0  0  0  0  0  0  0  0  0
    1.7569    0.3464    0.2273 C   0  0  0  0  0  0  0  0  0  0  0  0
    1.9228    1.3910   -0.6984 O   0  0  0  0  0  0  0  0  0  0  0  0
   -0.0155   -1.0084   -1.0519 C   0  0  0  0  0  0  0  0  0  0  0  0
   -0.4684    2.0123   -0.9802 H   0  0  0  0  0  0  0  0  0  0  0  0
   -2.0907    1.9852   -0.2584 H   0  0  0  0  0  0  0  0  0  0  0  0
   -1.7277    0.9175   -1.6259 H   0  0  0  0  0  0  0  0  0  0  0  0
   -1.7611    0.1001    2.0304 H   0  0  0  0  0  0  0  0  0  0  0  0
   -1.9809   -1.5734   -0.0850 H   0  0  0  0  0  0  0  0  0  0  0  0
   -0.1658   -1.1969    2.0020 H   0  0  0  0  0  0  0  0  0  0  0  0
    0.6124   -2.3141    0.7057 H   0  0  0  0  0  0  0  0  0  0  0  0
    2.0022    0.7532    1.2049 H   0  0  0  0  0  0  0  0  0  0  0  0
    2.5926   -0.3733   -0.0208 H   0  0  0  0  0  0  0  0  0  0  0  0
    2.8398    1.7571   -0.5386 H   0  0  0  0  0  0  0  0  0  0  0  0
    0.5436   -1.9544   -1.1776 H   0  0  0  0  0  0  0  0  0  0  0  0
   -0.2391   -0.4419   -1.9509 H   0  0  0  0  0  0  0  0  0  0  0  0
  1  2  1  0
  2  3  1  0
  2  4  1  0
  4  5  1  0
  5  6  1  0
  6  7  1  0
  7  8  1  0
  6  9  1  0
  6  2  1  0
  9  4  1  0
  1 10  1  0
  1 11  1  0
  1 12  1  0
  3 13  1  0
  4 14  1  0
  5 15  1  0
  5 16  1  0
  7 17  1  0
  7 18  1  0
  8 19  1  0
  9 20  1  0
  9 21  1  0
M  END
