
     RDKit          3D

 19 19  0  0  0  0  0  0  0  0999 V2000
   -2.0484   -1.2614    0.4420 C   0  0  0  0  0  0  0  0  0  0  0  0
   -1.2748   -0.0572   -0.0543 C   0  0  0  0  0  0  0  0  0  0  0  0
    0.1845   -0.1980   -0.2433 C   0  0  0  0  0  0  0  0  0  0  0  0
    1.3784   -0.3134   -0.4192 C   0  0  0  0  0  0  0  0  0  0  0  0
    2.8191   -0.4683   -0.6232 C   0  0  0  0  0  0  0  0  0  0  0  0
    3.5032    0.0638    0.5589 C   0  0  0  0  0  0  0  0  0  0  0  0
    2.8894    0.5368    1.5066 O   0  0  0  0  0  0  0  0  0  0  0  0
   -1.9182    0.8782   -1.0248 C   0  0  0  0  0  0  0  0  0  0  0  0
   -1.7217    1.2544    0.4259 C   0  0  0  0  0  0  0  0  0  0  0  0
   -2.4670   -0.9835    1.4353 H   0  0  0  0  0  0  0  0  0  0  0  0
   -2.8695   -1.4378   -0.2753 H   0  0  0  0  0  0  0  0  0  0  0  0
   -1.4026   -2.1542    0.5663 H   0  0  0  0  0  0  0  0  0  0  0  0
    3.1656    0.1116   -1.5193 H   0  0  0  0  0  0  0  0  0  0  0  0
    3.1049   -1.5242   -0.8421 H   0  0  0  0  0  0  0  0  0  0  0  0
    4.5940    0.0242    0.5668 H   0  0  0  0  0  0  0  0  0  0  0  0
   -1.2965    1.4439   -1.7228 H   0  0  0  0  0  0  0  0  0  0  0  0
   -2.9325    0.6515   -1.4043 H   0  0  0  0  0  0  0  0  0  0  0  0
   -2.6943    1.3653    0.9689 H   0  0  0  0  0  0  0  0  0  0  0  0
   -1.0137    2.0683    0.6843 H   0  0  0  0  0  0  0  0  0  0  0  0
  1  2  1  0
  2  3  1  0
  3  4  3  0
  4  5  1  0
  5  6  1  0
  6  7  2  0
  2  8  1  0
  8  9  1  0
  9  2  1  0
  1 10  1  0
  1 11  1  0
  1 12  1  0
  5 13  1  0
  5 14  1  0
  6 15  1  0
  8 16  1  0
  8 17  1  0
  9 18  1  0
  9 19  1  0
M  END
