
     RDKit          3D

 19 20  0  0  0  0  0  0  0  0999 V2000
    0.3705   -2.0660    0.5476 C   0  0  0  0  0  0  0  0  0  0  0  0
    0.3307   -0.5853    0.0206 C   0  0  0  0  0  0  0  0  0  0  0  0
   -1.0698   -0.1780   -0.1930 C   0  0  0  0  0  0  0  0  0  0  0  0
   -1.4777    1.1967   -0.6561 C   0  0  0  0  0  0  0  0  0  0  0  0
   -1.8203    0.7009    0.7419 C   0  0  0  0  0  0  0  0  0  0  0  0
    1.1509   -0.6766   -1.2445 O   0  0  0  0  0  0  0  0  0  0  0  0
    1.5578    0.0607    0.0082 C   0  0  0  0  0  0  0  0  0  0  0  0
    2.0120    1.3752   -0.4251 C   0  0  0  0  0  0  0  0  0  0  0  0
    3.1773    1.7192   -0.1720 O   0  0  0  0  0  0  0  0  0  0  0  0
    1.3901   -2.4465    0.5127 H   0  0  0  0  0  0  0  0  0  0  0  0
   -0.2549   -2.6111   -0.1886 H   0  0  0  0  0  0  0  0  0  0  0  0
   -0.1288   -2.1196    1.5227 H   0  0  0  0  0  0  0  0  0  0  0  0
   -1.7711   -0.9767   -0.6275 H   0  0  0  0  0  0  0  0  0  0  0  0
   -2.3885    1.2884   -1.3196 H   0  0  0  0  0  0  0  0  0  0  0  0
   -0.8031    2.0452   -0.6661 H   0  0  0  0  0  0  0  0  0  0  0  0
   -2.8883    0.5326    0.9807 H   0  0  0  0  0  0  0  0  0  0  0  0
   -1.2604    1.1201    1.6002 H   0  0  0  0  0  0  0  0  0  0  0  0
    2.4226   -0.5018    0.5175 H   0  0  0  0  0  0  0  0  0  0  0  0
    1.4510    2.1225   -0.9598 H   0  0  0  0  0  0  0  0  0  0  0  0
  1  2  1  0
  2  3  1  0
  3  4  1  0
  4  5  1  0
  2  6  1  0
  6  7  1  0
  7  8  1  0
  8  9  2  0
  7  2  1  0
  5  3  1  0
  1 10  1  0
  1 11  1  0
  1 12  1  0
  3 13  1  0
  4 14  1  0
  4 15  1  0
  5 16  1  0
  5 17  1  0
  7 18  1  0
  8 19  1  0
M  END
