
     RDKit          3D

 21 22  0  0  0  0  0  0  0  0999 V2000
   -1.3404   -1.3801   -0.7714 C   0  0  0  0  0  0  0  0  0  0  0  0
   -0.8283   -0.1368   -0.0496 C   0  0  0  0  0  0  0  0  0  0  0  0
    0.5194   -0.2766    0.5878 C   0  0  0  0  0  0  0  0  0  0  0  0
    1.7332   -0.6012   -0.1845 C   0  0  0  0  0  0  0  0  0  0  0  0
    2.7536   -1.3732    0.3742 O   0  0  0  0  0  0  0  0  0  0  0  0
    1.5669    0.7543    0.4711 C   0  0  0  0  0  0  0  0  0  0  0  0
    1.4883    1.8043   -0.4198 O   0  0  0  0  0  0  0  0  0  0  0  0
   -1.8371    0.6164    0.8277 C   0  0  0  0  0  0  0  0  0  0  0  0
   -1.3825    1.1505   -0.4777 C   0  0  0  0  0  0  0  0  0  0  0  0
   -0.7588   -1.5773   -1.6786 H   0  0  0  0  0  0  0  0  0  0  0  0
   -1.3433   -2.2701   -0.0920 H   0  0  0  0  0  0  0  0  0  0  0  0
   -2.3918   -1.1400   -1.0982 H   0  0  0  0  0  0  0  0  0  0  0  0
    0.4684   -0.7729    1.6018 H   0  0  0  0  0  0  0  0  0  0  0  0
    1.7093   -0.6621   -1.2924 H   0  0  0  0  0  0  0  0  0  0  0  0
    2.8526   -2.2466   -0.0539 H   0  0  0  0  0  0  0  0  0  0  0  0
    2.2039    0.9930    1.3664 H   0  0  0  0  0  0  0  0  0  0  0  0
    1.8519    2.6538   -0.0595 H   0  0  0  0  0  0  0  0  0  0  0  0
   -1.4699    1.1225    1.7338 H   0  0  0  0  0  0  0  0  0  0  0  0
   -2.8029    0.1150    0.9586 H   0  0  0  0  0  0  0  0  0  0  0  0
   -0.8302    2.0995   -0.4617 H   0  0  0  0  0  0  0  0  0  0  0  0
   -2.1623    1.1278   -1.2822 H   0  0  0  0  0  0  0  0  0  0  0  0
  1  2  1  0
  2  3  1  0
  3  4  1  0
  4  5  1  0
  4  6  1  0
  6  7  1  0
  2  8  1  0
  8  9  1  0
  9  2  1  0
  6  3  1  0
  1 10  1  0
  1 11  1  0
  1 12  1  0
  3 13  1  0
  4 14  1  0
  5 15  1  0
  6 16  1  0
  7 17  1  0
  8 18  1  0
  8 19  1  0
  9 20  1  0
  9 21  1  0
M  END
