
     RDKit          3D

 17 17  0  0  0  0  0  0  0  0999 V2000
   -1.6958   -0.6379    0.2510 C   0  0  0  0  0  0  0  0  0  0  0  0
   -0.5156   -0.1782   -0.5761 C   0  0  0  0  0  0  0  0  0  0  0  0
   -0.8035   -0.2098   -1.9222 O   0  0  0  0  0  0  0  0  0  0  0  0
   -0.2411    1.2372   -0.1776 C   0  0  0  0  0  0  0  0  0  0  0  0
   -0.8199    2.2250   -0.5390 O   0  0  0  0  0  0  0  0  0  0  0  0
    0.9144    1.1492    0.7711 C   0  0  0  0  0  0  0  0  0  0  0  0
    1.7509    0.0659    0.0890 C   0  0  0  0  0  0  0  0  0  0  0  0
    0.6931   -0.9461   -0.2146 C   0  0  0  0  0  0  0  0  0  0  0  0
    0.7717   -2.1500   -0.1822 O   0  0  0  0  0  0  0  0  0  0  0  0
   -2.5879   -0.0356   -0.0066 H   0  0  0  0  0  0  0  0  0  0  0  0
   -1.4254   -0.5892    1.3244 H   0  0  0  0  0  0  0  0  0  0  0  0
   -1.9245   -1.6999    0.0269 H   0  0  0  0  0  0  0  0  0  0  0  0
   -0.7538   -1.1519   -2.2232 H   0  0  0  0  0  0  0  0  0  0  0  0
    0.5328    0.7101    1.7000 H   0  0  0  0  0  0  0  0  0  0  0  0
    1.4516    2.0888    0.8869 H   0  0  0  0  0  0  0  0  0  0  0  0
    2.5362   -0.3080    0.7440 H   0  0  0  0  0  0  0  0  0  0  0  0
    2.1167    0.4306   -0.9008 H   0  0  0  0  0  0  0  0  0  0  0  0
  1  2  1  0
  2  3  1  0
  2  4  1  0
  4  5  2  0
  4  6  1  0
  6  7  1  0
  7  8  1  0
  8  9  2  0
  8  2  1  0
  1 10  1  0
  1 11  1  0
  1 12  1  0
  3 13  1  0
  6 14  1  0
  6 15  1  0
  7 16  1  0
  7 17  1  0
M  END
