
     RDKit          3D

 25 25  0  0  0  0  0  0  0  0999 V2000
   -0.5768    1.6514   -0.8900 C   0  0  0  0  0  0  0  0  0  0  0  0
   -0.4316    0.5118    0.0679 C   0  0  0  0  0  0  0  0  0  0  0  0
   -0.2478    1.1188    1.4608 C   0  0  0  0  0  0  0  0  0  0  0  0
   -1.7066   -0.3117   -0.0021 C   0  0  0  0  0  0  0  0  0  0  0  0
   -1.2287   -1.6988   -0.3456 C   0  0  0  0  0  0  0  0  0  0  0  0
    0.0349   -1.5723   -0.8694 O   0  0  0  0  0  0  0  0  0  0  0  0
    0.6293   -0.4580   -0.2497 C   0  0  0  0  0  0  0  0  0  0  0  0
    1.3540   -0.9891    0.9913 C   0  0  0  0  0  0  0  0  0  0  0  0
    1.6930    0.0377   -1.1865 C   0  0  0  0  0  0  0  0  0  0  0  0
   -1.6193    2.0622   -0.7436 H   0  0  0  0  0  0  0  0  0  0  0  0
   -0.5770    1.2366   -1.9148 H   0  0  0  0  0  0  0  0  0  0  0  0
    0.1954    2.4226   -0.7291 H   0  0  0  0  0  0  0  0  0  0  0  0
   -0.9700    1.9095    1.6635 H   0  0  0  0  0  0  0  0  0  0  0  0
   -0.2603    0.3670    2.2508 H   0  0  0  0  0  0  0  0  0  0  0  0
    0.7762    1.5695    1.4449 H   0  0  0  0  0  0  0  0  0  0  0  0
   -2.3640    0.0141   -0.8464 H   0  0  0  0  0  0  0  0  0  0  0  0
   -2.2800   -0.2648    0.9320 H   0  0  0  0  0  0  0  0  0  0  0  0
   -1.1925   -2.3552    0.5483 H   0  0  0  0  0  0  0  0  0  0  0  0
   -1.8617   -2.1850   -1.1352 H   0  0  0  0  0  0  0  0  0  0  0  0
    0.6524   -1.4030    1.7311 H   0  0  0  0  0  0  0  0  0  0  0  0
    2.0437   -1.8026    0.6506 H   0  0  0  0  0  0  0  0  0  0  0  0
    1.9329   -0.1566    1.4665 H   0  0  0  0  0  0  0  0  0  0  0  0
    2.2622   -0.8844   -1.5116 H   0  0  0  0  0  0  0  0  0  0  0  0
    2.4335    0.6966   -0.6713 H   0  0  0  0  0  0  0  0  0  0  0  0
    1.3086    0.4838   -2.1122 H   0  0  0  0  0  0  0  0  0  0  0  0
  1  2  1  0
  2  3  1  0
  2  4  1  0
  4  5  1  0
  5  6  1  0
  6  7  1  0
  7  8  1  0
  7  9  1  0
  7  2  1  0
  1 10  1  0
  1 11  1  0
  1 12  1  0
  3 13  1  0
  3 14  1  0
  3 15  1  0
  4 16  1  0
  4 17  1  0
  5 18  1  0
  5 19  1  0
  8 20  1  0
  8 21  1  0
  8 22  1  0
  9 23  1  0
  9 24  1  0
  9 25  1  0
M  END
