
     RDKit          3D

 21 22  0  0  0  0  0  0  0  0999 V2000
   -2.0235   -0.1399   -0.5400 C   0  0  0  0  0  0  0  0  0  0  0  0
   -0.7735    0.1436    0.2094 C   0  0  0  0  0  0  0  0  0  0  0  0
   -1.1013    1.0953    1.3396 C   0  0  0  0  0  0  0  0  0  0  0  0
   -0.3056   -1.0820    0.7512 O   0  0  0  0  0  0  0  0  0  0  0  0
    0.9213   -1.2228    0.1598 C   0  0  0  0  0  0  0  0  0  0  0  0
    0.7757   -0.7632   -1.2927 C   0  0  0  0  0  0  0  0  0  0  0  0
    0.3938    0.5472   -0.6014 C   0  0  0  0  0  0  0  0  0  0  0  0
    1.5517    0.1701    0.3365 C   0  0  0  0  0  0  0  0  0  0  0  0
    2.7900    0.1976   -0.2649 O   0  0  0  0  0  0  0  0  0  0  0  0
   -1.9112   -0.6547   -1.4918 H   0  0  0  0  0  0  0  0  0  0  0  0
   -2.6023    0.7985   -0.7516 H   0  0  0  0  0  0  0  0  0  0  0  0
   -2.6554   -0.8144    0.1103 H   0  0  0  0  0  0  0  0  0  0  0  0
   -1.7464    1.9127    0.9166 H   0  0  0  0  0  0  0  0  0  0  0  0
   -0.2328    1.5844    1.7768 H   0  0  0  0  0  0  0  0  0  0  0  0
   -1.7046    0.6101    2.1227 H   0  0  0  0  0  0  0  0  0  0  0  0
    1.5424   -2.0606    0.3534 H   0  0  0  0  0  0  0  0  0  0  0  0
    1.7749   -0.6419   -1.7361 H   0  0  0  0  0  0  0  0  0  0  0  0
    0.0035   -1.2439   -1.8689 H   0  0  0  0  0  0  0  0  0  0  0  0
    0.4557    1.4457   -1.1383 H   0  0  0  0  0  0  0  0  0  0  0  0
    1.4674    0.5428    1.3512 H   0  0  0  0  0  0  0  0  0  0  0  0
    3.3801   -0.4248    0.2583 H   0  0  0  0  0  0  0  0  0  0  0  0
  1  2  1  0
  2  3  1  0
  2  4  1  0
  4  5  1  0
  5  6  1  0
  6  7  1  0
  7  8  1  0
  8  9  1  0
  7  2  1  0
  8  5  1  0
  1 10  1  0
  1 11  1  0
  1 12  1  0
  3 13  1  0
  3 14  1  0
  3 15  1  0
  5 16  1  0
  6 17  1  0
  6 18  1  0
  7 19  1  0
  8 20  1  0
  9 21  1  0
M  END
