
     RDKit          3D

 21 22  0  0  0  0  0  0  0  0999 V2000
   -1.1313    0.3157   -1.3146 C   0  0  0  0  0  0  0  0  0  0  0  0
   -0.6511   -0.1384    0.0097 C   0  0  0  0  0  0  0  0  0  0  0  0
   -1.5610   -1.1538    0.6479 C   0  0  0  0  0  0  0  0  0  0  0  0
   -0.3690    1.0162    0.9674 C   0  0  0  0  0  0  0  0  0  0  0  0
    0.8219    1.4717    0.6369 C   0  0  0  0  0  0  0  0  0  0  0  0
    1.3206    0.7015   -0.4638 C   0  0  0  0  0  0  0  0  0  0  0  0
    1.8978   -0.5405   -0.7324 C   0  0  0  0  0  0  0  0  0  0  0  0
    0.7542   -0.6624    0.0553 C   0  0  0  0  0  0  0  0  0  0  0  0
    1.0314   -0.9529    1.4245 O   0  0  0  0  0  0  0  0  0  0  0  0
   -2.1922   -0.0577   -1.4324 H   0  0  0  0  0  0  0  0  0  0  0  0
   -0.5645   -0.1878   -2.1120 H   0  0  0  0  0  0  0  0  0  0  0  0
   -1.2121    1.4144   -1.4393 H   0  0  0  0  0  0  0  0  0  0  0  0
   -1.4811   -2.0864    0.0809 H   0  0  0  0  0  0  0  0  0  0  0  0
   -2.5740   -0.7330    0.6752 H   0  0  0  0  0  0  0  0  0  0  0  0
   -1.2219   -1.2989    1.6910 H   0  0  0  0  0  0  0  0  0  0  0  0
   -1.0290    1.3511    1.7317 H   0  0  0  0  0  0  0  0  0  0  0  0
    1.3018    2.2952    1.1447 H   0  0  0  0  0  0  0  0  0  0  0  0
    0.8052    1.1372   -1.3927 H   0  0  0  0  0  0  0  0  0  0  0  0
    2.9132   -0.7502   -0.3212 H   0  0  0  0  0  0  0  0  0  0  0  0
    1.8616   -0.9964   -1.7672 H   0  0  0  0  0  0  0  0  0  0  0  0
    1.2793   -0.1445    1.9104 H   0  0  0  0  0  0  0  0  0  0  0  0
  1  2  1  0
  2  3  1  0
  2  4  1  0
  4  5  2  0
  5  6  1  0
  6  7  1  0
  7  8  1  0
  8  9  1  0
  8  2  1  0
  8  6  1  0
  1 10  1  0
  1 11  1  0
  1 12  1  0
  3 13  1  0
  3 14  1  0
  3 15  1  0
  4 16  1  0
  5 17  1  0
  6 18  1  0
  7 19  1  0
  7 20  1  0
  9 21  1  0
M  END
