
     RDKit          3D

 19 20  0  0  0  0  0  0  0  0999 V2000
    1.5611    0.0753   -1.2102 C   0  0  0  0  0  0  0  0  0  0  0  0
    0.6636   -0.0016    0.0142 C   0  0  0  0  0  0  0  0  0  0  0  0
    1.4384   -0.6228    1.1010 C   0  0  0  0  0  0  0  0  0  0  0  0
    2.1868   -1.5462    0.8917 O   0  0  0  0  0  0  0  0  0  0  0  0
    0.1865    1.3502    0.3256 C   0  0  0  0  0  0  0  0  0  0  0  0
   -1.1189    1.4781    0.1730 C   0  0  0  0  0  0  0  0  0  0  0  0
   -1.6889    0.1972   -0.2698 C   0  0  0  0  0  0  0  0  0  0  0  0
   -1.6493   -0.9990    0.6598 C   0  0  0  0  0  0  0  0  0  0  0  0
   -0.5823   -0.7747   -0.3392 C   0  0  0  0  0  0  0  0  0  0  0  0
    2.4320    0.7208   -0.9188 H   0  0  0  0  0  0  0  0  0  0  0  0
    1.0314    0.5510   -2.0471 H   0  0  0  0  0  0  0  0  0  0  0  0
    1.9645   -0.9348   -1.4611 H   0  0  0  0  0  0  0  0  0  0  0  0
    1.3378   -0.2492    2.1012 H   0  0  0  0  0  0  0  0  0  0  0  0
    0.8248    2.1644    0.6469 H   0  0  0  0  0  0  0  0  0  0  0  0
   -1.7061    2.3843    0.3431 H   0  0  0  0  0  0  0  0  0  0  0  0
   -2.5324    0.1983   -0.9867 H   0  0  0  0  0  0  0  0  0  0  0  0
   -2.3557   -1.8206    0.4543 H   0  0  0  0  0  0  0  0  0  0  0  0
   -1.4762   -0.7562    1.7398 H   0  0  0  0  0  0  0  0  0  0  0  0
   -0.5169   -1.4145   -1.2175 H   0  0  0  0  0  0  0  0  0  0  0  0
  1  2  1  0
  2  3  1  0
  3  4  2  0
  2  5  1  0
  5  6  2  0
  6  7  1  0
  7  8  1  0
  8  9  1  0
  9  2  1  0
  9  7  1  0
  1 10  1  0
  1 11  1  0
  1 12  1  0
  3 13  1  0
  5 14  1  0
  6 15  1  0
  7 16  1  0
  8 17  1  0
  8 18  1  0
  9 19  1  0
M  END
