
     RDKit          3D

 19 20  0  0  0  0  0  0  0  0999 V2000
   -1.4407   -1.1284   -0.2607 C   0  0  0  0  0  0  0  0  0  0  0  0
   -0.8984    0.2546   -0.4309 C   0  0  0  0  0  0  0  0  0  0  0  0
    0.5642    0.5219   -0.2175 C   0  0  0  0  0  0  0  0  0  0  0  0
    1.0908    0.2006    1.1663 C   0  0  0  0  0  0  0  0  0  0  0  0
    2.3192   -0.2954    0.5009 C   0  0  0  0  0  0  0  0  0  0  0  0
    3.4847   -0.3988    0.7939 O   0  0  0  0  0  0  0  0  0  0  0  0
    1.4792   -0.6062   -0.6798 C   0  0  0  0  0  0  0  0  0  0  0  0
   -1.7951    1.4072   -0.0353 C   0  0  0  0  0  0  0  0  0  0  0  0
   -1.5559    1.0426   -1.3940 O   0  0  0  0  0  0  0  0  0  0  0  0
   -1.2706   -1.5431    0.7574 H   0  0  0  0  0  0  0  0  0  0  0  0
   -0.9892   -1.8285   -0.9949 H   0  0  0  0  0  0  0  0  0  0  0  0
   -2.5250   -1.1463   -0.4299 H   0  0  0  0  0  0  0  0  0  0  0  0
    0.9282    1.4888   -0.5595 H   0  0  0  0  0  0  0  0  0  0  0  0
    1.2217    1.1071    1.7895 H   0  0  0  0  0  0  0  0  0  0  0  0
    0.5815   -0.6455    1.6736 H   0  0  0  0  0  0  0  0  0  0  0  0
    1.9537   -0.4200   -1.6644 H   0  0  0  0  0  0  0  0  0  0  0  0
    0.9917   -1.5781   -0.5655 H   0  0  0  0  0  0  0  0  0  0  0  0
   -2.8032    1.1800    0.3624 H   0  0  0  0  0  0  0  0  0  0  0  0
   -1.3370    2.3877    0.1882 H   0  0  0  0  0  0  0  0  0  0  0  0
  1  2  1  0
  2  3  1  0
  3  4  1  0
  4  5  1  0
  5  6  2  0
  5  7  1  0
  2  8  1  0
  8  9  1  0
  9  2  1  0
  7  3  1  0
  1 10  1  0
  1 11  1  0
  1 12  1  0
  3 13  1  0
  4 14  1  0
  4 15  1  0
  7 16  1  0
  7 17  1  0
  8 18  1  0
  8 19  1  0
M  END
