
     RDKit          3D

 19 20  0  0  0  0  0  0  0  0999 V2000
   -2.3096   -0.1397   -0.3261 C   0  0  0  0  0  0  0  0  0  0  0  0
   -0.8759    0.3251   -0.2665 C   0  0  0  0  0  0  0  0  0  0  0  0
   -0.6837    1.6646   -0.5848 O   0  0  0  0  0  0  0  0  0  0  0  0
    0.0897   -0.6455   -0.9116 C   0  0  0  0  0  0  0  0  0  0  0  0
   -0.3970   -1.9011   -1.3046 O   0  0  0  0  0  0  0  0  0  0  0  0
    0.0893   -0.4153    0.5812 C   0  0  0  0  0  0  0  0  0  0  0  0
    1.2893    0.2048    1.1661 C   0  0  0  0  0  0  0  0  0  0  0  0
    2.3199    0.8464    0.2708 C   0  0  0  0  0  0  0  0  0  0  0  0
    2.5029   -0.4875    0.7009 O   0  0  0  0  0  0  0  0  0  0  0  0
   -2.4361   -1.0271    0.3228 H   0  0  0  0  0  0  0  0  0  0  0  0
   -2.5902   -0.3736   -1.3747 H   0  0  0  0  0  0  0  0  0  0  0  0
   -3.0007    0.6704    0.0038 H   0  0  0  0  0  0  0  0  0  0  0  0
   -1.1781    2.2643    0.0191 H   0  0  0  0  0  0  0  0  0  0  0  0
    0.8328   -0.2405   -1.5814 H   0  0  0  0  0  0  0  0  0  0  0  0
    0.2829   -2.5574   -1.0137 H   0  0  0  0  0  0  0  0  0  0  0  0
   -0.3995   -1.2046    1.2231 H   0  0  0  0  0  0  0  0  0  0  0  0
    1.3614    0.3990    2.2612 H   0  0  0  0  0  0  0  0  0  0  0  0
    2.9941    1.6109    0.7450 H   0  0  0  0  0  0  0  0  0  0  0  0
    2.1086    1.0069   -0.7925 H   0  0  0  0  0  0  0  0  0  0  0  0
  1  2  1  0
  2  3  1  0
  2  4  1  0
  4  5  1  0
  4  6  1  0
  6  7  1  0
  7  8  1  0
  8  9  1  0
  6  2  1  0
  9  7  1  0
  1 10  1  0
  1 11  1  0
  1 12  1  0
  3 13  1  0
  4 14  1  0
  5 15  1  0
  6 16  1  0
  7 17  1  0
  8 18  1  0
  8 19  1  0
M  END
