
     RDKit          3D

 23 24  0  0  0  0  0  0  0  0999 V2000
   -1.8348    0.6003   -1.4236 C   0  0  0  0  0  0  0  0  0  0  0  0
   -1.1733    0.0501   -0.1588 C   0  0  0  0  0  0  0  0  0  0  0  0
    0.1233    0.7002    0.1717 C   0  0  0  0  0  0  0  0  0  0  0  0
    0.6801    0.0969    1.4106 O   0  0  0  0  0  0  0  0  0  0  0  0
    1.4127    0.1339    0.1162 C   0  0  0  0  0  0  0  0  0  0  0  0
    1.7671   -1.2555   -0.3009 C   0  0  0  0  0  0  0  0  0  0  0  0
    2.6170    1.0537    0.2653 C   0  0  0  0  0  0  0  0  0  0  0  0
   -2.1416   -0.0222    1.0351 C   0  0  0  0  0  0  0  0  0  0  0  0
   -1.6305   -1.2280    0.3476 C   0  0  0  0  0  0  0  0  0  0  0  0
   -1.1577    0.5449   -2.2756 H   0  0  0  0  0  0  0  0  0  0  0  0
   -2.2317    1.6356   -1.2424 H   0  0  0  0  0  0  0  0  0  0  0  0
   -2.7550   -0.0086   -1.6583 H   0  0  0  0  0  0  0  0  0  0  0  0
    0.0394    1.8155    0.2523 H   0  0  0  0  0  0  0  0  0  0  0  0
    2.4320   -1.1726   -1.2046 H   0  0  0  0  0  0  0  0  0  0  0  0
    0.9219   -1.9183   -0.4831 H   0  0  0  0  0  0  0  0  0  0  0  0
    2.4502   -1.6698    0.4985 H   0  0  0  0  0  0  0  0  0  0  0  0
    3.4152    0.8036   -0.4525 H   0  0  0  0  0  0  0  0  0  0  0  0
    2.3159    2.1266    0.2205 H   0  0  0  0  0  0  0  0  0  0  0  0
    3.0688    0.9034    1.2869 H   0  0  0  0  0  0  0  0  0  0  0  0
   -3.1649    0.3492    0.8996 H   0  0  0  0  0  0  0  0  0  0  0  0
   -1.7326    0.1669    2.0429 H   0  0  0  0  0  0  0  0  0  0  0  0
   -1.0206   -1.9400    0.9296 H   0  0  0  0  0  0  0  0  0  0  0  0
   -2.4010   -1.7656   -0.2770 H   0  0  0  0  0  0  0  0  0  0  0  0
  1  2  1  0
  2  3  1  0
  3  4  1  0
  4  5  1  0
  5  6  1  0
  5  7  1  0
  2  8  1  0
  8  9  1  0
  9  2  1  0
  5  3  1  0
  1 10  1  0
  1 11  1  0
  1 12  1  0
  3 13  1  0
  6 14  1  0
  6 15  1  0
  6 16  1  0
  7 17  1  0
  7 18  1  0
  7 19  1  0
  8 20  1  0
  8 21  1  0
  9 22  1  0
  9 23  1  0
M  END
