
     RDKit          3D

 21 22  0  0  0  0  0  0  0  0999 V2000
    2.1897    0.0570   -1.3315 C   0  0  0  0  0  0  0  0  0  0  0  0
    1.0525   -0.4866   -0.4885 C   0  0  0  0  0  0  0  0  0  0  0  0
    0.6039   -1.7389   -0.8654 O   0  0  0  0  0  0  0  0  0  0  0  0
    1.2183   -0.2806    0.9949 C   0  0  0  0  0  0  0  0  0  0  0  0
    0.7221   -1.2818    1.8275 O   0  0  0  0  0  0  0  0  0  0  0  0
    0.1768    0.5087    0.1461 C   0  0  0  0  0  0  0  0  0  0  0  0
   -1.2183    0.2649    0.5647 C   0  0  0  0  0  0  0  0  0  0  0  0
   -2.3035   -0.1421   -0.3402 C   0  0  0  0  0  0  0  0  0  0  0  0
   -2.2304    1.2987    0.0370 C   0  0  0  0  0  0  0  0  0  0  0  0
    1.8450    1.0355   -1.7658 H   0  0  0  0  0  0  0  0  0  0  0  0
    2.5060   -0.6552   -2.1159 H   0  0  0  0  0  0  0  0  0  0  0  0
    3.0742    0.3433   -0.6929 H   0  0  0  0  0  0  0  0  0  0  0  0
    0.9518   -2.4497   -0.2621 H   0  0  0  0  0  0  0  0  0  0  0  0
    2.0742    0.3310    1.3402 H   0  0  0  0  0  0  0  0  0  0  0  0
    0.2966   -0.8980    2.6257 H   0  0  0  0  0  0  0  0  0  0  0  0
    0.4233    1.5902   -0.0120 H   0  0  0  0  0  0  0  0  0  0  0  0
   -1.3557    0.0686    1.6574 H   0  0  0  0  0  0  0  0  0  0  0  0
   -3.1340   -0.7314    0.1146 H   0  0  0  0  0  0  0  0  0  0  0  0
   -2.0235   -0.4847   -1.3554 H   0  0  0  0  0  0  0  0  0  0  0  0
   -2.9892    1.6879    0.7154 H   0  0  0  0  0  0  0  0  0  0  0  0
   -1.8798    1.9634   -0.7938 H   0  0  0  0  0  0  0  0  0  0  0  0
  1  2  1  0
  2  3  1  0
  2  4  1  0
  4  5  1  0
  4  6  1  0
  6  7  1  0
  7  8  1  0
  8  9  1  0
  6  2  1  0
  9  7  1  0
  1 10  1  0
  1 11  1  0
  1 12  1  0
  3 13  1  0
  4 14  1  0
  5 15  1  0
  6 16  1  0
  7 17  1  0
  8 18  1  0
  8 19  1  0
  9 20  1  0
  9 21  1  0
M  END
