
     RDKit          3D

 19 21  0  0  0  0  0  0  0  0999 V2000
    1.8635   -0.6857   -0.1573 C   0  0  0  0  0  0  0  0  0  0  0  0
    0.5365   -0.0371   -0.0013 C   0  0  0  0  0  0  0  0  0  0  0  0
    0.6243    1.4347    0.2467 C   0  0  0  0  0  0  0  0  0  0  0  0
   -0.4258   -0.5015   -1.0393 C   0  0  0  0  0  0  0  0  0  0  0  0
   -0.5410   -1.6802   -0.2608 O   0  0  0  0  0  0  0  0  0  0  0  0
   -0.4240   -0.8094    0.8487 C   0  0  0  0  0  0  0  0  0  0  0  0
   -1.7525   -0.1064    0.7745 C   0  0  0  0  0  0  0  0  0  0  0  0
   -2.7295   -0.5608   -0.1047 O   0  0  0  0  0  0  0  0  0  0  0  0
   -1.7522    0.1571   -0.7456 C   0  0  0  0  0  0  0  0  0  0  0  0
    2.2812   -0.4915   -1.1863 H   0  0  0  0  0  0  0  0  0  0  0  0
    1.8319   -1.7963   -0.0745 H   0  0  0  0  0  0  0  0  0  0  0  0
    2.5863   -0.2827    0.5837 H   0  0  0  0  0  0  0  0  0  0  0  0
   -0.3766    1.8611    0.2361 H   0  0  0  0  0  0  0  0  0  0  0  0
    1.1251    1.5732    1.2473 H   0  0  0  0  0  0  0  0  0  0  0  0
    1.3117    1.8692   -0.4973 H   0  0  0  0  0  0  0  0  0  0  0  0
   -0.1182   -0.6203   -2.0547 H   0  0  0  0  0  0  0  0  0  0  0  0
   -0.1019   -1.2355    1.7724 H   0  0  0  0  0  0  0  0  0  0  0  0
   -2.0092    0.7061    1.4447 H   0  0  0  0  0  0  0  0  0  0  0  0
   -1.9294    1.2058   -1.0323 H   0  0  0  0  0  0  0  0  0  0  0  0
  1  2  1  0
  2  3  1  0
  2  4  1  0
  4  5  1  0
  5  6  1  0
  6  7  1  0
  7  8  1  0
  8  9  1  0
  6  2  1  0
  9  7  1  0
  9  4  1  0
  1 10  1  0
  1 11  1  0
  1 12  1  0
  3 13  1  0
  3 14  1  0
  3 15  1  0
  4 16  1  0
  6 17  1  0
  7 18  1  0
  9 19  1  0
M  END
