
     RDKit          3D

 19 20  0  0  0  0  0  0  0  0999 V2000
   -1.7381   -0.8927    0.7353 C   0  0  0  0  0  0  0  0  0  0  0  0
   -1.0948    0.3713    0.2574 C   0  0  0  0  0  0  0  0  0  0  0  0
   -1.7558    1.5189    0.6886 O   0  0  0  0  0  0  0  0  0  0  0  0
   -0.8171    0.3909   -1.2558 C   0  0  0  0  0  0  0  0  0  0  0  0
    0.5568   -0.1130   -0.9604 C   0  0  0  0  0  0  0  0  0  0  0  0
    1.7706   -0.6358   -0.9260 C   0  0  0  0  0  0  0  0  0  0  0  0
    2.2922   -0.3977    0.4478 C   0  0  0  0  0  0  0  0  0  0  0  0
    1.0646   -0.4543    1.1656 O   0  0  0  0  0  0  0  0  0  0  0  0
    0.3693    0.4891    0.4275 C   0  0  0  0  0  0  0  0  0  0  0  0
   -2.6714   -1.1173    0.1598 H   0  0  0  0  0  0  0  0  0  0  0  0
   -2.0231   -0.7641    1.7812 H   0  0  0  0  0  0  0  0  0  0  0  0
   -1.0362   -1.7347    0.5948 H   0  0  0  0  0  0  0  0  0  0  0  0
   -1.4603    2.3231    0.2209 H   0  0  0  0  0  0  0  0  0  0  0  0
   -1.4667   -0.2845   -1.8186 H   0  0  0  0  0  0  0  0  0  0  0  0
   -0.7358    1.4377   -1.6462 H   0  0  0  0  0  0  0  0  0  0  0  0
    2.3183   -1.1412   -1.7018 H   0  0  0  0  0  0  0  0  0  0  0  0
    2.6105    0.6554    0.4930 H   0  0  0  0  0  0  0  0  0  0  0  0
    3.0065   -1.1262    0.7913 H   0  0  0  0  0  0  0  0  0  0  0  0
    0.8104    1.4750    0.5456 H   0  0  0  0  0  0  0  0  0  0  0  0
  1  2  1  0
  2  3  1  0
  2  4  1  0
  4  5  1  0
  5  6  2  0
  6  7  1  0
  7  8  1  0
  8  9  1  0
  9  2  1  0
  9  5  1  0
  1 10  1  0
  1 11  1  0
  1 12  1  0
  3 13  1  0
  4 14  1  0
  4 15  1  0
  6 16  1  0
  7 17  1  0
  7 18  1  0
  9 19  1  0
M  END
