
     RDKit          3D

 19 19  0  0  0  0  0  0  0  0999 V2000
    0.1564   -0.5420    1.3482 C   0  0  0  0  0  0  0  0  0  0  0  0
   -0.3893    0.0077    0.0227 C   0  0  0  0  0  0  0  0  0  0  0  0
   -1.8925    0.0915    0.1395 C   0  0  0  0  0  0  0  0  0  0  0  0
    0.0288   -0.9364   -1.0468 C   0  0  0  0  0  0  0  0  0  0  0  0
    1.3668   -0.6797   -1.4628 O   0  0  0  0  0  0  0  0  0  0  0  0
    2.2093    0.1473   -0.7567 C   0  0  0  0  0  0  0  0  0  0  0  0
    3.4407   -0.0351   -0.6126 O   0  0  0  0  0  0  0  0  0  0  0  0
    1.6135    1.2740   -0.1637 O   0  0  0  0  0  0  0  0  0  0  0  0
    0.2166    1.3912   -0.1188 C   0  0  0  0  0  0  0  0  0  0  0  0
    0.1906    0.3019    2.0499 H   0  0  0  0  0  0  0  0  0  0  0  0
   -0.5271   -1.3525    1.6411 H   0  0  0  0  0  0  0  0  0  0  0  0
    1.1738   -0.9650    1.1871 H   0  0  0  0  0  0  0  0  0  0  0  0
   -2.2219    1.0531   -0.3359 H   0  0  0  0  0  0  0  0  0  0  0  0
   -2.3157   -0.7403   -0.4645 H   0  0  0  0  0  0  0  0  0  0  0  0
   -2.2092    0.0418    1.1981 H   0  0  0  0  0  0  0  0  0  0  0  0
    0.0527   -1.9659   -0.6071 H   0  0  0  0  0  0  0  0  0  0  0  0
   -0.6480   -0.9895   -1.9157 H   0  0  0  0  0  0  0  0  0  0  0  0
   -0.0377    1.9284    0.8381 H   0  0  0  0  0  0  0  0  0  0  0  0
   -0.2081    1.9695   -0.9401 H   0  0  0  0  0  0  0  0  0  0  0  0
  1  2  1  0
  2  3  1  0
  2  4  1  0
  4  5  1  0
  5  6  1  0
  6  7  2  0
  6  8  1  0
  8  9  1  0
  9  2  1  0
  1 10  1  0
  1 11  1  0
  1 12  1  0
  3 13  1  0
  3 14  1  0
  3 15  1  0
  4 16  1  0
  4 17  1  0
  9 18  1  0
  9 19  1  0
M  END
