
     RDKit          3D

 21 22  0  0  0  0  0  0  0  0999 V2000
   -0.9582   -1.1738    1.0735 C   0  0  0  0  0  0  0  0  0  0  0  0
   -0.3639   -0.8380   -0.2767 C   0  0  0  0  0  0  0  0  0  0  0  0
   -0.3368   -1.9400   -1.0978 O   0  0  0  0  0  0  0  0  0  0  0  0
   -1.1225    0.3633   -0.8452 C   0  0  0  0  0  0  0  0  0  0  0  0
   -1.2706    1.4923    0.0915 C   0  0  0  0  0  0  0  0  0  0  0  0
    0.0680    1.2749   -0.4811 C   0  0  0  0  0  0  0  0  0  0  0  0
    0.8591    0.0263   -0.2533 C   0  0  0  0  0  0  0  0  0  0  0  0
    1.6787    0.0115    0.9924 C   0  0  0  0  0  0  0  0  0  0  0  0
    1.6894   -0.2241   -1.3680 O   0  0  0  0  0  0  0  0  0  0  0  0
   -0.5763   -0.5513    1.8893 H   0  0  0  0  0  0  0  0  0  0  0  0
   -0.7629   -2.2337    1.3289 H   0  0  0  0  0  0  0  0  0  0  0  0
   -2.0795   -1.0943    0.9902 H   0  0  0  0  0  0  0  0  0  0  0  0
   -0.3490   -1.6731   -2.0606 H   0  0  0  0  0  0  0  0  0  0  0  0
   -1.4829    0.3483   -1.8634 H   0  0  0  0  0  0  0  0  0  0  0  0
   -1.8290    2.3570   -0.2577 H   0  0  0  0  0  0  0  0  0  0  0  0
   -1.4051    1.1865    1.1698 H   0  0  0  0  0  0  0  0  0  0  0  0
    0.4282    1.9829   -1.2315 H   0  0  0  0  0  0  0  0  0  0  0  0
    1.2044    0.5489    1.8368 H   0  0  0  0  0  0  0  0  0  0  0  0
    2.6643    0.5024    0.7410 H   0  0  0  0  0  0  0  0  0  0  0  0
    1.9071   -1.0407    1.2489 H   0  0  0  0  0  0  0  0  0  0  0  0
    2.0374    0.6748   -1.6268 H   0  0  0  0  0  0  0  0  0  0  0  0
  1  2  1  0
  2  3  1  0
  2  4  1  0
  4  5  1  0
  5  6  1  0
  6  7  1  0
  7  8  1  0
  7  9  1  0
  7  2  1  0
  6  4  1  0
  1 10  1  0
  1 11  1  0
  1 12  1  0
  3 13  1  0
  4 14  1  0
  5 15  1  0
  5 16  1  0
  6 17  1  0
  8 18  1  0
  8 19  1  0
  8 20  1  0
  9 21  1  0
M  END
