
     RDKit          3D

 16 16  0  0  0  0  0  0  0  0999 V2000
   -1.5450   -0.4194    0.5645 C   0  0  0  0  0  0  0  0  0  0  0  0
   -0.3914    0.2466   -0.1423 C   0  0  0  0  0  0  0  0  0  0  0  0
   -0.6004    1.6869   -0.3355 C   0  0  0  0  0  0  0  0  0  0  0  0
   -0.8740    2.4706    0.5534 O   0  0  0  0  0  0  0  0  0  0  0  0
   -0.0893   -0.4418   -1.3072 O   0  0  0  0  0  0  0  0  0  0  0  0
    0.8176   -1.2089   -0.5719 C   0  0  0  0  0  0  0  0  0  0  0  0
    0.9672   -0.0949    0.4097 C   0  0  0  0  0  0  0  0  0  0  0  0
    1.8772    0.8978    0.0266 O   0  0  0  0  0  0  0  0  0  0  0  0
   -2.4319   -0.3179   -0.1055 H   0  0  0  0  0  0  0  0  0  0  0  0
   -1.7437    0.0489    1.5443 H   0  0  0  0  0  0  0  0  0  0  0  0
   -1.3175   -1.4903    0.7672 H   0  0  0  0  0  0  0  0  0  0  0  0
   -0.5061    2.0884   -1.3373 H   0  0  0  0  0  0  0  0  0  0  0  0
    1.7064   -1.4132   -1.2035 H   0  0  0  0  0  0  0  0  0  0  0  0
    0.4048   -2.1340   -0.1685 H   0  0  0  0  0  0  0  0  0  0  0  0
    0.9918   -0.3557    1.4773 H   0  0  0  0  0  0  0  0  0  0  0  0
    2.7343    0.4369   -0.1713 H   0  0  0  0  0  0  0  0  0  0  0  0
  1  2  1  0
  2  3  1  0
  3  4  2  0
  2  5  1  0
  5  6  1  0
  6  7  1  0
  7  8  1  0
  7  2  1  0
  1  9  1  0
  1 10  1  0
  1 11  1  0
  3 12  1  0
  6 13  1  0
  6 14  1  0
  7 15  1  0
  8 16  1  0
M  END
