
     RDKit          3D

 23 23  0  0  0  0  0  0  0  0999 V2000
   -1.2929   -0.3324    1.4194 C   0  0  0  0  0  0  0  0  0  0  0  0
   -0.7673   -0.2969   -0.0208 C   0  0  0  0  0  0  0  0  0  0  0  0
   -2.0218   -0.4427   -0.9026 C   0  0  0  0  0  0  0  0  0  0  0  0
   -0.0309   -1.3982   -0.2316 O   0  0  0  0  0  0  0  0  0  0  0  0
    1.2988   -1.3894   -0.0891 C   0  0  0  0  0  0  0  0  0  0  0  0
    1.9622   -0.0787    0.1308 C   0  0  0  0  0  0  0  0  0  0  0  0
    1.2916    0.9574   -0.7297 C   0  0  0  0  0  0  0  0  0  0  0  0
   -0.1547    1.0179   -0.3526 C   0  0  0  0  0  0  0  0  0  0  0  0
   -0.3578    1.8744    0.7564 O   0  0  0  0  0  0  0  0  0  0  0  0
   -2.2907   -0.8150    1.4731 H   0  0  0  0  0  0  0  0  0  0  0  0
   -0.6198   -0.9840    2.0490 H   0  0  0  0  0  0  0  0  0  0  0  0
   -1.4061    0.6758    1.8398 H   0  0  0  0  0  0  0  0  0  0  0  0
   -1.6596   -0.7522   -1.9187 H   0  0  0  0  0  0  0  0  0  0  0  0
   -2.5316    0.5335   -0.9956 H   0  0  0  0  0  0  0  0  0  0  0  0
   -2.7219   -1.1587   -0.4588 H   0  0  0  0  0  0  0  0  0  0  0  0
    1.6463   -2.0848    0.7310 H   0  0  0  0  0  0  0  0  0  0  0  0
    1.7604   -1.8453   -1.0163 H   0  0  0  0  0  0  0  0  0  0  0  0
    3.0226   -0.1573   -0.2161 H   0  0  0  0  0  0  0  0  0  0  0  0
    1.9705    0.2702    1.1756 H   0  0  0  0  0  0  0  0  0  0  0  0
    1.7693    1.9313   -0.6556 H   0  0  0  0  0  0  0  0  0  0  0  0
    1.3507    0.5780   -1.7852 H   0  0  0  0  0  0  0  0  0  0  0  0
   -0.6792    1.5508   -1.1992 H   0  0  0  0  0  0  0  0  0  0  0  0
    0.4618    2.3463    0.9965 H   0  0  0  0  0  0  0  0  0  0  0  0
  1  2  1  0
  2  3  1  0
  2  4  1  0
  4  5  1  0
  5  6  1  0
  6  7  1  0
  7  8  1  0
  8  9  1  0
  8  2  1  0
  1 10  1  0
  1 11  1  0
  1 12  1  0
  3 13  1  0
  3 14  1  0
  3 15  1  0
  5 16  1  0
  5 17  1  0
  6 18  1  0
  6 19  1  0
  7 20  1  0
  7 21  1  0
  8 22  1  0
  9 23  1  0
M  END
