
     RDKit          3D

 23 24  0  0  0  0  0  0  0  0999 V2000
    1.8145   -0.0313   -1.3185 C   0  0  0  0  0  0  0  0  0  0  0  0
    1.0023   -0.1449   -0.0561 C   0  0  0  0  0  0  0  0  0  0  0  0
    1.7905   -0.4609    1.1789 C   0  0  0  0  0  0  0  0  0  0  0  0
   -0.1572   -1.1410   -0.1799 C   0  0  0  0  0  0  0  0  0  0  0  0
   -1.0662   -0.0507    0.2400 C   0  0  0  0  0  0  0  0  0  0  0  0
   -2.0982   -0.1170    1.2302 C   0  0  0  0  0  0  0  0  0  0  0  0
   -2.4408    0.1137   -0.2608 C   0  0  0  0  0  0  0  0  0  0  0  0
   -0.0152    0.9837    0.1036 C   0  0  0  0  0  0  0  0  0  0  0  0
   -0.1622    1.6561   -1.1317 O   0  0  0  0  0  0  0  0  0  0  0  0
    1.9208   -1.0080   -1.8200 H   0  0  0  0  0  0  0  0  0  0  0  0
    2.8047    0.3970   -1.1144 H   0  0  0  0  0  0  0  0  0  0  0  0
    1.3095    0.6530   -2.0305 H   0  0  0  0  0  0  0  0  0  0  0  0
    2.2228   -1.4850    1.0567 H   0  0  0  0  0  0  0  0  0  0  0  0
    1.0762   -0.4768    2.0379 H   0  0  0  0  0  0  0  0  0  0  0  0
    2.5900    0.2786    1.2952 H   0  0  0  0  0  0  0  0  0  0  0  0
   -0.0771   -2.0188    0.4740 H   0  0  0  0  0  0  0  0  0  0  0  0
   -0.3546   -1.4169   -1.2519 H   0  0  0  0  0  0  0  0  0  0  0  0
   -2.4227   -1.1067    1.6331 H   0  0  0  0  0  0  0  0  0  0  0  0
   -2.3013    0.7376    1.9120 H   0  0  0  0  0  0  0  0  0  0  0  0
   -2.7468    1.1316   -0.5342 H   0  0  0  0  0  0  0  0  0  0  0  0
   -2.8532   -0.7645   -0.8160 H   0  0  0  0  0  0  0  0  0  0  0  0
    0.1704    1.6619    0.9439 H   0  0  0  0  0  0  0  0  0  0  0  0
   -0.0064    2.6093   -1.0631 H   0  0  0  0  0  0  0  0  0  0  0  0
  1  2  1  0
  2  3  1  0
  2  4  1  0
  4  5  1  0
  5  6  1  0
  6  7  1  0
  5  8  1  0
  8  9  1  0
  8  2  1  0
  7  5  1  0
  1 10  1  0
  1 11  1  0
  1 12  1  0
  3 13  1  0
  3 14  1  0
  3 15  1  0
  4 16  1  0
  4 17  1  0
  6 18  1  0
  6 19  1  0
  7 20  1  0
  7 21  1  0
  8 22  1  0
  9 23  1  0
M  END
