
     RDKit          3D

 23 23  0  0  0  0  0  0  0  0999 V2000
   -1.3753   -1.3142    0.6509 C   0  0  0  0  0  0  0  0  0  0  0  0
   -0.6928   -0.1195    0.0158 C   0  0  0  0  0  0  0  0  0  0  0  0
   -0.6777   -0.2867   -1.4840 C   0  0  0  0  0  0  0  0  0  0  0  0
   -1.2776    1.2127    0.3925 C   0  0  0  0  0  0  0  0  0  0  0  0
   -0.0545    1.4456    1.2557 C   0  0  0  0  0  0  0  0  0  0  0  0
    0.5845    0.1908    0.7013 C   0  0  0  0  0  0  0  0  0  0  0  0
    1.7977    0.3841   -0.1475 C   0  0  0  0  0  0  0  0  0  0  0  0
    2.0730   -0.8471   -0.9250 C   0  0  0  0  0  0  0  0  0  0  0  0
    2.1704   -1.9172   -0.3005 O   0  0  0  0  0  0  0  0  0  0  0  0
   -2.3943   -1.4388    0.2548 H   0  0  0  0  0  0  0  0  0  0  0  0
   -0.7936   -2.2164    0.2965 H   0  0  0  0  0  0  0  0  0  0  0  0
   -1.2939   -1.2974    1.7386 H   0  0  0  0  0  0  0  0  0  0  0  0
   -0.1244    0.4898   -2.0295 H   0  0  0  0  0  0  0  0  0  0  0  0
   -0.3551   -1.3212   -1.7844 H   0  0  0  0  0  0  0  0  0  0  0  0
   -1.7446   -0.2157   -1.8172 H   0  0  0  0  0  0  0  0  0  0  0  0
   -1.2925    1.9264   -0.4584 H   0  0  0  0  0  0  0  0  0  0  0  0
   -2.2503    1.1806    0.9336 H   0  0  0  0  0  0  0  0  0  0  0  0
    0.5363    2.3532    0.9807 H   0  0  0  0  0  0  0  0  0  0  0  0
   -0.3492    1.4009    2.3247 H   0  0  0  0  0  0  0  0  0  0  0  0
    0.8385   -0.4745    1.5640 H   0  0  0  0  0  0  0  0  0  0  0  0
    1.8166    1.2965   -0.7380 H   0  0  0  0  0  0  0  0  0  0  0  0
    2.6649    0.4693    0.5705 H   0  0  0  0  0  0  0  0  0  0  0  0
    2.1941   -0.9013   -1.9953 H   0  0  0  0  0  0  0  0  0  0  0  0
  1  2  1  0
  2  3  1  0
  2  4  1  0
  4  5  1  0
  5  6  1  0
  6  7  1  0
  7  8  1  0
  8  9  2  0
  6  2  1  0
  1 10  1  0
  1 11  1  0
  1 12  1  0
  3 13  1  0
  3 14  1  0
  3 15  1  0
  4 16  1  0
  4 17  1  0
  5 18  1  0
  5 19  1  0
  6 20  1  0
  7 21  1  0
  7 22  1  0
  8 23  1  0
M  END
