
     RDKit          3D

 23 23  0  0  0  0  0  0  0  0999 V2000
   -1.4872    0.3029   -1.1305 C   0  0  0  0  0  0  0  0  0  0  0  0
   -0.6581    0.1541    0.1047 C   0  0  0  0  0  0  0  0  0  0  0  0
   -0.9398   -1.0811    0.8955 C   0  0  0  0  0  0  0  0  0  0  0  0
   -0.6825   -2.1827    0.0679 O   0  0  0  0  0  0  0  0  0  0  0  0
   -0.5551    1.4374    0.8474 C   0  0  0  0  0  0  0  0  0  0  0  0
    0.5330    1.7806    0.0164 O   0  0  0  0  0  0  0  0  0  0  0  0
    0.8151    0.4132   -0.0765 C   0  0  0  0  0  0  0  0  0  0  0  0
    1.6823   -0.0473    1.0381 C   0  0  0  0  0  0  0  0  0  0  0  0
    1.3825    0.0325   -1.4134 C   0  0  0  0  0  0  0  0  0  0  0  0
   -2.2786    1.0813   -0.9244 H   0  0  0  0  0  0  0  0  0  0  0  0
   -2.0575   -0.6145   -1.3903 H   0  0  0  0  0  0  0  0  0  0  0  0
   -0.8457    0.6644   -1.9573 H   0  0  0  0  0  0  0  0  0  0  0  0
   -0.3205   -1.1468    1.7934 H   0  0  0  0  0  0  0  0  0  0  0  0
   -2.0182   -1.0841    1.2026 H   0  0  0  0  0  0  0  0  0  0  0  0
   -1.4947   -2.5498   -0.3442 H   0  0  0  0  0  0  0  0  0  0  0  0
   -0.3012    1.3966    1.9164 H   0  0  0  0  0  0  0  0  0  0  0  0
   -1.4025    2.1499    0.6733 H   0  0  0  0  0  0  0  0  0  0  0  0
    2.7457    0.1721    0.7547 H   0  0  0  0  0  0  0  0  0  0  0  0
    1.5161    0.4680    1.9992 H   0  0  0  0  0  0  0  0  0  0  0  0
    1.6419   -1.1363    1.2343 H   0  0  0  0  0  0  0  0  0  0  0  0
    2.3606   -0.5176   -1.3096 H   0  0  0  0  0  0  0  0  0  0  0  0
    0.7291   -0.6345   -1.9915 H   0  0  0  0  0  0  0  0  0  0  0  0
    1.6353    0.9417   -2.0059 H   0  0  0  0  0  0  0  0  0  0  0  0
  1  2  1  0
  2  3  1  0
  3  4  1  0
  2  5  1  0
  5  6  1  0
  6  7  1  0
  7  8  1  0
  7  9  1  0
  7  2  1  0
  1 10  1  0
  1 11  1  0
  1 12  1  0
  3 13  1  0
  3 14  1  0
  4 15  1  0
  5 16  1  0
  5 17  1  0
  8 18  1  0
  8 19  1  0
  8 20  1  0
  9 21  1  0
  9 22  1  0
  9 23  1  0
M  END
