
     RDKit          3D

 23 24  0  0  0  0  0  0  0  0999 V2000
   -1.7980    1.2526    0.0326 C   0  0  0  0  0  0  0  0  0  0  0  0
   -1.1021   -0.1050   -0.0149 C   0  0  0  0  0  0  0  0  0  0  0  0
   -1.7022   -1.1866    0.8598 C   0  0  0  0  0  0  0  0  0  0  0  0
   -0.5280   -0.4781   -1.3581 C   0  0  0  0  0  0  0  0  0  0  0  0
    0.3244   -0.1884   -0.2427 C   0  0  0  0  0  0  0  0  0  0  0  0
    1.2486   -1.1556    0.4186 C   0  0  0  0  0  0  0  0  0  0  0  0
    2.3937   -0.1910    0.0823 C   0  0  0  0  0  0  0  0  0  0  0  0
    1.3101    0.8832   -0.0864 C   0  0  0  0  0  0  0  0  0  0  0  0
    1.5194    1.7598   -1.1172 O   0  0  0  0  0  0  0  0  0  0  0  0
   -1.5536    1.8460   -0.8895 H   0  0  0  0  0  0  0  0  0  0  0  0
   -2.8934    1.1620    0.0472 H   0  0  0  0  0  0  0  0  0  0  0  0
   -1.4684    1.7904    0.9501 H   0  0  0  0  0  0  0  0  0  0  0  0
   -0.8938   -1.8358    1.3054 H   0  0  0  0  0  0  0  0  0  0  0  0
   -2.4773   -1.7755    0.3474 H   0  0  0  0  0  0  0  0  0  0  0  0
   -2.1584   -0.6697    1.7310 H   0  0  0  0  0  0  0  0  0  0  0  0
   -0.7094   -1.5637   -1.6105 H   0  0  0  0  0  0  0  0  0  0  0  0
   -0.7519    0.1800   -2.2019 H   0  0  0  0  0  0  0  0  0  0  0  0
    1.1266   -1.1751    1.5350 H   0  0  0  0  0  0  0  0  0  0  0  0
    1.3563   -2.1485   -0.0208 H   0  0  0  0  0  0  0  0  0  0  0  0
    3.0941   -0.0034    0.8923 H   0  0  0  0  0  0  0  0  0  0  0  0
    2.9033   -0.4790   -0.8336 H   0  0  0  0  0  0  0  0  0  0  0  0
    1.2042    1.3883    0.9182 H   0  0  0  0  0  0  0  0  0  0  0  0
    1.5558    2.6933   -0.7442 H   0  0  0  0  0  0  0  0  0  0  0  0
  1  2  1  0
  2  3  1  0
  2  4  1  0
  4  5  1  0
  5  6  1  0
  6  7  1  0
  7  8  1  0
  8  9  1  0
  5  2  1  0
  8  5  1  0
  1 10  1  0
  1 11  1  0
  1 12  1  0
  3 13  1  0
  3 14  1  0
  3 15  1  0
  4 16  1  0
  4 17  1  0
  6 18  1  0
  6 19  1  0
  7 20  1  0
  7 21  1  0
  8 22  1  0
  9 23  1  0
M  END
