
     RDKit          3D

 17 17  0  0  0  0  0  0  0  0999 V2000
    1.6774    0.5961    0.7558 C   0  0  0  0  0  0  0  0  0  0  0  0
    0.5837   -0.3195    0.2894 C   0  0  0  0  0  0  0  0  0  0  0  0
    0.9718   -1.5892   -0.0830 O   0  0  0  0  0  0  0  0  0  0  0  0
   -0.2089    0.3463   -0.8457 C   0  0  0  0  0  0  0  0  0  0  0  0
   -1.4340   -0.3584   -0.2477 C   0  0  0  0  0  0  0  0  0  0  0  0
   -2.5901    0.3780   -0.2873 O   0  0  0  0  0  0  0  0  0  0  0  0
   -0.6835   -0.3013    1.0905 C   0  0  0  0  0  0  0  0  0  0  0  0
    2.0487    0.3663    1.7607 H   0  0  0  0  0  0  0  0  0  0  0  0
    2.5385    0.4531    0.0587 H   0  0  0  0  0  0  0  0  0  0  0  0
    1.3705    1.6604    0.6230 H   0  0  0  0  0  0  0  0  0  0  0  0
    1.5486   -1.9950    0.6112 H   0  0  0  0  0  0  0  0  0  0  0  0
    0.1087   -0.0259   -1.8187 H   0  0  0  0  0  0  0  0  0  0  0  0
   -0.2568    1.4576   -0.7478 H   0  0  0  0  0  0  0  0  0  0  0  0
   -1.5134   -1.3911   -0.6305 H   0  0  0  0  0  0  0  0  0  0  0  0
   -2.4174    1.3550   -0.3783 H   0  0  0  0  0  0  0  0  0  0  0  0
   -0.8879    0.5967    1.6867 H   0  0  0  0  0  0  0  0  0  0  0  0
   -0.8561   -1.2293    1.6936 H   0  0  0  0  0  0  0  0  0  0  0  0
  1  2  1  0
  2  3  1  0
  2  4  1  0
  4  5  1  0
  5  6  1  0
  5  7  1  0
  7  2  1  0
  1  8  1  0
  1  9  1  0
  1 10  1  0
  3 11  1  0
  4 12  1  0
  4 13  1  0
  5 14  1  0
  6 15  1  0
  7 16  1  0
  7 17  1  0
M  END
