
     RDKit          3D

 13 13  0  0  0  0  0  0  0  0999 V2000
    1.2546    0.1383    0.4723 C   0  0  0  0  0  0  0  0  0  0  0  0
   -0.0032   -0.0605   -0.3127 C   0  0  0  0  0  0  0  0  0  0  0  0
    0.2115   -0.3785   -1.6418 O   0  0  0  0  0  0  0  0  0  0  0  0
   -1.1274   -0.7584    0.3738 C   0  0  0  0  0  0  0  0  0  0  0  0
   -1.3758    0.4824    1.0147 O   0  0  0  0  0  0  0  0  0  0  0  0
   -0.9027    1.1001   -0.1269 C   0  0  0  0  0  0  0  0  0  0  0  0
   -1.1355    2.1560   -0.7211 O   0  0  0  0  0  0  0  0  0  0  0  0
    1.1527   -0.0953    1.5382 H   0  0  0  0  0  0  0  0  0  0  0  0
    1.5506    1.2202    0.3352 H   0  0  0  0  0  0  0  0  0  0  0  0
    2.0927   -0.4484    0.0646 H   0  0  0  0  0  0  0  0  0  0  0  0
    1.0996   -0.7990   -1.7013 H   0  0  0  0  0  0  0  0  0  0  0  0
   -0.8674   -1.5918    1.0486 H   0  0  0  0  0  0  0  0  0  0  0  0
   -1.9496   -0.9652   -0.3437 H   0  0  0  0  0  0  0  0  0  0  0  0
  1  2  1  0
  2  3  1  0
  2  4  1  0
  4  5  1  0
  5  6  1  0
  6  7  2  0
  6  2  1  0
  1  8  1  0
  1  9  1  0
  1 10  1  0
  3 11  1  0
  4 12  1  0
  4 13  1  0
M  END
