
     RDKit          3D

 23 23  0  0  0  0  0  0  0  0999 V2000
   -2.1594   -0.9200   -0.0473 C   0  0  0  0  0  0  0  0  0  0  0  0
   -0.9581   -0.0136    0.0566 C   0  0  0  0  0  0  0  0  0  0  0  0
   -1.4078    1.3624   -0.4273 C   0  0  0  0  0  0  0  0  0  0  0  0
   -0.3724    0.0713    1.4141 C   0  0  0  0  0  0  0  0  0  0  0  0
    0.8896   -0.4311    1.4182 O   0  0  0  0  0  0  0  0  0  0  0  0
    1.2627   -0.8239    0.1713 C   0  0  0  0  0  0  0  0  0  0  0  0
    2.5759   -0.1238   -0.1767 C   0  0  0  0  0  0  0  0  0  0  0  0
    2.4543    1.2504   -0.1624 O   0  0  0  0  0  0  0  0  0  0  0  0
    0.1732   -0.4880   -0.8001 C   0  0  0  0  0  0  0  0  0  0  0  0
   -3.1080   -0.3491   -0.2322 H   0  0  0  0  0  0  0  0  0  0  0  0
   -2.2216   -1.5014    0.8727 H   0  0  0  0  0  0  0  0  0  0  0  0
   -2.0257   -1.5498   -0.9578 H   0  0  0  0  0  0  0  0  0  0  0  0
   -0.8682    2.1738    0.0955 H   0  0  0  0  0  0  0  0  0  0  0  0
   -2.5017    1.4699   -0.2141 H   0  0  0  0  0  0  0  0  0  0  0  0
   -1.2628    1.4862   -1.5083 H   0  0  0  0  0  0  0  0  0  0  0  0
   -0.9636   -0.4656    2.2004 H   0  0  0  0  0  0  0  0  0  0  0  0
   -0.3189    1.1337    1.7887 H   0  0  0  0  0  0  0  0  0  0  0  0
    1.4986   -1.9180    0.2077 H   0  0  0  0  0  0  0  0  0  0  0  0
    3.3101   -0.4958    0.5896 H   0  0  0  0  0  0  0  0  0  0  0  0
    2.8920   -0.4296   -1.1789 H   0  0  0  0  0  0  0  0  0  0  0  0
    2.7848    1.6797    0.6641 H   0  0  0  0  0  0  0  0  0  0  0  0
    0.4791    0.3024   -1.5264 H   0  0  0  0  0  0  0  0  0  0  0  0
   -0.1522   -1.4201   -1.3032 H   0  0  0  0  0  0  0  0  0  0  0  0
  1  2  1  0
  2  3  1  0
  2  4  1  0
  4  5  1  0
  5  6  1  0
  6  7  1  0
  7  8  1  0
  6  9  1  0
  9  2  1  0
  1 10  1  0
  1 11  1  0
  1 12  1  0
  3 13  1  0
  3 14  1  0
  3 15  1  0
  4 16  1  0
  4 17  1  0
  6 18  1  0
  7 19  1  0
  7 20  1  0
  8 21  1  0
  9 22  1  0
  9 23  1  0
M  END
