
     RDKit          3D

 19 20  0  0  0  0  0  0  0  0999 V2000
   -2.0709   -0.0856    0.5559 C   0  0  0  0  0  0  0  0  0  0  0  0
   -0.8058   -0.1460   -0.3100 C   0  0  0  0  0  0  0  0  0  0  0  0
   -1.1150   -0.3275   -1.6372 O   0  0  0  0  0  0  0  0  0  0  0  0
   -0.1093    1.1691   -0.0755 C   0  0  0  0  0  0  0  0  0  0  0  0
    1.1947    1.2635    0.1476 C   0  0  0  0  0  0  0  0  0  0  0  0
    2.0929    0.0738    0.1868 C   0  0  0  0  0  0  0  0  0  0  0  0
    1.3790   -0.9752   -0.5762 C   0  0  0  0  0  0  0  0  0  0  0  0
    0.8307   -2.1230   -0.2327 O   0  0  0  0  0  0  0  0  0  0  0  0
    0.0956   -1.1567    0.2761 C   0  0  0  0  0  0  0  0  0  0  0  0
   -1.9306    0.6296    1.4081 H   0  0  0  0  0  0  0  0  0  0  0  0
   -2.2013   -1.0913    1.0447 H   0  0  0  0  0  0  0  0  0  0  0  0
   -2.9465    0.2325   -0.0067 H   0  0  0  0  0  0  0  0  0  0  0  0
   -2.0603   -0.0235   -1.7992 H   0  0  0  0  0  0  0  0  0  0  0  0
   -0.7517    2.0704   -0.0989 H   0  0  0  0  0  0  0  0  0  0  0  0
    1.6143    2.2370    0.3055 H   0  0  0  0  0  0  0  0  0  0  0  0
    3.1170    0.3008   -0.1682 H   0  0  0  0  0  0  0  0  0  0  0  0
    2.2247   -0.2960    1.2415 H   0  0  0  0  0  0  0  0  0  0  0  0
    1.2530   -0.7039   -1.6451 H   0  0  0  0  0  0  0  0  0  0  0  0
    0.1895   -1.0482    1.3836 H   0  0  0  0  0  0  0  0  0  0  0  0
  1  2  1  0
  2  3  1  0
  2  4  1  0
  4  5  2  0
  5  6  1  0
  6  7  1  0
  7  8  1  0
  8  9  1  0
  9  2  1  0
  9  7  1  0
  1 10  1  0
  1 11  1  0
  1 12  1  0
  3 13  1  0
  4 14  1  0
  5 15  1  0
  6 16  1  0
  6 17  1  0
  7 18  1  0
  9 19  1  0
M  END
