
     RDKit          3D

 18 18  0  0  0  0  0  0  0  0999 V2000
   -1.3526   -1.0686   -0.6366 C   0  0  0  0  0  0  0  0  0  0  0  0
   -0.4068   -0.0223   -0.0786 C   0  0  0  0  0  0  0  0  0  0  0  0
   -1.2555    0.9365    0.7462 C   0  0  0  0  0  0  0  0  0  0  0  0
    0.6612   -0.6802    0.7270 C   0  0  0  0  0  0  0  0  0  0  0  0
    1.8294    0.2133    0.4405 C   0  0  0  0  0  0  0  0  0  0  0  0
    2.7650    0.4763    1.1495 O   0  0  0  0  0  0  0  0  0  0  0  0
    1.5249    0.6905   -0.9568 C   0  0  0  0  0  0  0  0  0  0  0  0
    0.1663    0.6944   -1.0932 O   0  0  0  0  0  0  0  0  0  0  0  0
   -0.9484   -2.0910   -0.4030 H   0  0  0  0  0  0  0  0  0  0  0  0
   -2.3801   -0.9570   -0.2572 H   0  0  0  0  0  0  0  0  0  0  0  0
   -1.4144   -0.9505   -1.7447 H   0  0  0  0  0  0  0  0  0  0  0  0
   -1.5322    0.4804    1.7319 H   0  0  0  0  0  0  0  0  0  0  0  0
   -2.2283    1.0315    0.1877 H   0  0  0  0  0  0  0  0  0  0  0  0
   -0.7900    1.9260    0.8465 H   0  0  0  0  0  0  0  0  0  0  0  0
    0.9288   -1.6681    0.2573 H   0  0  0  0  0  0  0  0  0  0  0  0
    0.4498   -0.7785    1.7957 H   0  0  0  0  0  0  0  0  0  0  0  0
    2.0192    0.0416   -1.7080 H   0  0  0  0  0  0  0  0  0  0  0  0
    1.9637    1.7258   -1.0043 H   0  0  0  0  0  0  0  0  0  0  0  0
  1  2  1  0
  2  3  1  0
  2  4  1  0
  4  5  1  0
  5  6  2  0
  5  7  1  0
  7  8  1  0
  8  2  1  0
  1  9  1  0
  1 10  1  0
  1 11  1  0
  3 12  1  0
  3 13  1  0
  3 14  1  0
  4 15  1  0
  4 16  1  0
  7 17  1  0
  7 18  1  0
M  END
