
     RDKit          3D

 17 18  0  0  0  0  0  0  0  0999 V2000
    2.1229   -0.2622   -0.7830 C   0  0  0  0  0  0  0  0  0  0  0  0
    0.9927    0.1201    0.1866 C   0  0  0  0  0  0  0  0  0  0  0  0
    1.5497    0.7274    1.3280 O   0  0  0  0  0  0  0  0  0  0  0  0
   -0.0597   -0.7995    0.3156 C   0  0  0  0  0  0  0  0  0  0  0  0
   -0.9890   -1.3399   -0.5192 O   0  0  0  0  0  0  0  0  0  0  0  0
   -2.1289   -0.5759   -0.1436 C   0  0  0  0  0  0  0  0  0  0  0  0
   -1.5668    0.7979    0.1908 C   0  0  0  0  0  0  0  0  0  0  0  0
   -2.1567    1.6896    0.7227 O   0  0  0  0  0  0  0  0  0  0  0  0
   -0.2009    0.6488   -0.3160 C   0  0  0  0  0  0  0  0  0  0  0  0
    2.8031   -0.9780   -0.2550 H   0  0  0  0  0  0  0  0  0  0  0  0
    1.7055   -0.6575   -1.7099 H   0  0  0  0  0  0  0  0  0  0  0  0
    2.7089    0.6775   -0.9181 H   0  0  0  0  0  0  0  0  0  0  0  0
    1.3181    1.6873    1.3201 H   0  0  0  0  0  0  0  0  0  0  0  0
   -0.4584   -0.9028    1.3740 H   0  0  0  0  0  0  0  0  0  0  0  0
   -2.8557   -0.5246   -0.9535 H   0  0  0  0  0  0  0  0  0  0  0  0
   -2.5131   -0.9709    0.8097 H   0  0  0  0  0  0  0  0  0  0  0  0
   -0.2718    0.6627   -1.4509 H   0  0  0  0  0  0  0  0  0  0  0  0
  1  2  1  0
  2  3  1  0
  2  4  1  0
  4  5  1  0
  5  6  1  0
  6  7  1  0
  7  8  2  0
  7  9  1  0
  9  2  1  0
  9  4  1  0
  1 10  1  0
  1 11  1  0
  1 12  1  0
  3 13  1  0
  4 14  1  0
  6 15  1  0
  6 16  1  0
  9 17  1  0
M  END
