
     RDKit          3D

 19 19  0  0  0  0  0  0  0  0999 V2000
   -2.1285   -0.6766    0.7002 C   0  0  0  0  0  0  0  0  0  0  0  0
   -0.9065   -0.2164   -0.1107 C   0  0  0  0  0  0  0  0  0  0  0  0
   -1.0759    1.1310   -0.7289 C   0  0  0  0  0  0  0  0  0  0  0  0
   -0.3518   -1.1375   -0.9999 O   0  0  0  0  0  0  0  0  0  0  0  0
    0.3365   -0.8920    0.1834 C   0  0  0  0  0  0  0  0  0  0  0  0
    1.6550   -0.2303    0.2317 C   0  0  0  0  0  0  0  0  0  0  0  0
    2.4982   -1.0285   -0.6004 O   0  0  0  0  0  0  0  0  0  0  0  0
    1.7996    1.1465   -0.1612 C   0  0  0  0  0  0  0  0  0  0  0  0
    1.3507    2.0608    0.5081 O   0  0  0  0  0  0  0  0  0  0  0  0
   -2.1428   -0.0163    1.5976 H   0  0  0  0  0  0  0  0  0  0  0  0
   -2.0137   -1.7285    1.0153 H   0  0  0  0  0  0  0  0  0  0  0  0
   -3.0693   -0.4789    0.1467 H   0  0  0  0  0  0  0  0  0  0  0  0
   -1.2695    1.9578   -0.0048 H   0  0  0  0  0  0  0  0  0  0  0  0
   -2.0299    1.0562   -1.3614 H   0  0  0  0  0  0  0  0  0  0  0  0
   -0.3142    1.4098   -1.4774 H   0  0  0  0  0  0  0  0  0  0  0  0
    0.2524   -1.8157    0.8591 H   0  0  0  0  0  0  0  0  0  0  0  0
    2.0258   -0.3596    1.3069 H   0  0  0  0  0  0  0  0  0  0  0  0
    3.0687   -1.6084   -0.0326 H   0  0  0  0  0  0  0  0  0  0  0  0
    2.3153    1.4265   -1.0716 H   0  0  0  0  0  0  0  0  0  0  0  0
  1  2  1  0
  2  3  1  0
  2  4  1  0
  4  5  1  0
  5  6  1  0
  6  7  1  0
  6  8  1  0
  8  9  2  0
  5  2  1  0
  1 10  1  0
  1 11  1  0
  1 12  1  0
  3 13  1  0
  3 14  1  0
  3 15  1  0
  5 16  1  0
  6 17  1  0
  7 18  1  0
  8 19  1  0
M  END
