
     RDKit          3D

 19 20  0  0  0  0  0  0  0  0999 V2000
   -0.7429    1.5616   -0.3009 C   0  0  0  0  0  0  0  0  0  0  0  0
   -0.7524    0.0987   -0.6115 C   0  0  0  0  0  0  0  0  0  0  0  0
   -1.5305   -0.1567   -1.7359 O   0  0  0  0  0  0  0  0  0  0  0  0
   -1.3624   -0.6194    0.5954 C   0  0  0  0  0  0  0  0  0  0  0  0
   -0.2637   -0.6522    1.4719 O   0  0  0  0  0  0  0  0  0  0  0  0
    0.7625   -1.1468    0.6761 C   0  0  0  0  0  0  0  0  0  0  0  0
    1.7023   -0.0612    0.1698 C   0  0  0  0  0  0  0  0  0  0  0  0
    2.9818   -0.5192   -0.0791 O   0  0  0  0  0  0  0  0  0  0  0  0
    0.6043   -0.5229   -0.6857 C   0  0  0  0  0  0  0  0  0  0  0  0
   -0.4440    1.6983    0.7702 H   0  0  0  0  0  0  0  0  0  0  0  0
   -1.7710    1.9504   -0.4275 H   0  0  0  0  0  0  0  0  0  0  0  0
   -0.0112    2.0480   -0.9630 H   0  0  0  0  0  0  0  0  0  0  0  0
   -2.4617    0.1314   -1.5001 H   0  0  0  0  0  0  0  0  0  0  0  0
   -2.1822   -0.0095    1.0291 H   0  0  0  0  0  0  0  0  0  0  0  0
   -1.6510   -1.6513    0.3627 H   0  0  0  0  0  0  0  0  0  0  0  0
    1.1291   -2.1659    0.7977 H   0  0  0  0  0  0  0  0  0  0  0  0
    1.6029    0.9654    0.5816 H   0  0  0  0  0  0  0  0  0  0  0  0
    3.5998    0.1639   -0.4145 H   0  0  0  0  0  0  0  0  0  0  0  0
    0.7905   -1.1126   -1.5987 H   0  0  0  0  0  0  0  0  0  0  0  0
  1  2  1  0
  2  3  1  0
  2  4  1  0
  4  5  1  0
  5  6  1  0
  6  7  1  0
  7  8  1  0
  7  9  1  0
  9  2  1  0
  9  6  1  0
  1 10  1  0
  1 11  1  0
  1 12  1  0
  3 13  1  0
  4 14  1  0
  4 15  1  0
  6 16  1  0
  7 17  1  0
  8 18  1  0
  9 19  1  0
M  END
