
     RDKit          3D

 20 20  0  0  0  0  0  0  0  0999 V2000
   -2.0774    0.5721   -0.0842 C   0  0  0  0  0  0  0  0  0  0  0  0
   -0.8981   -0.3429   -0.0564 C   0  0  0  0  0  0  0  0  0  0  0  0
   -1.1429   -1.5929   -0.6378 O   0  0  0  0  0  0  0  0  0  0  0  0
   -0.1462   -0.3330    1.2640 C   0  0  0  0  0  0  0  0  0  0  0  0
    0.4911    0.1442   -0.0304 C   0  0  0  0  0  0  0  0  0  0  0  0
    0.7186    1.6200   -0.2155 C   0  0  0  0  0  0  0  0  0  0  0  0
    1.6074   -0.7400   -0.5103 C   0  0  0  0  0  0  0  0  0  0  0  0
    1.7041   -1.9221    0.2151 O   0  0  0  0  0  0  0  0  0  0  0  0
   -2.5515    0.6362   -1.0941 H   0  0  0  0  0  0  0  0  0  0  0  0
   -1.8969    1.5811    0.2847 H   0  0  0  0  0  0  0  0  0  0  0  0
   -2.8705    0.0902    0.5613 H   0  0  0  0  0  0  0  0  0  0  0  0
   -1.8039   -1.4700   -1.3659 H   0  0  0  0  0  0  0  0  0  0  0  0
   -0.3578    0.4582    1.9966 H   0  0  0  0  0  0  0  0  0  0  0  0
    0.1011   -1.3232    1.6590 H   0  0  0  0  0  0  0  0  0  0  0  0
   -0.1793    2.0855   -0.6934 H   0  0  0  0  0  0  0  0  0  0  0  0
    1.6201    1.8377   -0.8395 H   0  0  0  0  0  0  0  0  0  0  0  0
    0.9209    2.0435    0.7959 H   0  0  0  0  0  0  0  0  0  0  0  0
    2.5636   -0.1725   -0.3207 H   0  0  0  0  0  0  0  0  0  0  0  0
    1.5742   -0.9762   -1.5743 H   0  0  0  0  0  0  0  0  0  0  0  0
    2.6234   -2.1956    0.3939 H   0  0  0  0  0  0  0  0  0  0  0  0
  1  2  1  0
  2  3  1  0
  2  4  1  0
  4  5  1  0
  5  6  1  0
  5  7  1  0
  7  8  1  0
  5  2  1  0
  1  9  1  0
  1 10  1  0
  1 11  1  0
  3 12  1  0
  4 13  1  0
  4 14  1  0
  6 15  1  0
  6 16  1  0
  6 17  1  0
  7 18  1  0
  7 19  1  0
  8 20  1  0
M  END
