
     RDKit          3D

 20 21  0  0  0  0  0  0  0  0999 V2000
   -1.2431    0.7358   -1.3275 C   0  0  0  0  0  0  0  0  0  0  0  0
   -0.5263    0.0784   -0.2112 C   0  0  0  0  0  0  0  0  0  0  0  0
   -1.3754   -0.5509    0.8390 C   0  0  0  0  0  0  0  0  0  0  0  0
    0.6534   -0.7993   -0.5837 C   0  0  0  0  0  0  0  0  0  0  0  0
    1.1129   -1.2133    0.7699 C   0  0  0  0  0  0  0  0  0  0  0  0
    1.0840   -0.0389    1.4526 C   0  0  0  0  0  0  0  0  0  0  0  0
    0.5721    0.9129    0.4324 C   0  0  0  0  0  0  0  0  0  0  0  0
    1.4219    0.4910   -0.7631 C   0  0  0  0  0  0  0  0  0  0  0  0
   -1.5610    1.7590   -0.9712 H   0  0  0  0  0  0  0  0  0  0  0  0
   -2.1712    0.1772   -1.5537 H   0  0  0  0  0  0  0  0  0  0  0  0
   -0.6898    0.8500   -2.2558 H   0  0  0  0  0  0  0  0  0  0  0  0
   -1.1400   -1.6454    0.9796 H   0  0  0  0  0  0  0  0  0  0  0  0
   -1.1890   -0.1075    1.8587 H   0  0  0  0  0  0  0  0  0  0  0  0
   -2.4666   -0.4911    0.6379 H   0  0  0  0  0  0  0  0  0  0  0  0
    0.5753   -1.4911   -1.3636 H   0  0  0  0  0  0  0  0  0  0  0  0
    1.4040   -2.1824    1.1543 H   0  0  0  0  0  0  0  0  0  0  0  0
    1.3617    0.1497    2.4717 H   0  0  0  0  0  0  0  0  0  0  0  0
    0.4213    1.9224    0.6413 H   0  0  0  0  0  0  0  0  0  0  0  0
    1.2585    1.0406   -1.6821 H   0  0  0  0  0  0  0  0  0  0  0  0
    2.4973    0.4028   -0.5256 H   0  0  0  0  0  0  0  0  0  0  0  0
  1  2  1  0
  2  3  1  0
  2  4  1  0
  4  5  1  0
  5  6  2  0
  6  7  1  0
  7  8  1  0
  7  2  1  0
  8  4  1  0
  1  9  1  0
  1 10  1  0
  1 11  1  0
  3 12  1  0
  3 13  1  0
  3 14  1  0
  4 15  1  0
  5 16  1  0
  6 17  1  0
  7 18  1  0
  8 19  1  0
  8 20  1  0
M  END
