
     RDKit          2D

 21 22  0  0  0  0  0  0  0  0999 V2000
   -3.1820   -0.0000    0.0000 C   0  0  0  0  0  0  0  0  0  0  0  0
   -2.1213   -1.0607    0.0000 C   0  0  0  0  0  0  0  0  0  0  0  0
   -3.1820   -2.1213    0.0000 C   0  0  0  0  0  0  0  0  0  0  0  0
   -1.0607   -2.1213    0.0000 C   0  0  0  0  0  0  0  0  0  0  0  0
   -0.0000   -1.0607    0.0000 C   0  0  0  0  0  0  0  0  0  0  0  0
    1.0607    0.0000    0.0000 O   0  0  0  0  0  0  0  0  0  0  0  0
    0.0000    1.0607    0.0000 C   0  0  0  0  0  0  0  0  0  0  0  0
   -1.0607    0.0000    0.0000 C   0  0  0  0  0  0  0  0  0  0  0  0
   -2.1213    1.0607    0.0000 O   0  0  0  0  0  0  0  0  0  0  0  0
   -4.2426    1.0607    0.0000 H   0  0  0  0  0  0  0  0  0  0  0  0
   -4.3640   -0.9235    0.0000 H   0  0  0  0  0  0  0  0  0  0  0  0
   -2.7714    0.6833    0.0000 H   0  0  0  0  0  0  0  0  0  0  0  0
   -4.2426   -3.1820    0.0000 H   0  0  0  0  0  0  0  0  0  0  0  0
   -4.3640   -1.1979    0.0000 H   0  0  0  0  0  0  0  0  0  0  0  0
   -2.2585   -3.3034    0.0000 H   0  0  0  0  0  0  0  0  0  0  0  0
   -1.9841   -3.3034    0.0000 H   0  0  0  0  0  0  0  0  0  0  0  0
   -0.0000   -3.1820    0.0000 H   0  0  0  0  0  0  0  0  0  0  0  0
    1.0607   -2.1213    0.0000 H   0  0  0  0  0  0  0  0  0  0  0  0
   -0.9235    2.2427    0.0000 H   0  0  0  0  0  0  0  0  0  0  0  0
    1.0607    2.1213    0.0000 H   0  0  0  0  0  0  0  0  0  0  0  0
   -1.9126    2.5461    0.0000 H   0  0  0  0  0  0  0  0  0  0  0  0
  1  2  1  0
  2  3  1  0
  2  4  1  0
  4  5  1  0
  5  6  1  0
  6  7  1  0
  7  8  1  0
  8  9  1  0
  8  2  1  0
  8  5  1  0
  1 10  1  0
  1 11  1  0
  1 12  1  0
  3 13  1  0
  3 14  1  0
  3 15  1  0
  4 16  1  0
  4 17  1  0
  5 18  1  0
  7 19  1  0
  7 20  1  0
  9 21  1  0
M  END
