
     RDKit          3D

 21 22  0  0  0  0  0  0  0  0999 V2000
    0.3440   -1.1448    1.0675 C   0  0  0  0  0  0  0  0  0  0  0  0
    0.4857   -0.1751   -0.0528 C   0  0  0  0  0  0  0  0  0  0  0  0
    1.8806    0.0327   -0.5814 C   0  0  0  0  0  0  0  0  0  0  0  0
    2.6428    0.5094    0.5073 O   0  0  0  0  0  0  0  0  0  0  0  0
   -0.2337    1.1261    0.0618 C   0  0  0  0  0  0  0  0  0  0  0  0
   -1.6335    0.8312    0.5466 C   0  0  0  0  0  0  0  0  0  0  0  0
   -1.8567   -0.4363   -0.3068 C   0  0  0  0  0  0  0  0  0  0  0  0
   -0.5805   -0.3578   -1.0950 C   0  0  0  0  0  0  0  0  0  0  0  0
   -0.4323    1.0289   -1.3377 O   0  0  0  0  0  0  0  0  0  0  0  0
   -0.0764   -2.1033    0.6560 H   0  0  0  0  0  0  0  0  0  0  0  0
   -0.2800   -0.8020    1.9071 H   0  0  0  0  0  0  0  0  0  0  0  0
    1.3784   -1.4402    1.4129 H   0  0  0  0  0  0  0  0  0  0  0  0
    1.8604    0.8093   -1.3603 H   0  0  0  0  0  0  0  0  0  0  0  0
    2.2830   -0.9261   -0.9513 H   0  0  0  0  0  0  0  0  0  0  0  0
    3.0324    1.3958    0.2777 H   0  0  0  0  0  0  0  0  0  0  0  0
    0.2688    1.9966    0.4217 H   0  0  0  0  0  0  0  0  0  0  0  0
   -2.2792    1.6523    0.1940 H   0  0  0  0  0  0  0  0  0  0  0  0
   -1.7075    0.6242    1.6099 H   0  0  0  0  0  0  0  0  0  0  0  0
   -2.7612   -0.3331   -0.9188 H   0  0  0  0  0  0  0  0  0  0  0  0
   -1.9184   -1.2689    0.3884 H   0  0  0  0  0  0  0  0  0  0  0  0
   -0.4165   -1.0190   -1.9129 H   0  0  0  0  0  0  0  0  0  0  0  0
  1  2  1  0
  2  3  1  0
  3  4  1  0
  2  5  1  0
  5  6  1  0
  6  7  1  0
  7  8  1  0
  8  9  1  0
  8  2  1  0
  9  5  1  0
  1 10  1  0
  1 11  1  0
  1 12  1  0
  3 13  1  0
  3 14  1  0
  4 15  1  0
  5 16  1  0
  6 17  1  0
  6 18  1  0
  7 19  1  0
  7 20  1  0
  8 21  1  0
M  END
