
     RDKit          3D

 19 19  0  0  0  0  0  0  0  0999 V2000
   -0.8662   -1.6151   -0.6207 C   0  0  0  0  0  0  0  0  0  0  0  0
   -0.3254   -0.3480    0.0017 C   0  0  0  0  0  0  0  0  0  0  0  0
    0.8817   -0.5699    0.8306 C   0  0  0  0  0  0  0  0  0  0  0  0
    0.9153   -1.3837    1.7343 O   0  0  0  0  0  0  0  0  0  0  0  0
    2.1231    0.2066    0.5876 C   0  0  0  0  0  0  0  0  0  0  0  0
    1.8811    1.0692   -0.4707 O   0  0  0  0  0  0  0  0  0  0  0  0
   -1.3577    0.5310    0.6494 C   0  0  0  0  0  0  0  0  0  0  0  0
   -1.3426    1.2598   -0.6594 C   0  0  0  0  0  0  0  0  0  0  0  0
   -0.1674    0.6236   -0.9816 O   0  0  0  0  0  0  0  0  0  0  0  0
   -1.8803   -1.3893   -0.9968 H   0  0  0  0  0  0  0  0  0  0  0  0
   -0.1982   -1.8375   -1.4971 H   0  0  0  0  0  0  0  0  0  0  0  0
   -0.8737   -2.4636    0.0846 H   0  0  0  0  0  0  0  0  0  0  0  0
    2.2814    0.8254    1.5193 H   0  0  0  0  0  0  0  0  0  0  0  0
    2.9921   -0.4565    0.4044 H   0  0  0  0  0  0  0  0  0  0  0  0
    2.5789    1.0372   -1.1706 H   0  0  0  0  0  0  0  0  0  0  0  0
   -2.3327    0.0522    0.8792 H   0  0  0  0  0  0  0  0  0  0  0  0
   -0.9736    1.0807    1.5228 H   0  0  0  0  0  0  0  0  0  0  0  0
   -1.1479    2.3433   -0.4836 H   0  0  0  0  0  0  0  0  0  0  0  0
   -2.1881    1.0345   -1.3333 H   0  0  0  0  0  0  0  0  0  0  0  0
  1  2  1  0
  2  3  1  0
  3  4  2  0
  3  5  1  0
  5  6  1  0
  2  7  1  0
  7  8  1  0
  8  9  1  0
  9  2  1  0
  1 10  1  0
  1 11  1  0
  1 12  1  0
  5 13  1  0
  5 14  1  0
  6 15  1  0
  7 16  1  0
  7 17  1  0
  8 18  1  0
  8 19  1  0
M  END
