
     RDKit          3D

 21 21  0  0  0  0  0  0  0  0999 V2000
   -1.7931    0.1783   -0.6452 C   0  0  0  0  0  0  0  0  0  0  0  0
   -0.5014   -0.1844    0.0298 C   0  0  0  0  0  0  0  0  0  0  0  0
   -0.6710   -1.4056    0.9326 C   0  0  0  0  0  0  0  0  0  0  0  0
    0.0395    0.9252    0.8972 C   0  0  0  0  0  0  0  0  0  0  0  0
    1.2029    1.6346    0.1887 C   0  0  0  0  0  0  0  0  0  0  0  0
    2.2392    0.6479    0.1233 O   0  0  0  0  0  0  0  0  0  0  0  0
    1.8691   -0.5442   -0.5174 C   0  0  0  0  0  0  0  0  0  0  0  0
    2.6559   -1.4932   -0.6015 O   0  0  0  0  0  0  0  0  0  0  0  0
    0.4827   -0.5693   -1.0739 C   0  0  0  0  0  0  0  0  0  0  0  0
   -1.8948    1.2691   -0.7609 H   0  0  0  0  0  0  0  0  0  0  0  0
   -1.8660   -0.2733   -1.6683 H   0  0  0  0  0  0  0  0  0  0  0  0
   -2.6912   -0.1907   -0.0928 H   0  0  0  0  0  0  0  0  0  0  0  0
   -1.5087   -1.2715    1.6232 H   0  0  0  0  0  0  0  0  0  0  0  0
    0.2667   -1.4235    1.5596 H   0  0  0  0  0  0  0  0  0  0  0  0
   -0.6731   -2.3424    0.3645 H   0  0  0  0  0  0  0  0  0  0  0  0
    0.5110    0.5052    1.8326 H   0  0  0  0  0  0  0  0  0  0  0  0
   -0.7253    1.6405    1.2223 H   0  0  0  0  0  0  0  0  0  0  0  0
    1.5234    2.4875    0.7909 H   0  0  0  0  0  0  0  0  0  0  0  0
    0.9097    1.8907   -0.8461 H   0  0  0  0  0  0  0  0  0  0  0  0
    0.2287   -1.5932   -1.4132 H   0  0  0  0  0  0  0  0  0  0  0  0
    0.3956    0.1125   -1.9454 H   0  0  0  0  0  0  0  0  0  0  0  0
  1  2  1  0
  2  3  1  0
  2  4  1  0
  4  5  1  0
  5  6  1  0
  6  7  1  0
  7  8  2  0
  7  9  1  0
  9  2  1  0
  1 10  1  0
  1 11  1  0
  1 12  1  0
  3 13  1  0
  3 14  1  0
  3 15  1  0
  4 16  1  0
  4 17  1  0
  5 18  1  0
  5 19  1  0
  9 20  1  0
  9 21  1  0
M  END
