
     RDKit          3D

 23 24  0  0  0  0  0  0  0  0999 V2000
   -1.7674   -0.2186    0.6960 C   0  0  0  0  0  0  0  0  0  0  0  0
   -0.6625    0.3722   -0.1276 C   0  0  0  0  0  0  0  0  0  0  0  0
   -0.9399    1.8495   -0.2070 C   0  0  0  0  0  0  0  0  0  0  0  0
   -0.8236   -0.1315   -1.4401 O   0  0  0  0  0  0  0  0  0  0  0  0
   -0.3028   -1.4123   -1.3407 C   0  0  0  0  0  0  0  0  0  0  0  0
    1.0374   -1.1457   -0.6744 C   0  0  0  0  0  0  0  0  0  0  0  0
    1.0436   -1.3183    0.7977 C   0  0  0  0  0  0  0  0  0  0  0  0
    0.7052    0.0214    0.3112 C   0  0  0  0  0  0  0  0  0  0  0  0
    1.7892    1.0623    0.4316 C   0  0  0  0  0  0  0  0  0  0  0  0
   -2.6773   -0.2711    0.0286 H   0  0  0  0  0  0  0  0  0  0  0  0
   -1.5649   -1.1928    1.1201 H   0  0  0  0  0  0  0  0  0  0  0  0
   -2.0833    0.4928    1.5145 H   0  0  0  0  0  0  0  0  0  0  0  0
   -1.9208    1.9502   -0.7608 H   0  0  0  0  0  0  0  0  0  0  0  0
   -1.1376    2.2387    0.8027 H   0  0  0  0  0  0  0  0  0  0  0  0
   -0.2130    2.4187   -0.7753 H   0  0  0  0  0  0  0  0  0  0  0  0
   -0.9137   -2.0688   -0.6846 H   0  0  0  0  0  0  0  0  0  0  0  0
   -0.1996   -1.9086   -2.3043 H   0  0  0  0  0  0  0  0  0  0  0  0
    1.9382   -1.0257   -1.2737 H   0  0  0  0  0  0  0  0  0  0  0  0
    0.2962   -2.0217    1.2152 H   0  0  0  0  0  0  0  0  0  0  0  0
    2.0490   -1.4852    1.2430 H   0  0  0  0  0  0  0  0  0  0  0  0
    2.7663    0.5545    0.1770 H   0  0  0  0  0  0  0  0  0  0  0  0
    1.6902    1.8974   -0.2516 H   0  0  0  0  0  0  0  0  0  0  0  0
    1.8911    1.3426    1.5024 H   0  0  0  0  0  0  0  0  0  0  0  0
  1  2  1  0
  2  3  1  0
  2  4  1  0
  4  5  1  0
  5  6  1  0
  6  7  1  0
  7  8  1  0
  8  9  1  0
  8  2  1  0
  8  6  1  0
  1 10  1  0
  1 11  1  0
  1 12  1  0
  3 13  1  0
  3 14  1  0
  3 15  1  0
  5 16  1  0
  5 17  1  0
  6 18  1  0
  7 19  1  0
  7 20  1  0
  9 21  1  0
  9 22  1  0
  9 23  1  0
M  END
