
     RDKit          3D

 21 21  0  0  0  0  0  0  0  0999 V2000
   -1.8797   -0.9481   -0.3776 C   0  0  0  0  0  0  0  0  0  0  0  0
   -1.0016    0.1184    0.2544 C   0  0  0  0  0  0  0  0  0  0  0  0
   -1.8946    0.9989    0.9081 O   0  0  0  0  0  0  0  0  0  0  0  0
   -0.2019   -0.5254    1.3013 C   0  0  0  0  0  0  0  0  0  0  0  0
    1.1105   -0.6676    1.2916 C   0  0  0  0  0  0  0  0  0  0  0  0
    1.9205   -0.1663    0.1725 C   0  0  0  0  0  0  0  0  0  0  0  0
    2.0850   -1.0836   -0.8546 O   0  0  0  0  0  0  0  0  0  0  0  0
    1.2488    1.0839   -0.3506 C   0  0  0  0  0  0  0  0  0  0  0  0
   -0.1688    0.8458   -0.7488 C   0  0  0  0  0  0  0  0  0  0  0  0
   -1.3028   -1.8715   -0.6174 H   0  0  0  0  0  0  0  0  0  0  0  0
   -2.6110   -1.2468    0.4067 H   0  0  0  0  0  0  0  0  0  0  0  0
   -2.4212   -0.5865   -1.2552 H   0  0  0  0  0  0  0  0  0  0  0  0
   -2.5777    1.2198    0.2306 H   0  0  0  0  0  0  0  0  0  0  0  0
   -0.7565   -0.9234    2.1710 H   0  0  0  0  0  0  0  0  0  0  0  0
    1.5820   -1.1615    2.1248 H   0  0  0  0  0  0  0  0  0  0  0  0
    2.9543    0.1371    0.4862 H   0  0  0  0  0  0  0  0  0  0  0  0
    1.6417   -0.7608   -1.6771 H   0  0  0  0  0  0  0  0  0  0  0  0
    1.3318    1.8625    0.4314 H   0  0  0  0  0  0  0  0  0  0  0  0
    1.8153    1.4296   -1.2276 H   0  0  0  0  0  0  0  0  0  0  0  0
   -0.6376    1.8639   -0.8959 H   0  0  0  0  0  0  0  0  0  0  0  0
   -0.2365    0.3816   -1.7738 H   0  0  0  0  0  0  0  0  0  0  0  0
  1  2  1  0
  2  3  1  0
  2  4  1  0
  4  5  2  0
  5  6  1  0
  6  7  1  0
  6  8  1  0
  8  9  1  0
  9  2  1  0
  1 10  1  0
  1 11  1  0
  1 12  1  0
  3 13  1  0
  4 14  1  0
  5 15  1  0
  6 16  1  0
  7 17  1  0
  8 18  1  0
  8 19  1  0
  9 20  1  0
  9 21  1  0
M  END
