
     RDKit          3D

 21 21  0  0  0  0  0  0  0  0999 V2000
   -1.5871   -1.0142   -0.3900 C   0  0  0  0  0  0  0  0  0  0  0  0
   -0.7191    0.1853    0.0083 C   0  0  0  0  0  0  0  0  0  0  0  0
   -1.6243    1.3545    0.1286 C   0  0  0  0  0  0  0  0  0  0  0  0
   -1.1510    2.4552   -0.0557 O   0  0  0  0  0  0  0  0  0  0  0  0
   -0.0930   -0.1396    1.3188 C   0  0  0  0  0  0  0  0  0  0  0  0
    1.3756   -0.0330    1.3323 C   0  0  0  0  0  0  0  0  0  0  0  0
    2.1520   -0.1437    0.2774 C   0  0  0  0  0  0  0  0  0  0  0  0
    1.4909   -0.3968   -1.0336 C   0  0  0  0  0  0  0  0  0  0  0  0
    0.2823    0.4984   -1.0767 C   0  0  0  0  0  0  0  0  0  0  0  0
   -2.5583   -0.8658    0.1655 H   0  0  0  0  0  0  0  0  0  0  0  0
   -1.1644   -1.9633   -0.0006 H   0  0  0  0  0  0  0  0  0  0  0  0
   -1.7434   -1.0404   -1.4859 H   0  0  0  0  0  0  0  0  0  0  0  0
   -2.6536    1.2224    0.3689 H   0  0  0  0  0  0  0  0  0  0  0  0
   -0.3490   -1.1731    1.6919 H   0  0  0  0  0  0  0  0  0  0  0  0
   -0.4839    0.5530    2.0948 H   0  0  0  0  0  0  0  0  0  0  0  0
    1.8780    0.1534    2.2906 H   0  0  0  0  0  0  0  0  0  0  0  0
    3.2276   -0.0531    0.3666 H   0  0  0  0  0  0  0  0  0  0  0  0
    1.1320   -1.4497   -1.1146 H   0  0  0  0  0  0  0  0  0  0  0  0
    2.1374   -0.1217   -1.8815 H   0  0  0  0  0  0  0  0  0  0  0  0
    0.6243    1.5435   -0.9326 H   0  0  0  0  0  0  0  0  0  0  0  0
   -0.1731    0.4286   -2.0722 H   0  0  0  0  0  0  0  0  0  0  0  0
  1  2  1  0
  2  3  1  0
  3  4  2  0
  2  5  1  0
  5  6  1  0
  6  7  2  0
  7  8  1  0
  8  9  1  0
  9  2  1  0
  1 10  1  0
  1 11  1  0
  1 12  1  0
  3 13  1  0
  5 14  1  0
  5 15  1  0
  6 16  1  0
  7 17  1  0
  8 18  1  0
  8 19  1  0
  9 20  1  0
  9 21  1  0
M  END
