
     RDKit          3D

 18 19  0  0  0  0  0  0  0  0999 V2000
    0.9237   -1.1222    0.9229 C   0  0  0  0  0  0  0  0  0  0  0  0
    0.5958   -0.0575   -0.1134 C   0  0  0  0  0  0  0  0  0  0  0  0
    1.8211    0.4817   -0.8164 C   0  0  0  0  0  0  0  0  0  0  0  0
   -0.6533   -0.0886   -0.8762 C   0  0  0  0  0  0  0  0  0  0  0  0
   -1.9965   -0.2933   -0.2627 C   0  0  0  0  0  0  0  0  0  0  0  0
   -1.5875    0.4254    0.9959 C   0  0  0  0  0  0  0  0  0  0  0  0
   -1.9656    0.5592    2.1240 O   0  0  0  0  0  0  0  0  0  0  0  0
   -0.4283    0.9552    0.2356 C   0  0  0  0  0  0  0  0  0  0  0  0
    1.9937   -1.3786    0.9445 H   0  0  0  0  0  0  0  0  0  0  0  0
    0.6760   -0.6962    1.9136 H   0  0  0  0  0  0  0  0  0  0  0  0
    0.3048   -2.0340    0.7513 H   0  0  0  0  0  0  0  0  0  0  0  0
    2.2886    1.2104   -0.0956 H   0  0  0  0  0  0  0  0  0  0  0  0
    2.5573   -0.2908   -1.0636 H   0  0  0  0  0  0  0  0  0  0  0  0
    1.5816    1.0438   -1.7310 H   0  0  0  0  0  0  0  0  0  0  0  0
   -0.6192    0.2662   -1.9239 H   0  0  0  0  0  0  0  0  0  0  0  0
   -2.3231   -1.3257   -0.1076 H   0  0  0  0  0  0  0  0  0  0  0  0
   -2.7540    0.3655   -0.7659 H   0  0  0  0  0  0  0  0  0  0  0  0
   -0.4150    1.9797   -0.1317 H   0  0  0  0  0  0  0  0  0  0  0  0
  1  2  1  0
  2  3  1  0
  2  4  1  0
  4  5  1  0
  5  6  1  0
  6  7  2  0
  6  8  1  0
  8  2  1  0
  8  4  1  0
  1  9  1  0
  1 10  1  0
  1 11  1  0
  3 12  1  0
  3 13  1  0
  3 14  1  0
  4 15  1  0
  5 16  1  0
  5 17  1  0
  8 18  1  0
M  END
