
     RDKit          3D

 16 17  0  0  0  0  0  0  0  0999 V2000
    1.4567   -0.8183   -0.7078 C   0  0  0  0  0  0  0  0  0  0  0  0
    0.3811   -0.0123   -0.0420 C   0  0  0  0  0  0  0  0  0  0  0  0
    0.8174    1.1598    0.7329 C   0  0  0  0  0  0  0  0  0  0  0  0
    1.0692    2.1848    0.0812 O   0  0  0  0  0  0  0  0  0  0  0  0
   -0.7192   -0.8408    0.5428 C   0  0  0  0  0  0  0  0  0  0  0  0
   -1.5984    0.3576    0.4717 C   0  0  0  0  0  0  0  0  0  0  0  0
   -0.8518    0.2552   -0.8305 C   0  0  0  0  0  0  0  0  0  0  0  0
   -1.1033   -1.1036   -0.7660 O   0  0  0  0  0  0  0  0  0  0  0  0
    1.2849   -0.9790   -1.7739 H   0  0  0  0  0  0  0  0  0  0  0  0
    1.5248   -1.7876   -0.1523 H   0  0  0  0  0  0  0  0  0  0  0  0
    2.4294   -0.2876   -0.5145 H   0  0  0  0  0  0  0  0  0  0  0  0
    0.9372    1.2133    1.7936 H   0  0  0  0  0  0  0  0  0  0  0  0
   -0.6431   -1.5119    1.2908 H   0  0  0  0  0  0  0  0  0  0  0  0
   -1.3282    1.1693    1.1431 H   0  0  0  0  0  0  0  0  0  0  0  0
   -2.6948    0.1430    0.3607 H   0  0  0  0  0  0  0  0  0  0  0  0
   -0.9618    0.8582   -1.6296 H   0  0  0  0  0  0  0  0  0  0  0  0
  1  2  1  0
  2  3  1  0
  3  4  2  0
  2  5  1  0
  5  6  1  0
  6  7  1  0
  7  8  1  0
  7  2  1  0
  8  5  1  0
  1  9  1  0
  1 10  1  0
  1 11  1  0
  3 12  1  0
  5 13  1  0
  6 14  1  0
  6 15  1  0
  7 16  1  0
M  END
