
     RDKit          3D

 19 19  0  0  0  0  0  0  0  0999 V2000
   -2.0225    0.0079    0.6538 C   0  0  0  0  0  0  0  0  0  0  0  0
   -0.8438   -0.0350   -0.2996 C   0  0  0  0  0  0  0  0  0  0  0  0
   -1.2478   -0.4618   -1.5514 O   0  0  0  0  0  0  0  0  0  0  0  0
   -0.1604    1.3288   -0.3887 C   0  0  0  0  0  0  0  0  0  0  0  0
    1.2419    1.0832    0.0476 C   0  0  0  0  0  0  0  0  0  0  0  0
    1.9938    1.9306    0.4631 O   0  0  0  0  0  0  0  0  0  0  0  0
    1.5212   -0.3703   -0.1258 C   0  0  0  0  0  0  0  0  0  0  0  0
    2.4915   -0.8447    0.7180 O   0  0  0  0  0  0  0  0  0  0  0  0
    0.1848   -0.9627    0.2958 C   0  0  0  0  0  0  0  0  0  0  0  0
   -1.6579   -0.0064    1.6948 H   0  0  0  0  0  0  0  0  0  0  0  0
   -2.6521    0.8874    0.5284 H   0  0  0  0  0  0  0  0  0  0  0  0
   -2.6290   -0.8986    0.4803 H   0  0  0  0  0  0  0  0  0  0  0  0
   -0.7170   -1.2246   -1.8827 H   0  0  0  0  0  0  0  0  0  0  0  0
   -0.1859    1.6599   -1.4664 H   0  0  0  0  0  0  0  0  0  0  0  0
   -0.6880    2.0604    0.2479 H   0  0  0  0  0  0  0  0  0  0  0  0
    1.7503   -0.5830   -1.1836 H   0  0  0  0  0  0  0  0  0  0  0  0
    3.4212   -0.7390    0.3582 H   0  0  0  0  0  0  0  0  0  0  0  0
    0.0680   -2.0041    0.0069 H   0  0  0  0  0  0  0  0  0  0  0  0
    0.1318   -0.8282    1.4033 H   0  0  0  0  0  0  0  0  0  0  0  0
  1  2  1  0
  2  3  1  0
  2  4  1  0
  4  5  1  0
  5  6  2  0
  5  7  1  0
  7  8  1  0
  7  9  1  0
  9  2  1  0
  1 10  1  0
  1 11  1  0
  1 12  1  0
  3 13  1  0
  4 14  1  0
  4 15  1  0
  7 16  1  0
  8 17  1  0
  9 18  1  0
  9 19  1  0
M  END
