
     RDKit          3D

 19 19  0  0  0  0  0  0  0  0999 V2000
   -1.1103    1.0331    0.8112 C   0  0  0  0  0  0  0  0  0  0  0  0
   -0.9026   -0.0031   -0.2819 C   0  0  0  0  0  0  0  0  0  0  0  0
    0.4603    0.1577   -0.9746 C   0  0  0  0  0  0  0  0  0  0  0  0
    0.6201    0.1970   -2.1381 O   0  0  0  0  0  0  0  0  0  0  0  0
    1.5824    0.2632    0.0338 C   0  0  0  0  0  0  0  0  0  0  0  0
    2.8676    0.7150   -0.6103 C   0  0  0  0  0  0  0  0  0  0  0  0
    3.6219   -0.1722   -1.0070 O   0  0  0  0  0  0  0  0  0  0  0  0
   -1.9648   -0.8327   -0.8019 C   0  0  0  0  0  0  0  0  0  0  0  0
   -1.0349   -1.4457    0.2122 C   0  0  0  0  0  0  0  0  0  0  0  0
   -0.3514    1.2008    1.5308 H   0  0  0  0  0  0  0  0  0  0  0  0
   -2.0653    0.7636    1.3361 H   0  0  0  0  0  0  0  0  0  0  0  0
   -1.2728    2.0237    0.2734 H   0  0  0  0  0  0  0  0  0  0  0  0
    1.3487    0.7837    0.9323 H   0  0  0  0  0  0  0  0  0  0  0  0
    1.6706   -0.8339    0.3619 H   0  0  0  0  0  0  0  0  0  0  0  0
    3.1007    1.7261   -0.7040 H   0  0  0  0  0  0  0  0  0  0  0  0
   -2.9839   -0.6126   -0.4015 H   0  0  0  0  0  0  0  0  0  0  0  0
   -1.9481   -1.2770   -1.8270 H   0  0  0  0  0  0  0  0  0  0  0  0
   -0.2374   -2.1351   -0.0642 H   0  0  0  0  0  0  0  0  0  0  0  0
   -1.4006   -1.5517    1.2571 H   0  0  0  0  0  0  0  0  0  0  0  0
  1  2  1  0
  2  3  1  0
  3  4  2  0
  3  5  1  0
  5  6  1  0
  6  7  2  0
  2  8  1  0
  8  9  1  0
  9  2  1  0
  1 10  1  0
  1 11  1  0
  1 12  1  0
  5 13  1  0
  5 14  1  0
  6 15  1  0
  8 16  1  0
  8 17  1  0
  9 18  1  0
  9 19  1  0
M  END
