
     RDKit          3D

 19 21  0  0  0  0  0  0  0  0999 V2000
   -2.3146    0.9221   -0.0116 C   0  0  0  0  0  0  0  0  0  0  0  0
   -1.1188    0.0123    0.0959 C   0  0  0  0  0  0  0  0  0  0  0  0
    0.2590    0.5353   -0.1226 C   0  0  0  0  0  0  0  0  0  0  0  0
    1.3568   -0.4915    0.0179 C   0  0  0  0  0  0  0  0  0  0  0  0
    2.7366   -0.0045   -0.2761 C   0  0  0  0  0  0  0  0  0  0  0  0
    2.5228    1.0203    0.6717 O   0  0  0  0  0  0  0  0  0  0  0  0
    1.2126    0.7226    0.9788 C   0  0  0  0  0  0  0  0  0  0  0  0
   -1.3480   -1.3778   -0.5111 C   0  0  0  0  0  0  0  0  0  0  0  0
   -1.3352   -1.1136    0.8891 O   0  0  0  0  0  0  0  0  0  0  0  0
   -3.0801    0.5222   -0.7233 H   0  0  0  0  0  0  0  0  0  0  0  0
   -2.0683    1.9386   -0.3369 H   0  0  0  0  0  0  0  0  0  0  0  0
   -2.8334    0.8975    0.9904 H   0  0  0  0  0  0  0  0  0  0  0  0
    0.3745    1.1507   -1.0574 H   0  0  0  0  0  0  0  0  0  0  0  0
    1.1655   -1.4551    0.4996 H   0  0  0  0  0  0  0  0  0  0  0  0
    3.5623   -0.6886   -0.0349 H   0  0  0  0  0  0  0  0  0  0  0  0
    2.7713    0.4580   -1.2892 H   0  0  0  0  0  0  0  0  0  0  0  0
    0.9100    0.5114    2.0105 H   0  0  0  0  0  0  0  0  0  0  0  0
   -2.3177   -1.5957   -0.9775 H   0  0  0  0  0  0  0  0  0  0  0  0
   -0.4553   -1.9642   -0.8132 H   0  0  0  0  0  0  0  0  0  0  0  0
  1  2  1  0
  2  3  1  0
  3  4  1  0
  4  5  1  0
  5  6  1  0
  6  7  1  0
  2  8  1  0
  8  9  1  0
  9  2  1  0
  7  3  1  0
  7  4  1  0
  1 10  1  0
  1 11  1  0
  1 12  1  0
  3 13  1  0
  4 14  1  0
  5 15  1  0
  5 16  1  0
  7 17  1  0
  8 18  1  0
  8 19  1  0
M  END
