
     RDKit          3D

 19 20  0  0  0  0  0  0  0  0999 V2000
   -2.0763    0.7361    0.5574 C   0  0  0  0  0  0  0  0  0  0  0  0
   -1.0033    0.2935   -0.3952 C   0  0  0  0  0  0  0  0  0  0  0  0
   -1.3531    0.6476   -1.7060 O   0  0  0  0  0  0  0  0  0  0  0  0
   -0.7637   -1.1798   -0.2827 C   0  0  0  0  0  0  0  0  0  0  0  0
    0.4850   -1.4185    0.1067 C   0  0  0  0  0  0  0  0  0  0  0  0
    1.1981   -0.1122    0.2909 C   0  0  0  0  0  0  0  0  0  0  0  0
    2.5384   -0.1494    0.9265 C   0  0  0  0  0  0  0  0  0  0  0  0
    1.3181    0.5735   -1.0406 O   0  0  0  0  0  0  0  0  0  0  0  0
    0.3375    0.8943   -0.0072 C   0  0  0  0  0  0  0  0  0  0  0  0
   -1.5796    0.9440    1.5369 H   0  0  0  0  0  0  0  0  0  0  0  0
   -2.6139    1.6173    0.1579 H   0  0  0  0  0  0  0  0  0  0  0  0
   -2.8095   -0.0905    0.6360 H   0  0  0  0  0  0  0  0  0  0  0  0
   -2.2491    0.2731   -1.8570 H   0  0  0  0  0  0  0  0  0  0  0  0
   -1.4684   -1.9812   -0.4776 H   0  0  0  0  0  0  0  0  0  0  0  0
    0.9269   -2.3956    0.2682 H   0  0  0  0  0  0  0  0  0  0  0  0
    2.5146   -0.2900    2.0121 H   0  0  0  0  0  0  0  0  0  0  0  0
    3.1814    0.7158    0.6576 H   0  0  0  0  0  0  0  0  0  0  0  0
    3.0793   -1.0511    0.5120 H   0  0  0  0  0  0  0  0  0  0  0  0
    0.3378    1.9731    0.1989 H   0  0  0  0  0  0  0  0  0  0  0  0
  1  2  1  0
  2  3  1  0
  2  4  1  0
  4  5  2  0
  5  6  1  0
  6  7  1  0
  6  8  1  0
  8  9  1  0
  9  2  1  0
  9  6  1  0
  1 10  1  0
  1 11  1  0
  1 12  1  0
  3 13  1  0
  4 14  1  0
  5 15  1  0
  7 16  1  0
  7 17  1  0
  7 18  1  0
  9 19  1  0
M  END
