
     RDKit          3D

 23 24  0  0  0  0  0  0  0  0999 V2000
   -0.7610   -1.1753   -1.2830 C   0  0  0  0  0  0  0  0  0  0  0  0
   -0.4430   -0.5181    0.0324 C   0  0  0  0  0  0  0  0  0  0  0  0
   -1.2363   -1.1701    1.1676 C   0  0  0  0  0  0  0  0  0  0  0  0
   -0.8168    0.9365   -0.0772 C   0  0  0  0  0  0  0  0  0  0  0  0
   -1.6564    1.3312    0.9593 O   0  0  0  0  0  0  0  0  0  0  0  0
    0.4636    1.7001   -0.1359 C   0  0  0  0  0  0  0  0  0  0  0  0
    1.5568    0.7700    0.3143 C   0  0  0  0  0  0  0  0  0  0  0  0
    2.0747   -0.2957   -0.5621 C   0  0  0  0  0  0  0  0  0  0  0  0
    1.0017   -0.5915    0.4064 C   0  0  0  0  0  0  0  0  0  0  0  0
    0.1156   -1.6879   -1.6882 H   0  0  0  0  0  0  0  0  0  0  0  0
   -1.5835   -1.9061   -1.1133 H   0  0  0  0  0  0  0  0  0  0  0  0
   -1.0780   -0.4309   -2.0590 H   0  0  0  0  0  0  0  0  0  0  0  0
   -1.1165   -2.2561    1.0370 H   0  0  0  0  0  0  0  0  0  0  0  0
   -2.2779   -0.8275    1.1953 H   0  0  0  0  0  0  0  0  0  0  0  0
   -0.7258   -0.8915    2.1099 H   0  0  0  0  0  0  0  0  0  0  0  0
   -1.3772    1.1556   -1.0248 H   0  0  0  0  0  0  0  0  0  0  0  0
   -1.6607    2.3241    0.9553 H   0  0  0  0  0  0  0  0  0  0  0  0
    0.3861    2.5663    0.5483 H   0  0  0  0  0  0  0  0  0  0  0  0
    0.7233    2.0809   -1.1403 H   0  0  0  0  0  0  0  0  0  0  0  0
    2.2409    1.1416    1.1054 H   0  0  0  0  0  0  0  0  0  0  0  0
    1.7790   -0.3217   -1.6364 H   0  0  0  0  0  0  0  0  0  0  0  0
    3.0878   -0.6790   -0.3737 H   0  0  0  0  0  0  0  0  0  0  0  0
    1.3037   -1.2549    1.2629 H   0  0  0  0  0  0  0  0  0  0  0  0
  1  2  1  0
  2  3  1  0
  2  4  1  0
  4  5  1  0
  4  6  1  0
  6  7  1  0
  7  8  1  0
  8  9  1  0
  9  2  1  0
  9  7  1  0
  1 10  1  0
  1 11  1  0
  1 12  1  0
  3 13  1  0
  3 14  1  0
  3 15  1  0
  4 16  1  0
  5 17  1  0
  6 18  1  0
  6 19  1  0
  7 20  1  0
  8 21  1  0
  8 22  1  0
  9 23  1  0
M  END
