
     RDKit          3D

 15 15  0  0  0  0  0  0  0  0999 V2000
    0.7258    1.1618   -0.8936 C   0  0  0  0  0  0  0  0  0  0  0  0
    0.3549   -0.0700   -0.1213 C   0  0  0  0  0  0  0  0  0  0  0  0
    1.2122   -0.4256    1.0405 C   0  0  0  0  0  0  0  0  0  0  0  0
    1.8794   -1.3831    1.1874 O   0  0  0  0  0  0  0  0  0  0  0  0
   -0.5100   -1.1654   -0.6818 C   0  0  0  0  0  0  0  0  0  0  0  0
   -1.1235   -0.1110    0.1382 C   0  0  0  0  0  0  0  0  0  0  0  0
   -1.5417   -0.3606    1.4141 O   0  0  0  0  0  0  0  0  0  0  0  0
   -0.1185    1.8448   -1.0939 H   0  0  0  0  0  0  0  0  0  0  0  0
    1.1558    0.7825   -1.8798 H   0  0  0  0  0  0  0  0  0  0  0  0
    1.5295    1.6894   -0.3664 H   0  0  0  0  0  0  0  0  0  0  0  0
    1.2382    0.2975    1.9100 H   0  0  0  0  0  0  0  0  0  0  0  0
   -0.5414   -2.1789   -0.2365 H   0  0  0  0  0  0  0  0  0  0  0  0
   -0.6036   -1.1716   -1.7974 H   0  0  0  0  0  0  0  0  0  0  0  0
   -1.8034    0.5744   -0.4395 H   0  0  0  0  0  0  0  0  0  0  0  0
   -1.8537    0.5159    1.8201 H   0  0  0  0  0  0  0  0  0  0  0  0
  1  2  1  0
  2  3  1  0
  3  4  2  0
  2  5  1  0
  5  6  1  0
  6  7  1  0
  6  2  1  0
  1  8  1  0
  1  9  1  0
  1 10  1  0
  3 11  1  0
  5 12  1  0
  5 13  1  0
  6 14  1  0
  7 15  1  0
M  END
