
     RDKit          3D

 25 26  0  0  0  0  0  0  0  0999 V2000
    2.0053    0.1994    0.2909 C   0  0  0  0  0  0  0  0  0  0  0  0
    0.7069   -0.3648   -0.1327 C   0  0  0  0  0  0  0  0  0  0  0  0
    0.8480   -1.6020   -0.9484 C   0  0  0  0  0  0  0  0  0  0  0  0
   -0.0845    0.7305   -0.8649 C   0  0  0  0  0  0  0  0  0  0  0  0
   -0.3092    1.7071    0.2595 C   0  0  0  0  0  0  0  0  0  0  0  0
   -0.3928    0.8599    1.5338 C   0  0  0  0  0  0  0  0  0  0  0  0
   -0.2926   -0.5268    1.0088 C   0  0  0  0  0  0  0  0  0  0  0  0
   -1.5612   -0.7956    0.1906 C   0  0  0  0  0  0  0  0  0  0  0  0
   -1.3846    0.0039   -1.0994 C   0  0  0  0  0  0  0  0  0  0  0  0
    2.5011    0.6401   -0.6241 H   0  0  0  0  0  0  0  0  0  0  0  0
    2.7185   -0.5896    0.6324 H   0  0  0  0  0  0  0  0  0  0  0  0
    1.9277    1.0100    1.0108 H   0  0  0  0  0  0  0  0  0  0  0  0
    1.8738   -1.9916   -1.0065 H   0  0  0  0  0  0  0  0  0  0  0  0
    0.5084   -1.4473   -1.9997 H   0  0  0  0  0  0  0  0  0  0  0  0
    0.1897   -2.3871   -0.4990 H   0  0  0  0  0  0  0  0  0  0  0  0
    0.4065    1.1127   -1.7348 H   0  0  0  0  0  0  0  0  0  0  0  0
   -1.3329    2.1503    0.0800 H   0  0  0  0  0  0  0  0  0  0  0  0
    0.4395    2.4929    0.3249 H   0  0  0  0  0  0  0  0  0  0  0  0
    0.3377    1.1476    2.2812 H   0  0  0  0  0  0  0  0  0  0  0  0
   -1.4033    0.9740    2.0021 H   0  0  0  0  0  0  0  0  0  0  0  0
   -0.0504   -1.3059    1.7039 H   0  0  0  0  0  0  0  0  0  0  0  0
   -1.7275   -1.8543    0.0100 H   0  0  0  0  0  0  0  0  0  0  0  0
   -2.3850   -0.3086    0.7740 H   0  0  0  0  0  0  0  0  0  0  0  0
   -2.1720    0.7839   -1.2051 H   0  0  0  0  0  0  0  0  0  0  0  0
   -1.3670   -0.6385   -1.9884 H   0  0  0  0  0  0  0  0  0  0  0  0
  1  2  1  0
  2  3  1  0
  2  4  1  0
  4  5  1  0
  5  6  1  0
  6  7  1  0
  7  8  1  0
  8  9  1  0
  7  2  1  0
  9  4  1  0
  1 10  1  0
  1 11  1  0
  1 12  1  0
  3 13  1  0
  3 14  1  0
  3 15  1  0
  4 16  1  0
  5 17  1  0
  5 18  1  0
  6 19  1  0
  6 20  1  0
  7 21  1  0
  8 22  1  0
  8 23  1  0
  9 24  1  0
  9 25  1  0
M  END
