
     RDKit          3D

 21 22  0  0  0  0  0  0  0  0999 V2000
   -1.7050    0.7419   -0.9015 C   0  0  0  0  0  0  0  0  0  0  0  0
   -1.0994   -0.1474    0.1273 C   0  0  0  0  0  0  0  0  0  0  0  0
   -2.1000   -0.8788    0.9746 C   0  0  0  0  0  0  0  0  0  0  0  0
   -0.1939    0.6780    0.9786 C   0  0  0  0  0  0  0  0  0  0  0  0
    1.0249    0.5886    0.4994 C   0  0  0  0  0  0  0  0  0  0  0  0
    2.4515    0.6263    0.1317 C   0  0  0  0  0  0  0  0  0  0  0  0
    2.2364   -0.8377   -0.3222 C   0  0  0  0  0  0  0  0  0  0  0  0
    0.8777   -0.3118   -0.7184 C   0  0  0  0  0  0  0  0  0  0  0  0
   -0.2264   -1.0943   -0.4069 O   0  0  0  0  0  0  0  0  0  0  0  0
   -0.8810    1.3826   -1.3050 H   0  0  0  0  0  0  0  0  0  0  0  0
   -2.2240    0.2204   -1.7188 H   0  0  0  0  0  0  0  0  0  0  0  0
   -2.4176    1.4131   -0.4206 H   0  0  0  0  0  0  0  0  0  0  0  0
   -1.5133   -1.5204    1.6816 H   0  0  0  0  0  0  0  0  0  0  0  0
   -2.7166   -1.5323    0.3311 H   0  0  0  0  0  0  0  0  0  0  0  0
   -2.6883   -0.1465    1.5570 H   0  0  0  0  0  0  0  0  0  0  0  0
   -0.5356    1.2505    1.8540 H   0  0  0  0  0  0  0  0  0  0  0  0
    3.1714    0.7313    0.9449 H   0  0  0  0  0  0  0  0  0  0  0  0
    2.6158    1.2491   -0.7730 H   0  0  0  0  0  0  0  0  0  0  0  0
    2.1828   -1.5144    0.5409 H   0  0  0  0  0  0  0  0  0  0  0  0
    2.9077   -1.1205   -1.1402 H   0  0  0  0  0  0  0  0  0  0  0  0
    0.8328    0.2223   -1.6630 H   0  0  0  0  0  0  0  0  0  0  0  0
  1  2  1  0
  2  3  1  0
  2  4  1  0
  4  5  2  0
  5  6  1  0
  6  7  1  0
  7  8  1  0
  8  9  1  0
  9  2  1  0
  8  5  1  0
  1 10  1  0
  1 11  1  0
  1 12  1  0
  3 13  1  0
  3 14  1  0
  3 15  1  0
  4 16  1  0
  6 17  1  0
  6 18  1  0
  7 19  1  0
  7 20  1  0
  8 21  1  0
M  END
