
     RDKit          3D

 23 23  0  0  0  0  0  0  0  0999 V2000
    1.2018   -1.0254   -0.9032 C   0  0  0  0  0  0  0  0  0  0  0  0
    0.7654   -0.0359    0.1303 C   0  0  0  0  0  0  0  0  0  0  0  0
    1.6932    1.1453    0.2748 C   0  0  0  0  0  0  0  0  0  0  0  0
    0.0676   -0.4515    1.3721 C   0  0  0  0  0  0  0  0  0  0  0  0
    0.0099   -1.8046    1.6479 O   0  0  0  0  0  0  0  0  0  0  0  0
   -0.7090    0.1360    0.2824 C   0  0  0  0  0  0  0  0  0  0  0  0
   -1.1820    1.5670    0.2988 C   0  0  0  0  0  0  0  0  0  0  0  0
   -1.6430   -0.8137   -0.4372 C   0  0  0  0  0  0  0  0  0  0  0  0
   -1.4466   -0.7510   -1.8335 O   0  0  0  0  0  0  0  0  0  0  0  0
    2.2728   -1.2787   -0.7461 H   0  0  0  0  0  0  0  0  0  0  0  0
    1.1677   -0.5142   -1.9011 H   0  0  0  0  0  0  0  0  0  0  0  0
    0.5546   -1.9099   -0.9851 H   0  0  0  0  0  0  0  0  0  0  0  0
    2.6014    0.7552    0.8241 H   0  0  0  0  0  0  0  0  0  0  0  0
    2.0745    1.4964   -0.6969 H   0  0  0  0  0  0  0  0  0  0  0  0
    1.2904    1.9437    0.9181 H   0  0  0  0  0  0  0  0  0  0  0  0
    0.2068    0.1707    2.2956 H   0  0  0  0  0  0  0  0  0  0  0  0
    0.4760   -2.3761    1.0087 H   0  0  0  0  0  0  0  0  0  0  0  0
   -1.4797    1.9038    1.3186 H   0  0  0  0  0  0  0  0  0  0  0  0
   -2.1011    1.7101   -0.3295 H   0  0  0  0  0  0  0  0  0  0  0  0
   -0.4307    2.2747   -0.1259 H   0  0  0  0  0  0  0  0  0  0  0  0
   -2.6745   -0.4490   -0.2477 H   0  0  0  0  0  0  0  0  0  0  0  0
   -1.5844   -1.8378   -0.0617 H   0  0  0  0  0  0  0  0  0  0  0  0
   -1.1312    0.1449   -2.1035 H   0  0  0  0  0  0  0  0  0  0  0  0
  1  2  1  0
  2  3  1  0
  2  4  1  0
  4  5  1  0
  4  6  1  0
  6  7  1  0
  6  8  1  0
  8  9  1  0
  6  2  1  0
  1 10  1  0
  1 11  1  0
  1 12  1  0
  3 13  1  0
  3 14  1  0
  3 15  1  0
  4 16  1  0
  5 17  1  0
  7 18  1  0
  7 19  1  0
  7 20  1  0
  8 21  1  0
  8 22  1  0
  9 23  1  0
M  END
