
     RDKit          3D

 21 21  0  0  0  0  0  0  0  0999 V2000
    1.3766   -0.7344    0.7849 C   0  0  0  0  0  0  0  0  0  0  0  0
    0.5744    0.0836   -0.1687 C   0  0  0  0  0  0  0  0  0  0  0  0
    1.2340    0.4064   -1.4800 C   0  0  0  0  0  0  0  0  0  0  0  0
    0.0088    1.3115    0.5566 C   0  0  0  0  0  0  0  0  0  0  0  0
   -1.1659    0.3897    0.9218 C   0  0  0  0  0  0  0  0  0  0  0  0
   -2.3909    0.9977    0.9475 O   0  0  0  0  0  0  0  0  0  0  0  0
   -0.8583   -0.3367   -0.3775 C   0  0  0  0  0  0  0  0  0  0  0  0
   -1.1398   -1.7613   -0.4093 C   0  0  0  0  0  0  0  0  0  0  0  0
   -1.6167   -2.2772   -1.4010 O   0  0  0  0  0  0  0  0  0  0  0  0
    2.2686   -1.1341    0.2200 H   0  0  0  0  0  0  0  0  0  0  0  0
    0.8226   -1.5187    1.3070 H   0  0  0  0  0  0  0  0  0  0  0  0
    1.8412   -0.0723    1.5726 H   0  0  0  0  0  0  0  0  0  0  0  0
    1.4348   -0.5542   -1.9924 H   0  0  0  0  0  0  0  0  0  0  0  0
    0.5849    1.0794   -2.0591 H   0  0  0  0  0  0  0  0  0  0  0  0
    2.2264    0.8718   -1.2285 H   0  0  0  0  0  0  0  0  0  0  0  0
   -0.2783    2.1387   -0.1020 H   0  0  0  0  0  0  0  0  0  0  0  0
    0.5736    1.6173    1.4412 H   0  0  0  0  0  0  0  0  0  0  0  0
   -0.8758   -0.1858    1.8281 H   0  0  0  0  0  0  0  0  0  0  0  0
   -2.3849    1.8384    0.4193 H   0  0  0  0  0  0  0  0  0  0  0  0
   -1.3006    0.2361   -1.2204 H   0  0  0  0  0  0  0  0  0  0  0  0
   -0.9347   -2.3957    0.4400 H   0  0  0  0  0  0  0  0  0  0  0  0
  1  2  1  0
  2  3  1  0
  2  4  1  0
  4  5  1  0
  5  6  1  0
  5  7  1  0
  7  8  1  0
  8  9  2  0
  7  2  1  0
  1 10  1  0
  1 11  1  0
  1 12  1  0
  3 13  1  0
  3 14  1  0
  3 15  1  0
  4 16  1  0
  4 17  1  0
  5 18  1  0
  6 19  1  0
  7 20  1  0
  8 21  1  0
M  END
