
     RDKit          3D

 18 18  0  0  0  0  0  0  0  0999 V2000
    0.3723   -1.7479   -0.8140 C   0  0  0  0  0  0  0  0  0  0  0  0
    0.1472   -0.3763   -0.2965 C   0  0  0  0  0  0  0  0  0  0  0  0
    1.4233    0.3880    0.0487 C   0  0  0  0  0  0  0  0  0  0  0  0
    1.0815    1.6531    0.5206 O   0  0  0  0  0  0  0  0  0  0  0  0
   -1.0002   -0.2989    0.7250 C   0  0  0  0  0  0  0  0  0  0  0  0
   -0.6476    0.2799    1.9160 O   0  0  0  0  0  0  0  0  0  0  0  0
   -1.0305    0.4433   -0.5570 C   0  0  0  0  0  0  0  0  0  0  0  0
   -0.9077    1.8326   -0.4775 O   0  0  0  0  0  0  0  0  0  0  0  0
    1.0376   -1.8297   -1.6732 H   0  0  0  0  0  0  0  0  0  0  0  0
   -0.6351   -2.1962   -1.0368 H   0  0  0  0  0  0  0  0  0  0  0  0
    0.7768   -2.3662    0.0415 H   0  0  0  0  0  0  0  0  0  0  0  0
    1.8755   -0.1704    0.9076 H   0  0  0  0  0  0  0  0  0  0  0  0
    2.0546    0.4204   -0.8356 H   0  0  0  0  0  0  0  0  0  0  0  0
    1.8666    2.2469    0.5354 H   0  0  0  0  0  0  0  0  0  0  0  0
   -1.6892   -1.1479    0.8039 H   0  0  0  0  0  0  0  0  0  0  0  0
   -1.3841    0.4111    2.5326 H   0  0  0  0  0  0  0  0  0  0  0  0
   -1.7919    0.1397   -1.3211 H   0  0  0  0  0  0  0  0  0  0  0  0
   -1.5492    2.3184   -1.0198 H   0  0  0  0  0  0  0  0  0  0  0  0
  1  2  1  0
  2  3  1  0
  3  4  1  0
  2  5  1  0
  5  6  1  0
  5  7  1  0
  7  8  1  0
  7  2  1  0
  1  9  1  0
  1 10  1  0
  1 11  1  0
  3 12  1  0
  3 13  1  0
  4 14  1  0
  5 15  1  0
  6 16  1  0
  7 17  1  0
  8 18  1  0
M  END
