
     RDKit          3D

 20 20  0  0  0  0  0  0  0  0999 V2000
   -1.2025    1.3872    0.7510 C   0  0  0  0  0  0  0  0  0  0  0  0
   -0.5934    0.1548    0.1225 C   0  0  0  0  0  0  0  0  0  0  0  0
   -1.6749   -0.7813   -0.2746 C   0  0  0  0  0  0  0  0  0  0  0  0
   -2.1245   -1.6473    0.4319 O   0  0  0  0  0  0  0  0  0  0  0  0
    0.3881   -0.5155    1.0839 C   0  0  0  0  0  0  0  0  0  0  0  0
    1.7182   -0.4692    0.3622 C   0  0  0  0  0  0  0  0  0  0  0  0
    1.2513   -0.6178   -1.0918 C   0  0  0  0  0  0  0  0  0  0  0  0
    0.2099    0.4920   -1.1155 C   0  0  0  0  0  0  0  0  0  0  0  0
   -1.1167    2.2068    0.0334 H   0  0  0  0  0  0  0  0  0  0  0  0
   -2.3016    1.2321    0.9259 H   0  0  0  0  0  0  0  0  0  0  0  0
   -0.6678    1.6502    1.6648 H   0  0  0  0  0  0  0  0  0  0  0  0
   -2.0879   -0.6766   -1.2714 H   0  0  0  0  0  0  0  0  0  0  0  0
    0.1159   -1.5966    1.1601 H   0  0  0  0  0  0  0  0  0  0  0  0
    0.4058   -0.0366    2.0594 H   0  0  0  0  0  0  0  0  0  0  0  0
    2.4131   -1.2472    0.6589 H   0  0  0  0  0  0  0  0  0  0  0  0
    2.1538    0.5616    0.4074 H   0  0  0  0  0  0  0  0  0  0  0  0
    2.0566   -0.4656   -1.8055 H   0  0  0  0  0  0  0  0  0  0  0  0
    0.7127   -1.5642   -1.1625 H   0  0  0  0  0  0  0  0  0  0  0  0
   -0.3915    0.4936   -2.0321 H   0  0  0  0  0  0  0  0  0  0  0  0
    0.7353    1.4398   -0.9079 H   0  0  0  0  0  0  0  0  0  0  0  0
  1  2  1  0
  2  3  1  0
  3  4  2  0
  2  5  1  0
  5  6  1  0
  6  7  1  0
  7  8  1  0
  8  2  1  0
  1  9  1  0
  1 10  1  0
  1 11  1  0
  3 12  1  0
  5 13  1  0
  5 14  1  0
  6 15  1  0
  6 16  1  0
  7 17  1  0
  7 18  1  0
  8 19  1  0
  8 20  1  0
M  END
