
     RDKit          3D

 15 15  0  0  0  0  0  0  0  0999 V2000
   -0.6620    1.3848   -0.3443 C   0  0  0  0  0  0  0  0  0  0  0  0
   -0.0990    0.0251    0.0718 C   0  0  0  0  0  0  0  0  0  0  0  0
   -1.0942   -1.0834    0.2324 C   0  0  0  0  0  0  0  0  0  0  0  0
    1.2072   -0.3976   -0.6045 C   0  0  0  0  0  0  0  0  0  0  0  0
    1.1832    0.0442    0.8076 C   0  0  0  0  0  0  0  0  0  0  0  0
   -1.6618    1.4704    0.1004 H   0  0  0  0  0  0  0  0  0  0  0  0
   -0.6350    1.4280   -1.4374 H   0  0  0  0  0  0  0  0  0  0  0  0
    0.0106    2.1952    0.0267 H   0  0  0  0  0  0  0  0  0  0  0  0
   -0.7502   -2.0382   -0.2583 H   0  0  0  0  0  0  0  0  0  0  0  0
   -1.3180   -1.3314    1.2915 H   0  0  0  0  0  0  0  0  0  0  0  0
   -2.0533   -0.7809   -0.2416 H   0  0  0  0  0  0  0  0  0  0  0  0
    1.3656   -1.4791   -0.8020 H   0  0  0  0  0  0  0  0  0  0  0  0
    1.5210    0.2518   -1.4315 H   0  0  0  0  0  0  0  0  0  0  0  0
    1.6529    1.0400    0.9967 H   0  0  0  0  0  0  0  0  0  0  0  0
    1.3330   -0.7289    1.5923 H   0  0  0  0  0  0  0  0  0  0  0  0
  1  2  1  0
  2  3  1  0
  2  4  1  0
  4  5  1  0
  5  2  1  0
  1  6  1  0
  1  7  1  0
  1  8  1  0
  3  9  1  0
  3 10  1  0
  3 11  1  0
  4 12  1  0
  4 13  1  0
  5 14  1  0
  5 15  1  0
M  END
