
     RDKit          3D

 18 19  0  0  0  0  0  0  0  0999 V2000
   -1.4305   -1.2632    0.6182 C   0  0  0  0  0  0  0  0  0  0  0  0
   -0.6695   -0.0889   -0.0162 C   0  0  0  0  0  0  0  0  0  0  0  0
   -1.6638    0.8870   -0.6552 C   0  0  0  0  0  0  0  0  0  0  0  0
    0.5452   -0.3043   -0.6798 C   0  0  0  0  0  0  0  0  0  0  0  0
    1.6151    0.4624   -1.0287 O   0  0  0  0  0  0  0  0  0  0  0  0
    2.4511    0.2731    0.1013 C   0  0  0  0  0  0  0  0  0  0  0  0
    1.5954   -0.0936    1.1679 O   0  0  0  0  0  0  0  0  0  0  0  0
    0.4117    0.4146    0.7271 C   0  0  0  0  0  0  0  0  0  0  0  0
   -2.3635   -1.4824    0.0659 H   0  0  0  0  0  0  0  0  0  0  0  0
   -0.7297   -2.1249    0.6356 H   0  0  0  0  0  0  0  0  0  0  0  0
   -1.6454   -0.9389    1.6613 H   0  0  0  0  0  0  0  0  0  0  0  0
   -1.9745    1.5618    0.1771 H   0  0  0  0  0  0  0  0  0  0  0  0
   -1.1907    1.4548   -1.4834 H   0  0  0  0  0  0  0  0  0  0  0  0
   -2.5520    0.3728   -1.0111 H   0  0  0  0  0  0  0  0  0  0  0  0
    0.9110   -1.3802   -0.6312 H   0  0  0  0  0  0  0  0  0  0  0  0
    3.2133   -0.4997   -0.0856 H   0  0  0  0  0  0  0  0  0  0  0  0
    2.9571    1.2048    0.3930 H   0  0  0  0  0  0  0  0  0  0  0  0
    0.5195    1.5448    0.6979 H   0  0  0  0  0  0  0  0  0  0  0  0
  1  2  1  0
  2  3  1  0
  2  4  1  0
  4  5  1  0
  5  6  1  0
  6  7  1  0
  7  8  1  0
  8  2  1  0
  8  4  1  0
  1  9  1  0
  1 10  1  0
  1 11  1  0
  3 12  1  0
  3 13  1  0
  3 14  1  0
  4 15  1  0
  6 16  1  0
  6 17  1  0
  8 18  1  0
M  END
