
     RDKit          3D

 19 19  0  0  0  0  0  0  0  0999 V2000
    1.7396   -0.9182   -0.2391 C   0  0  0  0  0  0  0  0  0  0  0  0
    0.8584    0.2386    0.2170 C   0  0  0  0  0  0  0  0  0  0  0  0
    1.7034    1.1466    0.8575 O   0  0  0  0  0  0  0  0  0  0  0  0
    0.0898    0.8561   -0.9059 C   0  0  0  0  0  0  0  0  0  0  0  0
   -1.3558    0.7880   -0.4685 C   0  0  0  0  0  0  0  0  0  0  0  0
   -1.4086   -0.3954    0.4856 C   0  0  0  0  0  0  0  0  0  0  0  0
   -1.3626   -1.6039   -0.1935 O   0  0  0  0  0  0  0  0  0  0  0  0
   -0.1063   -0.2696    1.2113 C   0  0  0  0  0  0  0  0  0  0  0  0
    0.1075   -0.5270    2.3567 O   0  0  0  0  0  0  0  0  0  0  0  0
    2.6209   -0.5575   -0.8157 H   0  0  0  0  0  0  0  0  0  0  0  0
    1.1957   -1.6333   -0.8781 H   0  0  0  0  0  0  0  0  0  0  0  0
    2.1186   -1.3908    0.6983 H   0  0  0  0  0  0  0  0  0  0  0  0
    1.2402    1.9412    1.1749 H   0  0  0  0  0  0  0  0  0  0  0  0
    0.1930    0.3195   -1.8732 H   0  0  0  0  0  0  0  0  0  0  0  0
    0.3874    1.9145   -1.0972 H   0  0  0  0  0  0  0  0  0  0  0  0
   -2.0124    0.6445   -1.3379 H   0  0  0  0  0  0  0  0  0  0  0  0
   -1.5730    1.6885    0.1155 H   0  0  0  0  0  0  0  0  0  0  0  0
   -2.2204   -0.3166    1.2132 H   0  0  0  0  0  0  0  0  0  0  0  0
   -2.2154   -1.9251   -0.5208 H   0  0  0  0  0  0  0  0  0  0  0  0
  1  2  1  0
  2  3  1  0
  2  4  1  0
  4  5  1  0
  5  6  1  0
  6  7  1  0
  6  8  1  0
  8  9  2  0
  8  2  1  0
  1 10  1  0
  1 11  1  0
  1 12  1  0
  3 13  1  0
  4 14  1  0
  4 15  1  0
  5 16  1  0
  5 17  1  0
  6 18  1  0
  7 19  1  0
M  END
