
     RDKit          3D

 19 20  0  0  0  0  0  0  0  0999 V2000
   -1.2136   -1.2372    0.1224 C   0  0  0  0  0  0  0  0  0  0  0  0
   -0.5794    0.1243    0.1819 C   0  0  0  0  0  0  0  0  0  0  0  0
    0.8933    0.2214    0.3147 C   0  0  0  0  0  0  0  0  0  0  0  0
    1.5874   -0.4570   -0.8718 C   0  0  0  0  0  0  0  0  0  0  0  0
    2.5814   -0.6905    0.1872 C   0  0  0  0  0  0  0  0  0  0  0  0
    3.8114   -0.7984    0.2446 O   0  0  0  0  0  0  0  0  0  0  0  0
    1.5449   -0.7371    1.0907 O   0  0  0  0  0  0  0  0  0  0  0  0
   -1.4584    1.1862    0.8508 C   0  0  0  0  0  0  0  0  0  0  0  0
   -1.2135    1.2531   -0.6179 C   0  0  0  0  0  0  0  0  0  0  0  0
   -2.3272   -1.1569    0.2418 H   0  0  0  0  0  0  0  0  0  0  0  0
   -0.8683   -1.8255    0.9978 H   0  0  0  0  0  0  0  0  0  0  0  0
   -1.0094   -1.7848   -0.8106 H   0  0  0  0  0  0  0  0  0  0  0  0
    1.2733    1.2307    0.5110 H   0  0  0  0  0  0  0  0  0  0  0  0
    1.0730   -1.3967   -1.1469 H   0  0  0  0  0  0  0  0  0  0  0  0
    1.8569    0.2272   -1.6753 H   0  0  0  0  0  0  0  0  0  0  0  0
   -0.8685    1.8413    1.5399 H   0  0  0  0  0  0  0  0  0  0  0  0
   -2.4932    0.9016    1.1332 H   0  0  0  0  0  0  0  0  0  0  0  0
   -2.0315    1.0213   -1.3122 H   0  0  0  0  0  0  0  0  0  0  0  0
   -0.5587    2.0770   -0.9814 H   0  0  0  0  0  0  0  0  0  0  0  0
  1  2  1  0
  2  3  1  0
  3  4  1  0
  4  5  1  0
  5  6  2  0
  5  7  1  0
  2  8  1  0
  8  9  1  0
  9  2  1  0
  7  3  1  0
  1 10  1  0
  1 11  1  0
  1 12  1  0
  3 13  1  0
  4 14  1  0
  4 15  1  0
  8 16  1  0
  8 17  1  0
  9 18  1  0
  9 19  1  0
M  END
