
     RDKit          3D

 19 20  0  0  0  0  0  0  0  0999 V2000
   -2.1575    0.1063    0.8524 C   0  0  0  0  0  0  0  0  0  0  0  0
   -0.9983   -0.1147   -0.1354 C   0  0  0  0  0  0  0  0  0  0  0  0
   -0.8326    1.0620   -1.0102 C   0  0  0  0  0  0  0  0  0  0  0  0
   -1.0194    0.8359   -2.2451 O   0  0  0  0  0  0  0  0  0  0  0  0
   -0.3387   -1.3690   -0.3852 C   0  0  0  0  0  0  0  0  0  0  0  0
    0.2680   -0.5296    0.6508 C   0  0  0  0  0  0  0  0  0  0  0  0
    1.4394    0.3314    0.4717 C   0  0  0  0  0  0  0  0  0  0  0  0
    2.6894    0.0381   -0.1388 C   0  0  0  0  0  0  0  0  0  0  0  0
    1.6513    0.5667   -1.0022 O   0  0  0  0  0  0  0  0  0  0  0  0
   -2.2869   -0.7486    1.5127 H   0  0  0  0  0  0  0  0  0  0  0  0
   -2.0037    1.0744    1.3405 H   0  0  0  0  0  0  0  0  0  0  0  0
   -3.0559    0.2269    0.1775 H   0  0  0  0  0  0  0  0  0  0  0  0
   -0.5621    2.0516   -0.7500 H   0  0  0  0  0  0  0  0  0  0  0  0
   -0.8813   -2.3018   -0.0338 H   0  0  0  0  0  0  0  0  0  0  0  0
    0.1316   -1.5447   -1.3790 H   0  0  0  0  0  0  0  0  0  0  0  0
    0.1255   -0.8778    1.7063 H   0  0  0  0  0  0  0  0  0  0  0  0
    1.3063    1.3814    0.8775 H   0  0  0  0  0  0  0  0  0  0  0  0
    3.0025   -0.9527   -0.4708 H   0  0  0  0  0  0  0  0  0  0  0  0
    3.5223    0.7643   -0.0388 H   0  0  0  0  0  0  0  0  0  0  0  0
  1  2  1  0
  2  3  1  0
  3  4  2  0
  2  5  1  0
  5  6  1  0
  6  7  1  0
  7  8  1  0
  8  9  1  0
  6  2  1  0
  9  7  1  0
  1 10  1  0
  1 11  1  0
  1 12  1  0
  3 13  1  0
  5 14  1  0
  5 15  1  0
  6 16  1  0
  7 17  1  0
  8 18  1  0
  8 19  1  0
M  END
