
     RDKit          3D

 23 23  0  0  0  0  0  0  0  0999 V2000
   -1.5053    1.2121    0.9217 C   0  0  0  0  0  0  0  0  0  0  0  0
   -1.1132    0.0417    0.0905 C   0  0  0  0  0  0  0  0  0  0  0  0
    0.2960    0.0070   -0.4082 C   0  0  0  0  0  0  0  0  0  0  0  0
    1.3355    0.0048    0.6585 C   0  0  0  0  0  0  0  0  0  0  0  0
    2.6962   -0.0318   -0.0185 C   0  0  0  0  0  0  0  0  0  0  0  0
    3.7346   -0.0367    0.8810 O   0  0  0  0  0  0  0  0  0  0  0  0
   -1.7140   -1.2388    0.5481 C   0  0  0  0  0  0  0  0  0  0  0  0
   -2.9140   -0.8493   -0.0885 O   0  0  0  0  0  0  0  0  0  0  0  0
   -2.0929   -0.2123   -1.0433 C   0  0  0  0  0  0  0  0  0  0  0  0
   -0.6621    1.5612    1.5649 H   0  0  0  0  0  0  0  0  0  0  0  0
   -2.3307    0.9221    1.6283 H   0  0  0  0  0  0  0  0  0  0  0  0
   -1.8907    2.0068    0.2529 H   0  0  0  0  0  0  0  0  0  0  0  0
    0.4468    0.9505   -1.0117 H   0  0  0  0  0  0  0  0  0  0  0  0
    0.4962   -0.8185   -1.1107 H   0  0  0  0  0  0  0  0  0  0  0  0
    1.3258    0.8881    1.3047 H   0  0  0  0  0  0  0  0  0  0  0  0
    1.2498   -0.9515    1.2216 H   0  0  0  0  0  0  0  0  0  0  0  0
    2.8123    0.8435   -0.6977 H   0  0  0  0  0  0  0  0  0  0  0  0
    2.8016   -0.9308   -0.6739 H   0  0  0  0  0  0  0  0  0  0  0  0
    4.5157    0.3985    0.4429 H   0  0  0  0  0  0  0  0  0  0  0  0
   -1.9342   -1.3169    1.6400 H   0  0  0  0  0  0  0  0  0  0  0  0
   -1.3599   -2.1646    0.0703 H   0  0  0  0  0  0  0  0  0  0  0  0
   -1.6723   -0.9702   -1.7282 H   0  0  0  0  0  0  0  0  0  0  0  0
   -2.5212    0.6852   -1.4985 H   0  0  0  0  0  0  0  0  0  0  0  0
  1  2  1  0
  2  3  1  0
  3  4  1  0
  4  5  1  0
  5  6  1  0
  2  7  1  0
  7  8  1  0
  8  9  1  0
  9  2  1  0
  1 10  1  0
  1 11  1  0
  1 12  1  0
  3 13  1  0
  3 14  1  0
  4 15  1  0
  4 16  1  0
  5 17  1  0
  5 18  1  0
  6 19  1  0
  7 20  1  0
  7 21  1  0
  9 22  1  0
  9 23  1  0
M  END
