
     RDKit          3D

 21 21  0  0  0  0  0  0  0  0999 V2000
   -1.8598   -0.8219    0.6969 C   0  0  0  0  0  0  0  0  0  0  0  0
   -0.7321    0.0498    0.1757 C   0  0  0  0  0  0  0  0  0  0  0  0
   -1.2690    1.3210   -0.4688 C   0  0  0  0  0  0  0  0  0  0  0  0
   -1.7357    2.2043    0.4972 O   0  0  0  0  0  0  0  0  0  0  0  0
    0.1604   -0.7633   -0.7340 C   0  0  0  0  0  0  0  0  0  0  0  0
    1.0152   -0.8071    0.5094 C   0  0  0  0  0  0  0  0  0  0  0  0
    2.4562   -0.5172    0.1965 C   0  0  0  0  0  0  0  0  0  0  0  0
    2.5729    0.5178   -0.7266 O   0  0  0  0  0  0  0  0  0  0  0  0
    0.3096    0.2499    1.0461 O   0  0  0  0  0  0  0  0  0  0  0  0
   -2.6116   -0.2669    1.2616 H   0  0  0  0  0  0  0  0  0  0  0  0
   -1.3926   -1.6544    1.2989 H   0  0  0  0  0  0  0  0  0  0  0  0
   -2.2846   -1.3487   -0.2017 H   0  0  0  0  0  0  0  0  0  0  0  0
   -0.4148    1.7801   -1.0360 H   0  0  0  0  0  0  0  0  0  0  0  0
   -2.0595    1.0893   -1.1883 H   0  0  0  0  0  0  0  0  0  0  0  0
   -2.2962    2.8936    0.0615 H   0  0  0  0  0  0  0  0  0  0  0  0
    0.6131   -0.1933   -1.5688 H   0  0  0  0  0  0  0  0  0  0  0  0
   -0.1905   -1.7685   -0.9896 H   0  0  0  0  0  0  0  0  0  0  0  0
    0.9178   -1.6986    1.1274 H   0  0  0  0  0  0  0  0  0  0  0  0
    2.9091   -1.4285   -0.2477 H   0  0  0  0  0  0  0  0  0  0  0  0
    3.0135   -0.2052    1.1180 H   0  0  0  0  0  0  0  0  0  0  0  0
    2.8787    1.3679   -0.2875 H   0  0  0  0  0  0  0  0  0  0  0  0
  1  2  1  0
  2  3  1  0
  3  4  1  0
  2  5  1  0
  5  6  1  0
  6  7  1  0
  7  8  1  0
  6  9  1  0
  9  2  1  0
  1 10  1  0
  1 11  1  0
  1 12  1  0
  3 13  1  0
  3 14  1  0
  4 15  1  0
  5 16  1  0
  5 17  1  0
  6 18  1  0
  7 19  1  0
  7 20  1  0
  8 21  1  0
M  END
