
     RDKit          3D

 21 22  0  0  0  0  0  0  0  0999 V2000
    1.6879   -1.1979    0.0414 C   0  0  0  0  0  0  0  0  0  0  0  0
    0.6374   -0.1937   -0.2941 C   0  0  0  0  0  0  0  0  0  0  0  0
    0.5858    0.0880   -1.6792 O   0  0  0  0  0  0  0  0  0  0  0  0
    0.8983    1.1634    0.3703 C   0  0  0  0  0  0  0  0  0  0  0  0
   -0.4549    1.8249    0.0732 C   0  0  0  0  0  0  0  0  0  0  0  0
   -1.3987    0.7606    0.6172 C   0  0  0  0  0  0  0  0  0  0  0  0
   -0.7188   -0.5352    0.2146 C   0  0  0  0  0  0  0  0  0  0  0  0
   -1.5546   -1.5909   -0.2972 C   0  0  0  0  0  0  0  0  0  0  0  0
   -0.9086   -1.6534    1.0084 O   0  0  0  0  0  0  0  0  0  0  0  0
    2.5498   -1.0342   -0.6456 H   0  0  0  0  0  0  0  0  0  0  0  0
    1.2485   -2.2146   -0.1721 H   0  0  0  0  0  0  0  0  0  0  0  0
    2.0118   -1.0990    1.0837 H   0  0  0  0  0  0  0  0  0  0  0  0
    1.5115    0.4002   -1.8990 H   0  0  0  0  0  0  0  0  0  0  0  0
    1.7212    1.7040   -0.0912 H   0  0  0  0  0  0  0  0  0  0  0  0
    0.9469    1.0727    1.4682 H   0  0  0  0  0  0  0  0  0  0  0  0
   -0.5660    1.8143   -1.0169 H   0  0  0  0  0  0  0  0  0  0  0  0
   -0.5640    2.7900    0.5572 H   0  0  0  0  0  0  0  0  0  0  0  0
   -2.3968    0.8163    0.1659 H   0  0  0  0  0  0  0  0  0  0  0  0
   -1.4129    0.8958    1.7262 H   0  0  0  0  0  0  0  0  0  0  0  0
   -1.1593   -2.3523   -1.0116 H   0  0  0  0  0  0  0  0  0  0  0  0
   -2.6646   -1.4591   -0.2196 H   0  0  0  0  0  0  0  0  0  0  0  0
  1  2  1  0
  2  3  1  0
  2  4  1  0
  4  5  1  0
  5  6  1  0
  6  7  1  0
  7  8  1  0
  8  9  1  0
  7  2  1  0
  9  7  1  0
  1 10  1  0
  1 11  1  0
  1 12  1  0
  3 13  1  0
  4 14  1  0
  4 15  1  0
  5 16  1  0
  5 17  1  0
  6 18  1  0
  6 19  1  0
  8 20  1  0
  8 21  1  0
M  END
