
     RDKit          3D

 19 20  0  0  0  0  0  0  0  0999 V2000
    1.5877   -0.7252   -0.4394 C   0  0  0  0  0  0  0  0  0  0  0  0
    0.5709    0.1442    0.2202 C   0  0  0  0  0  0  0  0  0  0  0  0
    1.1540    1.2339    1.0113 C   0  0  0  0  0  0  0  0  0  0  0  0
    1.7528    2.1275    0.4242 O   0  0  0  0  0  0  0  0  0  0  0  0
   -0.5060    0.6815   -0.7324 C   0  0  0  0  0  0  0  0  0  0  0  0
   -1.0478   -0.5351   -1.3365 C   0  0  0  0  0  0  0  0  0  0  0  0
   -1.1274   -1.3830   -0.2973 C   0  0  0  0  0  0  0  0  0  0  0  0
   -0.6125   -0.5604    0.8296 C   0  0  0  0  0  0  0  0  0  0  0  0
   -1.3413    0.7648    0.5535 C   0  0  0  0  0  0  0  0  0  0  0  0
    1.1740   -1.3991   -1.2069 H   0  0  0  0  0  0  0  0  0  0  0  0
    2.3446   -0.0682   -0.9109 H   0  0  0  0  0  0  0  0  0  0  0  0
    2.1288   -1.2835    0.3605 H   0  0  0  0  0  0  0  0  0  0  0  0
    1.0338    1.2090    2.0889 H   0  0  0  0  0  0  0  0  0  0  0  0
   -0.3155    1.5592   -1.2691 H   0  0  0  0  0  0  0  0  0  0  0  0
   -1.3081   -0.6750   -2.3758 H   0  0  0  0  0  0  0  0  0  0  0  0
   -1.4760   -2.4092   -0.2707 H   0  0  0  0  0  0  0  0  0  0  0  0
   -0.5887   -0.9286    1.8095 H   0  0  0  0  0  0  0  0  0  0  0  0
   -1.0235    1.5838    1.2154 H   0  0  0  0  0  0  0  0  0  0  0  0
   -2.3997    0.6636    0.3259 H   0  0  0  0  0  0  0  0  0  0  0  0
  1  2  1  0
  2  3  1  0
  3  4  2  0
  2  5  1  0
  5  6  1  0
  6  7  2  0
  7  8  1  0
  8  9  1  0
  8  2  1  0
  9  5  1  0
  1 10  1  0
  1 11  1  0
  1 12  1  0
  3 13  1  0
  5 14  1  0
  6 15  1  0
  7 16  1  0
  8 17  1  0
  9 18  1  0
  9 19  1  0
M  END
