
     RDKit          3D

 20 20  0  0  0  0  0  0  0  0999 V2000
   -1.3814   -0.1891   -1.0863 C   0  0  0  0  0  0  0  0  0  0  0  0
   -0.5393   -0.0707    0.1607 C   0  0  0  0  0  0  0  0  0  0  0  0
   -1.3225    0.1838    1.4051 C   0  0  0  0  0  0  0  0  0  0  0  0
    0.4985   -1.1901    0.2702 C   0  0  0  0  0  0  0  0  0  0  0  0
    1.3823   -0.3183   -0.6261 C   0  0  0  0  0  0  0  0  0  0  0  0
    2.7093   -0.2891   -0.2822 O   0  0  0  0  0  0  0  0  0  0  0  0
    0.6524    0.8806   -0.0037 C   0  0  0  0  0  0  0  0  0  0  0  0
    0.4443    1.9210   -0.8740 O   0  0  0  0  0  0  0  0  0  0  0  0
   -0.8688    0.2581   -1.9711 H   0  0  0  0  0  0  0  0  0  0  0  0
   -1.5954   -1.2605   -1.3062 H   0  0  0  0  0  0  0  0  0  0  0  0
   -2.3571    0.3027   -0.9354 H   0  0  0  0  0  0  0  0  0  0  0  0
   -1.2147   -0.6830    2.1005 H   0  0  0  0  0  0  0  0  0  0  0  0
   -2.4111    0.3236    1.1629 H   0  0  0  0  0  0  0  0  0  0  0  0
   -0.9668    1.1353    1.8699 H   0  0  0  0  0  0  0  0  0  0  0  0
    0.9413   -1.2093    1.2795 H   0  0  0  0  0  0  0  0  0  0  0  0
    0.1963   -2.1454   -0.1692 H   0  0  0  0  0  0  0  0  0  0  0  0
    1.1290   -0.3550   -1.6951 H   0  0  0  0  0  0  0  0  0  0  0  0
    2.9553   -1.1654    0.1033 H   0  0  0  0  0  0  0  0  0  0  0  0
    1.0780    1.1066    0.9781 H   0  0  0  0  0  0  0  0  0  0  0  0
    0.6705    2.7641   -0.3807 H   0  0  0  0  0  0  0  0  0  0  0  0
  1  2  1  0
  2  3  1  0
  2  4  1  0
  4  5  1  0
  5  6  1  0
  5  7  1  0
  7  8  1  0
  7  2  1  0
  1  9  1  0
  1 10  1  0
  1 11  1  0
  3 12  1  0
  3 13  1  0
  3 14  1  0
  4 15  1  0
  4 16  1  0
  5 17  1  0
  6 18  1  0
  7 19  1  0
  8 20  1  0
M  END
