
     RDKit          3D

 21 23  0  0  0  0  0  0  0  0999 V2000
   -1.3457    1.4115   -0.2635 C   0  0  0  0  0  0  0  0  0  0  0  0
   -1.0683   -0.0129    0.2144 C   0  0  0  0  0  0  0  0  0  0  0  0
   -2.3427   -0.8656    0.2661 C   0  0  0  0  0  0  0  0  0  0  0  0
    0.0653   -0.3190    1.0840 C   0  0  0  0  0  0  0  0  0  0  0  0
    1.0086    0.6310    1.3269 O   0  0  0  0  0  0  0  0  0  0  0  0
    1.9113    0.6877    0.3157 C   0  0  0  0  0  0  0  0  0  0  0  0
    2.6023   -0.4550   -0.2748 C   0  0  0  0  0  0  0  0  0  0  0  0
    1.3016    0.0747   -0.8704 C   0  0  0  0  0  0  0  0  0  0  0  0
    0.0918   -0.6626   -0.3842 C   0  0  0  0  0  0  0  0  0  0  0  0
   -1.7541    1.2915   -1.3039 H   0  0  0  0  0  0  0  0  0  0  0  0
   -0.4093    1.9766   -0.2309 H   0  0  0  0  0  0  0  0  0  0  0  0
   -2.1137    1.8359    0.3899 H   0  0  0  0  0  0  0  0  0  0  0  0
   -2.8276   -0.7511   -0.7162 H   0  0  0  0  0  0  0  0  0  0  0  0
   -2.9824   -0.6065    1.1100 H   0  0  0  0  0  0  0  0  0  0  0  0
   -2.0173   -1.9310    0.3897 H   0  0  0  0  0  0  0  0  0  0  0  0
   -0.0274   -1.1356    1.8255 H   0  0  0  0  0  0  0  0  0  0  0  0
    2.4275    1.6858    0.2162 H   0  0  0  0  0  0  0  0  0  0  0  0
    2.5939   -1.4671    0.1827 H   0  0  0  0  0  0  0  0  0  0  0  0
    3.4783   -0.2706   -0.9026 H   0  0  0  0  0  0  0  0  0  0  0  0
    1.3119    0.6397   -1.7954 H   0  0  0  0  0  0  0  0  0  0  0  0
    0.0960   -1.7573   -0.5794 H   0  0  0  0  0  0  0  0  0  0  0  0
  1  2  1  0
  2  3  1  0
  2  4  1  0
  4  5  1  0
  5  6  1  0
  6  7  1  0
  7  8  1  0
  8  9  1  0
  9  2  1  0
  9  4  1  0
  8  6  1  0
  1 10  1  0
  1 11  1  0
  1 12  1  0
  3 13  1  0
  3 14  1  0
  3 15  1  0
  4 16  1  0
  6 17  1  0
  7 18  1  0
  7 19  1  0
  8 20  1  0
  9 21  1  0
M  END
