
     RDKit          3D

 17 17  0  0  0  0  0  0  0  0999 V2000
    1.6902    0.4538    0.0797 C   0  0  0  0  0  0  0  0  0  0  0  0
    0.4854   -0.2843   -0.4514 C   0  0  0  0  0  0  0  0  0  0  0  0
    0.8753   -1.1761   -1.4163 O   0  0  0  0  0  0  0  0  0  0  0  0
   -0.2761   -0.9865    0.6596 C   0  0  0  0  0  0  0  0  0  0  0  0
   -1.1750    0.0779    1.1262 C   0  0  0  0  0  0  0  0  0  0  0  0
   -1.4489    0.3649    2.2517 O   0  0  0  0  0  0  0  0  0  0  0  0
   -1.6873    0.7405   -0.0837 C   0  0  0  0  0  0  0  0  0  0  0  0
   -0.4895    0.7154   -0.9694 C   0  0  0  0  0  0  0  0  0  0  0  0
   -0.3303    1.4013   -1.9592 O   0  0  0  0  0  0  0  0  0  0  0  0
    2.1811    0.9338   -0.7899 H   0  0  0  0  0  0  0  0  0  0  0  0
    1.4434    1.2237    0.8158 H   0  0  0  0  0  0  0  0  0  0  0  0
    2.4089   -0.2527    0.5507 H   0  0  0  0  0  0  0  0  0  0  0  0
    1.3251   -1.9302   -0.9791 H   0  0  0  0  0  0  0  0  0  0  0  0
   -0.8925   -1.7753    0.1890 H   0  0  0  0  0  0  0  0  0  0  0  0
    0.3926   -1.3850    1.4452 H   0  0  0  0  0  0  0  0  0  0  0  0
   -2.4572    0.1075   -0.5731 H   0  0  0  0  0  0  0  0  0  0  0  0
   -2.0451    1.7715    0.1042 H   0  0  0  0  0  0  0  0  0  0  0  0
  1  2  1  0
  2  3  1  0
  2  4  1  0
  4  5  1  0
  5  6  2  0
  5  7  1  0
  7  8  1  0
  8  9  2  0
  8  2  1  0
  1 10  1  0
  1 11  1  0
  1 12  1  0
  3 13  1  0
  4 14  1  0
  4 15  1  0
  7 16  1  0
  7 17  1  0
M  END
