
     RDKit          3D

 21 21  0  0  0  0  0  0  0  0999 V2000
    1.2308    0.3180    1.3663 C   0  0  0  0  0  0  0  0  0  0  0  0
    0.7568    0.0814   -0.0329 C   0  0  0  0  0  0  0  0  0  0  0  0
    1.5544   -0.8027   -0.9588 C   0  0  0  0  0  0  0  0  0  0  0  0
    2.4753   -0.0063   -1.6558 O   0  0  0  0  0  0  0  0  0  0  0  0
    0.0545    1.0704   -0.7155 O   0  0  0  0  0  0  0  0  0  0  0  0
   -0.7416    0.0675   -0.1688 C   0  0  0  0  0  0  0  0  0  0  0  0
   -1.2779   -1.0288   -1.0363 C   0  0  0  0  0  0  0  0  0  0  0  0
   -1.6111    0.5419    0.9529 C   0  0  0  0  0  0  0  0  0  0  0  0
   -2.4356    1.5498    0.3994 O   0  0  0  0  0  0  0  0  0  0  0  0
    0.6440   -0.3801    2.0345 H   0  0  0  0  0  0  0  0  0  0  0  0
    2.2942    0.0145    1.5250 H   0  0  0  0  0  0  0  0  0  0  0  0
    1.0189    1.3319    1.7517 H   0  0  0  0  0  0  0  0  0  0  0  0
    0.9238   -1.2972   -1.7047 H   0  0  0  0  0  0  0  0  0  0  0  0
    2.0997   -1.5264   -0.3333 H   0  0  0  0  0  0  0  0  0  0  0  0
    2.5470    0.9030   -1.2211 H   0  0  0  0  0  0  0  0  0  0  0  0
   -1.2339   -0.8130   -2.1058 H   0  0  0  0  0  0  0  0  0  0  0  0
   -0.7573   -1.9838   -0.7562 H   0  0  0  0  0  0  0  0  0  0  0  0
   -2.3529   -1.2172   -0.7669 H   0  0  0  0  0  0  0  0  0  0  0  0
   -2.2445   -0.2548    1.3979 H   0  0  0  0  0  0  0  0  0  0  0  0
   -1.0262    1.0505    1.7474 H   0  0  0  0  0  0  0  0  0  0  0  0
   -1.9184    2.3813    0.2808 H   0  0  0  0  0  0  0  0  0  0  0  0
  1  2  1  0
  2  3  1  0
  3  4  1  0
  2  5  1  0
  5  6  1  0
  6  7  1  0
  6  8  1  0
  8  9  1  0
  6  2  1  0
  1 10  1  0
  1 11  1  0
  1 12  1  0
  3 13  1  0
  3 14  1  0
  4 15  1  0
  7 16  1  0
  7 17  1  0
  7 18  1  0
  8 19  1  0
  8 20  1  0
  9 21  1  0
M  END
