
     RDKit          3D

 14 15  0  0  0  0  0  0  0  0999 V2000
   -1.4485   -0.5836   -0.2428 C   0  0  0  0  0  0  0  0  0  0  0  0
   -0.3102    0.4279   -0.0772 C   0  0  0  0  0  0  0  0  0  0  0  0
   -0.7391    1.7170    0.1311 O   0  0  0  0  0  0  0  0  0  0  0  0
    0.7815    0.2610   -1.0681 C   0  0  0  0  0  0  0  0  0  0  0  0
    0.9068    0.5991   -2.2248 O   0  0  0  0  0  0  0  0  0  0  0  0
    1.6545   -0.4668   -0.1254 C   0  0  0  0  0  0  0  0  0  0  0  0
    1.0969   -1.3725    0.7662 O   0  0  0  0  0  0  0  0  0  0  0  0
    0.6444   -0.0967    0.9687 C   0  0  0  0  0  0  0  0  0  0  0  0
   -1.9004   -0.7855    0.7536 H   0  0  0  0  0  0  0  0  0  0  0  0
   -2.1690   -0.2781   -1.0021 H   0  0  0  0  0  0  0  0  0  0  0  0
   -0.9972   -1.5505   -0.5827 H   0  0  0  0  0  0  0  0  0  0  0  0
   -1.2664    1.7496    0.9462 H   0  0  0  0  0  0  0  0  0  0  0  0
    2.7014   -0.1785    0.0147 H   0  0  0  0  0  0  0  0  0  0  0  0
    1.0454    0.5578    1.7428 H   0  0  0  0  0  0  0  0  0  0  0  0
  1  2  1  0
  2  3  1  0
  2  4  1  0
  4  5  2  0
  4  6  1  0
  6  7  1  0
  7  8  1  0
  8  2  1  0
  8  6  1  0
  1  9  1  0
  1 10  1  0
  1 11  1  0
  3 12  1  0
  6 13  1  0
  8 14  1  0
M  END
