
     RDKit          3D

 19 19  0  0  0  0  0  0  0  0999 V2000
   -2.0050   -0.6668   -0.7182 C   0  0  0  0  0  0  0  0  0  0  0  0
   -0.9677   -0.0677    0.2204 C   0  0  0  0  0  0  0  0  0  0  0  0
   -1.6189    0.8001    1.2159 C   0  0  0  0  0  0  0  0  0  0  0  0
   -2.4401    1.6734    0.8883 O   0  0  0  0  0  0  0  0  0  0  0  0
    0.1097    0.5904   -0.6049 C   0  0  0  0  0  0  0  0  0  0  0  0
    0.9141   -0.5481   -0.0426 C   0  0  0  0  0  0  0  0  0  0  0  0
    2.1495    0.0013    0.6475 C   0  0  0  0  0  0  0  0  0  0  0  0
    3.0390    0.3531   -0.3697 O   0  0  0  0  0  0  0  0  0  0  0  0
   -0.1007   -0.9591    0.7846 O   0  0  0  0  0  0  0  0  0  0  0  0
   -2.5972    0.1818   -1.1245 H   0  0  0  0  0  0  0  0  0  0  0  0
   -2.6786   -1.3698   -0.2219 H   0  0  0  0  0  0  0  0  0  0  0  0
   -1.4716   -1.1115   -1.5924 H   0  0  0  0  0  0  0  0  0  0  0  0
   -1.3682    0.6657    2.2616 H   0  0  0  0  0  0  0  0  0  0  0  0
    0.4073    1.5989   -0.2987 H   0  0  0  0  0  0  0  0  0  0  0  0
    0.0142    0.5008   -1.6947 H   0  0  0  0  0  0  0  0  0  0  0  0
    1.1521   -1.3532   -0.7814 H   0  0  0  0  0  0  0  0  0  0  0  0
    1.8594    0.8518    1.2702 H   0  0  0  0  0  0  0  0  0  0  0  0
    2.6614   -0.8033    1.2370 H   0  0  0  0  0  0  0  0  0  0  0  0
    2.9412   -0.3377   -1.0767 H   0  0  0  0  0  0  0  0  0  0  0  0
  1  2  1  0
  2  3  1  0
  3  4  2  0
  2  5  1  0
  5  6  1  0
  6  7  1  0
  7  8  1  0
  6  9  1  0
  9  2  1  0
  1 10  1  0
  1 11  1  0
  1 12  1  0
  3 13  1  0
  5 14  1  0
  5 15  1  0
  6 16  1  0
  7 17  1  0
  7 18  1  0
  8 19  1  0
M  END
