
     RDKit          3D

 21 22  0  0  0  0  0  0  0  0999 V2000
   -1.1827   -1.1898   -0.9668 C   0  0  0  0  0  0  0  0  0  0  0  0
   -0.2968   -0.1865   -0.2177 C   0  0  0  0  0  0  0  0  0  0  0  0
    1.1018   -0.3455   -0.6421 C   0  0  0  0  0  0  0  0  0  0  0  0
    2.1413    0.5069   -0.0559 C   0  0  0  0  0  0  0  0  0  0  0  0
    2.1956    0.3108    1.3227 O   0  0  0  0  0  0  0  0  0  0  0  0
   -0.8887    1.1762   -0.1511 C   0  0  0  0  0  0  0  0  0  0  0  0
   -1.9546    0.6031    0.7267 C   0  0  0  0  0  0  0  0  0  0  0  0
   -0.6193    0.0661    1.1845 C   0  0  0  0  0  0  0  0  0  0  0  0
   -0.1677    1.3722    1.0108 O   0  0  0  0  0  0  0  0  0  0  0  0
   -0.5988   -1.7783   -1.7046 H   0  0  0  0  0  0  0  0  0  0  0  0
   -1.9772   -0.6778   -1.5421 H   0  0  0  0  0  0  0  0  0  0  0  0
   -1.5561   -1.8950   -0.2121 H   0  0  0  0  0  0  0  0  0  0  0  0
    1.1372   -0.2152   -1.7644 H   0  0  0  0  0  0  0  0  0  0  0  0
    1.3862   -1.4226   -0.4983 H   0  0  0  0  0  0  0  0  0  0  0  0
    3.1395    0.1524   -0.4416 H   0  0  0  0  0  0  0  0  0  0  0  0
    2.0976    1.5775   -0.3279 H   0  0  0  0  0  0  0  0  0  0  0  0
    2.6324   -0.5714    1.4700 H   0  0  0  0  0  0  0  0  0  0  0  0
   -1.0148    1.8340   -0.9066 H   0  0  0  0  0  0  0  0  0  0  0  0
   -2.6469   -0.1146    0.3003 H   0  0  0  0  0  0  0  0  0  0  0  0
   -2.4551    1.2986    1.4102 H   0  0  0  0  0  0  0  0  0  0  0  0
   -0.4730   -0.5009    2.0060 H   0  0  0  0  0  0  0  0  0  0  0  0
  1  2  1  0
  2  3  1  0
  3  4  1  0
  4  5  1  0
  2  6  1  0
  6  7  1  0
  7  8  1  0
  8  9  1  0
  8  2  1  0
  9  6  1  0
  1 10  1  0
  1 11  1  0
  1 12  1  0
  3 13  1  0
  3 14  1  0
  4 15  1  0
  4 16  1  0
  5 17  1  0
  6 18  1  0
  7 19  1  0
  7 20  1  0
  8 21  1  0
M  END
