
     RDKit          3D

 20 20  0  0  0  0  0  0  0  0999 V2000
   -2.2789   -0.5921   -0.4301 C   0  0  0  0  0  0  0  0  0  0  0  0
   -1.0340    0.1474   -0.0443 C   0  0  0  0  0  0  0  0  0  0  0  0
   -1.2712    1.2949    0.6741 O   0  0  0  0  0  0  0  0  0  0  0  0
    0.0637   -0.6986    0.5654 C   0  0  0  0  0  0  0  0  0  0  0  0
    1.0135    0.3122   -0.0911 C   0  0  0  0  0  0  0  0  0  0  0  0
    2.3289   -0.2328   -0.5129 C   0  0  0  0  0  0  0  0  0  0  0  0
    1.0645    1.4448    0.6862 O   0  0  0  0  0  0  0  0  0  0  0  0
   -0.0422    0.3653   -1.1947 C   0  0  0  0  0  0  0  0  0  0  0  0
   -2.1463   -1.3402   -1.2071 H   0  0  0  0  0  0  0  0  0  0  0  0
   -3.0156    0.1625   -0.7735 H   0  0  0  0  0  0  0  0  0  0  0  0
   -2.7106   -1.0146    0.5165 H   0  0  0  0  0  0  0  0  0  0  0  0
   -2.1031    1.1896    1.2037 H   0  0  0  0  0  0  0  0  0  0  0  0
    0.0984   -0.7297    1.6506 H   0  0  0  0  0  0  0  0  0  0  0  0
    0.0825   -1.6853    0.0325 H   0  0  0  0  0  0  0  0  0  0  0  0
    2.6826    0.3743   -1.3966 H   0  0  0  0  0  0  0  0  0  0  0  0
    2.3246   -1.2952   -0.7833 H   0  0  0  0  0  0  0  0  0  0  0  0
    3.0669   -0.0224    0.2880 H   0  0  0  0  0  0  0  0  0  0  0  0
    1.9654    1.5448    1.0598 H   0  0  0  0  0  0  0  0  0  0  0  0
   -0.1295    1.3211   -1.7063 H   0  0  0  0  0  0  0  0  0  0  0  0
    0.0405   -0.5458   -1.8017 H   0  0  0  0  0  0  0  0  0  0  0  0
  1  2  1  0
  2  3  1  0
  2  4  1  0
  4  5  1  0
  5  6  1  0
  5  7  1  0
  5  8  1  0
  8  2  1  0
  1  9  1  0
  1 10  1  0
  1 11  1  0
  3 12  1  0
  4 13  1  0
  4 14  1  0
  6 15  1  0
  6 16  1  0
  6 17  1  0
  7 18  1  0
  8 19  1  0
  8 20  1  0
M  END
