
     RDKit          3D

 19 20  0  0  0  0  0  0  0  0999 V2000
    1.5947    0.3041   -1.2980 C   0  0  0  0  0  0  0  0  0  0  0  0
    0.8172   -0.1702   -0.1217 C   0  0  0  0  0  0  0  0  0  0  0  0
    1.5767   -1.0017    0.6985 O   0  0  0  0  0  0  0  0  0  0  0  0
    0.0005    0.8389    0.6196 C   0  0  0  0  0  0  0  0  0  0  0  0
   -0.1838    2.0657   -0.0345 O   0  0  0  0  0  0  0  0  0  0  0  0
   -1.2219   -0.0226    0.5518 C   0  0  0  0  0  0  0  0  0  0  0  0
   -2.4450    0.5447    0.1817 O   0  0  0  0  0  0  0  0  0  0  0  0
   -1.1741   -1.4882    0.7053 C   0  0  0  0  0  0  0  0  0  0  0  0
   -0.4930   -0.8941   -0.4546 C   0  0  0  0  0  0  0  0  0  0  0  0
    0.9248    0.3843   -2.1682 H   0  0  0  0  0  0  0  0  0  0  0  0
    2.3376   -0.4983   -1.5616 H   0  0  0  0  0  0  0  0  0  0  0  0
    2.1897    1.2051   -1.0935 H   0  0  0  0  0  0  0  0  0  0  0  0
    1.6269   -0.5659    1.5751 H   0  0  0  0  0  0  0  0  0  0  0  0
    0.3678    0.9357    1.6625 H   0  0  0  0  0  0  0  0  0  0  0  0
    0.3773    2.1474   -0.8466 H   0  0  0  0  0  0  0  0  0  0  0  0
   -2.7803    1.0052    1.0041 H   0  0  0  0  0  0  0  0  0  0  0  0
   -2.0931   -2.0366    0.5215 H   0  0  0  0  0  0  0  0  0  0  0  0
   -0.5283   -1.9054    1.5187 H   0  0  0  0  0  0  0  0  0  0  0  0
   -0.8936   -0.8480   -1.4600 H   0  0  0  0  0  0  0  0  0  0  0  0
  1  2  1  0
  2  3  1  0
  2  4  1  0
  4  5  1  0
  4  6  1  0
  6  7  1  0
  6  8  1  0
  8  9  1  0
  9  2  1  0
  9  6  1  0
  1 10  1  0
  1 11  1  0
  1 12  1  0
  3 13  1  0
  4 14  1  0
  5 15  1  0
  7 16  1  0
  8 17  1  0
  8 18  1  0
  9 19  1  0
M  END
