
     RDKit          3D

 21 22  0  0  0  0  0  0  0  0999 V2000
    2.0801   -0.4209    0.1500 C   0  0  0  0  0  0  0  0  0  0  0  0
    0.7339    0.1276    0.4958 C   0  0  0  0  0  0  0  0  0  0  0  0
    0.6474    0.7391    1.7354 O   0  0  0  0  0  0  0  0  0  0  0  0
    0.0262    0.7873   -0.6932 C   0  0  0  0  0  0  0  0  0  0  0  0
   -0.9557    1.8549   -0.2587 C   0  0  0  0  0  0  0  0  0  0  0  0
   -2.0956    1.2341    0.1676 O   0  0  0  0  0  0  0  0  0  0  0  0
   -1.8276   -0.0778    0.4550 C   0  0  0  0  0  0  0  0  0  0  0  0
   -0.4964   -0.4399   -0.0917 C   0  0  0  0  0  0  0  0  0  0  0  0
   -0.3828   -1.7885   -0.7180 C   0  0  0  0  0  0  0  0  0  0  0  0
    2.1496   -0.6434   -0.9499 H   0  0  0  0  0  0  0  0  0  0  0  0
    2.3888   -1.2886    0.7518 H   0  0  0  0  0  0  0  0  0  0  0  0
    2.8625    0.3776    0.3123 H   0  0  0  0  0  0  0  0  0  0  0  0
    1.5421    1.0995    1.9928 H   0  0  0  0  0  0  0  0  0  0  0  0
    0.5354    0.8545   -1.6509 H   0  0  0  0  0  0  0  0  0  0  0  0
   -0.4365    2.4321    0.5565 H   0  0  0  0  0  0  0  0  0  0  0  0
   -1.1248    2.5004   -1.1572 H   0  0  0  0  0  0  0  0  0  0  0  0
   -1.9322   -0.2197    1.5511 H   0  0  0  0  0  0  0  0  0  0  0  0
   -2.6282   -0.6925   -0.0507 H   0  0  0  0  0  0  0  0  0  0  0  0
   -1.2858   -1.9791   -1.3529 H   0  0  0  0  0  0  0  0  0  0  0  0
   -0.3420   -2.6025    0.0543 H   0  0  0  0  0  0  0  0  0  0  0  0
    0.5416   -1.8543   -1.2995 H   0  0  0  0  0  0  0  0  0  0  0  0
  1  2  1  0
  2  3  1  0
  2  4  1  0
  4  5  1  0
  5  6  1  0
  6  7  1  0
  7  8  1  0
  8  9  1  0
  8  2  1  0
  8  4  1  0
  1 10  1  0
  1 11  1  0
  1 12  1  0
  3 13  1  0
  4 14  1  0
  5 15  1  0
  5 16  1  0
  7 17  1  0
  7 18  1  0
  9 19  1  0
  9 20  1  0
  9 21  1  0
M  END
