
     RDKit          3D

 19 19  0  0  0  0  0  0  0  0999 V2000
   -1.5090   -1.1595    0.1102 C   0  0  0  0  0  0  0  0  0  0  0  0
   -0.5887   -0.0028    0.0054 C   0  0  0  0  0  0  0  0  0  0  0  0
   -1.0922    1.3144    0.6117 C   0  0  0  0  0  0  0  0  0  0  0  0
    0.1259    0.0993   -1.3435 C   0  0  0  0  0  0  0  0  0  0  0  0
    0.9088   -0.1163   -0.0533 C   0  0  0  0  0  0  0  0  0  0  0  0
    1.7281    1.0550    0.4339 C   0  0  0  0  0  0  0  0  0  0  0  0
    1.9940    2.0328   -0.3069 O   0  0  0  0  0  0  0  0  0  0  0  0
    1.5783   -1.4142    0.0734 C   0  0  0  0  0  0  0  0  0  0  0  0
    1.7034   -1.9591    1.1389 O   0  0  0  0  0  0  0  0  0  0  0  0
   -1.5525   -1.7487   -0.8238 H   0  0  0  0  0  0  0  0  0  0  0  0
   -2.5426   -0.7283    0.1979 H   0  0  0  0  0  0  0  0  0  0  0  0
   -1.3073   -1.7890    0.9897 H   0  0  0  0  0  0  0  0  0  0  0  0
   -1.9969    1.1389    1.2396 H   0  0  0  0  0  0  0  0  0  0  0  0
   -1.3376    1.9667   -0.2550 H   0  0  0  0  0  0  0  0  0  0  0  0
   -0.3483    1.8290    1.2271 H   0  0  0  0  0  0  0  0  0  0  0  0
   -0.0441   -0.6967   -2.0791 H   0  0  0  0  0  0  0  0  0  0  0  0
    0.2578    1.1048   -1.8171 H   0  0  0  0  0  0  0  0  0  0  0  0
    2.0629    0.9827    1.4730 H   0  0  0  0  0  0  0  0  0  0  0  0
    1.9601   -1.9090   -0.8222 H   0  0  0  0  0  0  0  0  0  0  0  0
  1  2  1  0
  2  3  1  0
  2  4  1  0
  4  5  1  0
  5  6  1  0
  6  7  2  0
  5  8  1  0
  8  9  2  0
  5  2  1  0
  1 10  1  0
  1 11  1  0
  1 12  1  0
  3 13  1  0
  3 14  1  0
  3 15  1  0
  4 16  1  0
  4 17  1  0
  6 18  1  0
  8 19  1  0
M  END
