
     RDKit          3D

 21 22  0  0  0  0  0  0  0  0999 V2000
   -2.0185    1.1813   -0.3819 C   0  0  0  0  0  0  0  0  0  0  0  0
   -1.2276   -0.0915   -0.2938 C   0  0  0  0  0  0  0  0  0  0  0  0
   -0.0767   -0.1616    0.7097 C   0  0  0  0  0  0  0  0  0  0  0  0
    0.2281   -1.4721    0.9674 O   0  0  0  0  0  0  0  0  0  0  0  0
    1.0679    0.6119    0.0956 C   0  0  0  0  0  0  0  0  0  0  0  0
    2.3170    0.6534    0.9606 C   0  0  0  0  0  0  0  0  0  0  0  0
    2.3051   -0.0893   -0.3254 C   0  0  0  0  0  0  0  0  0  0  0  0
   -1.8530   -1.3706   -0.6976 C   0  0  0  0  0  0  0  0  0  0  0  0
   -0.9860   -0.6950   -1.5525 O   0  0  0  0  0  0  0  0  0  0  0  0
   -1.5190    1.9762   -0.9689 H   0  0  0  0  0  0  0  0  0  0  0  0
   -2.3327    1.5351    0.6213 H   0  0  0  0  0  0  0  0  0  0  0  0
   -2.9709    0.9331   -0.9335 H   0  0  0  0  0  0  0  0  0  0  0  0
   -0.4517    0.2953    1.6486 H   0  0  0  0  0  0  0  0  0  0  0  0
    0.5455   -1.9897    0.2099 H   0  0  0  0  0  0  0  0  0  0  0  0
    0.8329    1.5558   -0.4343 H   0  0  0  0  0  0  0  0  0  0  0  0
    2.8770    1.5991    1.0562 H   0  0  0  0  0  0  0  0  0  0  0  0
    2.3385    0.0372    1.8890 H   0  0  0  0  0  0  0  0  0  0  0  0
    2.9103    0.3221   -1.1496 H   0  0  0  0  0  0  0  0  0  0  0  0
    2.3809   -1.2080   -0.2688 H   0  0  0  0  0  0  0  0  0  0  0  0
   -2.9478   -1.3339   -0.9000 H   0  0  0  0  0  0  0  0  0  0  0  0
   -1.4192   -2.2888   -0.2520 H   0  0  0  0  0  0  0  0  0  0  0  0
  1  2  1  0
  2  3  1  0
  3  4  1  0
  3  5  1  0
  5  6  1  0
  6  7  1  0
  2  8  1  0
  8  9  1  0
  9  2  1  0
  7  5  1  0
  1 10  1  0
  1 11  1  0
  1 12  1  0
  3 13  1  0
  4 14  1  0
  5 15  1  0
  6 16  1  0
  6 17  1  0
  7 18  1  0
  7 19  1  0
  8 20  1  0
  8 21  1  0
M  END
