
     RDKit          3D

 20 20  0  0  0  0  0  0  0  0999 V2000
   -1.0817    0.3354    1.2217 C   0  0  0  0  0  0  0  0  0  0  0  0
   -0.5825   -0.0289   -0.1728 C   0  0  0  0  0  0  0  0  0  0  0  0
   -1.8471   -0.1101   -1.0402 C   0  0  0  0  0  0  0  0  0  0  0  0
    0.3343    1.0580   -0.6295 C   0  0  0  0  0  0  0  0  0  0  0  0
    1.7630    0.6688   -0.5044 C   0  0  0  0  0  0  0  0  0  0  0  0
    2.1251   -0.4646    0.0516 C   0  0  0  0  0  0  0  0  0  0  0  0
    1.1097   -1.4047    0.5792 C   0  0  0  0  0  0  0  0  0  0  0  0
   -0.0232   -1.2924   -0.2047 O   0  0  0  0  0  0  0  0  0  0  0  0
   -0.2296    0.5886    1.8793 H   0  0  0  0  0  0  0  0  0  0  0  0
   -1.6790    1.2808    1.0752 H   0  0  0  0  0  0  0  0  0  0  0  0
   -1.7063   -0.4916    1.5939 H   0  0  0  0  0  0  0  0  0  0  0  0
   -2.3160    0.8654   -1.1789 H   0  0  0  0  0  0  0  0  0  0  0  0
   -2.5540   -0.7598   -0.4491 H   0  0  0  0  0  0  0  0  0  0  0  0
   -1.6510   -0.6698   -1.9722 H   0  0  0  0  0  0  0  0  0  0  0  0
    0.2187    1.9799    0.0153 H   0  0  0  0  0  0  0  0  0  0  0  0
    0.1125    1.4122   -1.6576 H   0  0  0  0  0  0  0  0  0  0  0  0
    2.5382    1.3219   -0.8745 H   0  0  0  0  0  0  0  0  0  0  0  0
    3.1700   -0.7066    0.1214 H   0  0  0  0  0  0  0  0  0  0  0  0
    1.4505   -2.4573    0.5128 H   0  0  0  0  0  0  0  0  0  0  0  0
    0.8485   -1.1253    1.6333 H   0  0  0  0  0  0  0  0  0  0  0  0
  1  2  1  0
  2  3  1  0
  2  4  1  0
  4  5  1  0
  5  6  2  0
  6  7  1  0
  7  8  1  0
  8  2  1  0
  1  9  1  0
  1 10  1  0
  1 11  1  0
  3 12  1  0
  3 13  1  0
  3 14  1  0
  4 15  1  0
  4 16  1  0
  5 17  1  0
  6 18  1  0
  7 19  1  0
  7 20  1  0
M  END
