
     RDKit          3D

 14 14  0  0  0  0  0  0  0  0999 V2000
   -0.9393   -0.7577    0.9473 C   0  0  0  0  0  0  0  0  0  0  0  0
   -0.1186    0.2379    0.0893 C   0  0  0  0  0  0  0  0  0  0  0  0
   -0.9770    1.0791   -0.6870 C   0  0  0  0  0  0  0  0  0  0  0  0
   -0.8965    2.3624   -0.5688 O   0  0  0  0  0  0  0  0  0  0  0  0
    1.3369    0.3558    0.2634 C   0  0  0  0  0  0  0  0  0  0  0  0
    0.8973   -0.5386   -0.8574 C   0  0  0  0  0  0  0  0  0  0  0  0
   -0.5137   -1.7442    0.9166 H   0  0  0  0  0  0  0  0  0  0  0  0
   -0.8151   -0.3937    2.0243 H   0  0  0  0  0  0  0  0  0  0  0  0
   -1.9895   -0.6674    0.7032 H   0  0  0  0  0  0  0  0  0  0  0  0
   -1.6819    0.7230   -1.4032 H   0  0  0  0  0  0  0  0  0  0  0  0
    1.8033    1.3443    0.0389 H   0  0  0  0  0  0  0  0  0  0  0  0
    1.8353   -0.1713    1.1022 H   0  0  0  0  0  0  0  0  0  0  0  0
    0.9921   -1.6294   -0.7153 H   0  0  0  0  0  0  0  0  0  0  0  0
    1.0667   -0.2004   -1.8535 H   0  0  0  0  0  0  0  0  0  0  0  0
  1  2  1  0
  2  3  1  0
  3  4  2  0
  2  5  1  0
  5  6  1  0
  6  2  1  0
  1  7  1  0
  1  8  1  0
  1  9  1  0
  3 10  1  0
  5 11  1  0
  5 12  1  0
  6 13  1  0
  6 14  1  0
M  END
