
     RDKit          3D

 17 18  0  0  0  0  0  0  0  0999 V2000
   -1.6614   -0.8716    0.2317 C   0  0  0  0  0  0  0  0  0  0  0  0
   -0.5203    0.1190   -0.0494 C   0  0  0  0  0  0  0  0  0  0  0  0
   -1.0992    1.4470   -0.5412 C   0  0  0  0  0  0  0  0  0  0  0  0
    0.5897    0.1930    0.7984 C   0  0  0  0  0  0  0  0  0  0  0  0
    1.9129    0.6171    0.6780 O   0  0  0  0  0  0  0  0  0  0  0  0
    2.5920   -0.5535    0.2879 C   0  0  0  0  0  0  0  0  0  0  0  0
    3.8306   -0.8280    0.4198 O   0  0  0  0  0  0  0  0  0  0  0  0
    1.5861   -1.3660   -0.2884 O   0  0  0  0  0  0  0  0  0  0  0  0
    0.6112   -0.4408   -0.6562 C   0  0  0  0  0  0  0  0  0  0  0  0
   -1.9070   -1.3538   -0.7323 H   0  0  0  0  0  0  0  0  0  0  0  0
   -1.3462   -1.6335    0.9736 H   0  0  0  0  0  0  0  0  0  0  0  0
   -2.5583   -0.3560    0.6010 H   0  0  0  0  0  0  0  0  0  0  0  0
   -0.3969    2.2914   -0.3072 H   0  0  0  0  0  0  0  0  0  0  0  0
   -1.2390    1.4163   -1.6233 H   0  0  0  0  0  0  0  0  0  0  0  0
   -2.0214    1.6619    0.0205 H   0  0  0  0  0  0  0  0  0  0  0  0
    0.5608   -0.5636    1.6463 H   0  0  0  0  0  0  0  0  0  0  0  0
    1.0665    0.2210   -1.4591 H   0  0  0  0  0  0  0  0  0  0  0  0
  1  2  1  0
  2  3  1  0
  2  4  1  0
  4  5  1  0
  5  6  1  0
  6  7  2  0
  6  8  1  0
  8  9  1  0
  9  2  1  0
  9  4  1  0
  1 10  1  0
  1 11  1  0
  1 12  1  0
  3 13  1  0
  3 14  1  0
  3 15  1  0
  4 16  1  0
  9 17  1  0
M  END
