
     RDKit          3D

 17 18  0  0  0  0  0  0  0  0999 V2000
   -1.0713    1.3761   -0.3106 C   0  0  0  0  0  0  0  0  0  0  0  0
   -0.4270    0.0428   -0.1203 C   0  0  0  0  0  0  0  0  0  0  0  0
   -1.3556   -1.0702   -0.3378 C   0  0  0  0  0  0  0  0  0  0  0  0
   -1.8593   -1.1707   -1.4652 O   0  0  0  0  0  0  0  0  0  0  0  0
    0.4836   -0.0746    1.0782 C   0  0  0  0  0  0  0  0  0  0  0  0
    1.1363   -1.2106    0.3471 C   0  0  0  0  0  0  0  0  0  0  0  0
    0.9390   -0.1404   -0.6985 C   0  0  0  0  0  0  0  0  0  0  0  0
    1.3978    0.8065    0.3324 C   0  0  0  0  0  0  0  0  0  0  0  0
    2.1062    1.7708    0.5384 O   0  0  0  0  0  0  0  0  0  0  0  0
   -2.1507    1.2738   -0.0267 H   0  0  0  0  0  0  0  0  0  0  0  0
   -1.0395    1.7607   -1.3267 H   0  0  0  0  0  0  0  0  0  0  0  0
   -0.6358    2.1028    0.4017 H   0  0  0  0  0  0  0  0  0  0  0  0
   -1.6358   -1.8037    0.3938 H   0  0  0  0  0  0  0  0  0  0  0  0
    0.2207   -0.0299    2.0395 H   0  0  0  0  0  0  0  0  0  0  0  0
    2.2026   -1.3699    0.5327 H   0  0  0  0  0  0  0  0  0  0  0  0
    0.4792   -2.0768    0.2821 H   0  0  0  0  0  0  0  0  0  0  0  0
    1.2096   -0.1868   -1.6601 H   0  0  0  0  0  0  0  0  0  0  0  0
  1  2  1  0
  2  3  1  0
  3  4  2  0
  2  5  1  0
  5  6  1  0
  6  7  1  0
  7  8  1  0
  8  9  2  0
  7  2  1  0
  8  5  1  0
  1 10  1  0
  1 11  1  0
  1 12  1  0
  3 13  1  0
  5 14  1  0
  6 15  1  0
  6 16  1  0
  7 17  1  0
M  END
