
     RDKit          3D

 21 22  0  0  0  0  0  0  0  0999 V2000
   -1.9808   -1.2719   -0.3290 C   0  0  0  0  0  0  0  0  0  0  0  0
   -1.0653   -0.2078    0.3096 C   0  0  0  0  0  0  0  0  0  0  0  0
   -1.8959    0.6455    1.0882 O   0  0  0  0  0  0  0  0  0  0  0  0
    0.2160   -0.4395    0.8244 C   0  0  0  0  0  0  0  0  0  0  0  0
    1.5339    0.2319    0.6928 C   0  0  0  0  0  0  0  0  0  0  0  0
    2.6270   -0.4418    1.2604 O   0  0  0  0  0  0  0  0  0  0  0  0
    1.3665   -0.2492   -0.7534 C   0  0  0  0  0  0  0  0  0  0  0  0
   -0.0302    0.2639   -0.5645 C   0  0  0  0  0  0  0  0  0  0  0  0
   -0.1096    1.7134   -0.7241 C   0  0  0  0  0  0  0  0  0  0  0  0
   -2.5820   -1.7423    0.4809 H   0  0  0  0  0  0  0  0  0  0  0  0
   -2.6766   -0.7074   -1.0091 H   0  0  0  0  0  0  0  0  0  0  0  0
   -1.4089   -1.9922   -0.9217 H   0  0  0  0  0  0  0  0  0  0  0  0
   -1.8813    0.3148    2.0217 H   0  0  0  0  0  0  0  0  0  0  0  0
    0.4442   -1.5576    0.7293 H   0  0  0  0  0  0  0  0  0  0  0  0
    1.6491    1.2800    0.8507 H   0  0  0  0  0  0  0  0  0  0  0  0
    2.7492   -1.3111    0.8371 H   0  0  0  0  0  0  0  0  0  0  0  0
    1.5022   -1.3215   -0.8592 H   0  0  0  0  0  0  0  0  0  0  0  0
    1.9848    0.3325   -1.4192 H   0  0  0  0  0  0  0  0  0  0  0  0
   -1.1213    2.0811   -1.0892 H   0  0  0  0  0  0  0  0  0  0  0  0
    0.1081    2.3603    0.1221 H   0  0  0  0  0  0  0  0  0  0  0  0
    0.5709    2.0188   -1.5477 H   0  0  0  0  0  0  0  0  0  0  0  0
  1  2  1  0
  2  3  1  0
  2  4  1  0
  4  5  1  0
  5  6  1  0
  5  7  1  0
  7  8  1  0
  8  9  1  0
  8  2  1  0
  8  4  1  0
  1 10  1  0
  1 11  1  0
  1 12  1  0
  3 13  1  0
  4 14  1  0
  5 15  1  0
  6 16  1  0
  7 17  1  0
  7 18  1  0
  9 19  1  0
  9 20  1  0
  9 21  1  0
M  END
