
     RDKit          3D

 17 19  0  0  0  0  0  0  0  0999 V2000
   -1.8319    0.2173   -0.2715 C   0  0  0  0  0  0  0  0  0  0  0  0
   -0.5581   -0.0994    0.4220 C   0  0  0  0  0  0  0  0  0  0  0  0
   -0.7064   -0.7828    1.6112 O   0  0  0  0  0  0  0  0  0  0  0  0
    0.3051    1.1369    0.6777 C   0  0  0  0  0  0  0  0  0  0  0  0
    0.6388    1.5102   -0.5947 O   0  0  0  0  0  0  0  0  0  0  0  0
    1.1734    0.3029   -1.1045 C   0  0  0  0  0  0  0  0  0  0  0  0
    1.7320   -0.3699    0.0638 C   0  0  0  0  0  0  0  0  0  0  0  0
    1.4731    0.5269    1.1281 O   0  0  0  0  0  0  0  0  0  0  0  0
    0.4498   -0.8144   -0.4861 C   0  0  0  0  0  0  0  0  0  0  0  0
   -2.0152   -0.6035   -1.0242 H   0  0  0  0  0  0  0  0  0  0  0  0
   -2.6647    0.0798    0.4762 H   0  0  0  0  0  0  0  0  0  0  0  0
   -1.9028    1.2098   -0.7101 H   0  0  0  0  0  0  0  0  0  0  0  0
   -0.4221   -1.7267    1.4333 H   0  0  0  0  0  0  0  0  0  0  0  0
   -0.1317    1.8617    1.3231 H   0  0  0  0  0  0  0  0  0  0  0  0
    1.5987    0.2874   -2.1022 H   0  0  0  0  0  0  0  0  0  0  0  0
    2.6354   -0.9746    0.0820 H   0  0  0  0  0  0  0  0  0  0  0  0
    0.2265   -1.7616   -0.9239 H   0  0  0  0  0  0  0  0  0  0  0  0
  1  2  1  0
  2  3  1  0
  2  4  1  0
  4  5  1  0
  5  6  1  0
  6  7  1  0
  7  8  1  0
  7  9  1  0
  9  2  1  0
  8  4  1  0
  9  6  1  0
  1 10  1  0
  1 11  1  0
  1 12  1  0
  3 13  1  0
  4 14  1  0
  6 15  1  0
  7 16  1  0
  9 17  1  0
M  END
