
     RDKit          3D

 25 25  0  0  0  0  0  0  0  0999 V2000
   -1.1051    0.3353    1.3162 C   0  0  0  0  0  0  0  0  0  0  0  0
   -0.7590   -0.2690   -0.0277 C   0  0  0  0  0  0  0  0  0  0  0  0
   -2.0859   -0.8152   -0.5876 C   0  0  0  0  0  0  0  0  0  0  0  0
    0.1487   -1.4419    0.1060 C   0  0  0  0  0  0  0  0  0  0  0  0
    1.5611   -1.2006   -0.2838 C   0  0  0  0  0  0  0  0  0  0  0  0
    2.0680   -0.0493    0.5273 C   0  0  0  0  0  0  0  0  0  0  0  0
    1.6743    1.2011    0.4512 C   0  0  0  0  0  0  0  0  0  0  0  0
    0.6383    1.7814   -0.4492 C   0  0  0  0  0  0  0  0  0  0  0  0
   -0.3199    0.7749   -0.9828 C   0  0  0  0  0  0  0  0  0  0  0  0
   -0.5387    1.2446    1.5363 H   0  0  0  0  0  0  0  0  0  0  0  0
   -2.1847    0.6011    1.3728 H   0  0  0  0  0  0  0  0  0  0  0  0
   -0.8841   -0.3875    2.1426 H   0  0  0  0  0  0  0  0  0  0  0  0
   -1.7921   -1.2847   -1.5688 H   0  0  0  0  0  0  0  0  0  0  0  0
   -2.4814   -1.5411    0.1203 H   0  0  0  0  0  0  0  0  0  0  0  0
   -2.7513    0.0265   -0.8226 H   0  0  0  0  0  0  0  0  0  0  0  0
    0.1430   -1.7400    1.1951 H   0  0  0  0  0  0  0  0  0  0  0  0
   -0.2110   -2.3553   -0.4285 H   0  0  0  0  0  0  0  0  0  0  0  0
    1.5833   -0.9560   -1.3709 H   0  0  0  0  0  0  0  0  0  0  0  0
    2.1579   -2.0895   -0.0344 H   0  0  0  0  0  0  0  0  0  0  0  0
    2.8309   -0.2412    1.2510 H   0  0  0  0  0  0  0  0  0  0  0  0
    2.1350    1.9140    1.1022 H   0  0  0  0  0  0  0  0  0  0  0  0
    0.1573    2.6775    0.0018 H   0  0  0  0  0  0  0  0  0  0  0  0
    1.2194    2.1840   -1.3325 H   0  0  0  0  0  0  0  0  0  0  0  0
   -1.2434    1.3421   -1.3074 H   0  0  0  0  0  0  0  0  0  0  0  0
    0.0395    0.2886   -1.9266 H   0  0  0  0  0  0  0  0  0  0  0  0
  1  2  1  0
  2  3  1  0
  2  4  1  0
  4  5  1  0
  5  6  1  0
  6  7  2  0
  7  8  1  0
  8  9  1  0
  9  2  1  0
  1 10  1  0
  1 11  1  0
  1 12  1  0
  3 13  1  0
  3 14  1  0
  3 15  1  0
  4 16  1  0
  4 17  1  0
  5 18  1  0
  5 19  1  0
  6 20  1  0
  7 21  1  0
  8 22  1  0
  8 23  1  0
  9 24  1  0
  9 25  1  0
M  END
