
     RDKit          3D

 18 19  0  0  0  0  0  0  0  0999 V2000
   -0.4940    1.9511   -0.3998 C   0  0  0  0  0  0  0  0  0  0  0  0
   -0.2886    0.4941   -0.1003 C   0  0  0  0  0  0  0  0  0  0  0  0
   -1.2932   -0.1332    0.8672 C   0  0  0  0  0  0  0  0  0  0  0  0
   -0.9901   -1.4813    1.0576 O   0  0  0  0  0  0  0  0  0  0  0  0
    1.1535    0.0655   -0.0041 C   0  0  0  0  0  0  0  0  0  0  0  0
    1.4896   -1.3784    0.2200 C   0  0  0  0  0  0  0  0  0  0  0  0
    0.4884   -1.7337   -0.6642 O   0  0  0  0  0  0  0  0  0  0  0  0
    0.2670   -0.4319   -1.1019 C   0  0  0  0  0  0  0  0  0  0  0  0
    0.4315    2.4055   -0.8256 H   0  0  0  0  0  0  0  0  0  0  0  0
   -1.2990    2.1455   -1.1332 H   0  0  0  0  0  0  0  0  0  0  0  0
   -0.6636    2.4775    0.5710 H   0  0  0  0  0  0  0  0  0  0  0  0
   -1.1792    0.3432    1.8811 H   0  0  0  0  0  0  0  0  0  0  0  0
   -2.3082    0.0223    0.4554 H   0  0  0  0  0  0  0  0  0  0  0  0
   -1.5676   -2.0336    0.4616 H   0  0  0  0  0  0  0  0  0  0  0  0
    1.9554    0.7917   -0.2028 H   0  0  0  0  0  0  0  0  0  0  0  0
    2.4803   -1.6805   -0.2030 H   0  0  0  0  0  0  0  0  0  0  0  0
    1.3598   -1.6639    1.2686 H   0  0  0  0  0  0  0  0  0  0  0  0
    0.4579   -0.1600   -2.1476 H   0  0  0  0  0  0  0  0  0  0  0  0
  1  2  1  0
  2  3  1  0
  3  4  1  0
  2  5  1  0
  5  6  1  0
  6  7  1  0
  7  8  1  0
  8  2  1  0
  8  5  1  0
  1  9  1  0
  1 10  1  0
  1 11  1  0
  3 12  1  0
  3 13  1  0
  4 14  1  0
  5 15  1  0
  6 16  1  0
  6 17  1  0
  8 18  1  0
M  END
