
     RDKit          3D

 16 16  0  0  0  0  0  0  0  0999 V2000
   -1.6955   -0.3485   -0.4845 C   0  0  0  0  0  0  0  0  0  0  0  0
   -0.4485    0.0051    0.2743 C   0  0  0  0  0  0  0  0  0  0  0  0
   -0.6865   -0.1974    1.6296 O   0  0  0  0  0  0  0  0  0  0  0  0
    0.7766   -0.6904   -0.2166 C   0  0  0  0  0  0  0  0  0  0  0  0
    1.8918    0.3107    0.0384 C   0  0  0  0  0  0  0  0  0  0  0  0
    1.2433    1.5391    0.3600 O   0  0  0  0  0  0  0  0  0  0  0  0
   -0.1148    1.4448   -0.0015 C   0  0  0  0  0  0  0  0  0  0  0  0
   -0.8648    2.3489   -0.4473 O   0  0  0  0  0  0  0  0  0  0  0  0
   -2.5200    0.2759   -0.0552 H   0  0  0  0  0  0  0  0  0  0  0  0
   -1.6394   -0.1024   -1.5581 H   0  0  0  0  0  0  0  0  0  0  0  0
   -1.9839   -1.3960   -0.2937 H   0  0  0  0  0  0  0  0  0  0  0  0
   -0.7506   -1.1771    1.7592 H   0  0  0  0  0  0  0  0  0  0  0  0
    0.7441   -0.8613   -1.3002 H   0  0  0  0  0  0  0  0  0  0  0  0
    1.0060   -1.6385    0.3094 H   0  0  0  0  0  0  0  0  0  0  0  0
    2.5588   -0.0266    0.8778 H   0  0  0  0  0  0  0  0  0  0  0  0
    2.4835    0.5139   -0.8914 H   0  0  0  0  0  0  0  0  0  0  0  0
  1  2  1  0
  2  3  1  0
  2  4  1  0
  4  5  1  0
  5  6  1  0
  6  7  1  0
  7  8  2  0
  7  2  1  0
  1  9  1  0
  1 10  1  0
  1 11  1  0
  3 12  1  0
  4 13  1  0
  4 14  1  0
  5 15  1  0
  5 16  1  0
M  END
