
     RDKit          3D

 20 21  0  0  0  0  0  0  0  0999 V2000
   -1.2432    0.0923   -1.1531 C   0  0  0  0  0  0  0  0  0  0  0  0
   -0.5243   -0.2371    0.1277 C   0  0  0  0  0  0  0  0  0  0  0  0
   -1.4212   -0.9322    1.1143 C   0  0  0  0  0  0  0  0  0  0  0  0
    0.2015    0.9027    0.7857 C   0  0  0  0  0  0  0  0  0  0  0  0
   -0.1158    2.1354    0.2320 O   0  0  0  0  0  0  0  0  0  0  0  0
    1.5145    0.3138    0.4146 C   0  0  0  0  0  0  0  0  0  0  0  0
    1.7683   -0.1568   -0.9833 C   0  0  0  0  0  0  0  0  0  0  0  0
    0.7927   -0.8836   -0.1496 C   0  0  0  0  0  0  0  0  0  0  0  0
   -1.7946   -0.8246   -1.4581 H   0  0  0  0  0  0  0  0  0  0  0  0
   -0.5220    0.2926   -1.9805 H   0  0  0  0  0  0  0  0  0  0  0  0
   -1.9042    0.9688   -1.0795 H   0  0  0  0  0  0  0  0  0  0  0  0
   -1.0982   -0.7855    2.1739 H   0  0  0  0  0  0  0  0  0  0  0  0
   -2.4214   -0.4409    1.0416 H   0  0  0  0  0  0  0  0  0  0  0  0
   -1.4788   -2.0141    0.9509 H   0  0  0  0  0  0  0  0  0  0  0  0
    0.1004    0.9303    1.9081 H   0  0  0  0  0  0  0  0  0  0  0  0
    0.5875    2.4476   -0.3756 H   0  0  0  0  0  0  0  0  0  0  0  0
    2.3188    0.1810    1.1429 H   0  0  0  0  0  0  0  0  0  0  0  0
    1.4878    0.5663   -1.7592 H   0  0  0  0  0  0  0  0  0  0  0  0
    2.7228   -0.6676   -1.1722 H   0  0  0  0  0  0  0  0  0  0  0  0
    1.0293   -1.8885    0.2192 H   0  0  0  0  0  0  0  0  0  0  0  0
  1  2  1  0
  2  3  1  0
  2  4  1  0
  4  5  1  0
  4  6  1  0
  6  7  1  0
  7  8  1  0
  8  2  1  0
  8  6  1  0
  1  9  1  0
  1 10  1  0
  1 11  1  0
  3 12  1  0
  3 13  1  0
  3 14  1  0
  4 15  1  0
  5 16  1  0
  6 17  1  0
  7 18  1  0
  7 19  1  0
  8 20  1  0
M  END
