
     RDKit          3D

 21 22  0  0  0  0  0  0  0  0999 V2000
   -1.6428   -0.2328    1.0674 C   0  0  0  0  0  0  0  0  0  0  0  0
   -0.7804    0.0970   -0.1564 C   0  0  0  0  0  0  0  0  0  0  0  0
   -1.7362    0.5799   -1.2377 C   0  0  0  0  0  0  0  0  0  0  0  0
   -0.1199   -1.1884   -0.5724 C   0  0  0  0  0  0  0  0  0  0  0  0
    1.2431   -1.0701   -0.7581 O   0  0  0  0  0  0  0  0  0  0  0  0
    1.8825   -0.4909    0.3189 C   0  0  0  0  0  0  0  0  0  0  0  0
    2.5672    0.8171    0.0178 C   0  0  0  0  0  0  0  0  0  0  0  0
    1.2459    0.7737    0.7376 C   0  0  0  0  0  0  0  0  0  0  0  0
    0.0996    1.1237    0.0929 O   0  0  0  0  0  0  0  0  0  0  0  0
   -1.0343   -0.2713    1.9689 H   0  0  0  0  0  0  0  0  0  0  0  0
   -2.5119    0.4351    1.1037 H   0  0  0  0  0  0  0  0  0  0  0  0
   -2.0586   -1.2668    0.8969 H   0  0  0  0  0  0  0  0  0  0  0  0
   -1.6208    1.6710   -1.4347 H   0  0  0  0  0  0  0  0  0  0  0  0
   -1.5980    0.0135   -2.1814 H   0  0  0  0  0  0  0  0  0  0  0  0
   -2.7987    0.4391   -0.9495 H   0  0  0  0  0  0  0  0  0  0  0  0
   -0.2720   -2.0135    0.1690 H   0  0  0  0  0  0  0  0  0  0  0  0
   -0.5558   -1.5425   -1.5408 H   0  0  0  0  0  0  0  0  0  0  0  0
    2.2541   -1.1446    1.1163 H   0  0  0  0  0  0  0  0  0  0  0  0
    2.6227    1.1441   -1.0352 H   0  0  0  0  0  0  0  0  0  0  0  0
    3.4940    0.9838    0.5815 H   0  0  0  0  0  0  0  0  0  0  0  0
    1.3203    1.1430    1.7953 H   0  0  0  0  0  0  0  0  0  0  0  0
  1  2  1  0
  2  3  1  0
  2  4  1  0
  4  5  1  0
  5  6  1  0
  6  7  1  0
  7  8  1  0
  8  9  1  0
  9  2  1  0
  8  6  1  0
  1 10  1  0
  1 11  1  0
  1 12  1  0
  3 13  1  0
  3 14  1  0
  3 15  1  0
  4 16  1  0
  4 17  1  0
  6 18  1  0
  7 19  1  0
  7 20  1  0
  8 21  1  0
M  END
