
     RDKit          3D

 15 16  0  0  0  0  0  0  0  0999 V2000
    1.3423    1.1912   -0.3939 C   0  0  0  0  0  0  0  0  0  0  0  0
    0.4616    0.0608    0.0539 C   0  0  0  0  0  0  0  0  0  0  0  0
   -0.8481   -0.0312   -0.6491 C   0  0  0  0  0  0  0  0  0  0  0  0
   -2.0559   -0.2318    0.2514 C   0  0  0  0  0  0  0  0  0  0  0  0
   -1.5724   -1.2143   -0.6496 O   0  0  0  0  0  0  0  0  0  0  0  0
    1.0314   -1.1673    0.5951 C   0  0  0  0  0  0  0  0  0  0  0  0
    0.5206   -0.1769    1.4296 O   0  0  0  0  0  0  0  0  0  0  0  0
    1.1450    1.3544   -1.4851 H   0  0  0  0  0  0  0  0  0  0  0  0
    0.9541    2.1169    0.1116 H   0  0  0  0  0  0  0  0  0  0  0  0
    2.4097    1.0335   -0.2053 H   0  0  0  0  0  0  0  0  0  0  0  0
   -1.0335    0.7222   -1.4334 H   0  0  0  0  0  0  0  0  0  0  0  0
   -1.8624   -0.5294    1.3026 H   0  0  0  0  0  0  0  0  0  0  0  0
   -3.0125    0.2595   -0.0032 H   0  0  0  0  0  0  0  0  0  0  0  0
    0.4055   -2.0811    0.5725 H   0  0  0  0  0  0  0  0  0  0  0  0
    2.1146   -1.3065    0.5028 H   0  0  0  0  0  0  0  0  0  0  0  0
  1  2  1  0
  2  3  1  0
  3  4  1  0
  4  5  1  0
  2  6  1  0
  6  7  1  0
  7  2  1  0
  5  3  1  0
  1  8  1  0
  1  9  1  0
  1 10  1  0
  3 11  1  0
  4 12  1  0
  4 13  1  0
  6 14  1  0
  6 15  1  0
M  END
