
     RDKit          3D

 21 21  0  0  0  0  0  0  0  0999 V2000
    1.7564    0.5203    0.6963 C   0  0  0  0  0  0  0  0  0  0  0  0
    0.6887    0.0573   -0.2429 C   0  0  0  0  0  0  0  0  0  0  0  0
    0.7766    0.6531   -1.5001 O   0  0  0  0  0  0  0  0  0  0  0  0
    0.5558   -1.4440   -0.4022 C   0  0  0  0  0  0  0  0  0  0  0  0
   -0.9615   -1.2390   -0.2837 C   0  0  0  0  0  0  0  0  0  0  0  0
   -1.4757   -2.2219    0.5673 O   0  0  0  0  0  0  0  0  0  0  0  0
   -0.6625    0.0729    0.3879 C   0  0  0  0  0  0  0  0  0  0  0  0
   -1.5423    1.2247   -0.0146 C   0  0  0  0  0  0  0  0  0  0  0  0
   -0.9567    2.4410    0.3212 O   0  0  0  0  0  0  0  0  0  0  0  0
    1.3941    0.4513    1.7302 H   0  0  0  0  0  0  0  0  0  0  0  0
    1.9561    1.6041    0.4478 H   0  0  0  0  0  0  0  0  0  0  0  0
    2.7146   -0.0305    0.5959 H   0  0  0  0  0  0  0  0  0  0  0  0
    1.4236    0.0950   -2.0211 H   0  0  0  0  0  0  0  0  0  0  0  0
    0.7904   -1.8394   -1.4052 H   0  0  0  0  0  0  0  0  0  0  0  0
    0.9946   -2.0366    0.4148 H   0  0  0  0  0  0  0  0  0  0  0  0
   -1.4797   -1.1910   -1.2457 H   0  0  0  0  0  0  0  0  0  0  0  0
   -0.9754   -2.1305    1.4307 H   0  0  0  0  0  0  0  0  0  0  0  0
   -0.6325   -0.0330    1.4905 H   0  0  0  0  0  0  0  0  0  0  0  0
   -2.5424    1.1949    0.4058 H   0  0  0  0  0  0  0  0  0  0  0  0
   -1.6433    1.2106   -1.1343 H   0  0  0  0  0  0  0  0  0  0  0  0
   -0.1786    2.6408   -0.2386 H   0  0  0  0  0  0  0  0  0  0  0  0
  1  2  1  0
  2  3  1  0
  2  4  1  0
  4  5  1  0
  5  6  1  0
  5  7  1  0
  7  8  1  0
  8  9  1  0
  7  2  1  0
  1 10  1  0
  1 11  1  0
  1 12  1  0
  3 13  1  0
  4 14  1  0
  4 15  1  0
  5 16  1  0
  6 17  1  0
  7 18  1  0
  8 19  1  0
  8 20  1  0
  9 21  1  0
M  END
