
     RDKit          3D

 20 21  0  0  0  0  0  0  0  0999 V2000
   -1.3414   -1.1401    0.7418 C   0  0  0  0  0  0  0  0  0  0  0  0
   -0.5266   -0.0377    0.1562 C   0  0  0  0  0  0  0  0  0  0  0  0
   -1.1249    1.3326    0.4183 C   0  0  0  0  0  0  0  0  0  0  0  0
   -0.3352   -0.1704   -1.3470 C   0  0  0  0  0  0  0  0  0  0  0  0
    0.6870    0.7110   -1.5840 O   0  0  0  0  0  0  0  0  0  0  0  0
    1.5946    0.6451   -0.5619 C   0  0  0  0  0  0  0  0  0  0  0  0
    1.9824   -0.6910   -0.0850 C   0  0  0  0  0  0  0  0  0  0  0  0
    0.8938    0.0027    0.6292 C   0  0  0  0  0  0  0  0  0  0  0  0
   -0.7866   -2.0402    0.9946 H   0  0  0  0  0  0  0  0  0  0  0  0
   -1.8994   -0.7065    1.6194 H   0  0  0  0  0  0  0  0  0  0  0  0
   -2.1578   -1.3900    0.0050 H   0  0  0  0  0  0  0  0  0  0  0  0
   -2.0528    1.5105   -0.1162 H   0  0  0  0  0  0  0  0  0  0  0  0
   -0.3589    2.0687    0.0596 H   0  0  0  0  0  0  0  0  0  0  0  0
   -1.2465    1.4197    1.5120 H   0  0  0  0  0  0  0  0  0  0  0  0
   -1.2419    0.0741   -1.8972 H   0  0  0  0  0  0  0  0  0  0  0  0
   -0.0576   -1.2336   -1.5746 H   0  0  0  0  0  0  0  0  0  0  0  0
    2.1474    1.5655   -0.2956 H   0  0  0  0  0  0  0  0  0  0  0  0
    1.7932   -1.5525   -0.7669 H   0  0  0  0  0  0  0  0  0  0  0  0
    2.9406   -0.7798    0.4504 H   0  0  0  0  0  0  0  0  0  0  0  0
    1.0907    0.4119    1.6419 H   0  0  0  0  0  0  0  0  0  0  0  0
  1  2  1  0
  2  3  1  0
  2  4  1  0
  4  5  1  0
  5  6  1  0
  6  7  1  0
  7  8  1  0
  8  2  1  0
  8  6  1  0
  1  9  1  0
  1 10  1  0
  1 11  1  0
  3 12  1  0
  3 13  1  0
  3 14  1  0
  4 15  1  0
  4 16  1  0
  6 17  1  0
  7 18  1  0
  7 19  1  0
  8 20  1  0
M  END
