
     RDKit          3D

 25 26  0  0  0  0  0  0  0  0999 V2000
   -1.8064    1.6510    0.2885 C   0  0  0  0  0  0  0  0  0  0  0  0
   -1.1525    0.2884    0.3959 C   0  0  0  0  0  0  0  0  0  0  0  0
    0.3343    0.3101    0.2831 C   0  0  0  0  0  0  0  0  0  0  0  0
    0.9653   -1.0526    0.3922 C   0  0  0  0  0  0  0  0  0  0  0  0
    2.4037   -0.7115   -0.0283 C   0  0  0  0  0  0  0  0  0  0  0  0
    2.0879   -0.0133   -1.3614 C   0  0  0  0  0  0  0  0  0  0  0  0
    0.8450    0.7953   -1.0454 C   0  0  0  0  0  0  0  0  0  0  0  0
   -1.9773   -0.8487   -0.0443 C   0  0  0  0  0  0  0  0  0  0  0  0
   -1.7281   -0.6160    1.4277 C   0  0  0  0  0  0  0  0  0  0  0  0
   -2.8428    1.5957    0.6900 H   0  0  0  0  0  0  0  0  0  0  0  0
   -1.9155    1.8725   -0.8085 H   0  0  0  0  0  0  0  0  0  0  0  0
   -1.2156    2.4575    0.7210 H   0  0  0  0  0  0  0  0  0  0  0  0
    0.8009    0.9461    1.0642 H   0  0  0  0  0  0  0  0  0  0  0  0
    0.9201   -1.4920    1.3858 H   0  0  0  0  0  0  0  0  0  0  0  0
    0.6050   -1.7419   -0.4181 H   0  0  0  0  0  0  0  0  0  0  0  0
    2.9696   -1.6341   -0.1940 H   0  0  0  0  0  0  0  0  0  0  0  0
    2.8686   -0.0112    0.6881 H   0  0  0  0  0  0  0  0  0  0  0  0
    1.8281   -0.8625   -2.0582 H   0  0  0  0  0  0  0  0  0  0  0  0
    2.9224    0.5832   -1.7197 H   0  0  0  0  0  0  0  0  0  0  0  0
    0.1213    0.6705   -1.8649 H   0  0  0  0  0  0  0  0  0  0  0  0
    1.1609    1.8660   -1.0223 H   0  0  0  0  0  0  0  0  0  0  0  0
   -3.0236   -0.6725   -0.3500 H   0  0  0  0  0  0  0  0  0  0  0  0
   -1.4975   -1.6877   -0.5541 H   0  0  0  0  0  0  0  0  0  0  0  0
   -2.5532   -0.2750    2.0749 H   0  0  0  0  0  0  0  0  0  0  0  0
   -1.1206   -1.4174    1.8919 H   0  0  0  0  0  0  0  0  0  0  0  0
  1  2  1  0
  2  3  1  0
  3  4  1  0
  4  5  1  0
  5  6  1  0
  6  7  1  0
  2  8  1  0
  8  9  1  0
  9  2  1  0
  7  3  1  0
  1 10  1  0
  1 11  1  0
  1 12  1  0
  3 13  1  0
  4 14  1  0
  4 15  1  0
  5 16  1  0
  5 17  1  0
  6 18  1  0
  6 19  1  0
  7 20  1  0
  7 21  1  0
  8 22  1  0
  8 23  1  0
  9 24  1  0
  9 25  1  0
M  END
