
     RDKit          3D

 21 23  0  0  0  0  0  0  0  0999 V2000
    1.7674   -0.8746   -0.1355 C   0  0  0  0  0  0  0  0  0  0  0  0
    0.3472   -0.5293   -0.6049 C   0  0  0  0  0  0  0  0  0  0  0  0
    0.3490   -0.3366   -1.9701 O   0  0  0  0  0  0  0  0  0  0  0  0
   -0.6674   -1.4433   -0.0332 C   0  0  0  0  0  0  0  0  0  0  0  0
   -2.0394   -1.0866    0.2905 C   0  0  0  0  0  0  0  0  0  0  0  0
   -0.9816   -0.3310    1.0103 C   0  0  0  0  0  0  0  0  0  0  0  0
   -0.1807    0.6049    0.1769 C   0  0  0  0  0  0  0  0  0  0  0  0
   -0.6270    1.8750   -0.3380 C   0  0  0  0  0  0  0  0  0  0  0  0
    0.5620    1.7427    0.6575 C   0  0  0  0  0  0  0  0  0  0  0  0
    1.9669   -0.4204    0.8727 H   0  0  0  0  0  0  0  0  0  0  0  0
    1.8683   -1.9687    0.0146 H   0  0  0  0  0  0  0  0  0  0  0  0
    2.5209   -0.5472   -0.8745 H   0  0  0  0  0  0  0  0  0  0  0  0
    1.2604   -0.0584   -2.2684 H   0  0  0  0  0  0  0  0  0  0  0  0
   -0.2797   -2.3966    0.3645 H   0  0  0  0  0  0  0  0  0  0  0  0
   -2.6298   -1.7758    0.8923 H   0  0  0  0  0  0  0  0  0  0  0  0
   -2.6769   -0.4488   -0.3839 H   0  0  0  0  0  0  0  0  0  0  0  0
   -0.6544   -0.5804    2.0212 H   0  0  0  0  0  0  0  0  0  0  0  0
   -0.3399    2.1312   -1.3945 H   0  0  0  0  0  0  0  0  0  0  0  0
   -1.5211    2.4179    0.0635 H   0  0  0  0  0  0  0  0  0  0  0  0
    1.5768    1.9242    0.1980 H   0  0  0  0  0  0  0  0  0  0  0  0
    0.3791    2.1016    1.6868 H   0  0  0  0  0  0  0  0  0  0  0  0
  1  2  1  0
  2  3  1  0
  2  4  1  0
  4  5  1  0
  5  6  1  0
  6  7  1  0
  7  8  1  0
  8  9  1  0
  7  2  1  0
  6  4  1  0
  9  7  1  0
  1 10  1  0
  1 11  1  0
  1 12  1  0
  3 13  1  0
  4 14  1  0
  5 15  1  0
  5 16  1  0
  6 17  1  0
  8 18  1  0
  8 19  1  0
  9 20  1  0
  9 21  1  0
M  END
