
     RDKit          3D

 21 22  0  0  0  0  0  0  0  0999 V2000
    1.3673    0.9014   -0.5318 C   0  0  0  0  0  0  0  0  0  0  0  0
    0.5364   -0.1395    0.1099 C   0  0  0  0  0  0  0  0  0  0  0  0
    1.4042   -1.0034    0.9804 C   0  0  0  0  0  0  0  0  0  0  0  0
   -0.1565   -0.9721   -0.9764 C   0  0  0  0  0  0  0  0  0  0  0  0
   -1.6150   -0.6761   -0.6372 C   0  0  0  0  0  0  0  0  0  0  0  0
   -1.8369    0.6498   -0.9580 O   0  0  0  0  0  0  0  0  0  0  0  0
   -1.4541    1.3906    0.1806 C   0  0  0  0  0  0  0  0  0  0  0  0
   -0.6244    0.3626    0.9113 C   0  0  0  0  0  0  0  0  0  0  0  0
   -1.5237   -0.7305    0.7764 O   0  0  0  0  0  0  0  0  0  0  0  0
    0.8678    1.8136   -0.8411 H   0  0  0  0  0  0  0  0  0  0  0  0
    2.2557    1.0965    0.1219 H   0  0  0  0  0  0  0  0  0  0  0  0
    1.8127    0.4533   -1.4681 H   0  0  0  0  0  0  0  0  0  0  0  0
    0.8438   -1.9045    1.3080 H   0  0  0  0  0  0  0  0  0  0  0  0
    1.7085   -0.3830    1.8529 H   0  0  0  0  0  0  0  0  0  0  0  0
    2.3308   -1.3079    0.4256 H   0  0  0  0  0  0  0  0  0  0  0  0
    0.0816   -2.0356   -0.8952 H   0  0  0  0  0  0  0  0  0  0  0  0
    0.0674   -0.5536   -1.9773 H   0  0  0  0  0  0  0  0  0  0  0  0
   -2.3116   -1.3851   -1.0471 H   0  0  0  0  0  0  0  0  0  0  0  0
   -0.9443    2.3124   -0.0519 H   0  0  0  0  0  0  0  0  0  0  0  0
   -2.3952    1.5112    0.7711 H   0  0  0  0  0  0  0  0  0  0  0  0
   -0.4144    0.5999    1.9460 H   0  0  0  0  0  0  0  0  0  0  0  0
  1  2  1  0
  2  3  1  0
  2  4  1  0
  4  5  1  0
  5  6  1  0
  6  7  1  0
  7  8  1  0
  8  9  1  0
  8  2  1  0
  9  5  1  0
  1 10  1  0
  1 11  1  0
  1 12  1  0
  3 13  1  0
  3 14  1  0
  3 15  1  0
  4 16  1  0
  4 17  1  0
  5 18  1  0
  7 19  1  0
  7 20  1  0
  8 21  1  0
M  END
