
     RDKit          3D

 19 19  0  0  0  0  0  0  0  0999 V2000
    2.0196    0.7719    0.1663 C   0  0  0  0  0  0  0  0  0  0  0  0
    0.6636    0.2868    0.5841 C   0  0  0  0  0  0  0  0  0  0  0  0
    0.1111    0.9264    1.6701 O   0  0  0  0  0  0  0  0  0  0  0  0
    0.5192   -1.2312    0.4689 C   0  0  0  0  0  0  0  0  0  0  0  0
    1.4792   -1.9359   -0.2398 O   0  0  0  0  0  0  0  0  0  0  0  0
   -0.2873   -0.2744   -0.4013 C   0  0  0  0  0  0  0  0  0  0  0  0
   -1.7549   -0.2855   -0.1134 C   0  0  0  0  0  0  0  0  0  0  0  0
   -2.2722    1.1072    0.0930 C   0  0  0  0  0  0  0  0  0  0  0  0
   -3.4485    1.2502    0.3357 O   0  0  0  0  0  0  0  0  0  0  0  0
    2.7632    0.0293    0.5351 H   0  0  0  0  0  0  0  0  0  0  0  0
    2.1515    0.7732   -0.9528 H   0  0  0  0  0  0  0  0  0  0  0  0
    2.2986    1.7497    0.5979 H   0  0  0  0  0  0  0  0  0  0  0  0
    0.5241    0.5964    2.4841 H   0  0  0  0  0  0  0  0  0  0  0  0
    0.0219   -1.6979    1.3278 H   0  0  0  0  0  0  0  0  0  0  0  0
    1.1515   -2.2403   -1.1354 H   0  0  0  0  0  0  0  0  0  0  0  0
   -0.0078   -0.1511   -1.4594 H   0  0  0  0  0  0  0  0  0  0  0  0
   -2.2745   -0.6839   -1.0112 H   0  0  0  0  0  0  0  0  0  0  0  0
   -2.0436   -0.9403    0.7293 H   0  0  0  0  0  0  0  0  0  0  0  0
   -1.6147    1.9491    0.0264 H   0  0  0  0  0  0  0  0  0  0  0  0
  1  2  1  0
  2  3  1  0
  2  4  1  0
  4  5  1  0
  4  6  1  0
  6  7  1  0
  7  8  1  0
  8  9  2  0
  6  2  1  0
  1 10  1  0
  1 11  1  0
  1 12  1  0
  3 13  1  0
  4 14  1  0
  5 15  1  0
  6 16  1  0
  7 17  1  0
  7 18  1  0
  8 19  1  0
M  END
