
     RDKit          3D

 19 19  0  0  0  0  0  0  0  0999 V2000
    1.4762    0.4588    1.0360 C   0  0  0  0  0  0  0  0  0  0  0  0
    0.6534   -0.2353   -0.0356 C   0  0  0  0  0  0  0  0  0  0  0  0
    1.5517   -0.5018   -1.1911 C   0  0  0  0  0  0  0  0  0  0  0  0
    2.1185    0.4332   -1.7250 O   0  0  0  0  0  0  0  0  0  0  0  0
    0.1300   -1.4263    0.3996 O   0  0  0  0  0  0  0  0  0  0  0  0
   -1.2065   -1.4733    0.0693 C   0  0  0  0  0  0  0  0  0  0  0  0
   -1.6458   -0.0230    0.3137 C   0  0  0  0  0  0  0  0  0  0  0  0
   -0.4794    0.6809   -0.3941 C   0  0  0  0  0  0  0  0  0  0  0  0
   -0.3119    1.9760    0.0758 O   0  0  0  0  0  0  0  0  0  0  0  0
    2.3448    0.9396    0.5685 H   0  0  0  0  0  0  0  0  0  0  0  0
    1.7807   -0.2924    1.7936 H   0  0  0  0  0  0  0  0  0  0  0  0
    0.8845    1.2511    1.5558 H   0  0  0  0  0  0  0  0  0  0  0  0
    1.7330   -1.4891   -1.5893 H   0  0  0  0  0  0  0  0  0  0  0  0
   -1.2789   -1.6228   -1.0251 H   0  0  0  0  0  0  0  0  0  0  0  0
   -1.7706   -2.1790    0.6709 H   0  0  0  0  0  0  0  0  0  0  0  0
   -2.6069    0.2034   -0.1419 H   0  0  0  0  0  0  0  0  0  0  0  0
   -1.5931    0.1256    1.4055 H   0  0  0  0  0  0  0  0  0  0  0  0
   -0.7197    0.6647   -1.4777 H   0  0  0  0  0  0  0  0  0  0  0  0
   -1.0598    2.5099   -0.3088 H   0  0  0  0  0  0  0  0  0  0  0  0
  1  2  1  0
  2  3  1  0
  3  4  2  0
  2  5  1  0
  5  6  1  0
  6  7  1  0
  7  8  1  0
  8  9  1  0
  8  2  1  0
  1 10  1  0
  1 11  1  0
  1 12  1  0
  3 13  1  0
  6 14  1  0
  6 15  1  0
  7 16  1  0
  7 17  1  0
  8 18  1  0
  9 19  1  0
M  END
