
     RDKit          3D

 19 20  0  0  0  0  0  0  0  0999 V2000
   -1.6647    1.1111   -0.1030 C   0  0  0  0  0  0  0  0  0  0  0  0
   -0.5202    0.1819    0.0257 C   0  0  0  0  0  0  0  0  0  0  0  0
   -0.9330   -1.2155    0.2886 C   0  0  0  0  0  0  0  0  0  0  0  0
    0.6706    0.7174    0.7377 C   0  0  0  0  0  0  0  0  0  0  0  0
    1.7381   -0.3642    0.6392 C   0  0  0  0  0  0  0  0  0  0  0  0
    1.5011   -0.6626   -0.8315 C   0  0  0  0  0  0  0  0  0  0  0  0
    2.0320   -1.4711   -1.5229 O   0  0  0  0  0  0  0  0  0  0  0  0
    0.4470    0.3262   -1.1218 C   0  0  0  0  0  0  0  0  0  0  0  0
    0.9471    1.4534   -0.4286 O   0  0  0  0  0  0  0  0  0  0  0  0
   -1.3019    2.1500    0.0325 H   0  0  0  0  0  0  0  0  0  0  0  0
   -2.1556    0.9490   -1.0826 H   0  0  0  0  0  0  0  0  0  0  0  0
   -2.3798    0.9109    0.7211 H   0  0  0  0  0  0  0  0  0  0  0  0
   -1.5007   -1.2381    1.2522 H   0  0  0  0  0  0  0  0  0  0  0  0
   -0.1094   -1.9382    0.2922 H   0  0  0  0  0  0  0  0  0  0  0  0
   -1.7051   -1.4890   -0.4902 H   0  0  0  0  0  0  0  0  0  0  0  0
    0.5730    1.2489    1.6556 H   0  0  0  0  0  0  0  0  0  0  0  0
    1.5372   -1.2287    1.2661 H   0  0  0  0  0  0  0  0  0  0  0  0
    2.7383    0.0922    0.7756 H   0  0  0  0  0  0  0  0  0  0  0  0
    0.0860    0.4663   -2.1058 H   0  0  0  0  0  0  0  0  0  0  0  0
  1  2  1  0
  2  3  1  0
  2  4  1  0
  4  5  1  0
  5  6  1  0
  6  7  2  0
  6  8  1  0
  8  9  1  0
  8  2  1  0
  9  4  1  0
  1 10  1  0
  1 11  1  0
  1 12  1  0
  3 13  1  0
  3 14  1  0
  3 15  1  0
  4 16  1  0
  5 17  1  0
  5 18  1  0
  8 19  1  0
M  END
