
     RDKit          3D

 21 22  0  0  0  0  0  0  0  0999 V2000
   -1.2370    1.0367    0.9783 C   0  0  0  0  0  0  0  0  0  0  0  0
   -0.6496   -0.0480    0.1190 C   0  0  0  0  0  0  0  0  0  0  0  0
   -1.4502   -1.3195    0.3551 C   0  0  0  0  0  0  0  0  0  0  0  0
   -0.7702    0.3000   -1.3422 C   0  0  0  0  0  0  0  0  0  0  0  0
    0.4902    0.6979   -1.7278 O   0  0  0  0  0  0  0  0  0  0  0  0
    1.4167   -0.0123   -0.9911 C   0  0  0  0  0  0  0  0  0  0  0  0
    1.8471    0.6883    0.2720 C   0  0  0  0  0  0  0  0  0  0  0  0
    3.1014    0.3369    0.7404 O   0  0  0  0  0  0  0  0  0  0  0  0
    0.7902   -0.3102    0.3544 C   0  0  0  0  0  0  0  0  0  0  0  0
   -1.1879    0.7908    2.0360 H   0  0  0  0  0  0  0  0  0  0  0  0
   -0.8113    2.0284    0.7980 H   0  0  0  0  0  0  0  0  0  0  0  0
   -2.3229    1.1053    0.7122 H   0  0  0  0  0  0  0  0  0  0  0  0
   -1.8431   -1.7416   -0.6062 H   0  0  0  0  0  0  0  0  0  0  0  0
   -0.7617   -2.1262    0.7444 H   0  0  0  0  0  0  0  0  0  0  0  0
   -2.3041   -1.1711    1.0170 H   0  0  0  0  0  0  0  0  0  0  0  0
   -1.5413    1.0646   -1.4988 H   0  0  0  0  0  0  0  0  0  0  0  0
   -0.9954   -0.6425   -1.9236 H   0  0  0  0  0  0  0  0  0  0  0  0
    1.9942   -0.8314   -1.4129 H   0  0  0  0  0  0  0  0  0  0  0  0
    1.6545    1.7922    0.3537 H   0  0  0  0  0  0  0  0  0  0  0  0
    3.5383   -0.3531    0.1662 H   0  0  0  0  0  0  0  0  0  0  0  0
    1.0422   -1.2854    0.8558 H   0  0  0  0  0  0  0  0  0  0  0  0
  1  2  1  0
  2  3  1  0
  2  4  1  0
  4  5  1  0
  5  6  1  0
  6  7  1  0
  7  8  1  0
  7  9  1  0
  9  2  1  0
  9  6  1  0
  1 10  1  0
  1 11  1  0
  1 12  1  0
  3 13  1  0
  3 14  1  0
  3 15  1  0
  4 16  1  0
  4 17  1  0
  6 18  1  0
  7 19  1  0
  8 20  1  0
  9 21  1  0
M  END
