
     RDKit          3D

 17 17  0  0  0  0  0  0  0  0999 V2000
   -1.4167   -1.0835   -0.2654 C   0  0  0  0  0  0  0  0  0  0  0  0
   -0.4841    0.0256    0.1949 C   0  0  0  0  0  0  0  0  0  0  0  0
   -1.1518    1.3130    0.4724 C   0  0  0  0  0  0  0  0  0  0  0  0
   -2.2826    1.3109    0.9349 O   0  0  0  0  0  0  0  0  0  0  0  0
    0.4460   -0.3546    1.2779 C   0  0  0  0  0  0  0  0  0  0  0  0
    0.3665   -0.5898    2.4702 O   0  0  0  0  0  0  0  0  0  0  0  0
    1.5916   -0.3467    0.3264 C   0  0  0  0  0  0  0  0  0  0  0  0
    0.6733    0.1129   -0.7755 C   0  0  0  0  0  0  0  0  0  0  0  0
    1.0014    1.4243   -1.1383 O   0  0  0  0  0  0  0  0  0  0  0  0
   -1.7831   -0.7536   -1.2823 H   0  0  0  0  0  0  0  0  0  0  0  0
   -0.8120   -1.9895   -0.3855 H   0  0  0  0  0  0  0  0  0  0  0  0
   -2.3069   -1.1866    0.3561 H   0  0  0  0  0  0  0  0  0  0  0  0
   -0.6858    2.2866    0.2850 H   0  0  0  0  0  0  0  0  0  0  0  0
    1.9828   -1.3776    0.2226 H   0  0  0  0  0  0  0  0  0  0  0  0
    2.3893    0.3850    0.6170 H   0  0  0  0  0  0  0  0  0  0  0  0
    0.6187   -0.5385   -1.6559 H   0  0  0  0  0  0  0  0  0  0  0  0
    1.8536    1.3621   -1.6544 H   0  0  0  0  0  0  0  0  0  0  0  0
  1  2  1  0
  2  3  1  0
  3  4  2  0
  2  5  1  0
  5  6  2  0
  5  7  1  0
  7  8  1  0
  8  9  1  0
  8  2  1  0
  1 10  1  0
  1 11  1  0
  1 12  1  0
  3 13  1  0
  7 14  1  0
  7 15  1  0
  8 16  1  0
  9 17  1  0
M  END
