
     RDKit          3D

 19 20  0  0  0  0  0  0  0  0999 V2000
   -0.7389   -1.8218   -0.2512 C   0  0  0  0  0  0  0  0  0  0  0  0
   -0.4399   -0.3429    0.0534 C   0  0  0  0  0  0  0  0  0  0  0  0
   -1.7445    0.4674   -0.0218 C   0  0  0  0  0  0  0  0  0  0  0  0
   -1.5317    1.8035    0.2439 O   0  0  0  0  0  0  0  0  0  0  0  0
    0.4916    0.0368    1.0544 C   0  0  0  0  0  0  0  0  0  0  0  0
    1.4577    1.0406    1.0566 O   0  0  0  0  0  0  0  0  0  0  0  0
    2.1582    0.0996    0.2493 C   0  0  0  0  0  0  0  0  0  0  0  0
    0.8101    0.1315   -0.4911 C   0  0  0  0  0  0  0  0  0  0  0  0
    0.6573    1.4202   -1.0458 O   0  0  0  0  0  0  0  0  0  0  0  0
   -1.1065   -1.8825   -1.2810 H   0  0  0  0  0  0  0  0  0  0  0  0
   -1.4176   -2.2466    0.5017 H   0  0  0  0  0  0  0  0  0  0  0  0
    0.2274   -2.3678   -0.2189 H   0  0  0  0  0  0  0  0  0  0  0  0
   -2.2278    0.3270   -1.0093 H   0  0  0  0  0  0  0  0  0  0  0  0
   -2.4541    0.0124    0.7197 H   0  0  0  0  0  0  0  0  0  0  0  0
   -1.4775    2.3381   -0.5867 H   0  0  0  0  0  0  0  0  0  0  0  0
    0.9627   -0.8564    1.5741 H   0  0  0  0  0  0  0  0  0  0  0  0
    2.9475    0.5682   -0.3561 H   0  0  0  0  0  0  0  0  0  0  0  0
    2.3937   -0.8481    0.7200 H   0  0  0  0  0  0  0  0  0  0  0  0
    1.0323    2.1208   -0.4781 H   0  0  0  0  0  0  0  0  0  0  0  0
  1  2  1  0
  2  3  1  0
  3  4  1  0
  2  5  1  0
  5  6  1  0
  6  7  1  0
  7  8  1  0
  8  9  1  0
  8  2  1  0
  8  5  1  0
  1 10  1  0
  1 11  1  0
  1 12  1  0
  3 13  1  0
  3 14  1  0
  4 15  1  0
  5 16  1  0
  7 17  1  0
  7 18  1  0
  9 19  1  0
M  END
