
     RDKit          3D

 21 22  0  0  0  0  0  0  0  0999 V2000
   -0.3132   -1.7017   -0.7252 C   0  0  0  0  0  0  0  0  0  0  0  0
   -0.3942   -0.4698    0.0764 C   0  0  0  0  0  0  0  0  0  0  0  0
   -1.4725   -0.3938    1.0854 C   0  0  0  0  0  0  0  0  0  0  0  0
   -0.3674    0.7457   -0.8655 C   0  0  0  0  0  0  0  0  0  0  0  0
    0.9906    0.4852   -1.4740 C   0  0  0  0  0  0  0  0  0  0  0  0
    1.7773    0.1045   -0.4718 C   0  0  0  0  0  0  0  0  0  0  0  0
    0.9475   -0.0742    0.7203 C   0  0  0  0  0  0  0  0  0  0  0  0
    0.5506    1.3158    1.1577 C   0  0  0  0  0  0  0  0  0  0  0  0
   -0.1591    1.8110    0.1447 C   0  0  0  0  0  0  0  0  0  0  0  0
    0.6833   -1.7210   -1.2393 H   0  0  0  0  0  0  0  0  0  0  0  0
   -1.1404   -1.6863   -1.4850 H   0  0  0  0  0  0  0  0  0  0  0  0
   -0.4173   -2.6236   -0.1627 H   0  0  0  0  0  0  0  0  0  0  0  0
   -2.4092   -0.8384    0.7598 H   0  0  0  0  0  0  0  0  0  0  0  0
   -1.6122    0.6879    1.3655 H   0  0  0  0  0  0  0  0  0  0  0  0
   -1.1210   -0.8808    2.0351 H   0  0  0  0  0  0  0  0  0  0  0  0
   -1.1715    0.8294   -1.5331 H   0  0  0  0  0  0  0  0  0  0  0  0
    1.1924    0.6088   -2.5217 H   0  0  0  0  0  0  0  0  0  0  0  0
    2.8434   -0.0410   -0.5494 H   0  0  0  0  0  0  0  0  0  0  0  0
    1.2781   -0.7155    1.4907 H   0  0  0  0  0  0  0  0  0  0  0  0
    0.8312    1.7197    2.0990 H   0  0  0  0  0  0  0  0  0  0  0  0
   -0.5163    2.8381    0.0931 H   0  0  0  0  0  0  0  0  0  0  0  0
  1  2  1  0
  2  3  1  0
  2  4  1  0
  4  5  1  0
  5  6  2  0
  6  7  1  0
  7  8  1  0
  8  9  2  0
  7  2  1  0
  9  4  1  0
  1 10  1  0
  1 11  1  0
  1 12  1  0
  3 13  1  0
  3 14  1  0
  3 15  1  0
  4 16  1  0
  5 17  1  0
  6 18  1  0
  7 19  1  0
  8 20  1  0
  9 21  1  0
M  END
