
     RDKit          3D

 21 21  0  0  0  0  0  0  0  0999 V2000
   -1.8610   -0.2464    0.3795 C   0  0  0  0  0  0  0  0  0  0  0  0
   -0.8244    0.0171   -0.6688 C   0  0  0  0  0  0  0  0  0  0  0  0
   -1.4042    0.1587   -1.9507 O   0  0  0  0  0  0  0  0  0  0  0  0
    0.1843   -1.0987   -0.7744 C   0  0  0  0  0  0  0  0  0  0  0  0
    1.0838   -1.1504    0.4544 C   0  0  0  0  0  0  0  0  0  0  0  0
    1.8748    0.1576    0.4266 C   0  0  0  0  0  0  0  0  0  0  0  0
    0.8499    1.2225    0.8246 C   0  0  0  0  0  0  0  0  0  0  0  0
   -0.1244    1.2905   -0.3099 C   0  0  0  0  0  0  0  0  0  0  0  0
   -0.3178    2.3307   -0.8891 O   0  0  0  0  0  0  0  0  0  0  0  0
   -2.8608   -0.2779   -0.1045 H   0  0  0  0  0  0  0  0  0  0  0  0
   -1.9023    0.5665    1.1496 H   0  0  0  0  0  0  0  0  0  0  0  0
   -1.6608   -1.1845    0.9602 H   0  0  0  0  0  0  0  0  0  0  0  0
   -2.2205    0.7006   -1.8680 H   0  0  0  0  0  0  0  0  0  0  0  0
   -0.3403   -2.0567   -0.9464 H   0  0  0  0  0  0  0  0  0  0  0  0
    0.8530   -0.8655   -1.6382 H   0  0  0  0  0  0  0  0  0  0  0  0
    0.4278   -1.1133    1.3386 H   0  0  0  0  0  0  0  0  0  0  0  0
    1.7274   -2.0290    0.3886 H   0  0  0  0  0  0  0  0  0  0  0  0
    2.7465    0.1446    1.0688 H   0  0  0  0  0  0  0  0  0  0  0  0
    2.1155    0.3866   -0.6502 H   0  0  0  0  0  0  0  0  0  0  0  0
    0.3466    0.8667    1.7591 H   0  0  0  0  0  0  0  0  0  0  0  0
    1.3070    2.1804    1.0500 H   0  0  0  0  0  0  0  0  0  0  0  0
  1  2  1  0
  2  3  1  0
  2  4  1  0
  4  5  1  0
  5  6  1  0
  6  7  1  0
  7  8  1  0
  8  9  2  0
  8  2  1  0
  1 10  1  0
  1 11  1  0
  1 12  1  0
  3 13  1  0
  4 14  1  0
  4 15  1  0
  5 16  1  0
  5 17  1  0
  6 18  1  0
  6 19  1  0
  7 20  1  0
  7 21  1  0
M  END
