
     RDKit          3D

 19 20  0  0  0  0  0  0  0  0999 V2000
   -1.1811    1.0394    0.6734 C   0  0  0  0  0  0  0  0  0  0  0  0
   -0.6105   -0.1833    0.0176 C   0  0  0  0  0  0  0  0  0  0  0  0
   -1.7272   -1.1000   -0.2983 C   0  0  0  0  0  0  0  0  0  0  0  0
   -1.7077   -1.7596   -1.3138 O   0  0  0  0  0  0  0  0  0  0  0  0
    0.1936    0.1874   -1.2020 C   0  0  0  0  0  0  0  0  0  0  0  0
    1.5355    0.5312   -0.6388 C   0  0  0  0  0  0  0  0  0  0  0  0
    1.7381   -0.2573    0.6136 C   0  0  0  0  0  0  0  0  0  0  0  0
    1.0492    0.0504    1.7707 O   0  0  0  0  0  0  0  0  0  0  0  0
    0.4061   -0.8237    0.9085 C   0  0  0  0  0  0  0  0  0  0  0  0
   -2.1673    1.2483    0.2023 H   0  0  0  0  0  0  0  0  0  0  0  0
   -1.3251    0.8356    1.7498 H   0  0  0  0  0  0  0  0  0  0  0  0
   -0.5281    1.9223    0.5994 H   0  0  0  0  0  0  0  0  0  0  0  0
   -2.5473   -1.1516    0.4091 H   0  0  0  0  0  0  0  0  0  0  0  0
   -0.3242    1.0401   -1.6847 H   0  0  0  0  0  0  0  0  0  0  0  0
    0.2477   -0.7100   -1.8579 H   0  0  0  0  0  0  0  0  0  0  0  0
    2.3267    0.2505   -1.3638 H   0  0  0  0  0  0  0  0  0  0  0  0
    1.5854    1.6228   -0.4870 H   0  0  0  0  0  0  0  0  0  0  0  0
    2.6567   -0.8376    0.7766 H   0  0  0  0  0  0  0  0  0  0  0  0
    0.3793   -1.9048    1.1251 H   0  0  0  0  0  0  0  0  0  0  0  0
  1  2  1  0
  2  3  1  0
  3  4  2  0
  2  5  1  0
  5  6  1  0
  6  7  1  0
  7  8  1  0
  8  9  1  0
  9  2  1  0
  9  7  1  0
  1 10  1  0
  1 11  1  0
  1 12  1  0
  3 13  1  0
  5 14  1  0
  5 15  1  0
  6 16  1  0
  6 17  1  0
  7 18  1  0
  9 19  1  0
M  END
