
     RDKit          3D

 19 20  0  0  0  0  0  0  0  0999 V2000
    0.9869   -0.9101   -1.0271 C   0  0  0  0  0  0  0  0  0  0  0  0
    0.8148   -0.3415    0.2994 C   0  0  0  0  0  0  0  0  0  0  0  0
    1.6382   -1.0323    1.1841 O   0  0  0  0  0  0  0  0  0  0  0  0
    1.1075    1.1551    0.3975 C   0  0  0  0  0  0  0  0  0  0  0  0
   -0.0385    1.7309    0.0642 C   0  0  0  0  0  0  0  0  0  0  0  0
   -1.0120    0.7384   -0.2382 C   0  0  0  0  0  0  0  0  0  0  0  0
   -1.8671   -0.1711    0.3944 C   0  0  0  0  0  0  0  0  0  0  0  0
   -2.3834   -1.3141   -0.2614 O   0  0  0  0  0  0  0  0  0  0  0  0
   -0.5603   -0.2638    0.8755 C   0  0  0  0  0  0  0  0  0  0  0  0
    1.1203   -0.0685   -1.7683 H   0  0  0  0  0  0  0  0  0  0  0  0
    0.1788   -1.5263   -1.4405 H   0  0  0  0  0  0  0  0  0  0  0  0
    1.9032   -1.5324   -1.0499 H   0  0  0  0  0  0  0  0  0  0  0  0
    2.4404   -0.5373    1.4465 H   0  0  0  0  0  0  0  0  0  0  0  0
    2.0607    1.5895    0.6820 H   0  0  0  0  0  0  0  0  0  0  0  0
   -0.1088    2.8332    0.0576 H   0  0  0  0  0  0  0  0  0  0  0  0
   -0.8009    0.4054   -1.3148 H   0  0  0  0  0  0  0  0  0  0  0  0
   -2.6945    0.2593    1.0241 H   0  0  0  0  0  0  0  0  0  0  0  0
   -2.3543   -1.2060   -1.2398 H   0  0  0  0  0  0  0  0  0  0  0  0
   -0.4309    0.1916    1.9149 H   0  0  0  0  0  0  0  0  0  0  0  0
  1  2  1  0
  2  3  1  0
  2  4  1  0
  4  5  2  0
  5  6  1  0
  6  7  1  0
  7  8  1  0
  7  9  1  0
  9  2  1  0
  9  6  1  0
  1 10  1  0
  1 11  1  0
  1 12  1  0
  3 13  1  0
  4 14  1  0
  5 15  1  0
  6 16  1  0
  7 17  1  0
  8 18  1  0
  9 19  1  0
M  END
