
     RDKit          3D

 20 20  0  0  0  0  0  0  0  0999 V2000
   -1.1999   -1.1720    0.5773 C   0  0  0  0  0  0  0  0  0  0  0  0
   -0.6300    0.0939   -0.0585 C   0  0  0  0  0  0  0  0  0  0  0  0
    0.4893   -0.1475   -1.0023 C   0  0  0  0  0  0  0  0  0  0  0  0
    1.6983   -0.8105   -0.4092 C   0  0  0  0  0  0  0  0  0  0  0  0
    2.2974   -0.0071    0.6883 C   0  0  0  0  0  0  0  0  0  0  0  0
    2.1250   -0.1382    1.8596 O   0  0  0  0  0  0  0  0  0  0  0  0
   -0.8778    1.3534    0.6452 C   0  0  0  0  0  0  0  0  0  0  0  0
   -1.6757    1.0907   -0.6205 C   0  0  0  0  0  0  0  0  0  0  0  0
   -1.3462   -1.9729   -0.1551 H   0  0  0  0  0  0  0  0  0  0  0  0
   -0.6013   -1.4972    1.4417 H   0  0  0  0  0  0  0  0  0  0  0  0
   -2.2123   -0.9103    0.9948 H   0  0  0  0  0  0  0  0  0  0  0  0
    0.7638    0.8193   -1.5124 H   0  0  0  0  0  0  0  0  0  0  0  0
    0.0864   -0.7858   -1.8164 H   0  0  0  0  0  0  0  0  0  0  0  0
    2.4865   -0.9527   -1.1759 H   0  0  0  0  0  0  0  0  0  0  0  0
    1.3818   -1.8227   -0.0452 H   0  0  0  0  0  0  0  0  0  0  0  0
    2.9778    0.7982    0.3483 H   0  0  0  0  0  0  0  0  0  0  0  0
   -1.5141    1.2868    1.5688 H   0  0  0  0  0  0  0  0  0  0  0  0
   -0.1751    2.1970    0.6858 H   0  0  0  0  0  0  0  0  0  0  0  0
   -1.3428    1.7513   -1.4649 H   0  0  0  0  0  0  0  0  0  0  0  0
   -2.7311    0.8263   -0.5494 H   0  0  0  0  0  0  0  0  0  0  0  0
  1  2  1  0
  2  3  1  0
  3  4  1  0
  4  5  1  0
  5  6  2  0
  2  7  1  0
  7  8  1  0
  8  2  1  0
  1  9  1  0
  1 10  1  0
  1 11  1  0
  3 12  1  0
  3 13  1  0
  4 14  1  0
  4 15  1  0
  5 16  1  0
  7 17  1  0
  7 18  1  0
  8 19  1  0
  8 20  1  0
M  END
