
     RDKit          3D

 15 15  0  0  0  0  0  0  0  0999 V2000
    0.2588    1.2215    0.8563 C   0  0  0  0  0  0  0  0  0  0  0  0
    0.0335    0.0295   -0.0427 C   0  0  0  0  0  0  0  0  0  0  0  0
    1.2226   -0.8644   -0.1541 C   0  0  0  0  0  0  0  0  0  0  0  0
   -1.2640   -0.6638    0.2026 C   0  0  0  0  0  0  0  0  0  0  0  0
   -1.8447    0.3679   -0.6106 O   0  0  0  0  0  0  0  0  0  0  0  0
   -0.6399    0.3806   -1.3115 C   0  0  0  0  0  0  0  0  0  0  0  0
   -0.3174    0.6058   -2.5266 O   0  0  0  0  0  0  0  0  0  0  0  0
   -0.4391    2.0568    0.5963 H   0  0  0  0  0  0  0  0  0  0  0  0
    0.1027    0.9201    1.9202 H   0  0  0  0  0  0  0  0  0  0  0  0
    1.2842    1.6026    0.7101 H   0  0  0  0  0  0  0  0  0  0  0  0
    2.0987   -0.3484   -0.5384 H   0  0  0  0  0  0  0  0  0  0  0  0
    1.4464   -1.2896    0.8497 H   0  0  0  0  0  0  0  0  0  0  0  0
    1.0043   -1.7192   -0.8146 H   0  0  0  0  0  0  0  0  0  0  0  0
   -1.6393   -0.6830    1.2261 H   0  0  0  0  0  0  0  0  0  0  0  0
   -1.3069   -1.6164   -0.3629 H   0  0  0  0  0  0  0  0  0  0  0  0
  1  2  1  0
  2  3  1  0
  2  4  1  0
  4  5  1  0
  5  6  1  0
  6  7  2  0
  6  2  1  0
  1  8  1  0
  1  9  1  0
  1 10  1  0
  3 11  1  0
  3 12  1  0
  3 13  1  0
  4 14  1  0
  4 15  1  0
M  END
