
     RDKit          3D

 21 22  0  0  0  0  0  0  0  0999 V2000
    1.4742    1.1794    0.2116 C   0  0  0  0  0  0  0  0  0  0  0  0
    0.9280   -0.1538   -0.1485 C   0  0  0  0  0  0  0  0  0  0  0  0
    1.9293   -1.0539   -0.4434 O   0  0  0  0  0  0  0  0  0  0  0  0
   -0.1611   -0.2049   -1.1722 C   0  0  0  0  0  0  0  0  0  0  0  0
   -1.2498    0.8232   -0.9236 C   0  0  0  0  0  0  0  0  0  0  0  0
   -2.0154    0.4956    0.1977 O   0  0  0  0  0  0  0  0  0  0  0  0
   -1.1333    0.2222    1.2391 C   0  0  0  0  0  0  0  0  0  0  0  0
   -0.0658   -0.7584    0.8157 C   0  0  0  0  0  0  0  0  0  0  0  0
   -0.6220   -1.4710   -0.4290 C   0  0  0  0  0  0  0  0  0  0  0  0
    2.1193    1.5243   -0.6190 H   0  0  0  0  0  0  0  0  0  0  0  0
    0.7482    1.9620    0.4131 H   0  0  0  0  0  0  0  0  0  0  0  0
    2.1799    1.0210    1.0784 H   0  0  0  0  0  0  0  0  0  0  0  0
    2.2809   -1.4031    0.4296 H   0  0  0  0  0  0  0  0  0  0  0  0
    0.1175   -0.3759   -2.2074 H   0  0  0  0  0  0  0  0  0  0  0  0
   -1.9414    0.7507   -1.7942 H   0  0  0  0  0  0  0  0  0  0  0  0
   -0.8738    1.8413   -0.8161 H   0  0  0  0  0  0  0  0  0  0  0  0
   -0.7295    1.1877    1.5856 H   0  0  0  0  0  0  0  0  0  0  0  0
   -1.6493   -0.2309    2.1130 H   0  0  0  0  0  0  0  0  0  0  0  0
    0.3253   -1.4266    1.5769 H   0  0  0  0  0  0  0  0  0  0  0  0
   -1.6946   -1.6255   -0.4158 H   0  0  0  0  0  0  0  0  0  0  0  0
    0.0335   -2.3035   -0.6916 H   0  0  0  0  0  0  0  0  0  0  0  0
  1  2  1  0
  2  3  1  0
  2  4  1  0
  4  5  1  0
  5  6  1  0
  6  7  1  0
  7  8  1  0
  8  9  1  0
  8  2  1  0
  9  4  1  0
  1 10  1  0
  1 11  1  0
  1 12  1  0
  3 13  1  0
  4 14  1  0
  5 15  1  0
  5 16  1  0
  7 17  1  0
  7 18  1  0
  8 19  1  0
  9 20  1  0
  9 21  1  0
M  END
