
     RDKit          3D

 19 20  0  0  0  0  0  0  0  0999 V2000
   -1.2665   -1.5258   -0.2704 C   0  0  0  0  0  0  0  0  0  0  0  0
   -0.6271   -0.2771    0.2466 C   0  0  0  0  0  0  0  0  0  0  0  0
   -0.8223   -0.1261    1.6163 O   0  0  0  0  0  0  0  0  0  0  0  0
   -0.9891    0.9908   -0.5339 C   0  0  0  0  0  0  0  0  0  0  0  0
    0.4692    1.4118   -0.3043 C   0  0  0  0  0  0  0  0  0  0  0  0
    0.5660    2.0669    0.9188 O   0  0  0  0  0  0  0  0  0  0  0  0
    0.7807   -0.0324   -0.2098 C   0  0  0  0  0  0  0  0  0  0  0  0
    1.9164   -0.7120    0.0987 C   0  0  0  0  0  0  0  0  0  0  0  0
    1.3231   -0.7202   -1.2659 O   0  0  0  0  0  0  0  0  0  0  0  0
   -2.2871   -1.6004    0.1205 H   0  0  0  0  0  0  0  0  0  0  0  0
   -0.7003   -2.3896    0.1728 H   0  0  0  0  0  0  0  0  0  0  0  0
   -1.1764   -1.6360   -1.3582 H   0  0  0  0  0  0  0  0  0  0  0  0
   -0.2857   -0.8163    2.0799 H   0  0  0  0  0  0  0  0  0  0  0  0
   -1.1352    0.8037   -1.5982 H   0  0  0  0  0  0  0  0  0  0  0  0
   -1.7282    1.6286   -0.0574 H   0  0  0  0  0  0  0  0  0  0  0  0
    0.9112    1.9970   -1.1102 H   0  0  0  0  0  0  0  0  0  0  0  0
    0.2094    2.9767    0.9050 H   0  0  0  0  0  0  0  0  0  0  0  0
    1.9084   -1.7583    0.4703 H   0  0  0  0  0  0  0  0  0  0  0  0
    2.9338   -0.2812    0.0794 H   0  0  0  0  0  0  0  0  0  0  0  0
  1  2  1  0
  2  3  1  0
  2  4  1  0
  4  5  1  0
  5  6  1  0
  5  7  1  0
  7  8  1  0
  8  9  1  0
  7  2  1  0
  9  7  1  0
  1 10  1  0
  1 11  1  0
  1 12  1  0
  3 13  1  0
  4 14  1  0
  4 15  1  0
  5 16  1  0
  6 17  1  0
  8 18  1  0
  8 19  1  0
M  END
