
     RDKit          3D

 19 19  0  0  0  0  0  0  0  0999 V2000
   -0.1247    1.5233    0.5939 C   0  0  0  0  0  0  0  0  0  0  0  0
   -0.0098    0.2097   -0.1819 C   0  0  0  0  0  0  0  0  0  0  0  0
    1.2563    0.1094   -0.9248 C   0  0  0  0  0  0  0  0  0  0  0  0
    1.2987   -0.0171   -2.1628 O   0  0  0  0  0  0  0  0  0  0  0  0
    2.5009    0.1596   -0.1910 C   0  0  0  0  0  0  0  0  0  0  0  0
    2.5516    0.2867    1.0706 O   0  0  0  0  0  0  0  0  0  0  0  0
   -1.2623   -0.1081   -0.9429 C   0  0  0  0  0  0  0  0  0  0  0  0
   -1.6246   -1.2031    0.0412 C   0  0  0  0  0  0  0  0  0  0  0  0
   -0.2622   -1.0061    0.6720 C   0  0  0  0  0  0  0  0  0  0  0  0
   -1.1337    1.9218    0.4714 H   0  0  0  0  0  0  0  0  0  0  0  0
    0.0519    1.3372    1.6708 H   0  0  0  0  0  0  0  0  0  0  0  0
    0.6583    2.2281    0.1998 H   0  0  0  0  0  0  0  0  0  0  0  0
    3.4582    0.0904   -0.6875 H   0  0  0  0  0  0  0  0  0  0  0  0
   -2.0069    0.7129   -0.8858 H   0  0  0  0  0  0  0  0  0  0  0  0
   -1.1294   -0.4331   -1.9886 H   0  0  0  0  0  0  0  0  0  0  0  0
   -2.4759   -0.9533    0.7102 H   0  0  0  0  0  0  0  0  0  0  0  0
   -1.7711   -2.1868   -0.4467 H   0  0  0  0  0  0  0  0  0  0  0  0
   -0.3784   -0.8118    1.7520 H   0  0  0  0  0  0  0  0  0  0  0  0
    0.4033   -1.8598    0.4315 H   0  0  0  0  0  0  0  0  0  0  0  0
  1  2  1  0
  2  3  1  0
  3  4  2  0
  3  5  1  0
  5  6  2  0
  2  7  1  0
  7  8  1  0
  8  9  1  0
  9  2  1  0
  1 10  1  0
  1 11  1  0
  1 12  1  0
  5 13  1  0
  7 14  1  0
  7 15  1  0
  8 16  1  0
  8 17  1  0
  9 18  1  0
  9 19  1  0
M  END
