
     RDKit          3D

 23 24  0  0  0  0  0  0  0  0999 V2000
    2.0104    0.9581   -0.3710 C   0  0  0  0  0  0  0  0  0  0  0  0
    1.0694   -0.0416    0.1727 C   0  0  0  0  0  0  0  0  0  0  0  0
    1.6523   -0.9017    1.1229 O   0  0  0  0  0  0  0  0  0  0  0  0
    0.4263   -0.9298   -0.8649 C   0  0  0  0  0  0  0  0  0  0  0  0
   -0.9516   -1.1912   -0.3246 C   0  0  0  0  0  0  0  0  0  0  0  0
   -1.8213   -0.0408   -0.8197 C   0  0  0  0  0  0  0  0  0  0  0  0
   -1.1124    1.1399   -0.1558 C   0  0  0  0  0  0  0  0  0  0  0  0
   -0.1512    0.5561    0.8437 C   0  0  0  0  0  0  0  0  0  0  0  0
   -0.8554   -0.7815    1.1551 C   0  0  0  0  0  0  0  0  0  0  0  0
    2.1123    0.9135   -1.4867 H   0  0  0  0  0  0  0  0  0  0  0  0
    3.0395    0.6807    0.0064 H   0  0  0  0  0  0  0  0  0  0  0  0
    1.8499    1.9959   -0.0144 H   0  0  0  0  0  0  0  0  0  0  0  0
    1.8053   -0.3572    1.9374 H   0  0  0  0  0  0  0  0  0  0  0  0
    0.3488   -0.4094   -1.8534 H   0  0  0  0  0  0  0  0  0  0  0  0
    1.0351   -1.8201   -1.0033 H   0  0  0  0  0  0  0  0  0  0  0  0
   -1.3547   -2.1637   -0.4812 H   0  0  0  0  0  0  0  0  0  0  0  0
   -2.8626   -0.1458   -0.4628 H   0  0  0  0  0  0  0  0  0  0  0  0
   -1.7333   -0.0219   -1.9107 H   0  0  0  0  0  0  0  0  0  0  0  0
   -1.8872    1.6963    0.4062 H   0  0  0  0  0  0  0  0  0  0  0  0
   -0.6350    1.7609   -0.9233 H   0  0  0  0  0  0  0  0  0  0  0  0
    0.0443    1.1449    1.7156 H   0  0  0  0  0  0  0  0  0  0  0  0
   -1.8348   -0.5957    1.5937 H   0  0  0  0  0  0  0  0  0  0  0  0
   -0.1943   -1.4459    1.7182 H   0  0  0  0  0  0  0  0  0  0  0  0
  1  2  1  0
  2  3  1  0
  2  4  1  0
  4  5  1  0
  5  6  1  0
  6  7  1  0
  7  8  1  0
  8  9  1  0
  8  2  1  0
  9  5  1  0
  1 10  1  0
  1 11  1  0
  1 12  1  0
  3 13  1  0
  4 14  1  0
  4 15  1  0
  5 16  1  0
  6 17  1  0
  6 18  1  0
  7 19  1  0
  7 20  1  0
  8 21  1  0
  9 22  1  0
  9 23  1  0
M  END
