
     RDKit          3D

 20 20  0  0  0  0  0  0  0  0999 V2000
   -1.4313   -1.1968   -0.0271 C   0  0  0  0  0  0  0  0  0  0  0  0
   -0.7075    0.1542   -0.0406 C   0  0  0  0  0  0  0  0  0  0  0  0
   -1.8105    1.2174   -0.0328 C   0  0  0  0  0  0  0  0  0  0  0  0
    0.1014    0.2229    1.1944 C   0  0  0  0  0  0  0  0  0  0  0  0
    1.4236    0.2032    1.1466 C   0  0  0  0  0  0  0  0  0  0  0  0
    2.1820    0.1122   -0.1284 C   0  0  0  0  0  0  0  0  0  0  0  0
    1.2262   -0.3535   -1.2032 C   0  0  0  0  0  0  0  0  0  0  0  0
    0.0230    0.3328   -1.1776 O   0  0  0  0  0  0  0  0  0  0  0  0
   -0.8407   -1.9347   -0.5953 H   0  0  0  0  0  0  0  0  0  0  0  0
   -1.5602   -1.5808    0.9976 H   0  0  0  0  0  0  0  0  0  0  0  0
   -2.4177   -1.1209   -0.5219 H   0  0  0  0  0  0  0  0  0  0  0  0
   -1.7402    1.8520    0.8830 H   0  0  0  0  0  0  0  0  0  0  0  0
   -2.8097    0.7906   -0.0674 H   0  0  0  0  0  0  0  0  0  0  0  0
   -1.7106    1.9142   -0.8877 H   0  0  0  0  0  0  0  0  0  0  0  0
   -0.3331    0.2924    2.1894 H   0  0  0  0  0  0  0  0  0  0  0  0
    2.0000    0.2563    2.0932 H   0  0  0  0  0  0  0  0  0  0  0  0
    2.6119    1.0895   -0.4299 H   0  0  0  0  0  0  0  0  0  0  0  0
    2.9818   -0.6787   -0.0685 H   0  0  0  0  0  0  0  0  0  0  0  0
    1.7071   -0.1285   -2.1800 H   0  0  0  0  0  0  0  0  0  0  0  0
    1.1044   -1.4437   -1.1438 H   0  0  0  0  0  0  0  0  0  0  0  0
  1  2  1  0
  2  3  1  0
  2  4  1  0
  4  5  2  0
  5  6  1  0
  6  7  1  0
  7  8  1  0
  8  2  1  0
  1  9  1  0
  1 10  1  0
  1 11  1  0
  3 12  1  0
  3 13  1  0
  3 14  1  0
  4 15  1  0
  5 16  1  0
  6 17  1  0
  6 18  1  0
  7 19  1  0
  7 20  1  0
M  END
