
     RDKit          3D

 21 22  0  0  0  0  0  0  0  0999 V2000
    1.9709    0.4733    0.5039 C   0  0  0  0  0  0  0  0  0  0  0  0
    1.0063   -0.2654   -0.3848 C   0  0  0  0  0  0  0  0  0  0  0  0
    1.7441   -0.9281   -1.3595 O   0  0  0  0  0  0  0  0  0  0  0  0
    0.1877   -1.2910    0.3639 C   0  0  0  0  0  0  0  0  0  0  0  0
   -0.9228   -0.4384    0.9387 C   0  0  0  0  0  0  0  0  0  0  0  0
   -2.1850   -0.2701    0.1967 C   0  0  0  0  0  0  0  0  0  0  0  0
   -1.0870    0.7572    0.1084 C   0  0  0  0  0  0  0  0  0  0  0  0
   -1.3770    2.0036    0.6056 O   0  0  0  0  0  0  0  0  0  0  0  0
   -0.0484    0.6391   -0.9664 C   0  0  0  0  0  0  0  0  0  0  0  0
    2.1518    1.4801    0.0551 H   0  0  0  0  0  0  0  0  0  0  0  0
    2.9499   -0.0242    0.5589 H   0  0  0  0  0  0  0  0  0  0  0  0
    1.5795    0.6441    1.5147 H   0  0  0  0  0  0  0  0  0  0  0  0
    2.1805   -1.7213   -0.9547 H   0  0  0  0  0  0  0  0  0  0  0  0
    0.7819   -1.7943    1.1463 H   0  0  0  0  0  0  0  0  0  0  0  0
   -0.1654   -2.0296   -0.3676 H   0  0  0  0  0  0  0  0  0  0  0  0
   -0.8926   -0.3371    2.0336 H   0  0  0  0  0  0  0  0  0  0  0  0
   -3.0910    0.0228    0.7585 H   0  0  0  0  0  0  0  0  0  0  0  0
   -2.3936   -0.8121   -0.7366 H   0  0  0  0  0  0  0  0  0  0  0  0
   -2.2497    2.0671    1.0525 H   0  0  0  0  0  0  0  0  0  0  0  0
   -0.4842    0.1597   -1.8579 H   0  0  0  0  0  0  0  0  0  0  0  0
    0.3439    1.6648   -1.1846 H   0  0  0  0  0  0  0  0  0  0  0  0
  1  2  1  0
  2  3  1  0
  2  4  1  0
  4  5  1  0
  5  6  1  0
  6  7  1  0
  7  8  1  0
  7  9  1  0
  9  2  1  0
  7  5  1  0
  1 10  1  0
  1 11  1  0
  1 12  1  0
  3 13  1  0
  4 14  1  0
  4 15  1  0
  5 16  1  0
  6 17  1  0
  6 18  1  0
  8 19  1  0
  9 20  1  0
  9 21  1  0
M  END
