
     RDKit          3D

 19 19  0  0  0  0  0  0  0  0999 V2000
   -0.0706    1.7079    0.3097 C   0  0  0  0  0  0  0  0  0  0  0  0
   -0.2400    0.2327    0.0076 C   0  0  0  0  0  0  0  0  0  0  0  0
   -1.5613    0.0036   -0.6499 C   0  0  0  0  0  0  0  0  0  0  0  0
   -1.8071   -1.3265   -0.9661 O   0  0  0  0  0  0  0  0  0  0  0  0
   -0.0874   -0.6056    1.2265 C   0  0  0  0  0  0  0  0  0  0  0  0
   -0.8284   -0.8544    2.1373 O   0  0  0  0  0  0  0  0  0  0  0  0
    1.2946   -0.9552    0.8144 C   0  0  0  0  0  0  0  0  0  0  0  0
    0.9533   -0.4509   -0.5776 C   0  0  0  0  0  0  0  0  0  0  0  0
    1.9615    0.4388   -0.9800 O   0  0  0  0  0  0  0  0  0  0  0  0
    1.0019    1.9718    0.3913 H   0  0  0  0  0  0  0  0  0  0  0  0
   -0.5374    2.3206   -0.5153 H   0  0  0  0  0  0  0  0  0  0  0  0
   -0.6285    1.8931    1.2591 H   0  0  0  0  0  0  0  0  0  0  0  0
   -2.3386    0.3835    0.0549 H   0  0  0  0  0  0  0  0  0  0  0  0
   -1.6419    0.6555   -1.5526 H   0  0  0  0  0  0  0  0  0  0  0  0
   -2.3163   -1.7110   -0.1931 H   0  0  0  0  0  0  0  0  0  0  0  0
    1.4275   -2.0661    0.8356 H   0  0  0  0  0  0  0  0  0  0  0  0
    2.0723   -0.3907    1.3446 H   0  0  0  0  0  0  0  0  0  0  0  0
    0.7720   -1.2421   -1.3169 H   0  0  0  0  0  0  0  0  0  0  0  0
    2.5745   -0.0048   -1.6296 H   0  0  0  0  0  0  0  0  0  0  0  0
  1  2  1  0
  2  3  1  0
  3  4  1  0
  2  5  1  0
  5  6  2  0
  5  7  1  0
  7  8  1  0
  8  9  1  0
  8  2  1  0
  1 10  1  0
  1 11  1  0
  1 12  1  0
  3 13  1  0
  3 14  1  0
  4 15  1  0
  7 16  1  0
  7 17  1  0
  8 18  1  0
  9 19  1  0
M  END
