
     RDKit          3D

 19 21  0  0  0  0  0  0  0  0999 V2000
   -0.5471   -1.5821    0.6630 C   0  0  0  0  0  0  0  0  0  0  0  0
   -0.0365   -0.2847    0.0992 C   0  0  0  0  0  0  0  0  0  0  0  0
    1.4253   -0.3178   -0.1335 C   0  0  0  0  0  0  0  0  0  0  0  0
    2.2306    0.7309   -0.6523 C   0  0  0  0  0  0  0  0  0  0  0  0
    2.1085    0.5812    0.8365 O   0  0  0  0  0  0  0  0  0  0  0  0
   -0.6223    0.9578    0.7092 C   0  0  0  0  0  0  0  0  0  0  0  0
   -1.9409    0.5484    0.1399 C   0  0  0  0  0  0  0  0  0  0  0  0
   -0.9070    0.3712   -0.9196 C   0  0  0  0  0  0  0  0  0  0  0  0
   -0.3726    1.5769   -0.4928 O   0  0  0  0  0  0  0  0  0  0  0  0
   -1.3741   -2.0209    0.0418 H   0  0  0  0  0  0  0  0  0  0  0  0
   -0.8209   -1.4958    1.7295 H   0  0  0  0  0  0  0  0  0  0  0  0
    0.2611   -2.3675    0.6296 H   0  0  0  0  0  0  0  0  0  0  0  0
    1.8992   -1.3327   -0.0281 H   0  0  0  0  0  0  0  0  0  0  0  0
    1.9019    1.7195   -0.9626 H   0  0  0  0  0  0  0  0  0  0  0  0
    3.3074    0.5098   -0.8706 H   0  0  0  0  0  0  0  0  0  0  0  0
   -0.4404    1.3084    1.6365 H   0  0  0  0  0  0  0  0  0  0  0  0
   -2.3500   -0.3274    0.6257 H   0  0  0  0  0  0  0  0  0  0  0  0
   -2.6701    1.3411   -0.0729 H   0  0  0  0  0  0  0  0  0  0  0  0
   -1.0522    0.0836   -1.8777 H   0  0  0  0  0  0  0  0  0  0  0  0
  1  2  1  0
  2  3  1  0
  3  4  1  0
  4  5  1  0
  2  6  1  0
  6  7  1  0
  7  8  1  0
  8  9  1  0
  8  2  1  0
  5  3  1  0
  9  6  1  0
  1 10  1  0
  1 11  1  0
  1 12  1  0
  3 13  1  0
  4 14  1  0
  4 15  1  0
  6 16  1  0
  7 17  1  0
  7 18  1  0
  8 19  1  0
M  END
