
     RDKit          3D

 21 23  0  0  0  0  0  0  0  0999 V2000
   -1.8736   -0.8851   -0.7081 C   0  0  0  0  0  0  0  0  0  0  0  0
   -1.0277    0.1632    0.0344 C   0  0  0  0  0  0  0  0  0  0  0  0
   -1.8897    1.4017    0.3179 C   0  0  0  0  0  0  0  0  0  0  0  0
   -0.0278   -0.1390    0.9885 C   0  0  0  0  0  0  0  0  0  0  0  0
    1.3281    0.3906    1.2741 C   0  0  0  0  0  0  0  0  0  0  0  0
    2.5949    0.3764    0.5245 C   0  0  0  0  0  0  0  0  0  0  0  0
    1.5649   -0.4914    0.0543 C   0  0  0  0  0  0  0  0  0  0  0  0
    1.5287   -1.8545    0.1998 O   0  0  0  0  0  0  0  0  0  0  0  0
    0.3257    0.2315   -0.4999 C   0  0  0  0  0  0  0  0  0  0  0  0
   -2.8275   -1.0598   -0.2172 H   0  0  0  0  0  0  0  0  0  0  0  0
   -1.9845   -0.4619   -1.7465 H   0  0  0  0  0  0  0  0  0  0  0  0
   -1.2595   -1.7939   -0.8292 H   0  0  0  0  0  0  0  0  0  0  0  0
   -1.2616    2.3090    0.4203 H   0  0  0  0  0  0  0  0  0  0  0  0
   -2.3470    1.2178    1.3122 H   0  0  0  0  0  0  0  0  0  0  0  0
   -2.6637    1.5437   -0.4549 H   0  0  0  0  0  0  0  0  0  0  0  0
   -0.0241   -1.2737    1.1629 H   0  0  0  0  0  0  0  0  0  0  0  0
    1.6037    0.0815    2.3289 H   0  0  0  0  0  0  0  0  0  0  0  0
    2.7820    1.3242   -0.0677 H   0  0  0  0  0  0  0  0  0  0  0  0
    3.5455   -0.0690    0.8405 H   0  0  0  0  0  0  0  0  0  0  0  0
    1.3702   -2.3037   -0.6461 H   0  0  0  0  0  0  0  0  0  0  0  0
    0.5430    1.2926   -0.7353 H   0  0  0  0  0  0  0  0  0  0  0  0
  1  2  1  0
  2  3  1  0
  2  4  1  0
  4  5  1  0
  5  6  1  0
  6  7  1  0
  7  8  1  0
  7  9  1  0
  9  2  1  0
  9  4  1  0
  7  5  1  0
  1 10  1  0
  1 11  1  0
  1 12  1  0
  3 13  1  0
  3 14  1  0
  3 15  1  0
  4 16  1  0
  5 17  1  0
  6 18  1  0
  6 19  1  0
  8 20  1  0
  9 21  1  0
M  END
