
     RDKit          3D

 19 20  0  0  0  0  0  0  0  0999 V2000
   -0.9175   -1.1157   -0.7191 C   0  0  0  0  0  0  0  0  0  0  0  0
   -0.5392   -0.0462    0.2562 C   0  0  0  0  0  0  0  0  0  0  0  0
   -1.4662   -0.0313    1.4151 C   0  0  0  0  0  0  0  0  0  0  0  0
   -2.4214    0.7155    1.3601 O   0  0  0  0  0  0  0  0  0  0  0  0
   -0.5301    1.3491   -0.4036 C   0  0  0  0  0  0  0  0  0  0  0  0
    0.8389    1.7366   -0.4124 O   0  0  0  0  0  0  0  0  0  0  0  0
    1.4117    0.5248   -0.6645 C   0  0  0  0  0  0  0  0  0  0  0  0
    2.0864   -0.4443    0.0936 C   0  0  0  0  0  0  0  0  0  0  0  0
    0.8732   -0.0858    0.6959 C   0  0  0  0  0  0  0  0  0  0  0  0
   -0.0372   -1.6373   -1.1506 H   0  0  0  0  0  0  0  0  0  0  0  0
   -1.5780   -0.6993   -1.4951 H   0  0  0  0  0  0  0  0  0  0  0  0
   -1.5216   -1.9215   -0.2128 H   0  0  0  0  0  0  0  0  0  0  0  0
   -1.3297   -0.6458    2.2902 H   0  0  0  0  0  0  0  0  0  0  0  0
   -0.8568    1.1890   -1.4500 H   0  0  0  0  0  0  0  0  0  0  0  0
   -1.1456    2.0578    0.1433 H   0  0  0  0  0  0  0  0  0  0  0  0
    0.9134    0.1253   -1.6058 H   0  0  0  0  0  0  0  0  0  0  0  0
    2.1828   -1.4995   -0.3036 H   0  0  0  0  0  0  0  0  0  0  0  0
    3.0599   -0.1722    0.5678 H   0  0  0  0  0  0  0  0  0  0  0  0
    0.9770    0.6008    1.5954 H   0  0  0  0  0  0  0  0  0  0  0  0
  1  2  1  0
  2  3  1  0
  3  4  2  0
  2  5  1  0
  5  6  1  0
  6  7  1  0
  7  8  1  0
  8  9  1  0
  9  2  1  0
  9  7  1  0
  1 10  1  0
  1 11  1  0
  1 12  1  0
  3 13  1  0
  5 14  1  0
  5 15  1  0
  7 16  1  0
  8 17  1  0
  8 18  1  0
  9 19  1  0
M  END
