
     RDKit          3D

 19 20  0  0  0  0  0  0  0  0999 V2000
    1.7843   -0.3646    0.5788 C   0  0  0  0  0  0  0  0  0  0  0  0
    0.5891    0.3882    0.1414 C   0  0  0  0  0  0  0  0  0  0  0  0
    0.5172    1.7286    0.4570 O   0  0  0  0  0  0  0  0  0  0  0  0
    0.1566    0.0666   -1.2977 C   0  0  0  0  0  0  0  0  0  0  0  0
   -0.4292   -1.2168   -0.6911 C   0  0  0  0  0  0  0  0  0  0  0  0
   -0.7610   -0.2706    0.4438 C   0  0  0  0  0  0  0  0  0  0  0  0
   -1.0141   -0.7177    1.6509 O   0  0  0  0  0  0  0  0  0  0  0  0
   -1.6674    0.6983   -0.2623 C   0  0  0  0  0  0  0  0  0  0  0  0
   -0.9417    0.8581   -1.4737 O   0  0  0  0  0  0  0  0  0  0  0  0
    1.6214   -1.3809    0.9307 H   0  0  0  0  0  0  0  0  0  0  0  0
    2.4915   -0.4311   -0.2991 H   0  0  0  0  0  0  0  0  0  0  0  0
    2.3426    0.1727    1.3901 H   0  0  0  0  0  0  0  0  0  0  0  0
    1.3347    2.2294    0.2944 H   0  0  0  0  0  0  0  0  0  0  0  0
    0.9112   -0.0323   -2.0281 H   0  0  0  0  0  0  0  0  0  0  0  0
   -1.2709   -1.5795   -1.2813 H   0  0  0  0  0  0  0  0  0  0  0  0
    0.2877   -2.0010   -0.4830 H   0  0  0  0  0  0  0  0  0  0  0  0
   -1.6228   -0.1201    2.1531 H   0  0  0  0  0  0  0  0  0  0  0  0
   -2.6722    0.3052   -0.4630 H   0  0  0  0  0  0  0  0  0  0  0  0
   -1.6572    1.6676    0.2392 H   0  0  0  0  0  0  0  0  0  0  0  0
  1  2  1  0
  2  3  1  0
  2  4  1  0
  4  5  1  0
  5  6  1  0
  6  7  1  0
  6  8  1  0
  8  9  1  0
  6  2  1  0
  9  4  1  0
  1 10  1  0
  1 11  1  0
  1 12  1  0
  3 13  1  0
  4 14  1  0
  5 15  1  0
  5 16  1  0
  7 17  1  0
  8 18  1  0
  8 19  1  0
M  END
