
     RDKit          3D

 20 20  0  0  0  0  0  0  0  0999 V2000
    1.6083   -0.2982   -0.7254 C   0  0  0  0  0  0  0  0  0  0  0  0
    0.4554    0.3013    0.0394 C   0  0  0  0  0  0  0  0  0  0  0  0
    0.9646    1.3795    0.9539 C   0  0  0  0  0  0  0  0  0  0  0  0
   -0.1676   -0.8556    0.8293 C   0  0  0  0  0  0  0  0  0  0  0  0
   -1.2424   -1.3136   -0.1335 C   0  0  0  0  0  0  0  0  0  0  0  0
   -1.8544    0.0492   -0.4776 C   0  0  0  0  0  0  0  0  0  0  0  0
   -0.6222    0.7872   -0.8573 C   0  0  0  0  0  0  0  0  0  0  0  0
   -0.5543    1.6174   -1.7356 O   0  0  0  0  0  0  0  0  0  0  0  0
    2.3966   -0.5373    0.0408 H   0  0  0  0  0  0  0  0  0  0  0  0
    1.3150   -1.1979   -1.2701 H   0  0  0  0  0  0  0  0  0  0  0  0
    2.0839    0.4444   -1.4119 H   0  0  0  0  0  0  0  0  0  0  0  0
    1.8578    1.8337    0.4797 H   0  0  0  0  0  0  0  0  0  0  0  0
    1.1581    0.9965    1.9765 H   0  0  0  0  0  0  0  0  0  0  0  0
    0.1918    2.1688    1.0597 H   0  0  0  0  0  0  0  0  0  0  0  0
    0.5495   -1.6895    0.9477 H   0  0  0  0  0  0  0  0  0  0  0  0
   -0.5773   -0.5094    1.7954 H   0  0  0  0  0  0  0  0  0  0  0  0
   -1.9683   -1.9930    0.3074 H   0  0  0  0  0  0  0  0  0  0  0  0
   -0.7551   -1.6754   -1.0437 H   0  0  0  0  0  0  0  0  0  0  0  0
   -2.2357    0.5015    0.4835 H   0  0  0  0  0  0  0  0  0  0  0  0
   -2.6038   -0.0096   -1.2581 H   0  0  0  0  0  0  0  0  0  0  0  0
  1  2  1  0
  2  3  1  0
  2  4  1  0
  4  5  1  0
  5  6  1  0
  6  7  1  0
  7  8  2  0
  7  2  1  0
  1  9  1  0
  1 10  1  0
  1 11  1  0
  3 12  1  0
  3 13  1  0
  3 14  1  0
  4 15  1  0
  4 16  1  0
  5 17  1  0
  5 18  1  0
  6 19  1  0
  6 20  1  0
M  END
