
     RDKit          3D

 21 22  0  0  0  0  0  0  0  0999 V2000
   -2.0730   -0.2041    0.7521 C   0  0  0  0  0  0  0  0  0  0  0  0
   -0.8558   -0.2521   -0.1123 C   0  0  0  0  0  0  0  0  0  0  0  0
   -0.9998   -0.7728   -1.3713 O   0  0  0  0  0  0  0  0  0  0  0  0
   -0.1372    1.1038   -0.1933 C   0  0  0  0  0  0  0  0  0  0  0  0
    1.0009    0.7356   -1.0978 C   0  0  0  0  0  0  0  0  0  0  0  0
    1.5227   -0.4877   -0.3153 C   0  0  0  0  0  0  0  0  0  0  0  0
    1.7716   -1.5533   -1.1249 O   0  0  0  0  0  0  0  0  0  0  0  0
    0.3926   -0.6559    0.6430 C   0  0  0  0  0  0  0  0  0  0  0  0
    0.3122    0.7708    1.2152 C   0  0  0  0  0  0  0  0  0  0  0  0
   -2.8359   -0.8873    0.2912 H   0  0  0  0  0  0  0  0  0  0  0  0
   -2.4820    0.8277    0.8200 H   0  0  0  0  0  0  0  0  0  0  0  0
   -1.8913   -0.6261    1.7708 H   0  0  0  0  0  0  0  0  0  0  0  0
   -1.5262   -0.1027   -1.9085 H   0  0  0  0  0  0  0  0  0  0  0  0
   -0.7226    1.9633   -0.3683 H   0  0  0  0  0  0  0  0  0  0  0  0
    0.6132    0.3300   -2.0662 H   0  0  0  0  0  0  0  0  0  0  0  0
    1.7678    1.4978   -1.2104 H   0  0  0  0  0  0  0  0  0  0  0  0
    2.4029   -0.1208    0.2611 H   0  0  0  0  0  0  0  0  0  0  0  0
    2.5521   -2.0560   -0.7337 H   0  0  0  0  0  0  0  0  0  0  0  0
    0.3553   -1.4594    1.3272 H   0  0  0  0  0  0  0  0  0  0  0  0
    1.3212    1.0802    1.4816 H   0  0  0  0  0  0  0  0  0  0  0  0
   -0.4887    0.8688    1.9398 H   0  0  0  0  0  0  0  0  0  0  0  0
  1  2  1  0
  2  3  1  0
  2  4  1  0
  4  5  1  0
  5  6  1  0
  6  7  1  0
  6  8  1  0
  8  9  1  0
  8  2  1  0
  9  4  1  0
  1 10  1  0
  1 11  1  0
  1 12  1  0
  3 13  1  0
  4 14  1  0
  5 15  1  0
  5 16  1  0
  6 17  1  0
  7 18  1  0
  8 19  1  0
  9 20  1  0
  9 21  1  0
M  END
