
     RDKit          3D

 17 18  0  0  0  0  0  0  0  0999 V2000
   -1.1408   -1.0321    0.1865 C   0  0  0  0  0  0  0  0  0  0  0  0
   -0.2724    0.1452   -0.1016 C   0  0  0  0  0  0  0  0  0  0  0  0
   -1.0259    1.3513   -0.6195 C   0  0  0  0  0  0  0  0  0  0  0  0
    1.0463   -0.1119   -0.7485 C   0  0  0  0  0  0  0  0  0  0  0  0
    1.4934   -0.7945    0.4913 C   0  0  0  0  0  0  0  0  0  0  0  0
    0.7947    0.4519    0.8940 C   0  0  0  0  0  0  0  0  0  0  0  0
    1.4763    1.0820   -0.1581 O   0  0  0  0  0  0  0  0  0  0  0  0
   -0.9247   -1.8973   -0.4702 H   0  0  0  0  0  0  0  0  0  0  0  0
   -2.2106   -0.7578   -0.0291 H   0  0  0  0  0  0  0  0  0  0  0  0
   -1.1405   -1.3103    1.2707 H   0  0  0  0  0  0  0  0  0  0  0  0
   -0.6203    1.6615   -1.6049 H   0  0  0  0  0  0  0  0  0  0  0  0
   -0.8967    2.2366    0.0482 H   0  0  0  0  0  0  0  0  0  0  0  0
   -2.1015    1.0891   -0.6593 H   0  0  0  0  0  0  0  0  0  0  0  0
    1.2189   -0.3801   -1.7062 H   0  0  0  0  0  0  0  0  0  0  0  0
    2.6035   -0.8137    0.6368 H   0  0  0  0  0  0  0  0  0  0  0  0
    1.0181   -1.7554    0.7515 H   0  0  0  0  0  0  0  0  0  0  0  0
    0.6821    0.8355    1.8184 H   0  0  0  0  0  0  0  0  0  0  0  0
  1  2  1  0
  2  3  1  0
  2  4  1  0
  4  5  1  0
  5  6  1  0
  6  7  1  0
  6  2  1  0
  7  4  1  0
  1  8  1  0
  1  9  1  0
  1 10  1  0
  3 11  1  0
  3 12  1  0
  3 13  1  0
  4 14  1  0
  5 15  1  0
  5 16  1  0
  6 17  1  0
M  END
