
     RDKit          3D

 21 22  0  0  0  0  0  0  0  0999 V2000
   -2.2540   -0.9553    0.8151 C   0  0  0  0  0  0  0  0  0  0  0  0
   -1.2999   -0.1559   -0.0426 C   0  0  0  0  0  0  0  0  0  0  0  0
    0.1184    0.0118    0.3466 C   0  0  0  0  0  0  0  0  0  0  0  0
    1.0689   -0.9619   -0.2942 C   0  0  0  0  0  0  0  0  0  0  0  0
    2.3845   -0.2083   -0.2261 C   0  0  0  0  0  0  0  0  0  0  0  0
    1.9447    1.1485    0.2836 C   0  0  0  0  0  0  0  0  0  0  0  0
    0.6099    1.2304   -0.1160 O   0  0  0  0  0  0  0  0  0  0  0  0
   -1.9175    1.0405   -0.7348 C   0  0  0  0  0  0  0  0  0  0  0  0
   -1.6755   -0.1570   -1.3864 O   0  0  0  0  0  0  0  0  0  0  0  0
   -2.4765   -1.9284    0.3201 H   0  0  0  0  0  0  0  0  0  0  0  0
   -1.8776   -1.1455    1.8270 H   0  0  0  0  0  0  0  0  0  0  0  0
   -3.2287   -0.4341    0.9185 H   0  0  0  0  0  0  0  0  0  0  0  0
    0.3007   -0.0134    1.4247 H   0  0  0  0  0  0  0  0  0  0  0  0
    1.1877   -1.8796    0.2873 H   0  0  0  0  0  0  0  0  0  0  0  0
    0.8475   -1.1372   -1.3619 H   0  0  0  0  0  0  0  0  0  0  0  0
    2.8431   -0.0663   -1.2218 H   0  0  0  0  0  0  0  0  0  0  0  0
    3.0897   -0.6855    0.4981 H   0  0  0  0  0  0  0  0  0  0  0  0
    1.9306    1.1346    1.3971 H   0  0  0  0  0  0  0  0  0  0  0  0
    2.5597    1.9743   -0.1266 H   0  0  0  0  0  0  0  0  0  0  0  0
   -1.2346    1.8535   -1.0963 H   0  0  0  0  0  0  0  0  0  0  0  0
   -2.9211    1.3349   -0.4256 H   0  0  0  0  0  0  0  0  0  0  0  0
  1  2  1  0
  2  3  1  0
  3  4  1  0
  4  5  1  0
  5  6  1  0
  6  7  1  0
  2  8  1  0
  8  9  1  0
  9  2  1  0
  7  3  1  0
  1 10  1  0
  1 11  1  0
  1 12  1  0
  3 13  1  0
  4 14  1  0
  4 15  1  0
  5 16  1  0
  5 17  1  0
  6 18  1  0
  6 19  1  0
  8 20  1  0
  8 21  1  0
M  END
