
     RDKit          3D

 21 22  0  0  0  0  0  0  0  0999 V2000
   -1.5546   -1.0979    0.4552 C   0  0  0  0  0  0  0  0  0  0  0  0
   -0.8490    0.0715   -0.1574 C   0  0  0  0  0  0  0  0  0  0  0  0
    0.6180    0.2688    0.0958 C   0  0  0  0  0  0  0  0  0  0  0  0
    1.4779   -0.8562   -0.3643 C   0  0  0  0  0  0  0  0  0  0  0  0
    2.5792   -0.7945    0.5051 O   0  0  0  0  0  0  0  0  0  0  0  0
    2.3230    0.2291    1.4003 C   0  0  0  0  0  0  0  0  0  0  0  0
    0.9154    0.3151    1.4747 O   0  0  0  0  0  0  0  0  0  0  0  0
   -1.2777    0.4838   -1.5744 C   0  0  0  0  0  0  0  0  0  0  0  0
   -1.6490    1.2926   -0.3652 C   0  0  0  0  0  0  0  0  0  0  0  0
   -1.7585   -0.9541    1.5559 H   0  0  0  0  0  0  0  0  0  0  0  0
   -2.5615   -1.1829   -0.0330 H   0  0  0  0  0  0  0  0  0  0  0  0
   -1.0577   -2.0715    0.2674 H   0  0  0  0  0  0  0  0  0  0  0  0
    1.0093    1.2099   -0.3319 H   0  0  0  0  0  0  0  0  0  0  0  0
    1.8216   -0.6789   -1.3891 H   0  0  0  0  0  0  0  0  0  0  0  0
    1.0253   -1.8573   -0.2126 H   0  0  0  0  0  0  0  0  0  0  0  0
    2.7660    0.0638    2.4002 H   0  0  0  0  0  0  0  0  0  0  0  0
    2.7071    1.1794    0.9319 H   0  0  0  0  0  0  0  0  0  0  0  0
   -0.5425    0.9486   -2.2327 H   0  0  0  0  0  0  0  0  0  0  0  0
   -2.0313   -0.1612   -2.0598 H   0  0  0  0  0  0  0  0  0  0  0  0
   -2.7481    1.2819   -0.1375 H   0  0  0  0  0  0  0  0  0  0  0  0
   -1.2129    2.3099   -0.2284 H   0  0  0  0  0  0  0  0  0  0  0  0
  1  2  1  0
  2  3  1  0
  3  4  1  0
  4  5  1  0
  5  6  1  0
  6  7  1  0
  2  8  1  0
  8  9  1  0
  9  2  1  0
  7  3  1  0
  1 10  1  0
  1 11  1  0
  1 12  1  0
  3 13  1  0
  4 14  1  0
  4 15  1  0
  6 16  1  0
  6 17  1  0
  8 18  1  0
  8 19  1  0
  9 20  1  0
  9 21  1  0
M  END
