
     RDKit          3D

 19 20  0  0  0  0  0  0  0  0999 V2000
    1.3853   -0.6690    0.7041 C   0  0  0  0  0  0  0  0  0  0  0  0
    0.4871    0.0922   -0.2412 C   0  0  0  0  0  0  0  0  0  0  0  0
    1.2380    0.7985   -1.3298 C   0  0  0  0  0  0  0  0  0  0  0  0
   -0.3300    1.0325    0.5917 C   0  0  0  0  0  0  0  0  0  0  0  0
   -0.1181    2.2139    0.7054 O   0  0  0  0  0  0  0  0  0  0  0  0
   -1.3951    0.1733    1.1953 C   0  0  0  0  0  0  0  0  0  0  0  0
   -1.6820   -0.7828    0.0554 C   0  0  0  0  0  0  0  0  0  0  0  0
   -1.7530   -0.0413   -1.1953 O   0  0  0  0  0  0  0  0  0  0  0  0
   -0.6164   -0.8117   -0.7991 C   0  0  0  0  0  0  0  0  0  0  0  0
    2.1704   -1.2245    0.1853 H   0  0  0  0  0  0  0  0  0  0  0  0
    1.8545    0.0799    1.3764 H   0  0  0  0  0  0  0  0  0  0  0  0
    0.7097   -1.3223    1.3170 H   0  0  0  0  0  0  0  0  0  0  0  0
    0.9873    0.4148   -2.3533 H   0  0  0  0  0  0  0  0  0  0  0  0
    0.8828    1.8627   -1.3327 H   0  0  0  0  0  0  0  0  0  0  0  0
    2.3277    0.8507   -1.1628 H   0  0  0  0  0  0  0  0  0  0  0  0
   -1.0217   -0.3523    2.1003 H   0  0  0  0  0  0  0  0  0  0  0  0
   -2.2709    0.7885    1.4012 H   0  0  0  0  0  0  0  0  0  0  0  0
   -2.5292   -1.4482    0.2203 H   0  0  0  0  0  0  0  0  0  0  0  0
   -0.3266   -1.6549   -1.4381 H   0  0  0  0  0  0  0  0  0  0  0  0
  1  2  1  0
  2  3  1  0
  2  4  1  0
  4  5  2  0
  4  6  1  0
  6  7  1  0
  7  8  1  0
  8  9  1  0
  9  2  1  0
  9  7  1  0
  1 10  1  0
  1 11  1  0
  1 12  1  0
  3 13  1  0
  3 14  1  0
  3 15  1  0
  6 16  1  0
  6 17  1  0
  7 18  1  0
  9 19  1  0
M  END
