
     RDKit          3D

 17 18  0  0  0  0  0  0  0  0999 V2000
    1.8183   -0.6654   -0.3440 C   0  0  0  0  0  0  0  0  0  0  0  0
    0.4843   -0.3085    0.2120 C   0  0  0  0  0  0  0  0  0  0  0  0
    0.2156   -0.8263    1.4680 O   0  0  0  0  0  0  0  0  0  0  0  0
   -0.6126   -0.3644   -0.7913 C   0  0  0  0  0  0  0  0  0  0  0  0
   -1.8286    0.0880    0.0284 C   0  0  0  0  0  0  0  0  0  0  0  0
   -1.2066    1.3488    0.5050 C   0  0  0  0  0  0  0  0  0  0  0  0
   -1.6769    2.2557    1.0964 O   0  0  0  0  0  0  0  0  0  0  0  0
    0.1806    1.1614    0.0333 C   0  0  0  0  0  0  0  0  0  0  0  0
   -0.0673    0.8321   -1.3169 O   0  0  0  0  0  0  0  0  0  0  0  0
    2.5837   -0.0538    0.1661 H   0  0  0  0  0  0  0  0  0  0  0  0
    1.8363   -0.3719   -1.4314 H   0  0  0  0  0  0  0  0  0  0  0  0
    2.0396   -1.7465   -0.2677 H   0  0  0  0  0  0  0  0  0  0  0  0
    0.7135   -1.7030    1.5143 H   0  0  0  0  0  0  0  0  0  0  0  0
   -0.7312   -1.1888   -1.4464 H   0  0  0  0  0  0  0  0  0  0  0  0
   -1.9587   -0.5648    0.9113 H   0  0  0  0  0  0  0  0  0  0  0  0
   -2.7165    0.2257   -0.5822 H   0  0  0  0  0  0  0  0  0  0  0  0
    0.9267    1.8816    0.2451 H   0  0  0  0  0  0  0  0  0  0  0  0
  1  2  1  0
  2  3  1  0
  2  4  1  0
  4  5  1  0
  5  6  1  0
  6  7  2  0
  6  8  1  0
  8  9  1  0
  8  2  1  0
  9  4  1  0
  1 10  1  0
  1 11  1  0
  1 12  1  0
  3 13  1  0
  4 14  1  0
  5 15  1  0
  5 16  1  0
  8 17  1  0
M  END
