
     RDKit          3D

 19 20  0  0  0  0  0  0  0  0999 V2000
   -1.9679   -0.4575    0.0655 C   0  0  0  0  0  0  0  0  0  0  0  0
   -0.7153    0.4052   -0.1337 C   0  0  0  0  0  0  0  0  0  0  0  0
   -1.2081    1.6651   -0.5467 O   0  0  0  0  0  0  0  0  0  0  0  0
   -0.0156    0.6134    1.1642 C   0  0  0  0  0  0  0  0  0  0  0  0
    0.9562   -0.3049    1.4568 O   0  0  0  0  0  0  0  0  0  0  0  0
    1.8970   -0.4959    0.4798 C   0  0  0  0  0  0  0  0  0  0  0  0
    1.3329   -0.8389   -0.8608 C   0  0  0  0  0  0  0  0  0  0  0  0
    1.2426    0.3954   -1.6830 O   0  0  0  0  0  0  0  0  0  0  0  0
    0.1045   -0.2422   -1.1954 C   0  0  0  0  0  0  0  0  0  0  0  0
   -2.7571    0.1915    0.4681 H   0  0  0  0  0  0  0  0  0  0  0  0
   -1.7085   -1.2580    0.7659 H   0  0  0  0  0  0  0  0  0  0  0  0
   -2.2564   -0.9080   -0.9173 H   0  0  0  0  0  0  0  0  0  0  0  0
   -0.8878    2.3918    0.0276 H   0  0  0  0  0  0  0  0  0  0  0  0
    0.3620    1.6710    1.2222 H   0  0  0  0  0  0  0  0  0  0  0  0
   -0.7929    0.5384    1.9758 H   0  0  0  0  0  0  0  0  0  0  0  0
    2.5205   -1.3828    0.8023 H   0  0  0  0  0  0  0  0  0  0  0  0
    2.6371    0.3403    0.4037 H   0  0  0  0  0  0  0  0  0  0  0  0
    1.7760   -1.6368   -1.4676 H   0  0  0  0  0  0  0  0  0  0  0  0
   -0.5191   -0.6872   -2.0273 H   0  0  0  0  0  0  0  0  0  0  0  0
  1  2  1  0
  2  3  1  0
  2  4  1  0
  4  5  1  0
  5  6  1  0
  6  7  1  0
  7  8  1  0
  8  9  1  0
  9  2  1  0
  9  7  1  0
  1 10  1  0
  1 11  1  0
  1 12  1  0
  3 13  1  0
  4 14  1  0
  4 15  1  0
  6 16  1  0
  6 17  1  0
  7 18  1  0
  9 19  1  0
M  END
