
     RDKit          3D

 21 21  0  0  0  0  0  0  0  0999 V2000
   -1.1223   -0.7321   -1.2187 C   0  0  0  0  0  0  0  0  0  0  0  0
   -0.6942    0.0509    0.0092 C   0  0  0  0  0  0  0  0  0  0  0  0
   -1.3426   -0.4764    1.2532 C   0  0  0  0  0  0  0  0  0  0  0  0
   -0.7581    1.5550   -0.1726 C   0  0  0  0  0  0  0  0  0  0  0  0
    0.6740    1.4575   -0.7121 C   0  0  0  0  0  0  0  0  0  0  0  0
    0.8182    0.2242    0.1188 C   0  0  0  0  0  0  0  0  0  0  0  0
    1.5771   -0.8171   -0.3953 O   0  0  0  0  0  0  0  0  0  0  0  0
    2.5464   -1.4415    0.3651 C   0  0  0  0  0  0  0  0  0  0  0  0
    2.7039   -1.0162    1.5464 O   0  0  0  0  0  0  0  0  0  0  0  0
   -0.8378   -1.7901   -1.0643 H   0  0  0  0  0  0  0  0  0  0  0  0
   -0.6769   -0.3507   -2.1414 H   0  0  0  0  0  0  0  0  0  0  0  0
   -2.2398   -0.7128   -1.2159 H   0  0  0  0  0  0  0  0  0  0  0  0
   -1.9698    0.3075    1.7595 H   0  0  0  0  0  0  0  0  0  0  0  0
   -0.5880   -0.8176    1.9887 H   0  0  0  0  0  0  0  0  0  0  0  0
   -2.0441   -1.3173    1.0478 H   0  0  0  0  0  0  0  0  0  0  0  0
   -1.4843    1.9120   -0.9195 H   0  0  0  0  0  0  0  0  0  0  0  0
   -0.7367    2.0760    0.7832 H   0  0  0  0  0  0  0  0  0  0  0  0
    1.3156    2.3106   -0.4222 H   0  0  0  0  0  0  0  0  0  0  0  0
    0.6274    1.3430   -1.7968 H   0  0  0  0  0  0  0  0  0  0  0  0
    1.0650    0.4914    1.1680 H   0  0  0  0  0  0  0  0  0  0  0  0
    3.1670   -2.2562    0.0188 H   0  0  0  0  0  0  0  0  0  0  0  0
  1  2  1  0
  2  3  1  0
  2  4  1  0
  4  5  1  0
  5  6  1  0
  6  7  1  0
  7  8  1  0
  8  9  2  0
  6  2  1  0
  1 10  1  0
  1 11  1  0
  1 12  1  0
  3 13  1  0
  3 14  1  0
  3 15  1  0
  4 16  1  0
  4 17  1  0
  5 18  1  0
  5 19  1  0
  6 20  1  0
  8 21  1  0
M  END
