
     RDKit          3D

 22 23  0  0  0  0  0  0  0  0999 V2000
   -0.3598    1.6273   -1.0131 C   0  0  0  0  0  0  0  0  0  0  0  0
   -0.1810    0.3975   -0.1614 C   0  0  0  0  0  0  0  0  0  0  0  0
    1.1472    0.3823    0.5063 C   0  0  0  0  0  0  0  0  0  0  0  0
    1.5931   -0.7026    1.3991 C   0  0  0  0  0  0  0  0  0  0  0  0
    2.1023   -0.6806   -0.0249 C   0  0  0  0  0  0  0  0  0  0  0  0
   -1.3513    0.2123    0.8182 C   0  0  0  0  0  0  0  0  0  0  0  0
   -2.0411   -0.5221   -0.3216 C   0  0  0  0  0  0  0  0  0  0  0  0
   -0.6350   -0.8865   -0.8009 C   0  0  0  0  0  0  0  0  0  0  0  0
   -0.6148    2.5030   -0.3707 H   0  0  0  0  0  0  0  0  0  0  0  0
    0.6105    1.8231   -1.5282 H   0  0  0  0  0  0  0  0  0  0  0  0
   -1.1048    1.4602   -1.8186 H   0  0  0  0  0  0  0  0  0  0  0  0
    1.5754    1.3996    0.6985 H   0  0  0  0  0  0  0  0  0  0  0  0
    2.3667   -0.4528    2.1497 H   0  0  0  0  0  0  0  0  0  0  0  0
    0.9404   -1.5351    1.7143 H   0  0  0  0  0  0  0  0  0  0  0  0
    3.1173   -0.3120   -0.2422 H   0  0  0  0  0  0  0  0  0  0  0  0
    1.7167   -1.4793   -0.6564 H   0  0  0  0  0  0  0  0  0  0  0  0
   -1.0326   -0.4324    1.6446 H   0  0  0  0  0  0  0  0  0  0  0  0
   -1.8385    1.1666    1.1011 H   0  0  0  0  0  0  0  0  0  0  0  0
   -2.5830    0.1487   -0.9978 H   0  0  0  0  0  0  0  0  0  0  0  0
   -2.6242   -1.4100   -0.0061 H   0  0  0  0  0  0  0  0  0  0  0  0
   -0.5207   -0.9586   -1.8883 H   0  0  0  0  0  0  0  0  0  0  0  0
   -0.2829   -1.7488   -0.2015 H   0  0  0  0  0  0  0  0  0  0  0  0
  1  2  1  0
  2  3  1  0
  3  4  1  0
  4  5  1  0
  2  6  1  0
  6  7  1  0
  7  8  1  0
  8  2  1  0
  5  3  1  0
  1  9  1  0
  1 10  1  0
  1 11  1  0
  3 12  1  0
  4 13  1  0
  4 14  1  0
  5 15  1  0
  5 16  1  0
  6 17  1  0
  6 18  1  0
  7 19  1  0
  7 20  1  0
  8 21  1  0
  8 22  1  0
M  END
