
     RDKit          3D

 21 21  0  0  0  0  0  0  0  0999 V2000
   -1.2127    0.1088    1.3780 C   0  0  0  0  0  0  0  0  0  0  0  0
   -0.5987    0.0074   -0.0130 C   0  0  0  0  0  0  0  0  0  0  0  0
   -1.7406   -0.0685   -0.9896 C   0  0  0  0  0  0  0  0  0  0  0  0
    0.2539   -1.2370   -0.0195 C   0  0  0  0  0  0  0  0  0  0  0  0
    1.6867   -0.9014   -0.3952 C   0  0  0  0  0  0  0  0  0  0  0  0
    2.2329    0.0464    0.4578 O   0  0  0  0  0  0  0  0  0  0  0  0
    1.6022    1.2754    0.2730 C   0  0  0  0  0  0  0  0  0  0  0  0
    0.2606    1.1551   -0.3293 C   0  0  0  0  0  0  0  0  0  0  0  0
   -0.1311    2.0070   -1.0869 O   0  0  0  0  0  0  0  0  0  0  0  0
   -1.8619   -0.7881    1.4935 H   0  0  0  0  0  0  0  0  0  0  0  0
   -0.4153    0.0179    2.1556 H   0  0  0  0  0  0  0  0  0  0  0  0
   -1.8084    1.0240    1.4789 H   0  0  0  0  0  0  0  0  0  0  0  0
   -2.7319    0.1480   -0.5103 H   0  0  0  0  0  0  0  0  0  0  0  0
   -1.8458   -1.0622   -1.4543 H   0  0  0  0  0  0  0  0  0  0  0  0
   -1.6435    0.6792   -1.8223 H   0  0  0  0  0  0  0  0  0  0  0  0
   -0.1067   -1.9570   -0.7851 H   0  0  0  0  0  0  0  0  0  0  0  0
    0.2782   -1.7526    0.9605 H   0  0  0  0  0  0  0  0  0  0  0  0
    2.2680   -1.8448   -0.2438 H   0  0  0  0  0  0  0  0  0  0  0  0
    1.7397   -0.6007   -1.4478 H   0  0  0  0  0  0  0  0  0  0  0  0
    1.4843    1.8258    1.2376 H   0  0  0  0  0  0  0  0  0  0  0  0
    2.2898    1.9172   -0.3380 H   0  0  0  0  0  0  0  0  0  0  0  0
  1  2  1  0
  2  3  1  0
  2  4  1  0
  4  5  1  0
  5  6  1  0
  6  7  1  0
  7  8  1  0
  8  9  2  0
  8  2  1  0
  1 10  1  0
  1 11  1  0
  1 12  1  0
  3 13  1  0
  3 14  1  0
  3 15  1  0
  4 16  1  0
  4 17  1  0
  5 18  1  0
  5 19  1  0
  7 20  1  0
  7 21  1  0
M  END
