
     RDKit          3D

 19 20  0  0  0  0  0  0  0  0999 V2000
   -1.9077   -0.5819    0.7152 C   0  0  0  0  0  0  0  0  0  0  0  0
   -1.2727    0.4406   -0.1991 C   0  0  0  0  0  0  0  0  0  0  0  0
    0.2024    0.3428   -0.4900 C   0  0  0  0  0  0  0  0  0  0  0  0
    0.9333    1.0767    0.5795 O   0  0  0  0  0  0  0  0  0  0  0  0
    1.0770   -0.3359    0.4431 C   0  0  0  0  0  0  0  0  0  0  0  0
    2.4633   -0.7450    0.0249 C   0  0  0  0  0  0  0  0  0  0  0  0
    3.4400   -0.3525    0.9264 O   0  0  0  0  0  0  0  0  0  0  0  0
   -2.1887    1.0205   -1.2478 C   0  0  0  0  0  0  0  0  0  0  0  0
   -1.7580    1.7599   -0.1660 O   0  0  0  0  0  0  0  0  0  0  0  0
   -1.2563   -1.4838    0.6789 H   0  0  0  0  0  0  0  0  0  0  0  0
   -2.9238   -0.8758    0.3438 H   0  0  0  0  0  0  0  0  0  0  0  0
   -2.0164   -0.2291    1.7414 H   0  0  0  0  0  0  0  0  0  0  0  0
    0.6073    0.6516   -1.4639 H   0  0  0  0  0  0  0  0  0  0  0  0
    0.6461   -0.8627    1.3212 H   0  0  0  0  0  0  0  0  0  0  0  0
    2.6890   -0.4180   -1.0039 H   0  0  0  0  0  0  0  0  0  0  0  0
    2.5057   -1.8721   -0.0083 H   0  0  0  0  0  0  0  0  0  0  0  0
    3.7370    0.5680    0.8058 H   0  0  0  0  0  0  0  0  0  0  0  0
   -3.2473    0.7478   -1.2345 H   0  0  0  0  0  0  0  0  0  0  0  0
   -1.7303    1.1490   -2.2385 H   0  0  0  0  0  0  0  0  0  0  0  0
  1  2  1  0
  2  3  1  0
  3  4  1  0
  4  5  1  0
  5  6  1  0
  6  7  1  0
  2  8  1  0
  8  9  1  0
  9  2  1  0
  5  3  1  0
  1 10  1  0
  1 11  1  0
  1 12  1  0
  3 13  1  0
  5 14  1  0
  6 15  1  0
  6 16  1  0
  7 17  1  0
  8 18  1  0
  8 19  1  0
M  END
