
     RDKit          3D

 18 18  0  0  0  0  0  0  0  0999 V2000
    1.5937   -0.8663   -0.7833 C   0  0  0  0  0  0  0  0  0  0  0  0
    0.8475   -0.0491    0.2388 C   0  0  0  0  0  0  0  0  0  0  0  0
    1.5427    1.0724    0.6930 O   0  0  0  0  0  0  0  0  0  0  0  0
   -0.0980   -0.6392    1.1900 C   0  0  0  0  0  0  0  0  0  0  0  0
   -0.6098    0.0916    0.0084 C   0  0  0  0  0  0  0  0  0  0  0  0
   -1.1477    1.4879    0.1301 C   0  0  0  0  0  0  0  0  0  0  0  0
   -1.3244   -0.7565   -0.9664 C   0  0  0  0  0  0  0  0  0  0  0  0
   -1.0433   -1.9088   -1.2075 O   0  0  0  0  0  0  0  0  0  0  0  0
    2.6858   -0.8707   -0.6145 H   0  0  0  0  0  0  0  0  0  0  0  0
    1.4389   -0.3844   -1.7856 H   0  0  0  0  0  0  0  0  0  0  0  0
    1.2664   -1.9078   -0.8468 H   0  0  0  0  0  0  0  0  0  0  0  0
    1.2200    1.3783    1.5878 H   0  0  0  0  0  0  0  0  0  0  0  0
   -0.1750   -0.1907    2.2231 H   0  0  0  0  0  0  0  0  0  0  0  0
   -0.1497   -1.7421    1.2266 H   0  0  0  0  0  0  0  0  0  0  0  0
   -1.8159    1.7416   -0.7286 H   0  0  0  0  0  0  0  0  0  0  0  0
   -0.3237    2.2310    0.0921 H   0  0  0  0  0  0  0  0  0  0  0  0
   -1.7526    1.6427    1.0484 H   0  0  0  0  0  0  0  0  0  0  0  0
   -2.1548   -0.3298   -1.5056 H   0  0  0  0  0  0  0  0  0  0  0  0
  1  2  1  0
  2  3  1  0
  2  4  1  0
  4  5  1  0
  5  6  1  0
  5  7  1  0
  7  8  2  0
  5  2  1  0
  1  9  1  0
  1 10  1  0
  1 11  1  0
  3 12  1  0
  4 13  1  0
  4 14  1  0
  6 15  1  0
  6 16  1  0
  6 17  1  0
  7 18  1  0
M  END
