
     RDKit          3D

 23 23  0  0  0  0  0  0  0  0999 V2000
   -2.4064    0.8868    0.4444 C   0  0  0  0  0  0  0  0  0  0  0  0
   -1.8989   -0.5452    0.4722 C   0  0  0  0  0  0  0  0  0  0  0  0
   -2.5915   -1.3234    1.4212 O   0  0  0  0  0  0  0  0  0  0  0  0
   -1.4668   -1.1136   -0.8035 C   0  0  0  0  0  0  0  0  0  0  0  0
   -0.4598   -0.8291    0.2757 C   0  0  0  0  0  0  0  0  0  0  0  0
    0.5288    0.3104    0.0665 C   0  0  0  0  0  0  0  0  0  0  0  0
    1.8934   -0.3218   -0.0996 C   0  0  0  0  0  0  0  0  0  0  0  0
    2.9781    0.7013   -0.3167 C   0  0  0  0  0  0  0  0  0  0  0  0
    2.7805    1.4728   -1.4389 O   0  0  0  0  0  0  0  0  0  0  0  0
   -3.5004    0.8721    0.6253 H   0  0  0  0  0  0  0  0  0  0  0  0
   -1.9550    1.4921    1.2782 H   0  0  0  0  0  0  0  0  0  0  0  0
   -2.2361    1.3847   -0.5154 H   0  0  0  0  0  0  0  0  0  0  0  0
   -2.0869   -1.2085    2.2692 H   0  0  0  0  0  0  0  0  0  0  0  0
   -1.4880   -0.4727   -1.7125 H   0  0  0  0  0  0  0  0  0  0  0  0
   -1.7454   -2.1660   -1.0364 H   0  0  0  0  0  0  0  0  0  0  0  0
   -0.0705   -1.7467    0.7725 H   0  0  0  0  0  0  0  0  0  0  0  0
    0.2519    0.9266   -0.8144 H   0  0  0  0  0  0  0  0  0  0  0  0
    0.5538    0.9072    0.9977 H   0  0  0  0  0  0  0  0  0  0  0  0
    1.8438   -1.0438   -0.9334 H   0  0  0  0  0  0  0  0  0  0  0  0
    2.1045   -0.8664    0.8424 H   0  0  0  0  0  0  0  0  0  0  0  0
    3.9386    0.1368   -0.3667 H   0  0  0  0  0  0  0  0  0  0  0  0
    3.0721    1.3769    0.5564 H   0  0  0  0  0  0  0  0  0  0  0  0
    1.9602    1.1695   -1.9037 H   0  0  0  0  0  0  0  0  0  0  0  0
  1  2  1  0
  2  3  1  0
  2  4  1  0
  4  5  1  0
  5  6  1  0
  6  7  1  0
  7  8  1  0
  8  9  1  0
  5  2  1  0
  1 10  1  0
  1 11  1  0
  1 12  1  0
  3 13  1  0
  4 14  1  0
  4 15  1  0
  5 16  1  0
  6 17  1  0
  6 18  1  0
  7 19  1  0
  7 20  1  0
  8 21  1  0
  8 22  1  0
  9 23  1  0
M  END
