
     RDKit          3D

 16 17  0  0  0  0  0  0  0  0999 V2000
   -1.4326    1.0754    0.2392 C   0  0  0  0  0  0  0  0  0  0  0  0
   -0.3448    0.0245   -0.0081 C   0  0  0  0  0  0  0  0  0  0  0  0
   -0.9693   -1.2953   -0.4884 C   0  0  0  0  0  0  0  0  0  0  0  0
    0.7381    0.0364    0.9216 C   0  0  0  0  0  0  0  0  0  0  0  0
    1.9079    0.8459    0.9325 O   0  0  0  0  0  0  0  0  0  0  0  0
    2.2734   -0.0070   -0.1081 C   0  0  0  0  0  0  0  0  0  0  0  0
    3.2228   -0.7083   -0.4371 O   0  0  0  0  0  0  0  0  0  0  0  0
    0.9260    0.3661   -0.6163 C   0  0  0  0  0  0  0  0  0  0  0  0
   -1.6873    0.9701    1.3247 H   0  0  0  0  0  0  0  0  0  0  0  0
   -0.9194    2.0556    0.1260 H   0  0  0  0  0  0  0  0  0  0  0  0
   -2.2925    0.9463   -0.4173 H   0  0  0  0  0  0  0  0  0  0  0  0
   -0.2515   -1.9255   -1.0118 H   0  0  0  0  0  0  0  0  0  0  0  0
   -1.7891   -1.0345   -1.1899 H   0  0  0  0  0  0  0  0  0  0  0  0
   -1.4528   -1.8207    0.3739 H   0  0  0  0  0  0  0  0  0  0  0  0
    1.0892   -1.0088    1.2026 H   0  0  0  0  0  0  0  0  0  0  0  0
    0.9820    1.4797   -0.8435 H   0  0  0  0  0  0  0  0  0  0  0  0
  1  2  1  0
  2  3  1  0
  2  4  1  0
  4  5  1  0
  5  6  1  0
  6  7  2  0
  6  8  1  0
  8  2  1  0
  8  4  1  0
  1  9  1  0
  1 10  1  0
  1 11  1  0
  3 12  1  0
  3 13  1  0
  3 14  1  0
  4 15  1  0
  8 16  1  0
M  END
