
     RDKit          3D

 21 22  0  0  0  0  0  0  0  0999 V2000
   -1.5715    1.1839    0.9012 C   0  0  0  0  0  0  0  0  0  0  0  0
   -0.8502    0.2015    0.0195 C   0  0  0  0  0  0  0  0  0  0  0  0
   -1.5922   -0.0078   -1.3053 C   0  0  0  0  0  0  0  0  0  0  0  0
   -0.5987   -1.1538    0.6320 C   0  0  0  0  0  0  0  0  0  0  0  0
    0.7987   -1.0659    0.0031 C   0  0  0  0  0  0  0  0  0  0  0  0
    1.6789   -0.0687    0.6130 C   0  0  0  0  0  0  0  0  0  0  0  0
    3.0571    0.0205    0.0607 C   0  0  0  0  0  0  0  0  0  0  0  0
    3.1778   -0.0583   -1.1525 O   0  0  0  0  0  0  0  0  0  0  0  0
    0.5908    0.4607   -0.2232 C   0  0  0  0  0  0  0  0  0  0  0  0
   -0.9179    1.6053    1.6789 H   0  0  0  0  0  0  0  0  0  0  0  0
   -1.8491    2.0537    0.2372 H   0  0  0  0  0  0  0  0  0  0  0  0
   -2.5121    0.7859    1.2849 H   0  0  0  0  0  0  0  0  0  0  0  0
   -1.1798   -0.9283   -1.7722 H   0  0  0  0  0  0  0  0  0  0  0  0
   -2.6797   -0.0911   -1.1520 H   0  0  0  0  0  0  0  0  0  0  0  0
   -1.3551    0.8461   -1.9687 H   0  0  0  0  0  0  0  0  0  0  0  0
   -0.4852   -1.1784    1.7266 H   0  0  0  0  0  0  0  0  0  0  0  0
   -1.1708   -1.9949    0.1967 H   0  0  0  0  0  0  0  0  0  0  0  0
    1.0092   -1.6326   -0.8977 H   0  0  0  0  0  0  0  0  0  0  0  0
    1.6490    0.0105    1.7167 H   0  0  0  0  0  0  0  0  0  0  0  0
    3.9465    0.1476    0.6399 H   0  0  0  0  0  0  0  0  0  0  0  0
    0.8544    0.8642   -1.2004 H   0  0  0  0  0  0  0  0  0  0  0  0
  1  2  1  0
  2  3  1  0
  2  4  1  0
  4  5  1  0
  5  6  1  0
  6  7  1  0
  7  8  2  0
  6  9  1  0
  9  2  1  0
  9  5  1  0
  1 10  1  0
  1 11  1  0
  1 12  1  0
  3 13  1  0
  3 14  1  0
  3 15  1  0
  4 16  1  0
  4 17  1  0
  5 18  1  0
  6 19  1  0
  7 20  1  0
  9 21  1  0
M  END
