
     RDKit          3D

 21 21  0  0  0  0  0  0  0  0999 V2000
   -1.3287   -1.4158   -0.0156 C   0  0  0  0  0  0  0  0  0  0  0  0
   -0.4237   -0.2002    0.0937 C   0  0  0  0  0  0  0  0  0  0  0  0
   -1.3571    1.0145    0.0377 C   0  0  0  0  0  0  0  0  0  0  0  0
   -0.6735    2.2010    0.1264 O   0  0  0  0  0  0  0  0  0  0  0  0
    0.5030   -0.2293   -1.0914 C   0  0  0  0  0  0  0  0  0  0  0  0
    1.8789    0.1188   -0.5994 C   0  0  0  0  0  0  0  0  0  0  0  0
    1.8342   -0.0867    0.8534 C   0  0  0  0  0  0  0  0  0  0  0  0
    2.7970   -0.1586    1.5889 O   0  0  0  0  0  0  0  0  0  0  0  0
    0.4132   -0.1991    1.3245 C   0  0  0  0  0  0  0  0  0  0  0  0
   -2.2490   -1.2712    0.5965 H   0  0  0  0  0  0  0  0  0  0  0  0
   -0.7974   -2.3584    0.2218 H   0  0  0  0  0  0  0  0  0  0  0  0
   -1.6761   -1.4280   -1.0893 H   0  0  0  0  0  0  0  0  0  0  0  0
   -2.0936    0.8946    0.8597 H   0  0  0  0  0  0  0  0  0  0  0  0
   -1.9445    0.9226   -0.9138 H   0  0  0  0  0  0  0  0  0  0  0  0
   -1.0360    2.8313   -0.5476 H   0  0  0  0  0  0  0  0  0  0  0  0
    0.5666   -1.2743   -1.5147 H   0  0  0  0  0  0  0  0  0  0  0  0
    0.2017    0.4418   -1.9015 H   0  0  0  0  0  0  0  0  0  0  0  0
    2.1791    1.1296   -0.9012 H   0  0  0  0  0  0  0  0  0  0  0  0
    2.6575   -0.5731   -1.0367 H   0  0  0  0  0  0  0  0  0  0  0  0
    0.2300    0.7150    1.9460 H   0  0  0  0  0  0  0  0  0  0  0  0
    0.3183   -1.0746    1.9627 H   0  0  0  0  0  0  0  0  0  0  0  0
  1  2  1  0
  2  3  1  0
  3  4  1  0
  2  5  1  0
  5  6  1  0
  6  7  1  0
  7  8  2  0
  7  9  1  0
  9  2  1  0
  1 10  1  0
  1 11  1  0
  1 12  1  0
  3 13  1  0
  3 14  1  0
  4 15  1  0
  5 16  1  0
  5 17  1  0
  6 18  1  0
  6 19  1  0
  9 20  1  0
  9 21  1  0
M  END
