
     RDKit          3D

 21 23  0  0  0  0  0  0  0  0999 V2000
   -1.6510    0.9213    0.7665 C   0  0  0  0  0  0  0  0  0  0  0  0
   -0.6694    0.0565    0.0314 C   0  0  0  0  0  0  0  0  0  0  0  0
   -1.3872   -1.1165   -0.6240 C   0  0  0  0  0  0  0  0  0  0  0  0
    0.1372    0.8401   -0.9724 C   0  0  0  0  0  0  0  0  0  0  0  0
    1.5530    0.3066   -0.8426 C   0  0  0  0  0  0  0  0  0  0  0  0
    2.0723    0.4069    0.5950 C   0  0  0  0  0  0  0  0  0  0  0  0
    1.1564    0.3820    1.6232 O   0  0  0  0  0  0  0  0  0  0  0  0
    0.3637   -0.5636    0.9804 C   0  0  0  0  0  0  0  0  0  0  0  0
    1.4978   -0.8296    0.0461 C   0  0  0  0  0  0  0  0  0  0  0  0
   -1.4278    1.9877    0.5442 H   0  0  0  0  0  0  0  0  0  0  0  0
   -1.5860    0.7194    1.8632 H   0  0  0  0  0  0  0  0  0  0  0  0
   -2.6720    0.7284    0.3796 H   0  0  0  0  0  0  0  0  0  0  0  0
   -1.1802   -2.0737   -0.1116 H   0  0  0  0  0  0  0  0  0  0  0  0
   -2.4921   -0.9462   -0.6020 H   0  0  0  0  0  0  0  0  0  0  0  0
   -1.0880   -1.2277   -1.6886 H   0  0  0  0  0  0  0  0  0  0  0  0
    0.1744    1.9259   -0.7005 H   0  0  0  0  0  0  0  0  0  0  0  0
   -0.2623    0.7189   -2.0006 H   0  0  0  0  0  0  0  0  0  0  0  0
    2.3029    0.5261   -1.5896 H   0  0  0  0  0  0  0  0  0  0  0  0
    3.1510    0.4170    0.7736 H   0  0  0  0  0  0  0  0  0  0  0  0
    0.0109   -1.4030    1.5697 H   0  0  0  0  0  0  0  0  0  0  0  0
    1.9963   -1.7763   -0.0409 H   0  0  0  0  0  0  0  0  0  0  0  0
  1  2  1  0
  2  3  1  0
  2  4  1  0
  4  5  1  0
  5  6  1  0
  6  7  1  0
  7  8  1  0
  8  9  1  0
  8  2  1  0
  9  5  1  0
  9  6  1  0
  1 10  1  0
  1 11  1  0
  1 12  1  0
  3 13  1  0
  3 14  1  0
  3 15  1  0
  4 16  1  0
  4 17  1  0
  5 18  1  0
  6 19  1  0
  8 20  1  0
  9 21  1  0
M  END
