
     RDKit          3D

 17 17  0  0  0  0  0  0  0  0999 V2000
   -0.7891    1.3744    0.1166 C   0  0  0  0  0  0  0  0  0  0  0  0
   -0.7053   -0.1085   -0.1941 C   0  0  0  0  0  0  0  0  0  0  0  0
   -2.0110   -0.8006   -0.2097 C   0  0  0  0  0  0  0  0  0  0  0  0
   -2.7622   -0.6799    0.7305 O   0  0  0  0  0  0  0  0  0  0  0  0
    0.2676   -0.8409    0.6879 C   0  0  0  0  0  0  0  0  0  0  0  0
    1.1461   -0.6272   -0.5104 C   0  0  0  0  0  0  0  0  0  0  0  0
    2.1435    0.4338   -0.2424 C   0  0  0  0  0  0  0  0  0  0  0  0
    3.0875    0.1172    0.4827 O   0  0  0  0  0  0  0  0  0  0  0  0
    0.0897   -0.3029   -1.3112 O   0  0  0  0  0  0  0  0  0  0  0  0
   -1.8704    1.6550   -0.0185 H   0  0  0  0  0  0  0  0  0  0  0  0
   -0.2264    1.9931   -0.6084 H   0  0  0  0  0  0  0  0  0  0  0  0
   -0.4343    1.5738    1.1295 H   0  0  0  0  0  0  0  0  0  0  0  0
   -2.3419   -1.4203   -1.0265 H   0  0  0  0  0  0  0  0  0  0  0  0
    0.0626   -1.9185    0.8246 H   0  0  0  0  0  0  0  0  0  0  0  0
    0.5406   -0.3207    1.6026 H   0  0  0  0  0  0  0  0  0  0  0  0
    1.6938   -1.5565   -0.8338 H   0  0  0  0  0  0  0  0  0  0  0  0
    2.1095    1.4286   -0.6195 H   0  0  0  0  0  0  0  0  0  0  0  0
  1  2  1  0
  2  3  1  0
  3  4  2  0
  2  5  1  0
  5  6  1  0
  6  7  1  0
  7  8  2  0
  6  9  1  0
  9  2  1  0
  1 10  1  0
  1 11  1  0
  1 12  1  0
  3 13  1  0
  5 14  1  0
  5 15  1  0
  6 16  1  0
  7 17  1  0
M  END
