
     RDKit          3D

 20 21  0  0  0  0  0  0  0  0999 V2000
   -1.6600   -1.4539    0.1824 C   0  0  0  0  0  0  0  0  0  0  0  0
   -0.6520   -0.3108    0.0949 C   0  0  0  0  0  0  0  0  0  0  0  0
   -1.3146    1.0465    0.2863 C   0  0  0  0  0  0  0  0  0  0  0  0
   -0.4146    2.0798    0.2089 O   0  0  0  0  0  0  0  0  0  0  0  0
    0.4373   -0.4802   -0.8654 C   0  0  0  0  0  0  0  0  0  0  0  0
    1.6773    0.3401   -0.8950 C   0  0  0  0  0  0  0  0  0  0  0  0
    1.7943    0.3628    0.6045 C   0  0  0  0  0  0  0  0  0  0  0  0
    0.6648   -0.6114    0.6612 C   0  0  0  0  0  0  0  0  0  0  0  0
   -1.2086   -2.3706    0.5823 H   0  0  0  0  0  0  0  0  0  0  0  0
   -2.5038   -1.1896    0.8739 H   0  0  0  0  0  0  0  0  0  0  0  0
   -2.0239   -1.6472   -0.8496 H   0  0  0  0  0  0  0  0  0  0  0  0
   -2.1097    1.1153   -0.5021 H   0  0  0  0  0  0  0  0  0  0  0  0
   -1.8849    1.0564    1.2593 H   0  0  0  0  0  0  0  0  0  0  0  0
   -0.7008    2.6745   -0.5303 H   0  0  0  0  0  0  0  0  0  0  0  0
    0.4606   -1.3946   -1.4656 H   0  0  0  0  0  0  0  0  0  0  0  0
    2.5546   -0.1896   -1.3295 H   0  0  0  0  0  0  0  0  0  0  0  0
    1.6071    1.3420   -1.3495 H   0  0  0  0  0  0  0  0  0  0  0  0
    1.6368    1.3525    1.0585 H   0  0  0  0  0  0  0  0  0  0  0  0
    2.7369   -0.0751    1.0054 H   0  0  0  0  0  0  0  0  0  0  0  0
    0.9032   -1.6471    0.9694 H   0  0  0  0  0  0  0  0  0  0  0  0
  1  2  1  0
  2  3  1  0
  3  4  1  0
  2  5  1  0
  5  6  1  0
  6  7  1  0
  7  8  1  0
  8  2  1  0
  8  5  1  0
  1  9  1  0
  1 10  1  0
  1 11  1  0
  3 12  1  0
  3 13  1  0
  4 14  1  0
  5 15  1  0
  6 16  1  0
  6 17  1  0
  7 18  1  0
  7 19  1  0
  8 20  1  0
M  END
