
     RDKit          3D

 16 16  0  0  0  0  0  0  0  0999 V2000
   -1.4507   -0.2634    1.1115 C   0  0  0  0  0  0  0  0  0  0  0  0
   -0.5811   -0.0726   -0.1137 C   0  0  0  0  0  0  0  0  0  0  0  0
   -1.2797   -0.1035   -1.2928 O   0  0  0  0  0  0  0  0  0  0  0  0
    0.1735    1.1833    0.0863 C   0  0  0  0  0  0  0  0  0  0  0  0
    1.4332    1.0388   -0.2451 C   0  0  0  0  0  0  0  0  0  0  0  0
    1.6563   -0.3434   -0.7078 C   0  0  0  0  0  0  0  0  0  0  0  0
    0.5284   -1.1002   -0.1380 C   0  0  0  0  0  0  0  0  0  0  0  0
    0.5313   -2.2460    0.2078 O   0  0  0  0  0  0  0  0  0  0  0  0
   -1.9724   -1.2226    1.1257 H   0  0  0  0  0  0  0  0  0  0  0  0
   -2.1743    0.5703    1.1190 H   0  0  0  0  0  0  0  0  0  0  0  0
   -0.7868   -0.0982    1.9960 H   0  0  0  0  0  0  0  0  0  0  0  0
   -2.2528   -0.2392   -1.1685 H   0  0  0  0  0  0  0  0  0  0  0  0
   -0.2440    2.1144    0.4584 H   0  0  0  0  0  0  0  0  0  0  0  0
    2.2248    1.8418   -0.1872 H   0  0  0  0  0  0  0  0  0  0  0  0
    2.6432   -0.7512   -0.4202 H   0  0  0  0  0  0  0  0  0  0  0  0
    1.5510   -0.3082   -1.8313 H   0  0  0  0  0  0  0  0  0  0  0  0
  1  2  1  0
  2  3  1  0
  2  4  1  0
  4  5  2  0
  5  6  1  0
  6  7  1  0
  7  8  2  0
  7  2  1  0
  1  9  1  0
  1 10  1  0
  1 11  1  0
  3 12  1  0
  4 13  1  0
  5 14  1  0
  6 15  1  0
  6 16  1  0
M  END
