
     RDKit          3D

 19 21  0  0  0  0  0  0  0  0999 V2000
   -2.1512   -0.2581    0.4089 C   0  0  0  0  0  0  0  0  0  0  0  0
   -0.8893   -0.1484   -0.3695 C   0  0  0  0  0  0  0  0  0  0  0  0
   -1.0159   -0.2130   -1.7547 O   0  0  0  0  0  0  0  0  0  0  0  0
    0.1026    0.8844    0.0623 C   0  0  0  0  0  0  0  0  0  0  0  0
    1.1422    0.0511   -0.6207 C   0  0  0  0  0  0  0  0  0  0  0  0
    2.3293    0.2034    0.2531 C   0  0  0  0  0  0  0  0  0  0  0  0
    1.7311    0.0792    1.5313 O   0  0  0  0  0  0  0  0  0  0  0  0
    0.3952   -0.0013    1.2436 C   0  0  0  0  0  0  0  0  0  0  0  0
    0.2820   -0.9546    0.0869 C   0  0  0  0  0  0  0  0  0  0  0  0
   -2.1326   -0.9870    1.2235 H   0  0  0  0  0  0  0  0  0  0  0  0
   -2.4936    0.7570    0.7674 H   0  0  0  0  0  0  0  0  0  0  0  0
   -2.9623   -0.5646   -0.3168 H   0  0  0  0  0  0  0  0  0  0  0  0
   -1.4698    0.5962   -2.0822 H   0  0  0  0  0  0  0  0  0  0  0  0
    0.0082    1.8796    0.0597 H   0  0  0  0  0  0  0  0  0  0  0  0
    1.2169    0.0418   -1.6788 H   0  0  0  0  0  0  0  0  0  0  0  0
    2.7733    1.2235    0.2463 H   0  0  0  0  0  0  0  0  0  0  0  0
    3.0691   -0.5811    0.0665 H   0  0  0  0  0  0  0  0  0  0  0  0
   -0.3256   -0.0594    2.0338 H   0  0  0  0  0  0  0  0  0  0  0  0
    0.3902   -1.9486    0.1045 H   0  0  0  0  0  0  0  0  0  0  0  0
  1  2  1  0
  2  3  1  0
  2  4  1  0
  4  5  1  0
  5  6  1  0
  6  7  1  0
  7  8  1  0
  8  9  1  0
  9  2  1  0
  8  4  1  0
  9  5  1  0
  1 10  1  0
  1 11  1  0
  1 12  1  0
  3 13  1  0
  4 14  1  0
  5 15  1  0
  6 16  1  0
  6 17  1  0
  8 18  1  0
  9 19  1  0
M  END
