
     RDKit          3D

 17 17  0  0  0  0  0  0  0  0999 V2000
   -0.8713   -0.7411   -1.2592 C   0  0  0  0  0  0  0  0  0  0  0  0
   -0.3041    0.0454   -0.1052 C   0  0  0  0  0  0  0  0  0  0  0  0
   -1.4424    0.6273    0.6921 C   0  0  0  0  0  0  0  0  0  0  0  0
    0.4636   -0.9119    0.7428 C   0  0  0  0  0  0  0  0  0  0  0  0
    1.7264   -0.5531    0.8379 C   0  0  0  0  0  0  0  0  0  0  0  0
    1.9378    0.6706    0.0714 C   0  0  0  0  0  0  0  0  0  0  0  0
    3.0436    1.2624   -0.0319 O   0  0  0  0  0  0  0  0  0  0  0  0
    0.6736    1.0705   -0.5341 C   0  0  0  0  0  0  0  0  0  0  0  0
    0.5324    2.0857   -1.2544 O   0  0  0  0  0  0  0  0  0  0  0  0
   -0.1410   -1.5178   -1.5689 H   0  0  0  0  0  0  0  0  0  0  0  0
   -1.7490   -1.3136   -0.8495 H   0  0  0  0  0  0  0  0  0  0  0  0
   -1.2229   -0.1093   -2.0927 H   0  0  0  0  0  0  0  0  0  0  0  0
   -1.8830   -0.2123    1.2789 H   0  0  0  0  0  0  0  0  0  0  0  0
   -2.2058    1.0811    0.0374 H   0  0  0  0  0  0  0  0  0  0  0  0
   -1.1036    1.3746    1.4229 H   0  0  0  0  0  0  0  0  0  0  0  0
    0.0531   -1.7826    1.2189 H   0  0  0  0  0  0  0  0  0  0  0  0
    2.4927   -1.0760    1.3936 H   0  0  0  0  0  0  0  0  0  0  0  0
  1  2  1  0
  2  3  1  0
  2  4  1  0
  4  5  2  0
  5  6  1  0
  6  7  2  0
  6  8  1  0
  8  9  2  0
  8  2  1  0
  1 10  1  0
  1 11  1  0
  1 12  1  0
  3 13  1  0
  3 14  1  0
  3 15  1  0
  4 16  1  0
  5 17  1  0
M  END
