
     RDKit          3D

 25 25  0  0  0  0  0  0  0  0999 V2000
    0.2213    1.7328   -0.6078 C   0  0  0  0  0  0  0  0  0  0  0  0
    0.0764    0.6795    0.4657 C   0  0  0  0  0  0  0  0  0  0  0  0
   -0.2197    1.2606    1.8291 C   0  0  0  0  0  0  0  0  0  0  0  0
    0.8169   -0.5841    0.4319 C   0  0  0  0  0  0  0  0  0  0  0  0
    1.9352   -0.8319   -0.5405 C   0  0  0  0  0  0  0  0  0  0  0  0
    1.5639   -0.7498   -1.8625 O   0  0  0  0  0  0  0  0  0  0  0  0
   -0.6010   -0.5724    0.0215 C   0  0  0  0  0  0  0  0  0  0  0  0
   -1.0225   -0.7243   -1.4055 C   0  0  0  0  0  0  0  0  0  0  0  0
   -1.6484   -1.0868    1.0090 C   0  0  0  0  0  0  0  0  0  0  0  0
    0.8506    1.4335   -1.4493 H   0  0  0  0  0  0  0  0  0  0  0  0
   -0.8169    1.8939   -1.0237 H   0  0  0  0  0  0  0  0  0  0  0  0
    0.4994    2.7079   -0.1640 H   0  0  0  0  0  0  0  0  0  0  0  0
    0.1534    0.6050    2.6560 H   0  0  0  0  0  0  0  0  0  0  0  0
   -1.2842    1.4256    2.0178 H   0  0  0  0  0  0  0  0  0  0  0  0
    0.2980    2.2226    1.9296 H   0  0  0  0  0  0  0  0  0  0  0  0
    1.0089   -1.0885    1.4193 H   0  0  0  0  0  0  0  0  0  0  0  0
    2.6828   -0.0000   -0.3727 H   0  0  0  0  0  0  0  0  0  0  0  0
    2.4919   -1.7592   -0.2955 H   0  0  0  0  0  0  0  0  0  0  0  0
    2.3356   -0.6105   -2.4383 H   0  0  0  0  0  0  0  0  0  0  0  0
   -2.1299   -0.6234   -1.4752 H   0  0  0  0  0  0  0  0  0  0  0  0
   -0.7811   -1.7121   -1.8399 H   0  0  0  0  0  0  0  0  0  0  0  0
   -0.6044    0.1121   -1.9925 H   0  0  0  0  0  0  0  0  0  0  0  0
   -2.5137   -0.3752    1.0586 H   0  0  0  0  0  0  0  0  0  0  0  0
   -2.0960   -2.0449    0.6375 H   0  0  0  0  0  0  0  0  0  0  0  0
   -1.2167   -1.3105    1.9912 H   0  0  0  0  0  0  0  0  0  0  0  0
  1  2  1  0
  2  3  1  0
  2  4  1  0
  4  5  1  0
  5  6  1  0
  4  7  1  0
  7  8  1  0
  7  9  1  0
  7  2  1  0
  1 10  1  0
  1 11  1  0
  1 12  1  0
  3 13  1  0
  3 14  1  0
  3 15  1  0
  4 16  1  0
  5 17  1  0
  5 18  1  0
  6 19  1  0
  8 20  1  0
  8 21  1  0
  8 22  1  0
  9 23  1  0
  9 24  1  0
  9 25  1  0
M  END
