
     RDKit          3D

 19 21  0  0  0  0  0  0  0  0999 V2000
   -0.7835    1.7701    0.1897 C   0  0  0  0  0  0  0  0  0  0  0  0
   -0.4322    0.2751    0.1736 C   0  0  0  0  0  0  0  0  0  0  0  0
   -1.7204   -0.5642    0.2022 C   0  0  0  0  0  0  0  0  0  0  0  0
   -2.5123   -0.2837   -0.8981 O   0  0  0  0  0  0  0  0  0  0  0  0
    0.7410   -0.0593    0.9724 C   0  0  0  0  0  0  0  0  0  0  0  0
    2.1909   -0.1404    0.4616 C   0  0  0  0  0  0  0  0  0  0  0  0
    2.7420   -1.3370    0.5149 O   0  0  0  0  0  0  0  0  0  0  0  0
    1.6333   -1.3391   -0.3278 C   0  0  0  0  0  0  0  0  0  0  0  0
    0.6455   -0.2651   -0.5885 C   0  0  0  0  0  0  0  0  0  0  0  0
   -1.7742    1.9710   -0.2034 H   0  0  0  0  0  0  0  0  0  0  0  0
   -0.0226    2.2409   -0.4980 H   0  0  0  0  0  0  0  0  0  0  0  0
   -0.6683    2.1544    1.2039 H   0  0  0  0  0  0  0  0  0  0  0  0
   -1.4660   -1.6464    0.2225 H   0  0  0  0  0  0  0  0  0  0  0  0
   -2.2953   -0.3641    1.1290 H   0  0  0  0  0  0  0  0  0  0  0  0
   -2.5646   -1.0963   -1.4893 H   0  0  0  0  0  0  0  0  0  0  0  0
    0.5004   -0.9294    1.6180 H   0  0  0  0  0  0  0  0  0  0  0  0
    2.5253    0.6926   -0.1995 H   0  0  0  0  0  0  0  0  0  0  0  0
    2.0980   -1.6557   -1.3140 H   0  0  0  0  0  0  0  0  0  0  0  0
    1.1630    0.5766   -1.1690 H   0  0  0  0  0  0  0  0  0  0  0  0
  1  2  1  0
  2  3  1  0
  3  4  1  0
  2  5  1  0
  5  6  1  0
  6  7  1  0
  7  8  1  0
  8  9  1  0
  9  2  1  0
  9  5  1  0
  8  6  1  0
  1 10  1  0
  1 11  1  0
  1 12  1  0
  3 13  1  0
  3 14  1  0
  4 15  1  0
  5 16  1  0
  6 17  1  0
  8 18  1  0
  9 19  1  0
M  END
