
     RDKit          3D

 20 20  0  0  0  0  0  0  0  0999 V2000
    2.0243   -0.1736   -0.3062 C   0  0  0  0  0  0  0  0  0  0  0  0
    0.7246    0.0805    0.3770 C   0  0  0  0  0  0  0  0  0  0  0  0
    0.9764    0.5441    1.6862 O   0  0  0  0  0  0  0  0  0  0  0  0
   -0.0752   -1.1943    0.3848 C   0  0  0  0  0  0  0  0  0  0  0  0
   -1.4179   -0.8718   -0.2446 C   0  0  0  0  0  0  0  0  0  0  0  0
   -1.5423    0.6135    0.0928 C   0  0  0  0  0  0  0  0  0  0  0  0
   -0.1413    1.0980   -0.2889 C   0  0  0  0  0  0  0  0  0  0  0  0
   -0.0494    1.0997   -1.6685 O   0  0  0  0  0  0  0  0  0  0  0  0
    2.0107   -1.1484   -0.8508 H   0  0  0  0  0  0  0  0  0  0  0  0
    2.8281   -0.2952    0.4699 H   0  0  0  0  0  0  0  0  0  0  0  0
    2.3521    0.6168   -0.9938 H   0  0  0  0  0  0  0  0  0  0  0  0
    0.6115   -0.0941    2.3392 H   0  0  0  0  0  0  0  0  0  0  0  0
    0.4337   -2.0185   -0.1678 H   0  0  0  0  0  0  0  0  0  0  0  0
   -0.2791   -1.4496    1.4431 H   0  0  0  0  0  0  0  0  0  0  0  0
   -2.2192   -1.4230    0.2714 H   0  0  0  0  0  0  0  0  0  0  0  0
   -1.4263   -1.0328   -1.3354 H   0  0  0  0  0  0  0  0  0  0  0  0
   -2.3264    1.1107   -0.4911 H   0  0  0  0  0  0  0  0  0  0  0  0
   -1.7153    0.6690    1.1785 H   0  0  0  0  0  0  0  0  0  0  0  0
   -0.0381    2.1170    0.1002 H   0  0  0  0  0  0  0  0  0  0  0  0
   -0.7308    1.7520   -1.9960 H   0  0  0  0  0  0  0  0  0  0  0  0
  1  2  1  0
  2  3  1  0
  2  4  1  0
  4  5  1  0
  5  6  1  0
  6  7  1  0
  7  8  1  0
  7  2  1  0
  1  9  1  0
  1 10  1  0
  1 11  1  0
  3 12  1  0
  4 13  1  0
  4 14  1  0
  5 15  1  0
  5 16  1  0
  6 17  1  0
  6 18  1  0
  7 19  1  0
  8 20  1  0
M  END
