
     RDKit          3D

 17 18  0  0  0  0  0  0  0  0999 V2000
   -1.4114   -1.0367    0.2068 C   0  0  0  0  0  0  0  0  0  0  0  0
   -0.7496    0.3375    0.2520 C   0  0  0  0  0  0  0  0  0  0  0  0
   -0.9083    1.0302    1.4253 O   0  0  0  0  0  0  0  0  0  0  0  0
   -1.1527    1.1219   -0.9385 C   0  0  0  0  0  0  0  0  0  0  0  0
   -2.2324    1.6669   -1.3451 O   0  0  0  0  0  0  0  0  0  0  0  0
    0.1094    1.0789   -1.5250 O   0  0  0  0  0  0  0  0  0  0  0  0
    0.5689    0.3854   -0.4191 C   0  0  0  0  0  0  0  0  0  0  0  0
    1.4855   -0.7504   -0.4597 C   0  0  0  0  0  0  0  0  0  0  0  0
    1.8511    0.5493    0.2237 C   0  0  0  0  0  0  0  0  0  0  0  0
   -1.2038   -1.4514   -0.7951 H   0  0  0  0  0  0  0  0  0  0  0  0
   -1.0366   -1.7003    1.0161 H   0  0  0  0  0  0  0  0  0  0  0  0
   -2.5050   -0.8842    0.2830 H   0  0  0  0  0  0  0  0  0  0  0  0
   -0.5605    0.5055    2.1727 H   0  0  0  0  0  0  0  0  0  0  0  0
    1.9999   -1.0634   -1.3740 H   0  0  0  0  0  0  0  0  0  0  0  0
    1.2523   -1.5875    0.2583 H   0  0  0  0  0  0  0  0  0  0  0  0
    1.8860    0.6017    1.3249 H   0  0  0  0  0  0  0  0  0  0  0  0
    2.6071    1.1966   -0.3062 H   0  0  0  0  0  0  0  0  0  0  0  0
  1  2  1  0
  2  3  1  0
  2  4  1  0
  4  5  2  0
  4  6  1  0
  6  7  1  0
  7  8  1  0
  8  9  1  0
  7  2  1  0
  9  7  1  0
  1 10  1  0
  1 11  1  0
  1 12  1  0
  3 13  1  0
  8 14  1  0
  8 15  1  0
  9 16  1  0
  9 17  1  0
M  END
