
     RDKit          3D

 23 23  0  0  0  0  0  0  0  0999 V2000
    1.6916    0.0603    1.1202 C   0  0  0  0  0  0  0  0  0  0  0  0
    0.7210    0.0354   -0.0185 C   0  0  0  0  0  0  0  0  0  0  0  0
    1.1340   -0.9516   -1.0474 C   0  0  0  0  0  0  0  0  0  0  0  0
    0.7284    1.4110   -0.6380 C   0  0  0  0  0  0  0  0  0  0  0  0
   -0.4801    1.7734   -1.0158 C   0  0  0  0  0  0  0  0  0  0  0  0
   -1.4187    0.6824   -0.6911 C   0  0  0  0  0  0  0  0  0  0  0  0
   -0.7141   -0.0577    0.4034 C   0  0  0  0  0  0  0  0  0  0  0  0
   -1.2044   -1.4581    0.5944 C   0  0  0  0  0  0  0  0  0  0  0  0
   -0.8811    0.6456    1.5963 O   0  0  0  0  0  0  0  0  0  0  0  0
    1.4700    0.9907    1.7146 H   0  0  0  0  0  0  0  0  0  0  0  0
    1.5431   -0.8497    1.7552 H   0  0  0  0  0  0  0  0  0  0  0  0
    2.7080    0.0924    0.7237 H   0  0  0  0  0  0  0  0  0  0  0  0
    1.1395   -1.9833   -0.7035 H   0  0  0  0  0  0  0  0  0  0  0  0
    0.5168   -0.8464   -1.9858 H   0  0  0  0  0  0  0  0  0  0  0  0
    2.1696   -0.6989   -1.3668 H   0  0  0  0  0  0  0  0  0  0  0  0
    1.5998    2.0597   -0.7762 H   0  0  0  0  0  0  0  0  0  0  0  0
   -0.8018    2.7120   -1.4957 H   0  0  0  0  0  0  0  0  0  0  0  0
   -2.4087    1.0600   -0.3553 H   0  0  0  0  0  0  0  0  0  0  0  0
   -1.5067    0.0334   -1.5886 H   0  0  0  0  0  0  0  0  0  0  0  0
   -0.9898   -1.7674    1.6310 H   0  0  0  0  0  0  0  0  0  0  0  0
   -0.8491   -2.1601   -0.1731 H   0  0  0  0  0  0  0  0  0  0  0  0
   -2.3204   -1.4286    0.5075 H   0  0  0  0  0  0  0  0  0  0  0  0
   -1.8467    0.6457    1.8096 H   0  0  0  0  0  0  0  0  0  0  0  0
  1  2  1  0
  2  3  1  0
  2  4  1  0
  4  5  2  0
  5  6  1  0
  6  7  1  0
  7  8  1  0
  7  9  1  0
  7  2  1  0
  1 10  1  0
  1 11  1  0
  1 12  1  0
  3 13  1  0
  3 14  1  0
  3 15  1  0
  4 16  1  0
  5 17  1  0
  6 18  1  0
  6 19  1  0
  8 20  1  0
  8 21  1  0
  8 22  1  0
  9 23  1  0
M  END
