
     RDKit          3D

 17 17  0  0  0  0  0  0  0  0999 V2000
   -0.5463    1.3616    0.5112 C   0  0  0  0  0  0  0  0  0  0  0  0
   -0.4154   -0.0113   -0.0681 C   0  0  0  0  0  0  0  0  0  0  0  0
   -1.3104   -0.2266   -1.2016 C   0  0  0  0  0  0  0  0  0  0  0  0
   -2.4475   -0.5971   -0.9733 O   0  0  0  0  0  0  0  0  0  0  0  0
   -0.5383   -1.1465    0.9336 C   0  0  0  0  0  0  0  0  0  0  0  0
    0.8214   -0.9078    1.2258 O   0  0  0  0  0  0  0  0  0  0  0  0
    0.9623   -0.5870   -0.1444 C   0  0  0  0  0  0  0  0  0  0  0  0
    2.0691    0.3190   -0.4125 C   0  0  0  0  0  0  0  0  0  0  0  0
    2.7691    0.7281    0.4838 O   0  0  0  0  0  0  0  0  0  0  0  0
   -1.6236    1.5441    0.7055 H   0  0  0  0  0  0  0  0  0  0  0  0
   -0.2292    2.0848   -0.2804 H   0  0  0  0  0  0  0  0  0  0  0  0
    0.0474    1.4813    1.4365 H   0  0  0  0  0  0  0  0  0  0  0  0
   -0.9732   -0.0619   -2.2151 H   0  0  0  0  0  0  0  0  0  0  0  0
   -1.2303   -0.9904    1.7575 H   0  0  0  0  0  0  0  0  0  0  0  0
   -0.6016   -2.1130    0.3883 H   0  0  0  0  0  0  0  0  0  0  0  0
    0.9664   -1.5155   -0.7310 H   0  0  0  0  0  0  0  0  0  0  0  0
    2.2802    0.6383   -1.4158 H   0  0  0  0  0  0  0  0  0  0  0  0
  1  2  1  0
  2  3  1  0
  3  4  2  0
  2  5  1  0
  5  6  1  0
  6  7  1  0
  7  8  1  0
  8  9  2  0
  7  2  1  0
  1 10  1  0
  1 11  1  0
  1 12  1  0
  3 13  1  0
  5 14  1  0
  5 15  1  0
  7 16  1  0
  8 17  1  0
M  END
