
     RDKit          3D

 21 22  0  0  0  0  0  0  0  0999 V2000
   -2.4195    0.1295   -0.5256 C   0  0  0  0  0  0  0  0  0  0  0  0
   -1.2580   -0.4823    0.2537 C   0  0  0  0  0  0  0  0  0  0  0  0
   -1.7267   -1.4405    1.1645 O   0  0  0  0  0  0  0  0  0  0  0  0
   -0.0499   -0.7417   -0.4293 C   0  0  0  0  0  0  0  0  0  0  0  0
    1.2400   -1.3477   -0.0453 C   0  0  0  0  0  0  0  0  0  0  0  0
    2.2480   -0.2211   -0.1802 C   0  0  0  0  0  0  0  0  0  0  0  0
    1.8976    1.0590   -0.1504 C   0  0  0  0  0  0  0  0  0  0  0  0
    0.4708    1.5240    0.0198 C   0  0  0  0  0  0  0  0  0  0  0  0
   -0.2115    0.3818    0.6582 C   0  0  0  0  0  0  0  0  0  0  0  0
   -2.1022    0.2647   -1.6005 H   0  0  0  0  0  0  0  0  0  0  0  0
   -2.6353    1.1525   -0.1146 H   0  0  0  0  0  0  0  0  0  0  0  0
   -3.3025   -0.5117   -0.5454 H   0  0  0  0  0  0  0  0  0  0  0  0
   -1.6569   -1.1080    2.0926 H   0  0  0  0  0  0  0  0  0  0  0  0
   -0.0005   -0.3899   -1.5036 H   0  0  0  0  0  0  0  0  0  0  0  0
    1.5343   -2.1173   -0.7949 H   0  0  0  0  0  0  0  0  0  0  0  0
    1.2830   -1.7954    0.9540 H   0  0  0  0  0  0  0  0  0  0  0  0
    3.2903   -0.5064   -0.3050 H   0  0  0  0  0  0  0  0  0  0  0  0
    2.6308    1.8495   -0.2484 H   0  0  0  0  0  0  0  0  0  0  0  0
    0.0979    1.7002   -1.0171 H   0  0  0  0  0  0  0  0  0  0  0  0
    0.4257    2.4273    0.6543 H   0  0  0  0  0  0  0  0  0  0  0  0
    0.2446    0.1736    1.6632 H   0  0  0  0  0  0  0  0  0  0  0  0
  1  2  1  0
  2  3  1  0
  2  4  1  0
  4  5  1  0
  5  6  1  0
  6  7  2  0
  7  8  1  0
  8  9  1  0
  9  2  1  0
  9  4  1  0
  1 10  1  0
  1 11  1  0
  1 12  1  0
  3 13  1  0
  4 14  1  0
  5 15  1  0
  5 16  1  0
  6 17  1  0
  7 18  1  0
  8 19  1  0
  8 20  1  0
  9 21  1  0
M  END
