
     RDKit          3D

 19 21  0  0  0  0  0  0  0  0999 V2000
    2.0198   -0.2096    0.2343 C   0  0  0  0  0  0  0  0  0  0  0  0
    0.6924    0.2164   -0.3522 C   0  0  0  0  0  0  0  0  0  0  0  0
    0.9958    0.9676   -1.5039 O   0  0  0  0  0  0  0  0  0  0  0  0
   -0.1104    1.0729    0.5982 C   0  0  0  0  0  0  0  0  0  0  0  0
   -1.4884    0.4108    0.6855 C   0  0  0  0  0  0  0  0  0  0  0  0
   -2.0239   -0.2444   -0.5173 C   0  0  0  0  0  0  0  0  0  0  0  0
   -1.1954   -0.5405   -1.5700 O   0  0  0  0  0  0  0  0  0  0  0  0
   -0.1839   -0.9751   -0.6853 C   0  0  0  0  0  0  0  0  0  0  0  0
   -1.1766   -0.9927    0.4068 C   0  0  0  0  0  0  0  0  0  0  0  0
    2.3677    0.4686    1.0245 H   0  0  0  0  0  0  0  0  0  0  0  0
    2.8369   -0.2063   -0.5454 H   0  0  0  0  0  0  0  0  0  0  0  0
    1.9148   -1.2607    0.5405 H   0  0  0  0  0  0  0  0  0  0  0  0
    1.5178    1.7498   -1.1619 H   0  0  0  0  0  0  0  0  0  0  0  0
    0.3450    0.9025    1.6177 H   0  0  0  0  0  0  0  0  0  0  0  0
   -0.1630    2.1220    0.3197 H   0  0  0  0  0  0  0  0  0  0  0  0
   -2.1340    0.6882    1.5114 H   0  0  0  0  0  0  0  0  0  0  0  0
   -3.0895   -0.4345   -0.6327 H   0  0  0  0  0  0  0  0  0  0  0  0
    0.3238   -1.8917   -0.9656 H   0  0  0  0  0  0  0  0  0  0  0  0
   -1.4487   -1.8431    0.9958 H   0  0  0  0  0  0  0  0  0  0  0  0
  1  2  1  0
  2  3  1  0
  2  4  1  0
  4  5  1  0
  5  6  1  0
  6  7  1  0
  7  8  1  0
  8  9  1  0
  8  2  1  0
  9  5  1  0
  9  6  1  0
  1 10  1  0
  1 11  1  0
  1 12  1  0
  3 13  1  0
  4 14  1  0
  4 15  1  0
  5 16  1  0
  6 17  1  0
  8 18  1  0
  9 19  1  0
M  END
