
     RDKit          3D

 21 21  0  0  0  0  0  0  0  0999 V2000
   -0.0056    1.1808   -1.3323 C   0  0  0  0  0  0  0  0  0  0  0  0
   -0.0655    0.1560   -0.2465 C   0  0  0  0  0  0  0  0  0  0  0  0
    1.3104   -0.3254    0.1672 C   0  0  0  0  0  0  0  0  0  0  0  0
    2.1458    0.7955    0.6727 C   0  0  0  0  0  0  0  0  0  0  0  0
    3.2875    0.6343    1.0586 O   0  0  0  0  0  0  0  0  0  0  0  0
   -0.8936   -1.0293   -0.7031 C   0  0  0  0  0  0  0  0  0  0  0  0
   -1.3520   -1.5624    0.6480 C   0  0  0  0  0  0  0  0  0  0  0  0
   -1.5367   -0.4772    1.4515 O   0  0  0  0  0  0  0  0  0  0  0  0
   -0.8757    0.6049    0.9527 C   0  0  0  0  0  0  0  0  0  0  0  0
    0.0870    2.2200   -0.9480 H   0  0  0  0  0  0  0  0  0  0  0  0
    0.8735    1.0010   -1.9761 H   0  0  0  0  0  0  0  0  0  0  0  0
   -0.9292    1.1208   -1.9704 H   0  0  0  0  0  0  0  0  0  0  0  0
    1.8020   -0.7055   -0.7620 H   0  0  0  0  0  0  0  0  0  0  0  0
    1.2739   -1.1456    0.8897 H   0  0  0  0  0  0  0  0  0  0  0  0
    1.7399    1.7985    0.7058 H   0  0  0  0  0  0  0  0  0  0  0  0
   -0.3404   -1.7485   -1.2911 H   0  0  0  0  0  0  0  0  0  0  0  0
   -1.7995   -0.6224   -1.1930 H   0  0  0  0  0  0  0  0  0  0  0  0
   -0.5329   -2.1873    1.1095 H   0  0  0  0  0  0  0  0  0  0  0  0
   -2.2566   -2.2020    0.5433 H   0  0  0  0  0  0  0  0  0  0  0  0
   -0.2794    1.1779    1.6795 H   0  0  0  0  0  0  0  0  0  0  0  0
   -1.6529    1.3158    0.5438 H   0  0  0  0  0  0  0  0  0  0  0  0
  1  2  1  0
  2  3  1  0
  3  4  1  0
  4  5  2  0
  2  6  1  0
  6  7  1  0
  7  8  1  0
  8  9  1  0
  9  2  1  0
  1 10  1  0
  1 11  1  0
  1 12  1  0
  3 13  1  0
  3 14  1  0
  4 15  1  0
  6 16  1  0
  6 17  1  0
  7 18  1  0
  7 19  1  0
  9 20  1  0
  9 21  1  0
M  END
