
     RDKit          3D

 21 22  0  0  0  0  0  0  0  0999 V2000
    0.7709    0.1626    1.4247 C   0  0  0  0  0  0  0  0  0  0  0  0
    0.6802    0.0523   -0.0448 C   0  0  0  0  0  0  0  0  0  0  0  0
    2.0180    0.0406   -0.7206 C   0  0  0  0  0  0  0  0  0  0  0  0
   -0.2153   -1.0466   -0.5592 C   0  0  0  0  0  0  0  0  0  0  0  0
   -1.4760   -1.1637    0.2392 C   0  0  0  0  0  0  0  0  0  0  0  0
   -2.3696   -0.1330   -0.0926 O   0  0  0  0  0  0  0  0  0  0  0  0
   -1.6232    1.0556   -0.0765 C   0  0  0  0  0  0  0  0  0  0  0  0
   -0.3085    0.8701   -0.7760 C   0  0  0  0  0  0  0  0  0  0  0  0
   -0.4800   -0.2132   -1.6702 O   0  0  0  0  0  0  0  0  0  0  0  0
    1.1492   -0.8129    1.8483 H   0  0  0  0  0  0  0  0  0  0  0  0
    1.5609    0.9041    1.6879 H   0  0  0  0  0  0  0  0  0  0  0  0
   -0.1629    0.3743    1.9515 H   0  0  0  0  0  0  0  0  0  0  0  0
    1.9453   -0.3702   -1.7598 H   0  0  0  0  0  0  0  0  0  0  0  0
    2.4380    1.0725   -0.8319 H   0  0  0  0  0  0  0  0  0  0  0  0
    2.7344   -0.5647   -0.1197 H   0  0  0  0  0  0  0  0  0  0  0  0
    0.3206   -1.9654   -0.8033 H   0  0  0  0  0  0  0  0  0  0  0  0
   -1.9499   -2.1357   -0.0299 H   0  0  0  0  0  0  0  0  0  0  0  0
   -1.3044   -1.1996    1.3333 H   0  0  0  0  0  0  0  0  0  0  0  0
   -1.5445    1.4775    0.9330 H   0  0  0  0  0  0  0  0  0  0  0  0
   -2.2098    1.7915   -0.6793 H   0  0  0  0  0  0  0  0  0  0  0  0
    0.0265    1.8038   -1.2543 H   0  0  0  0  0  0  0  0  0  0  0  0
  1  2  1  0
  2  3  1  0
  2  4  1  0
  4  5  1  0
  5  6  1  0
  6  7  1  0
  7  8  1  0
  8  9  1  0
  8  2  1  0
  9  4  1  0
  1 10  1  0
  1 11  1  0
  1 12  1  0
  3 13  1  0
  3 14  1  0
  3 15  1  0
  4 16  1  0
  5 17  1  0
  5 18  1  0
  7 19  1  0
  7 20  1  0
  8 21  1  0
M  END
