
     RDKit          3D

 19 20  0  0  0  0  0  0  0  0999 V2000
   -1.7500   -0.8510   -0.1463 C   0  0  0  0  0  0  0  0  0  0  0  0
   -0.9068    0.3569    0.1651 C   0  0  0  0  0  0  0  0  0  0  0  0
   -1.7507    1.2753    0.7940 O   0  0  0  0  0  0  0  0  0  0  0  0
    0.2108   -0.0535    1.0757 C   0  0  0  0  0  0  0  0  0  0  0  0
    1.2874   -0.5967    0.1388 C   0  0  0  0  0  0  0  0  0  0  0  0
    2.5055   -0.3488    0.7498 O   0  0  0  0  0  0  0  0  0  0  0  0
    1.1598    0.2264   -1.0986 C   0  0  0  0  0  0  0  0  0  0  0  0
    0.1449    0.0234   -2.0045 O   0  0  0  0  0  0  0  0  0  0  0  0
   -0.1958    0.9199   -1.0197 C   0  0  0  0  0  0  0  0  0  0  0  0
   -1.2664   -1.5981   -0.7661 H   0  0  0  0  0  0  0  0  0  0  0  0
   -2.7192   -0.5311   -0.6142 H   0  0  0  0  0  0  0  0  0  0  0  0
   -2.0582   -1.2888    0.8450 H   0  0  0  0  0  0  0  0  0  0  0  0
   -1.4809    2.2000    0.6900 H   0  0  0  0  0  0  0  0  0  0  0  0
   -0.0682   -0.7633    1.8563 H   0  0  0  0  0  0  0  0  0  0  0  0
    0.5900    0.8732    1.5756 H   0  0  0  0  0  0  0  0  0  0  0  0
    1.1526   -1.6802   -0.0344 H   0  0  0  0  0  0  0  0  0  0  0  0
    3.2296   -0.9500    0.4640 H   0  0  0  0  0  0  0  0  0  0  0  0
    2.0249    0.7752   -1.4937 H   0  0  0  0  0  0  0  0  0  0  0  0
   -0.1093    2.0113   -1.1769 H   0  0  0  0  0  0  0  0  0  0  0  0
  1  2  1  0
  2  3  1  0
  2  4  1  0
  4  5  1  0
  5  6  1  0
  5  7  1  0
  7  8  1  0
  8  9  1  0
  9  2  1  0
  9  7  1  0
  1 10  1  0
  1 11  1  0
  1 12  1  0
  3 13  1  0
  4 14  1  0
  4 15  1  0
  5 16  1  0
  6 17  1  0
  7 18  1  0
  9 19  1  0
M  END
