
     RDKit          3D

 19 20  0  0  0  0  0  0  0  0999 V2000
   -1.9593    0.4568   -0.2540 C   0  0  0  0  0  0  0  0  0  0  0  0
   -0.8852   -0.3475    0.4050 C   0  0  0  0  0  0  0  0  0  0  0  0
   -1.2520   -0.9227    1.6155 O   0  0  0  0  0  0  0  0  0  0  0  0
    0.0864   -1.0181   -0.4936 C   0  0  0  0  0  0  0  0  0  0  0  0
    1.1422   -1.8447    0.2068 C   0  0  0  0  0  0  0  0  0  0  0  0
    1.5100   -0.6645    0.8929 O   0  0  0  0  0  0  0  0  0  0  0  0
    0.5321    0.1195    0.3415 C   0  0  0  0  0  0  0  0  0  0  0  0
    0.8265    1.4638   -0.2366 C   0  0  0  0  0  0  0  0  0  0  0  0
    1.7147    1.4719   -1.2718 O   0  0  0  0  0  0  0  0  0  0  0  0
   -1.8068    0.4957   -1.3728 H   0  0  0  0  0  0  0  0  0  0  0  0
   -2.9213   -0.1252   -0.1421 H   0  0  0  0  0  0  0  0  0  0  0  0
   -2.0454    1.4579    0.1817 H   0  0  0  0  0  0  0  0  0  0  0  0
   -1.2968   -0.1665    2.2730 H   0  0  0  0  0  0  0  0  0  0  0  0
    0.0389   -0.9716   -1.5779 H   0  0  0  0  0  0  0  0  0  0  0  0
    1.9035   -2.2411   -0.4700 H   0  0  0  0  0  0  0  0  0  0  0  0
    0.6655   -2.5407    0.9120 H   0  0  0  0  0  0  0  0  0  0  0  0
   -0.1275    1.9190   -0.5684 H   0  0  0  0  0  0  0  0  0  0  0  0
    1.2232    2.1084    0.5887 H   0  0  0  0  0  0  0  0  0  0  0  0
    2.6515    1.3495   -1.0297 H   0  0  0  0  0  0  0  0  0  0  0  0
  1  2  1  0
  2  3  1  0
  2  4  1  0
  4  5  1  0
  5  6  1  0
  6  7  1  0
  7  8  1  0
  8  9  1  0
  7  2  1  0
  7  4  1  0
  1 10  1  0
  1 11  1  0
  1 12  1  0
  3 13  1  0
  4 14  1  0
  5 15  1  0
  5 16  1  0
  8 17  1  0
  8 18  1  0
  9 19  1  0
M  END
