
     RDKit          3D

 18 18  0  0  0  0  0  0  0  0999 V2000
   -0.5794    1.2559   -1.0127 C   0  0  0  0  0  0  0  0  0  0  0  0
   -0.3692    0.1583   -0.0335 C   0  0  0  0  0  0  0  0  0  0  0  0
   -1.5853   -0.6372    0.3642 C   0  0  0  0  0  0  0  0  0  0  0  0
    0.4559    0.4812    1.1860 C   0  0  0  0  0  0  0  0  0  0  0  0
    1.2044   -0.7821    0.9563 C   0  0  0  0  0  0  0  0  0  0  0  0
    1.8521   -1.5176    1.6728 O   0  0  0  0  0  0  0  0  0  0  0  0
    0.8104   -0.7194   -0.4650 C   0  0  0  0  0  0  0  0  0  0  0  0
    1.7383    0.0319   -1.1830 O   0  0  0  0  0  0  0  0  0  0  0  0
   -1.6749    1.4684   -1.1869 H   0  0  0  0  0  0  0  0  0  0  0  0
   -0.0787    2.2132   -0.7357 H   0  0  0  0  0  0  0  0  0  0  0  0
   -0.1860    1.0079   -2.0303 H   0  0  0  0  0  0  0  0  0  0  0  0
   -2.3052   -0.7407   -0.4541 H   0  0  0  0  0  0  0  0  0  0  0  0
   -2.0456   -0.1874    1.2847 H   0  0  0  0  0  0  0  0  0  0  0  0
   -1.1985   -1.6390    0.7130 H   0  0  0  0  0  0  0  0  0  0  0  0
    1.0713    1.3971    1.1189 H   0  0  0  0  0  0  0  0  0  0  0  0
   -0.0759    0.4246    2.1517 H   0  0  0  0  0  0  0  0  0  0  0  0
    0.4743   -1.6482   -0.9327 H   0  0  0  0  0  0  0  0  0  0  0  0
    2.4920   -0.5669   -1.4137 H   0  0  0  0  0  0  0  0  0  0  0  0
  1  2  1  0
  2  3  1  0
  2  4  1  0
  4  5  1  0
  5  6  2  0
  5  7  1  0
  7  8  1  0
  7  2  1  0
  1  9  1  0
  1 10  1  0
  1 11  1  0
  3 12  1  0
  3 13  1  0
  3 14  1  0
  4 15  1  0
  4 16  1  0
  7 17  1  0
  8 18  1  0
M  END
