
     RDKit          3D

 21 21  0  0  0  0  0  0  0  0999 V2000
   -1.0393   -1.3557   -0.7447 C   0  0  0  0  0  0  0  0  0  0  0  0
   -0.5900   -0.1434   -0.0301 C   0  0  0  0  0  0  0  0  0  0  0  0
    0.7532    0.4713   -0.2434 C   0  0  0  0  0  0  0  0  0  0  0  0
    1.9212   -0.4022    0.0518 C   0  0  0  0  0  0  0  0  0  0  0  0
    3.2018    0.3274   -0.1869 C   0  0  0  0  0  0  0  0  0  0  0  0
    3.7563    0.8187    0.8225 O   0  0  0  0  0  0  0  0  0  0  0  0
   -1.2724    0.2871    1.2813 C   0  0  0  0  0  0  0  0  0  0  0  0
   -1.7089    0.9395    0.0153 C   0  0  0  0  0  0  0  0  0  0  0  0
   -2.9847    0.5792   -0.3986 O   0  0  0  0  0  0  0  0  0  0  0  0
   -0.2805   -2.1473   -0.8480 H   0  0  0  0  0  0  0  0  0  0  0  0
   -1.4251   -1.1000   -1.7551 H   0  0  0  0  0  0  0  0  0  0  0  0
   -1.8564   -1.8321   -0.1308 H   0  0  0  0  0  0  0  0  0  0  0  0
    0.8664    1.3979    0.3544 H   0  0  0  0  0  0  0  0  0  0  0  0
    0.8086    0.8024   -1.3170 H   0  0  0  0  0  0  0  0  0  0  0  0
    1.8764   -1.2744   -0.6602 H   0  0  0  0  0  0  0  0  0  0  0  0
    1.9708   -0.8329    1.0480 H   0  0  0  0  0  0  0  0  0  0  0  0
    3.6888    0.4755   -1.1195 H   0  0  0  0  0  0  0  0  0  0  0  0
   -1.9234   -0.4438    1.7615 H   0  0  0  0  0  0  0  0  0  0  0  0
   -0.6780    0.9112    1.9925 H   0  0  0  0  0  0  0  0  0  0  0  0
   -1.4369    1.9748   -0.2279 H   0  0  0  0  0  0  0  0  0  0  0  0
   -3.6477    0.5469    0.3350 H   0  0  0  0  0  0  0  0  0  0  0  0
  1  2  1  0
  2  3  1  0
  3  4  1  0
  4  5  1  0
  5  6  2  0
  2  7  1  0
  7  8  1  0
  8  9  1  0
  8  2  1  0
  1 10  1  0
  1 11  1  0
  1 12  1  0
  3 13  1  0
  3 14  1  0
  4 15  1  0
  4 16  1  0
  5 17  1  0
  7 18  1  0
  7 19  1  0
  8 20  1  0
  9 21  1  0
M  END
