
     RDKit          3D

 17 18  0  0  0  0  0  0  0  0999 V2000
   -1.4256   -1.2442    0.0726 C   0  0  0  0  0  0  0  0  0  0  0  0
   -0.3842   -0.1667    0.1366 C   0  0  0  0  0  0  0  0  0  0  0  0
    1.0089   -0.6039   -0.2183 C   0  0  0  0  0  0  0  0  0  0  0  0
    2.1419    0.2885   -0.2141 C   0  0  0  0  0  0  0  0  0  0  0  0
    1.9674   -0.7429    0.7693 O   0  0  0  0  0  0  0  0  0  0  0  0
   -0.7985    1.0632   -0.6738 C   0  0  0  0  0  0  0  0  0  0  0  0
   -1.5909    1.3677    0.4849 O   0  0  0  0  0  0  0  0  0  0  0  0
   -0.5158    0.8224    1.2091 C   0  0  0  0  0  0  0  0  0  0  0  0
    0.0029    1.1530    2.3061 O   0  0  0  0  0  0  0  0  0  0  0  0
   -1.9667   -1.1415   -0.8912 H   0  0  0  0  0  0  0  0  0  0  0  0
   -2.1510   -1.1366    0.9268 H   0  0  0  0  0  0  0  0  0  0  0  0
   -0.9629   -2.2715    0.1032 H   0  0  0  0  0  0  0  0  0  0  0  0
    1.0005   -1.4171   -0.9975 H   0  0  0  0  0  0  0  0  0  0  0  0
    2.0047    1.3254    0.1513 H   0  0  0  0  0  0  0  0  0  0  0  0
    3.0259    0.0401   -0.8449 H   0  0  0  0  0  0  0  0  0  0  0  0
    0.0098    1.8156   -0.7427 H   0  0  0  0  0  0  0  0  0  0  0  0
   -1.3664    0.8485   -1.5774 H   0  0  0  0  0  0  0  0  0  0  0  0
  1  2  1  0
  2  3  1  0
  3  4  1  0
  4  5  1  0
  2  6  1  0
  6  7  1  0
  7  8  1  0
  8  9  2  0
  8  2  1  0
  5  3  1  0
  1 10  1  0
  1 11  1  0
  1 12  1  0
  3 13  1  0
  4 14  1  0
  4 15  1  0
  6 16  1  0
  6 17  1  0
M  END
