
     RDKit          3D

 18 18  0  0  0  0  0  0  0  0999 V2000
   -0.8865    0.5887    1.2638 C   0  0  0  0  0  0  0  0  0  0  0  0
   -0.3815   -0.0587    0.0113 C   0  0  0  0  0  0  0  0  0  0  0  0
   -1.5459   -0.6565   -0.7332 C   0  0  0  0  0  0  0  0  0  0  0  0
    0.7422   -1.0150    0.2328 C   0  0  0  0  0  0  0  0  0  0  0  0
    1.9876   -0.2472    0.0609 C   0  0  0  0  0  0  0  0  0  0  0  0
    1.7299    0.8811   -0.5297 C   0  0  0  0  0  0  0  0  0  0  0  0
    0.3091    0.9864   -0.8110 C   0  0  0  0  0  0  0  0  0  0  0  0
   -0.2878    1.7923   -1.5955 O   0  0  0  0  0  0  0  0  0  0  0  0
   -0.1229    1.3117    1.6726 H   0  0  0  0  0  0  0  0  0  0  0  0
   -1.2359   -0.1102    2.0283 H   0  0  0  0  0  0  0  0  0  0  0  0
   -1.7779    1.2057    0.9723 H   0  0  0  0  0  0  0  0  0  0  0  0
   -1.1278   -1.4394   -1.4271 H   0  0  0  0  0  0  0  0  0  0  0  0
   -2.2209   -1.1631   -0.0174 H   0  0  0  0  0  0  0  0  0  0  0  0
   -2.0659    0.0970   -1.3491 H   0  0  0  0  0  0  0  0  0  0  0  0
    0.7368   -1.7926   -0.5848 H   0  0  0  0  0  0  0  0  0  0  0  0
    0.7227   -1.4950    1.2321 H   0  0  0  0  0  0  0  0  0  0  0  0
    2.9812   -0.5694    0.3787 H   0  0  0  0  0  0  0  0  0  0  0  0
    2.4437    1.6844   -0.8049 H   0  0  0  0  0  0  0  0  0  0  0  0
  1  2  1  0
  2  3  1  0
  2  4  1  0
  4  5  1  0
  5  6  2  0
  6  7  1  0
  7  8  2  0
  7  2  1  0
  1  9  1  0
  1 10  1  0
  1 11  1  0
  3 12  1  0
  3 13  1  0
  3 14  1  0
  4 15  1  0
  4 16  1  0
  5 17  1  0
  6 18  1  0
M  END
