
     RDKit          3D

 21 23  0  0  0  0  0  0  0  0999 V2000
   -1.7257   -1.0668   -0.3723 C   0  0  0  0  0  0  0  0  0  0  0  0
   -1.1342    0.2880   -0.1400 C   0  0  0  0  0  0  0  0  0  0  0  0
   -2.1402    1.4239   -0.2518 C   0  0  0  0  0  0  0  0  0  0  0  0
   -0.0471    0.3779    0.8503 C   0  0  0  0  0  0  0  0  0  0  0  0
    0.9974   -0.6736    0.8592 C   0  0  0  0  0  0  0  0  0  0  0  0
    2.3911   -0.2730    0.5379 C   0  0  0  0  0  0  0  0  0  0  0  0
    3.3852   -1.2512    0.4360 O   0  0  0  0  0  0  0  0  0  0  0  0
    1.3577   -0.3424   -0.5406 C   0  0  0  0  0  0  0  0  0  0  0  0
    0.2341    0.6393   -0.5926 C   0  0  0  0  0  0  0  0  0  0  0  0
   -2.1763   -1.1653   -1.3930 H   0  0  0  0  0  0  0  0  0  0  0  0
   -2.5636   -1.1888    0.3709 H   0  0  0  0  0  0  0  0  0  0  0  0
   -0.9797   -1.8726   -0.2741 H   0  0  0  0  0  0  0  0  0  0  0  0
   -2.2558    1.7468   -1.3100 H   0  0  0  0  0  0  0  0  0  0  0  0
   -3.0928    1.1760    0.2342 H   0  0  0  0  0  0  0  0  0  0  0  0
   -1.7206    2.3137    0.2810 H   0  0  0  0  0  0  0  0  0  0  0  0
   -0.0357    1.1762    1.6016 H   0  0  0  0  0  0  0  0  0  0  0  0
    0.8194   -1.6960    1.2028 H   0  0  0  0  0  0  0  0  0  0  0  0
    2.7049    0.7192    0.9383 H   0  0  0  0  0  0  0  0  0  0  0  0
    4.1101   -0.8685   -0.1459 H   0  0  0  0  0  0  0  0  0  0  0  0
    1.4171   -1.1055   -1.3191 H   0  0  0  0  0  0  0  0  0  0  0  0
    0.4546    1.6428   -0.9729 H   0  0  0  0  0  0  0  0  0  0  0  0
  1  2  1  0
  2  3  1  0
  2  4  1  0
  4  5  1  0
  5  6  1  0
  6  7  1  0
  6  8  1  0
  8  9  1  0
  9  2  1  0
  9  4  1  0
  8  5  1  0
  1 10  1  0
  1 11  1  0
  1 12  1  0
  3 13  1  0
  3 14  1  0
  3 15  1  0
  4 16  1  0
  5 17  1  0
  6 18  1  0
  7 19  1  0
  8 20  1  0
  9 21  1  0
M  END
