
     RDKit          3D

 23 23  0  0  0  0  0  0  0  0999 V2000
   -2.2702   -0.6451    1.4240 C   0  0  0  0  0  0  0  0  0  0  0  0
   -1.4413   -0.1196    0.2432 C   0  0  0  0  0  0  0  0  0  0  0  0
   -0.1291    0.1179    0.5821 O   0  0  0  0  0  0  0  0  0  0  0  0
    0.6560    0.5881   -0.4346 C   0  0  0  0  0  0  0  0  0  0  0  0
    2.0550    0.7924    0.1076 C   0  0  0  0  0  0  0  0  0  0  0  0
    2.6365   -0.5088    0.6308 C   0  0  0  0  0  0  0  0  0  0  0  0
    3.9125   -0.2639    1.1127 O   0  0  0  0  0  0  0  0  0  0  0  0
   -2.2073    0.8132   -0.6353 C   0  0  0  0  0  0  0  0  0  0  0  0
   -1.8604   -0.6200   -1.0703 C   0  0  0  0  0  0  0  0  0  0  0  0
   -3.3303   -0.7845    1.0924 H   0  0  0  0  0  0  0  0  0  0  0  0
   -2.2454    0.1593    2.1871 H   0  0  0  0  0  0  0  0  0  0  0  0
   -1.8042   -1.5797    1.7298 H   0  0  0  0  0  0  0  0  0  0  0  0
    0.6304   -0.0706   -1.3006 H   0  0  0  0  0  0  0  0  0  0  0  0
    0.2648    1.5764   -0.7449 H   0  0  0  0  0  0  0  0  0  0  0  0
    2.0364    1.5029    0.9563 H   0  0  0  0  0  0  0  0  0  0  0  0
    2.7257    1.2051   -0.6724 H   0  0  0  0  0  0  0  0  0  0  0  0
    2.6859   -1.2915   -0.1379 H   0  0  0  0  0  0  0  0  0  0  0  0
    2.0388   -0.9133    1.4720 H   0  0  0  0  0  0  0  0  0  0  0  0
    4.6211   -0.5769    0.5205 H   0  0  0  0  0  0  0  0  0  0  0  0
   -1.7336    1.6489   -1.1458 H   0  0  0  0  0  0  0  0  0  0  0  0
   -3.3029    0.9926   -0.4411 H   0  0  0  0  0  0  0  0  0  0  0  0
   -2.7370   -1.3262   -1.1388 H   0  0  0  0  0  0  0  0  0  0  0  0
   -1.2014   -0.6965   -1.9444 H   0  0  0  0  0  0  0  0  0  0  0  0
  1  2  1  0
  2  3  1  0
  3  4  1  0
  4  5  1  0
  5  6  1  0
  6  7  1  0
  2  8  1  0
  8  9  1  0
  9  2  1  0
  1 10  1  0
  1 11  1  0
  1 12  1  0
  4 13  1  0
  4 14  1  0
  5 15  1  0
  5 16  1  0
  6 17  1  0
  6 18  1  0
  7 19  1  0
  8 20  1  0
  8 21  1  0
  9 22  1  0
  9 23  1  0
M  END
