
     RDKit          3D

 25 26  0  0  0  0  0  0  0  0999 V2000
    1.9823   -1.2061   -0.5581 C   0  0  0  0  0  0  0  0  0  0  0  0
    1.0844   -0.0678   -0.1006 C   0  0  0  0  0  0  0  0  0  0  0  0
    1.8879    1.2005   -0.2144 C   0  0  0  0  0  0  0  0  0  0  0  0
    0.6160   -0.2293    1.3104 C   0  0  0  0  0  0  0  0  0  0  0  0
   -0.9053   -0.2075    1.2798 C   0  0  0  0  0  0  0  0  0  0  0  0
   -1.5050    1.0919    0.9265 C   0  0  0  0  0  0  0  0  0  0  0  0
   -1.3411   -0.0121   -0.0915 C   0  0  0  0  0  0  0  0  0  0  0  0
   -2.6036   -0.5358   -0.6792 C   0  0  0  0  0  0  0  0  0  0  0  0
   -0.1297   -0.0264   -0.9767 C   0  0  0  0  0  0  0  0  0  0  0  0
    1.8128   -1.3609   -1.6559 H   0  0  0  0  0  0  0  0  0  0  0  0
    1.7182   -2.1092    0.0319 H   0  0  0  0  0  0  0  0  0  0  0  0
    3.0517   -0.9171   -0.4448 H   0  0  0  0  0  0  0  0  0  0  0  0
    2.9066    1.0023    0.1967 H   0  0  0  0  0  0  0  0  0  0  0  0
    1.9839    1.5807   -1.2371 H   0  0  0  0  0  0  0  0  0  0  0  0
    1.4676    2.0224    0.4123 H   0  0  0  0  0  0  0  0  0  0  0  0
    0.9984   -1.1917    1.6893 H   0  0  0  0  0  0  0  0  0  0  0  0
    1.0279    0.5621    1.9766 H   0  0  0  0  0  0  0  0  0  0  0  0
   -1.3946   -0.8706    2.0142 H   0  0  0  0  0  0  0  0  0  0  0  0
   -2.5309    1.2916    1.2920 H   0  0  0  0  0  0  0  0  0  0  0  0
   -0.9155    1.9917    0.6973 H   0  0  0  0  0  0  0  0  0  0  0  0
   -2.6098   -0.2299   -1.7659 H   0  0  0  0  0  0  0  0  0  0  0  0
   -3.5043   -0.0106   -0.2483 H   0  0  0  0  0  0  0  0  0  0  0  0
   -2.7642   -1.6127   -0.5676 H   0  0  0  0  0  0  0  0  0  0  0  0
   -0.1922   -0.9621   -1.5919 H   0  0  0  0  0  0  0  0  0  0  0  0
   -0.1416    0.8063   -1.6950 H   0  0  0  0  0  0  0  0  0  0  0  0
  1  2  1  0
  2  3  1  0
  2  4  1  0
  4  5  1  0
  5  6  1  0
  6  7  1  0
  7  8  1  0
  7  9  1  0
  9  2  1  0
  7  5  1  0
  1 10  1  0
  1 11  1  0
  1 12  1  0
  3 13  1  0
  3 14  1  0
  3 15  1  0
  4 16  1  0
  4 17  1  0
  5 18  1  0
  6 19  1  0
  6 20  1  0
  8 21  1  0
  8 22  1  0
  8 23  1  0
  9 24  1  0
  9 25  1  0
M  END
