
     RDKit          3D

 19 20  0  0  0  0  0  0  0  0999 V2000
   -2.0134   -1.1049   -0.4716 C   0  0  0  0  0  0  0  0  0  0  0  0
   -0.8866   -0.0680   -0.5912 C   0  0  0  0  0  0  0  0  0  0  0  0
    0.3684   -0.5035    0.0797 C   0  0  0  0  0  0  0  0  0  0  0  0
    0.0265   -1.2034    1.2403 O   0  0  0  0  0  0  0  0  0  0  0  0
    1.2988    0.6010    0.4355 C   0  0  0  0  0  0  0  0  0  0  0  0
    2.6187    0.6059   -0.3018 C   0  0  0  0  0  0  0  0  0  0  0  0
    2.5375    0.2545    1.0444 O   0  0  0  0  0  0  0  0  0  0  0  0
   -1.3466    1.3313   -0.6708 C   0  0  0  0  0  0  0  0  0  0  0  0
   -0.8294    0.6548   -1.7798 O   0  0  0  0  0  0  0  0  0  0  0  0
   -2.9079   -0.7530   -1.0234 H   0  0  0  0  0  0  0  0  0  0  0  0
   -2.3019   -1.1347    0.6021 H   0  0  0  0  0  0  0  0  0  0  0  0
   -1.6369   -2.0835   -0.8315 H   0  0  0  0  0  0  0  0  0  0  0  0
    0.8833   -1.2306   -0.6087 H   0  0  0  0  0  0  0  0  0  0  0  0
    0.5436   -2.0438    1.2970 H   0  0  0  0  0  0  0  0  0  0  0  0
    0.9112    1.6204    0.6878 H   0  0  0  0  0  0  0  0  0  0  0  0
    2.8703   -0.2184   -0.9813 H   0  0  0  0  0  0  0  0  0  0  0  0
    3.1199    1.5673   -0.5275 H   0  0  0  0  0  0  0  0  0  0  0  0
   -2.4585    1.5312   -0.6920 H   0  0  0  0  0  0  0  0  0  0  0  0
   -0.7970    2.1772   -0.2550 H   0  0  0  0  0  0  0  0  0  0  0  0
  1  2  1  0
  2  3  1  0
  3  4  1  0
  3  5  1  0
  5  6  1  0
  6  7  1  0
  2  8  1  0
  8  9  1  0
  9  2  1  0
  7  5  1  0
  1 10  1  0
  1 11  1  0
  1 12  1  0
  3 13  1  0
  4 14  1  0
  5 15  1  0
  6 16  1  0
  6 17  1  0
  8 18  1  0
  8 19  1  0
M  END
