
     RDKit          3D

 19 20  0  0  0  0  0  0  0  0999 V2000
   -2.1314   -0.5466   -0.6590 C   0  0  0  0  0  0  0  0  0  0  0  0
   -0.8291   -0.4675    0.1362 C   0  0  0  0  0  0  0  0  0  0  0  0
   -0.8338   -1.4161    1.1655 O   0  0  0  0  0  0  0  0  0  0  0  0
   -0.6440    0.9612    0.6114 C   0  0  0  0  0  0  0  0  0  0  0  0
    0.6350    1.0067   -0.1718 C   0  0  0  0  0  0  0  0  0  0  0  0
    1.7331    0.9366    0.6610 O   0  0  0  0  0  0  0  0  0  0  0  0
    2.4870   -0.0856    0.0489 C   0  0  0  0  0  0  0  0  0  0  0  0
    1.5266   -1.0628   -0.1939 O   0  0  0  0  0  0  0  0  0  0  0  0
    0.4111   -0.4003   -0.6741 C   0  0  0  0  0  0  0  0  0  0  0  0
   -2.1913   -1.4280   -1.2919 H   0  0  0  0  0  0  0  0  0  0  0  0
   -2.9428   -0.5768    0.1169 H   0  0  0  0  0  0  0  0  0  0  0  0
   -2.2612    0.4114   -1.2325 H   0  0  0  0  0  0  0  0  0  0  0  0
   -0.1882   -1.1678    1.8556 H   0  0  0  0  0  0  0  0  0  0  0  0
   -1.3630    1.6937    0.2142 H   0  0  0  0  0  0  0  0  0  0  0  0
   -0.5666    0.9765    1.7018 H   0  0  0  0  0  0  0  0  0  0  0  0
    0.6858    1.7046   -1.0126 H   0  0  0  0  0  0  0  0  0  0  0  0
    3.2533   -0.3810    0.7678 H   0  0  0  0  0  0  0  0  0  0  0  0
    2.8898    0.3653   -0.8830 H   0  0  0  0  0  0  0  0  0  0  0  0
    0.3297   -0.5235   -1.7603 H   0  0  0  0  0  0  0  0  0  0  0  0
  1  2  1  0
  2  3  1  0
  2  4  1  0
  4  5  1  0
  5  6  1  0
  6  7  1  0
  7  8  1  0
  8  9  1  0
  9  2  1  0
  9  5  1  0
  1 10  1  0
  1 11  1  0
  1 12  1  0
  3 13  1  0
  4 14  1  0
  4 15  1  0
  5 16  1  0
  7 17  1  0
  7 18  1  0
  9 19  1  0
M  END
