
     RDKit          3D

 21 22  0  0  0  0  0  0  0  0999 V2000
   -1.9815   -0.9398   -0.9082 C   0  0  0  0  0  0  0  0  0  0  0  0
   -0.9318   -0.0380   -0.3352 C   0  0  0  0  0  0  0  0  0  0  0  0
   -1.5395    1.2256    0.2293 C   0  0  0  0  0  0  0  0  0  0  0  0
    0.0832    0.2952   -1.2518 O   0  0  0  0  0  0  0  0  0  0  0  0
    0.9944    0.0557   -0.2582 C   0  0  0  0  0  0  0  0  0  0  0  0
    2.3497   -0.4288   -0.4625 C   0  0  0  0  0  0  0  0  0  0  0  0
    2.0739    0.9135    0.1406 C   0  0  0  0  0  0  0  0  0  0  0  0
    0.0588   -0.6845    0.5987 C   0  0  0  0  0  0  0  0  0  0  0  0
   -0.1425   -0.2366    1.8938 O   0  0  0  0  0  0  0  0  0  0  0  0
   -2.5322   -0.3615   -1.6799 H   0  0  0  0  0  0  0  0  0  0  0  0
   -1.5079   -1.8072   -1.3843 H   0  0  0  0  0  0  0  0  0  0  0  0
   -2.6628   -1.2573   -0.1085 H   0  0  0  0  0  0  0  0  0  0  0  0
   -2.0514    1.7754   -0.5768 H   0  0  0  0  0  0  0  0  0  0  0  0
   -0.7059    1.8081    0.6720 H   0  0  0  0  0  0  0  0  0  0  0  0
   -2.3028    0.9163    0.9625 H   0  0  0  0  0  0  0  0  0  0  0  0
    2.7006   -0.5301   -1.5023 H   0  0  0  0  0  0  0  0  0  0  0  0
    2.8002   -1.1559    0.2485 H   0  0  0  0  0  0  0  0  0  0  0  0
    2.3410    1.1151    1.2039 H   0  0  0  0  0  0  0  0  0  0  0  0
    2.3812    1.7652   -0.5221 H   0  0  0  0  0  0  0  0  0  0  0  0
    0.1099   -1.8015    0.4841 H   0  0  0  0  0  0  0  0  0  0  0  0
    0.4653   -0.6289    2.5566 H   0  0  0  0  0  0  0  0  0  0  0  0
  1  2  1  0
  2  3  1  0
  2  4  1  0
  4  5  1  0
  5  6  1  0
  6  7  1  0
  5  8  1  0
  8  9  1  0
  8  2  1  0
  7  5  1  0
  1 10  1  0
  1 11  1  0
  1 12  1  0
  3 13  1  0
  3 14  1  0
  3 15  1  0
  6 16  1  0
  6 17  1  0
  7 18  1  0
  7 19  1  0
  8 20  1  0
  9 21  1  0
M  END
