
     RDKit          3D

 19 21  0  0  0  0  0  0  0  0999 V2000
   -2.4826    0.1293    0.1448 C   0  0  0  0  0  0  0  0  0  0  0  0
   -1.0047    0.2868    0.3503 C   0  0  0  0  0  0  0  0  0  0  0  0
   -0.6116    1.6072    0.5977 O   0  0  0  0  0  0  0  0  0  0  0  0
   -0.2380   -0.8582    0.8501 C   0  0  0  0  0  0  0  0  0  0  0  0
    1.2385   -0.9683    0.8113 C   0  0  0  0  0  0  0  0  0  0  0  0
    1.3011   -0.1885   -0.4507 C   0  0  0  0  0  0  0  0  0  0  0  0
    2.0313    0.9431   -0.6802 C   0  0  0  0  0  0  0  0  0  0  0  0
    2.2313   -0.3593   -1.4105 O   0  0  0  0  0  0  0  0  0  0  0  0
   -0.1557   -0.4254   -0.6469 C   0  0  0  0  0  0  0  0  0  0  0  0
   -2.7431   -0.9368   -0.1011 H   0  0  0  0  0  0  0  0  0  0  0  0
   -2.9918    0.4935    1.0465 H   0  0  0  0  0  0  0  0  0  0  0  0
   -2.8009    0.7030   -0.7730 H   0  0  0  0  0  0  0  0  0  0  0  0
   -0.5289    2.1136   -0.2606 H   0  0  0  0  0  0  0  0  0  0  0  0
   -0.8056   -1.7784    1.0615 H   0  0  0  0  0  0  0  0  0  0  0  0
    1.5966   -2.0284    0.6577 H   0  0  0  0  0  0  0  0  0  0  0  0
    1.8192   -0.5281    1.6323 H   0  0  0  0  0  0  0  0  0  0  0  0
    1.7384    1.7508   -1.3843 H   0  0  0  0  0  0  0  0  0  0  0  0
    2.9557    1.2129   -0.1088 H   0  0  0  0  0  0  0  0  0  0  0  0
   -0.5490   -1.1688   -1.3360 H   0  0  0  0  0  0  0  0  0  0  0  0
  1  2  1  0
  2  3  1  0
  2  4  1  0
  4  5  1  0
  5  6  1  0
  6  7  1  0
  7  8  1  0
  6  9  1  0
  9  2  1  0
  9  4  1  0
  8  6  1  0
  1 10  1  0
  1 11  1  0
  1 12  1  0
  3 13  1  0
  4 14  1  0
  5 15  1  0
  5 16  1  0
  7 17  1  0
  7 18  1  0
  9 19  1  0
M  END
