
     RDKit          3D

 21 21  0  0  0  0  0  0  0  0999 V2000
   -1.2400    1.4747    0.4580 C   0  0  0  0  0  0  0  0  0  0  0  0
   -0.7171    0.0989    0.2116 C   0  0  0  0  0  0  0  0  0  0  0  0
   -1.2797   -0.5471   -1.0273 C   0  0  0  0  0  0  0  0  0  0  0  0
   -0.9961   -0.7823    1.2768 O   0  0  0  0  0  0  0  0  0  0  0  0
   -0.0220   -1.7659    1.2039 C   0  0  0  0  0  0  0  0  0  0  0  0
    0.9746   -1.3296    0.3668 O   0  0  0  0  0  0  0  0  0  0  0  0
    0.7953    0.0259    0.2645 C   0  0  0  0  0  0  0  0  0  0  0  0
    1.4453    0.6481   -0.9318 C   0  0  0  0  0  0  0  0  0  0  0  0
    2.8310    0.3799   -0.8158 O   0  0  0  0  0  0  0  0  0  0  0  0
   -0.4002    2.2195    0.3414 H   0  0  0  0  0  0  0  0  0  0  0  0
   -1.9827    1.7083   -0.3393 H   0  0  0  0  0  0  0  0  0  0  0  0
   -1.7018    1.5322    1.4428 H   0  0  0  0  0  0  0  0  0  0  0  0
   -2.0996   -1.2550   -0.7703 H   0  0  0  0  0  0  0  0  0  0  0  0
   -0.5075   -1.1007   -1.5991 H   0  0  0  0  0  0  0  0  0  0  0  0
   -1.7247    0.2421   -1.6519 H   0  0  0  0  0  0  0  0  0  0  0  0
   -0.4912   -2.7232    0.8588 H   0  0  0  0  0  0  0  0  0  0  0  0
    0.4220   -2.0059    2.2054 H   0  0  0  0  0  0  0  0  0  0  0  0
    1.1125    0.5021    1.2100 H   0  0  0  0  0  0  0  0  0  0  0  0
    1.0927    0.1776   -1.8477 H   0  0  0  0  0  0  0  0  0  0  0  0
    1.3694    1.7540   -0.9189 H   0  0  0  0  0  0  0  0  0  0  0  0
    3.1196    0.7464    0.0619 H   0  0  0  0  0  0  0  0  0  0  0  0
  1  2  1  0
  2  3  1  0
  2  4  1  0
  4  5  1  0
  5  6  1  0
  6  7  1  0
  7  8  1  0
  8  9  1  0
  7  2  1  0
  1 10  1  0
  1 11  1  0
  1 12  1  0
  3 13  1  0
  3 14  1  0
  3 15  1  0
  5 16  1  0
  5 17  1  0
  7 18  1  0
  8 19  1  0
  8 20  1  0
  9 21  1  0
M  END
