
     RDKit          3D

 16 16  0  0  0  0  0  0  0  0999 V2000
   -1.0199   -1.0484   -0.4901 C   0  0  0  0  0  0  0  0  0  0  0  0
   -0.1834    0.0201    0.2146 C   0  0  0  0  0  0  0  0  0  0  0  0
   -1.0960    1.0587    0.7959 C   0  0  0  0  0  0  0  0  0  0  0  0
    0.9114    0.4801   -0.6687 C   0  0  0  0  0  0  0  0  0  0  0  0
    1.7725   -0.4035    0.1970 C   0  0  0  0  0  0  0  0  0  0  0  0
    0.7206   -0.4460    1.1284 O   0  0  0  0  0  0  0  0  0  0  0  0
   -0.4296   -1.9754   -0.6184 H   0  0  0  0  0  0  0  0  0  0  0  0
   -1.2298   -0.6056   -1.5084 H   0  0  0  0  0  0  0  0  0  0  0  0
   -1.9953   -1.1927   -0.0138 H   0  0  0  0  0  0  0  0  0  0  0  0
   -1.9463    0.4730    1.2580 H   0  0  0  0  0  0  0  0  0  0  0  0
   -1.5516    1.7264    0.0255 H   0  0  0  0  0  0  0  0  0  0  0  0
   -0.6213    1.6714    1.5937 H   0  0  0  0  0  0  0  0  0  0  0  0
    0.8964    0.0549   -1.7079 H   0  0  0  0  0  0  0  0  0  0  0  0
    1.1554    1.5393   -0.5844 H   0  0  0  0  0  0  0  0  0  0  0  0
    2.6911    0.0899    0.5624 H   0  0  0  0  0  0  0  0  0  0  0  0
    1.9257   -1.4422   -0.1838 H   0  0  0  0  0  0  0  0  0  0  0  0
  1  2  1  0
  2  3  1  0
  2  4  1  0
  4  5  1  0
  5  6  1  0
  6  2  1  0
  1  7  1  0
  1  8  1  0
  1  9  1  0
  3 10  1  0
  3 11  1  0
  3 12  1  0
  4 13  1  0
  4 14  1  0
  5 15  1  0
  5 16  1  0
M  END
