
     RDKit          3D

 21 22  0  0  0  0  0  0  0  0999 V2000
   -1.3208    0.2048   -1.3617 C   0  0  0  0  0  0  0  0  0  0  0  0
   -0.7166   -0.0790   -0.0015 C   0  0  0  0  0  0  0  0  0  0  0  0
   -1.2155    0.8662    1.0480 C   0  0  0  0  0  0  0  0  0  0  0  0
   -0.8023   -1.5227    0.3946 C   0  0  0  0  0  0  0  0  0  0  0  0
   -1.7081   -2.3093    0.5209 O   0  0  0  0  0  0  0  0  0  0  0  0
    0.6992   -1.5649    0.5630 C   0  0  0  0  0  0  0  0  0  0  0  0
    0.7644   -0.2036    0.0316 C   0  0  0  0  0  0  0  0  0  0  0  0
    1.6101    0.8843    0.4744 C   0  0  0  0  0  0  0  0  0  0  0  0
    1.6883    0.3239   -0.9386 C   0  0  0  0  0  0  0  0  0  0  0  0
   -0.7327   -0.2331   -2.1889 H   0  0  0  0  0  0  0  0  0  0  0  0
   -1.4671    1.2797   -1.4911 H   0  0  0  0  0  0  0  0  0  0  0  0
   -2.3413   -0.2637   -1.3484 H   0  0  0  0  0  0  0  0  0  0  0  0
   -0.4013    1.3911    1.5896 H   0  0  0  0  0  0  0  0  0  0  0  0
   -1.8819    1.6509    0.5938 H   0  0  0  0  0  0  0  0  0  0  0  0
   -1.8144    0.3194    1.7770 H   0  0  0  0  0  0  0  0  0  0  0  0
    1.1240   -2.3934   -0.0508 H   0  0  0  0  0  0  0  0  0  0  0  0
    0.9039   -1.7304    1.6461 H   0  0  0  0  0  0  0  0  0  0  0  0
    2.4566    0.7116    1.1674 H   0  0  0  0  0  0  0  0  0  0  0  0
    1.2320    1.9411    0.4964 H   0  0  0  0  0  0  0  0  0  0  0  0
    2.6461   -0.2043   -1.1463 H   0  0  0  0  0  0  0  0  0  0  0  0
    1.2775    0.9316   -1.7757 H   0  0  0  0  0  0  0  0  0  0  0  0
  1  2  1  0
  2  3  1  0
  2  4  1  0
  4  5  2  0
  4  6  1  0
  6  7  1  0
  7  8  1  0
  8  9  1  0
  7  2  1  0
  9  7  1  0
  1 10  1  0
  1 11  1  0
  1 12  1  0
  3 13  1  0
  3 14  1  0
  3 15  1  0
  6 16  1  0
  6 17  1  0
  8 18  1  0
  8 19  1  0
  9 20  1  0
  9 21  1  0
M  END
