
     RDKit          3D

 20 20  0  0  0  0  0  0  0  0999 V2000
   -1.5750    0.1689   -1.0848 C   0  0  0  0  0  0  0  0  0  0  0  0
   -0.6755   -0.1461    0.0793 C   0  0  0  0  0  0  0  0  0  0  0  0
   -1.5534   -0.1019    1.3330 C   0  0  0  0  0  0  0  0  0  0  0  0
    0.4297    0.8346    0.2754 C   0  0  0  0  0  0  0  0  0  0  0  0
    1.6738    0.0454    0.0251 C   0  0  0  0  0  0  0  0  0  0  0  0
    2.3902    0.6785   -0.9994 O   0  0  0  0  0  0  0  0  0  0  0  0
    1.1802   -1.3114   -0.3669 C   0  0  0  0  0  0  0  0  0  0  0  0
   -0.1553   -1.3958   -0.0799 O   0  0  0  0  0  0  0  0  0  0  0  0
   -2.4756    0.7436   -0.7486 H   0  0  0  0  0  0  0  0  0  0  0  0
   -1.9774   -0.8027   -1.4698 H   0  0  0  0  0  0  0  0  0  0  0  0
   -1.0615    0.6529   -1.9268 H   0  0  0  0  0  0  0  0  0  0  0  0
   -2.5516   -0.5181    1.1084 H   0  0  0  0  0  0  0  0  0  0  0  0
   -1.6462    0.9777    1.6183 H   0  0  0  0  0  0  0  0  0  0  0  0
   -1.0642   -0.6142    2.1873 H   0  0  0  0  0  0  0  0  0  0  0  0
    0.4928    1.2183    1.3305 H   0  0  0  0  0  0  0  0  0  0  0  0
    0.3028    1.7042   -0.4066 H   0  0  0  0  0  0  0  0  0  0  0  0
    2.3561   -0.0090    0.8926 H   0  0  0  0  0  0  0  0  0  0  0  0
    2.7594    1.5126   -0.5906 H   0  0  0  0  0  0  0  0  0  0  0  0
    1.4290   -1.5563   -1.4218 H   0  0  0  0  0  0  0  0  0  0  0  0
    1.7218   -2.0812    0.2452 H   0  0  0  0  0  0  0  0  0  0  0  0
  1  2  1  0
  2  3  1  0
  2  4  1  0
  4  5  1  0
  5  6  1  0
  5  7  1  0
  7  8  1  0
  8  2  1  0
  1  9  1  0
  1 10  1  0
  1 11  1  0
  3 12  1  0
  3 13  1  0
  3 14  1  0
  4 15  1  0
  4 16  1  0
  5 17  1  0
  6 18  1  0
  7 19  1  0
  7 20  1  0
M  END
