
     RDKit          3D

 17 18  0  0  0  0  0  0  0  0999 V2000
    1.1488   -0.4691    1.2300 C   0  0  0  0  0  0  0  0  0  0  0  0
    0.9204    0.3446   -0.0263 C   0  0  0  0  0  0  0  0  0  0  0  0
    2.0891    0.8506   -0.5789 O   0  0  0  0  0  0  0  0  0  0  0  0
   -0.0915   -0.2243   -0.9678 C   0  0  0  0  0  0  0  0  0  0  0  0
   -1.1858   -1.0888   -0.4522 C   0  0  0  0  0  0  0  0  0  0  0  0
   -2.1587   -0.2186    0.0319 O   0  0  0  0  0  0  0  0  0  0  0  0
   -1.5471    0.9326    0.4785 C   0  0  0  0  0  0  0  0  0  0  0  0
   -2.0398    1.6602    1.3661 O   0  0  0  0  0  0  0  0  0  0  0  0
   -0.3014    1.1052   -0.2495 C   0  0  0  0  0  0  0  0  0  0  0  0
    1.0645   -1.5502    0.9516 H   0  0  0  0  0  0  0  0  0  0  0  0
    2.2006   -0.3605    1.6103 H   0  0  0  0  0  0  0  0  0  0  0  0
    0.3907   -0.2313    1.9740 H   0  0  0  0  0  0  0  0  0  0  0  0
    2.0921    0.8685   -1.5509 H   0  0  0  0  0  0  0  0  0  0  0  0
    0.1791   -0.2267   -2.0298 H   0  0  0  0  0  0  0  0  0  0  0  0
   -1.6435   -1.6720   -1.2958 H   0  0  0  0  0  0  0  0  0  0  0  0
   -0.8843   -1.7562    0.3826 H   0  0  0  0  0  0  0  0  0  0  0  0
   -0.2333    2.0359   -0.8738 H   0  0  0  0  0  0  0  0  0  0  0  0
  1  2  1  0
  2  3  1  0
  2  4  1  0
  4  5  1  0
  5  6  1  0
  6  7  1  0
  7  8  2  0
  7  9  1  0
  9  2  1  0
  9  4  1  0
  1 10  1  0
  1 11  1  0
  1 12  1  0
  3 13  1  0
  4 14  1  0
  5 15  1  0
  5 16  1  0
  9 17  1  0
M  END
