
     RDKit          3D

 19 20  0  0  0  0  0  0  0  0999 V2000
    0.2981    1.5675    0.6663 C   0  0  0  0  0  0  0  0  0  0  0  0
   -0.0828    0.2314    0.0781 C   0  0  0  0  0  0  0  0  0  0  0  0
    0.9749   -0.4440   -0.7373 C   0  0  0  0  0  0  0  0  0  0  0  0
    2.2256   -0.7773   -0.1234 C   0  0  0  0  0  0  0  0  0  0  0  0
    1.2374   -1.8584   -0.3957 O   0  0  0  0  0  0  0  0  0  0  0  0
   -1.4202    0.3669   -0.6508 C   0  0  0  0  0  0  0  0  0  0  0  0
   -2.0986   -0.3806    0.4291 C   0  0  0  0  0  0  0  0  0  0  0  0
   -3.2633   -0.5822    0.6825 O   0  0  0  0  0  0  0  0  0  0  0  0
   -0.7705   -0.7260    0.9914 C   0  0  0  0  0  0  0  0  0  0  0  0
    0.5432    2.2698   -0.1454 H   0  0  0  0  0  0  0  0  0  0  0  0
   -0.6129    1.9632    1.1737 H   0  0  0  0  0  0  0  0  0  0  0  0
    1.0760    1.4939    1.4427 H   0  0  0  0  0  0  0  0  0  0  0  0
    0.8654   -0.3533   -1.8308 H   0  0  0  0  0  0  0  0  0  0  0  0
    2.3132   -0.7168    0.9823 H   0  0  0  0  0  0  0  0  0  0  0  0
    3.1657   -1.0220   -0.6301 H   0  0  0  0  0  0  0  0  0  0  0  0
   -1.4151   -0.2102   -1.6084 H   0  0  0  0  0  0  0  0  0  0  0  0
   -1.8021    1.3977   -0.7242 H   0  0  0  0  0  0  0  0  0  0  0  0
   -0.5564   -1.8062    0.8041 H   0  0  0  0  0  0  0  0  0  0  0  0
   -0.6775   -0.4135    2.0450 H   0  0  0  0  0  0  0  0  0  0  0  0
  1  2  1  0
  2  3  1  0
  3  4  1  0
  4  5  1  0
  2  6  1  0
  6  7  1  0
  7  8  2  0
  7  9  1  0
  9  2  1  0
  5  3  1  0
  1 10  1  0
  1 11  1  0
  1 12  1  0
  3 13  1  0
  4 14  1  0
  4 15  1  0
  6 16  1  0
  6 17  1  0
  9 18  1  0
  9 19  1  0
M  END
