
     RDKit          3D

 23 24  0  0  0  0  0  0  0  0999 V2000
    2.4977   -0.4867   -0.1921 C   0  0  0  0  0  0  0  0  0  0  0  0
    1.2065    0.2715   -0.0527 C   0  0  0  0  0  0  0  0  0  0  0  0
    1.4005    1.6465   -0.1697 O   0  0  0  0  0  0  0  0  0  0  0  0
    0.4981    0.0147    1.2369 C   0  0  0  0  0  0  0  0  0  0  0  0
   -0.9633    0.1799    0.8659 C   0  0  0  0  0  0  0  0  0  0  0  0
   -1.6560   -1.0424    0.4419 C   0  0  0  0  0  0  0  0  0  0  0  0
   -1.1161   -0.1267   -0.5690 C   0  0  0  0  0  0  0  0  0  0  0  0
   -2.0984    0.6290   -1.4386 C   0  0  0  0  0  0  0  0  0  0  0  0
    0.2575   -0.2486   -1.1252 C   0  0  0  0  0  0  0  0  0  0  0  0
    2.6348   -0.7138   -1.2873 H   0  0  0  0  0  0  0  0  0  0  0  0
    3.3715    0.1240    0.0894 H   0  0  0  0  0  0  0  0  0  0  0  0
    2.4705   -1.4655    0.3382 H   0  0  0  0  0  0  0  0  0  0  0  0
    1.5728    1.9805    0.7534 H   0  0  0  0  0  0  0  0  0  0  0  0
    0.6787   -0.9923    1.6618 H   0  0  0  0  0  0  0  0  0  0  0  0
    0.7360    0.7471    2.0366 H   0  0  0  0  0  0  0  0  0  0  0  0
   -1.4761    1.0847    1.2291 H   0  0  0  0  0  0  0  0  0  0  0  0
   -2.7609   -1.0563    0.5661 H   0  0  0  0  0  0  0  0  0  0  0  0
   -1.1799   -2.0161    0.6800 H   0  0  0  0  0  0  0  0  0  0  0  0
   -3.0887    0.5332   -0.9928 H   0  0  0  0  0  0  0  0  0  0  0  0
   -1.8632    1.7027   -1.5239 H   0  0  0  0  0  0  0  0  0  0  0  0
   -2.0478    0.1401   -2.4492 H   0  0  0  0  0  0  0  0  0  0  0  0
    0.5223   -1.2895   -1.3953 H   0  0  0  0  0  0  0  0  0  0  0  0
    0.4035    0.3840   -2.0091 H   0  0  0  0  0  0  0  0  0  0  0  0
  1  2  1  0
  2  3  1  0
  2  4  1  0
  4  5  1  0
  5  6  1  0
  6  7  1  0
  7  8  1  0
  7  9  1  0
  9  2  1  0
  7  5  1  0
  1 10  1  0
  1 11  1  0
  1 12  1  0
  3 13  1  0
  4 14  1  0
  4 15  1  0
  5 16  1  0
  6 17  1  0
  6 18  1  0
  8 19  1  0
  8 20  1  0
  8 21  1  0
  9 22  1  0
  9 23  1  0
M  END
