
     RDKit          3D

 18 18  0  0  0  0  0  0  0  0999 V2000
   -1.1882   -1.0380   -0.7468 C   0  0  0  0  0  0  0  0  0  0  0  0
   -0.4572    0.0565   -0.0154 C   0  0  0  0  0  0  0  0  0  0  0  0
   -1.3941    0.8425    0.8077 C   0  0  0  0  0  0  0  0  0  0  0  0
   -1.9281    0.3189    1.7612 O   0  0  0  0  0  0  0  0  0  0  0  0
    0.6322   -0.5621    0.8295 C   0  0  0  0  0  0  0  0  0  0  0  0
    1.8593    0.1455    0.3485 C   0  0  0  0  0  0  0  0  0  0  0  0
    1.3509    1.3889   -0.0667 O   0  0  0  0  0  0  0  0  0  0  0  0
    0.3283    0.9492   -0.9407 C   0  0  0  0  0  0  0  0  0  0  0  0
   -2.0507   -0.6817   -1.3184 H   0  0  0  0  0  0  0  0  0  0  0  0
   -1.6025   -1.7202    0.0457 H   0  0  0  0  0  0  0  0  0  0  0  0
   -0.4917   -1.6615   -1.3340 H   0  0  0  0  0  0  0  0  0  0  0  0
   -1.6354    1.8780    0.6043 H   0  0  0  0  0  0  0  0  0  0  0  0
    0.4427   -0.3296    1.8904 H   0  0  0  0  0  0  0  0  0  0  0  0
    0.6893   -1.6769    0.6570 H   0  0  0  0  0  0  0  0  0  0  0  0
    2.6371    0.2673    1.1111 H   0  0  0  0  0  0  0  0  0  0  0  0
    2.2192   -0.3514   -0.5820 H   0  0  0  0  0  0  0  0  0  0  0  0
   -0.2552    1.8043   -1.3265 H   0  0  0  0  0  0  0  0  0  0  0  0
    0.8440    0.3702   -1.7252 H   0  0  0  0  0  0  0  0  0  0  0  0
  1  2  1  0
  2  3  1  0
  3  4  2  0
  2  5  1  0
  5  6  1  0
  6  7  1  0
  7  8  1  0
  8  2  1  0
  1  9  1  0
  1 10  1  0
  1 11  1  0
  3 12  1  0
  5 13  1  0
  5 14  1  0
  6 15  1  0
  6 16  1  0
  8 17  1  0
  8 18  1  0
M  END
