
     RDKit          3D

 23 24  0  0  0  0  0  0  0  0999 V2000
   -1.0280   -1.0428   -1.1733 C   0  0  0  0  0  0  0  0  0  0  0  0
   -0.9099   -0.1583    0.0592 C   0  0  0  0  0  0  0  0  0  0  0  0
   -2.1739   -0.2182    0.8581 C   0  0  0  0  0  0  0  0  0  0  0  0
   -0.5521    1.2324   -0.3985 C   0  0  0  0  0  0  0  0  0  0  0  0
    0.9225    1.4145   -0.1754 C   0  0  0  0  0  0  0  0  0  0  0  0
    1.4293   -0.0081    0.0917 C   0  0  0  0  0  0  0  0  0  0  0  0
    2.7777   -0.2892    0.1308 C   0  0  0  0  0  0  0  0  0  0  0  0
    1.9674   -0.7151   -0.9562 O   0  0  0  0  0  0  0  0  0  0  0  0
    0.3106   -0.5863    0.8855 C   0  0  0  0  0  0  0  0  0  0  0  0
   -1.9592   -0.7584   -1.6794 H   0  0  0  0  0  0  0  0  0  0  0  0
   -0.2004   -0.8745   -1.8800 H   0  0  0  0  0  0  0  0  0  0  0  0
   -1.1156   -2.1141   -0.9005 H   0  0  0  0  0  0  0  0  0  0  0  0
   -2.6491   -1.2198    0.6671 H   0  0  0  0  0  0  0  0  0  0  0  0
   -1.9183   -0.1796    1.9367 H   0  0  0  0  0  0  0  0  0  0  0  0
   -2.8773    0.6043    0.5707 H   0  0  0  0  0  0  0  0  0  0  0  0
   -1.1221    2.0092    0.1543 H   0  0  0  0  0  0  0  0  0  0  0  0
   -0.7443    1.3816   -1.4911 H   0  0  0  0  0  0  0  0  0  0  0  0
    1.4556    1.8795   -1.0049 H   0  0  0  0  0  0  0  0  0  0  0  0
    1.0570    1.9757    0.7954 H   0  0  0  0  0  0  0  0  0  0  0  0
    3.5561    0.4546   -0.1383 H   0  0  0  0  0  0  0  0  0  0  0  0
    3.1970   -1.1283    0.7586 H   0  0  0  0  0  0  0  0  0  0  0  0
    0.3474   -1.6614    1.0483 H   0  0  0  0  0  0  0  0  0  0  0  0
    0.2296    0.0023    1.8414 H   0  0  0  0  0  0  0  0  0  0  0  0
  1  2  1  0
  2  3  1  0
  2  4  1  0
  4  5  1  0
  5  6  1  0
  6  7  1  0
  7  8  1  0
  6  9  1  0
  9  2  1  0
  8  6  1  0
  1 10  1  0
  1 11  1  0
  1 12  1  0
  3 13  1  0
  3 14  1  0
  3 15  1  0
  4 16  1  0
  4 17  1  0
  5 18  1  0
  5 19  1  0
  7 20  1  0
  7 21  1  0
  9 22  1  0
  9 23  1  0
M  END
