
     RDKit          3D

 21 21  0  0  0  0  0  0  0  0999 V2000
   -1.1841    0.1244    1.4614 C   0  0  0  0  0  0  0  0  0  0  0  0
   -1.0036   -0.0464   -0.0401 C   0  0  0  0  0  0  0  0  0  0  0  0
   -0.0040   -1.0795   -0.4282 C   0  0  0  0  0  0  0  0  0  0  0  0
    1.3834   -0.7989    0.0919 C   0  0  0  0  0  0  0  0  0  0  0  0
    1.9037    0.4189   -0.3709 O   0  0  0  0  0  0  0  0  0  0  0  0
    3.1780    0.7722    0.0503 C   0  0  0  0  0  0  0  0  0  0  0  0
    3.8739    0.0572    0.8172 O   0  0  0  0  0  0  0  0  0  0  0  0
   -2.2654    0.0037   -0.9056 C   0  0  0  0  0  0  0  0  0  0  0  0
   -1.2816    1.1363   -0.8913 C   0  0  0  0  0  0  0  0  0  0  0  0
   -0.6665   -0.6886    2.0296 H   0  0  0  0  0  0  0  0  0  0  0  0
   -0.6930    1.0739    1.7330 H   0  0  0  0  0  0  0  0  0  0  0  0
   -2.2657    0.1641    1.7276 H   0  0  0  0  0  0  0  0  0  0  0  0
   -0.3209   -2.0679   -0.0368 H   0  0  0  0  0  0  0  0  0  0  0  0
    0.0825   -1.1722   -1.5356 H   0  0  0  0  0  0  0  0  0  0  0  0
    1.4210   -0.7726    1.2020 H   0  0  0  0  0  0  0  0  0  0  0  0
    2.0747   -1.6092   -0.2167 H   0  0  0  0  0  0  0  0  0  0  0  0
    3.6499    1.7131   -0.2726 H   0  0  0  0  0  0  0  0  0  0  0  0
   -3.2174    0.0680   -0.3665 H   0  0  0  0  0  0  0  0  0  0  0  0
   -2.3034   -0.6599   -1.8031 H   0  0  0  0  0  0  0  0  0  0  0  0
   -1.6100    2.0730   -0.3907 H   0  0  0  0  0  0  0  0  0  0  0  0
   -0.7515    1.2905   -1.8550 H   0  0  0  0  0  0  0  0  0  0  0  0
  1  2  1  0
  2  3  1  0
  3  4  1  0
  4  5  1  0
  5  6  1  0
  6  7  2  0
  2  8  1  0
  8  9  1  0
  9  2  1  0
  1 10  1  0
  1 11  1  0
  1 12  1  0
  3 13  1  0
  3 14  1  0
  4 15  1  0
  4 16  1  0
  6 17  1  0
  8 18  1  0
  8 19  1  0
  9 20  1  0
  9 21  1  0
M  END
