
     RDKit          3D

 18 19  0  0  0  0  0  0  0  0999 V2000
    1.4574   -1.0009    0.8084 C   0  0  0  0  0  0  0  0  0  0  0  0
    0.5693   -0.0361    0.0047 C   0  0  0  0  0  0  0  0  0  0  0  0
    1.3761    1.2159   -0.3834 C   0  0  0  0  0  0  0  0  0  0  0  0
   -0.3466   -0.6348   -0.9042 C   0  0  0  0  0  0  0  0  0  0  0  0
   -1.6035   -1.1891   -0.6750 O   0  0  0  0  0  0  0  0  0  0  0  0
   -1.9830    0.1811   -0.6451 C   0  0  0  0  0  0  0  0  0  0  0  0
   -0.8061    0.2225    0.3446 C   0  0  0  0  0  0  0  0  0  0  0  0
   -1.2118   -0.5625    1.4619 O   0  0  0  0  0  0  0  0  0  0  0  0
    1.8874   -1.7453    0.1046 H   0  0  0  0  0  0  0  0  0  0  0  0
    0.8351   -1.5716    1.5407 H   0  0  0  0  0  0  0  0  0  0  0  0
    2.2732   -0.4908    1.3122 H   0  0  0  0  0  0  0  0  0  0  0  0
    2.4488    1.0000   -0.4589 H   0  0  0  0  0  0  0  0  0  0  0  0
    1.1553    1.9506    0.4361 H   0  0  0  0  0  0  0  0  0  0  0  0
    0.9365    1.6186   -1.3058 H   0  0  0  0  0  0  0  0  0  0  0  0
   -0.4086   -0.0844   -1.8948 H   0  0  0  0  0  0  0  0  0  0  0  0
   -1.8115    0.7464   -1.5545 H   0  0  0  0  0  0  0  0  0  0  0  0
   -2.9387    0.3749   -0.1510 H   0  0  0  0  0  0  0  0  0  0  0  0
   -1.8294    0.0055    1.9595 H   0  0  0  0  0  0  0  0  0  0  0  0
  1  2  1  0
  2  3  1  0
  2  4  1  0
  4  5  1  0
  5  6  1  0
  6  7  1  0
  7  8  1  0
  7  2  1  0
  7  4  1  0
  1  9  1  0
  1 10  1  0
  1 11  1  0
  3 12  1  0
  3 13  1  0
  3 14  1  0
  4 15  1  0
  6 16  1  0
  6 17  1  0
  8 18  1  0
M  END
