
     RDKit          3D

 23 23  0  0  0  0  0  0  0  0999 V2000
   -2.1955   -0.9618   -0.0336 C   0  0  0  0  0  0  0  0  0  0  0  0
   -1.1288    0.1205   -0.1781 C   0  0  0  0  0  0  0  0  0  0  0  0
   -1.8618    1.4459    0.0456 C   0  0  0  0  0  0  0  0  0  0  0  0
   -0.0660    0.0220    0.8622 C   0  0  0  0  0  0  0  0  0  0  0  0
    1.0744   -0.6376    0.0955 C   0  0  0  0  0  0  0  0  0  0  0  0
    2.3333    0.1063    0.4748 C   0  0  0  0  0  0  0  0  0  0  0  0
    3.4634   -0.3740   -0.1406 O   0  0  0  0  0  0  0  0  0  0  0  0
    0.6918   -0.4671   -1.3368 C   0  0  0  0  0  0  0  0  0  0  0  0
   -0.5462    0.0934   -1.4145 O   0  0  0  0  0  0  0  0  0  0  0  0
   -3.0643   -0.6053   -0.6591 H   0  0  0  0  0  0  0  0  0  0  0  0
   -2.5627   -0.9956    0.9993 H   0  0  0  0  0  0  0  0  0  0  0  0
   -1.8482   -1.9399   -0.3998 H   0  0  0  0  0  0  0  0  0  0  0  0
   -1.0933    2.2036    0.2550 H   0  0  0  0  0  0  0  0  0  0  0  0
   -2.4564    1.2768    0.9916 H   0  0  0  0  0  0  0  0  0  0  0  0
   -2.5412    1.6833   -0.7760 H   0  0  0  0  0  0  0  0  0  0  0  0
    0.2154    1.0139    1.2580 H   0  0  0  0  0  0  0  0  0  0  0  0
   -0.3405   -0.6024    1.7388 H   0  0  0  0  0  0  0  0  0  0  0  0
    1.1469   -1.7067    0.4166 H   0  0  0  0  0  0  0  0  0  0  0  0
    2.4274    0.0479    1.5786 H   0  0  0  0  0  0  0  0  0  0  0  0
    2.1699    1.1758    0.2327 H   0  0  0  0  0  0  0  0  0  0  0  0
    4.1023    0.3780   -0.2239 H   0  0  0  0  0  0  0  0  0  0  0  0
    1.4242    0.1680   -1.8866 H   0  0  0  0  0  0  0  0  0  0  0  0
    0.6559   -1.4451   -1.8996 H   0  0  0  0  0  0  0  0  0  0  0  0
  1  2  1  0
  2  3  1  0
  2  4  1  0
  4  5  1  0
  5  6  1  0
  6  7  1  0
  5  8  1  0
  8  9  1  0
  9  2  1  0
  1 10  1  0
  1 11  1  0
  1 12  1  0
  3 13  1  0
  3 14  1  0
  3 15  1  0
  4 16  1  0
  4 17  1  0
  5 18  1  0
  6 19  1  0
  6 20  1  0
  7 21  1  0
  8 22  1  0
  8 23  1  0
M  END
