
     RDKit          3D

 19 20  0  0  0  0  0  0  0  0999 V2000
    1.7071   -0.7278   -0.5868 C   0  0  0  0  0  0  0  0  0  0  0  0
    1.1131    0.5203    0.0360 C   0  0  0  0  0  0  0  0  0  0  0  0
    2.0601    1.3502    0.6020 O   0  0  0  0  0  0  0  0  0  0  0  0
   -0.1578    0.3597    0.8677 C   0  0  0  0  0  0  0  0  0  0  0  0
   -0.7208   -1.0056    0.9055 C   0  0  0  0  0  0  0  0  0  0  0  0
   -1.5734   -1.3306   -0.1193 O   0  0  0  0  0  0  0  0  0  0  0  0
   -2.0662   -0.1760   -0.7155 C   0  0  0  0  0  0  0  0  0  0  0  0
   -0.9716    0.4401   -1.3344 O   0  0  0  0  0  0  0  0  0  0  0  0
   -0.1759    1.0642   -0.4110 C   0  0  0  0  0  0  0  0  0  0  0  0
    2.0205   -1.4174    0.2226 H   0  0  0  0  0  0  0  0  0  0  0  0
    2.6515   -0.4020   -1.0854 H   0  0  0  0  0  0  0  0  0  0  0  0
    1.0820   -1.1791   -1.3535 H   0  0  0  0  0  0  0  0  0  0  0  0
    2.0615    2.2648    0.2849 H   0  0  0  0  0  0  0  0  0  0  0  0
   -0.2393    0.9770    1.8083 H   0  0  0  0  0  0  0  0  0  0  0  0
    0.1039   -1.7635    0.9294 H   0  0  0  0  0  0  0  0  0  0  0  0
   -1.2819   -1.1548    1.8623 H   0  0  0  0  0  0  0  0  0  0  0  0
   -2.7671   -0.4990   -1.5074 H   0  0  0  0  0  0  0  0  0  0  0  0
   -2.5976    0.4894   -0.0208 H   0  0  0  0  0  0  0  0  0  0  0  0
   -0.2481    2.1901   -0.3846 H   0  0  0  0  0  0  0  0  0  0  0  0
  1  2  1  0
  2  3  1  0
  2  4  1  0
  4  5  1  0
  5  6  1  0
  6  7  1  0
  7  8  1  0
  8  9  1  0
  9  2  1  0
  9  4  1  0
  1 10  1  0
  1 11  1  0
  1 12  1  0
  3 13  1  0
  4 14  1  0
  5 15  1  0
  5 16  1  0
  7 17  1  0
  7 18  1  0
  9 19  1  0
M  END
