
     RDKit          3D

 23 23  0  0  0  0  0  0  0  0999 V2000
    0.9614   -0.2422    1.6580 C   0  0  0  0  0  0  0  0  0  0  0  0
    0.2989   -0.3014    0.2929 C   0  0  0  0  0  0  0  0  0  0  0  0
    1.2828   -0.8976   -0.6720 C   0  0  0  0  0  0  0  0  0  0  0  0
    2.4137   -0.0669   -0.6949 O   0  0  0  0  0  0  0  0  0  0  0  0
   -0.9959   -1.0161    0.3802 C   0  0  0  0  0  0  0  0  0  0  0  0
   -1.9540   -0.3610   -0.5923 C   0  0  0  0  0  0  0  0  0  0  0  0
   -1.3070    0.9535   -0.9894 C   0  0  0  0  0  0  0  0  0  0  0  0
   -0.0560    1.0828   -0.1951 C   0  0  0  0  0  0  0  0  0  0  0  0
   -0.1444    1.9252    0.8898 O   0  0  0  0  0  0  0  0  0  0  0  0
    1.9926    0.1978    1.5736 H   0  0  0  0  0  0  0  0  0  0  0  0
    1.0925   -1.3054    1.9790 H   0  0  0  0  0  0  0  0  0  0  0  0
    0.3656    0.2826    2.4020 H   0  0  0  0  0  0  0  0  0  0  0  0
    0.9186   -1.0107   -1.6890 H   0  0  0  0  0  0  0  0  0  0  0  0
    1.6414   -1.8732   -0.2522 H   0  0  0  0  0  0  0  0  0  0  0  0
    2.4979    0.4155   -1.5522 H   0  0  0  0  0  0  0  0  0  0  0  0
   -0.9593   -2.0966    0.2047 H   0  0  0  0  0  0  0  0  0  0  0  0
   -1.4270   -0.8651    1.3941 H   0  0  0  0  0  0  0  0  0  0  0  0
   -2.1318   -1.0202   -1.4650 H   0  0  0  0  0  0  0  0  0  0  0  0
   -2.9519   -0.1682   -0.1286 H   0  0  0  0  0  0  0  0  0  0  0  0
   -1.9694    1.7975   -0.7450 H   0  0  0  0  0  0  0  0  0  0  0  0
   -1.0840    0.8860   -2.0775 H   0  0  0  0  0  0  0  0  0  0  0  0
    0.7352    1.5001   -0.8735 H   0  0  0  0  0  0  0  0  0  0  0  0
    0.7803    2.1833    1.1525 H   0  0  0  0  0  0  0  0  0  0  0  0
  1  2  1  0
  2  3  1  0
  3  4  1  0
  2  5  1  0
  5  6  1  0
  6  7  1  0
  7  8  1  0
  8  9  1  0
  8  2  1  0
  1 10  1  0
  1 11  1  0
  1 12  1  0
  3 13  1  0
  3 14  1  0
  4 15  1  0
  5 16  1  0
  5 17  1  0
  6 18  1  0
  6 19  1  0
  7 20  1  0
  7 21  1  0
  8 22  1  0
  9 23  1  0
M  END
