
     RDKit          3D

 19 19  0  0  0  0  0  0  0  0999 V2000
   -0.9223    1.5803    0.4701 C   0  0  0  0  0  0  0  0  0  0  0  0
   -0.5220    0.1499    0.2288 C   0  0  0  0  0  0  0  0  0  0  0  0
   -1.3779   -0.5129   -0.8067 C   0  0  0  0  0  0  0  0  0  0  0  0
   -0.4642   -0.6461    1.3780 O   0  0  0  0  0  0  0  0  0  0  0  0
    0.5713   -1.3383    0.7485 C   0  0  0  0  0  0  0  0  0  0  0  0
    0.9669   -0.0305    0.1116 C   0  0  0  0  0  0  0  0  0  0  0  0
    1.6246    0.7833    1.0240 O   0  0  0  0  0  0  0  0  0  0  0  0
    1.5138   -0.0824   -1.2373 C   0  0  0  0  0  0  0  0  0  0  0  0
    2.4977    0.5615   -1.5421 O   0  0  0  0  0  0  0  0  0  0  0  0
   -2.0316    1.6299    0.4831 H   0  0  0  0  0  0  0  0  0  0  0  0
   -0.4471    1.9655    1.3731 H   0  0  0  0  0  0  0  0  0  0  0  0
   -0.6208    2.1501   -0.4546 H   0  0  0  0  0  0  0  0  0  0  0  0
   -2.2092   -1.0914   -0.3065 H   0  0  0  0  0  0  0  0  0  0  0  0
   -0.8475   -1.1859   -1.4781 H   0  0  0  0  0  0  0  0  0  0  0  0
   -1.9293    0.2624   -1.4163 H   0  0  0  0  0  0  0  0  0  0  0  0
    1.3228   -1.7677    1.4409 H   0  0  0  0  0  0  0  0  0  0  0  0
    0.1434   -2.0870    0.0538 H   0  0  0  0  0  0  0  0  0  0  0  0
    1.6759    0.3546    1.9256 H   0  0  0  0  0  0  0  0  0  0  0  0
    1.0555   -0.6952   -1.9958 H   0  0  0  0  0  0  0  0  0  0  0  0
  1  2  1  0
  2  3  1  0
  2  4  1  0
  4  5  1  0
  5  6  1  0
  6  7  1  0
  6  8  1  0
  8  9  2  0
  6  2  1  0
  1 10  1  0
  1 11  1  0
  1 12  1  0
  3 13  1  0
  3 14  1  0
  3 15  1  0
  5 16  1  0
  5 17  1  0
  7 18  1  0
  8 19  1  0
M  END
