
     RDKit          3D

 20 21  0  0  0  0  0  0  0  0999 V2000
   -1.4671    0.2233    1.0357 C   0  0  0  0  0  0  0  0  0  0  0  0
   -0.6946    0.2774   -0.2902 C   0  0  0  0  0  0  0  0  0  0  0  0
   -1.3456   -0.6024   -1.3123 C   0  0  0  0  0  0  0  0  0  0  0  0
   -0.5028    1.6045   -0.6760 O   0  0  0  0  0  0  0  0  0  0  0  0
    0.6951    1.5996    0.0781 C   0  0  0  0  0  0  0  0  0  0  0  0
    0.7419    0.1440   -0.0521 C   0  0  0  0  0  0  0  0  0  0  0  0
    1.7003   -0.7162   -0.6294 C   0  0  0  0  0  0  0  0  0  0  0  0
    1.3244   -0.8039    0.8717 C   0  0  0  0  0  0  0  0  0  0  0  0
   -1.3392    1.1714    1.6060 H   0  0  0  0  0  0  0  0  0  0  0  0
   -2.5406    0.0678    0.8712 H   0  0  0  0  0  0  0  0  0  0  0  0
   -0.9848   -0.6182    1.6050 H   0  0  0  0  0  0  0  0  0  0  0  0
   -2.3346   -0.1847   -1.5827 H   0  0  0  0  0  0  0  0  0  0  0  0
   -0.7194   -0.6316   -2.2125 H   0  0  0  0  0  0  0  0  0  0  0  0
   -1.5234   -1.5860   -0.8510 H   0  0  0  0  0  0  0  0  0  0  0  0
    1.4872    2.2237   -0.3274 H   0  0  0  0  0  0  0  0  0  0  0  0
    0.5103    1.9025    1.1495 H   0  0  0  0  0  0  0  0  0  0  0  0
    2.7511   -0.3722   -0.8026 H   0  0  0  0  0  0  0  0  0  0  0  0
    1.4479   -1.5941   -1.2581 H   0  0  0  0  0  0  0  0  0  0  0  0
    2.0689   -0.4222    1.5962 H   0  0  0  0  0  0  0  0  0  0  0  0
    0.7249   -1.6825    1.1810 H   0  0  0  0  0  0  0  0  0  0  0  0
  1  2  1  0
  2  3  1  0
  2  4  1  0
  4  5  1  0
  5  6  1  0
  6  7  1  0
  7  8  1  0
  6  2  1  0
  8  6  1  0
  1  9  1  0
  1 10  1  0
  1 11  1  0
  3 12  1  0
  3 13  1  0
  3 14  1  0
  5 15  1  0
  5 16  1  0
  7 17  1  0
  7 18  1  0
  8 19  1  0
  8 20  1  0
M  END
