
     RDKit          3D

 21 22  0  0  0  0  0  0  0  0999 V2000
   -2.0023    0.8507   -0.0085 C   0  0  0  0  0  0  0  0  0  0  0  0
   -0.8903   -0.1138    0.2836 C   0  0  0  0  0  0  0  0  0  0  0  0
   -1.2818   -1.5149   -0.0588 C   0  0  0  0  0  0  0  0  0  0  0  0
   -0.4444    0.0729    1.6019 O   0  0  0  0  0  0  0  0  0  0  0  0
    0.8179    0.5644    1.2837 C   0  0  0  0  0  0  0  0  0  0  0  0
    0.9542    1.6126    0.2054 C   0  0  0  0  0  0  0  0  0  0  0  0
    0.4657    0.2771   -0.1880 C   0  0  0  0  0  0  0  0  0  0  0  0
    1.3600   -0.7251   -0.8517 C   0  0  0  0  0  0  0  0  0  0  0  0
    2.5637   -0.1474   -1.2058 O   0  0  0  0  0  0  0  0  0  0  0  0
   -2.5874    0.5922   -0.9086 H   0  0  0  0  0  0  0  0  0  0  0  0
   -2.7134    0.7979    0.8591 H   0  0  0  0  0  0  0  0  0  0  0  0
   -1.6697    1.8950   -0.1119 H   0  0  0  0  0  0  0  0  0  0  0  0
   -2.3150   -1.7349    0.2732 H   0  0  0  0  0  0  0  0  0  0  0  0
   -1.2871   -1.6024   -1.1653 H   0  0  0  0  0  0  0  0  0  0  0  0
   -0.5993   -2.2842    0.3569 H   0  0  0  0  0  0  0  0  0  0  0  0
    1.7123    0.0977    1.6990 H   0  0  0  0  0  0  0  0  0  0  0  0
    1.9929    1.8689   -0.0426 H   0  0  0  0  0  0  0  0  0  0  0  0
    0.2715    2.4559    0.2990 H   0  0  0  0  0  0  0  0  0  0  0  0
    0.8402   -1.1708   -1.7324 H   0  0  0  0  0  0  0  0  0  0  0  0
    1.5916   -1.5404   -0.1299 H   0  0  0  0  0  0  0  0  0  0  0  0
    3.2207   -0.2514   -0.4582 H   0  0  0  0  0  0  0  0  0  0  0  0
  1  2  1  0
  2  3  1  0
  2  4  1  0
  4  5  1  0
  5  6  1  0
  6  7  1  0
  7  8  1  0
  8  9  1  0
  7  2  1  0
  7  5  1  0
  1 10  1  0
  1 11  1  0
  1 12  1  0
  3 13  1  0
  3 14  1  0
  3 15  1  0
  5 16  1  0
  6 17  1  0
  6 18  1  0
  8 19  1  0
  8 20  1  0
  9 21  1  0
M  END
