
     RDKit          3D

 20 21  0  0  0  0  0  0  0  0999 V2000
   -1.7502    1.1717   -0.0032 C   0  0  0  0  0  0  0  0  0  0  0  0
   -0.8528   -0.0189    0.0283 C   0  0  0  0  0  0  0  0  0  0  0  0
   -1.5334   -1.3678    0.0206 C   0  0  0  0  0  0  0  0  0  0  0  0
    0.2389    0.1092    1.0970 C   0  0  0  0  0  0  0  0  0  0  0  0
    1.2321   -0.1777   -0.0326 C   0  0  0  0  0  0  0  0  0  0  0  0
    2.6400    0.2642    0.1289 C   0  0  0  0  0  0  0  0  0  0  0  0
    1.0207   -1.2593   -0.8526 O   0  0  0  0  0  0  0  0  0  0  0  0
    0.2870    0.0039   -0.9652 C   0  0  0  0  0  0  0  0  0  0  0  0
   -1.3584    1.9965    0.6551 H   0  0  0  0  0  0  0  0  0  0  0  0
   -1.9242    1.5680   -1.0095 H   0  0  0  0  0  0  0  0  0  0  0  0
   -2.7168    0.8674    0.4900 H   0  0  0  0  0  0  0  0  0  0  0  0
   -2.4114   -1.2744   -0.6556 H   0  0  0  0  0  0  0  0  0  0  0  0
   -0.8270   -2.1364   -0.3977 H   0  0  0  0  0  0  0  0  0  0  0  0
   -1.7935   -1.7196    1.0295 H   0  0  0  0  0  0  0  0  0  0  0  0
    0.2024   -0.6386    1.8870 H   0  0  0  0  0  0  0  0  0  0  0  0
    0.3707    1.1513    1.4638 H   0  0  0  0  0  0  0  0  0  0  0  0
    2.6417    1.2638    0.6115 H   0  0  0  0  0  0  0  0  0  0  0  0
    3.1264    0.3322   -0.8546 H   0  0  0  0  0  0  0  0  0  0  0  0
    3.2407   -0.4766    0.7183 H   0  0  0  0  0  0  0  0  0  0  0  0
    0.1672    0.3411   -1.9746 H   0  0  0  0  0  0  0  0  0  0  0  0
  1  2  1  0
  2  3  1  0
  2  4  1  0
  4  5  1  0
  5  6  1  0
  5  7  1  0
  7  8  1  0
  8  2  1  0
  8  5  1  0
  1  9  1  0
  1 10  1  0
  1 11  1  0
  3 12  1  0
  3 13  1  0
  3 14  1  0
  4 15  1  0
  4 16  1  0
  6 17  1  0
  6 18  1  0
  6 19  1  0
  8 20  1  0
M  END
