
     RDKit          3D

 20 20  0  0  0  0  0  0  0  0999 V2000
   -1.9932    0.6958   -0.5187 C   0  0  0  0  0  0  0  0  0  0  0  0
   -1.1011   -0.2859    0.1866 C   0  0  0  0  0  0  0  0  0  0  0  0
   -1.8399   -1.1933    0.9273 O   0  0  0  0  0  0  0  0  0  0  0  0
   -0.0660   -0.9622   -0.6440 C   0  0  0  0  0  0  0  0  0  0  0  0
    0.9870   -0.4272    0.3040 C   0  0  0  0  0  0  0  0  0  0  0  0
    2.0368    0.3323   -0.4743 C   0  0  0  0  0  0  0  0  0  0  0  0
    3.0267    0.8409    0.3694 O   0  0  0  0  0  0  0  0  0  0  0  0
   -0.0415    0.4707    0.9851 C   0  0  0  0  0  0  0  0  0  0  0  0
   -2.5261    0.2270   -1.3696 H   0  0  0  0  0  0  0  0  0  0  0  0
   -2.7542    1.0275    0.2471 H   0  0  0  0  0  0  0  0  0  0  0  0
   -1.4132    1.5862   -0.8899 H   0  0  0  0  0  0  0  0  0  0  0  0
   -2.2431   -1.8399    0.2732 H   0  0  0  0  0  0  0  0  0  0  0  0
   -0.0744   -2.0711   -0.6421 H   0  0  0  0  0  0  0  0  0  0  0  0
   -0.0041   -0.5615   -1.6742 H   0  0  0  0  0  0  0  0  0  0  0  0
    1.3843   -1.1467    1.0406 H   0  0  0  0  0  0  0  0  0  0  0  0
    1.6000    1.2095   -0.9943 H   0  0  0  0  0  0  0  0  0  0  0  0
    2.4435   -0.3611   -1.2396 H   0  0  0  0  0  0  0  0  0  0  0  0
    2.7274    0.6663    1.2975 H   0  0  0  0  0  0  0  0  0  0  0  0
    0.0396    1.5361    0.7480 H   0  0  0  0  0  0  0  0  0  0  0  0
   -0.1885    0.2567    2.0678 H   0  0  0  0  0  0  0  0  0  0  0  0
  1  2  1  0
  2  3  1  0
  2  4  1  0
  4  5  1  0
  5  6  1  0
  6  7  1  0
  5  8  1  0
  8  2  1  0
  1  9  1  0
  1 10  1  0
  1 11  1  0
  3 12  1  0
  4 13  1  0
  4 14  1  0
  5 15  1  0
  6 16  1  0
  6 17  1  0
  7 18  1  0
  8 19  1  0
  8 20  1  0
M  END
