
     RDKit          3D

 16 16  0  0  0  0  0  0  0  0999 V2000
    0.4248    1.4539   -0.3509 C   0  0  0  0  0  0  0  0  0  0  0  0
    0.5335   -0.0532    0.0042 C   0  0  0  0  0  0  0  0  0  0  0  0
    1.6926   -0.6652   -0.6388 C   0  0  0  0  0  0  0  0  0  0  0  0
    2.6400   -1.1717   -0.0473 O   0  0  0  0  0  0  0  0  0  0  0  0
    0.0179   -0.5520    1.2942 C   0  0  0  0  0  0  0  0  0  0  0  0
   -0.7529   -0.8064   -0.0008 C   0  0  0  0  0  0  0  0  0  0  0  0
   -2.0358   -0.1296   -0.1611 C   0  0  0  0  0  0  0  0  0  0  0  0
   -2.3271    0.9804    0.2784 O   0  0  0  0  0  0  0  0  0  0  0  0
    0.3690    1.5136   -1.4324 H   0  0  0  0  0  0  0  0  0  0  0  0
    1.4589    1.8785   -0.0738 H   0  0  0  0  0  0  0  0  0  0  0  0
   -0.2821    2.0034    0.2602 H   0  0  0  0  0  0  0  0  0  0  0  0
    1.7535   -0.7063   -1.7755 H   0  0  0  0  0  0  0  0  0  0  0  0
   -0.4630    0.1409    1.9869 H   0  0  0  0  0  0  0  0  0  0  0  0
    0.4513   -1.4601    1.7887 H   0  0  0  0  0  0  0  0  0  0  0  0
   -0.6476   -1.8045   -0.4138 H   0  0  0  0  0  0  0  0  0  0  0  0
   -2.8331   -0.6217   -0.7184 H   0  0  0  0  0  0  0  0  0  0  0  0
  1  2  1  0
  2  3  1  0
  3  4  2  0
  2  5  1  0
  5  6  1  0
  6  7  1  0
  7  8  2  0
  6  2  1  0
  1  9  1  0
  1 10  1  0
  1 11  1  0
  3 12  1  0
  5 13  1  0
  5 14  1  0
  6 15  1  0
  7 16  1  0
M  END
