
     RDKit          3D

 19 20  0  0  0  0  0  0  0  0999 V2000
   -1.5928   -0.2247    0.8595 C   0  0  0  0  0  0  0  0  0  0  0  0
   -0.5429    0.2356   -0.1446 C   0  0  0  0  0  0  0  0  0  0  0  0
   -0.9326    1.4367   -0.8717 C   0  0  0  0  0  0  0  0  0  0  0  0
   -0.3137    1.8951   -1.7923 O   0  0  0  0  0  0  0  0  0  0  0  0
   -0.2444   -0.9358   -1.0933 C   0  0  0  0  0  0  0  0  0  0  0  0
    0.8401   -1.3450   -0.0874 C   0  0  0  0  0  0  0  0  0  0  0  0
    0.8061    0.0917    0.3857 C   0  0  0  0  0  0  0  0  0  0  0  0
    1.9063    0.8677    0.5077 C   0  0  0  0  0  0  0  0  0  0  0  0
    1.1377    0.4203    1.6672 O   0  0  0  0  0  0  0  0  0  0  0  0
   -1.4746   -1.3090    1.0311 H   0  0  0  0  0  0  0  0  0  0  0  0
   -2.5695    0.0012    0.4284 H   0  0  0  0  0  0  0  0  0  0  0  0
   -1.4309    0.3085    1.8420 H   0  0  0  0  0  0  0  0  0  0  0  0
   -1.8455    1.9738   -0.5782 H   0  0  0  0  0  0  0  0  0  0  0  0
    0.1815   -0.5789   -2.0427 H   0  0  0  0  0  0  0  0  0  0  0  0
   -1.0836   -1.6409   -1.1684 H   0  0  0  0  0  0  0  0  0  0  0  0
    0.5075   -2.0866    0.6518 H   0  0  0  0  0  0  0  0  0  0  0  0
    1.7958   -1.5626   -0.5676 H   0  0  0  0  0  0  0  0  0  0  0  0
    2.9377    0.4652    0.5832 H   0  0  0  0  0  0  0  0  0  0  0  0
    1.9177    1.9877    0.3898 H   0  0  0  0  0  0  0  0  0  0  0  0
  1  2  1  0
  2  3  1  0
  3  4  2  0
  2  5  1  0
  5  6  1  0
  6  7  1  0
  7  8  1  0
  8  9  1  0
  7  2  1  0
  9  7  1  0
  1 10  1  0
  1 11  1  0
  1 12  1  0
  3 13  1  0
  5 14  1  0
  5 15  1  0
  6 16  1  0
  6 17  1  0
  8 18  1  0
  8 19  1  0
M  END
