
     RDKit          3D

 21 21  0  0  0  0  0  0  0  0999 V2000
   -1.4939   -1.3269   -0.2493 C   0  0  0  0  0  0  0  0  0  0  0  0
   -0.7756    0.0177   -0.1051 C   0  0  0  0  0  0  0  0  0  0  0  0
   -1.8444    1.1074   -0.2692 C   0  0  0  0  0  0  0  0  0  0  0  0
    0.1616    0.1544   -1.2059 C   0  0  0  0  0  0  0  0  0  0  0  0
    1.4785    0.1479   -1.3271 C   0  0  0  0  0  0  0  0  0  0  0  0
    2.4389   -0.0168   -0.2668 C   0  0  0  0  0  0  0  0  0  0  0  0
    2.2384   -0.0421    1.0224 C   0  0  0  0  0  0  0  0  0  0  0  0
    1.0023    0.0874    1.7436 C   0  0  0  0  0  0  0  0  0  0  0  0
   -0.2197    0.1069    1.2325 C   0  0  0  0  0  0  0  0  0  0  0  0
   -1.6136   -1.8309    0.7291 H   0  0  0  0  0  0  0  0  0  0  0  0
   -0.9206   -2.0062   -0.9154 H   0  0  0  0  0  0  0  0  0  0  0  0
   -2.5030   -1.1806   -0.7325 H   0  0  0  0  0  0  0  0  0  0  0  0
   -2.3248    1.3495    0.6974 H   0  0  0  0  0  0  0  0  0  0  0  0
   -2.6483    0.7715   -0.9593 H   0  0  0  0  0  0  0  0  0  0  0  0
   -1.3128    2.0094   -0.6845 H   0  0  0  0  0  0  0  0  0  0  0  0
   -0.3285    0.2979   -2.1735 H   0  0  0  0  0  0  0  0  0  0  0  0
    1.8773    0.2800   -2.3263 H   0  0  0  0  0  0  0  0  0  0  0  0
    3.4702   -0.1347   -0.6200 H   0  0  0  0  0  0  0  0  0  0  0  0
    3.1725   -0.1839    1.5868 H   0  0  0  0  0  0  0  0  0  0  0  0
    1.1214    0.1758    2.8114 H   0  0  0  0  0  0  0  0  0  0  0  0
   -0.9759    0.2161    2.0118 H   0  0  0  0  0  0  0  0  0  0  0  0
  1  2  1  0
  2  3  1  0
  2  4  1  0
  4  5  2  0
  5  6  1  0
  6  7  2  0
  7  8  1  0
  8  9  2  0
  9  2  1  0
  1 10  1  0
  1 11  1  0
  1 12  1  0
  3 13  1  0
  3 14  1  0
  3 15  1  0
  4 16  1  0
  5 17  1  0
  6 18  1  0
  7 19  1  0
  8 20  1  0
  9 21  1  0
M  END
