
     RDKit          3D

 18 18  0  0  0  0  0  0  0  0999 V2000
    0.2024    1.6382   -0.5418 C   0  0  0  0  0  0  0  0  0  0  0  0
   -0.0690    0.3229    0.0825 C   0  0  0  0  0  0  0  0  0  0  0  0
    0.7066    0.0083    1.1961 O   0  0  0  0  0  0  0  0  0  0  0  0
    2.0884   -0.0686    1.1077 C   0  0  0  0  0  0  0  0  0  0  0  0
    2.7144    0.1345    0.0482 O   0  0  0  0  0  0  0  0  0  0  0  0
   -1.5519    0.0089    0.3263 C   0  0  0  0  0  0  0  0  0  0  0  0
   -1.1110   -1.4459    0.1113 C   0  0  0  0  0  0  0  0  0  0  0  0
   -0.1328   -0.8489   -0.9095 C   0  0  0  0  0  0  0  0  0  0  0  0
   -0.4385    2.4008   -0.0582 H   0  0  0  0  0  0  0  0  0  0  0  0
    0.0689    1.6270   -1.6518 H   0  0  0  0  0  0  0  0  0  0  0  0
    1.2519    1.9199   -0.3149 H   0  0  0  0  0  0  0  0  0  0  0  0
    2.6641   -0.3166    1.9963 H   0  0  0  0  0  0  0  0  0  0  0  0
   -2.1818    0.3081   -0.5342 H   0  0  0  0  0  0  0  0  0  0  0  0
   -1.9139    0.2374    1.3247 H   0  0  0  0  0  0  0  0  0  0  0  0
   -1.8777   -2.0953   -0.3189 H   0  0  0  0  0  0  0  0  0  0  0  0
   -0.5493   -1.8492    0.9797 H   0  0  0  0  0  0  0  0  0  0  0  0
    0.8016   -1.3990   -1.0220 H   0  0  0  0  0  0  0  0  0  0  0  0
   -0.6725   -0.5824   -1.8215 H   0  0  0  0  0  0  0  0  0  0  0  0
  1  2  1  0
  2  3  1  0
  3  4  1  0
  4  5  2  0
  2  6  1  0
  6  7  1  0
  7  8  1  0
  8  2  1  0
  1  9  1  0
  1 10  1  0
  1 11  1  0
  4 12  1  0
  6 13  1  0
  6 14  1  0
  7 15  1  0
  7 16  1  0
  8 17  1  0
  8 18  1  0
M  END
