
     RDKit          3D

 21 21  0  0  0  0  0  0  0  0999 V2000
   -1.1759   -1.4026   -0.2316 C   0  0  0  0  0  0  0  0  0  0  0  0
   -0.9225    0.0739   -0.1723 C   0  0  0  0  0  0  0  0  0  0  0  0
   -2.2095    0.8966   -0.2294 C   0  0  0  0  0  0  0  0  0  0  0  0
   -1.9880    2.1948    0.2333 O   0  0  0  0  0  0  0  0  0  0  0  0
    0.0866    0.6287   -0.9520 O   0  0  0  0  0  0  0  0  0  0  0  0
    0.1815    0.6715    0.5496 C   0  0  0  0  0  0  0  0  0  0  0  0
    1.3889   -0.0513    1.0287 C   0  0  0  0  0  0  0  0  0  0  0  0
    2.1943   -0.7050   -0.0656 C   0  0  0  0  0  0  0  0  0  0  0  0
    2.6140    0.2980   -0.9481 O   0  0  0  0  0  0  0  0  0  0  0  0
   -2.2463   -1.6397   -0.3954 H   0  0  0  0  0  0  0  0  0  0  0  0
   -0.6268   -1.9040   -1.0577 H   0  0  0  0  0  0  0  0  0  0  0  0
   -0.9201   -1.8982    0.7511 H   0  0  0  0  0  0  0  0  0  0  0  0
   -2.6478    0.9051   -1.2388 H   0  0  0  0  0  0  0  0  0  0  0  0
   -2.9400    0.3786    0.4292 H   0  0  0  0  0  0  0  0  0  0  0  0
   -1.8180    2.8317   -0.5026 H   0  0  0  0  0  0  0  0  0  0  0  0
    0.0829    1.7302    0.8903 H   0  0  0  0  0  0  0  0  0  0  0  0
    2.0748    0.6389    1.5622 H   0  0  0  0  0  0  0  0  0  0  0  0
    1.0824   -0.8100    1.7961 H   0  0  0  0  0  0  0  0  0  0  0  0
    1.6913   -1.5199   -0.5763 H   0  0  0  0  0  0  0  0  0  0  0  0
    3.0888   -1.1637    0.4520 H   0  0  0  0  0  0  0  0  0  0  0  0
    3.0095   -0.1535   -1.7381 H   0  0  0  0  0  0  0  0  0  0  0  0
  1  2  1  0
  2  3  1  0
  3  4  1  0
  2  5  1  0
  5  6  1  0
  6  7  1  0
  7  8  1  0
  8  9  1  0
  6  2  1  0
  1 10  1  0
  1 11  1  0
  1 12  1  0
  3 13  1  0
  3 14  1  0
  4 15  1  0
  6 16  1  0
  7 17  1  0
  7 18  1  0
  8 19  1  0
  8 20  1  0
  9 21  1  0
M  END
