
     RDKit          3D

 15 15  0  0  0  0  0  0  0  0999 V2000
    0.9779    1.1531   -0.2043 C   0  0  0  0  0  0  0  0  0  0  0  0
    0.1754   -0.1068   -0.0064 C   0  0  0  0  0  0  0  0  0  0  0  0
    0.9378   -1.3424    0.1657 C   0  0  0  0  0  0  0  0  0  0  0  0
    2.0240   -1.3458    0.6962 O   0  0  0  0  0  0  0  0  0  0  0  0
   -0.9425    0.1260    0.9862 C   0  0  0  0  0  0  0  0  0  0  0  0
   -1.6500    0.7342   -0.0775 O   0  0  0  0  0  0  0  0  0  0  0  0
   -1.0398   -0.2301   -0.9020 C   0  0  0  0  0  0  0  0  0  0  0  0
    0.6124    1.6991   -1.0851 H   0  0  0  0  0  0  0  0  0  0  0  0
    2.0233    0.8504   -0.4232 H   0  0  0  0  0  0  0  0  0  0  0  0
    0.9633    1.8295    0.6541 H   0  0  0  0  0  0  0  0  0  0  0  0
    0.5192   -2.2685   -0.1894 H   0  0  0  0  0  0  0  0  0  0  0  0
   -0.7074    0.8023    1.8175 H   0  0  0  0  0  0  0  0  0  0  0  0
   -1.5017   -0.8059    1.2558 H   0  0  0  0  0  0  0  0  0  0  0  0
   -1.5445   -1.1882   -0.7572 H   0  0  0  0  0  0  0  0  0  0  0  0
   -0.8474    0.0930   -1.9304 H   0  0  0  0  0  0  0  0  0  0  0  0
  1  2  1  0
  2  3  1  0
  3  4  2  0
  2  5  1  0
  5  6  1  0
  6  7  1  0
  7  2  1  0
  1  8  1  0
  1  9  1  0
  1 10  1  0
  3 11  1  0
  5 12  1  0
  5 13  1  0
  7 14  1  0
  7 15  1  0
M  END
