
     RDKit          3D

 17 18  0  0  0  0  0  0  0  0999 V2000
   -1.9750   -0.3375   -0.1335 C   0  0  0  0  0  0  0  0  0  0  0  0
   -0.5307    0.0292   -0.4492 C   0  0  0  0  0  0  0  0  0  0  0  0
    0.3875   -1.1461   -0.4413 C   0  0  0  0  0  0  0  0  0  0  0  0
    1.5096   -1.3405    0.3953 C   0  0  0  0  0  0  0  0  0  0  0  0
    0.2472   -1.8465    0.8652 O   0  0  0  0  0  0  0  0  0  0  0  0
   -0.4593    0.7635   -1.6755 O   0  0  0  0  0  0  0  0  0  0  0  0
   -0.1559    1.3939   -0.3469 C   0  0  0  0  0  0  0  0  0  0  0  0
    1.2073    1.9254   -0.3922 C   0  0  0  0  0  0  0  0  0  0  0  0
    1.4184    3.0999   -0.1485 O   0  0  0  0  0  0  0  0  0  0  0  0
   -2.4721    0.4454    0.4868 H   0  0  0  0  0  0  0  0  0  0  0  0
   -2.5758   -0.4626   -1.0614 H   0  0  0  0  0  0  0  0  0  0  0  0
   -2.0294   -1.3199    0.4110 H   0  0  0  0  0  0  0  0  0  0  0  0
    0.1543   -1.9059   -1.2236 H   0  0  0  0  0  0  0  0  0  0  0  0
    1.9217   -0.5940    1.0880 H   0  0  0  0  0  0  0  0  0  0  0  0
    2.2006   -2.1797    0.1961 H   0  0  0  0  0  0  0  0  0  0  0  0
   -0.9405    2.1378   -0.0799 H   0  0  0  0  0  0  0  0  0  0  0  0
    2.0919    1.3379   -0.6356 H   0  0  0  0  0  0  0  0  0  0  0  0
  1  2  1  0
  2  3  1  0
  3  4  1  0
  4  5  1  0
  2  6  1  0
  6  7  1  0
  7  8  1  0
  8  9  2  0
  7  2  1  0
  5  3  1  0
  1 10  1  0
  1 11  1  0
  1 12  1  0
  3 13  1  0
  4 14  1  0
  4 15  1  0
  7 16  1  0
  8 17  1  0
M  END
