
     RDKit          3D

 14 14  0  0  0  0  0  0  0  0999 V2000
   -1.5005   -0.3251    0.9466 C   0  0  0  0  0  0  0  0  0  0  0  0
   -0.3899    0.0324   -0.0485 C   0  0  0  0  0  0  0  0  0  0  0  0
   -0.6377    1.3020   -0.7146 C   0  0  0  0  0  0  0  0  0  0  0  0
   -0.7737    1.3154   -1.9345 O   0  0  0  0  0  0  0  0  0  0  0  0
    0.0021   -1.0291   -0.9481 O   0  0  0  0  0  0  0  0  0  0  0  0
    0.8652   -0.5903    0.1827 C   0  0  0  0  0  0  0  0  0  0  0  0
    2.1694   -0.1750   -0.3102 C   0  0  0  0  0  0  0  0  0  0  0  0
    2.3852    0.9223   -0.8120 O   0  0  0  0  0  0  0  0  0  0  0  0
   -1.2047   -1.0892    1.6490 H   0  0  0  0  0  0  0  0  0  0  0  0
   -1.8858    0.6136    1.3599 H   0  0  0  0  0  0  0  0  0  0  0  0
   -2.2675   -0.8221    0.2358 H   0  0  0  0  0  0  0  0  0  0  0  0
   -0.6887    2.2249   -0.1791 H   0  0  0  0  0  0  0  0  0  0  0  0
    0.8923   -1.5148    0.8283 H   0  0  0  0  0  0  0  0  0  0  0  0
    3.0344   -0.8650   -0.2552 H   0  0  0  0  0  0  0  0  0  0  0  0
  1  2  1  0
  2  3  1  0
  3  4  2  0
  2  5  1  0
  5  6  1  0
  6  7  1  0
  7  8  2  0
  6  2  1  0
  1  9  1  0
  1 10  1  0
  1 11  1  0
  3 12  1  0
  6 13  1  0
  7 14  1  0
M  END
