
     RDKit          3D

 23 23  0  0  0  0  0  0  0  0999 V2000
   -1.2510    0.7138   -1.3313 C   0  0  0  0  0  0  0  0  0  0  0  0
   -1.1819   -0.0542   -0.0531 C   0  0  0  0  0  0  0  0  0  0  0  0
   -2.5583   -0.5176    0.4534 C   0  0  0  0  0  0  0  0  0  0  0  0
   -0.2511    0.4050    1.0637 C   0  0  0  0  0  0  0  0  0  0  0  0
    0.0153   -0.8419    0.3236 C   0  0  0  0  0  0  0  0  0  0  0  0
    1.1870   -1.0557   -0.5634 C   0  0  0  0  0  0  0  0  0  0  0  0
    1.9532    0.1424   -0.9913 C   0  0  0  0  0  0  0  0  0  0  0  0
    2.6077    0.8659    0.1312 C   0  0  0  0  0  0  0  0  0  0  0  0
    2.5629    0.3573    1.2355 O   0  0  0  0  0  0  0  0  0  0  0  0
   -0.8126    0.1642   -2.2034 H   0  0  0  0  0  0  0  0  0  0  0  0
   -2.3179    0.8988   -1.6558 H   0  0  0  0  0  0  0  0  0  0  0  0
   -0.8020    1.7198   -1.2869 H   0  0  0  0  0  0  0  0  0  0  0  0
   -2.5820   -0.5372    1.5691 H   0  0  0  0  0  0  0  0  0  0  0  0
   -3.3067    0.2239    0.1160 H   0  0  0  0  0  0  0  0  0  0  0  0
   -2.7262   -1.5270    0.0419 H   0  0  0  0  0  0  0  0  0  0  0  0
   -0.6411    0.3382    2.1236 H   0  0  0  0  0  0  0  0  0  0  0  0
    0.1613    1.3911    0.8616 H   0  0  0  0  0  0  0  0  0  0  0  0
   -0.2414   -1.7773    0.9146 H   0  0  0  0  0  0  0  0  0  0  0  0
    1.9435   -1.7522   -0.0895 H   0  0  0  0  0  0  0  0  0  0  0  0
    0.9185   -1.6159   -1.5099 H   0  0  0  0  0  0  0  0  0  0  0  0
    1.4012    0.8578   -1.6301 H   0  0  0  0  0  0  0  0  0  0  0  0
    2.8161   -0.2004   -1.6404 H   0  0  0  0  0  0  0  0  0  0  0  0
    3.1052    1.8014   -0.0064 H   0  0  0  0  0  0  0  0  0  0  0  0
  1  2  1  0
  2  3  1  0
  2  4  1  0
  4  5  1  0
  5  6  1  0
  6  7  1  0
  7  8  1  0
  8  9  2  0
  5  2  1  0
  1 10  1  0
  1 11  1  0
  1 12  1  0
  3 13  1  0
  3 14  1  0
  3 15  1  0
  4 16  1  0
  4 17  1  0
  5 18  1  0
  6 19  1  0
  6 20  1  0
  7 21  1  0
  7 22  1  0
  8 23  1  0
M  END
