
     RDKit          3D

 16 16  0  0  0  0  0  0  0  0999 V2000
   -1.6908   -0.2351    0.5668 C   0  0  0  0  0  0  0  0  0  0  0  0
   -0.1812   -0.1578    0.4832 C   0  0  0  0  0  0  0  0  0  0  0  0
    0.4595   -0.5682    1.6536 O   0  0  0  0  0  0  0  0  0  0  0  0
    0.3408    0.9874   -0.3037 C   0  0  0  0  0  0  0  0  0  0  0  0
   -0.5520    1.7972   -1.0100 O   0  0  0  0  0  0  0  0  0  0  0  0
    0.5048   -0.4035   -0.8125 C   0  0  0  0  0  0  0  0  0  0  0  0
    1.7978   -1.0964   -0.7239 C   0  0  0  0  0  0  0  0  0  0  0  0
    2.6236   -0.8909    0.1571 O   0  0  0  0  0  0  0  0  0  0  0  0
   -2.0597   -1.2342    0.2608 H   0  0  0  0  0  0  0  0  0  0  0  0
   -2.1785    0.5802   -0.0087 H   0  0  0  0  0  0  0  0  0  0  0  0
   -1.9985   -0.0921    1.6214 H   0  0  0  0  0  0  0  0  0  0  0  0
   -0.1084   -0.3001    2.4142 H   0  0  0  0  0  0  0  0  0  0  0  0
    1.2014    1.5293    0.1216 H   0  0  0  0  0  0  0  0  0  0  0  0
   -0.1052    2.6302   -1.2854 H   0  0  0  0  0  0  0  0  0  0  0  0
   -0.1299   -0.7061   -1.6737 H   0  0  0  0  0  0  0  0  0  0  0  0
    2.0762   -1.8398   -1.4607 H   0  0  0  0  0  0  0  0  0  0  0  0
  1  2  1  0
  2  3  1  0
  2  4  1  0
  4  5  1  0
  4  6  1  0
  6  7  1  0
  7  8  2  0
  6  2  1  0
  1  9  1  0
  1 10  1  0
  1 11  1  0
  3 12  1  0
  4 13  1  0
  5 14  1  0
  6 15  1  0
  7 16  1  0
M  END
