
     RDKit          3D

 21 21  0  0  0  0  0  0  0  0999 V2000
   -1.3484    1.3598    0.0872 C   0  0  0  0  0  0  0  0  0  0  0  0
   -0.6860    0.0748    0.3837 C   0  0  0  0  0  0  0  0  0  0  0  0
   -0.7983   -0.4289    1.6713 O   0  0  0  0  0  0  0  0  0  0  0  0
   -0.9867   -1.0703   -0.5973 C   0  0  0  0  0  0  0  0  0  0  0  0
    0.4135   -1.5515   -0.1736 C   0  0  0  0  0  0  0  0  0  0  0  0
    0.7490   -0.0732   -0.1420 C   0  0  0  0  0  0  0  0  0  0  0  0
    1.7354    0.3527    0.8939 C   0  0  0  0  0  0  0  0  0  0  0  0
    0.9413    0.4713   -1.4965 C   0  0  0  0  0  0  0  0  0  0  0  0
    0.6903    1.6317   -1.7872 O   0  0  0  0  0  0  0  0  0  0  0  0
   -2.0307    1.6052    0.9508 H   0  0  0  0  0  0  0  0  0  0  0  0
   -1.9655    1.3649   -0.8194 H   0  0  0  0  0  0  0  0  0  0  0  0
   -0.6304    2.2321    0.0646 H   0  0  0  0  0  0  0  0  0  0  0  0
   -1.7470   -0.7128    1.7988 H   0  0  0  0  0  0  0  0  0  0  0  0
   -1.8007   -1.7287   -0.2963 H   0  0  0  0  0  0  0  0  0  0  0  0
   -0.9655   -0.7379   -1.6502 H   0  0  0  0  0  0  0  0  0  0  0  0
    0.3100   -2.0014    0.8397 H   0  0  0  0  0  0  0  0  0  0  0  0
    0.9250   -2.1530   -0.9182 H   0  0  0  0  0  0  0  0  0  0  0  0
    1.7136    1.4654    0.9316 H   0  0  0  0  0  0  0  0  0  0  0  0
    1.3947    0.0057    1.8845 H   0  0  0  0  0  0  0  0  0  0  0  0
    2.7672    0.0431    0.6738 H   0  0  0  0  0  0  0  0  0  0  0  0
    1.3192   -0.1490   -2.2991 H   0  0  0  0  0  0  0  0  0  0  0  0
  1  2  1  0
  2  3  1  0
  2  4  1  0
  4  5  1  0
  5  6  1  0
  6  7  1  0
  6  8  1  0
  8  9  2  0
  6  2  1  0
  1 10  1  0
  1 11  1  0
  1 12  1  0
  3 13  1  0
  4 14  1  0
  4 15  1  0
  5 16  1  0
  5 17  1  0
  7 18  1  0
  7 19  1  0
  7 20  1  0
  8 21  1  0
M  END
