
     RDKit          3D

 21 21  0  0  0  0  0  0  0  0999 V2000
   -1.3085    0.3438    1.4131 C   0  0  0  0  0  0  0  0  0  0  0  0
   -0.6562   -0.1561    0.1523 C   0  0  0  0  0  0  0  0  0  0  0  0
   -1.6220   -0.7448   -0.8263 C   0  0  0  0  0  0  0  0  0  0  0  0
    0.5325   -1.0579    0.3410 C   0  0  0  0  0  0  0  0  0  0  0  0
    1.3966   -0.1205   -0.5131 C   0  0  0  0  0  0  0  0  0  0  0  0
    2.6584    0.2053    0.1569 C   0  0  0  0  0  0  0  0  0  0  0  0
    3.6464    0.4609   -0.5145 O   0  0  0  0  0  0  0  0  0  0  0  0
    0.2890    0.8897   -0.4059 C   0  0  0  0  0  0  0  0  0  0  0  0
   -0.1800    1.3868   -1.6329 O   0  0  0  0  0  0  0  0  0  0  0  0
   -1.1545    1.4419    1.5533 H   0  0  0  0  0  0  0  0  0  0  0  0
   -2.4267    0.2193    1.3608 H   0  0  0  0  0  0  0  0  0  0  0  0
   -0.9502   -0.1726    2.3018 H   0  0  0  0  0  0  0  0  0  0  0  0
   -2.6728   -0.4367   -0.6680 H   0  0  0  0  0  0  0  0  0  0  0  0
   -1.6170   -1.8602   -0.6524 H   0  0  0  0  0  0  0  0  0  0  0  0
   -1.2925   -0.6268   -1.8879 H   0  0  0  0  0  0  0  0  0  0  0  0
    0.4501   -2.0498   -0.1360 H   0  0  0  0  0  0  0  0  0  0  0  0
    0.9128   -1.1614    1.3681 H   0  0  0  0  0  0  0  0  0  0  0  0
    1.5522   -0.5267   -1.5482 H   0  0  0  0  0  0  0  0  0  0  0  0
    2.7899    0.2387    1.2341 H   0  0  0  0  0  0  0  0  0  0  0  0
    0.5457    1.6943    0.3033 H   0  0  0  0  0  0  0  0  0  0  0  0
   -0.8931    2.0330   -1.3995 H   0  0  0  0  0  0  0  0  0  0  0  0
  1  2  1  0
  2  3  1  0
  2  4  1  0
  4  5  1  0
  5  6  1  0
  6  7  2  0
  5  8  1  0
  8  9  1  0
  8  2  1  0
  1 10  1  0
  1 11  1  0
  1 12  1  0
  3 13  1  0
  3 14  1  0
  3 15  1  0
  4 16  1  0
  4 17  1  0
  5 18  1  0
  6 19  1  0
  8 20  1  0
  9 21  1  0
M  END
