
     RDKit          3D

 17 17  0  0  0  0  0  0  0  0999 V2000
   -1.4341   -0.8859    0.6995 C   0  0  0  0  0  0  0  0  0  0  0  0
   -0.4716   -0.0885   -0.1714 C   0  0  0  0  0  0  0  0  0  0  0  0
   -0.6347   -0.2189   -1.6198 C   0  0  0  0  0  0  0  0  0  0  0  0
   -0.8937    0.8379   -2.2269 O   0  0  0  0  0  0  0  0  0  0  0  0
    0.2029    1.1356    0.3751 C   0  0  0  0  0  0  0  0  0  0  0  0
   -0.3927    1.7049    1.4804 O   0  0  0  0  0  0  0  0  0  0  0  0
    0.9604   -0.0836    0.3917 C   0  0  0  0  0  0  0  0  0  0  0  0
    2.0071   -0.3799   -0.6460 C   0  0  0  0  0  0  0  0  0  0  0  0
    2.0374    0.3997   -1.6030 O   0  0  0  0  0  0  0  0  0  0  0  0
   -1.0523   -0.8577    1.7411 H   0  0  0  0  0  0  0  0  0  0  0  0
   -1.6413   -1.8649    0.3052 H   0  0  0  0  0  0  0  0  0  0  0  0
   -2.3942   -0.2284    0.7583 H   0  0  0  0  0  0  0  0  0  0  0  0
   -0.5617   -1.0792   -2.2241 H   0  0  0  0  0  0  0  0  0  0  0  0
    0.4973    1.9240   -0.3811 H   0  0  0  0  0  0  0  0  0  0  0  0
    0.1128    1.5907    2.3065 H   0  0  0  0  0  0  0  0  0  0  0  0
    1.0178   -0.7021    1.3475 H   0  0  0  0  0  0  0  0  0  0  0  0
    2.6406   -1.2037   -0.5330 H   0  0  0  0  0  0  0  0  0  0  0  0
  1  2  1  0
  2  3  1  0
  3  4  2  0
  2  5  1  0
  5  6  1  0
  5  7  1  0
  7  8  1  0
  8  9  2  0
  7  2  1  0
  1 10  1  0
  1 11  1  0
  1 12  1  0
  3 13  1  0
  5 14  1  0
  6 15  1  0
  7 16  1  0
  8 17  1  0
M  END
