
     RDKit          3D

 23 23  0  0  0  0  0  0  0  0999 V2000
   -1.9982    0.6533   -0.8243 C   0  0  0  0  0  0  0  0  0  0  0  0
   -0.8785   -0.0250   -0.1082 C   0  0  0  0  0  0  0  0  0  0  0  0
   -1.3283   -1.1142    0.8243 C   0  0  0  0  0  0  0  0  0  0  0  0
    0.1296   -0.6521   -1.0704 C   0  0  0  0  0  0  0  0  0  0  0  0
    1.4858   -0.4138   -0.4873 C   0  0  0  0  0  0  0  0  0  0  0  0
    2.1216   -1.6046   -0.1278 O   0  0  0  0  0  0  0  0  0  0  0  0
    1.3242    0.4554    0.7241 C   0  0  0  0  0  0  0  0  0  0  0  0
    2.2754    1.4626    0.7142 O   0  0  0  0  0  0  0  0  0  0  0  0
   -0.0826    0.9769    0.7031 C   0  0  0  0  0  0  0  0  0  0  0  0
   -2.0843    0.3632   -1.8977 H   0  0  0  0  0  0  0  0  0  0  0  0
   -1.7763    1.7550   -0.8444 H   0  0  0  0  0  0  0  0  0  0  0  0
   -2.9808    0.5594   -0.3124 H   0  0  0  0  0  0  0  0  0  0  0  0
   -0.4019   -1.5050    1.3244 H   0  0  0  0  0  0  0  0  0  0  0  0
   -2.0128   -0.7976    1.6033 H   0  0  0  0  0  0  0  0  0  0  0  0
   -1.7178   -1.9741    0.2217 H   0  0  0  0  0  0  0  0  0  0  0  0
    0.0262   -0.2402   -2.0946 H   0  0  0  0  0  0  0  0  0  0  0  0
   -0.0238   -1.7645   -1.1335 H   0  0  0  0  0  0  0  0  0  0  0  0
    2.1116    0.0919   -1.2722 H   0  0  0  0  0  0  0  0  0  0  0  0
    2.9976   -1.3805    0.2292 H   0  0  0  0  0  0  0  0  0  0  0  0
    1.4915   -0.1237    1.6713 H   0  0  0  0  0  0  0  0  0  0  0  0
    1.9368    2.2573    0.2095 H   0  0  0  0  0  0  0  0  0  0  0  0
   -0.4282    1.0625    1.7424 H   0  0  0  0  0  0  0  0  0  0  0  0
   -0.1869    1.9579    0.2055 H   0  0  0  0  0  0  0  0  0  0  0  0
  1  2  1  0
  2  3  1  0
  2  4  1  0
  4  5  1  0
  5  6  1  0
  5  7  1  0
  7  8  1  0
  7  9  1  0
  9  2  1  0
  1 10  1  0
  1 11  1  0
  1 12  1  0
  3 13  1  0
  3 14  1  0
  3 15  1  0
  4 16  1  0
  4 17  1  0
  5 18  1  0
  6 19  1  0
  7 20  1  0
  8 21  1  0
  9 22  1  0
  9 23  1  0
M  END
