
     RDKit          3D

 19 19  0  0  0  0  0  0  0  0999 V2000
   -1.2282   -1.2882   -0.0944 C   0  0  0  0  0  0  0  0  0  0  0  0
   -0.5659    0.0546   -0.0819 C   0  0  0  0  0  0  0  0  0  0  0  0
   -1.5931    1.1797   -0.2476 C   0  0  0  0  0  0  0  0  0  0  0  0
    0.4997    0.2054   -1.0884 C   0  0  0  0  0  0  0  0  0  0  0  0
    1.7987    0.1128   -0.8194 C   0  0  0  0  0  0  0  0  0  0  0  0
    2.2164   -0.1640    0.6030 C   0  0  0  0  0  0  0  0  0  0  0  0
    1.3041    0.5017    1.4794 O   0  0  0  0  0  0  0  0  0  0  0  0
   -0.0354    0.2565    1.3149 C   0  0  0  0  0  0  0  0  0  0  0  0
   -0.8772    0.1830    2.2368 O   0  0  0  0  0  0  0  0  0  0  0  0
   -1.0307   -1.8831    0.8359 H   0  0  0  0  0  0  0  0  0  0  0  0
   -0.8124   -1.9235   -0.9237 H   0  0  0  0  0  0  0  0  0  0  0  0
   -2.3425   -1.2014   -0.2151 H   0  0  0  0  0  0  0  0  0  0  0  0
   -2.0775    1.1565   -1.2307 H   0  0  0  0  0  0  0  0  0  0  0  0
   -2.3118    1.0463    0.5851 H   0  0  0  0  0  0  0  0  0  0  0  0
   -1.0753    2.1241   -0.0867 H   0  0  0  0  0  0  0  0  0  0  0  0
    0.2262    0.4049   -2.1185 H   0  0  0  0  0  0  0  0  0  0  0  0
    2.5258    0.2362   -1.6172 H   0  0  0  0  0  0  0  0  0  0  0  0
    3.2198    0.2578    0.7471 H   0  0  0  0  0  0  0  0  0  0  0  0
    2.1592   -1.2594    0.7214 H   0  0  0  0  0  0  0  0  0  0  0  0
  1  2  1  0
  2  3  1  0
  2  4  1  0
  4  5  2  0
  5  6  1  0
  6  7  1  0
  7  8  1  0
  8  9  2  0
  8  2  1  0
  1 10  1  0
  1 11  1  0
  1 12  1  0
  3 13  1  0
  3 14  1  0
  3 15  1  0
  4 16  1  0
  5 17  1  0
  6 18  1  0
  6 19  1  0
M  END
