
     RDKit          3D

 21 21  0  0  0  0  0  0  0  0999 V2000
   -1.3161   -1.4693   -0.1198 C   0  0  0  0  0  0  0  0  0  0  0  0
   -0.5164   -0.1871   -0.0318 C   0  0  0  0  0  0  0  0  0  0  0  0
   -1.3689    1.0503    0.2049 C   0  0  0  0  0  0  0  0  0  0  0  0
   -2.0675    0.9379    1.3860 O   0  0  0  0  0  0  0  0  0  0  0  0
    0.6652   -0.2877    0.9107 C   0  0  0  0  0  0  0  0  0  0  0  0
    1.4165    0.5860   -0.0751 C   0  0  0  0  0  0  0  0  0  0  0  0
    2.7392    0.1996   -0.2733 O   0  0  0  0  0  0  0  0  0  0  0  0
    0.5068   -0.0066   -1.1347 C   0  0  0  0  0  0  0  0  0  0  0  0
    0.9923   -1.2360   -1.5777 O   0  0  0  0  0  0  0  0  0  0  0  0
   -2.3250   -1.2121   -0.5546 H   0  0  0  0  0  0  0  0  0  0  0  0
   -1.5222   -1.8203    0.9152 H   0  0  0  0  0  0  0  0  0  0  0  0
   -0.8198   -2.2233   -0.7354 H   0  0  0  0  0  0  0  0  0  0  0  0
   -2.1030    1.0904   -0.6334 H   0  0  0  0  0  0  0  0  0  0  0  0
   -0.7294    1.9381    0.1281 H   0  0  0  0  0  0  0  0  0  0  0  0
   -1.8677    1.7531    1.9265 H   0  0  0  0  0  0  0  0  0  0  0  0
    1.0804   -1.3227    0.8736 H   0  0  0  0  0  0  0  0  0  0  0  0
    0.5211    0.1395    1.9107 H   0  0  0  0  0  0  0  0  0  0  0  0
    1.2934    1.6784    0.0885 H   0  0  0  0  0  0  0  0  0  0  0  0
    3.2066    1.0116   -0.6267 H   0  0  0  0  0  0  0  0  0  0  0  0
    0.2435    0.7134   -1.9183 H   0  0  0  0  0  0  0  0  0  0  0  0
    1.9709   -1.3331   -1.3954 H   0  0  0  0  0  0  0  0  0  0  0  0
  1  2  1  0
  2  3  1  0
  3  4  1  0
  2  5  1  0
  5  6  1  0
  6  7  1  0
  6  8  1  0
  8  9  1  0
  8  2  1  0
  1 10  1  0
  1 11  1  0
  1 12  1  0
  3 13  1  0
  3 14  1  0
  4 15  1  0
  5 16  1  0
  5 17  1  0
  6 18  1  0
  7 19  1  0
  8 20  1  0
  9 21  1  0
M  END
