
     RDKit          3D

 20 21  0  0  0  0  0  0  0  0999 V2000
    1.5766   -1.4963    0.1158 C   0  0  0  0  0  0  0  0  0  0  0  0
    0.9998   -0.1286   -0.1993 C   0  0  0  0  0  0  0  0  0  0  0  0
    1.8526    1.0336    0.3165 C   0  0  0  0  0  0  0  0  0  0  0  0
    0.4858   -0.0383   -1.4906 O   0  0  0  0  0  0  0  0  0  0  0  0
   -0.3301    0.0610   -0.4118 C   0  0  0  0  0  0  0  0  0  0  0  0
   -1.4182   -0.8728   -0.0828 C   0  0  0  0  0  0  0  0  0  0  0  0
   -2.3131    0.3425    0.2057 C   0  0  0  0  0  0  0  0  0  0  0  0
   -1.2154    1.2400   -0.3382 C   0  0  0  0  0  0  0  0  0  0  0  0
    2.6166   -1.4070    0.5437 H   0  0  0  0  0  0  0  0  0  0  0  0
    1.7195   -2.1093   -0.8137 H   0  0  0  0  0  0  0  0  0  0  0  0
    0.9288   -2.0580    0.7959 H   0  0  0  0  0  0  0  0  0  0  0  0
    2.6411    0.6576    1.0208 H   0  0  0  0  0  0  0  0  0  0  0  0
    2.3405    1.5855   -0.4864 H   0  0  0  0  0  0  0  0  0  0  0  0
    1.1974    1.6841    0.9668 H   0  0  0  0  0  0  0  0  0  0  0  0
   -1.2145   -1.4465    0.8689 H   0  0  0  0  0  0  0  0  0  0  0  0
   -1.7873   -1.5271   -0.8721 H   0  0  0  0  0  0  0  0  0  0  0  0
   -2.4233    0.5256    1.2867 H   0  0  0  0  0  0  0  0  0  0  0  0
   -3.2385    0.3107   -0.3677 H   0  0  0  0  0  0  0  0  0  0  0  0
   -1.5250    1.5888   -1.3656 H   0  0  0  0  0  0  0  0  0  0  0  0
   -0.8935    2.0545    0.3073 H   0  0  0  0  0  0  0  0  0  0  0  0
  1  2  1  0
  2  3  1  0
  2  4  1  0
  4  5  1  0
  5  6  1  0
  6  7  1  0
  7  8  1  0
  5  2  1  0
  8  5  1  0
  1  9  1  0
  1 10  1  0
  1 11  1  0
  3 12  1  0
  3 13  1  0
  3 14  1  0
  6 15  1  0
  6 16  1  0
  7 17  1  0
  7 18  1  0
  8 19  1  0
  8 20  1  0
M  END
