
     RDKit          3D

 21 22  0  0  0  0  0  0  0  0999 V2000
   -1.9661    1.0460   -0.9839 C   0  0  0  0  0  0  0  0  0  0  0  0
   -1.5891   -0.0472   -0.0151 C   0  0  0  0  0  0  0  0  0  0  0  0
   -2.6167   -0.2922    0.9036 O   0  0  0  0  0  0  0  0  0  0  0  0
   -0.7939   -1.2068   -0.4114 C   0  0  0  0  0  0  0  0  0  0  0  0
    0.5226   -1.1533   -1.1016 C   0  0  0  0  0  0  0  0  0  0  0  0
    0.9013    0.1324   -0.4307 C   0  0  0  0  0  0  0  0  0  0  0  0
    2.2584    0.1547    0.2211 C   0  0  0  0  0  0  0  0  0  0  0  0
    2.4172    1.4378    0.7868 O   0  0  0  0  0  0  0  0  0  0  0  0
   -0.2278   -0.1238    0.5435 C   0  0  0  0  0  0  0  0  0  0  0  0
   -2.3422    1.9056   -0.3569 H   0  0  0  0  0  0  0  0  0  0  0  0
   -1.1472    1.4257   -1.5816 H   0  0  0  0  0  0  0  0  0  0  0  0
   -2.8180    0.7623   -1.6401 H   0  0  0  0  0  0  0  0  0  0  0  0
   -2.3079   -0.7021    1.7307 H   0  0  0  0  0  0  0  0  0  0  0  0
   -1.0270   -2.1965    0.0500 H   0  0  0  0  0  0  0  0  0  0  0  0
    0.5108   -1.1478   -2.2068 H   0  0  0  0  0  0  0  0  0  0  0  0
    1.2437   -1.9610   -0.7776 H   0  0  0  0  0  0  0  0  0  0  0  0
    0.7850    0.9800   -1.1035 H   0  0  0  0  0  0  0  0  0  0  0  0
    2.2717   -0.5484    1.0954 H   0  0  0  0  0  0  0  0  0  0  0  0
    3.0865   -0.0387   -0.4544 H   0  0  0  0  0  0  0  0  0  0  0  0
    2.8403    2.0657    0.1433 H   0  0  0  0  0  0  0  0  0  0  0  0
   -0.0015   -0.4924    1.5424 H   0  0  0  0  0  0  0  0  0  0  0  0
  1  2  1  0
  2  3  1  0
  2  4  1  0
  4  5  1  0
  5  6  1  0
  6  7  1  0
  7  8  1  0
  6  9  1  0
  9  2  1  0
  9  4  1  0
  1 10  1  0
  1 11  1  0
  1 12  1  0
  3 13  1  0
  4 14  1  0
  5 15  1  0
  5 16  1  0
  6 17  1  0
  7 18  1  0
  7 19  1  0
  8 20  1  0
  9 21  1  0
M  END
