
     RDKit          3D

 19 20  0  0  0  0  0  0  0  0999 V2000
   -1.7001    0.8637   -0.0086 C   0  0  0  0  0  0  0  0  0  0  0  0
   -0.5814   -0.1398   -0.2222 C   0  0  0  0  0  0  0  0  0  0  0  0
   -0.8350   -1.3954    0.5468 C   0  0  0  0  0  0  0  0  0  0  0  0
   -0.3581   -0.3098   -1.6844 C   0  0  0  0  0  0  0  0  0  0  0  0
   -0.7610   -1.0318   -2.6328 O   0  0  0  0  0  0  0  0  0  0  0  0
    0.5585    0.7340   -1.6135 O   0  0  0  0  0  0  0  0  0  0  0  0
    0.7871    0.3837   -0.2929 C   0  0  0  0  0  0  0  0  0  0  0  0
    1.9938   -0.2652    0.1888 C   0  0  0  0  0  0  0  0  0  0  0  0
    1.5130    1.1223    0.6970 C   0  0  0  0  0  0  0  0  0  0  0  0
   -2.5210    0.6496   -0.7286 H   0  0  0  0  0  0  0  0  0  0  0  0
   -1.3778    1.9053   -0.2162 H   0  0  0  0  0  0  0  0  0  0  0  0
   -2.1550    0.7681    1.0053 H   0  0  0  0  0  0  0  0  0  0  0  0
   -1.9390   -1.5280    0.6263 H   0  0  0  0  0  0  0  0  0  0  0  0
   -0.4862   -1.2319    1.5976 H   0  0  0  0  0  0  0  0  0  0  0  0
   -0.3847   -2.2984    0.0932 H   0  0  0  0  0  0  0  0  0  0  0  0
    2.9404   -0.2424   -0.4040 H   0  0  0  0  0  0  0  0  0  0  0  0
    1.9431   -1.0978    0.9082 H   0  0  0  0  0  0  0  0  0  0  0  0
    2.1522    1.9924    0.3798 H   0  0  0  0  0  0  0  0  0  0  0  0
    1.2111    1.1213    1.7602 H   0  0  0  0  0  0  0  0  0  0  0  0
  1  2  1  0
  2  3  1  0
  2  4  1  0
  4  5  2  0
  4  6  1  0
  6  7  1  0
  7  8  1  0
  8  9  1  0
  7  2  1  0
  9  7  1  0
  1 10  1  0
  1 11  1  0
  1 12  1  0
  3 13  1  0
  3 14  1  0
  3 15  1  0
  8 16  1  0
  8 17  1  0
  9 18  1  0
  9 19  1  0
M  END
