
     RDKit          3D

 21 22  0  0  0  0  0  0  0  0999 V2000
   -1.8710    1.4354    0.1028 C   0  0  0  0  0  0  0  0  0  0  0  0
   -0.9858    0.1800    0.0380 C   0  0  0  0  0  0  0  0  0  0  0  0
   -1.8538   -1.0729    0.0908 C   0  0  0  0  0  0  0  0  0  0  0  0
    0.1971    0.2660    0.8065 C   0  0  0  0  0  0  0  0  0  0  0  0
    1.2565    1.0993    0.8335 O   0  0  0  0  0  0  0  0  0  0  0  0
    2.2326    0.3732    0.1025 C   0  0  0  0  0  0  0  0  0  0  0  0
    1.4316   -0.6003   -0.7861 C   0  0  0  0  0  0  0  0  0  0  0  0
    1.3568   -1.7760   -0.0593 O   0  0  0  0  0  0  0  0  0  0  0  0
    0.1527    0.1595   -0.7737 C   0  0  0  0  0  0  0  0  0  0  0  0
   -2.8785    1.2550   -0.2542 H   0  0  0  0  0  0  0  0  0  0  0  0
   -1.3813    2.2147   -0.5327 H   0  0  0  0  0  0  0  0  0  0  0  0
   -1.8507    1.8287    1.1368 H   0  0  0  0  0  0  0  0  0  0  0  0
   -2.8270   -0.8939   -0.3974 H   0  0  0  0  0  0  0  0  0  0  0  0
   -2.0483   -1.4059    1.1212 H   0  0  0  0  0  0  0  0  0  0  0  0
   -1.3581   -1.8969   -0.4906 H   0  0  0  0  0  0  0  0  0  0  0  0
    0.4533   -0.6937    1.3521 H   0  0  0  0  0  0  0  0  0  0  0  0
    2.9139   -0.1660    0.7629 H   0  0  0  0  0  0  0  0  0  0  0  0
    2.7189    1.1230   -0.5524 H   0  0  0  0  0  0  0  0  0  0  0  0
    1.8816   -0.7010   -1.7736 H   0  0  0  0  0  0  0  0  0  0  0  0
    2.1043   -1.8682    0.5894 H   0  0  0  0  0  0  0  0  0  0  0  0
    0.3554    1.1397   -1.3162 H   0  0  0  0  0  0  0  0  0  0  0  0
  1  2  1  0
  2  3  1  0
  2  4  1  0
  4  5  1  0
  5  6  1  0
  6  7  1  0
  7  8  1  0
  7  9  1  0
  9  2  1  0
  9  4  1  0
  1 10  1  0
  1 11  1  0
  1 12  1  0
  3 13  1  0
  3 14  1  0
  3 15  1  0
  4 16  1  0
  6 17  1  0
  6 18  1  0
  7 19  1  0
  8 20  1  0
  9 21  1  0
M  END
