
     RDKit          3D

 23 23  0  0  0  0  0  0  0  0999 V2000
    2.5625    0.1973   -0.5336 C   0  0  0  0  0  0  0  0  0  0  0  0
    1.2995   -0.2690    0.1499 C   0  0  0  0  0  0  0  0  0  0  0  0
    1.5766   -1.1537    1.1580 O   0  0  0  0  0  0  0  0  0  0  0  0
    0.2373   -0.7942   -0.8005 C   0  0  0  0  0  0  0  0  0  0  0  0
   -0.7752   -0.0310   -0.0066 C   0  0  0  0  0  0  0  0  0  0  0  0
   -1.4417   -0.7851    1.1119 C   0  0  0  0  0  0  0  0  0  0  0  0
   -1.8324    0.6820   -0.8384 C   0  0  0  0  0  0  0  0  0  0  0  0
   -2.7089    1.3506    0.0073 O   0  0  0  0  0  0  0  0  0  0  0  0
    0.3300    0.8524    0.5013 C   0  0  0  0  0  0  0  0  0  0  0  0
    2.9687   -0.6767   -1.0842 H   0  0  0  0  0  0  0  0  0  0  0  0
    3.3010    0.4079    0.2838 H   0  0  0  0  0  0  0  0  0  0  0  0
    2.4042    1.0758   -1.1697 H   0  0  0  0  0  0  0  0  0  0  0  0
    1.7430   -2.0780    0.8183 H   0  0  0  0  0  0  0  0  0  0  0  0
    0.3747   -0.3048   -1.8042 H   0  0  0  0  0  0  0  0  0  0  0  0
    0.1325   -1.8778   -0.8352 H   0  0  0  0  0  0  0  0  0  0  0  0
   -1.7260   -0.0358    1.8878 H   0  0  0  0  0  0  0  0  0  0  0  0
   -2.4103   -1.2367    0.7609 H   0  0  0  0  0  0  0  0  0  0  0  0
   -0.7900   -1.5171    1.5959 H   0  0  0  0  0  0  0  0  0  0  0  0
   -2.4065   -0.1464   -1.3479 H   0  0  0  0  0  0  0  0  0  0  0  0
   -1.3969    1.3389   -1.5977 H   0  0  0  0  0  0  0  0  0  0  0  0
   -2.2580    2.2002    0.2693 H   0  0  0  0  0  0  0  0  0  0  0  0
    0.2845    1.0594    1.6012 H   0  0  0  0  0  0  0  0  0  0  0  0
    0.5315    1.7416   -0.1274 H   0  0  0  0  0  0  0  0  0  0  0  0
  1  2  1  0
  2  3  1  0
  2  4  1  0
  4  5  1  0
  5  6  1  0
  5  7  1  0
  7  8  1  0
  5  9  1  0
  9  2  1  0
  1 10  1  0
  1 11  1  0
  1 12  1  0
  3 13  1  0
  4 14  1  0
  4 15  1  0
  6 16  1  0
  6 17  1  0
  6 18  1  0
  7 19  1  0
  7 20  1  0
  8 21  1  0
  9 22  1  0
  9 23  1  0
M  END
