
     RDKit          3D

 23 24  0  0  0  0  0  0  0  0999 V2000
   -1.5908   -0.2401   -1.0919 C   0  0  0  0  0  0  0  0  0  0  0  0
   -0.6909   -0.2027    0.1183 C   0  0  0  0  0  0  0  0  0  0  0  0
   -1.5000   -0.7715    1.2748 C   0  0  0  0  0  0  0  0  0  0  0  0
   -0.2896    1.1918    0.5113 C   0  0  0  0  0  0  0  0  0  0  0  0
    1.1721    1.4797    0.2319 C   0  0  0  0  0  0  0  0  0  0  0  0
    1.9598    0.1754    0.1766 C   0  0  0  0  0  0  0  0  0  0  0  0
    1.4916   -0.5446   -1.0736 C   0  0  0  0  0  0  0  0  0  0  0  0
    0.5087   -1.0714   -0.0940 C   0  0  0  0  0  0  0  0  0  0  0  0
    1.4048   -0.8155    0.9484 O   0  0  0  0  0  0  0  0  0  0  0  0
   -2.1327    0.6943   -1.2400 H   0  0  0  0  0  0  0  0  0  0  0  0
   -0.9545   -0.5376   -1.9572 H   0  0  0  0  0  0  0  0  0  0  0  0
   -2.3634   -1.0581   -1.0168 H   0  0  0  0  0  0  0  0  0  0  0  0
   -0.8584   -1.0061    2.1250 H   0  0  0  0  0  0  0  0  0  0  0  0
   -2.2582    0.0254    1.5226 H   0  0  0  0  0  0  0  0  0  0  0  0
   -2.1130   -1.6482    0.9582 H   0  0  0  0  0  0  0  0  0  0  0  0
   -0.4220    1.3748    1.6180 H   0  0  0  0  0  0  0  0  0  0  0  0
   -0.9370    1.9648    0.0283 H   0  0  0  0  0  0  0  0  0  0  0  0
    1.2723    1.9182   -0.8019 H   0  0  0  0  0  0  0  0  0  0  0  0
    1.6227    2.1056    1.0013 H   0  0  0  0  0  0  0  0  0  0  0  0
    3.0394    0.2877    0.2937 H   0  0  0  0  0  0  0  0  0  0  0  0
    2.2352   -1.2914   -1.3665 H   0  0  0  0  0  0  0  0  0  0  0  0
    1.1275    0.0956   -1.8863 H   0  0  0  0  0  0  0  0  0  0  0  0
    0.2766   -2.1263   -0.2798 H   0  0  0  0  0  0  0  0  0  0  0  0
  1  2  1  0
  2  3  1  0
  2  4  1  0
  4  5  1  0
  5  6  1  0
  6  7  1  0
  7  8  1  0
  8  9  1  0
  8  2  1  0
  9  6  1  0
  1 10  1  0
  1 11  1  0
  1 12  1  0
  3 13  1  0
  3 14  1  0
  3 15  1  0
  4 16  1  0
  4 17  1  0
  5 18  1  0
  5 19  1  0
  6 20  1  0
  7 21  1  0
  7 22  1  0
  8 23  1  0
M  END
