
     RDKit          3D

 21 22  0  0  0  0  0  0  0  0999 V2000
   -2.5582   -0.9155    0.4225 C   0  0  0  0  0  0  0  0  0  0  0  0
   -1.2450   -0.2347   -0.0364 C   0  0  0  0  0  0  0  0  0  0  0  0
   -0.1246   -0.5610    0.8724 C   0  0  0  0  0  0  0  0  0  0  0  0
    1.2075   -0.0050    0.5840 C   0  0  0  0  0  0  0  0  0  0  0  0
    1.8317   -0.3769   -0.7446 C   0  0  0  0  0  0  0  0  0  0  0  0
    2.5358    0.9490   -0.4302 C   0  0  0  0  0  0  0  0  0  0  0  0
    1.3319    1.3205    0.2126 O   0  0  0  0  0  0  0  0  0  0  0  0
   -1.4705    1.1100   -0.6435 C   0  0  0  0  0  0  0  0  0  0  0  0
   -1.0725   -0.0397   -1.3843 O   0  0  0  0  0  0  0  0  0  0  0  0
   -2.7140   -0.5396    1.4560 H   0  0  0  0  0  0  0  0  0  0  0  0
   -2.4295   -2.0317    0.3960 H   0  0  0  0  0  0  0  0  0  0  0  0
   -3.3585   -0.5870   -0.2618 H   0  0  0  0  0  0  0  0  0  0  0  0
   -0.4115   -0.2992    1.9328 H   0  0  0  0  0  0  0  0  0  0  0  0
   -0.0644   -1.6907    0.9162 H   0  0  0  0  0  0  0  0  0  0  0  0
    1.9551   -0.2067    1.3899 H   0  0  0  0  0  0  0  0  0  0  0  0
    2.5205   -1.2411   -0.6882 H   0  0  0  0  0  0  0  0  0  0  0  0
    1.2232   -0.2695   -1.6387 H   0  0  0  0  0  0  0  0  0  0  0  0
    3.3487    0.7439    0.2967 H   0  0  0  0  0  0  0  0  0  0  0  0
    2.7937    1.5478   -1.3078 H   0  0  0  0  0  0  0  0  0  0  0  0
   -2.5394    1.4133   -0.8706 H   0  0  0  0  0  0  0  0  0  0  0  0
   -0.7599    1.9138   -0.4729 H   0  0  0  0  0  0  0  0  0  0  0  0
  1  2  1  0
  2  3  1  0
  3  4  1  0
  4  5  1  0
  5  6  1  0
  6  7  1  0
  2  8  1  0
  8  9  1  0
  9  2  1  0
  7  4  1  0
  1 10  1  0
  1 11  1  0
  1 12  1  0
  3 13  1  0
  3 14  1  0
  4 15  1  0
  5 16  1  0
  5 17  1  0
  6 18  1  0
  6 19  1  0
  8 20  1  0
  8 21  1  0
M  END
