
     RDKit          3D

 21 21  0  0  0  0  0  0  0  0999 V2000
    1.8952    0.3681    0.0826 C   0  0  0  0  0  0  0  0  0  0  0  0
    0.7057   -0.4517   -0.2523 C   0  0  0  0  0  0  0  0  0  0  0  0
    1.0384   -1.4606   -1.1538 O   0  0  0  0  0  0  0  0  0  0  0  0
    0.1012   -1.1516    0.9596 C   0  0  0  0  0  0  0  0  0  0  0  0
   -1.2226   -1.5284    0.3943 C   0  0  0  0  0  0  0  0  0  0  0  0
   -1.5543   -0.7164   -0.5998 C   0  0  0  0  0  0  0  0  0  0  0  0
   -0.4645    0.2863   -0.7851 C   0  0  0  0  0  0  0  0  0  0  0  0
   -0.8623    1.4923    0.0169 C   0  0  0  0  0  0  0  0  0  0  0  0
    0.1133    2.4496    0.1219 O   0  0  0  0  0  0  0  0  0  0  0  0
    1.9079    0.5592    1.1860 H   0  0  0  0  0  0  0  0  0  0  0  0
    2.8091   -0.2711   -0.0957 H   0  0  0  0  0  0  0  0  0  0  0  0
    2.0344    1.2718   -0.4995 H   0  0  0  0  0  0  0  0  0  0  0  0
    0.2554   -1.7787   -1.6681 H   0  0  0  0  0  0  0  0  0  0  0  0
    0.7254   -2.0093    1.2173 H   0  0  0  0  0  0  0  0  0  0  0  0
    0.0210   -0.4794    1.8255 H   0  0  0  0  0  0  0  0  0  0  0  0
   -1.8290   -2.3465    0.7425 H   0  0  0  0  0  0  0  0  0  0  0  0
   -2.4554   -0.7385   -1.2056 H   0  0  0  0  0  0  0  0  0  0  0  0
   -0.3672    0.5891   -1.8458 H   0  0  0  0  0  0  0  0  0  0  0  0
   -1.7261    1.9643   -0.5282 H   0  0  0  0  0  0  0  0  0  0  0  0
   -1.2795    1.2105    1.0129 H   0  0  0  0  0  0  0  0  0  0  0  0
    0.1541    2.7411    1.0743 H   0  0  0  0  0  0  0  0  0  0  0  0
  1  2  1  0
  2  3  1  0
  2  4  1  0
  4  5  1  0
  5  6  2  0
  6  7  1  0
  7  8  1  0
  8  9  1  0
  7  2  1  0
  1 10  1  0
  1 11  1  0
  1 12  1  0
  3 13  1  0
  4 14  1  0
  4 15  1  0
  5 16  1  0
  6 17  1  0
  7 18  1  0
  8 19  1  0
  8 20  1  0
  9 21  1  0
M  END
