
     RDKit          3D

 23 24  0  0  0  0  0  0  0  0999 V2000
    1.7996   -0.6475    0.9400 C   0  0  0  0  0  0  0  0  0  0  0  0
    1.0821   -0.1511   -0.2690 C   0  0  0  0  0  0  0  0  0  0  0  0
    1.4791   -0.7669   -1.4683 O   0  0  0  0  0  0  0  0  0  0  0  0
    1.2204    1.3687   -0.4707 C   0  0  0  0  0  0  0  0  0  0  0  0
   -0.2058    1.2924   -1.0432 C   0  0  0  0  0  0  0  0  0  0  0  0
   -0.3639    0.0763   -0.2002 C   0  0  0  0  0  0  0  0  0  0  0  0
   -1.3270   -0.9547   -0.5601 C   0  0  0  0  0  0  0  0  0  0  0  0
   -2.2716   -0.3546    0.4959 C   0  0  0  0  0  0  0  0  0  0  0  0
   -1.0106    0.2420    1.1363 C   0  0  0  0  0  0  0  0  0  0  0  0
    1.4828   -1.6855    1.1349 H   0  0  0  0  0  0  0  0  0  0  0  0
    2.8961   -0.6626    0.6992 H   0  0  0  0  0  0  0  0  0  0  0  0
    1.6334    0.0432    1.7796 H   0  0  0  0  0  0  0  0  0  0  0  0
    1.5417   -1.7347   -1.2988 H   0  0  0  0  0  0  0  0  0  0  0  0
    1.9844    1.6663   -1.1859 H   0  0  0  0  0  0  0  0  0  0  0  0
    1.1828    1.9161    0.4864 H   0  0  0  0  0  0  0  0  0  0  0  0
   -0.1133    0.9965   -2.1233 H   0  0  0  0  0  0  0  0  0  0  0  0
   -0.8302    2.1579   -0.8310 H   0  0  0  0  0  0  0  0  0  0  0  0
   -1.7620   -0.9992   -1.5581 H   0  0  0  0  0  0  0  0  0  0  0  0
   -1.0234   -1.9674   -0.1606 H   0  0  0  0  0  0  0  0  0  0  0  0
   -2.8656    0.4725    0.0478 H   0  0  0  0  0  0  0  0  0  0  0  0
   -2.8017   -1.0812    1.1034 H   0  0  0  0  0  0  0  0  0  0  0  0
   -1.1060    1.2716    1.4705 H   0  0  0  0  0  0  0  0  0  0  0  0
   -0.6213   -0.4983    1.8753 H   0  0  0  0  0  0  0  0  0  0  0  0
  1  2  1  0
  2  3  1  0
  2  4  1  0
  4  5  1  0
  5  6  1  0
  6  7  1  0
  7  8  1  0
  8  9  1  0
  6  2  1  0
  9  6  1  0
  1 10  1  0
  1 11  1  0
  1 12  1  0
  3 13  1  0
  4 14  1  0
  4 15  1  0
  5 16  1  0
  5 17  1  0
  7 18  1  0
  7 19  1  0
  8 20  1  0
  8 21  1  0
  9 22  1  0
  9 23  1  0
M  END
