
     RDKit          3D

 19 21  0  0  0  0  0  0  0  0999 V2000
   -0.9761   -1.5909    0.1621 C   0  0  0  0  0  0  0  0  0  0  0  0
   -0.5682   -0.1620    0.3559 C   0  0  0  0  0  0  0  0  0  0  0  0
   -1.7177    0.7071    0.8768 C   0  0  0  0  0  0  0  0  0  0  0  0
    0.7655    0.2542    0.7668 C   0  0  0  0  0  0  0  0  0  0  0  0
    2.0299   -0.2500    0.1497 C   0  0  0  0  0  0  0  0  0  0  0  0
    1.9273   -1.3727   -0.6401 O   0  0  0  0  0  0  0  0  0  0  0  0
    1.5544   -0.1456   -1.1371 C   0  0  0  0  0  0  0  0  0  0  0  0
    0.2450    0.4615   -0.6958 C   0  0  0  0  0  0  0  0  0  0  0  0
   -0.0254    1.7513   -1.0807 O   0  0  0  0  0  0  0  0  0  0  0  0
   -1.4720   -1.9370    1.1059 H   0  0  0  0  0  0  0  0  0  0  0  0
   -0.1802   -2.2607   -0.1583 H   0  0  0  0  0  0  0  0  0  0  0  0
   -1.8093   -1.5909   -0.5987 H   0  0  0  0  0  0  0  0  0  0  0  0
   -1.3660    1.4560    1.6066 H   0  0  0  0  0  0  0  0  0  0  0  0
   -2.5136    0.1113    1.3354 H   0  0  0  0  0  0  0  0  0  0  0  0
   -2.0927    1.2763   -0.0157 H   0  0  0  0  0  0  0  0  0  0  0  0
    0.8880    1.1877    1.3614 H   0  0  0  0  0  0  0  0  0  0  0  0
    2.9765   -0.0442    0.6362 H   0  0  0  0  0  0  0  0  0  0  0  0
    1.9955    0.1272   -2.0938 H   0  0  0  0  0  0  0  0  0  0  0  0
    0.3391    2.0214   -1.9367 H   0  0  0  0  0  0  0  0  0  0  0  0
  1  2  1  0
  2  3  1  0
  2  4  1  0
  4  5  1  0
  5  6  1  0
  6  7  1  0
  7  8  1  0
  8  9  1  0
  8  2  1  0
  8  4  1  0
  7  5  1  0
  1 10  1  0
  1 11  1  0
  1 12  1  0
  3 13  1  0
  3 14  1  0
  3 15  1  0
  4 16  1  0
  5 17  1  0
  7 18  1  0
  9 19  1  0
M  END
