
     RDKit          3D

 19 19  0  0  0  0  0  0  0  0999 V2000
   -1.5086   -1.3290   -0.1807 C   0  0  0  0  0  0  0  0  0  0  0  0
   -0.5347   -0.2378    0.1502 C   0  0  0  0  0  0  0  0  0  0  0  0
    0.8926   -0.7408    0.3897 C   0  0  0  0  0  0  0  0  0  0  0  0
    1.7174    0.3992    0.4415 O   0  0  0  0  0  0  0  0  0  0  0  0
    3.0755    0.3463    0.6436 C   0  0  0  0  0  0  0  0  0  0  0  0
    3.6501   -0.7422    0.7937 O   0  0  0  0  0  0  0  0  0  0  0  0
   -0.5160    0.9234   -0.8034 C   0  0  0  0  0  0  0  0  0  0  0  0
   -1.6271    1.3556    0.1098 C   0  0  0  0  0  0  0  0  0  0  0  0
   -1.0069    0.6014    1.1272 O   0  0  0  0  0  0  0  0  0  0  0  0
   -0.9621   -2.0990   -0.7676 H   0  0  0  0  0  0  0  0  0  0  0  0
   -1.9354   -1.7302    0.7636 H   0  0  0  0  0  0  0  0  0  0  0  0
   -2.3493   -0.9842   -0.8103 H   0  0  0  0  0  0  0  0  0  0  0  0
    1.2173   -1.3939   -0.4315 H   0  0  0  0  0  0  0  0  0  0  0  0
    0.9309   -1.3468    1.3249 H   0  0  0  0  0  0  0  0  0  0  0  0
    3.6235    1.2902    0.6668 H   0  0  0  0  0  0  0  0  0  0  0  0
    0.3897    1.5480   -0.6026 H   0  0  0  0  0  0  0  0  0  0  0  0
   -0.7607    0.7287   -1.8431 H   0  0  0  0  0  0  0  0  0  0  0  0
   -1.6576    2.4318    0.2959 H   0  0  0  0  0  0  0  0  0  0  0  0
   -2.6387    0.9793   -0.1594 H   0  0  0  0  0  0  0  0  0  0  0  0
  1  2  1  0
  2  3  1  0
  3  4  1  0
  4  5  1  0
  5  6  2  0
  2  7  1  0
  7  8  1  0
  8  9  1  0
  9  2  1  0
  1 10  1  0
  1 11  1  0
  1 12  1  0
  3 13  1  0
  3 14  1  0
  5 15  1  0
  7 16  1  0
  7 17  1  0
  8 18  1  0
  8 19  1  0
M  END
