
     RDKit          3D

 19 20  0  0  0  0  0  0  0  0999 V2000
    1.0082    1.2725    0.3423 C   0  0  0  0  0  0  0  0  0  0  0  0
    0.5719   -0.1555    0.0522 C   0  0  0  0  0  0  0  0  0  0  0  0
    1.3719   -0.8077   -1.0452 C   0  0  0  0  0  0  0  0  0  0  0  0
    0.5392   -0.9062    1.3308 C   0  0  0  0  0  0  0  0  0  0  0  0
    1.2881   -1.4175    2.1254 O   0  0  0  0  0  0  0  0  0  0  0  0
   -0.9381   -0.7783    1.2590 C   0  0  0  0  0  0  0  0  0  0  0  0
   -1.5017   -1.5541    0.2900 O   0  0  0  0  0  0  0  0  0  0  0  0
   -0.9164   -0.3465   -0.0364 C   0  0  0  0  0  0  0  0  0  0  0  0
   -1.7839    0.5905   -0.7960 C   0  0  0  0  0  0  0  0  0  0  0  0
    2.0841    1.3823    0.1536 H   0  0  0  0  0  0  0  0  0  0  0  0
    0.7683    1.5566    1.4083 H   0  0  0  0  0  0  0  0  0  0  0  0
    0.4683    2.0127   -0.2796 H   0  0  0  0  0  0  0  0  0  0  0  0
    2.4342   -0.5922   -0.8516 H   0  0  0  0  0  0  0  0  0  0  0  0
    1.1076   -0.3720   -2.0129 H   0  0  0  0  0  0  0  0  0  0  0  0
    1.2226   -1.8877   -1.0345 H   0  0  0  0  0  0  0  0  0  0  0  0
   -1.5034   -0.4138    2.1307 H   0  0  0  0  0  0  0  0  0  0  0  0
   -2.1811    0.0260   -1.6902 H   0  0  0  0  0  0  0  0  0  0  0  0
   -2.7164    0.8699   -0.2268 H   0  0  0  0  0  0  0  0  0  0  0  0
   -1.3234    1.5210   -1.1191 H   0  0  0  0  0  0  0  0  0  0  0  0
  1  2  1  0
  2  3  1  0
  2  4  1  0
  4  5  2  0
  4  6  1  0
  6  7  1  0
  7  8  1  0
  8  9  1  0
  8  2  1  0
  8  6  1  0
  1 10  1  0
  1 11  1  0
  1 12  1  0
  3 13  1  0
  3 14  1  0
  3 15  1  0
  6 16  1  0
  9 17  1  0
  9 18  1  0
  9 19  1  0
M  END
