
     RDKit          3D

 21 21  0  0  0  0  0  0  0  0999 V2000
    1.3225   -0.1340    1.1452 C   0  0  0  0  0  0  0  0  0  0  0  0
    0.6942    0.1118   -0.2113 C   0  0  0  0  0  0  0  0  0  0  0  0
    1.8339    0.1304   -1.1988 C   0  0  0  0  0  0  0  0  0  0  0  0
    2.7978    0.8455   -0.9175 O   0  0  0  0  0  0  0  0  0  0  0  0
   -0.1788   -1.0416   -0.5616 C   0  0  0  0  0  0  0  0  0  0  0  0
   -1.5613   -0.9075   -0.0587 C   0  0  0  0  0  0  0  0  0  0  0  0
   -1.9322    0.4099    0.5086 C   0  0  0  0  0  0  0  0  0  0  0  0
   -1.2664    1.4952    0.1004 O   0  0  0  0  0  0  0  0  0  0  0  0
    0.0025    1.4226   -0.3057 C   0  0  0  0  0  0  0  0  0  0  0  0
    1.9557    0.7050    1.4636 H   0  0  0  0  0  0  0  0  0  0  0  0
    2.0274   -1.0046    1.0010 H   0  0  0  0  0  0  0  0  0  0  0  0
    0.5812   -0.4024    1.9197 H   0  0  0  0  0  0  0  0  0  0  0  0
    1.8120   -0.4522   -2.1091 H   0  0  0  0  0  0  0  0  0  0  0  0
   -0.1684   -1.1785   -1.6837 H   0  0  0  0  0  0  0  0  0  0  0  0
    0.3366   -1.9698   -0.1793 H   0  0  0  0  0  0  0  0  0  0  0  0
   -1.7096   -1.6792    0.7539 H   0  0  0  0  0  0  0  0  0  0  0  0
   -2.2728   -1.2393   -0.8676 H   0  0  0  0  0  0  0  0  0  0  0  0
   -1.9300    0.3829    1.6385 H   0  0  0  0  0  0  0  0  0  0  0  0
   -3.0264    0.5648    0.2585 H   0  0  0  0  0  0  0  0  0  0  0  0
    0.0655    1.7565   -1.3833 H   0  0  0  0  0  0  0  0  0  0  0  0
    0.6166    2.1843    0.2565 H   0  0  0  0  0  0  0  0  0  0  0  0
  1  2  1  0
  2  3  1  0
  3  4  2  0
  2  5  1  0
  5  6  1  0
  6  7  1  0
  7  8  1  0
  8  9  1  0
  9  2  1  0
  1 10  1  0
  1 11  1  0
  1 12  1  0
  3 13  1  0
  5 14  1  0
  5 15  1  0
  6 16  1  0
  6 17  1  0
  7 18  1  0
  7 19  1  0
  9 20  1  0
  9 21  1  0
M  END
