
     RDKit          3D

 21 22  0  0  0  0  0  0  0  0999 V2000
    2.2232   -0.4113   -0.5963 C   0  0  0  0  0  0  0  0  0  0  0  0
    0.9009    0.2209   -0.2596 C   0  0  0  0  0  0  0  0  0  0  0  0
    1.1159    1.4832    0.5620 C   0  0  0  0  0  0  0  0  0  0  0  0
    0.0423    0.4465   -1.3126 O   0  0  0  0  0  0  0  0  0  0  0  0
   -1.0106   -0.1343   -0.6290 C   0  0  0  0  0  0  0  0  0  0  0  0
   -2.2458    0.6455   -0.3084 C   0  0  0  0  0  0  0  0  0  0  0  0
   -0.9728   -1.5876   -0.3346 C   0  0  0  0  0  0  0  0  0  0  0  0
   -0.1009   -0.6604    0.3942 C   0  0  0  0  0  0  0  0  0  0  0  0
   -0.3018   -0.4842    1.7489 O   0  0  0  0  0  0  0  0  0  0  0  0
    2.0334   -1.3782   -1.0977 H   0  0  0  0  0  0  0  0  0  0  0  0
    2.7918    0.2200   -1.2966 H   0  0  0  0  0  0  0  0  0  0  0  0
    2.7447   -0.6225    0.3495 H   0  0  0  0  0  0  0  0  0  0  0  0
    1.5798    2.2697   -0.0724 H   0  0  0  0  0  0  0  0  0  0  0  0
    0.1580    1.8211    1.0138 H   0  0  0  0  0  0  0  0  0  0  0  0
    1.8458    1.2925    1.3818 H   0  0  0  0  0  0  0  0  0  0  0  0
   -2.0616    1.7088   -0.0771 H   0  0  0  0  0  0  0  0  0  0  0  0
   -2.8979    0.6440   -1.2203 H   0  0  0  0  0  0  0  0  0  0  0  0
   -2.8111    0.1210    0.4897 H   0  0  0  0  0  0  0  0  0  0  0  0
   -1.8587   -1.9663    0.2348 H   0  0  0  0  0  0  0  0  0  0  0  0
   -0.5035   -2.2839   -1.0662 H   0  0  0  0  0  0  0  0  0  0  0  0
   -0.6711   -1.3445    2.0962 H   0  0  0  0  0  0  0  0  0  0  0  0
  1  2  1  0
  2  3  1  0
  2  4  1  0
  4  5  1  0
  5  6  1  0
  5  7  1  0
  7  8  1  0
  8  9  1  0
  8  2  1  0
  8  5  1  0
  1 10  1  0
  1 11  1  0
  1 12  1  0
  3 13  1  0
  3 14  1  0
  3 15  1  0
  6 16  1  0
  6 17  1  0
  6 18  1  0
  7 19  1  0
  7 20  1  0
  9 21  1  0
M  END
