
     RDKit          3D

 23 23  0  0  0  0  0  0  0  0999 V2000
    1.3638    0.4020   -1.1766 C   0  0  0  0  0  0  0  0  0  0  0  0
    0.7010   -0.0038    0.1467 C   0  0  0  0  0  0  0  0  0  0  0  0
    1.3791   -1.2663    0.5819 C   0  0  0  0  0  0  0  0  0  0  0  0
    1.0807    0.9745    1.0969 O   0  0  0  0  0  0  0  0  0  0  0  0
    0.0224    1.8434    1.0762 C   0  0  0  0  0  0  0  0  0  0  0  0
   -1.1229    1.1371    0.8424 O   0  0  0  0  0  0  0  0  0  0  0  0
   -0.7588   -0.0132    0.1026 C   0  0  0  0  0  0  0  0  0  0  0  0
   -1.4549   -1.1724    0.7275 C   0  0  0  0  0  0  0  0  0  0  0  0
   -1.3578    0.1883   -1.2786 C   0  0  0  0  0  0  0  0  0  0  0  0
    1.2843   -0.3992   -1.9138 H   0  0  0  0  0  0  0  0  0  0  0  0
    2.4620    0.4809   -0.9239 H   0  0  0  0  0  0  0  0  0  0  0  0
    1.0602    1.3939   -1.5076 H   0  0  0  0  0  0  0  0  0  0  0  0
    2.4840   -1.0165    0.5949 H   0  0  0  0  0  0  0  0  0  0  0  0
    1.2945   -2.0949   -0.1548 H   0  0  0  0  0  0  0  0  0  0  0  0
    1.1463   -1.5719    1.6156 H   0  0  0  0  0  0  0  0  0  0  0  0
    0.2419    2.6440    0.3539 H   0  0  0  0  0  0  0  0  0  0  0  0
   -0.0874    2.3486    2.0695 H   0  0  0  0  0  0  0  0  0  0  0  0
   -2.1603   -0.8647    1.5555 H   0  0  0  0  0  0  0  0  0  0  0  0
   -2.1311   -1.7146    0.0007 H   0  0  0  0  0  0  0  0  0  0  0  0
   -0.8075   -1.9379    1.1573 H   0  0  0  0  0  0  0  0  0  0  0  0
   -2.0941    1.0091   -1.3093 H   0  0  0  0  0  0  0  0  0  0  0  0
   -1.9319   -0.7303   -1.6032 H   0  0  0  0  0  0  0  0  0  0  0  0
   -0.6136    0.3638   -2.0536 H   0  0  0  0  0  0  0  0  0  0  0  0
  1  2  1  0
  2  3  1  0
  2  4  1  0
  4  5  1  0
  5  6  1  0
  6  7  1  0
  7  8  1  0
  7  9  1  0
  7  2  1  0
  1 10  1  0
  1 11  1  0
  1 12  1  0
  3 13  1  0
  3 14  1  0
  3 15  1  0
  5 16  1  0
  5 17  1  0
  8 18  1  0
  8 19  1  0
  8 20  1  0
  9 21  1  0
  9 22  1  0
  9 23  1  0
M  END
