
     RDKit          3D

 21 22  0  0  0  0  0  0  0  0999 V2000
   -1.7764    1.2454   -0.7674 C   0  0  0  0  0  0  0  0  0  0  0  0
   -0.8691    0.1809   -0.1786 C   0  0  0  0  0  0  0  0  0  0  0  0
    0.5870    0.4188   -0.4262 C   0  0  0  0  0  0  0  0  0  0  0  0
    1.1117    1.5891    0.0737 O   0  0  0  0  0  0  0  0  0  0  0  0
    2.1551    0.8976    0.6395 C   0  0  0  0  0  0  0  0  0  0  0  0
    1.5571   -0.4485    0.3001 C   0  0  0  0  0  0  0  0  0  0  0  0
    2.4018   -1.2051   -0.5449 O   0  0  0  0  0  0  0  0  0  0  0  0
   -1.3095   -1.2663   -0.3182 C   0  0  0  0  0  0  0  0  0  0  0  0
   -1.3842   -0.5313    0.9930 C   0  0  0  0  0  0  0  0  0  0  0  0
   -1.2945    1.8028   -1.5812 H   0  0  0  0  0  0  0  0  0  0  0  0
   -2.0415    1.9834    0.0223 H   0  0  0  0  0  0  0  0  0  0  0  0
   -2.7349    0.7606   -1.0841 H   0  0  0  0  0  0  0  0  0  0  0  0
    0.7914    0.3773   -1.5364 H   0  0  0  0  0  0  0  0  0  0  0  0
    2.1751    1.0340    1.7256 H   0  0  0  0  0  0  0  0  0  0  0  0
    3.1210    1.0839    0.1026 H   0  0  0  0  0  0  0  0  0  0  0  0
    1.1778   -1.0381    1.1446 H   0  0  0  0  0  0  0  0  0  0  0  0
    2.2127   -2.1662   -0.4068 H   0  0  0  0  0  0  0  0  0  0  0  0
   -2.2062   -1.4773   -0.9056 H   0  0  0  0  0  0  0  0  0  0  0  0
   -0.5146   -2.0532   -0.4235 H   0  0  0  0  0  0  0  0  0  0  0  0
   -2.4060   -0.2438    1.3801 H   0  0  0  0  0  0  0  0  0  0  0  0
   -0.7540   -0.9442    1.7914 H   0  0  0  0  0  0  0  0  0  0  0  0
  1  2  1  0
  2  3  1  0
  3  4  1  0
  4  5  1  0
  5  6  1  0
  6  7  1  0
  2  8  1  0
  8  9  1  0
  9  2  1  0
  6  3  1  0
  1 10  1  0
  1 11  1  0
  1 12  1  0
  3 13  1  0
  5 14  1  0
  5 15  1  0
  6 16  1  0
  7 17  1  0
  8 18  1  0
  8 19  1  0
  9 20  1  0
  9 21  1  0
M  END
