
     RDKit          3D

 23 23  0  0  0  0  0  0  0  0999 V2000
   -1.7803   -0.0032   -1.0014 C   0  0  0  0  0  0  0  0  0  0  0  0
   -0.6657   -0.2800   -0.0141 C   0  0  0  0  0  0  0  0  0  0  0  0
   -1.3261   -0.9685    1.1861 C   0  0  0  0  0  0  0  0  0  0  0  0
    0.3423   -1.1611   -0.6800 C   0  0  0  0  0  0  0  0  0  0  0  0
    1.6821   -0.4840   -0.5857 C   0  0  0  0  0  0  0  0  0  0  0  0
    1.4614    0.8795    0.0019 C   0  0  0  0  0  0  0  0  0  0  0  0
    2.3608    1.0264    1.0724 O   0  0  0  0  0  0  0  0  0  0  0  0
    0.0306    0.9583    0.4494 C   0  0  0  0  0  0  0  0  0  0  0  0
   -0.5618    2.1329    0.0029 O   0  0  0  0  0  0  0  0  0  0  0  0
   -2.4765    0.7591   -0.6102 H   0  0  0  0  0  0  0  0  0  0  0  0
   -2.3657   -0.9661   -1.0702 H   0  0  0  0  0  0  0  0  0  0  0  0
   -1.4195    0.1930   -2.0201 H   0  0  0  0  0  0  0  0  0  0  0  0
   -0.5859   -1.2775    1.9383 H   0  0  0  0  0  0  0  0  0  0  0  0
   -1.9309   -1.7827    0.7716 H   0  0  0  0  0  0  0  0  0  0  0  0
   -2.0512   -0.2041    1.5831 H   0  0  0  0  0  0  0  0  0  0  0  0
    0.1228   -1.2849   -1.7716 H   0  0  0  0  0  0  0  0  0  0  0  0
    0.3341   -2.1592   -0.2180 H   0  0  0  0  0  0  0  0  0  0  0  0
    2.3573   -1.1056    0.0474 H   0  0  0  0  0  0  0  0  0  0  0  0
    2.1911   -0.3838   -1.5697 H   0  0  0  0  0  0  0  0  0  0  0  0
    1.7028    1.6996   -0.7124 H   0  0  0  0  0  0  0  0  0  0  0  0
    3.2356    0.6563    0.8658 H   0  0  0  0  0  0  0  0  0  0  0  0
    0.0496    0.9885    1.5768 H   0  0  0  0  0  0  0  0  0  0  0  0
   -0.7067    2.7671    0.7578 H   0  0  0  0  0  0  0  0  0  0  0  0
  1  2  1  0
  2  3  1  0
  2  4  1  0
  4  5  1  0
  5  6  1  0
  6  7  1  0
  6  8  1  0
  8  9  1  0
  8  2  1  0
  1 10  1  0
  1 11  1  0
  1 12  1  0
  3 13  1  0
  3 14  1  0
  3 15  1  0
  4 16  1  0
  4 17  1  0
  5 18  1  0
  5 19  1  0
  6 20  1  0
  7 21  1  0
  8 22  1  0
  9 23  1  0
M  END
