
     RDKit          3D

 19 20  0  0  0  0  0  0  0  0999 V2000
    1.6513   -0.5194   -0.0611 C   0  0  0  0  0  0  0  0  0  0  0  0
    0.4880    0.1503    0.6019 C   0  0  0  0  0  0  0  0  0  0  0  0
    0.4082   -0.1127    1.9587 O   0  0  0  0  0  0  0  0  0  0  0  0
    0.5560    1.6007    0.2995 C   0  0  0  0  0  0  0  0  0  0  0  0
   -0.4343    1.9347   -0.5002 C   0  0  0  0  0  0  0  0  0  0  0  0
   -1.2653    0.7479   -0.8154 C   0  0  0  0  0  0  0  0  0  0  0  0
   -1.9916    0.3039    0.3313 O   0  0  0  0  0  0  0  0  0  0  0  0
   -0.7850   -0.3124   -0.0910 C   0  0  0  0  0  0  0  0  0  0  0  0
   -0.9165   -1.7858   -0.2970 C   0  0  0  0  0  0  0  0  0  0  0  0
    2.6037    0.0291    0.1013 H   0  0  0  0  0  0  0  0  0  0  0  0
    1.8117   -1.5580    0.2349 H   0  0  0  0  0  0  0  0  0  0  0  0
    1.4463   -0.5183   -1.1636 H   0  0  0  0  0  0  0  0  0  0  0  0
    0.4605    0.7736    2.4278 H   0  0  0  0  0  0  0  0  0  0  0  0
    1.3132    2.2591    0.6893 H   0  0  0  0  0  0  0  0  0  0  0  0
   -0.6204    2.9171   -0.8736 H   0  0  0  0  0  0  0  0  0  0  0  0
   -1.7983    0.7241   -1.7820 H   0  0  0  0  0  0  0  0  0  0  0  0
   -0.0500   -2.3733    0.0541 H   0  0  0  0  0  0  0  0  0  0  0  0
   -1.8016   -2.1908    0.2498 H   0  0  0  0  0  0  0  0  0  0  0  0
   -1.0760   -2.0698   -1.3647 H   0  0  0  0  0  0  0  0  0  0  0  0
  1  2  1  0
  2  3  1  0
  2  4  1  0
  4  5  2  0
  5  6  1  0
  6  7  1  0
  7  8  1  0
  8  9  1  0
  8  2  1  0
  8  6  1  0
  1 10  1  0
  1 11  1  0
  1 12  1  0
  3 13  1  0
  4 14  1  0
  5 15  1  0
  6 16  1  0
  9 17  1  0
  9 18  1  0
  9 19  1  0
M  END
