
     RDKit          3D

 17 17  0  0  0  0  0  0  0  0999 V2000
    1.2235   -0.9342   -0.8960 C   0  0  0  0  0  0  0  0  0  0  0  0
    0.3279   -0.3807    0.1961 C   0  0  0  0  0  0  0  0  0  0  0  0
    0.3585   -1.1235    1.3582 O   0  0  0  0  0  0  0  0  0  0  0  0
    0.7101    1.0682    0.4584 C   0  0  0  0  0  0  0  0  0  0  0  0
   -0.7326    1.4475    0.2501 C   0  0  0  0  0  0  0  0  0  0  0  0
   -1.0317    0.0667   -0.2511 C   0  0  0  0  0  0  0  0  0  0  0  0
   -2.0150   -0.5924    0.4957 O   0  0  0  0  0  0  0  0  0  0  0  0
    1.1718   -0.2406   -1.7659 H   0  0  0  0  0  0  0  0  0  0  0  0
    0.9921   -1.9746   -1.1577 H   0  0  0  0  0  0  0  0  0  0  0  0
    2.2747   -0.8228   -0.5062 H   0  0  0  0  0  0  0  0  0  0  0  0
   -0.2236   -1.9110    1.3540 H   0  0  0  0  0  0  0  0  0  0  0  0
    1.4130    1.5052   -0.2692 H   0  0  0  0  0  0  0  0  0  0  0  0
    1.0864    1.2654    1.4877 H   0  0  0  0  0  0  0  0  0  0  0  0
   -1.2486    1.7275    1.1778 H   0  0  0  0  0  0  0  0  0  0  0  0
   -0.7983    2.2420   -0.5350 H   0  0  0  0  0  0  0  0  0  0  0  0
   -1.2270    0.0383   -1.3324 H   0  0  0  0  0  0  0  0  0  0  0  0
   -2.2813   -1.3813   -0.0644 H   0  0  0  0  0  0  0  0  0  0  0  0
  1  2  1  0
  2  3  1  0
  2  4  1  0
  4  5  1  0
  5  6  1  0
  6  7  1  0
  6  2  1  0
  1  8  1  0
  1  9  1  0
  1 10  1  0
  3 11  1  0
  4 12  1  0
  4 13  1  0
  5 14  1  0
  5 15  1  0
  6 16  1  0
  7 17  1  0
M  END
