
     RDKit          3D

 23 24  0  0  0  0  0  0  0  0999 V2000
    1.8761   -1.1029   -0.8331 C   0  0  0  0  0  0  0  0  0  0  0  0
    1.2636   -0.2276    0.2233 C   0  0  0  0  0  0  0  0  0  0  0  0
    2.3990    0.6073    0.8353 C   0  0  0  0  0  0  0  0  0  0  0  0
    0.5774   -0.9961    1.1483 O   0  0  0  0  0  0  0  0  0  0  0  0
   -0.4519   -0.0840    1.1024 C   0  0  0  0  0  0  0  0  0  0  0  0
    0.0689    0.5663   -0.1596 C   0  0  0  0  0  0  0  0  0  0  0  0
   -1.3105    0.0984   -0.0830 C   0  0  0  0  0  0  0  0  0  0  0  0
   -2.3808    1.1721    0.0645 C   0  0  0  0  0  0  0  0  0  0  0  0
   -1.8347   -1.0677   -0.8738 C   0  0  0  0  0  0  0  0  0  0  0  0
    1.1750   -1.7096   -1.3945 H   0  0  0  0  0  0  0  0  0  0  0  0
    2.5749   -1.8106   -0.3051 H   0  0  0  0  0  0  0  0  0  0  0  0
    2.5099   -0.5365   -1.5434 H   0  0  0  0  0  0  0  0  0  0  0  0
    2.5536    1.4588    0.1171 H   0  0  0  0  0  0  0  0  0  0  0  0
    2.0921    1.0704    1.7807 H   0  0  0  0  0  0  0  0  0  0  0  0
    3.3358    0.0534    0.8725 H   0  0  0  0  0  0  0  0  0  0  0  0
   -0.6087    0.5077    2.0057 H   0  0  0  0  0  0  0  0  0  0  0  0
    0.2479    1.6819   -0.1476 H   0  0  0  0  0  0  0  0  0  0  0  0
   -2.0722    1.9113    0.8513 H   0  0  0  0  0  0  0  0  0  0  0  0
   -3.3434    0.7203    0.4249 H   0  0  0  0  0  0  0  0  0  0  0  0
   -2.5624    1.6860   -0.9031 H   0  0  0  0  0  0  0  0  0  0  0  0
   -1.1741   -1.9146   -0.9498 H   0  0  0  0  0  0  0  0  0  0  0  0
   -2.7836   -1.3917   -0.3640 H   0  0  0  0  0  0  0  0  0  0  0  0
   -2.1520   -0.6927   -1.8690 H   0  0  0  0  0  0  0  0  0  0  0  0
  1  2  1  0
  2  3  1  0
  2  4  1  0
  4  5  1  0
  5  6  1  0
  6  7  1  0
  7  8  1  0
  7  9  1  0
  6  2  1  0
  7  5  1  0
  1 10  1  0
  1 11  1  0
  1 12  1  0
  3 13  1  0
  3 14  1  0
  3 15  1  0
  5 16  1  0
  6 17  1  0
  8 18  1  0
  8 19  1  0
  8 20  1  0
  9 21  1  0
  9 22  1  0
  9 23  1  0
M  END
