
     RDKit          3D

 25 25  0  0  0  0  0  0  0  0999 V2000
   -2.2621   -0.2611   -0.7704 C   0  0  0  0  0  0  0  0  0  0  0  0
   -0.8985   -0.0252   -0.1391 C   0  0  0  0  0  0  0  0  0  0  0  0
   -1.0954    0.0704    1.3415 C   0  0  0  0  0  0  0  0  0  0  0  0
   -0.4104    1.3047   -0.6746 C   0  0  0  0  0  0  0  0  0  0  0  0
    0.7767    1.7563    0.0700 C   0  0  0  0  0  0  0  0  0  0  0  0
    1.8704    1.0476    0.3336 C   0  0  0  0  0  0  0  0  0  0  0  0
    2.2686   -0.3138    0.0151 C   0  0  0  0  0  0  0  0  0  0  0  0
    1.2096   -1.3580    0.2469 C   0  0  0  0  0  0  0  0  0  0  0  0
   -0.0286   -1.1690   -0.5568 C   0  0  0  0  0  0  0  0  0  0  0  0
   -2.6994    0.6727   -1.1739 H   0  0  0  0  0  0  0  0  0  0  0  0
   -2.9872   -0.6664   -0.0385 H   0  0  0  0  0  0  0  0  0  0  0  0
   -2.2076   -0.9735   -1.6129 H   0  0  0  0  0  0  0  0  0  0  0  0
   -1.8376    0.8833    1.5254 H   0  0  0  0  0  0  0  0  0  0  0  0
   -0.1829    0.3362    1.9025 H   0  0  0  0  0  0  0  0  0  0  0  0
   -1.5408   -0.8752    1.7113 H   0  0  0  0  0  0  0  0  0  0  0  0
   -0.1148    1.1505   -1.7260 H   0  0  0  0  0  0  0  0  0  0  0  0
   -1.2243    2.0329   -0.5355 H   0  0  0  0  0  0  0  0  0  0  0  0
    0.7511    2.7921    0.4467 H   0  0  0  0  0  0  0  0  0  0  0  0
    2.5922    1.6267    0.9007 H   0  0  0  0  0  0  0  0  0  0  0  0
    2.6094   -0.4095   -1.0522 H   0  0  0  0  0  0  0  0  0  0  0  0
    3.1471   -0.6155    0.6233 H   0  0  0  0  0  0  0  0  0  0  0  0
    1.6527   -2.3262   -0.1143 H   0  0  0  0  0  0  0  0  0  0  0  0
    1.0192   -1.5097    1.3300 H   0  0  0  0  0  0  0  0  0  0  0  0
    0.2262   -1.0700   -1.6084 H   0  0  0  0  0  0  0  0  0  0  0  0
   -0.6335   -2.1003   -0.4442 H   0  0  0  0  0  0  0  0  0  0  0  0
  1  2  1  0
  2  3  1  0
  2  4  1  0
  4  5  1  0
  5  6  2  0
  6  7  1  0
  7  8  1  0
  8  9  1  0
  9  2  1  0
  1 10  1  0
  1 11  1  0
  1 12  1  0
  3 13  1  0
  3 14  1  0
  3 15  1  0
  4 16  1  0
  4 17  1  0
  5 18  1  0
  6 19  1  0
  7 20  1  0
  7 21  1  0
  8 22  1  0
  8 23  1  0
  9 24  1  0
  9 25  1  0
M  END
