
     RDKit          3D

 21 21  0  0  0  0  0  0  0  0999 V2000
    0.9547    1.5689    0.1445 C   0  0  0  0  0  0  0  0  0  0  0  0
    0.6226    0.1159    0.1173 C   0  0  0  0  0  0  0  0  0  0  0  0
    1.7274   -0.6756   -0.5443 C   0  0  0  0  0  0  0  0  0  0  0  0
    0.1505   -0.4908    1.4127 C   0  0  0  0  0  0  0  0  0  0  0  0
   -0.6839   -1.3960    0.5679 C   0  0  0  0  0  0  0  0  0  0  0  0
   -1.1428   -2.5132    0.6240 O   0  0  0  0  0  0  0  0  0  0  0  0
   -0.7100   -0.2782   -0.4218 C   0  0  0  0  0  0  0  0  0  0  0  0
   -1.8634    0.6272   -0.1343 C   0  0  0  0  0  0  0  0  0  0  0  0
   -0.6174   -0.6811   -1.7485 O   0  0  0  0  0  0  0  0  0  0  0  0
    0.2494    2.1990    0.6993 H   0  0  0  0  0  0  0  0  0  0  0  0
    1.0846    1.9103   -0.9032 H   0  0  0  0  0  0  0  0  0  0  0  0
    1.9457    1.6811    0.6377 H   0  0  0  0  0  0  0  0  0  0  0  0
    1.4184   -0.8430   -1.6111 H   0  0  0  0  0  0  0  0  0  0  0  0
    2.6768   -0.1063   -0.5496 H   0  0  0  0  0  0  0  0  0  0  0  0
    1.8313   -1.6729   -0.0530 H   0  0  0  0  0  0  0  0  0  0  0  0
   -0.5145    0.2155    1.9457 H   0  0  0  0  0  0  0  0  0  0  0  0
    0.9146   -0.9888    2.0244 H   0  0  0  0  0  0  0  0  0  0  0  0
   -2.4881    0.2783    0.7379 H   0  0  0  0  0  0  0  0  0  0  0  0
   -1.6034    1.6767    0.0247 H   0  0  0  0  0  0  0  0  0  0  0  0
   -2.5435    0.5936   -1.0158 H   0  0  0  0  0  0  0  0  0  0  0  0
   -1.4091   -1.2208   -1.9545 H   0  0  0  0  0  0  0  0  0  0  0  0
  1  2  1  0
  2  3  1  0
  2  4  1  0
  4  5  1  0
  5  6  2  0
  5  7  1  0
  7  8  1  0
  7  9  1  0
  7  2  1  0
  1 10  1  0
  1 11  1  0
  1 12  1  0
  3 13  1  0
  3 14  1  0
  3 15  1  0
  4 16  1  0
  4 17  1  0
  8 18  1  0
  8 19  1  0
  8 20  1  0
  9 21  1  0
M  END
