
     RDKit          3D

 23 24  0  0  0  0  0  0  0  0999 V2000
   -2.1946   -0.1605    0.6461 C   0  0  0  0  0  0  0  0  0  0  0  0
   -0.8225   -0.2220   -0.0398 C   0  0  0  0  0  0  0  0  0  0  0  0
   -0.6681   -1.5614   -0.6909 C   0  0  0  0  0  0  0  0  0  0  0  0
   -0.7031    0.9583   -0.9746 C   0  0  0  0  0  0  0  0  0  0  0  0
    0.4527    1.4450   -0.1346 C   0  0  0  0  0  0  0  0  0  0  0  0
    1.6827    1.3885   -0.7033 O   0  0  0  0  0  0  0  0  0  0  0  0
    2.3457    0.2653   -0.3094 C   0  0  0  0  0  0  0  0  0  0  0  0
    1.5857   -0.3772    0.8139 C   0  0  0  0  0  0  0  0  0  0  0  0
    0.2756    0.2879    0.7973 C   0  0  0  0  0  0  0  0  0  0  0  0
   -2.4424   -1.1103    1.1309 H   0  0  0  0  0  0  0  0  0  0  0  0
   -2.9764    0.1860   -0.0727 H   0  0  0  0  0  0  0  0  0  0  0  0
   -2.1125    0.6605    1.4000 H   0  0  0  0  0  0  0  0  0  0  0  0
   -1.0343   -2.3416    0.0310 H   0  0  0  0  0  0  0  0  0  0  0  0
    0.3567   -1.7288   -1.0184 H   0  0  0  0  0  0  0  0  0  0  0  0
   -1.4028   -1.6259   -1.5476 H   0  0  0  0  0  0  0  0  0  0  0  0
   -0.4697    0.7181   -2.0261 H   0  0  0  0  0  0  0  0  0  0  0  0
   -1.5314    1.6861   -0.9426 H   0  0  0  0  0  0  0  0  0  0  0  0
    0.2655    2.4083    0.3983 H   0  0  0  0  0  0  0  0  0  0  0  0
    2.3851   -0.4491   -1.1470 H   0  0  0  0  0  0  0  0  0  0  0  0
    3.3775    0.5742    0.0146 H   0  0  0  0  0  0  0  0  0  0  0  0
    1.5934   -1.4676    0.7750 H   0  0  0  0  0  0  0  0  0  0  0  0
    2.1220   -0.0886    1.7659 H   0  0  0  0  0  0  0  0  0  0  0  0
   -0.0849    0.5548    1.8341 H   0  0  0  0  0  0  0  0  0  0  0  0
  1  2  1  0
  2  3  1  0
  2  4  1  0
  4  5  1  0
  5  6  1  0
  6  7  1  0
  7  8  1  0
  8  9  1  0
  9  2  1  0
  9  5  1  0
  1 10  1  0
  1 11  1  0
  1 12  1  0
  3 13  1  0
  3 14  1  0
  3 15  1  0
  4 16  1  0
  4 17  1  0
  5 18  1  0
  7 19  1  0
  7 20  1  0
  8 21  1  0
  8 22  1  0
  9 23  1  0
M  END
