
     RDKit          3D

 22 22  0  0  0  0  0  0  0  0999 V2000
   -1.4236   -1.0298    0.8511 C   0  0  0  0  0  0  0  0  0  0  0  0
   -0.6610   -0.0511   -0.0321 C   0  0  0  0  0  0  0  0  0  0  0  0
   -1.6345    0.7964   -0.8281 C   0  0  0  0  0  0  0  0  0  0  0  0
    0.2164   -0.7862   -1.0143 C   0  0  0  0  0  0  0  0  0  0  0  0
    1.5467   -1.1178   -0.4553 C   0  0  0  0  0  0  0  0  0  0  0  0
    2.2189   -0.1670    0.1951 C   0  0  0  0  0  0  0  0  0  0  0  0
    1.5167    1.1658    0.2809 C   0  0  0  0  0  0  0  0  0  0  0  0
    0.1414    0.8516    0.8726 C   0  0  0  0  0  0  0  0  0  0  0  0
   -2.5195   -0.9458    0.6928 H   0  0  0  0  0  0  0  0  0  0  0  0
   -1.0385   -2.0463    0.6314 H   0  0  0  0  0  0  0  0  0  0  0  0
   -1.2402   -0.8444    1.9289 H   0  0  0  0  0  0  0  0  0  0  0  0
   -2.6627    0.5609   -0.4863 H   0  0  0  0  0  0  0  0  0  0  0  0
   -1.3958    1.8860   -0.6939 H   0  0  0  0  0  0  0  0  0  0  0  0
   -1.6037    0.5765   -1.9120 H   0  0  0  0  0  0  0  0  0  0  0  0
   -0.2887   -1.7410   -1.3211 H   0  0  0  0  0  0  0  0  0  0  0  0
    0.3138   -0.1810   -1.9598 H   0  0  0  0  0  0  0  0  0  0  0  0
    2.0129   -2.0935   -0.5422 H   0  0  0  0  0  0  0  0  0  0  0  0
    3.1872   -0.3466    0.6222 H   0  0  0  0  0  0  0  0  0  0  0  0
    1.3760    1.5634   -0.7354 H   0  0  0  0  0  0  0  0  0  0  0  0
    2.0142    1.8524    0.9585 H   0  0  0  0  0  0  0  0  0  0  0  0
    0.3333    0.3183    1.8244 H   0  0  0  0  0  0  0  0  0  0  0  0
   -0.4094    1.7792    1.1227 H   0  0  0  0  0  0  0  0  0  0  0  0
  1  2  1  0
  2  3  1  0
  2  4  1  0
  4  5  1  0
  5  6  2  0
  6  7  1  0
  7  8  1  0
  8  2  1  0
  1  9  1  0
  1 10  1  0
  1 11  1  0
  3 12  1  0
  3 13  1  0
  3 14  1  0
  4 15  1  0
  4 16  1  0
  5 17  1  0
  6 18  1  0
  7 19  1  0
  7 20  1  0
  8 21  1  0
  8 22  1  0
M  END
