
     RDKit          3D

 19 20  0  0  0  0  0  0  0  0999 V2000
   -1.5459    0.8693    0.9000 C   0  0  0  0  0  0  0  0  0  0  0  0
   -0.8060    0.0129   -0.0902 C   0  0  0  0  0  0  0  0  0  0  0  0
   -1.6502   -0.9596   -0.8661 C   0  0  0  0  0  0  0  0  0  0  0  0
    0.0186    0.8271   -0.8911 O   0  0  0  0  0  0  0  0  0  0  0  0
    1.2029    0.4171   -0.2934 C   0  0  0  0  0  0  0  0  0  0  0  0
    2.3249    0.0507   -1.1805 C   0  0  0  0  0  0  0  0  0  0  0  0
    2.2500    0.0944   -2.3787 O   0  0  0  0  0  0  0  0  0  0  0  0
    1.3475    0.3621    1.1753 C   0  0  0  0  0  0  0  0  0  0  0  0
    0.4489   -0.5913    0.4713 C   0  0  0  0  0  0  0  0  0  0  0  0
   -0.9746    1.8055    1.1050 H   0  0  0  0  0  0  0  0  0  0  0  0
   -1.7201    0.3535    1.8638 H   0  0  0  0  0  0  0  0  0  0  0  0
   -2.4866    1.1968    0.4095 H   0  0  0  0  0  0  0  0  0  0  0  0
   -2.6155   -0.4903   -1.1172 H   0  0  0  0  0  0  0  0  0  0  0  0
   -1.0663   -1.2216   -1.7936 H   0  0  0  0  0  0  0  0  0  0  0  0
   -1.8346   -1.8935   -0.3230 H   0  0  0  0  0  0  0  0  0  0  0  0
    3.2500   -0.2696   -0.7178 H   0  0  0  0  0  0  0  0  0  0  0  0
    2.2837   -0.0626    1.5539 H   0  0  0  0  0  0  0  0  0  0  0  0
    0.8955    1.1481    1.8248 H   0  0  0  0  0  0  0  0  0  0  0  0
    0.6780   -1.6488    0.3481 H   0  0  0  0  0  0  0  0  0  0  0  0
  1  2  1  0
  2  3  1  0
  2  4  1  0
  4  5  1  0
  5  6  1  0
  6  7  2  0
  5  8  1  0
  8  9  1  0
  9  2  1  0
  9  5  1  0
  1 10  1  0
  1 11  1  0
  1 12  1  0
  3 13  1  0
  3 14  1  0
  3 15  1  0
  6 16  1  0
  8 17  1  0
  8 18  1  0
  9 19  1  0
M  END
