
     RDKit          3D

 19 19  0  0  0  0  0  0  0  0999 V2000
   -1.2901   -0.7255   -1.1900 C   0  0  0  0  0  0  0  0  0  0  0  0
   -0.6791   -0.2936    0.1115 C   0  0  0  0  0  0  0  0  0  0  0  0
   -1.3289    0.8790    0.7642 C   0  0  0  0  0  0  0  0  0  0  0  0
   -0.5420   -1.3516    1.0786 O   0  0  0  0  0  0  0  0  0  0  0  0
    0.5933   -0.6287    1.5093 C   0  0  0  0  0  0  0  0  0  0  0  0
    1.1372   -0.3754    2.6219 O   0  0  0  0  0  0  0  0  0  0  0  0
    0.8011   -0.3412    0.0731 C   0  0  0  0  0  0  0  0  0  0  0  0
    1.5535    0.8911   -0.2627 C   0  0  0  0  0  0  0  0  0  0  0  0
    1.2876   -1.4546   -0.5668 O   0  0  0  0  0  0  0  0  0  0  0  0
   -0.4902   -0.9153   -1.9618 H   0  0  0  0  0  0  0  0  0  0  0  0
   -1.9170    0.0843   -1.6358 H   0  0  0  0  0  0  0  0  0  0  0  0
   -1.9035   -1.6331   -1.1226 H   0  0  0  0  0  0  0  0  0  0  0  0
   -2.2713    1.1823    0.2191 H   0  0  0  0  0  0  0  0  0  0  0  0
   -0.7101    1.7730    0.8525 H   0  0  0  0  0  0  0  0  0  0  0  0
   -1.6969    0.6557    1.8101 H   0  0  0  0  0  0  0  0  0  0  0  0
    2.6415    0.6811   -0.0382 H   0  0  0  0  0  0  0  0  0  0  0  0
    1.5116    1.0477   -1.3527 H   0  0  0  0  0  0  0  0  0  0  0  0
    1.2301    1.8036    0.2249 H   0  0  0  0  0  0  0  0  0  0  0  0
    2.0732   -1.2787   -1.1344 H   0  0  0  0  0  0  0  0  0  0  0  0
  1  2  1  0
  2  3  1  0
  2  4  1  0
  4  5  1  0
  5  6  2  0
  5  7  1  0
  7  8  1  0
  7  9  1  0
  7  2  1  0
  1 10  1  0
  1 11  1  0
  1 12  1  0
  3 13  1  0
  3 14  1  0
  3 15  1  0
  8 16  1  0
  8 17  1  0
  8 18  1  0
  9 19  1  0
M  END
