
     RDKit          3D

 20 21  0  0  0  0  0  0  0  0999 V2000
    1.7363   -0.6587   -0.1878 C   0  0  0  0  0  0  0  0  0  0  0  0
    0.7361    0.4321   -0.3110 C   0  0  0  0  0  0  0  0  0  0  0  0
    1.2267    1.6924   -0.6588 O   0  0  0  0  0  0  0  0  0  0  0  0
   -0.1997    0.6007    0.8941 C   0  0  0  0  0  0  0  0  0  0  0  0
   -0.7576   -0.7680    1.0895 C   0  0  0  0  0  0  0  0  0  0  0  0
   -1.0530   -1.1374   -0.3781 C   0  0  0  0  0  0  0  0  0  0  0  0
   -0.5389    0.1172   -1.0354 C   0  0  0  0  0  0  0  0  0  0  0  0
   -1.1635    1.1924   -0.1311 C   0  0  0  0  0  0  0  0  0  0  0  0
    2.7478   -0.2198   -0.4310 H   0  0  0  0  0  0  0  0  0  0  0  0
    1.8019   -1.0288    0.8420 H   0  0  0  0  0  0  0  0  0  0  0  0
    1.5876   -1.4892   -0.9088 H   0  0  0  0  0  0  0  0  0  0  0  0
    1.9078    2.0270   -0.0342 H   0  0  0  0  0  0  0  0  0  0  0  0
    0.1226    1.1996    1.6979 H   0  0  0  0  0  0  0  0  0  0  0  0
   -0.0883   -1.4809    1.5631 H   0  0  0  0  0  0  0  0  0  0  0  0
   -1.6968   -0.6788    1.6689 H   0  0  0  0  0  0  0  0  0  0  0  0
   -2.1614   -1.2078   -0.5281 H   0  0  0  0  0  0  0  0  0  0  0  0
   -0.5250   -2.0486   -0.6768 H   0  0  0  0  0  0  0  0  0  0  0  0
   -0.6178    0.2477   -2.0809 H   0  0  0  0  0  0  0  0  0  0  0  0
   -2.2193    1.0156    0.0563 H   0  0  0  0  0  0  0  0  0  0  0  0
   -0.8456    2.1934   -0.4499 H   0  0  0  0  0  0  0  0  0  0  0  0
  1  2  1  0
  2  3  1  0
  2  4  1  0
  4  5  1  0
  5  6  1  0
  6  7  1  0
  7  8  1  0
  7  2  1  0
  8  4  1  0
  1  9  1  0
  1 10  1  0
  1 11  1  0
  3 12  1  0
  4 13  1  0
  5 14  1  0
  5 15  1  0
  6 16  1  0
  6 17  1  0
  7 18  1  0
  8 19  1  0
  8 20  1  0
M  END
