
     RDKit          3D

 23 24  0  0  0  0  0  0  0  0999 V2000
   -2.0636   -0.6746   -0.7364 C   0  0  0  0  0  0  0  0  0  0  0  0
   -0.9246   -0.4402    0.2541 C   0  0  0  0  0  0  0  0  0  0  0  0
   -1.0183   -1.2458    1.3650 O   0  0  0  0  0  0  0  0  0  0  0  0
   -0.9777    0.9985    0.6711 C   0  0  0  0  0  0  0  0  0  0  0  0
    0.2692    1.6651    0.1800 C   0  0  0  0  0  0  0  0  0  0  0  0
    1.0046    0.6824   -0.6811 C   0  0  0  0  0  0  0  0  0  0  0  0
    2.2678    0.1399   -0.0732 C   0  0  0  0  0  0  0  0  0  0  0  0
    1.5267   -1.1320    0.3260 C   0  0  0  0  0  0  0  0  0  0  0  0
    0.3605   -0.6560   -0.4867 C   0  0  0  0  0  0  0  0  0  0  0  0
   -2.3474    0.2995   -1.2043 H   0  0  0  0  0  0  0  0  0  0  0  0
   -1.7210   -1.3110   -1.5967 H   0  0  0  0  0  0  0  0  0  0  0  0
   -2.9061   -1.1312   -0.2112 H   0  0  0  0  0  0  0  0  0  0  0  0
   -1.9367   -1.5376    1.5357 H   0  0  0  0  0  0  0  0  0  0  0  0
   -1.1169    1.1171    1.7800 H   0  0  0  0  0  0  0  0  0  0  0  0
   -1.8467    1.5431    0.2190 H   0  0  0  0  0  0  0  0  0  0  0  0
    0.9102    1.9688    1.0299 H   0  0  0  0  0  0  0  0  0  0  0  0
    0.0573    2.5740   -0.4364 H   0  0  0  0  0  0  0  0  0  0  0  0
    1.0761    0.9212   -1.7565 H   0  0  0  0  0  0  0  0  0  0  0  0
    2.6699    0.7159    0.7958 H   0  0  0  0  0  0  0  0  0  0  0  0
    3.0558   -0.0159   -0.8422 H   0  0  0  0  0  0  0  0  0  0  0  0
    2.0519   -2.0140   -0.1297 H   0  0  0  0  0  0  0  0  0  0  0  0
    1.3730   -1.1947    1.4171 H   0  0  0  0  0  0  0  0  0  0  0  0
    0.2363   -1.2724   -1.4194 H   0  0  0  0  0  0  0  0  0  0  0  0
  1  2  1  0
  2  3  1  0
  2  4  1  0
  4  5  1  0
  5  6  1  0
  6  7  1  0
  7  8  1  0
  8  9  1  0
  9  2  1  0
  9  6  1  0
  1 10  1  0
  1 11  1  0
  1 12  1  0
  3 13  1  0
  4 14  1  0
  4 15  1  0
  5 16  1  0
  5 17  1  0
  6 18  1  0
  7 19  1  0
  7 20  1  0
  8 21  1  0
  8 22  1  0
  9 23  1  0
M  END
