
     RDKit          3D

 23 24  0  0  0  0  0  0  0  0999 V2000
   -0.8823    0.3339    1.8026 C   0  0  0  0  0  0  0  0  0  0  0  0
   -0.6106   -0.0873    0.4055 C   0  0  0  0  0  0  0  0  0  0  0  0
   -1.7788    0.2757   -0.4827 C   0  0  0  0  0  0  0  0  0  0  0  0
   -0.0334   -1.4474    0.1910 C   0  0  0  0  0  0  0  0  0  0  0  0
    1.2668   -0.9262    0.7311 C   0  0  0  0  0  0  0  0  0  0  0  0
    0.7521    0.1906   -0.1491 C   0  0  0  0  0  0  0  0  0  0  0  0
    1.3506    1.3928   -0.3917 C   0  0  0  0  0  0  0  0  0  0  0  0
    0.5219   -0.9402   -1.1113 C   0  0  0  0  0  0  0  0  0  0  0  0
   -0.2960   -0.7655   -2.1600 O   0  0  0  0  0  0  0  0  0  0  0  0
   -1.5037    1.2754    1.7564 H   0  0  0  0  0  0  0  0  0  0  0  0
   -0.0337    0.5633    2.4260 H   0  0  0  0  0  0  0  0  0  0  0  0
   -1.5855   -0.4205    2.2626 H   0  0  0  0  0  0  0  0  0  0  0  0
   -2.2732   -0.6119   -0.9309 H   0  0  0  0  0  0  0  0  0  0  0  0
   -1.4597    1.0291   -1.2259 H   0  0  0  0  0  0  0  0  0  0  0  0
   -2.6057    0.7898    0.0927 H   0  0  0  0  0  0  0  0  0  0  0  0
   -0.4517   -2.3408    0.3640 H   0  0  0  0  0  0  0  0  0  0  0  0
    2.1159   -1.4411    0.2212 H   0  0  0  0  0  0  0  0  0  0  0  0
    1.3740   -0.7542    1.7784 H   0  0  0  0  0  0  0  0  0  0  0  0
    1.4882    1.6575   -1.4792 H   0  0  0  0  0  0  0  0  0  0  0  0
    2.3908    1.5071    0.0359 H   0  0  0  0  0  0  0  0  0  0  0  0
    0.8019    2.2873    0.0259 H   0  0  0  0  0  0  0  0  0  0  0  0
    1.4520   -1.4948   -1.3826 H   0  0  0  0  0  0  0  0  0  0  0  0
   -0.0000   -0.0723   -2.7800 H   0  0  0  0  0  0  0  0  0  0  0  0
  1  2  1  0
  2  3  1  0
  2  4  1  0
  4  5  1  0
  5  6  1  0
  6  7  1  0
  6  8  1  0
  8  9  1  0
  6  2  1  0
  8  4  1  0
  1 10  1  0
  1 11  1  0
  1 12  1  0
  3 13  1  0
  3 14  1  0
  3 15  1  0
  4 16  1  0
  5 17  1  0
  5 18  1  0
  7 19  1  0
  7 20  1  0
  7 21  1  0
  8 22  1  0
  9 23  1  0
M  END
