
     RDKit          3D

 20 20  0  0  0  0  0  0  0  0999 V2000
   -1.7843   -0.2466    0.8078 C   0  0  0  0  0  0  0  0  0  0  0  0
   -0.7026   -0.0622   -0.2672 C   0  0  0  0  0  0  0  0  0  0  0  0
   -1.4233   -0.0155   -1.4850 O   0  0  0  0  0  0  0  0  0  0  0  0
    0.1594   -1.2638   -0.3052 C   0  0  0  0  0  0  0  0  0  0  0  0
    1.6177   -1.0170   -0.1262 C   0  0  0  0  0  0  0  0  0  0  0  0
    1.9688    0.1899   -0.7184 O   0  0  0  0  0  0  0  0  0  0  0  0
    1.4410    1.1844    0.1396 C   0  0  0  0  0  0  0  0  0  0  0  0
   -0.0239    1.2384   -0.0976 C   0  0  0  0  0  0  0  0  0  0  0  0
   -2.3142   -1.1946    0.5052 H   0  0  0  0  0  0  0  0  0  0  0  0
   -1.3557   -0.4338    1.7953 H   0  0  0  0  0  0  0  0  0  0  0  0
   -2.5173    0.5891    0.7819 H   0  0  0  0  0  0  0  0  0  0  0  0
   -2.0466    0.7581   -1.3935 H   0  0  0  0  0  0  0  0  0  0  0  0
    0.0427   -1.8574   -1.2604 H   0  0  0  0  0  0  0  0  0  0  0  0
   -0.1470   -2.0010    0.4955 H   0  0  0  0  0  0  0  0  0  0  0  0
    2.2251   -1.8034   -0.6126 H   0  0  0  0  0  0  0  0  0  0  0  0
    1.8548   -0.9591    0.9602 H   0  0  0  0  0  0  0  0  0  0  0  0
    1.9324    2.1328   -0.2013 H   0  0  0  0  0  0  0  0  0  0  0  0
    1.7513    1.0299    1.1757 H   0  0  0  0  0  0  0  0  0  0  0  0
   -0.4829    1.7932    0.7743 H   0  0  0  0  0  0  0  0  0  0  0  0
   -0.1954    1.9386   -0.9681 H   0  0  0  0  0  0  0  0  0  0  0  0
  1  2  1  0
  2  3  1  0
  2  4  1  0
  4  5  1  0
  5  6  1  0
  6  7  1  0
  7  8  1  0
  8  2  1  0
  1  9  1  0
  1 10  1  0
  1 11  1  0
  3 12  1  0
  4 13  1  0
  4 14  1  0
  5 15  1  0
  5 16  1  0
  7 17  1  0
  7 18  1  0
  8 19  1  0
  8 20  1  0
M  END
