
     RDKit          3D

 23 23  0  0  0  0  0  0  0  0999 V2000
   -0.4069    0.3006    1.7020 C   0  0  0  0  0  0  0  0  0  0  0  0
   -0.2039    0.1519    0.2342 C   0  0  0  0  0  0  0  0  0  0  0  0
    1.1914    0.4489   -0.2654 C   0  0  0  0  0  0  0  0  0  0  0  0
    2.2222   -0.4412    0.3458 C   0  0  0  0  0  0  0  0  0  0  0  0
    3.4653   -0.0756   -0.1885 O   0  0  0  0  0  0  0  0  0  0  0  0
   -0.7901   -1.1371   -0.3273 C   0  0  0  0  0  0  0  0  0  0  0  0
   -2.1257   -0.3818   -0.3241 C   0  0  0  0  0  0  0  0  0  0  0  0
   -1.2693    0.8679   -0.5754 C   0  0  0  0  0  0  0  0  0  0  0  0
   -0.9832    0.9302   -1.9457 O   0  0  0  0  0  0  0  0  0  0  0  0
    0.5323    0.6996    2.1391 H   0  0  0  0  0  0  0  0  0  0  0  0
   -1.2413    0.9922    1.9693 H   0  0  0  0  0  0  0  0  0  0  0  0
   -0.6591   -0.6728    2.2084 H   0  0  0  0  0  0  0  0  0  0  0  0
    1.4219    1.4951    0.0728 H   0  0  0  0  0  0  0  0  0  0  0  0
    1.2092    0.4706   -1.3604 H   0  0  0  0  0  0  0  0  0  0  0  0
    2.2195   -0.2955    1.4348 H   0  0  0  0  0  0  0  0  0  0  0  0
    2.0669   -1.5120    0.1087 H   0  0  0  0  0  0  0  0  0  0  0  0
    3.3796    0.0950   -1.1697 H   0  0  0  0  0  0  0  0  0  0  0  0
   -0.7634   -1.9934    0.3585 H   0  0  0  0  0  0  0  0  0  0  0  0
   -0.4941   -1.3235   -1.3651 H   0  0  0  0  0  0  0  0  0  0  0  0
   -2.8054   -0.6454   -1.1296 H   0  0  0  0  0  0  0  0  0  0  0  0
   -2.5200   -0.3969    0.7061 H   0  0  0  0  0  0  0  0  0  0  0  0
   -1.6653    1.7887   -0.1385 H   0  0  0  0  0  0  0  0  0  0  0  0
   -1.7808    0.6341   -2.4900 H   0  0  0  0  0  0  0  0  0  0  0  0
  1  2  1  0
  2  3  1  0
  3  4  1  0
  4  5  1  0
  2  6  1  0
  6  7  1  0
  7  8  1  0
  8  9  1  0
  8  2  1  0
  1 10  1  0
  1 11  1  0
  1 12  1  0
  3 13  1  0
  3 14  1  0
  4 15  1  0
  4 16  1  0
  5 17  1  0
  6 18  1  0
  6 19  1  0
  7 20  1  0
  7 21  1  0
  8 22  1  0
  9 23  1  0
M  END
