
     RDKit          3D

 21 21  0  0  0  0  0  0  0  0999 V2000
    1.8661    0.8430    0.0543 C   0  0  0  0  0  0  0  0  0  0  0  0
    0.9079   -0.2892    0.3379 C   0  0  0  0  0  0  0  0  0  0  0  0
    0.9869   -0.8673    1.6836 C   0  0  0  0  0  0  0  0  0  0  0  0
    0.2919   -1.7845    2.0852 O   0  0  0  0  0  0  0  0  0  0  0  0
    0.4800   -1.0783   -0.8381 C   0  0  0  0  0  0  0  0  0  0  0  0
   -0.5162   -0.1762   -0.1968 C   0  0  0  0  0  0  0  0  0  0  0  0
   -1.6079   -0.8786    0.5658 C   0  0  0  0  0  0  0  0  0  0  0  0
   -0.8143    1.1776   -0.8106 C   0  0  0  0  0  0  0  0  0  0  0  0
   -2.1234    1.1524   -1.2534 O   0  0  0  0  0  0  0  0  0  0  0  0
    2.8930    0.4270    0.1869 H   0  0  0  0  0  0  0  0  0  0  0  0
    1.7677    1.6716    0.7794 H   0  0  0  0  0  0  0  0  0  0  0  0
    1.8191    1.1888   -0.9988 H   0  0  0  0  0  0  0  0  0  0  0  0
    1.7013   -0.4778    2.3993 H   0  0  0  0  0  0  0  0  0  0  0  0
    0.3631   -2.1792   -0.7723 H   0  0  0  0  0  0  0  0  0  0  0  0
    0.8258   -0.7490   -1.8362 H   0  0  0  0  0  0  0  0  0  0  0  0
   -1.6847   -0.5331    1.6173 H   0  0  0  0  0  0  0  0  0  0  0  0
   -1.4738   -1.9574    0.5618 H   0  0  0  0  0  0  0  0  0  0  0  0
   -2.5803   -0.6458    0.0925 H   0  0  0  0  0  0  0  0  0  0  0  0
   -0.1308    1.3425   -1.6587 H   0  0  0  0  0  0  0  0  0  0  0  0
   -0.7005    1.9725   -0.0501 H   0  0  0  0  0  0  0  0  0  0  0  0
   -2.2707    1.8410   -1.9491 H   0  0  0  0  0  0  0  0  0  0  0  0
  1  2  1  0
  2  3  1  0
  3  4  2  0
  2  5  1  0
  5  6  1  0
  6  7  1  0
  6  8  1  0
  8  9  1  0
  6  2  1  0
  1 10  1  0
  1 11  1  0
  1 12  1  0
  3 13  1  0
  5 14  1  0
  5 15  1  0
  7 16  1  0
  7 17  1  0
  7 18  1  0
  8 19  1  0
  8 20  1  0
  9 21  1  0
M  END
