
     RDKit          3D

 21 21  0  0  0  0  0  0  0  0999 V2000
   -1.2042    0.7920    1.0834 C   0  0  0  0  0  0  0  0  0  0  0  0
   -0.7664   -0.0797   -0.0534 C   0  0  0  0  0  0  0  0  0  0  0  0
    0.5029    0.3567   -0.6953 C   0  0  0  0  0  0  0  0  0  0  0  0
    1.5938    0.3362    0.3618 C   0  0  0  0  0  0  0  0  0  0  0  0
    2.9077    0.7591   -0.1904 C   0  0  0  0  0  0  0  0  0  0  0  0
    3.5295   -0.0487   -0.8539 O   0  0  0  0  0  0  0  0  0  0  0  0
   -0.8140   -1.5680    0.2180 C   0  0  0  0  0  0  0  0  0  0  0  0
   -2.1848   -1.5075   -0.0558 O   0  0  0  0  0  0  0  0  0  0  0  0
   -1.8802   -0.4969   -0.9752 C   0  0  0  0  0  0  0  0  0  0  0  0
   -2.2452    0.5428    1.4234 H   0  0  0  0  0  0  0  0  0  0  0  0
   -0.5422    0.5880    1.9486 H   0  0  0  0  0  0  0  0  0  0  0  0
   -1.1169    1.8453    0.7530 H   0  0  0  0  0  0  0  0  0  0  0  0
    0.3697    1.3768   -1.1038 H   0  0  0  0  0  0  0  0  0  0  0  0
    0.7229   -0.3402   -1.5304 H   0  0  0  0  0  0  0  0  0  0  0  0
    1.2783    1.0485    1.1560 H   0  0  0  0  0  0  0  0  0  0  0  0
    1.6523   -0.6612    0.8441 H   0  0  0  0  0  0  0  0  0  0  0  0
    3.2667    1.7570    0.0100 H   0  0  0  0  0  0  0  0  0  0  0  0
   -0.2567   -2.1203   -0.5601 H   0  0  0  0  0  0  0  0  0  0  0  0
   -0.5664   -1.8497    1.2491 H   0  0  0  0  0  0  0  0  0  0  0  0
   -2.7196    0.1920   -1.0941 H   0  0  0  0  0  0  0  0  0  0  0  0
   -1.5273   -0.9222   -1.9348 H   0  0  0  0  0  0  0  0  0  0  0  0
  1  2  1  0
  2  3  1  0
  3  4  1  0
  4  5  1  0
  5  6  2  0
  2  7  1  0
  7  8  1  0
  8  9  1  0
  9  2  1  0
  1 10  1  0
  1 11  1  0
  1 12  1  0
  3 13  1  0
  3 14  1  0
  4 15  1  0
  4 16  1  0
  5 17  1  0
  7 18  1  0
  7 19  1  0
  9 20  1  0
  9 21  1  0
M  END
