
     RDKit          3D

 23 23  0  0  0  0  0  0  0  0999 V2000
   -2.3675   -0.8986    0.2126 C   0  0  0  0  0  0  0  0  0  0  0  0
   -1.1953    0.0366    0.0212 C   0  0  0  0  0  0  0  0  0  0  0  0
   -1.5328    1.3598   -0.6104 C   0  0  0  0  0  0  0  0  0  0  0  0
   -0.2292    0.1410    1.1845 C   0  0  0  0  0  0  0  0  0  0  0  0
    0.4110    1.3506    1.4188 O   0  0  0  0  0  0  0  0  0  0  0  0
    0.1559   -0.5475   -0.0735 C   0  0  0  0  0  0  0  0  0  0  0  0
    1.2202    0.0065   -0.9571 C   0  0  0  0  0  0  0  0  0  0  0  0
    2.4636   -0.8575   -0.7832 C   0  0  0  0  0  0  0  0  0  0  0  0
    2.8277   -0.7894    0.5475 O   0  0  0  0  0  0  0  0  0  0  0  0
   -3.0661   -0.8430   -0.6179 H   0  0  0  0  0  0  0  0  0  0  0  0
   -1.9689   -1.9474    0.2833 H   0  0  0  0  0  0  0  0  0  0  0  0
   -2.8434   -0.6679    1.2001 H   0  0  0  0  0  0  0  0  0  0  0  0
   -0.7897    1.6820   -1.3684 H   0  0  0  0  0  0  0  0  0  0  0  0
   -1.6477    2.1223    0.2128 H   0  0  0  0  0  0  0  0  0  0  0  0
   -2.5514    1.3212   -1.0917 H   0  0  0  0  0  0  0  0  0  0  0  0
   -0.5019   -0.4242    2.0945 H   0  0  0  0  0  0  0  0  0  0  0  0
    0.3402    1.9814    0.6496 H   0  0  0  0  0  0  0  0  0  0  0  0
    0.1975   -1.6709    0.0190 H   0  0  0  0  0  0  0  0  0  0  0  0
    1.4422    1.0696   -0.8170 H   0  0  0  0  0  0  0  0  0  0  0  0
    0.8469   -0.0880   -2.0186 H   0  0  0  0  0  0  0  0  0  0  0  0
    2.2508   -1.9135   -1.0171 H   0  0  0  0  0  0  0  0  0  0  0  0
    3.2850   -0.5128   -1.4679 H   0  0  0  0  0  0  0  0  0  0  0  0
    3.2530    0.0896    0.7726 H   0  0  0  0  0  0  0  0  0  0  0  0
  1  2  1  0
  2  3  1  0
  2  4  1  0
  4  5  1  0
  4  6  1  0
  6  7  1  0
  7  8  1  0
  8  9  1  0
  6  2  1  0
  1 10  1  0
  1 11  1  0
  1 12  1  0
  3 13  1  0
  3 14  1  0
  3 15  1  0
  4 16  1  0
  5 17  1  0
  6 18  1  0
  7 19  1  0
  7 20  1  0
  8 21  1  0
  8 22  1  0
  9 23  1  0
M  END
