
     RDKit          3D

 18 19  0  0  0  0  0  0  0  0999 V2000
   -2.0660    0.1184    0.0659 C   0  0  0  0  0  0  0  0  0  0  0  0
   -0.6370    0.6193   -0.0013 C   0  0  0  0  0  0  0  0  0  0  0  0
   -0.5389    1.9877   -0.2976 O   0  0  0  0  0  0  0  0  0  0  0  0
    0.1953    0.3023    1.2226 C   0  0  0  0  0  0  0  0  0  0  0  0
    1.2043   -0.3485    0.2825 C   0  0  0  0  0  0  0  0  0  0  0  0
    2.4904    0.1106    0.2828 O   0  0  0  0  0  0  0  0  0  0  0  0
    0.7454   -1.5515   -0.4070 C   0  0  0  0  0  0  0  0  0  0  0  0
    0.2793   -0.2051   -0.8557 C   0  0  0  0  0  0  0  0  0  0  0  0
   -2.2155   -0.7301   -0.6484 H   0  0  0  0  0  0  0  0  0  0  0  0
   -2.3367   -0.2006    1.0957 H   0  0  0  0  0  0  0  0  0  0  0  0
   -2.7595    0.9245   -0.2746 H   0  0  0  0  0  0  0  0  0  0  0  0
    0.3652    2.1570   -0.6714 H   0  0  0  0  0  0  0  0  0  0  0  0
   -0.3015   -0.4861    1.8093 H   0  0  0  0  0  0  0  0  0  0  0  0
    0.5946    1.1580    1.7705 H   0  0  0  0  0  0  0  0  0  0  0  0
    2.9152    0.2187   -0.5847 H   0  0  0  0  0  0  0  0  0  0  0  0
    0.0458   -2.2397    0.1352 H   0  0  0  0  0  0  0  0  0  0  0  0
    1.4632   -2.0368   -1.0965 H   0  0  0  0  0  0  0  0  0  0  0  0
    0.5562    0.2018   -1.8276 H   0  0  0  0  0  0  0  0  0  0  0  0
  1  2  1  0
  2  3  1  0
  2  4  1  0
  4  5  1  0
  5  6  1  0
  5  7  1  0
  7  8  1  0
  8  2  1  0
  8  5  1  0
  1  9  1  0
  1 10  1  0
  1 11  1  0
  3 12  1  0
  4 13  1  0
  4 14  1  0
  6 15  1  0
  7 16  1  0
  7 17  1  0
  8 18  1  0
M  END
