
     RDKit          3D

 23 24  0  0  0  0  0  0  0  0999 V2000
    0.8698   -1.6443    0.7888 C   0  0  0  0  0  0  0  0  0  0  0  0
   -0.0055   -0.5213    0.1830 C   0  0  0  0  0  0  0  0  0  0  0  0
   -1.4184   -0.9477    0.0534 C   0  0  0  0  0  0  0  0  0  0  0  0
   -2.4012   -0.0062   -0.5085 C   0  0  0  0  0  0  0  0  0  0  0  0
   -2.5578    1.1620    0.2203 O   0  0  0  0  0  0  0  0  0  0  0  0
    0.6960    0.2258   -0.8817 C   0  0  0  0  0  0  0  0  0  0  0  0
    2.1721    0.4377   -0.6228 C   0  0  0  0  0  0  0  0  0  0  0  0
    1.7647    1.3642    0.4980 C   0  0  0  0  0  0  0  0  0  0  0  0
    0.3346    0.8662    0.4721 C   0  0  0  0  0  0  0  0  0  0  0  0
    0.2652   -2.3012    1.4401 H   0  0  0  0  0  0  0  0  0  0  0  0
    1.6141   -1.1465    1.4116 H   0  0  0  0  0  0  0  0  0  0  0  0
    1.2875   -2.2786   -0.0126 H   0  0  0  0  0  0  0  0  0  0  0  0
   -1.7645   -1.2193    1.0913 H   0  0  0  0  0  0  0  0  0  0  0  0
   -1.4125   -1.8978   -0.5644 H   0  0  0  0  0  0  0  0  0  0  0  0
   -3.4124   -0.5131   -0.4613 H   0  0  0  0  0  0  0  0  0  0  0  0
   -2.2720    0.2086   -1.5900 H   0  0  0  0  0  0  0  0  0  0  0  0
   -3.1351    1.7899   -0.2685 H   0  0  0  0  0  0  0  0  0  0  0  0
    0.2043    0.6980   -1.7263 H   0  0  0  0  0  0  0  0  0  0  0  0
    2.6708   -0.4526   -0.2061 H   0  0  0  0  0  0  0  0  0  0  0  0
    2.7296    0.9029   -1.4531 H   0  0  0  0  0  0  0  0  0  0  0  0
    2.2983    1.2012    1.4464 H   0  0  0  0  0  0  0  0  0  0  0  0
    1.8627    2.4092    0.1584 H   0  0  0  0  0  0  0  0  0  0  0  0
   -0.3903    1.6627    0.5319 H   0  0  0  0  0  0  0  0  0  0  0  0
  1  2  1  0
  2  3  1  0
  3  4  1  0
  4  5  1  0
  2  6  1  0
  6  7  1  0
  7  8  1  0
  8  9  1  0
  9  2  1  0
  9  6  1  0
  1 10  1  0
  1 11  1  0
  1 12  1  0
  3 13  1  0
  3 14  1  0
  4 15  1  0
  4 16  1  0
  5 17  1  0
  6 18  1  0
  7 19  1  0
  7 20  1  0
  8 21  1  0
  8 22  1  0
  9 23  1  0
M  END
