
     RDKit          3D

 20 20  0  0  0  0  0  0  0  0999 V2000
   -1.1281    1.4106   -0.2019 C   0  0  0  0  0  0  0  0  0  0  0  0
   -0.5496    0.0294    0.0325 C   0  0  0  0  0  0  0  0  0  0  0  0
   -1.6755   -0.9042    0.4452 C   0  0  0  0  0  0  0  0  0  0  0  0
    0.3765    0.1358    1.1913 C   0  0  0  0  0  0  0  0  0  0  0  0
    1.6839   -0.0078    1.0457 C   0  0  0  0  0  0  0  0  0  0  0  0
    2.1624   -0.2829   -0.3575 C   0  0  0  0  0  0  0  0  0  0  0  0
    1.2541   -1.2450   -0.8589 O   0  0  0  0  0  0  0  0  0  0  0  0
    0.0983   -0.5375   -1.1841 C   0  0  0  0  0  0  0  0  0  0  0  0
   -0.4119    2.1931    0.0859 H   0  0  0  0  0  0  0  0  0  0  0  0
   -2.0433    1.5081    0.4400 H   0  0  0  0  0  0  0  0  0  0  0  0
   -1.3950    1.5420   -1.2830 H   0  0  0  0  0  0  0  0  0  0  0  0
   -2.1461   -0.4903    1.3576 H   0  0  0  0  0  0  0  0  0  0  0  0
   -2.3706   -0.9577   -0.4180 H   0  0  0  0  0  0  0  0  0  0  0  0
   -1.2190   -1.8902    0.6265 H   0  0  0  0  0  0  0  0  0  0  0  0
   -0.0083    0.3347    2.1857 H   0  0  0  0  0  0  0  0  0  0  0  0
    2.3367    0.0712    1.8863 H   0  0  0  0  0  0  0  0  0  0  0  0
    2.0108    0.6539   -0.9215 H   0  0  0  0  0  0  0  0  0  0  0  0
    3.1972   -0.6485   -0.3724 H   0  0  0  0  0  0  0  0  0  0  0  0
   -0.6009   -1.1769   -1.7910 H   0  0  0  0  0  0  0  0  0  0  0  0
    0.4280    0.2622   -1.9084 H   0  0  0  0  0  0  0  0  0  0  0  0
  1  2  1  0
  2  3  1  0
  2  4  1  0
  4  5  2  0
  5  6  1  0
  6  7  1  0
  7  8  1  0
  8  2  1  0
  1  9  1  0
  1 10  1  0
  1 11  1  0
  3 12  1  0
  3 13  1  0
  3 14  1  0
  4 15  1  0
  5 16  1  0
  6 17  1  0
  6 18  1  0
  8 19  1  0
  8 20  1  0
M  END
