
     RDKit          3D

 23 23  0  0  0  0  0  0  0  0999 V2000
   -1.7831   -0.1750   -1.1241 C   0  0  0  0  0  0  0  0  0  0  0  0
   -0.6903   -0.2561   -0.0536 C   0  0  0  0  0  0  0  0  0  0  0  0
   -0.6724   -1.5950    0.5729 C   0  0  0  0  0  0  0  0  0  0  0  0
   -1.1057    0.7363    1.0043 C   0  0  0  0  0  0  0  0  0  0  0  0
   -0.3320    1.7915    0.9772 C   0  0  0  0  0  0  0  0  0  0  0  0
    0.6939    1.6480   -0.0914 C   0  0  0  0  0  0  0  0  0  0  0  0
    0.5667    0.2444   -0.6226 C   0  0  0  0  0  0  0  0  0  0  0  0
    1.7905   -0.5689   -0.3355 C   0  0  0  0  0  0  0  0  0  0  0  0
    2.0763   -0.6956    1.0015 O   0  0  0  0  0  0  0  0  0  0  0  0
   -1.5717   -0.8489   -1.9601 H   0  0  0  0  0  0  0  0  0  0  0  0
   -2.7221   -0.4657   -0.6086 H   0  0  0  0  0  0  0  0  0  0  0  0
   -1.8028    0.8721   -1.4796 H   0  0  0  0  0  0  0  0  0  0  0  0
   -0.8498   -1.5699    1.6872 H   0  0  0  0  0  0  0  0  0  0  0  0
   -1.5439   -2.1981    0.1825 H   0  0  0  0  0  0  0  0  0  0  0  0
    0.2172   -2.1992    0.4144 H   0  0  0  0  0  0  0  0  0  0  0  0
   -1.9382    0.5334    1.6577 H   0  0  0  0  0  0  0  0  0  0  0  0
   -0.4013    2.6471    1.6154 H   0  0  0  0  0  0  0  0  0  0  0  0
    1.6772    1.8079    0.3772 H   0  0  0  0  0  0  0  0  0  0  0  0
    0.4743    2.4219   -0.8537 H   0  0  0  0  0  0  0  0  0  0  0  0
    0.5002    0.3404   -1.7430 H   0  0  0  0  0  0  0  0  0  0  0  0
    1.7060   -1.5316   -0.8732 H   0  0  0  0  0  0  0  0  0  0  0  0
    2.6532   -0.0329   -0.8168 H   0  0  0  0  0  0  0  0  0  0  0  0
    3.0577   -0.9061    1.0717 H   0  0  0  0  0  0  0  0  0  0  0  0
  1  2  1  0
  2  3  1  0
  2  4  1  0
  4  5  2  0
  5  6  1  0
  6  7  1  0
  7  8  1  0
  8  9  1  0
  7  2  1  0
  1 10  1  0
  1 11  1  0
  1 12  1  0
  3 13  1  0
  3 14  1  0
  3 15  1  0
  4 16  1  0
  5 17  1  0
  6 18  1  0
  6 19  1  0
  7 20  1  0
  8 21  1  0
  8 22  1  0
  9 23  1  0
M  END
