
     RDKit          3D

 19 19  0  0  0  0  0  0  0  0999 V2000
   -0.3490    0.7349   -1.0904 C   0  0  0  0  0  0  0  0  0  0  0  0
   -0.3669   -0.0909    0.1786 C   0  0  0  0  0  0  0  0  0  0  0  0
    0.6700   -0.0238    1.0597 O   0  0  0  0  0  0  0  0  0  0  0  0
    1.9133   -0.3796    0.6691 C   0  0  0  0  0  0  0  0  0  0  0  0
    2.5573    0.4156   -0.3910 C   0  0  0  0  0  0  0  0  0  0  0  0
    3.6737    0.0223   -0.7523 O   0  0  0  0  0  0  0  0  0  0  0  0
   -1.3118   -1.2391    0.1693 C   0  0  0  0  0  0  0  0  0  0  0  0
   -1.7444   -0.0419    0.8924 C   0  0  0  0  0  0  0  0  0  0  0  0
   -2.7064    0.8201    0.3795 O   0  0  0  0  0  0  0  0  0  0  0  0
    0.2910    0.2847   -1.8619 H   0  0  0  0  0  0  0  0  0  0  0  0
   -0.1294    1.7961   -0.8961 H   0  0  0  0  0  0  0  0  0  0  0  0
   -1.4016    0.6736   -1.5245 H   0  0  0  0  0  0  0  0  0  0  0  0
    2.0276   -1.4723    0.4587 H   0  0  0  0  0  0  0  0  0  0  0  0
    2.5803   -0.2368    1.5803 H   0  0  0  0  0  0  0  0  0  0  0  0
    2.1648    1.2925   -0.8776 H   0  0  0  0  0  0  0  0  0  0  0  0
   -1.7644   -1.5110   -0.8040 H   0  0  0  0  0  0  0  0  0  0  0  0
   -1.0661   -2.1632    0.7698 H   0  0  0  0  0  0  0  0  0  0  0  0
   -1.7672   -0.1097    1.9881 H   0  0  0  0  0  0  0  0  0  0  0  0
   -3.2709    1.2281    1.0695 H   0  0  0  0  0  0  0  0  0  0  0  0
  1  2  1  0
  2  3  1  0
  3  4  1  0
  4  5  1  0
  5  6  2  0
  2  7  1  0
  7  8  1  0
  8  9  1  0
  8  2  1  0
  1 10  1  0
  1 11  1  0
  1 12  1  0
  4 13  1  0
  4 14  1  0
  5 15  1  0
  7 16  1  0
  7 17  1  0
  8 18  1  0
  9 19  1  0
M  END
