
     RDKit          3D

 23 24  0  0  0  0  0  0  0  0999 V2000
   -1.8692    0.7080    1.1820 C   0  0  0  0  0  0  0  0  0  0  0  0
   -1.4879   -0.0888   -0.0392 C   0  0  0  0  0  0  0  0  0  0  0  0
   -2.1754    0.3065   -1.1911 O   0  0  0  0  0  0  0  0  0  0  0  0
   -1.1323   -1.5128    0.0285 C   0  0  0  0  0  0  0  0  0  0  0  0
   -0.0893   -0.5031   -0.1426 C   0  0  0  0  0  0  0  0  0  0  0  0
    0.7505   -0.3432   -1.3483 C   0  0  0  0  0  0  0  0  0  0  0  0
    1.8379    0.6365   -0.9302 C   0  0  0  0  0  0  0  0  0  0  0  0
    1.7056    0.8344    0.5458 C   0  0  0  0  0  0  0  0  0  0  0  0
    0.8930   -0.3500    0.9929 C   0  0  0  0  0  0  0  0  0  0  0  0
   -1.3211    1.6899    1.1405 H   0  0  0  0  0  0  0  0  0  0  0  0
   -2.9524    0.9981    1.1397 H   0  0  0  0  0  0  0  0  0  0  0  0
   -1.6249    0.1728    2.1011 H   0  0  0  0  0  0  0  0  0  0  0  0
   -1.7662   -0.0853   -1.9822 H   0  0  0  0  0  0  0  0  0  0  0  0
   -1.3735   -2.1898   -0.8120 H   0  0  0  0  0  0  0  0  0  0  0  0
   -1.2652   -2.0158    1.0240 H   0  0  0  0  0  0  0  0  0  0  0  0
    0.2500    0.1087   -2.2235 H   0  0  0  0  0  0  0  0  0  0  0  0
    1.2284   -1.2747   -1.7059 H   0  0  0  0  0  0  0  0  0  0  0  0
    1.7407    1.6135   -1.4523 H   0  0  0  0  0  0  0  0  0  0  0  0
    2.8417    0.1951   -1.1210 H   0  0  0  0  0  0  0  0  0  0  0  0
    1.1506    1.7635    0.7813 H   0  0  0  0  0  0  0  0  0  0  0  0
    2.6764    0.8241    1.0683 H   0  0  0  0  0  0  0  0  0  0  0  0
    1.5601   -1.2587    0.9696 H   0  0  0  0  0  0  0  0  0  0  0  0
    0.4224   -0.2290    1.9745 H   0  0  0  0  0  0  0  0  0  0  0  0
  1  2  1  0
  2  3  1  0
  2  4  1  0
  4  5  1  0
  5  6  1  0
  6  7  1  0
  7  8  1  0
  8  9  1  0
  5  2  1  0
  9  5  1  0
  1 10  1  0
  1 11  1  0
  1 12  1  0
  3 13  1  0
  4 14  1  0
  4 15  1  0
  6 16  1  0
  6 17  1  0
  7 18  1  0
  7 19  1  0
  8 20  1  0
  8 21  1  0
  9 22  1  0
  9 23  1  0
M  END
