
     RDKit          3D

 17 17  0  0  0  0  0  0  0  0999 V2000
   -0.5085    1.8419   -0.1804 C   0  0  0  0  0  0  0  0  0  0  0  0
   -0.8783    0.4048    0.1216 C   0  0  0  0  0  0  0  0  0  0  0  0
   -1.8207    0.1456    1.0924 O   0  0  0  0  0  0  0  0  0  0  0  0
   -0.7830   -0.5017   -1.0860 C   0  0  0  0  0  0  0  0  0  0  0  0
   -1.8089   -1.4525   -1.1374 O   0  0  0  0  0  0  0  0  0  0  0  0
    0.2207   -0.6601   -0.0430 C   0  0  0  0  0  0  0  0  0  0  0  0
    1.5019   -0.1007   -0.0729 O   0  0  0  0  0  0  0  0  0  0  0  0
    2.5893   -0.5947    0.6181 C   0  0  0  0  0  0  0  0  0  0  0  0
    2.3694   -1.6311    1.3185 O   0  0  0  0  0  0  0  0  0  0  0  0
   -1.4474    2.4228   -0.1440 H   0  0  0  0  0  0  0  0  0  0  0  0
    0.2422    2.2375    0.5410 H   0  0  0  0  0  0  0  0  0  0  0  0
   -0.0846    1.9685   -1.1843 H   0  0  0  0  0  0  0  0  0  0  0  0
   -1.3801    0.0212    1.9624 H   0  0  0  0  0  0  0  0  0  0  0  0
   -0.5713   -0.0599   -2.0797 H   0  0  0  0  0  0  0  0  0  0  0  0
   -1.3693   -2.3266   -0.9171 H   0  0  0  0  0  0  0  0  0  0  0  0
    0.1483   -1.5659    0.6054 H   0  0  0  0  0  0  0  0  0  0  0  0
    3.5803   -0.1490    0.5855 H   0  0  0  0  0  0  0  0  0  0  0  0
  1  2  1  0
  2  3  1  0
  2  4  1  0
  4  5  1  0
  4  6  1  0
  6  7  1  0
  7  8  1  0
  8  9  2  0
  6  2  1  0
  1 10  1  0
  1 11  1  0
  1 12  1  0
  3 13  1  0
  4 14  1  0
  5 15  1  0
  6 16  1  0
  8 17  1  0
M  END
