
     RDKit          3D

 21 22  0  0  0  0  0  0  0  0999 V2000
    2.1543   -0.6454   -0.8287 C   0  0  0  0  0  0  0  0  0  0  0  0
    0.9206   -0.1311   -0.1647 C   0  0  0  0  0  0  0  0  0  0  0  0
    1.2246    0.9984    0.7735 C   0  0  0  0  0  0  0  0  0  0  0  0
    0.2452   -1.2736    0.5011 C   0  0  0  0  0  0  0  0  0  0  0  0
   -1.0298   -1.1584    0.7868 C   0  0  0  0  0  0  0  0  0  0  0  0
   -1.7961    0.0224    0.4844 C   0  0  0  0  0  0  0  0  0  0  0  0
   -2.3874    0.3379   -0.8277 C   0  0  0  0  0  0  0  0  0  0  0  0
   -1.0564    0.9237   -0.4794 C   0  0  0  0  0  0  0  0  0  0  0  0
    0.0071    0.3610   -1.1262 O   0  0  0  0  0  0  0  0  0  0  0  0
    2.9026   -0.8710   -0.0417 H   0  0  0  0  0  0  0  0  0  0  0  0
    1.9458   -1.6137   -1.3427 H   0  0  0  0  0  0  0  0  0  0  0  0
    2.5128    0.1231   -1.5446 H   0  0  0  0  0  0  0  0  0  0  0  0
    0.6674    0.9572    1.7217 H   0  0  0  0  0  0  0  0  0  0  0  0
    2.3328    1.0290    0.9844 H   0  0  0  0  0  0  0  0  0  0  0  0
    1.0071    1.9902    0.2968 H   0  0  0  0  0  0  0  0  0  0  0  0
    0.8274   -2.1854    0.7386 H   0  0  0  0  0  0  0  0  0  0  0  0
   -1.5461   -2.0068    1.2843 H   0  0  0  0  0  0  0  0  0  0  0  0
   -2.2610    0.5105    1.3888 H   0  0  0  0  0  0  0  0  0  0  0  0
   -3.2356    1.0511   -0.8118 H   0  0  0  0  0  0  0  0  0  0  0  0
   -2.4514   -0.4005   -1.6457 H   0  0  0  0  0  0  0  0  0  0  0  0
   -0.9839    1.9816   -0.1472 H   0  0  0  0  0  0  0  0  0  0  0  0
  1  2  1  0
  2  3  1  0
  2  4  1  0
  4  5  2  0
  5  6  1  0
  6  7  1  0
  7  8  1  0
  8  9  1  0
  9  2  1  0
  8  6  1  0
  1 10  1  0
  1 11  1  0
  1 12  1  0
  3 13  1  0
  3 14  1  0
  3 15  1  0
  4 16  1  0
  5 17  1  0
  6 18  1  0
  7 19  1  0
  7 20  1  0
  8 21  1  0
M  END
