
     RDKit          3D

 25 26  0  0  0  0  0  0  0  0999 V2000
   -1.9699    0.6419   -0.6103 C   0  0  0  0  0  0  0  0  0  0  0  0
   -0.8549   -0.1547    0.0851 C   0  0  0  0  0  0  0  0  0  0  0  0
   -1.6181   -1.1949    0.9211 C   0  0  0  0  0  0  0  0  0  0  0  0
   -0.0845    0.6961    1.0326 C   0  0  0  0  0  0  0  0  0  0  0  0
    1.3741    0.7752    0.7378 C   0  0  0  0  0  0  0  0  0  0  0  0
    1.9838   -0.5614    0.3644 C   0  0  0  0  0  0  0  0  0  0  0  0
    1.3699   -0.3427   -1.0223 C   0  0  0  0  0  0  0  0  0  0  0  0
    1.5247    1.1441   -0.7434 C   0  0  0  0  0  0  0  0  0  0  0  0
   -0.0471   -0.8019   -0.9830 C   0  0  0  0  0  0  0  0  0  0  0  0
   -2.3238    1.3681    0.1495 H   0  0  0  0  0  0  0  0  0  0  0  0
   -1.5993    1.1586   -1.5013 H   0  0  0  0  0  0  0  0  0  0  0  0
   -2.8262   -0.0122   -0.8687 H   0  0  0  0  0  0  0  0  0  0  0  0
   -1.8567   -2.0931    0.3255 H   0  0  0  0  0  0  0  0  0  0  0  0
   -2.6060   -0.7805    1.2509 H   0  0  0  0  0  0  0  0  0  0  0  0
   -1.0734   -1.4435    1.8439 H   0  0  0  0  0  0  0  0  0  0  0  0
   -0.5013    1.7359    0.9723 H   0  0  0  0  0  0  0  0  0  0  0  0
   -0.2324    0.3976    2.1049 H   0  0  0  0  0  0  0  0  0  0  0  0
    1.9304    1.3920    1.4323 H   0  0  0  0  0  0  0  0  0  0  0  0
    3.0885   -0.4570    0.2878 H   0  0  0  0  0  0  0  0  0  0  0  0
    1.6102   -1.4310    0.9049 H   0  0  0  0  0  0  0  0  0  0  0  0
    1.9565   -0.6862   -1.8591 H   0  0  0  0  0  0  0  0  0  0  0  0
    2.5575    1.4457   -0.9492 H   0  0  0  0  0  0  0  0  0  0  0  0
    0.7129    1.7827   -1.0750 H   0  0  0  0  0  0  0  0  0  0  0  0
   -0.0372   -1.9067   -0.8019 H   0  0  0  0  0  0  0  0  0  0  0  0
   -0.4774   -0.6723   -1.9986 H   0  0  0  0  0  0  0  0  0  0  0  0
  1  2  1  0
  2  3  1  0
  2  4  1  0
  4  5  1  0
  5  6  1  0
  6  7  1  0
  7  8  1  0
  7  9  1  0
  9  2  1  0
  8  5  1  0
  1 10  1  0
  1 11  1  0
  1 12  1  0
  3 13  1  0
  3 14  1  0
  3 15  1  0
  4 16  1  0
  4 17  1  0
  5 18  1  0
  6 19  1  0
  6 20  1  0
  7 21  1  0
  8 22  1  0
  8 23  1  0
  9 24  1  0
  9 25  1  0
M  END
