
     RDKit          3D

 23 24  0  0  0  0  0  0  0  0999 V2000
    0.3889   -1.4097    0.9861 C   0  0  0  0  0  0  0  0  0  0  0  0
   -0.1198   -0.3002    0.1297 C   0  0  0  0  0  0  0  0  0  0  0  0
    0.9515    0.4657   -0.5886 C   0  0  0  0  0  0  0  0  0  0  0  0
    1.9493    1.1223    0.3845 C   0  0  0  0  0  0  0  0  0  0  0  0
    2.3595    0.0649   -0.5939 C   0  0  0  0  0  0  0  0  0  0  0  0
   -0.9211    0.6267    0.9732 C   0  0  0  0  0  0  0  0  0  0  0  0
   -2.0900    0.9098    0.4349 C   0  0  0  0  0  0  0  0  0  0  0  0
   -2.2563    0.2087   -0.8679 C   0  0  0  0  0  0  0  0  0  0  0  0
   -1.1335   -0.8037   -0.8604 C   0  0  0  0  0  0  0  0  0  0  0  0
    1.3421   -1.1954    1.4838 H   0  0  0  0  0  0  0  0  0  0  0  0
   -0.3482   -1.6631    1.7776 H   0  0  0  0  0  0  0  0  0  0  0  0
    0.5564   -2.3532    0.3965 H   0  0  0  0  0  0  0  0  0  0  0  0
    0.5982    1.0751   -1.4400 H   0  0  0  0  0  0  0  0  0  0  0  0
    1.9494    0.8216    1.4269 H   0  0  0  0  0  0  0  0  0  0  0  0
    2.1300    2.1868    0.1728 H   0  0  0  0  0  0  0  0  0  0  0  0
    2.7059   -0.9177   -0.1828 H   0  0  0  0  0  0  0  0  0  0  0  0
    3.0001    0.4321   -1.4087 H   0  0  0  0  0  0  0  0  0  0  0  0
   -0.6083    1.0522    1.9466 H   0  0  0  0  0  0  0  0  0  0  0  0
   -2.8739    1.5604    0.8359 H   0  0  0  0  0  0  0  0  0  0  0  0
   -2.0991    0.9939   -1.6566 H   0  0  0  0  0  0  0  0  0  0  0  0
   -3.2526   -0.2529   -0.9859 H   0  0  0  0  0  0  0  0  0  0  0  0
   -1.5139   -1.7748   -0.4918 H   0  0  0  0  0  0  0  0  0  0  0  0
   -0.7146   -0.8495   -1.8719 H   0  0  0  0  0  0  0  0  0  0  0  0
  1  2  1  0
  2  3  1  0
  3  4  1  0
  4  5  1  0
  2  6  1  0
  6  7  2  0
  7  8  1  0
  8  9  1  0
  9  2  1  0
  5  3  1  0
  1 10  1  0
  1 11  1  0
  1 12  1  0
  3 13  1  0
  4 14  1  0
  4 15  1  0
  5 16  1  0
  5 17  1  0
  6 18  1  0
  7 19  1  0
  8 20  1  0
  8 21  1  0
  9 22  1  0
  9 23  1  0
M  END
