
     RDKit          3D

 23 24  0  0  0  0  0  0  0  0999 V2000
   -1.7356    0.2276   -1.3692 C   0  0  0  0  0  0  0  0  0  0  0  0
   -0.9012    0.0342   -0.1180 C   0  0  0  0  0  0  0  0  0  0  0  0
   -1.6922    0.1690    1.1464 C   0  0  0  0  0  0  0  0  0  0  0  0
   -0.1186   -1.2772   -0.1209 C   0  0  0  0  0  0  0  0  0  0  0  0
    1.1459   -0.4419   -0.0993 C   0  0  0  0  0  0  0  0  0  0  0  0
    2.1862   -0.6730    0.9390 C   0  0  0  0  0  0  0  0  0  0  0  0
    1.3485    0.4204   -1.2754 C   0  0  0  0  0  0  0  0  0  0  0  0
    0.3728    0.7943   -0.2125 C   0  0  0  0  0  0  0  0  0  0  0  0
    0.6151    1.9397    0.4747 O   0  0  0  0  0  0  0  0  0  0  0  0
   -1.1442   -0.0901   -2.2399 H   0  0  0  0  0  0  0  0  0  0  0  0
   -1.9699    1.3141   -1.4194 H   0  0  0  0  0  0  0  0  0  0  0  0
   -2.6882   -0.3107   -1.3395 H   0  0  0  0  0  0  0  0  0  0  0  0
   -1.1951   -0.2950    2.0136 H   0  0  0  0  0  0  0  0  0  0  0  0
   -1.8868    1.2319    1.3897 H   0  0  0  0  0  0  0  0  0  0  0  0
   -2.6643   -0.3261    1.0233 H   0  0  0  0  0  0  0  0  0  0  0  0
   -0.2904   -1.8463   -1.0562 H   0  0  0  0  0  0  0  0  0  0  0  0
   -0.2645   -1.8880    0.7753 H   0  0  0  0  0  0  0  0  0  0  0  0
    2.7220    0.2961    1.1118 H   0  0  0  0  0  0  0  0  0  0  0  0
    1.7294   -0.9401    1.9159 H   0  0  0  0  0  0  0  0  0  0  0  0
    2.9684   -1.3970    0.6495 H   0  0  0  0  0  0  0  0  0  0  0  0
    2.3086    0.9571   -1.3285 H   0  0  0  0  0  0  0  0  0  0  0  0
    0.8875    0.1094   -2.2469 H   0  0  0  0  0  0  0  0  0  0  0  0
    0.2666    1.9916    1.3864 H   0  0  0  0  0  0  0  0  0  0  0  0
  1  2  1  0
  2  3  1  0
  2  4  1  0
  4  5  1  0
  5  6  1  0
  5  7  1  0
  7  8  1  0
  8  9  1  0
  8  2  1  0
  8  5  1  0
  1 10  1  0
  1 11  1  0
  1 12  1  0
  3 13  1  0
  3 14  1  0
  3 15  1  0
  4 16  1  0
  4 17  1  0
  6 18  1  0
  6 19  1  0
  6 20  1  0
  7 21  1  0
  7 22  1  0
  9 23  1  0
M  END
