
     RDKit          3D

 21 22  0  0  0  0  0  0  0  0999 V2000
    2.0287    0.5226   -0.8035 C   0  0  0  0  0  0  0  0  0  0  0  0
    0.7953    0.0024   -0.1112 C   0  0  0  0  0  0  0  0  0  0  0  0
    1.0833   -0.8331    1.1083 C   0  0  0  0  0  0  0  0  0  0  0  0
   -0.3317   -0.3834   -0.9466 C   0  0  0  0  0  0  0  0  0  0  0  0
   -1.5260   -1.1308   -0.4676 C   0  0  0  0  0  0  0  0  0  0  0  0
   -2.0207   -0.4781    0.7516 C   0  0  0  0  0  0  0  0  0  0  0  0
   -1.3832    0.6519    0.9445 C   0  0  0  0  0  0  0  0  0  0  0  0
   -0.3788    0.8956   -0.1270 C   0  0  0  0  0  0  0  0  0  0  0  0
   -0.4498    2.0290   -0.9021 O   0  0  0  0  0  0  0  0  0  0  0  0
    2.8764   -0.1839   -0.7398 H   0  0  0  0  0  0  0  0  0  0  0  0
    1.7994    0.7180   -1.8666 H   0  0  0  0  0  0  0  0  0  0  0  0
    2.3453    1.4552   -0.2688 H   0  0  0  0  0  0  0  0  0  0  0  0
    1.2675   -0.1462    1.9621 H   0  0  0  0  0  0  0  0  0  0  0  0
    2.0282   -1.4046    0.9507 H   0  0  0  0  0  0  0  0  0  0  0  0
    0.2375   -1.4806    1.3960 H   0  0  0  0  0  0  0  0  0  0  0  0
   -0.2050   -0.3247   -2.0378 H   0  0  0  0  0  0  0  0  0  0  0  0
   -2.3310   -1.0163   -1.2475 H   0  0  0  0  0  0  0  0  0  0  0  0
   -1.3342   -2.2039   -0.2699 H   0  0  0  0  0  0  0  0  0  0  0  0
   -2.7915   -0.8703    1.3903 H   0  0  0  0  0  0  0  0  0  0  0  0
   -1.5439    1.3315    1.7592 H   0  0  0  0  0  0  0  0  0  0  0  0
   -0.1659    2.8497   -0.4742 H   0  0  0  0  0  0  0  0  0  0  0  0
  1  2  1  0
  2  3  1  0
  2  4  1  0
  4  5  1  0
  5  6  1  0
  6  7  2  0
  7  8  1  0
  8  9  1  0
  8  2  1  0
  8  4  1  0
  1 10  1  0
  1 11  1  0
  1 12  1  0
  3 13  1  0
  3 14  1  0
  3 15  1  0
  4 16  1  0
  5 17  1  0
  5 18  1  0
  6 19  1  0
  7 20  1  0
  9 21  1  0
M  END
