
     RDKit          3D

 21 21  0  0  0  0  0  0  0  0999 V2000
   -0.6396    0.3491   -1.5128 C   0  0  0  0  0  0  0  0  0  0  0  0
   -0.7294   -0.3198   -0.1530 C   0  0  0  0  0  0  0  0  0  0  0  0
   -2.1500   -0.8322    0.1030 C   0  0  0  0  0  0  0  0  0  0  0  0
   -0.0501    0.3606    0.9558 C   0  0  0  0  0  0  0  0  0  0  0  0
   -0.5213    0.3492    2.2533 O   0  0  0  0  0  0  0  0  0  0  0  0
    0.4066   -1.0067    0.4618 C   0  0  0  0  0  0  0  0  0  0  0  0
    1.7858   -1.0593   -0.0806 C   0  0  0  0  0  0  0  0  0  0  0  0
    2.4660    0.2417   -0.2514 C   0  0  0  0  0  0  0  0  0  0  0  0
    2.9027    0.8910    0.6800 O   0  0  0  0  0  0  0  0  0  0  0  0
   -1.4840    1.1032   -1.5396 H   0  0  0  0  0  0  0  0  0  0  0  0
    0.2685    0.9252   -1.6754 H   0  0  0  0  0  0  0  0  0  0  0  0
   -0.8676   -0.3760   -2.3271 H   0  0  0  0  0  0  0  0  0  0  0  0
   -2.4190   -1.6490   -0.5991 H   0  0  0  0  0  0  0  0  0  0  0  0
   -2.8444    0.0259   -0.0145 H   0  0  0  0  0  0  0  0  0  0  0  0
   -2.2633   -1.2343    1.1199 H   0  0  0  0  0  0  0  0  0  0  0  0
    0.6107    1.2302    0.7407 H   0  0  0  0  0  0  0  0  0  0  0  0
   -1.4802    0.2020    2.3456 H   0  0  0  0  0  0  0  0  0  0  0  0
    0.1347   -1.9038    1.0966 H   0  0  0  0  0  0  0  0  0  0  0  0
    2.4295   -1.6353    0.6525 H   0  0  0  0  0  0  0  0  0  0  0  0
    1.8497   -1.6865   -1.0118 H   0  0  0  0  0  0  0  0  0  0  0  0
    2.5948    0.6587   -1.2439 H   0  0  0  0  0  0  0  0  0  0  0  0
  1  2  1  0
  2  3  1  0
  2  4  1  0
  4  5  1  0
  4  6  1  0
  6  7  1  0
  7  8  1  0
  8  9  2  0
  6  2  1  0
  1 10  1  0
  1 11  1  0
  1 12  1  0
  3 13  1  0
  3 14  1  0
  3 15  1  0
  4 16  1  0
  5 17  1  0
  6 18  1  0
  7 19  1  0
  7 20  1  0
  8 21  1  0
M  END
