
     RDKit          3D

 19 20  0  0  0  0  0  0  0  0999 V2000
   -1.9398    0.3833   -0.5286 C   0  0  0  0  0  0  0  0  0  0  0  0
   -0.7865    0.1059    0.3737 C   0  0  0  0  0  0  0  0  0  0  0  0
   -1.0609    0.2278    1.7155 O   0  0  0  0  0  0  0  0  0  0  0  0
   -0.1923   -1.2948    0.1372 C   0  0  0  0  0  0  0  0  0  0  0  0
    1.2276   -0.8520   -0.1417 C   0  0  0  0  0  0  0  0  0  0  0  0
    1.0001    0.1266   -1.1143 O   0  0  0  0  0  0  0  0  0  0  0  0
    0.4369    0.8825   -0.0591 C   0  0  0  0  0  0  0  0  0  0  0  0
    1.4930    0.2851    0.8170 C   0  0  0  0  0  0  0  0  0  0  0  0
    2.7219    0.8587    0.6479 O   0  0  0  0  0  0  0  0  0  0  0  0
   -1.6817    0.0367   -1.5479 H   0  0  0  0  0  0  0  0  0  0  0  0
   -2.8441   -0.1351   -0.2215 H   0  0  0  0  0  0  0  0  0  0  0  0
   -2.1072    1.4830   -0.5261 H   0  0  0  0  0  0  0  0  0  0  0  0
   -1.6209   -0.5243    2.0198 H   0  0  0  0  0  0  0  0  0  0  0  0
   -0.2903   -1.9291    1.0101 H   0  0  0  0  0  0  0  0  0  0  0  0
   -0.6087   -1.6825   -0.7973 H   0  0  0  0  0  0  0  0  0  0  0  0
    1.9796   -1.5827   -0.3086 H   0  0  0  0  0  0  0  0  0  0  0  0
    0.3697    1.9339   -0.1853 H   0  0  0  0  0  0  0  0  0  0  0  0
    1.2109    0.0976    1.8709 H   0  0  0  0  0  0  0  0  0  0  0  0
    2.6927    1.5792   -0.0485 H   0  0  0  0  0  0  0  0  0  0  0  0
  1  2  1  0
  2  3  1  0
  2  4  1  0
  4  5  1  0
  5  6  1  0
  6  7  1  0
  7  8  1  0
  8  9  1  0
  7  2  1  0
  8  5  1  0
  1 10  1  0
  1 11  1  0
  1 12  1  0
  3 13  1  0
  4 14  1  0
  4 15  1  0
  5 16  1  0
  7 17  1  0
  8 18  1  0
  9 19  1  0
M  END
