
     RDKit          3D

 21 21  0  0  0  0  0  0  0  0999 V2000
   -1.3980   -1.7251   -0.2847 C   0  0  0  0  0  0  0  0  0  0  0  0
   -0.7949   -0.3237   -0.1255 C   0  0  0  0  0  0  0  0  0  0  0  0
    0.6276   -0.3517    0.2272 C   0  0  0  0  0  0  0  0  0  0  0  0
    1.8077   -0.3588    0.5057 C   0  0  0  0  0  0  0  0  0  0  0  0
    3.2406   -0.3448    0.8316 C   0  0  0  0  0  0  0  0  0  0  0  0
    3.5253    0.9422    1.2554 O   0  0  0  0  0  0  0  0  0  0  0  0
   -1.6101    0.5628    0.7578 C   0  0  0  0  0  0  0  0  0  0  0  0
   -1.9104    1.4702   -0.4086 C   0  0  0  0  0  0  0  0  0  0  0  0
   -1.0424    0.5860   -1.2832 C   0  0  0  0  0  0  0  0  0  0  0  0
   -0.6296   -2.2901   -0.8865 H   0  0  0  0  0  0  0  0  0  0  0  0
   -2.3380   -1.7016   -0.8305 H   0  0  0  0  0  0  0  0  0  0  0  0
   -1.4158   -2.1973    0.6975 H   0  0  0  0  0  0  0  0  0  0  0  0
    3.4914   -1.1152    1.5997 H   0  0  0  0  0  0  0  0  0  0  0  0
    3.8561   -0.5947   -0.0782 H   0  0  0  0  0  0  0  0  0  0  0  0
    4.4942    1.0972    1.1082 H   0  0  0  0  0  0  0  0  0  0  0  0
   -1.0569    1.0140    1.5886 H   0  0  0  0  0  0  0  0  0  0  0  0
   -2.5716    0.0839    1.1039 H   0  0  0  0  0  0  0  0  0  0  0  0
   -2.9665    1.5165   -0.7174 H   0  0  0  0  0  0  0  0  0  0  0  0
   -1.5027    2.5049   -0.3147 H   0  0  0  0  0  0  0  0  0  0  0  0
   -0.1691    1.1211   -1.6904 H   0  0  0  0  0  0  0  0  0  0  0  0
   -1.6370    0.1040   -2.0839 H   0  0  0  0  0  0  0  0  0  0  0  0
  1  2  1  0
  2  3  1  0
  3  4  3  0
  4  5  1  0
  5  6  1  0
  2  7  1  0
  7  8  1  0
  8  9  1  0
  9  2  1  0
  1 10  1  0
  1 11  1  0
  1 12  1  0
  5 13  1  0
  5 14  1  0
  6 15  1  0
  7 16  1  0
  7 17  1  0
  8 18  1  0
  8 19  1  0
  9 20  1  0
  9 21  1  0
M  END
