
     RDKit          3D

 23 23  0  0  0  0  0  0  0  0999 V2000
   -2.1817   -0.3823    0.9502 C   0  0  0  0  0  0  0  0  0  0  0  0
   -1.0641    0.1589    0.0953 C   0  0  0  0  0  0  0  0  0  0  0  0
   -1.4026    1.5954   -0.2369 C   0  0  0  0  0  0  0  0  0  0  0  0
   -0.8424   -0.6555   -1.1447 C   0  0  0  0  0  0  0  0  0  0  0  0
    0.6287   -0.8465   -1.2543 C   0  0  0  0  0  0  0  0  0  0  0  0
    1.2352   -0.4592   -0.1441 C   0  0  0  0  0  0  0  0  0  0  0  0
    2.6916   -0.5145    0.0790 C   0  0  0  0  0  0  0  0  0  0  0  0
    3.2420    0.7369    0.3335 O   0  0  0  0  0  0  0  0  0  0  0  0
    0.2271    0.0328    0.8261 C   0  0  0  0  0  0  0  0  0  0  0  0
   -3.1606    0.0358    0.6296 H   0  0  0  0  0  0  0  0  0  0  0  0
   -2.0012   -0.0086    1.9940 H   0  0  0  0  0  0  0  0  0  0  0  0
   -2.1820   -1.4873    1.0148 H   0  0  0  0  0  0  0  0  0  0  0  0
   -1.2456    2.2271    0.6618 H   0  0  0  0  0  0  0  0  0  0  0  0
   -0.8995    1.9509   -1.1366 H   0  0  0  0  0  0  0  0  0  0  0  0
   -2.5045    1.6183   -0.4291 H   0  0  0  0  0  0  0  0  0  0  0  0
   -1.3834   -1.6215   -1.0882 H   0  0  0  0  0  0  0  0  0  0  0  0
   -1.2166   -0.0866   -2.0143 H   0  0  0  0  0  0  0  0  0  0  0  0
    1.0941   -1.2541   -2.1494 H   0  0  0  0  0  0  0  0  0  0  0  0
    3.2461   -0.9578   -0.7679 H   0  0  0  0  0  0  0  0  0  0  0  0
    2.9558   -1.1481    0.9720 H   0  0  0  0  0  0  0  0  0  0  0  0
    4.1031    0.8777   -0.1214 H   0  0  0  0  0  0  0  0  0  0  0  0
    0.1169   -0.7764    1.5967 H   0  0  0  0  0  0  0  0  0  0  0  0
    0.5435    0.9643    1.3339 H   0  0  0  0  0  0  0  0  0  0  0  0
  1  2  1  0
  2  3  1  0
  2  4  1  0
  4  5  1  0
  5  6  2  0
  6  7  1  0
  7  8  1  0
  6  9  1  0
  9  2  1  0
  1 10  1  0
  1 11  1  0
  1 12  1  0
  3 13  1  0
  3 14  1  0
  3 15  1  0
  4 16  1  0
  4 17  1  0
  5 18  1  0
  7 19  1  0
  7 20  1  0
  8 21  1  0
  9 22  1  0
  9 23  1  0
M  END
