
     RDKit          3D

 20 21  0  0  0  0  0  0  0  0999 V2000
   -1.2238    1.2288    0.1819 C   0  0  0  0  0  0  0  0  0  0  0  0
   -0.6950   -0.1796    0.1175 C   0  0  0  0  0  0  0  0  0  0  0  0
   -1.5826   -1.2519    0.6546 C   0  0  0  0  0  0  0  0  0  0  0  0
    0.2674   -0.5942   -0.9365 C   0  0  0  0  0  0  0  0  0  0  0  0
    1.0859    0.5271   -1.5288 C   0  0  0  0  0  0  0  0  0  0  0  0
    1.7547    0.6682   -0.1585 C   0  0  0  0  0  0  0  0  0  0  0  0
    0.7755   -0.2939    0.4134 C   0  0  0  0  0  0  0  0  0  0  0  0
    1.1262   -1.2485    1.3259 O   0  0  0  0  0  0  0  0  0  0  0  0
   -1.9036    1.3095    1.0492 H   0  0  0  0  0  0  0  0  0  0  0  0
   -1.7805    1.4955   -0.7373 H   0  0  0  0  0  0  0  0  0  0  0  0
   -0.4159    1.9803    0.3587 H   0  0  0  0  0  0  0  0  0  0  0  0
   -1.0306   -2.2308    0.5580 H   0  0  0  0  0  0  0  0  0  0  0  0
   -1.8180   -1.1083    1.7360 H   0  0  0  0  0  0  0  0  0  0  0  0
   -2.5127   -1.4029    0.0493 H   0  0  0  0  0  0  0  0  0  0  0  0
    0.2702   -1.5909   -1.3756 H   0  0  0  0  0  0  0  0  0  0  0  0
    0.5069    1.4628   -1.7469 H   0  0  0  0  0  0  0  0  0  0  0  0
    1.7363    0.1676   -2.3278 H   0  0  0  0  0  0  0  0  0  0  0  0
    2.7896    0.2275   -0.1307 H   0  0  0  0  0  0  0  0  0  0  0  0
    1.7031    1.6985    0.2570 H   0  0  0  0  0  0  0  0  0  0  0  0
    0.9469   -0.8647    2.2407 H   0  0  0  0  0  0  0  0  0  0  0  0
  1  2  1  0
  2  3  1  0
  2  4  1  0
  4  5  1  0
  5  6  1  0
  6  7  1  0
  7  8  1  0
  7  2  1  0
  7  4  1  0
  1  9  1  0
  1 10  1  0
  1 11  1  0
  3 12  1  0
  3 13  1  0
  3 14  1  0
  4 15  1  0
  5 16  1  0
  5 17  1  0
  6 18  1  0
  6 19  1  0
  8 20  1  0
M  END
