
     RDKit          3D

 18 19  0  0  0  0  0  0  0  0999 V2000
    2.0907   -0.0693   -0.5525 C   0  0  0  0  0  0  0  0  0  0  0  0
    0.8510   -0.2569    0.3441 C   0  0  0  0  0  0  0  0  0  0  0  0
    1.2714   -0.7439    1.6112 O   0  0  0  0  0  0  0  0  0  0  0  0
   -0.3557   -0.8198   -0.1488 C   0  0  0  0  0  0  0  0  0  0  0  0
   -1.7901   -0.4183    0.1094 C   0  0  0  0  0  0  0  0  0  0  0  0
   -1.3291    0.7464   -0.7930 C   0  0  0  0  0  0  0  0  0  0  0  0
   -0.1723    0.7203    0.1908 C   0  0  0  0  0  0  0  0  0  0  0  0
   -0.7085    1.1134    1.4483 O   0  0  0  0  0  0  0  0  0  0  0  0
    2.4476    0.9709   -0.5291 H   0  0  0  0  0  0  0  0  0  0  0  0
    1.7156   -0.3137   -1.5881 H   0  0  0  0  0  0  0  0  0  0  0  0
    2.8715   -0.8097   -0.3129 H   0  0  0  0  0  0  0  0  0  0  0  0
    1.1802   -1.7441    1.5184 H   0  0  0  0  0  0  0  0  0  0  0  0
   -0.2951   -1.0406   -1.2667 H   0  0  0  0  0  0  0  0  0  0  0  0
   -2.5174   -1.0884   -0.3570 H   0  0  0  0  0  0  0  0  0  0  0  0
   -2.0854   -0.1627    1.1131 H   0  0  0  0  0  0  0  0  0  0  0  0
   -1.9273    1.6435   -0.7250 H   0  0  0  0  0  0  0  0  0  0  0  0
   -1.0956    0.3802   -1.7914 H   0  0  0  0  0  0  0  0  0  0  0  0
   -0.1513    1.8926    1.7290 H   0  0  0  0  0  0  0  0  0  0  0  0
  1  2  1  0
  2  3  1  0
  2  4  1  0
  4  5  1  0
  5  6  1  0
  6  7  1  0
  7  8  1  0
  7  2  1  0
  7  4  1  0
  1  9  1  0
  1 10  1  0
  1 11  1  0
  3 12  1  0
  4 13  1  0
  5 14  1  0
  5 15  1  0
  6 16  1  0
  6 17  1  0
  8 18  1  0
M  END
