
     RDKit          3D

 19 20  0  0  0  0  0  0  0  0999 V2000
   -2.1522   -0.1522   -0.1615 C   0  0  0  0  0  0  0  0  0  0  0  0
   -0.7683    0.4159    0.0834 C   0  0  0  0  0  0  0  0  0  0  0  0
   -0.8196    1.7235    0.5534 O   0  0  0  0  0  0  0  0  0  0  0  0
    0.0306   -0.4135    1.0557 C   0  0  0  0  0  0  0  0  0  0  0  0
    1.3463   -0.7065    0.4508 C   0  0  0  0  0  0  0  0  0  0  0  0
    2.2343    0.2897   -0.1488 C   0  0  0  0  0  0  0  0  0  0  0  0
    1.1812   -0.4235   -0.9915 C   0  0  0  0  0  0  0  0  0  0  0  0
   -0.0374    0.3735   -1.1962 C   0  0  0  0  0  0  0  0  0  0  0  0
   -0.3666    0.8913   -2.2249 O   0  0  0  0  0  0  0  0  0  0  0  0
   -2.1508   -0.7896   -1.0594 H   0  0  0  0  0  0  0  0  0  0  0  0
   -2.5179   -0.7545    0.7048 H   0  0  0  0  0  0  0  0  0  0  0  0
   -2.8491    0.7020   -0.3772 H   0  0  0  0  0  0  0  0  0  0  0  0
   -1.3442    1.8047    1.3811 H   0  0  0  0  0  0  0  0  0  0  0  0
   -0.5282   -1.3921    1.1479 H   0  0  0  0  0  0  0  0  0  0  0  0
    0.0500    0.0037    2.0737 H   0  0  0  0  0  0  0  0  0  0  0  0
    1.8024   -1.6868    0.7751 H   0  0  0  0  0  0  0  0  0  0  0  0
    3.2585   -0.0410   -0.3953 H   0  0  0  0  0  0  0  0  0  0  0  0
    2.1485    1.3719    0.0085 H   0  0  0  0  0  0  0  0  0  0  0  0
    1.4824   -1.2164   -1.6795 H   0  0  0  0  0  0  0  0  0  0  0  0
  1  2  1  0
  2  3  1  0
  2  4  1  0
  4  5  1  0
  5  6  1  0
  6  7  1  0
  7  8  1  0
  8  9  2  0
  8  2  1  0
  7  5  1  0
  1 10  1  0
  1 11  1  0
  1 12  1  0
  3 13  1  0
  4 14  1  0
  4 15  1  0
  5 16  1  0
  6 17  1  0
  6 18  1  0
  7 19  1  0
M  END
