
     RDKit          3D

 23 23  0  0  0  0  0  0  0  0999 V2000
   -1.9379   -1.2016    0.1425 C   0  0  0  0  0  0  0  0  0  0  0  0
   -0.8927   -0.0827    0.0204 C   0  0  0  0  0  0  0  0  0  0  0  0
   -1.7124    1.2121   -0.0161 C   0  0  0  0  0  0  0  0  0  0  0  0
   -0.0635   -0.1625    1.2204 C   0  0  0  0  0  0  0  0  0  0  0  0
    1.2113   -0.0174    1.4574 C   0  0  0  0  0  0  0  0  0  0  0  0
    2.2914    0.2945    0.5242 C   0  0  0  0  0  0  0  0  0  0  0  0
    2.0138   -0.0039   -0.9030 C   0  0  0  0  0  0  0  0  0  0  0  0
    1.0249   -0.9314   -1.0855 O   0  0  0  0  0  0  0  0  0  0  0  0
   -0.1778   -0.2667   -1.2665 C   0  0  0  0  0  0  0  0  0  0  0  0
   -2.7932   -1.0012   -0.5318 H   0  0  0  0  0  0  0  0  0  0  0  0
   -1.5092   -2.1822   -0.1339 H   0  0  0  0  0  0  0  0  0  0  0  0
   -2.3058   -1.1673    1.1879 H   0  0  0  0  0  0  0  0  0  0  0  0
   -2.6517    1.0262   -0.5875 H   0  0  0  0  0  0  0  0  0  0  0  0
   -1.9329    1.5454    1.0138 H   0  0  0  0  0  0  0  0  0  0  0  0
   -1.1621    2.0140   -0.5418 H   0  0  0  0  0  0  0  0  0  0  0  0
   -0.6430   -0.3980    2.1310 H   0  0  0  0  0  0  0  0  0  0  0  0
    1.5459   -0.1415    2.4935 H   0  0  0  0  0  0  0  0  0  0  0  0
    3.1984   -0.2923    0.8551 H   0  0  0  0  0  0  0  0  0  0  0  0
    2.6026    1.3610    0.6070 H   0  0  0  0  0  0  0  0  0  0  0  0
    1.7800    0.9442   -1.4510 H   0  0  0  0  0  0  0  0  0  0  0  0
    2.9482   -0.3877   -1.3837 H   0  0  0  0  0  0  0  0  0  0  0  0
   -0.7878   -0.8807   -1.9622 H   0  0  0  0  0  0  0  0  0  0  0  0
   -0.0464    0.7197   -1.7903 H   0  0  0  0  0  0  0  0  0  0  0  0
  1  2  1  0
  2  3  1  0
  2  4  1  0
  4  5  2  0
  5  6  1  0
  6  7  1  0
  7  8  1  0
  8  9  1  0
  9  2  1  0
  1 10  1  0
  1 11  1  0
  1 12  1  0
  3 13  1  0
  3 14  1  0
  3 15  1  0
  4 16  1  0
  5 17  1  0
  6 18  1  0
  6 19  1  0
  7 20  1  0
  7 21  1  0
  9 22  1  0
  9 23  1  0
M  END
