
     RDKit          3D

 21 21  0  0  0  0  0  0  0  0999 V2000
   -1.4698   -0.9242    0.1834 C   0  0  0  0  0  0  0  0  0  0  0  0
   -0.6298    0.2776    0.4698 C   0  0  0  0  0  0  0  0  0  0  0  0
   -0.9539    0.9313    1.6466 O   0  0  0  0  0  0  0  0  0  0  0  0
   -0.6244    1.1830   -0.7619 C   0  0  0  0  0  0  0  0  0  0  0  0
   -1.7720    1.1138   -1.5186 O   0  0  0  0  0  0  0  0  0  0  0  0
    0.5292    0.3168   -1.2350 C   0  0  0  0  0  0  0  0  0  0  0  0
    0.8569    0.1242    0.2228 C   0  0  0  0  0  0  0  0  0  0  0  0
    1.4340   -1.2040    0.6051 C   0  0  0  0  0  0  0  0  0  0  0  0
    2.7987   -1.2076    0.3267 O   0  0  0  0  0  0  0  0  0  0  0  0
   -2.4300   -0.6578   -0.3489 H   0  0  0  0  0  0  0  0  0  0  0  0
   -0.9877   -1.6795   -0.4622 H   0  0  0  0  0  0  0  0  0  0  0  0
   -1.8202   -1.3791    1.1537 H   0  0  0  0  0  0  0  0  0  0  0  0
   -0.7413    1.8736    1.5520 H   0  0  0  0  0  0  0  0  0  0  0  0
   -0.3054    2.2213   -0.4826 H   0  0  0  0  0  0  0  0  0  0  0  0
   -2.2760    1.9822   -1.4091 H   0  0  0  0  0  0  0  0  0  0  0  0
    0.1425   -0.5811   -1.7560 H   0  0  0  0  0  0  0  0  0  0  0  0
    1.2521    0.9215   -1.8103 H   0  0  0  0  0  0  0  0  0  0  0  0
    1.3922    0.9816    0.6272 H   0  0  0  0  0  0  0  0  0  0  0  0
    1.3478   -1.2991    1.7167 H   0  0  0  0  0  0  0  0  0  0  0  0
    0.9158   -2.0536    0.1657 H   0  0  0  0  0  0  0  0  0  0  0  0
    3.3413   -0.9409    1.1148 H   0  0  0  0  0  0  0  0  0  0  0  0
  1  2  1  0
  2  3  1  0
  2  4  1  0
  4  5  1  0
  4  6  1  0
  6  7  1  0
  7  8  1  0
  8  9  1  0
  7  2  1  0
  1 10  1  0
  1 11  1  0
  1 12  1  0
  3 13  1  0
  4 14  1  0
  5 15  1  0
  6 16  1  0
  6 17  1  0
  7 18  1  0
  8 19  1  0
  8 20  1  0
  9 21  1  0
M  END
