
     RDKit          3D

 20 20  0  0  0  0  0  0  0  0999 V2000
   -1.1810    0.9163   -0.7881 C   0  0  0  0  0  0  0  0  0  0  0  0
   -0.7626   -0.1677    0.1735 C   0  0  0  0  0  0  0  0  0  0  0  0
   -2.0104   -0.7811    0.8233 C   0  0  0  0  0  0  0  0  0  0  0  0
   -0.0343    0.4193    1.1927 O   0  0  0  0  0  0  0  0  0  0  0  0
    1.1824    0.9198    0.7734 C   0  0  0  0  0  0  0  0  0  0  0  0
    1.9835   -0.1814    0.1092 C   0  0  0  0  0  0  0  0  0  0  0  0
    1.1464   -0.8826   -0.9265 C   0  0  0  0  0  0  0  0  0  0  0  0
   -0.1076   -1.2089   -0.4505 O   0  0  0  0  0  0  0  0  0  0  0  0
   -0.6509    0.8809   -1.7513 H   0  0  0  0  0  0  0  0  0  0  0  0
   -2.2776    0.8232   -0.9713 H   0  0  0  0  0  0  0  0  0  0  0  0
   -1.0141    1.9372   -0.3626 H   0  0  0  0  0  0  0  0  0  0  0  0
   -2.3168   -1.6951    0.2506 H   0  0  0  0  0  0  0  0  0  0  0  0
   -2.8354   -0.0622    0.7437 H   0  0  0  0  0  0  0  0  0  0  0  0
   -1.7505   -1.0848    1.8390 H   0  0  0  0  0  0  0  0  0  0  0  0
    1.1066    1.8243    0.1490 H   0  0  0  0  0  0  0  0  0  0  0  0
    1.7514    1.2152    1.6904 H   0  0  0  0  0  0  0  0  0  0  0  0
    2.1891   -0.9363    0.9143 H   0  0  0  0  0  0  0  0  0  0  0  0
    2.9039    0.2034   -0.3439 H   0  0  0  0  0  0  0  0  0  0  0  0
    1.0348   -0.2871   -1.8566 H   0  0  0  0  0  0  0  0  0  0  0  0
    1.6432   -1.8523   -1.2081 H   0  0  0  0  0  0  0  0  0  0  0  0
  1  2  1  0
  2  3  1  0
  2  4  1  0
  4  5  1  0
  5  6  1  0
  6  7  1  0
  7  8  1  0
  8  2  1  0
  1  9  1  0
  1 10  1  0
  1 11  1  0
  3 12  1  0
  3 13  1  0
  3 14  1  0
  5 15  1  0
  5 16  1  0
  6 17  1  0
  6 18  1  0
  7 19  1  0
  7 20  1  0
M  END
