
     RDKit          3D

 21 22  0  0  0  0  0  0  0  0999 V2000
    1.2997   -0.3620    1.3037 C   0  0  0  0  0  0  0  0  0  0  0  0
    0.7420   -0.1948   -0.0788 C   0  0  0  0  0  0  0  0  0  0  0  0
    1.7680    0.1795   -1.1212 C   0  0  0  0  0  0  0  0  0  0  0  0
   -0.4630   -0.8728   -0.5444 C   0  0  0  0  0  0  0  0  0  0  0  0
   -1.4750   -1.2699    0.5166 C   0  0  0  0  0  0  0  0  0  0  0  0
   -1.6262    0.2111    0.8613 C   0  0  0  0  0  0  0  0  0  0  0  0
   -0.5601    0.5263   -0.1198 C   0  0  0  0  0  0  0  0  0  0  0  0
   -0.6457    1.6575   -1.0473 C   0  0  0  0  0  0  0  0  0  0  0  0
   -1.1460    1.6416   -2.1387 O   0  0  0  0  0  0  0  0  0  0  0  0
    2.0930   -1.1127    1.2781 H   0  0  0  0  0  0  0  0  0  0  0  0
    1.6823    0.6498    1.6283 H   0  0  0  0  0  0  0  0  0  0  0  0
    0.4687   -0.5900    1.9956 H   0  0  0  0  0  0  0  0  0  0  0  0
    1.9409   -0.6422   -1.8621 H   0  0  0  0  0  0  0  0  0  0  0  0
    2.7475    0.4675   -0.6751 H   0  0  0  0  0  0  0  0  0  0  0  0
    1.3847    1.0343   -1.7181 H   0  0  0  0  0  0  0  0  0  0  0  0
   -0.6282   -1.2400   -1.5507 H   0  0  0  0  0  0  0  0  0  0  0  0
   -0.9930   -1.8617    1.3097 H   0  0  0  0  0  0  0  0  0  0  0  0
   -2.3756   -1.7531    0.1421 H   0  0  0  0  0  0  0  0  0  0  0  0
   -1.3637    0.3737    1.9414 H   0  0  0  0  0  0  0  0  0  0  0  0
   -2.6383    0.5512    0.5911 H   0  0  0  0  0  0  0  0  0  0  0  0
   -0.2119    2.6067   -0.7118 H   0  0  0  0  0  0  0  0  0  0  0  0
  1  2  1  0
  2  3  1  0
  2  4  1  0
  4  5  1  0
  5  6  1  0
  6  7  1  0
  7  8  1  0
  8  9  2  0
  7  2  1  0
  7  4  1  0
  1 10  1  0
  1 11  1  0
  1 12  1  0
  3 13  1  0
  3 14  1  0
  3 15  1  0
  4 16  1  0
  5 17  1  0
  5 18  1  0
  6 19  1  0
  6 20  1  0
  8 21  1  0
M  END
