
     RDKit          3D

 21 22  0  0  0  0  0  0  0  0999 V2000
   -1.7581    0.3865   -1.1262 C   0  0  0  0  0  0  0  0  0  0  0  0
   -0.9164   -0.0131    0.0352 C   0  0  0  0  0  0  0  0  0  0  0  0
   -1.6923   -0.4273    1.2696 C   0  0  0  0  0  0  0  0  0  0  0  0
    0.0494    1.0966    0.3690 C   0  0  0  0  0  0  0  0  0  0  0  0
   -0.1244    2.2330    0.7169 O   0  0  0  0  0  0  0  0  0  0  0  0
    1.1519    0.1632    0.0784 C   0  0  0  0  0  0  0  0  0  0  0  0
    2.3075    0.5763   -0.7669 C   0  0  0  0  0  0  0  0  0  0  0  0
    1.2296   -1.0948    0.8362 C   0  0  0  0  0  0  0  0  0  0  0  0
    0.2421   -0.9289   -0.2496 C   0  0  0  0  0  0  0  0  0  0  0  0
   -1.8622    1.4990   -1.1503 H   0  0  0  0  0  0  0  0  0  0  0  0
   -2.8075    0.0016   -1.0683 H   0  0  0  0  0  0  0  0  0  0  0  0
   -1.2710    0.1171   -2.0917 H   0  0  0  0  0  0  0  0  0  0  0  0
   -1.1043   -0.1702    2.1862 H   0  0  0  0  0  0  0  0  0  0  0  0
   -2.6121    0.2050    1.2917 H   0  0  0  0  0  0  0  0  0  0  0  0
   -1.9758   -1.5042    1.2448 H   0  0  0  0  0  0  0  0  0  0  0  0
    2.2872    1.6815   -0.8946 H   0  0  0  0  0  0  0  0  0  0  0  0
    3.2423    0.3444   -0.1914 H   0  0  0  0  0  0  0  0  0  0  0  0
    2.3083    0.1040   -1.7726 H   0  0  0  0  0  0  0  0  0  0  0  0
    2.1070   -1.7532    0.5948 H   0  0  0  0  0  0  0  0  0  0  0  0
    0.8700   -1.0675    1.8945 H   0  0  0  0  0  0  0  0  0  0  0  0
    0.3290   -1.4489   -1.2057 H   0  0  0  0  0  0  0  0  0  0  0  0
  1  2  1  0
  2  3  1  0
  2  4  1  0
  4  5  2  0
  4  6  1  0
  6  7  1  0
  6  8  1  0
  8  9  1  0
  9  2  1  0
  9  6  1  0
  1 10  1  0
  1 11  1  0
  1 12  1  0
  3 13  1  0
  3 14  1  0
  3 15  1  0
  7 16  1  0
  7 17  1  0
  7 18  1  0
  8 19  1  0
  8 20  1  0
  9 21  1  0
M  END
