
     RDKit          3D

 21 22  0  0  0  0  0  0  0  0999 V2000
   -2.2974   -0.2712    0.4748 C   0  0  0  0  0  0  0  0  0  0  0  0
   -1.1554    0.3057   -0.3385 C   0  0  0  0  0  0  0  0  0  0  0  0
   -1.5382    1.4752   -0.9982 O   0  0  0  0  0  0  0  0  0  0  0  0
   -0.6496   -0.6386   -1.3448 C   0  0  0  0  0  0  0  0  0  0  0  0
    0.6253   -0.8748   -1.1348 C   0  0  0  0  0  0  0  0  0  0  0  0
    1.1152   -0.1337    0.0124 C   0  0  0  0  0  0  0  0  0  0  0  0
    2.4541    0.5481    0.0125 C   0  0  0  0  0  0  0  0  0  0  0  0
    0.5527   -0.6329    1.3507 C   0  0  0  0  0  0  0  0  0  0  0  0
   -0.0288    0.5642    0.6017 C   0  0  0  0  0  0  0  0  0  0  0  0
   -2.8239   -1.0879   -0.0598 H   0  0  0  0  0  0  0  0  0  0  0  0
   -1.9396   -0.6459    1.4526 H   0  0  0  0  0  0  0  0  0  0  0  0
   -2.9993    0.5744    0.7136 H   0  0  0  0  0  0  0  0  0  0  0  0
   -0.8113    1.6712   -1.6449 H   0  0  0  0  0  0  0  0  0  0  0  0
   -1.2655   -1.0932   -2.1747 H   0  0  0  0  0  0  0  0  0  0  0  0
    1.2248   -1.5577   -1.7690 H   0  0  0  0  0  0  0  0  0  0  0  0
    3.2026   -0.1348   -0.3991 H   0  0  0  0  0  0  0  0  0  0  0  0
    2.7057    0.7723    1.0766 H   0  0  0  0  0  0  0  0  0  0  0  0
    2.4287    1.5221   -0.5318 H   0  0  0  0  0  0  0  0  0  0  0  0
    1.1344   -0.3504    2.2495 H   0  0  0  0  0  0  0  0  0  0  0  0
    0.0027   -1.5731    1.3648 H   0  0  0  0  0  0  0  0  0  0  0  0
    0.0628    1.5608    1.0865 H   0  0  0  0  0  0  0  0  0  0  0  0
  1  2  1  0
  2  3  1  0
  2  4  1  0
  4  5  2  0
  5  6  1  0
  6  7  1  0
  6  8  1  0
  8  9  1  0
  9  2  1  0
  9  6  1  0
  1 10  1  0
  1 11  1  0
  1 12  1  0
  3 13  1  0
  4 14  1  0
  5 15  1  0
  7 16  1  0
  7 17  1  0
  7 18  1  0
  8 19  1  0
  8 20  1  0
  9 21  1  0
M  END
