
     RDKit          3D

 17 18  0  0  0  0  0  0  0  0999 V2000
   -1.6574   -0.7624   -0.0509 C   0  0  0  0  0  0  0  0  0  0  0  0
   -0.3396   -0.0093    0.0907 C   0  0  0  0  0  0  0  0  0  0  0  0
   -0.6529    1.4159    0.0821 C   0  0  0  0  0  0  0  0  0  0  0  0
    0.3558   -0.4506    1.2773 O   0  0  0  0  0  0  0  0  0  0  0  0
    1.6970   -0.6060    0.9483 C   0  0  0  0  0  0  0  0  0  0  0  0
    2.5608   -1.2250    1.5915 O   0  0  0  0  0  0  0  0  0  0  0  0
    1.8544    0.1062   -0.2943 C   0  0  0  0  0  0  0  0  0  0  0  0
    1.6454   -0.1267   -1.5557 O   0  0  0  0  0  0  0  0  0  0  0  0
    0.5811   -0.5428   -0.9371 C   0  0  0  0  0  0  0  0  0  0  0  0
   -1.9419   -0.6773   -1.1411 H   0  0  0  0  0  0  0  0  0  0  0  0
   -2.4821   -0.2626    0.4947 H   0  0  0  0  0  0  0  0  0  0  0  0
   -1.5540   -1.8346    0.2002 H   0  0  0  0  0  0  0  0  0  0  0  0
    0.0366    2.0986    0.5976 H   0  0  0  0  0  0  0  0  0  0  0  0
   -1.6511    1.5669    0.5916 H   0  0  0  0  0  0  0  0  0  0  0  0
   -0.7789    1.7735   -0.9567 H   0  0  0  0  0  0  0  0  0  0  0  0
    1.7467    1.2193   -0.0779 H   0  0  0  0  0  0  0  0  0  0  0  0
    0.5802   -1.6830   -0.8603 H   0  0  0  0  0  0  0  0  0  0  0  0
  1  2  1  0
  2  3  1  0
  2  4  1  0
  4  5  1  0
  5  6  2  0
  5  7  1  0
  7  8  1  0
  8  9  1  0
  9  2  1  0
  9  7  1  0
  1 10  1  0
  1 11  1  0
  1 12  1  0
  3 13  1  0
  3 14  1  0
  3 15  1  0
  7 16  1  0
  9 17  1  0
M  END
