
     RDKit          3D

 23 23  0  0  0  0  0  0  0  0999 V2000
   -2.1696   -0.1032    1.4453 C   0  0  0  0  0  0  0  0  0  0  0  0
   -1.5820    0.2897    0.1308 C   0  0  0  0  0  0  0  0  0  0  0  0
   -2.5042    0.9230   -0.6717 O   0  0  0  0  0  0  0  0  0  0  0  0
   -0.8071   -0.8278   -0.5844 C   0  0  0  0  0  0  0  0  0  0  0  0
    0.2095    0.2376   -0.9414 C   0  0  0  0  0  0  0  0  0  0  0  0
    1.6014   -0.2104   -1.1139 C   0  0  0  0  0  0  0  0  0  0  0  0
    2.2544   -0.8505    0.0492 C   0  0  0  0  0  0  0  0  0  0  0  0
    2.3317   -0.0294    1.1698 O   0  0  0  0  0  0  0  0  0  0  0  0
   -0.2272    1.0112    0.2255 C   0  0  0  0  0  0  0  0  0  0  0  0
   -1.4648    0.2095    2.2483 H   0  0  0  0  0  0  0  0  0  0  0  0
   -3.1412    0.4038    1.6620 H   0  0  0  0  0  0  0  0  0  0  0  0
   -2.2809   -1.2090    1.5369 H   0  0  0  0  0  0  0  0  0  0  0  0
   -2.1931    1.7660   -1.0698 H   0  0  0  0  0  0  0  0  0  0  0  0
   -0.4395   -1.6046    0.1163 H   0  0  0  0  0  0  0  0  0  0  0  0
   -1.3641   -1.2531   -1.4263 H   0  0  0  0  0  0  0  0  0  0  0  0
   -0.1516    0.7360   -1.8909 H   0  0  0  0  0  0  0  0  0  0  0  0
    1.6514   -0.8664   -2.0088 H   0  0  0  0  0  0  0  0  0  0  0  0
    2.2402    0.6811   -1.3930 H   0  0  0  0  0  0  0  0  0  0  0  0
    1.8100   -1.8017    0.3780 H   0  0  0  0  0  0  0  0  0  0  0  0
    3.3129   -1.0882   -0.2274 H   0  0  0  0  0  0  0  0  0  0  0  0
    3.0743    0.6207    1.1123 H   0  0  0  0  0  0  0  0  0  0  0  0
   -0.3380    2.1170    0.0406 H   0  0  0  0  0  0  0  0  0  0  0  0
    0.1776    0.8487    1.2128 H   0  0  0  0  0  0  0  0  0  0  0  0
  1  2  1  0
  2  3  1  0
  2  4  1  0
  4  5  1  0
  5  6  1  0
  6  7  1  0
  7  8  1  0
  5  9  1  0
  9  2  1  0
  1 10  1  0
  1 11  1  0
  1 12  1  0
  3 13  1  0
  4 14  1  0
  4 15  1  0
  5 16  1  0
  6 17  1  0
  6 18  1  0
  7 19  1  0
  7 20  1  0
  8 21  1  0
  9 22  1  0
  9 23  1  0
M  END
