
     RDKit          3D

 25 25  0  0  0  0  0  0  0  0999 V2000
   -1.4066   -0.3143    1.5396 C   0  0  0  0  0  0  0  0  0  0  0  0
   -0.9073   -0.1706    0.0945 C   0  0  0  0  0  0  0  0  0  0  0  0
   -2.1434   -0.3567   -0.7878 C   0  0  0  0  0  0  0  0  0  0  0  0
    0.0306   -1.2779   -0.2021 C   0  0  0  0  0  0  0  0  0  0  0  0
    1.3704   -0.8446   -0.7185 C   0  0  0  0  0  0  0  0  0  0  0  0
    1.8790    0.2130    0.2511 C   0  0  0  0  0  0  0  0  0  0  0  0
    3.2151    0.4797    0.1030 O   0  0  0  0  0  0  0  0  0  0  0  0
    1.0449    1.4298    0.0295 C   0  0  0  0  0  0  0  0  0  0  0  0
   -0.3998    1.2039   -0.1233 C   0  0  0  0  0  0  0  0  0  0  0  0
   -0.7865    0.2292    2.2488 H   0  0  0  0  0  0  0  0  0  0  0  0
   -1.5336   -1.4002    1.7845 H   0  0  0  0  0  0  0  0  0  0  0  0
   -2.4458    0.1072    1.5760 H   0  0  0  0  0  0  0  0  0  0  0  0
   -3.0006   -0.7485   -0.2280 H   0  0  0  0  0  0  0  0  0  0  0  0
   -1.9355   -1.0949   -1.6032 H   0  0  0  0  0  0  0  0  0  0  0  0
   -2.4634    0.6080   -1.2434 H   0  0  0  0  0  0  0  0  0  0  0  0
    0.2280   -1.8984    0.7170 H   0  0  0  0  0  0  0  0  0  0  0  0
   -0.3806   -2.0077   -0.9601 H   0  0  0  0  0  0  0  0  0  0  0  0
    1.2110   -0.3708   -1.7141 H   0  0  0  0  0  0  0  0  0  0  0  0
    2.0707   -1.6752   -0.7255 H   0  0  0  0  0  0  0  0  0  0  0  0
    1.7218   -0.1215    1.3082 H   0  0  0  0  0  0  0  0  0  0  0  0
    3.5580    0.4532   -0.8098 H   0  0  0  0  0  0  0  0  0  0  0  0
    1.4729    1.9492   -0.8783 H   0  0  0  0  0  0  0  0  0  0  0  0
    1.2804    2.1442    0.8724 H   0  0  0  0  0  0  0  0  0  0  0  0
   -0.7372    1.5836   -1.1326 H   0  0  0  0  0  0  0  0  0  0  0  0
   -0.9425    1.8802    0.6021 H   0  0  0  0  0  0  0  0  0  0  0  0
  1  2  1  0
  2  3  1  0
  2  4  1  0
  4  5  1  0
  5  6  1  0
  6  7  1  0
  6  8  1  0
  8  9  1  0
  9  2  1  0
  1 10  1  0
  1 11  1  0
  1 12  1  0
  3 13  1  0
  3 14  1  0
  3 15  1  0
  4 16  1  0
  4 17  1  0
  5 18  1  0
  5 19  1  0
  6 20  1  0
  7 21  1  0
  8 22  1  0
  8 23  1  0
  9 24  1  0
  9 25  1  0
M  END
