
     RDKit          3D

 23 23  0  0  0  0  0  0  0  0999 V2000
    0.7160    1.6654   -0.5544 C   0  0  0  0  0  0  0  0  0  0  0  0
    0.5412    0.4027    0.2351 C   0  0  0  0  0  0  0  0  0  0  0  0
    1.8338    0.2182    1.0455 C   0  0  0  0  0  0  0  0  0  0  0  0
    1.7538   -0.8935    1.8708 O   0  0  0  0  0  0  0  0  0  0  0  0
    0.4095   -0.8266   -0.6187 C   0  0  0  0  0  0  0  0  0  0  0  0
   -0.9731   -1.0908   -1.1030 C   0  0  0  0  0  0  0  0  0  0  0  0
   -2.0011   -0.7910   -0.0365 C   0  0  0  0  0  0  0  0  0  0  0  0
   -1.7188    0.6082    0.4714 C   0  0  0  0  0  0  0  0  0  0  0  0
   -0.4961    0.5669    1.1240 O   0  0  0  0  0  0  0  0  0  0  0  0
    0.0428    1.7542   -1.4210 H   0  0  0  0  0  0  0  0  0  0  0  0
    1.7862    1.7440   -0.9070 H   0  0  0  0  0  0  0  0  0  0  0  0
    0.5995    2.5156    0.1706 H   0  0  0  0  0  0  0  0  0  0  0  0
    2.7046    0.0670    0.3728 H   0  0  0  0  0  0  0  0  0  0  0  0
    2.0401    1.1606    1.6056 H   0  0  0  0  0  0  0  0  0  0  0  0
    2.2495   -1.6690    1.4593 H   0  0  0  0  0  0  0  0  0  0  0  0
    0.7020   -1.6984    0.0375 H   0  0  0  0  0  0  0  0  0  0  0  0
    1.1446   -0.8046   -1.4271 H   0  0  0  0  0  0  0  0  0  0  0  0
   -1.0498   -2.2011   -1.2950 H   0  0  0  0  0  0  0  0  0  0  0  0
   -1.2253   -0.6063   -2.0651 H   0  0  0  0  0  0  0  0  0  0  0  0
   -3.0232   -0.8788   -0.4501 H   0  0  0  0  0  0  0  0  0  0  0  0
   -1.8349   -1.4884    0.8154 H   0  0  0  0  0  0  0  0  0  0  0  0
   -1.6805    1.2609   -0.4468 H   0  0  0  0  0  0  0  0  0  0  0  0
   -2.5208    0.9849    1.1167 H   0  0  0  0  0  0  0  0  0  0  0  0
  1  2  1  0
  2  3  1  0
  3  4  1  0
  2  5  1  0
  5  6  1  0
  6  7  1  0
  7  8  1  0
  8  9  1  0
  9  2  1  0
  1 10  1  0
  1 11  1  0
  1 12  1  0
  3 13  1  0
  3 14  1  0
  4 15  1  0
  5 16  1  0
  5 17  1  0
  6 18  1  0
  6 19  1  0
  7 20  1  0
  7 21  1  0
  8 22  1  0
  8 23  1  0
M  END
