
     RDKit          3D

 21 21  0  0  0  0  0  0  0  0999 V2000
   -1.3006    0.6633    1.0979 C   0  0  0  0  0  0  0  0  0  0  0  0
   -0.7215   -0.1269   -0.0300 C   0  0  0  0  0  0  0  0  0  0  0  0
   -1.7421   -1.0323   -0.7032 C   0  0  0  0  0  0  0  0  0  0  0  0
   -0.0555    0.7149   -1.0754 C   0  0  0  0  0  0  0  0  0  0  0  0
    1.2537    1.0935   -0.3654 C   0  0  0  0  0  0  0  0  0  0  0  0
    1.7106   -0.2974    0.0641 C   0  0  0  0  0  0  0  0  0  0  0  0
    2.6179   -0.1373    1.0792 O   0  0  0  0  0  0  0  0  0  0  0  0
    0.4361   -0.9226    0.5021 C   0  0  0  0  0  0  0  0  0  0  0  0
    0.3809   -1.9238    1.1853 O   0  0  0  0  0  0  0  0  0  0  0  0
   -0.5471    0.9120    1.8683 H   0  0  0  0  0  0  0  0  0  0  0  0
   -2.0745    0.0457    1.6217 H   0  0  0  0  0  0  0  0  0  0  0  0
   -1.8190    1.5794    0.7713 H   0  0  0  0  0  0  0  0  0  0  0  0
   -1.1514   -1.7750   -1.2945 H   0  0  0  0  0  0  0  0  0  0  0  0
   -2.3412   -0.3610   -1.3751 H   0  0  0  0  0  0  0  0  0  0  0  0
   -2.3870   -1.5309    0.0440 H   0  0  0  0  0  0  0  0  0  0  0  0
   -0.6217    1.5797   -1.3971 H   0  0  0  0  0  0  0  0  0  0  0  0
    0.2496    0.0258   -1.9029 H   0  0  0  0  0  0  0  0  0  0  0  0
    1.0364    1.7320    0.5087 H   0  0  0  0  0  0  0  0  0  0  0  0
    1.9086    1.5479   -1.1075 H   0  0  0  0  0  0  0  0  0  0  0  0
    2.1059   -0.8016   -0.8323 H   0  0  0  0  0  0  0  0  0  0  0  0
    3.0620   -0.9854    1.3409 H   0  0  0  0  0  0  0  0  0  0  0  0
  1  2  1  0
  2  3  1  0
  2  4  1  0
  4  5  1  0
  5  6  1  0
  6  7  1  0
  6  8  1  0
  8  9  2  0
  8  2  1  0
  1 10  1  0
  1 11  1  0
  1 12  1  0
  3 13  1  0
  3 14  1  0
  3 15  1  0
  4 16  1  0
  4 17  1  0
  5 18  1  0
  5 19  1  0
  6 20  1  0
  7 21  1  0
M  END
