
     RDKit          3D

 17 17  0  0  0  0  0  0  0  0999 V2000
   -1.8227    0.3860   -0.2157 C   0  0  0  0  0  0  0  0  0  0  0  0
   -0.5455   -0.0278    0.4165 C   0  0  0  0  0  0  0  0  0  0  0  0
   -0.2726    0.5199    1.6708 O   0  0  0  0  0  0  0  0  0  0  0  0
   -0.3405   -1.5002    0.4797 C   0  0  0  0  0  0  0  0  0  0  0  0
   -1.0177   -2.5008    0.6007 O   0  0  0  0  0  0  0  0  0  0  0  0
    1.1124   -1.2239    0.3254 C   0  0  0  0  0  0  0  0  0  0  0  0
    0.6906    0.0285   -0.4573 C   0  0  0  0  0  0  0  0  0  0  0  0
    1.5815    1.1735   -0.2405 C   0  0  0  0  0  0  0  0  0  0  0  0
    1.2343    2.2498    0.1535 O   0  0  0  0  0  0  0  0  0  0  0  0
   -1.7188    1.1295   -1.0270 H   0  0  0  0  0  0  0  0  0  0  0  0
   -2.3773   -0.5125   -0.6157 H   0  0  0  0  0  0  0  0  0  0  0  0
   -2.4972    0.7656    0.6062 H   0  0  0  0  0  0  0  0  0  0  0  0
   -0.4563    1.4727    1.6495 H   0  0  0  0  0  0  0  0  0  0  0  0
    1.5622   -0.8582    1.2947 H   0  0  0  0  0  0  0  0  0  0  0  0
    1.6973   -1.9447   -0.2322 H   0  0  0  0  0  0  0  0  0  0  0  0
    0.5259   -0.1922   -1.5210 H   0  0  0  0  0  0  0  0  0  0  0  0
    2.6444    1.0349   -0.4547 H   0  0  0  0  0  0  0  0  0  0  0  0
  1  2  1  0
  2  3  1  0
  2  4  1  0
  4  5  2  0
  4  6  1  0
  6  7  1  0
  7  8  1  0
  8  9  2  0
  7  2  1  0
  1 10  1  0
  1 11  1  0
  1 12  1  0
  3 13  1  0
  6 14  1  0
  6 15  1  0
  7 16  1  0
  8 17  1  0
M  END
