
     RDKit          3D

 19 19  0  0  0  0  0  0  0  0999 V2000
   -2.3068    0.9141    0.0635 C   0  0  0  0  0  0  0  0  0  0  0  0
   -1.2536   -0.1802    0.1857 C   0  0  0  0  0  0  0  0  0  0  0  0
   -1.6042   -1.3315    0.8737 O   0  0  0  0  0  0  0  0  0  0  0  0
   -0.3847   -0.2846   -1.0404 C   0  0  0  0  0  0  0  0  0  0  0  0
    0.1824    0.2247    0.2498 C   0  0  0  0  0  0  0  0  0  0  0  0
    1.1964   -0.6717    0.8946 C   0  0  0  0  0  0  0  0  0  0  0  0
    2.4691   -0.0513    0.8188 O   0  0  0  0  0  0  0  0  0  0  0  0
    3.0058    0.2509   -0.4056 C   0  0  0  0  0  0  0  0  0  0  0  0
    2.4244    0.0062   -1.5113 O   0  0  0  0  0  0  0  0  0  0  0  0
   -1.7850    1.7822   -0.3988 H   0  0  0  0  0  0  0  0  0  0  0  0
   -2.7329    1.2079    1.0248 H   0  0  0  0  0  0  0  0  0  0  0  0
   -3.0421    0.5645   -0.6839 H   0  0  0  0  0  0  0  0  0  0  0  0
   -2.1089   -1.0051    1.6865 H   0  0  0  0  0  0  0  0  0  0  0  0
   -0.4637    0.4615   -1.8407 H   0  0  0  0  0  0  0  0  0  0  0  0
   -0.1678   -1.3199   -1.3418 H   0  0  0  0  0  0  0  0  0  0  0  0
    0.3589    1.2979    0.3946 H   0  0  0  0  0  0  0  0  0  0  0  0
    1.3122   -1.6524    0.3497 H   0  0  0  0  0  0  0  0  0  0  0  0
    0.9220   -0.9385    1.9266 H   0  0  0  0  0  0  0  0  0  0  0  0
    3.9784    0.7252   -0.4671 H   0  0  0  0  0  0  0  0  0  0  0  0
  1  2  1  0
  2  3  1  0
  2  4  1  0
  4  5  1  0
  5  6  1  0
  6  7  1  0
  7  8  1  0
  8  9  2  0
  5  2  1  0
  1 10  1  0
  1 11  1  0
  1 12  1  0
  3 13  1  0
  4 14  1  0
  4 15  1  0
  5 16  1  0
  6 17  1  0
  6 18  1  0
  8 19  1  0
M  END
