
     RDKit          3D

 19 20  0  0  0  0  0  0  0  0999 V2000
   -0.8966   -0.6211    1.2956 C   0  0  0  0  0  0  0  0  0  0  0  0
   -0.7653    0.0163   -0.0882 C   0  0  0  0  0  0  0  0  0  0  0  0
   -2.1080    0.2130   -0.6979 C   0  0  0  0  0  0  0  0  0  0  0  0
    0.1221    1.1903   -0.0259 C   0  0  0  0  0  0  0  0  0  0  0  0
    0.0787    2.3535    0.3362 O   0  0  0  0  0  0  0  0  0  0  0  0
    1.1935    0.3782   -0.6176 C   0  0  0  0  0  0  0  0  0  0  0  0
    2.4970    0.1733    0.0885 C   0  0  0  0  0  0  0  0  0  0  0  0
    0.9772   -0.0711   -1.8885 O   0  0  0  0  0  0  0  0  0  0  0  0
    0.2617   -0.7025   -0.9086 C   0  0  0  0  0  0  0  0  0  0  0  0
   -0.7755   -1.7216    1.2370 H   0  0  0  0  0  0  0  0  0  0  0  0
   -0.0789   -0.2692    1.9765 H   0  0  0  0  0  0  0  0  0  0  0  0
   -1.8488   -0.3387    1.7874 H   0  0  0  0  0  0  0  0  0  0  0  0
   -2.1394    0.0987   -1.7826 H   0  0  0  0  0  0  0  0  0  0  0  0
   -2.8352   -0.5246   -0.2738 H   0  0  0  0  0  0  0  0  0  0  0  0
   -2.5547    1.2144   -0.4696 H   0  0  0  0  0  0  0  0  0  0  0  0
    3.2797   -0.1075   -0.6303 H   0  0  0  0  0  0  0  0  0  0  0  0
    2.8024    1.1237    0.5739 H   0  0  0  0  0  0  0  0  0  0  0  0
    2.3268   -0.6355    0.8541 H   0  0  0  0  0  0  0  0  0  0  0  0
    0.4633   -1.7696   -0.7662 H   0  0  0  0  0  0  0  0  0  0  0  0
  1  2  1  0
  2  3  1  0
  2  4  1  0
  4  5  2  0
  4  6  1  0
  6  7  1  0
  6  8  1  0
  8  9  1  0
  9  2  1  0
  9  6  1  0
  1 10  1  0
  1 11  1  0
  1 12  1  0
  3 13  1  0
  3 14  1  0
  3 15  1  0
  7 16  1  0
  7 17  1  0
  7 18  1  0
  9 19  1  0
M  END
