
     RDKit          3D

 23 24  0  0  0  0  0  0  0  0999 V2000
    2.0431    0.5862    0.4839 C   0  0  0  0  0  0  0  0  0  0  0  0
    0.8328   -0.3006    0.2316 C   0  0  0  0  0  0  0  0  0  0  0  0
    1.1274   -1.4857   -0.6309 C   0  0  0  0  0  0  0  0  0  0  0  0
   -0.2576   -0.1938    1.1750 C   0  0  0  0  0  0  0  0  0  0  0  0
   -1.6110   -0.7704    1.0256 C   0  0  0  0  0  0  0  0  0  0  0  0
   -1.6692   -0.3101   -0.4110 C   0  0  0  0  0  0  0  0  0  0  0  0
   -1.6262   -1.3785   -1.2601 O   0  0  0  0  0  0  0  0  0  0  0  0
   -0.3980    0.4479   -0.1824 C   0  0  0  0  0  0  0  0  0  0  0  0
   -0.3226    1.9222   -0.3483 C   0  0  0  0  0  0  0  0  0  0  0  0
    1.7015    1.5092    0.9951 H   0  0  0  0  0  0  0  0  0  0  0  0
    2.5593    0.7749   -0.4681 H   0  0  0  0  0  0  0  0  0  0  0  0
    2.7063    0.0257    1.2041 H   0  0  0  0  0  0  0  0  0  0  0  0
    1.2738   -1.0962   -1.6801 H   0  0  0  0  0  0  0  0  0  0  0  0
    0.4099   -2.2998   -0.5703 H   0  0  0  0  0  0  0  0  0  0  0  0
    2.1252   -1.8921   -0.3200 H   0  0  0  0  0  0  0  0  0  0  0  0
   -0.1204    0.4564    2.0755 H   0  0  0  0  0  0  0  0  0  0  0  0
   -2.4073   -0.2235    1.6114 H   0  0  0  0  0  0  0  0  0  0  0  0
   -1.7385   -1.8438    1.1994 H   0  0  0  0  0  0  0  0  0  0  0  0
   -2.5004    0.3844   -0.6548 H   0  0  0  0  0  0  0  0  0  0  0  0
   -1.2252   -1.2219   -2.1295 H   0  0  0  0  0  0  0  0  0  0  0  0
   -0.2313    2.4805    0.6062 H   0  0  0  0  0  0  0  0  0  0  0  0
    0.5487    2.1804   -1.0183 H   0  0  0  0  0  0  0  0  0  0  0  0
   -1.2203    2.2488   -0.9342 H   0  0  0  0  0  0  0  0  0  0  0  0
  1  2  1  0
  2  3  1  0
  2  4  1  0
  4  5  1  0
  5  6  1  0
  6  7  1  0
  6  8  1  0
  8  9  1  0
  8  2  1  0
  8  4  1  0
  1 10  1  0
  1 11  1  0
  1 12  1  0
  3 13  1  0
  3 14  1  0
  3 15  1  0
  4 16  1  0
  5 17  1  0
  5 18  1  0
  6 19  1  0
  7 20  1  0
  9 21  1  0
  9 22  1  0
  9 23  1  0
M  END
