
     RDKit          3D

 21 22  0  0  0  0  0  0  0  0999 V2000
    1.9004   -0.8972   -0.5374 C   0  0  0  0  0  0  0  0  0  0  0  0
    0.7688   -0.2595    0.2643 C   0  0  0  0  0  0  0  0  0  0  0  0
    0.9769   -0.4542    1.5998 O   0  0  0  0  0  0  0  0  0  0  0  0
    0.8820    1.2481    0.0043 C   0  0  0  0  0  0  0  0  0  0  0  0
   -0.5363    1.6712    0.4148 C   0  0  0  0  0  0  0  0  0  0  0  0
   -1.3422    0.6107   -0.3403 C   0  0  0  0  0  0  0  0  0  0  0  0
   -1.8114   -0.5361    0.4943 C   0  0  0  0  0  0  0  0  0  0  0  0
   -0.5558   -0.6595   -0.2553 C   0  0  0  0  0  0  0  0  0  0  0  0
   -0.5237   -1.5266   -1.3599 O   0  0  0  0  0  0  0  0  0  0  0  0
    2.8462   -0.6169   -0.0630 H   0  0  0  0  0  0  0  0  0  0  0  0
    1.8406   -0.5259   -1.5913 H   0  0  0  0  0  0  0  0  0  0  0  0
    1.8145   -2.0085   -0.4841 H   0  0  0  0  0  0  0  0  0  0  0  0
    0.2845   -0.9403    2.0736 H   0  0  0  0  0  0  0  0  0  0  0  0
    0.9813    1.4566   -1.0818 H   0  0  0  0  0  0  0  0  0  0  0  0
    1.6481    1.7177    0.6250 H   0  0  0  0  0  0  0  0  0  0  0  0
   -0.7391    2.6702   -0.0033 H   0  0  0  0  0  0  0  0  0  0  0  0
   -0.6742    1.5961    1.5033 H   0  0  0  0  0  0  0  0  0  0  0  0
   -1.7713    0.8514   -1.3083 H   0  0  0  0  0  0  0  0  0  0  0  0
   -2.6876   -1.0779    0.0544 H   0  0  0  0  0  0  0  0  0  0  0  0
   -1.8748   -0.4645    1.5885 H   0  0  0  0  0  0  0  0  0  0  0  0
   -1.4269   -1.8548   -1.5977 H   0  0  0  0  0  0  0  0  0  0  0  0
  1  2  1  0
  2  3  1  0
  2  4  1  0
  4  5  1  0
  5  6  1  0
  6  7  1  0
  7  8  1  0
  8  9  1  0
  8  2  1  0
  8  6  1  0
  1 10  1  0
  1 11  1  0
  1 12  1  0
  3 13  1  0
  4 14  1  0
  4 15  1  0
  5 16  1  0
  5 17  1  0
  6 18  1  0
  7 19  1  0
  7 20  1  0
  9 21  1  0
M  END
