
     RDKit          3D

 21 23  0  0  0  0  0  0  0  0999 V2000
   -2.4010   -0.9868   -0.2264 C   0  0  0  0  0  0  0  0  0  0  0  0
   -1.1709   -0.1850    0.1700 C   0  0  0  0  0  0  0  0  0  0  0  0
   -1.3718    1.3115    0.1375 C   0  0  0  0  0  0  0  0  0  0  0  0
   -0.2995   -0.8301    1.1694 C   0  0  0  0  0  0  0  0  0  0  0  0
    0.8458   -0.2645    1.6567 O   0  0  0  0  0  0  0  0  0  0  0  0
    1.3420   -0.0588    0.4079 C   0  0  0  0  0  0  0  0  0  0  0  0
    2.0381    1.1600    0.0487 C   0  0  0  0  0  0  0  0  0  0  0  0
    2.7229   -0.1529   -0.0011 C   0  0  0  0  0  0  0  0  0  0  0  0
    0.1796   -0.6374   -0.2932 C   0  0  0  0  0  0  0  0  0  0  0  0
   -2.9086   -0.5518   -1.1048 H   0  0  0  0  0  0  0  0  0  0  0  0
   -3.0482   -1.0256    0.6775 H   0  0  0  0  0  0  0  0  0  0  0  0
   -2.0640   -2.0183   -0.4862 H   0  0  0  0  0  0  0  0  0  0  0  0
   -0.4368    1.8532   -0.1155 H   0  0  0  0  0  0  0  0  0  0  0  0
   -2.0861    1.5457   -0.6873 H   0  0  0  0  0  0  0  0  0  0  0  0
   -1.7972    1.6936    1.0710 H   0  0  0  0  0  0  0  0  0  0  0  0
   -0.5025   -1.8523    1.5053 H   0  0  0  0  0  0  0  0  0  0  0  0
    2.3711    1.8191    0.8990 H   0  0  0  0  0  0  0  0  0  0  0  0
    1.8904    1.7049   -0.9016 H   0  0  0  0  0  0  0  0  0  0  0  0
    3.4689   -0.4499    0.7813 H   0  0  0  0  0  0  0  0  0  0  0  0
    2.9881   -0.5266   -1.0262 H   0  0  0  0  0  0  0  0  0  0  0  0
    0.2397   -1.5480   -0.9115 H   0  0  0  0  0  0  0  0  0  0  0  0
  1  2  1  0
  2  3  1  0
  2  4  1  0
  4  5  1  0
  5  6  1  0
  6  7  1  0
  7  8  1  0
  6  9  1  0
  9  2  1  0
  9  4  1  0
  8  6  1  0
  1 10  1  0
  1 11  1  0
  1 12  1  0
  3 13  1  0
  3 14  1  0
  3 15  1  0
  4 16  1  0
  7 17  1  0
  7 18  1  0
  8 19  1  0
  8 20  1  0
  9 21  1  0
M  END
