
     RDKit          3D

 21 22  0  0  0  0  0  0  0  0999 V2000
   -2.1234    0.2073   -0.0617 C   0  0  0  0  0  0  0  0  0  0  0  0
   -0.8109   -0.3246    0.5347 C   0  0  0  0  0  0  0  0  0  0  0  0
   -1.1615   -1.0533    1.6530 O   0  0  0  0  0  0  0  0  0  0  0  0
   -0.2368   -1.2397   -0.4830 C   0  0  0  0  0  0  0  0  0  0  0  0
    1.0407   -1.3221   -0.7567 C   0  0  0  0  0  0  0  0  0  0  0  0
    1.9960   -0.4778   -0.0382 C   0  0  0  0  0  0  0  0  0  0  0  0
    1.4287    0.8229    0.4189 C   0  0  0  0  0  0  0  0  0  0  0  0
    0.4987    1.6164   -0.4132 C   0  0  0  0  0  0  0  0  0  0  0  0
    0.0432    0.8532    0.8259 C   0  0  0  0  0  0  0  0  0  0  0  0
   -2.6731    0.8128    0.6788 H   0  0  0  0  0  0  0  0  0  0  0  0
   -2.6741   -0.6619   -0.4274 H   0  0  0  0  0  0  0  0  0  0  0  0
   -1.8121    0.8693   -0.9171 H   0  0  0  0  0  0  0  0  0  0  0  0
   -1.7582   -1.7903    1.3371 H   0  0  0  0  0  0  0  0  0  0  0  0
   -0.9190   -1.8796   -1.0338 H   0  0  0  0  0  0  0  0  0  0  0  0
    1.4086   -2.0077   -1.5100 H   0  0  0  0  0  0  0  0  0  0  0  0
    2.8675   -0.2859   -0.6783 H   0  0  0  0  0  0  0  0  0  0  0  0
    2.3559   -1.0246    0.8681 H   0  0  0  0  0  0  0  0  0  0  0  0
    2.1503    1.4375    1.0212 H   0  0  0  0  0  0  0  0  0  0  0  0
    0.5025    2.7255   -0.3234 H   0  0  0  0  0  0  0  0  0  0  0  0
    0.1500    1.2771   -1.4061 H   0  0  0  0  0  0  0  0  0  0  0  0
   -0.2732    1.4453    1.7107 H   0  0  0  0  0  0  0  0  0  0  0  0
  1  2  1  0
  2  3  1  0
  2  4  1  0
  4  5  2  0
  5  6  1  0
  6  7  1  0
  7  8  1  0
  8  9  1  0
  9  2  1  0
  9  7  1  0
  1 10  1  0
  1 11  1  0
  1 12  1  0
  3 13  1  0
  4 14  1  0
  5 15  1  0
  6 16  1  0
  6 17  1  0
  7 18  1  0
  8 19  1  0
  8 20  1  0
  9 21  1  0
M  END
