
     RDKit          3D

 23 23  0  0  0  0  0  0  0  0999 V2000
   -1.3588   -1.0194   -0.6597 C   0  0  0  0  0  0  0  0  0  0  0  0
   -0.3038   -0.4033    0.2263 C   0  0  0  0  0  0  0  0  0  0  0  0
   -0.2694   -0.9493    1.6190 C   0  0  0  0  0  0  0  0  0  0  0  0
    0.9587    0.1211   -0.3318 C   0  0  0  0  0  0  0  0  0  0  0  0
    1.3004   -0.2891   -1.7244 C   0  0  0  0  0  0  0  0  0  0  0  0
    1.3939   -1.7003   -1.7131 O   0  0  0  0  0  0  0  0  0  0  0  0
   -0.1037    1.0781   -0.0081 C   0  0  0  0  0  0  0  0  0  0  0  0
   -0.0318    1.8656    1.2871 C   0  0  0  0  0  0  0  0  0  0  0  0
   -0.8112    1.7018   -1.0329 O   0  0  0  0  0  0  0  0  0  0  0  0
   -2.3432   -0.8231   -0.1548 H   0  0  0  0  0  0  0  0  0  0  0  0
   -1.4315   -0.5548   -1.6509 H   0  0  0  0  0  0  0  0  0  0  0  0
   -1.2275   -2.1169   -0.6916 H   0  0  0  0  0  0  0  0  0  0  0  0
   -0.5379   -2.0120    1.5814 H   0  0  0  0  0  0  0  0  0  0  0  0
   -0.9691   -0.3580    2.2438 H   0  0  0  0  0  0  0  0  0  0  0  0
    0.7764   -0.9026    2.0203 H   0  0  0  0  0  0  0  0  0  0  0  0
    1.8463    0.1402    0.3600 H   0  0  0  0  0  0  0  0  0  0  0  0
    2.3006    0.0737   -2.0423 H   0  0  0  0  0  0  0  0  0  0  0  0
    0.5593    0.0603   -2.4451 H   0  0  0  0  0  0  0  0  0  0  0  0
    2.0703   -1.9900   -1.0532 H   0  0  0  0  0  0  0  0  0  0  0  0
    0.6875    1.3584    1.9917 H   0  0  0  0  0  0  0  0  0  0  0  0
   -1.0404    1.7119    1.7734 H   0  0  0  0  0  0  0  0  0  0  0  0
    0.2038    2.9214    1.1286 H   0  0  0  0  0  0  0  0  0  0  0  0
   -1.6691    2.0861   -0.7237 H   0  0  0  0  0  0  0  0  0  0  0  0
  1  2  1  0
  2  3  1  0
  2  4  1  0
  4  5  1  0
  5  6  1  0
  4  7  1  0
  7  8  1  0
  7  9  1  0
  7  2  1  0
  1 10  1  0
  1 11  1  0
  1 12  1  0
  3 13  1  0
  3 14  1  0
  3 15  1  0
  4 16  1  0
  5 17  1  0
  5 18  1  0
  6 19  1  0
  8 20  1  0
  8 21  1  0
  8 22  1  0
  9 23  1  0
M  END
