
     RDKit          3D

 21 21  0  0  0  0  0  0  0  0999 V2000
   -1.2032   -0.7789    1.0021 C   0  0  0  0  0  0  0  0  0  0  0  0
   -0.7058    0.0264   -0.1586 C   0  0  0  0  0  0  0  0  0  0  0  0
   -1.2260   -0.3769   -1.4916 C   0  0  0  0  0  0  0  0  0  0  0  0
   -0.8698    1.5155    0.1777 C   0  0  0  0  0  0  0  0  0  0  0  0
    0.4921    1.4328    0.7780 C   0  0  0  0  0  0  0  0  0  0  0  0
    1.1812    1.9481    1.6358 O   0  0  0  0  0  0  0  0  0  0  0  0
    0.7567    0.3305   -0.1857 C   0  0  0  0  0  0  0  0  0  0  0  0
    1.6833   -0.7370    0.2853 C   0  0  0  0  0  0  0  0  0  0  0  0
    2.9929   -0.2268    0.1690 O   0  0  0  0  0  0  0  0  0  0  0  0
   -2.2942   -0.9727    0.8169 H   0  0  0  0  0  0  0  0  0  0  0  0
   -0.7128   -1.7489    1.0457 H   0  0  0  0  0  0  0  0  0  0  0  0
   -1.1812   -0.2152    1.9698 H   0  0  0  0  0  0  0  0  0  0  0  0
   -1.8055   -1.3321   -1.3606 H   0  0  0  0  0  0  0  0  0  0  0  0
   -0.4086   -0.6178   -2.2035 H   0  0  0  0  0  0  0  0  0  0  0  0
   -1.9008    0.3617   -1.9272 H   0  0  0  0  0  0  0  0  0  0  0  0
   -0.8333    2.1382   -0.7498 H   0  0  0  0  0  0  0  0  0  0  0  0
   -1.6808    1.7445    0.8686 H   0  0  0  0  0  0  0  0  0  0  0  0
    1.0448    0.7675   -1.1626 H   0  0  0  0  0  0  0  0  0  0  0  0
    1.6176   -1.6168   -0.3555 H   0  0  0  0  0  0  0  0  0  0  0  0
    1.5445   -0.9501    1.3658 H   0  0  0  0  0  0  0  0  0  0  0  0
    3.5088   -0.6921   -0.5195 H   0  0  0  0  0  0  0  0  0  0  0  0
  1  2  1  0
  2  3  1  0
  2  4  1  0
  4  5  1  0
  5  6  2  0
  5  7  1  0
  7  8  1  0
  8  9  1  0
  7  2  1  0
  1 10  1  0
  1 11  1  0
  1 12  1  0
  3 13  1  0
  3 14  1  0
  3 15  1  0
  4 16  1  0
  4 17  1  0
  7 18  1  0
  8 19  1  0
  8 20  1  0
  9 21  1  0
M  END
