
     RDKit          3D

 16 16  0  0  0  0  0  0  0  0999 V2000
   -1.1829   -1.1756   -0.3130 C   0  0  0  0  0  0  0  0  0  0  0  0
   -0.1144   -0.1575    0.0167 C   0  0  0  0  0  0  0  0  0  0  0  0
    1.2754   -0.7193    0.0509 C   0  0  0  0  0  0  0  0  0  0  0  0
    2.2555    0.1850    0.3470 O   0  0  0  0  0  0  0  0  0  0  0  0
   -0.5205    1.0096    0.8014 C   0  0  0  0  0  0  0  0  0  0  0  0
   -0.2095    1.2084   -0.6371 C   0  0  0  0  0  0  0  0  0  0  0  0
   -2.1216   -0.9285    0.2615 H   0  0  0  0  0  0  0  0  0  0  0  0
   -1.4169   -1.1755   -1.3810 H   0  0  0  0  0  0  0  0  0  0  0  0
   -0.8519   -2.1600    0.0742 H   0  0  0  0  0  0  0  0  0  0  0  0
    1.4797   -1.0990   -0.9931 H   0  0  0  0  0  0  0  0  0  0  0  0
    1.3391   -1.6395    0.6922 H   0  0  0  0  0  0  0  0  0  0  0  0
    1.8709    1.0179    0.6675 H   0  0  0  0  0  0  0  0  0  0  0  0
   -1.6145    1.1030    1.0460 H   0  0  0  0  0  0  0  0  0  0  0  0
    0.1076    1.4606    1.5915 H   0  0  0  0  0  0  0  0  0  0  0  0
    0.7239    1.7750   -0.8399 H   0  0  0  0  0  0  0  0  0  0  0  0
   -1.0199    1.2953   -1.3846 H   0  0  0  0  0  0  0  0  0  0  0  0
  1  2  1  0
  2  3  1  0
  3  4  1  0
  2  5  1  0
  5  6  1  0
  6  2  1  0
  1  7  1  0
  1  8  1  0
  1  9  1  0
  3 10  1  0
  3 11  1  0
  4 12  1  0
  5 13  1  0
  5 14  1  0
  6 15  1  0
  6 16  1  0
M  END
