
     RDKit          3D

 23 24  0  0  0  0  0  0  0  0999 V2000
   -1.2235    1.5254    0.3357 C   0  0  0  0  0  0  0  0  0  0  0  0
   -0.9886    0.0343    0.1417 C   0  0  0  0  0  0  0  0  0  0  0  0
   -2.2968   -0.6960    0.1773 C   0  0  0  0  0  0  0  0  0  0  0  0
   -0.1217   -0.2499   -1.0577 C   0  0  0  0  0  0  0  0  0  0  0  0
    1.0080   -0.5337   -0.1184 C   0  0  0  0  0  0  0  0  0  0  0  0
    2.2519    0.2854   -0.1332 C   0  0  0  0  0  0  0  0  0  0  0  0
    2.0355    1.6358    0.1306 O   0  0  0  0  0  0  0  0  0  0  0  0
    0.8368   -1.7137    0.7620 C   0  0  0  0  0  0  0  0  0  0  0  0
    0.0716   -0.4879    1.0479 C   0  0  0  0  0  0  0  0  0  0  0  0
   -0.7601    1.8330    1.2919 H   0  0  0  0  0  0  0  0  0  0  0  0
   -2.3045    1.7834    0.2851 H   0  0  0  0  0  0  0  0  0  0  0  0
   -0.7237    2.1001   -0.4853 H   0  0  0  0  0  0  0  0  0  0  0  0
   -2.9568   -0.3959   -0.6345 H   0  0  0  0  0  0  0  0  0  0  0  0
   -2.1833   -1.7995    0.1687 H   0  0  0  0  0  0  0  0  0  0  0  0
   -2.8012   -0.4332    1.1311 H   0  0  0  0  0  0  0  0  0  0  0  0
   -0.0005    0.5740   -1.7658 H   0  0  0  0  0  0  0  0  0  0  0  0
   -0.3820   -1.1878   -1.6123 H   0  0  0  0  0  0  0  0  0  0  0  0
    2.9204   -0.1018    0.6764 H   0  0  0  0  0  0  0  0  0  0  0  0
    2.7888    0.1097   -1.0828 H   0  0  0  0  0  0  0  0  0  0  0  0
    2.4456    2.1562   -0.6012 H   0  0  0  0  0  0  0  0  0  0  0  0
    0.3869   -2.6056    0.2787 H   0  0  0  0  0  0  0  0  0  0  0  0
    1.6991   -1.9112    1.4280 H   0  0  0  0  0  0  0  0  0  0  0  0
    0.2979    0.0789    1.9483 H   0  0  0  0  0  0  0  0  0  0  0  0
  1  2  1  0
  2  3  1  0
  2  4  1  0
  4  5  1  0
  5  6  1  0
  6  7  1  0
  5  8  1  0
  8  9  1  0
  9  2  1  0
  9  5  1  0
  1 10  1  0
  1 11  1  0
  1 12  1  0
  3 13  1  0
  3 14  1  0
  3 15  1  0
  4 16  1  0
  4 17  1  0
  6 18  1  0
  6 19  1  0
  7 20  1  0
  8 21  1  0
  8 22  1  0
  9 23  1  0
M  END
