
     RDKit          3D

 21 22  0  0  0  0  0  0  0  0999 V2000
   -0.8184   -1.6825   -0.8280 C   0  0  0  0  0  0  0  0  0  0  0  0
   -0.4473   -0.3690   -0.1640 C   0  0  0  0  0  0  0  0  0  0  0  0
    1.0027   -0.3659    0.2006 C   0  0  0  0  0  0  0  0  0  0  0  0
    1.5348    0.8610    0.8675 C   0  0  0  0  0  0  0  0  0  0  0  0
    2.7575    0.5890    0.2040 O   0  0  0  0  0  0  0  0  0  0  0  0
    1.9298    0.1992   -0.8768 C   0  0  0  0  0  0  0  0  0  0  0  0
   -1.4157   -0.0225    0.9151 C   0  0  0  0  0  0  0  0  0  0  0  0
   -1.7264    1.2255    0.1234 C   0  0  0  0  0  0  0  0  0  0  0  0
   -0.8426    0.7574   -0.8582 O   0  0  0  0  0  0  0  0  0  0  0  0
   -0.8380   -2.4424   -0.0026 H   0  0  0  0  0  0  0  0  0  0  0  0
   -1.7965   -1.6181   -1.3104 H   0  0  0  0  0  0  0  0  0  0  0  0
   -0.0331   -2.0212   -1.5400 H   0  0  0  0  0  0  0  0  0  0  0  0
    1.4166   -1.2789    0.6236 H   0  0  0  0  0  0  0  0  0  0  0  0
    1.6710    0.8414    1.9442 H   0  0  0  0  0  0  0  0  0  0  0  0
    1.1521    1.8247    0.4379 H   0  0  0  0  0  0  0  0  0  0  0  0
    1.5326    1.1259   -1.3487 H   0  0  0  0  0  0  0  0  0  0  0  0
    2.3723   -0.5420   -1.5417 H   0  0  0  0  0  0  0  0  0  0  0  0
   -0.9527    0.1432    1.8918 H   0  0  0  0  0  0  0  0  0  0  0  0
   -2.3256   -0.6733    0.9479 H   0  0  0  0  0  0  0  0  0  0  0  0
   -2.7357    1.2869   -0.3007 H   0  0  0  0  0  0  0  0  0  0  0  0
   -1.4374    2.1616    0.6149 H   0  0  0  0  0  0  0  0  0  0  0  0
  1  2  1  0
  2  3  1  0
  3  4  1  0
  4  5  1  0
  5  6  1  0
  2  7  1  0
  7  8  1  0
  8  9  1  0
  9  2  1  0
  6  3  1  0
  1 10  1  0
  1 11  1  0
  1 12  1  0
  3 13  1  0
  4 14  1  0
  4 15  1  0
  6 16  1  0
  6 17  1  0
  7 18  1  0
  7 19  1  0
  8 20  1  0
  8 21  1  0
M  END
