
     RDKit          3D

 17 18  0  0  0  0  0  0  0  0999 V2000
   -1.3657   -1.0313   -0.3237 C   0  0  0  0  0  0  0  0  0  0  0  0
   -0.5359    0.2295   -0.2033 C   0  0  0  0  0  0  0  0  0  0  0  0
   -1.3424    1.4533   -0.2641 C   0  0  0  0  0  0  0  0  0  0  0  0
   -1.1067    2.2727   -1.1325 O   0  0  0  0  0  0  0  0  0  0  0  0
    0.3980    0.2259   -1.1971 O   0  0  0  0  0  0  0  0  0  0  0  0
    1.5970   -0.2208   -0.7078 C   0  0  0  0  0  0  0  0  0  0  0  0
    1.5649   -0.0458    0.7950 C   0  0  0  0  0  0  0  0  0  0  0  0
    0.7675   -1.0232    1.5026 O   0  0  0  0  0  0  0  0  0  0  0  0
    0.2058    0.2252    1.1217 C   0  0  0  0  0  0  0  0  0  0  0  0
   -1.7230   -1.3888    0.6601 H   0  0  0  0  0  0  0  0  0  0  0  0
   -2.1472   -0.9167   -1.0773 H   0  0  0  0  0  0  0  0  0  0  0  0
   -0.6827   -1.8454   -0.7058 H   0  0  0  0  0  0  0  0  0  0  0  0
   -2.1516    1.6978    0.4152 H   0  0  0  0  0  0  0  0  0  0  0  0
    1.7453   -1.2792   -1.0117 H   0  0  0  0  0  0  0  0  0  0  0  0
    2.4103    0.4345   -1.0833 H   0  0  0  0  0  0  0  0  0  0  0  0
    2.4717    0.2977    1.2899 H   0  0  0  0  0  0  0  0  0  0  0  0
   -0.1055    0.9145    1.9221 H   0  0  0  0  0  0  0  0  0  0  0  0
  1  2  1  0
  2  3  1  0
  3  4  2  0
  2  5  1  0
  5  6  1  0
  6  7  1  0
  7  8  1  0
  8  9  1  0
  9  2  1  0
  9  7  1  0
  1 10  1  0
  1 11  1  0
  1 12  1  0
  3 13  1  0
  6 14  1  0
  6 15  1  0
  7 16  1  0
  9 17  1  0
M  END
