
     RDKit          3D

 16 16  0  0  0  0  0  0  0  0999 V2000
    1.2202   -1.0417    0.7110 C   0  0  0  0  0  0  0  0  0  0  0  0
    0.4842    0.0278   -0.1043 C   0  0  0  0  0  0  0  0  0  0  0  0
    1.3821    0.8245   -0.9693 C   0  0  0  0  0  0  0  0  0  0  0  0
    2.4959    0.4135   -1.2563 O   0  0  0  0  0  0  0  0  0  0  0  0
   -0.6484    0.6628    0.5798 C   0  0  0  0  0  0  0  0  0  0  0  0
   -1.1718    0.2263    1.7732 O   0  0  0  0  0  0  0  0  0  0  0  0
   -0.8884   -0.3154   -0.5712 C   0  0  0  0  0  0  0  0  0  0  0  0
   -1.4176    0.2808   -1.6969 O   0  0  0  0  0  0  0  0  0  0  0  0
    0.4374   -1.7074    1.1223 H   0  0  0  0  0  0  0  0  0  0  0  0
    1.9414   -1.5874    0.0971 H   0  0  0  0  0  0  0  0  0  0  0  0
    1.6863   -0.4929    1.5495 H   0  0  0  0  0  0  0  0  0  0  0  0
    1.1126    1.8028   -1.3912 H   0  0  0  0  0  0  0  0  0  0  0  0
   -0.8224    1.7452    0.3951 H   0  0  0  0  0  0  0  0  0  0  0  0
   -2.1459    0.0705    1.6379 H   0  0  0  0  0  0  0  0  0  0  0  0
   -1.2567   -1.3249   -0.3343 H   0  0  0  0  0  0  0  0  0  0  0  0
   -2.4089    0.4156   -1.5423 H   0  0  0  0  0  0  0  0  0  0  0  0
  1  2  1  0
  2  3  1  0
  3  4  2  0
  2  5  1  0
  5  6  1  0
  5  7  1  0
  7  8  1  0
  7  2  1  0
  1  9  1  0
  1 10  1  0
  1 11  1  0
  3 12  1  0
  5 13  1  0
  6 14  1  0
  7 15  1  0
  8 16  1  0
M  END
