
     RDKit          3D

 19 19  0  0  0  0  0  0  0  0999 V2000
    1.3909    0.9830   -0.3150 C   0  0  0  0  0  0  0  0  0  0  0  0
    0.7261   -0.2552    0.1870 C   0  0  0  0  0  0  0  0  0  0  0  0
    1.2489   -0.8298    1.3275 O   0  0  0  0  0  0  0  0  0  0  0  0
    0.6642   -1.2983   -0.9231 C   0  0  0  0  0  0  0  0  0  0  0  0
   -0.6661   -1.5074   -0.5685 O   0  0  0  0  0  0  0  0  0  0  0  0
   -0.7610   -0.3042    0.1251 C   0  0  0  0  0  0  0  0  0  0  0  0
   -1.4395    0.8081   -0.6308 C   0  0  0  0  0  0  0  0  0  0  0  0
   -1.4104   -0.4711    1.4659 C   0  0  0  0  0  0  0  0  0  0  0  0
   -1.5755    0.4723    2.2063 O   0  0  0  0  0  0  0  0  0  0  0  0
    2.4915    0.8509   -0.1859 H   0  0  0  0  0  0  0  0  0  0  0  0
    1.0932    1.9081    0.1791 H   0  0  0  0  0  0  0  0  0  0  0  0
    1.2481    1.0879   -1.4261 H   0  0  0  0  0  0  0  0  0  0  0  0
    1.5016   -0.1071    1.9390 H   0  0  0  0  0  0  0  0  0  0  0  0
    1.3079   -2.1751   -0.7741 H   0  0  0  0  0  0  0  0  0  0  0  0
    0.8143   -0.8756   -1.9295 H   0  0  0  0  0  0  0  0  0  0  0  0
   -2.5329    0.7225   -0.4242 H   0  0  0  0  0  0  0  0  0  0  0  0
   -1.3408    0.6763   -1.7390 H   0  0  0  0  0  0  0  0  0  0  0  0
   -1.0264    1.7572   -0.2882 H   0  0  0  0  0  0  0  0  0  0  0  0
   -1.7342   -1.4425    1.7746 H   0  0  0  0  0  0  0  0  0  0  0  0
  1  2  1  0
  2  3  1  0
  2  4  1  0
  4  5  1  0
  5  6  1  0
  6  7  1  0
  6  8  1  0
  8  9  2  0
  6  2  1  0
  1 10  1  0
  1 11  1  0
  1 12  1  0
  3 13  1  0
  4 14  1  0
  4 15  1  0
  7 16  1  0
  7 17  1  0
  7 18  1  0
  8 19  1  0
M  END
