
     RDKit          3D

 21 21  0  0  0  0  0  0  0  0999 V2000
    2.1366    1.2524   -0.0158 C   0  0  0  0  0  0  0  0  0  0  0  0
    0.9534    0.3555   -0.2646 C   0  0  0  0  0  0  0  0  0  0  0  0
    0.9833   -0.0365   -1.5997 O   0  0  0  0  0  0  0  0  0  0  0  0
    0.9549   -0.8598    0.5540 C   0  0  0  0  0  0  0  0  0  0  0  0
   -0.2597   -1.1889    0.9249 C   0  0  0  0  0  0  0  0  0  0  0  0
   -1.2286   -0.2041    0.3810 C   0  0  0  0  0  0  0  0  0  0  0  0
   -1.9167   -0.7803   -0.8115 C   0  0  0  0  0  0  0  0  0  0  0  0
   -2.1296    0.1455    1.3966 O   0  0  0  0  0  0  0  0  0  0  0  0
   -0.3562    1.0046    0.0215 C   0  0  0  0  0  0  0  0  0  0  0  0
    1.9792    1.9676    0.8088 H   0  0  0  0  0  0  0  0  0  0  0  0
    2.3041    1.8486   -0.9405 H   0  0  0  0  0  0  0  0  0  0  0  0
    3.0129    0.6370    0.2168 H   0  0  0  0  0  0  0  0  0  0  0  0
    1.8083   -0.5587   -1.7691 H   0  0  0  0  0  0  0  0  0  0  0  0
    1.8353   -1.4483    0.8423 H   0  0  0  0  0  0  0  0  0  0  0  0
   -0.5728   -2.0538    1.5458 H   0  0  0  0  0  0  0  0  0  0  0  0
   -1.6099   -0.2007   -1.7049 H   0  0  0  0  0  0  0  0  0  0  0  0
   -3.0353   -0.6789   -0.6997 H   0  0  0  0  0  0  0  0  0  0  0  0
   -1.6849   -1.8749   -0.9615 H   0  0  0  0  0  0  0  0  0  0  0  0
   -2.0883   -0.5054    2.1508 H   0  0  0  0  0  0  0  0  0  0  0  0
   -0.3043    1.7317    0.8457 H   0  0  0  0  0  0  0  0  0  0  0  0
   -0.7817    1.4473   -0.9208 H   0  0  0  0  0  0  0  0  0  0  0  0
  1  2  1  0
  2  3  1  0
  2  4  1  0
  4  5  2  0
  5  6  1  0
  6  7  1  0
  6  8  1  0
  6  9  1  0
  9  2  1  0
  1 10  1  0
  1 11  1  0
  1 12  1  0
  3 13  1  0
  4 14  1  0
  5 15  1  0
  7 16  1  0
  7 17  1  0
  7 18  1  0
  8 19  1  0
  9 20  1  0
  9 21  1  0
M  END
