
     RDKit          3D

 19 19  0  0  0  0  0  0  0  0999 V2000
   -1.4905    1.1218    0.3849 C   0  0  0  0  0  0  0  0  0  0  0  0
   -0.4819    0.1067   -0.0559 C   0  0  0  0  0  0  0  0  0  0  0  0
   -1.0927   -1.1208   -0.6710 C   0  0  0  0  0  0  0  0  0  0  0  0
    0.4898    0.7762   -0.9647 C   0  0  0  0  0  0  0  0  0  0  0  0
    1.7317    0.4036   -0.7161 C   0  0  0  0  0  0  0  0  0  0  0  0
    1.7157   -0.5643    0.3953 C   0  0  0  0  0  0  0  0  0  0  0  0
    0.4465   -0.2894    1.1120 C   0  0  0  0  0  0  0  0  0  0  0  0
   -2.4911    0.8554   -0.0401 H   0  0  0  0  0  0  0  0  0  0  0  0
   -1.6237    1.0876    1.4888 H   0  0  0  0  0  0  0  0  0  0  0  0
   -1.2109    2.1659    0.1033 H   0  0  0  0  0  0  0  0  0  0  0  0
   -1.7920   -1.5529    0.0580 H   0  0  0  0  0  0  0  0  0  0  0  0
   -1.6442   -0.8049   -1.5695 H   0  0  0  0  0  0  0  0  0  0  0  0
   -0.2501   -1.8037   -0.9318 H   0  0  0  0  0  0  0  0  0  0  0  0
    0.2087    1.4963   -1.7509 H   0  0  0  0  0  0  0  0  0  0  0  0
    2.6290    0.7753   -1.2709 H   0  0  0  0  0  0  0  0  0  0  0  0
    1.6176   -1.5797   -0.0758 H   0  0  0  0  0  0  0  0  0  0  0  0
    2.6208   -0.5098    1.0343 H   0  0  0  0  0  0  0  0  0  0  0  0
    0.0327   -1.1366    1.6758 H   0  0  0  0  0  0  0  0  0  0  0  0
    0.5845    0.5732    1.7942 H   0  0  0  0  0  0  0  0  0  0  0  0
  1  2  1  0
  2  3  1  0
  2  4  1  0
  4  5  2  0
  5  6  1  0
  6  7  1  0
  7  2  1  0
  1  8  1  0
  1  9  1  0
  1 10  1  0
  3 11  1  0
  3 12  1  0
  3 13  1  0
  4 14  1  0
  5 15  1  0
  6 16  1  0
  6 17  1  0
  7 18  1  0
  7 19  1  0
M  END
