
     RDKit          3D

 19 20  0  0  0  0  0  0  0  0999 V2000
   -0.9615    0.1155    1.7141 C   0  0  0  0  0  0  0  0  0  0  0  0
   -0.6506   -0.0420    0.2508 C   0  0  0  0  0  0  0  0  0  0  0  0
   -1.4377    0.8477   -0.7145 C   0  0  0  0  0  0  0  0  0  0  0  0
   -0.1545   -1.2940   -0.3267 C   0  0  0  0  0  0  0  0  0  0  0  0
    0.5400   -2.2553    0.3964 O   0  0  0  0  0  0  0  0  0  0  0  0
    1.5392   -1.2939    0.6247 C   0  0  0  0  0  0  0  0  0  0  0  0
    2.6468   -1.3582    1.1949 O   0  0  0  0  0  0  0  0  0  0  0  0
    0.7954   -0.2107   -0.0499 C   0  0  0  0  0  0  0  0  0  0  0  0
    1.4302    0.6293   -1.0965 C   0  0  0  0  0  0  0  0  0  0  0  0
   -0.6312   -0.7420    2.3028 H   0  0  0  0  0  0  0  0  0  0  0  0
   -2.0500    0.2649    1.8472 H   0  0  0  0  0  0  0  0  0  0  0  0
   -0.4810    1.0639    2.0468 H   0  0  0  0  0  0  0  0  0  0  0  0
   -1.0717    1.8912   -0.6985 H   0  0  0  0  0  0  0  0  0  0  0  0
   -1.4176    0.4339   -1.7451 H   0  0  0  0  0  0  0  0  0  0  0  0
   -2.5114    0.9017   -0.3827 H   0  0  0  0  0  0  0  0  0  0  0  0
   -0.4425   -1.6031   -1.3554 H   0  0  0  0  0  0  0  0  0  0  0  0
    0.8968    1.6185   -1.1653 H   0  0  0  0  0  0  0  0  0  0  0  0
    1.4918    0.1447   -2.1004 H   0  0  0  0  0  0  0  0  0  0  0  0
    2.4695    0.8880   -0.7428 H   0  0  0  0  0  0  0  0  0  0  0  0
  1  2  1  0
  2  3  1  0
  2  4  1  0
  4  5  1  0
  5  6  1  0
  6  7  2  0
  6  8  1  0
  8  9  1  0
  8  2  1  0
  8  4  1  0
  1 10  1  0
  1 11  1  0
  1 12  1  0
  3 13  1  0
  3 14  1  0
  3 15  1  0
  4 16  1  0
  9 17  1  0
  9 18  1  0
  9 19  1  0
M  END
