
     RDKit          3D

 19 20  0  0  0  0  0  0  0  0999 V2000
    1.0165   -0.9212    1.4704 C   0  0  0  0  0  0  0  0  0  0  0  0
    0.7884    0.2387    0.5138 C   0  0  0  0  0  0  0  0  0  0  0  0
   -0.5936    0.4805   -0.0914 C   0  0  0  0  0  0  0  0  0  0  0  0
   -0.6767    1.8424   -0.6589 C   0  0  0  0  0  0  0  0  0  0  0  0
   -0.9924    1.9691   -1.8668 O   0  0  0  0  0  0  0  0  0  0  0  0
   -1.1656   -0.6568   -0.9138 C   0  0  0  0  0  0  0  0  0  0  0  0
   -1.7415   -0.2653    0.3952 C   0  0  0  0  0  0  0  0  0  0  0  0
    1.7624    0.1194   -0.7113 C   0  0  0  0  0  0  0  0  0  0  0  0
    1.8061    1.0753    0.2879 O   0  0  0  0  0  0  0  0  0  0  0  0
    1.8202   -0.6050    2.1953 H   0  0  0  0  0  0  0  0  0  0  0  0
    1.3392   -1.8582    1.0152 H   0  0  0  0  0  0  0  0  0  0  0  0
    0.1095   -1.0301    2.0587 H   0  0  0  0  0  0  0  0  0  0  0  0
   -0.4884    2.7660   -0.1203 H   0  0  0  0  0  0  0  0  0  0  0  0
   -0.6950   -1.6457   -0.9430 H   0  0  0  0  0  0  0  0  0  0  0  0
   -1.7321   -0.3910   -1.8615 H   0  0  0  0  0  0  0  0  0  0  0  0
   -2.7207    0.2453    0.3760 H   0  0  0  0  0  0  0  0  0  0  0  0
   -1.7093   -1.0411    1.2247 H   0  0  0  0  0  0  0  0  0  0  0  0
    1.3705    0.3527   -1.7048 H   0  0  0  0  0  0  0  0  0  0  0  0
    2.5026   -0.6749   -0.6653 H   0  0  0  0  0  0  0  0  0  0  0  0
  1  2  1  0
  2  3  1  0
  3  4  1  0
  4  5  2  0
  3  6  1  0
  6  7  1  0
  2  8  1  0
  8  9  1  0
  9  2  1  0
  7  3  1  0
  1 10  1  0
  1 11  1  0
  1 12  1  0
  4 13  1  0
  6 14  1  0
  6 15  1  0
  7 16  1  0
  7 17  1  0
  8 18  1  0
  8 19  1  0
M  END
