
     RDKit          3D

 21 22  0  0  0  0  0  0  0  0999 V2000
    2.1527   -0.9779    0.5915 C   0  0  0  0  0  0  0  0  0  0  0  0
    1.3162    0.2139    0.2672 C   0  0  0  0  0  0  0  0  0  0  0  0
    1.7302    1.3960    0.8643 O   0  0  0  0  0  0  0  0  0  0  0  0
    0.8616    0.2520   -1.1899 C   0  0  0  0  0  0  0  0  0  0  0  0
   -0.0950    0.1422   -0.1063 C   0  0  0  0  0  0  0  0  0  0  0  0
   -0.9633    1.3422    0.1374 C   0  0  0  0  0  0  0  0  0  0  0  0
   -2.2387    0.9904    0.0719 C   0  0  0  0  0  0  0  0  0  0  0  0
   -2.3720   -0.4659   -0.2192 C   0  0  0  0  0  0  0  0  0  0  0  0
   -1.0030   -0.9825    0.1633 C   0  0  0  0  0  0  0  0  0  0  0  0
    3.2241   -0.6924    0.3801 H   0  0  0  0  0  0  0  0  0  0  0  0
    1.9530   -1.8229   -0.1283 H   0  0  0  0  0  0  0  0  0  0  0  0
    2.0984   -1.3020    1.6341 H   0  0  0  0  0  0  0  0  0  0  0  0
    2.4569    1.8505    0.4175 H   0  0  0  0  0  0  0  0  0  0  0  0
    1.0538   -0.6070   -1.8361 H   0  0  0  0  0  0  0  0  0  0  0  0
    1.0183    1.2640   -1.6576 H   0  0  0  0  0  0  0  0  0  0  0  0
   -0.6463    2.3578    0.3395 H   0  0  0  0  0  0  0  0  0  0  0  0
   -3.0649    1.6752    0.2123 H   0  0  0  0  0  0  0  0  0  0  0  0
   -2.5042   -0.6295   -1.3015 H   0  0  0  0  0  0  0  0  0  0  0  0
   -3.1841   -0.9182    0.3772 H   0  0  0  0  0  0  0  0  0  0  0  0
   -0.7503   -1.9423   -0.2980 H   0  0  0  0  0  0  0  0  0  0  0  0
   -1.0434   -1.1437    1.2805 H   0  0  0  0  0  0  0  0  0  0  0  0
  1  2  1  0
  2  3  1  0
  2  4  1  0
  4  5  1  0
  5  6  1  0
  6  7  2  0
  7  8  1  0
  8  9  1  0
  5  2  1  0
  9  5  1  0
  1 10  1  0
  1 11  1  0
  1 12  1  0
  3 13  1  0
  4 14  1  0
  4 15  1  0
  6 16  1  0
  7 17  1  0
  8 18  1  0
  8 19  1  0
  9 20  1  0
  9 21  1  0
M  END
