
     RDKit          3D

 19 19  0  0  0  0  0  0  0  0999 V2000
   -1.2048    0.2593   -1.1946 C   0  0  0  0  0  0  0  0  0  0  0  0
   -0.6409   -0.2288    0.1115 C   0  0  0  0  0  0  0  0  0  0  0  0
   -1.6952   -0.8088    0.9378 C   0  0  0  0  0  0  0  0  0  0  0  0
   -1.4573   -1.5850    1.8360 O   0  0  0  0  0  0  0  0  0  0  0  0
    0.1006    0.8439    0.8674 C   0  0  0  0  0  0  0  0  0  0  0  0
    1.3544    1.0052    0.0647 C   0  0  0  0  0  0  0  0  0  0  0  0
    1.7265   -0.4438   -0.2407 C   0  0  0  0  0  0  0  0  0  0  0  0
    0.4438   -1.1921   -0.1885 C   0  0  0  0  0  0  0  0  0  0  0  0
    0.2715   -2.3756   -0.3551 O   0  0  0  0  0  0  0  0  0  0  0  0
   -1.2864   -0.6096   -1.8727 H   0  0  0  0  0  0  0  0  0  0  0  0
   -0.5634    1.0049   -1.7011 H   0  0  0  0  0  0  0  0  0  0  0  0
   -2.1856    0.7047   -1.0334 H   0  0  0  0  0  0  0  0  0  0  0  0
   -2.7232   -0.5441    0.7507 H   0  0  0  0  0  0  0  0  0  0  0  0
   -0.4798    1.7689    0.9879 H   0  0  0  0  0  0  0  0  0  0  0  0
    0.3748    0.4053    1.8567 H   0  0  0  0  0  0  0  0  0  0  0  0
    1.2332    1.6025   -0.8402 H   0  0  0  0  0  0  0  0  0  0  0  0
    2.1414    1.4975    0.6833 H   0  0  0  0  0  0  0  0  0  0  0  0
    2.4023   -0.7716    0.5741 H   0  0  0  0  0  0  0  0  0  0  0  0
    2.1881   -0.5328   -1.2438 H   0  0  0  0  0  0  0  0  0  0  0  0
  1  2  1  0
  2  3  1  0
  3  4  2  0
  2  5  1  0
  5  6  1  0
  6  7  1  0
  7  8  1  0
  8  9  2  0
  8  2  1  0
  1 10  1  0
  1 11  1  0
  1 12  1  0
  3 13  1  0
  5 14  1  0
  5 15  1  0
  6 16  1  0
  6 17  1  0
  7 18  1  0
  7 19  1  0
M  END
