
     RDKit          3D

 18 18  0  0  0  0  0  0  0  0999 V2000
    1.8727   -0.4592   -0.0168 C   0  0  0  0  0  0  0  0  0  0  0  0
    0.6371    0.3081    0.4122 C   0  0  0  0  0  0  0  0  0  0  0  0
    1.0797    1.4135    1.1408 O   0  0  0  0  0  0  0  0  0  0  0  0
   -0.0930    0.7100   -0.8503 C   0  0  0  0  0  0  0  0  0  0  0  0
   -1.2865   -0.2319   -0.9591 C   0  0  0  0  0  0  0  0  0  0  0  0
   -1.5746   -0.6459    0.4657 C   0  0  0  0  0  0  0  0  0  0  0  0
   -0.2933   -0.5026    1.2034 C   0  0  0  0  0  0  0  0  0  0  0  0
   -0.0781   -0.9922    2.2916 O   0  0  0  0  0  0  0  0  0  0  0  0
    2.5795    0.3194   -0.4285 H   0  0  0  0  0  0  0  0  0  0  0  0
    1.6027   -1.0774   -0.9158 H   0  0  0  0  0  0  0  0  0  0  0  0
    2.3235   -1.0453    0.7899 H   0  0  0  0  0  0  0  0  0  0  0  0
    0.6024    2.2086    0.8377 H   0  0  0  0  0  0  0  0  0  0  0  0
   -0.3931    1.7585   -0.7318 H   0  0  0  0  0  0  0  0  0  0  0  0
    0.5233    0.5887   -1.7610 H   0  0  0  0  0  0  0  0  0  0  0  0
   -1.0331   -1.1217   -1.5395 H   0  0  0  0  0  0  0  0  0  0  0  0
   -2.1322    0.3444   -1.3551 H   0  0  0  0  0  0  0  0  0  0  0  0
   -2.3265    0.0810    0.8792 H   0  0  0  0  0  0  0  0  0  0  0  0
   -2.0104   -1.6560    0.5376 H   0  0  0  0  0  0  0  0  0  0  0  0
  1  2  1  0
  2  3  1  0
  2  4  1  0
  4  5  1  0
  5  6  1  0
  6  7  1  0
  7  8  2  0
  7  2  1  0
  1  9  1  0
  1 10  1  0
  1 11  1  0
  3 12  1  0
  4 13  1  0
  4 14  1  0
  5 15  1  0
  5 16  1  0
  6 17  1  0
  6 18  1  0
M  END
