
     RDKit          3D

 19 21  0  0  0  0  0  0  0  0999 V2000
   -1.6752    0.8792   -0.0091 C   0  0  0  0  0  0  0  0  0  0  0  0
   -0.7566   -0.2422    0.4924 C   0  0  0  0  0  0  0  0  0  0  0  0
   -1.3614   -0.9827    1.4886 O   0  0  0  0  0  0  0  0  0  0  0  0
   -0.3931   -1.0670   -0.7184 C   0  0  0  0  0  0  0  0  0  0  0  0
    0.9184   -0.4646   -1.2341 C   0  0  0  0  0  0  0  0  0  0  0  0
    1.9694   -1.0551   -0.5077 O   0  0  0  0  0  0  0  0  0  0  0  0
    1.8428   -0.1055    0.4770 C   0  0  0  0  0  0  0  0  0  0  0  0
    1.1015    0.7466   -0.4249 C   0  0  0  0  0  0  0  0  0  0  0  0
    0.5245    0.4107    0.9080 C   0  0  0  0  0  0  0  0  0  0  0  0
   -1.6080    0.9982   -1.1002 H   0  0  0  0  0  0  0  0  0  0  0  0
   -2.6978    0.6934    0.3243 H   0  0  0  0  0  0  0  0  0  0  0  0
   -1.3459    1.8693    0.4207 H   0  0  0  0  0  0  0  0  0  0  0  0
   -0.7293   -1.2503    2.1790 H   0  0  0  0  0  0  0  0  0  0  0  0
   -0.2311   -2.1080   -0.3751 H   0  0  0  0  0  0  0  0  0  0  0  0
   -1.1533   -1.0793   -1.4979 H   0  0  0  0  0  0  0  0  0  0  0  0
    1.0337   -0.4387   -2.3076 H   0  0  0  0  0  0  0  0  0  0  0  0
    2.7286    0.2815    0.9810 H   0  0  0  0  0  0  0  0  0  0  0  0
    1.3150    1.7293   -0.7687 H   0  0  0  0  0  0  0  0  0  0  0  0
    0.5178    1.1853    1.6730 H   0  0  0  0  0  0  0  0  0  0  0  0
  1  2  1  0
  2  3  1  0
  2  4  1  0
  4  5  1  0
  5  6  1  0
  6  7  1  0
  7  8  1  0
  8  9  1  0
  9  2  1  0
  8  5  1  0
  9  7  1  0
  1 10  1  0
  1 11  1  0
  1 12  1  0
  3 13  1  0
  4 14  1  0
  4 15  1  0
  5 16  1  0
  7 17  1  0
  8 18  1  0
  9 19  1  0
M  END
