
     RDKit          3D

 19 21  0  0  0  0  0  0  0  0999 V2000
   -0.7276    0.2049    1.5809 C   0  0  0  0  0  0  0  0  0  0  0  0
   -0.4892   -0.1665    0.1382 C   0  0  0  0  0  0  0  0  0  0  0  0
   -1.7166   -0.0112   -0.7591 C   0  0  0  0  0  0  0  0  0  0  0  0
    0.0983   -1.5528   -0.0358 C   0  0  0  0  0  0  0  0  0  0  0  0
    0.3075   -1.9428   -1.3360 O   0  0  0  0  0  0  0  0  0  0  0  0
    1.1894   -0.9703   -0.9437 C   0  0  0  0  0  0  0  0  0  0  0  0
    0.7405    0.3743   -0.4888 C   0  0  0  0  0  0  0  0  0  0  0  0
    1.5740    1.3904   -0.1258 C   0  0  0  0  0  0  0  0  0  0  0  0
    0.7567    1.4747   -1.2897 O   0  0  0  0  0  0  0  0  0  0  0  0
   -1.7985    0.1196    1.8559 H   0  0  0  0  0  0  0  0  0  0  0  0
   -0.4651    1.2951    1.6704 H   0  0  0  0  0  0  0  0  0  0  0  0
   -0.0526   -0.3613    2.2421 H   0  0  0  0  0  0  0  0  0  0  0  0
   -1.6031    0.8749   -1.4179 H   0  0  0  0  0  0  0  0  0  0  0  0
   -1.8212   -0.8832   -1.4515 H   0  0  0  0  0  0  0  0  0  0  0  0
   -2.6556    0.0175   -0.1608 H   0  0  0  0  0  0  0  0  0  0  0  0
    0.4132   -2.1402    0.8203 H   0  0  0  0  0  0  0  0  0  0  0  0
    2.2316   -1.2307   -0.6392 H   0  0  0  0  0  0  0  0  0  0  0  0
    2.6722    1.3896   -0.3548 H   0  0  0  0  0  0  0  0  0  0  0  0
    1.3461    2.1178    0.6953 H   0  0  0  0  0  0  0  0  0  0  0  0
  1  2  1  0
  2  3  1  0
  2  4  1  0
  4  5  1  0
  5  6  1  0
  6  7  1  0
  7  8  1  0
  8  9  1  0
  7  2  1  0
  6  4  1  0
  9  7  1  0
  1 10  1  0
  1 11  1  0
  1 12  1  0
  3 13  1  0
  3 14  1  0
  3 15  1  0
  4 16  1  0
  6 17  1  0
  8 18  1  0
  8 19  1  0
M  END
