
     RDKit          3D

 19 20  0  0  0  0  0  0  0  0999 V2000
    1.5897   -0.7492    0.5062 C   0  0  0  0  0  0  0  0  0  0  0  0
    0.6695    0.2724   -0.0557 C   0  0  0  0  0  0  0  0  0  0  0  0
    1.2732    1.4090   -0.5323 O   0  0  0  0  0  0  0  0  0  0  0  0
   -0.3058   -0.3339   -1.0829 C   0  0  0  0  0  0  0  0  0  0  0  0
   -0.9699   -1.3204   -0.1299 C   0  0  0  0  0  0  0  0  0  0  0  0
   -1.0078   -0.6800    1.0930 O   0  0  0  0  0  0  0  0  0  0  0  0
   -0.4867    0.6013    0.9128 C   0  0  0  0  0  0  0  0  0  0  0  0
   -1.3162    1.3948   -0.0764 C   0  0  0  0  0  0  0  0  0  0  0  0
   -1.2189    0.6851   -1.2731 O   0  0  0  0  0  0  0  0  0  0  0  0
    1.8653   -1.5360   -0.2094 H   0  0  0  0  0  0  0  0  0  0  0  0
    1.2082   -1.2450    1.4205 H   0  0  0  0  0  0  0  0  0  0  0  0
    2.5471   -0.2498    0.8118 H   0  0  0  0  0  0  0  0  0  0  0  0
    1.5392    1.3591   -1.4748 H   0  0  0  0  0  0  0  0  0  0  0  0
    0.1577   -0.7492   -1.9381 H   0  0  0  0  0  0  0  0  0  0  0  0
   -1.9417   -1.6416   -0.5062 H   0  0  0  0  0  0  0  0  0  0  0  0
   -0.3260   -2.2411   -0.0931 H   0  0  0  0  0  0  0  0  0  0  0  0
   -0.1798    1.1123    1.7926 H   0  0  0  0  0  0  0  0  0  0  0  0
   -2.3415    1.5608    0.2500 H   0  0  0  0  0  0  0  0  0  0  0  0
   -0.7556    2.3514   -0.2476 H   0  0  0  0  0  0  0  0  0  0  0  0
  1  2  1  0
  2  3  1  0
  2  4  1  0
  4  5  1  0
  5  6  1  0
  6  7  1  0
  7  8  1  0
  8  9  1  0
  7  2  1  0
  9  4  1  0
  1 10  1  0
  1 11  1  0
  1 12  1  0
  3 13  1  0
  4 14  1  0
  5 15  1  0
  5 16  1  0
  7 17  1  0
  8 18  1  0
  8 19  1  0
M  END
