
     RDKit          3D

 19 20  0  0  0  0  0  0  0  0999 V2000
   -1.2552    1.2818    0.3165 C   0  0  0  0  0  0  0  0  0  0  0  0
   -0.4685    0.0272    0.0914 C   0  0  0  0  0  0  0  0  0  0  0  0
   -1.2952   -1.1792   -0.0221 C   0  0  0  0  0  0  0  0  0  0  0  0
    0.6367    0.2523   -0.8889 C   0  0  0  0  0  0  0  0  0  0  0  0
    1.4755   -0.9796   -0.7393 C   0  0  0  0  0  0  0  0  0  0  0  0
    1.4965   -1.0868    0.6752 O   0  0  0  0  0  0  0  0  0  0  0  0
    0.7040   -0.0374    1.0580 C   0  0  0  0  0  0  0  0  0  0  0  0
    1.2569    1.0901    0.2116 C   0  0  0  0  0  0  0  0  0  0  0  0
    1.8668    2.1124    0.3413 O   0  0  0  0  0  0  0  0  0  0  0  0
   -1.7056    1.2285    1.3160 H   0  0  0  0  0  0  0  0  0  0  0  0
   -0.5427    2.1543    0.2374 H   0  0  0  0  0  0  0  0  0  0  0  0
   -1.9882    1.4387   -0.5006 H   0  0  0  0  0  0  0  0  0  0  0  0
   -2.1979   -0.9398   -0.6265 H   0  0  0  0  0  0  0  0  0  0  0  0
   -0.8315   -2.0773   -0.4216 H   0  0  0  0  0  0  0  0  0  0  0  0
   -1.6973   -1.4392    0.9964 H   0  0  0  0  0  0  0  0  0  0  0  0
    0.4730    0.7057   -1.8228 H   0  0  0  0  0  0  0  0  0  0  0  0
    1.0582   -1.8875   -1.1611 H   0  0  0  0  0  0  0  0  0  0  0  0
    2.4906   -0.8412   -1.1458 H   0  0  0  0  0  0  0  0  0  0  0  0
    0.5241    0.1770    2.0850 H   0  0  0  0  0  0  0  0  0  0  0  0
  1  2  1  0
  2  3  1  0
  2  4  1  0
  4  5  1  0
  5  6  1  0
  6  7  1  0
  7  8  1  0
  8  9  2  0
  7  2  1  0
  8  4  1  0
  1 10  1  0
  1 11  1  0
  1 12  1  0
  3 13  1  0
  3 14  1  0
  3 15  1  0
  4 16  1  0
  5 17  1  0
  5 18  1  0
  7 19  1  0
M  END
