
     RDKit          3D

 21 21  0  0  0  0  0  0  0  0999 V2000
    0.3579    1.6281   -0.3150 C   0  0  0  0  0  0  0  0  0  0  0  0
    0.0731    0.1958    0.0706 C   0  0  0  0  0  0  0  0  0  0  0  0
    1.2533   -0.4940    0.6663 C   0  0  0  0  0  0  0  0  0  0  0  0
    2.4223   -0.5541   -0.2457 C   0  0  0  0  0  0  0  0  0  0  0  0
    3.4523   -1.0933    0.1222 O   0  0  0  0  0  0  0  0  0  0  0  0
   -0.4614   -0.6160   -1.0587 C   0  0  0  0  0  0  0  0  0  0  0  0
   -1.8951   -0.8579   -0.7319 C   0  0  0  0  0  0  0  0  0  0  0  0
   -2.2030   -0.3914    0.4676 C   0  0  0  0  0  0  0  0  0  0  0  0
   -1.0227    0.2311    1.1209 C   0  0  0  0  0  0  0  0  0  0  0  0
   -0.5810    2.2239   -0.2935 H   0  0  0  0  0  0  0  0  0  0  0  0
    1.0551    2.1049    0.3917 H   0  0  0  0  0  0  0  0  0  0  0  0
    0.7831    1.7279   -1.3228 H   0  0  0  0  0  0  0  0  0  0  0  0
    1.4962    0.0125    1.6302 H   0  0  0  0  0  0  0  0  0  0  0  0
    0.9568   -1.5382    0.8939 H   0  0  0  0  0  0  0  0  0  0  0  0
    2.4169   -0.1367   -1.2465 H   0  0  0  0  0  0  0  0  0  0  0  0
   -0.3512   -0.0336   -2.0022 H   0  0  0  0  0  0  0  0  0  0  0  0
    0.0665   -1.5807   -1.2081 H   0  0  0  0  0  0  0  0  0  0  0  0
   -2.6356   -1.3494   -1.3620 H   0  0  0  0  0  0  0  0  0  0  0  0
   -3.1752   -0.4359    0.9498 H   0  0  0  0  0  0  0  0  0  0  0  0
   -0.7279   -0.3085    2.0450 H   0  0  0  0  0  0  0  0  0  0  0  0
   -1.2804    1.2653    1.4283 H   0  0  0  0  0  0  0  0  0  0  0  0
  1  2  1  0
  2  3  1  0
  3  4  1  0
  4  5  2  0
  2  6  1  0
  6  7  1  0
  7  8  2  0
  8  9  1  0
  9  2  1  0
  1 10  1  0
  1 11  1  0
  1 12  1  0
  3 13  1  0
  3 14  1  0
  4 15  1  0
  6 16  1  0
  6 17  1  0
  7 18  1  0
  8 19  1  0
  9 20  1  0
  9 21  1  0
M  END
