
     RDKit          3D

 13 13  0  0  0  0  0  0  0  0999 V2000
    1.4294   -0.3880   -0.1814 C   0  0  0  0  0  0  0  0  0  0  0  0
   -0.0464   -0.1576   -0.3608 C   0  0  0  0  0  0  0  0  0  0  0  0
   -0.6356   -0.7982   -1.4268 O   0  0  0  0  0  0  0  0  0  0  0  0
   -0.6383    1.1911   -0.0098 C   0  0  0  0  0  0  0  0  0  0  0  0
   -0.8016    0.0223    0.9212 C   0  0  0  0  0  0  0  0  0  0  0  0
    1.5880   -1.4728   -0.0663 H   0  0  0  0  0  0  0  0  0  0  0  0
    1.8171    0.1004    0.7366 H   0  0  0  0  0  0  0  0  0  0  0  0
    1.9846    0.0019   -1.0528 H   0  0  0  0  0  0  0  0  0  0  0  0
   -1.2119   -1.5594   -1.1296 H   0  0  0  0  0  0  0  0  0  0  0  0
   -1.5708    1.4909   -0.5206 H   0  0  0  0  0  0  0  0  0  0  0  0
    0.1215    1.9659    0.2429 H   0  0  0  0  0  0  0  0  0  0  0  0
   -1.7633   -0.4976    0.9674 H   0  0  0  0  0  0  0  0  0  0  0  0
   -0.2727    0.1011    1.8799 H   0  0  0  0  0  0  0  0  0  0  0  0
  1  2  1  0
  2  3  1  0
  2  4  1  0
  4  5  1  0
  5  2  1  0
  1  6  1  0
  1  7  1  0
  1  8  1  0
  3  9  1  0
  4 10  1  0
  4 11  1  0
  5 12  1  0
  5 13  1  0
M  END
