
     RDKit          3D

 19 20  0  0  0  0  0  0  0  0999 V2000
   -1.8000    0.6845   -0.1942 C   0  0  0  0  0  0  0  0  0  0  0  0
   -0.5509   -0.1606   -0.1359 C   0  0  0  0  0  0  0  0  0  0  0  0
   -0.7721   -1.5240   -0.6204 C   0  0  0  0  0  0  0  0  0  0  0  0
   -1.3652   -2.3250    0.1150 O   0  0  0  0  0  0  0  0  0  0  0  0
    0.2758   -0.0291    1.1037 C   0  0  0  0  0  0  0  0  0  0  0  0
    0.5565    1.3838    0.6366 C   0  0  0  0  0  0  0  0  0  0  0  0
    0.6757    0.5504   -0.6115 C   0  0  0  0  0  0  0  0  0  0  0  0
    1.4567   -0.4001    0.2574 C   0  0  0  0  0  0  0  0  0  0  0  0
    1.5488   -1.6966   -0.1653 O   0  0  0  0  0  0  0  0  0  0  0  0
   -2.5917    0.1324   -0.7658 H   0  0  0  0  0  0  0  0  0  0  0  0
   -1.6518    1.6344   -0.7406 H   0  0  0  0  0  0  0  0  0  0  0  0
   -2.1503    0.8935    0.8315 H   0  0  0  0  0  0  0  0  0  0  0  0
   -0.4551   -1.8888   -1.5786 H   0  0  0  0  0  0  0  0  0  0  0  0
    0.0632   -0.3182    2.0332 H   0  0  0  0  0  0  0  0  0  0  0  0
    1.5548    1.7774    0.9148 H   0  0  0  0  0  0  0  0  0  0  0  0
   -0.2715    2.0872    0.6920 H   0  0  0  0  0  0  0  0  0  0  0  0
    0.9034    0.8606   -1.5314 H   0  0  0  0  0  0  0  0  0  0  0  0
    2.3891    0.0441    0.7082 H   0  0  0  0  0  0  0  0  0  0  0  0
    2.1848   -1.7060   -0.9487 H   0  0  0  0  0  0  0  0  0  0  0  0
  1  2  1  0
  2  3  1  0
  3  4  2  0
  2  5  1  0
  5  6  1  0
  6  7  1  0
  7  8  1  0
  8  9  1  0
  7  2  1  0
  8  5  1  0
  1 10  1  0
  1 11  1  0
  1 12  1  0
  3 13  1  0
  5 14  1  0
  6 15  1  0
  6 16  1  0
  7 17  1  0
  8 18  1  0
  9 19  1  0
M  END
