
     RDKit          3D

 17 17  0  0  0  0  0  0  0  0999 V2000
   -1.6717   -0.6578   -0.4784 C   0  0  0  0  0  0  0  0  0  0  0  0
   -0.6986    0.1854    0.3323 C   0  0  0  0  0  0  0  0  0  0  0  0
   -1.3472    1.0579    1.1787 O   0  0  0  0  0  0  0  0  0  0  0  0
    0.2261    0.9278   -0.6286 C   0  0  0  0  0  0  0  0  0  0  0  0
    1.2434    0.1023   -1.0846 O   0  0  0  0  0  0  0  0  0  0  0  0
    2.1685   -0.2212   -0.1060 C   0  0  0  0  0  0  0  0  0  0  0  0
    1.4984   -0.5650    1.1177 O   0  0  0  0  0  0  0  0  0  0  0  0
    0.1259   -0.7858    1.1217 C   0  0  0  0  0  0  0  0  0  0  0  0
   -0.4197   -1.7362    1.7421 O   0  0  0  0  0  0  0  0  0  0  0  0
   -2.2033   -1.3347    0.2382 H   0  0  0  0  0  0  0  0  0  0  0  0
   -2.3445   -0.0590   -1.0942 H   0  0  0  0  0  0  0  0  0  0  0  0
   -1.0201   -1.3495   -1.0870 H   0  0  0  0  0  0  0  0  0  0  0  0
   -1.3616    1.9866    0.8272 H   0  0  0  0  0  0  0  0  0  0  0  0
    0.5969    1.8767   -0.1916 H   0  0  0  0  0  0  0  0  0  0  0  0
   -0.3804    1.2106   -1.5143 H   0  0  0  0  0  0  0  0  0  0  0  0
    2.9332    0.5452    0.0633 H   0  0  0  0  0  0  0  0  0  0  0  0
    2.6548   -1.1834   -0.4366 H   0  0  0  0  0  0  0  0  0  0  0  0
  1  2  1  0
  2  3  1  0
  2  4  1  0
  4  5  1  0
  5  6  1  0
  6  7  1  0
  7  8  1  0
  8  9  2  0
  8  2  1  0
  1 10  1  0
  1 11  1  0
  1 12  1  0
  3 13  1  0
  4 14  1  0
  4 15  1  0
  6 16  1  0
  6 17  1  0
M  END
