
     RDKit          3D

 18 19  0  0  0  0  0  0  0  0999 V2000
   -1.5038   -0.6146    0.5005 C   0  0  0  0  0  0  0  0  0  0  0  0
   -0.5677   -0.0904   -0.5480 C   0  0  0  0  0  0  0  0  0  0  0  0
   -0.4853   -0.8244   -1.7192 O   0  0  0  0  0  0  0  0  0  0  0  0
   -0.8158    1.3895   -0.7653 C   0  0  0  0  0  0  0  0  0  0  0  0
    0.4937    1.7135   -0.4104 O   0  0  0  0  0  0  0  0  0  0  0  0
    0.7189    0.4189   -0.0575 C   0  0  0  0  0  0  0  0  0  0  0  0
    2.0001   -0.2597   -0.0847 C   0  0  0  0  0  0  0  0  0  0  0  0
    1.2531   -0.0510    1.2054 C   0  0  0  0  0  0  0  0  0  0  0  0
   -2.4444    0.0115    0.5065 H   0  0  0  0  0  0  0  0  0  0  0  0
   -1.1078   -0.5402    1.5313 H   0  0  0  0  0  0  0  0  0  0  0  0
   -1.8232   -1.6314    0.2701 H   0  0  0  0  0  0  0  0  0  0  0  0
   -0.6898   -1.7852   -1.5495 H   0  0  0  0  0  0  0  0  0  0  0  0
   -1.0605    1.6567   -1.8220 H   0  0  0  0  0  0  0  0  0  0  0  0
   -1.5035    1.8575   -0.0129 H   0  0  0  0  0  0  0  0  0  0  0  0
    2.1450   -1.2888   -0.4823 H   0  0  0  0  0  0  0  0  0  0  0  0
    2.9343    0.3740   -0.1409 H   0  0  0  0  0  0  0  0  0  0  0  0
    1.5849    0.6860    1.9419 H   0  0  0  0  0  0  0  0  0  0  0  0
    0.8718   -1.0220    1.6370 H   0  0  0  0  0  0  0  0  0  0  0  0
  1  2  1  0
  2  3  1  0
  2  4  1  0
  4  5  1  0
  5  6  1  0
  6  7  1  0
  7  8  1  0
  6  2  1  0
  8  6  1  0
  1  9  1  0
  1 10  1  0
  1 11  1  0
  3 12  1  0
  4 13  1  0
  4 14  1  0
  7 15  1  0
  7 16  1  0
  8 17  1  0
  8 18  1  0
M  END
