
     RDKit          3D

 17 17  0  0  0  0  0  0  0  0999 V2000
   -0.4946    1.5474   -0.0839 C   0  0  0  0  0  0  0  0  0  0  0  0
   -0.0295    0.1251   -0.1990 C   0  0  0  0  0  0  0  0  0  0  0  0
   -1.1949   -0.7812   -0.5654 C   0  0  0  0  0  0  0  0  0  0  0  0
   -2.2177   -0.5648    0.3406 O   0  0  0  0  0  0  0  0  0  0  0  0
    1.0046   -0.0645   -1.0796 O   0  0  0  0  0  0  0  0  0  0  0  0
    2.1543   -0.3444   -0.3465 C   0  0  0  0  0  0  0  0  0  0  0  0
    1.6783   -1.0005    0.8211 O   0  0  0  0  0  0  0  0  0  0  0  0
    0.4752   -0.3744    1.1232 C   0  0  0  0  0  0  0  0  0  0  0  0
   -0.1051   -0.2291    2.2276 O   0  0  0  0  0  0  0  0  0  0  0  0
   -0.3593    2.1352   -1.0099 H   0  0  0  0  0  0  0  0  0  0  0  0
   -0.0179    1.9900    0.8044 H   0  0  0  0  0  0  0  0  0  0  0  0
   -1.5984    1.5230    0.1071 H   0  0  0  0  0  0  0  0  0  0  0  0
   -0.8530   -1.8177   -0.6078 H   0  0  0  0  0  0  0  0  0  0  0  0
   -1.5330   -0.4633   -1.5678 H   0  0  0  0  0  0  0  0  0  0  0  0
   -2.3465   -1.3437    0.9625 H   0  0  0  0  0  0  0  0  0  0  0  0
    2.5690    0.6306   -0.0229 H   0  0  0  0  0  0  0  0  0  0  0  0
    2.8687   -0.9677   -0.9036 H   0  0  0  0  0  0  0  0  0  0  0  0
  1  2  1  0
  2  3  1  0
  3  4  1  0
  2  5  1  0
  5  6  1  0
  6  7  1  0
  7  8  1  0
  8  9  2  0
  8  2  1  0
  1 10  1  0
  1 11  1  0
  1 12  1  0
  3 13  1  0
  3 14  1  0
  4 15  1  0
  6 16  1  0
  6 17  1  0
M  END
