
     RDKit          3D

 19 20  0  0  0  0  0  0  0  0999 V2000
    0.1462   -1.7623    0.6406 C   0  0  0  0  0  0  0  0  0  0  0  0
   -0.1710   -0.2960    0.4382 C   0  0  0  0  0  0  0  0  0  0  0  0
    0.8551    0.6656    0.8680 C   0  0  0  0  0  0  0  0  0  0  0  0
    2.2013    0.7506    0.3775 C   0  0  0  0  0  0  0  0  0  0  0  0
    1.1568    1.6659   -0.1792 O   0  0  0  0  0  0  0  0  0  0  0  0
   -0.6582   -0.0854   -0.9765 C   0  0  0  0  0  0  0  0  0  0  0  0
   -1.6612    0.8834   -0.3600 C   0  0  0  0  0  0  0  0  0  0  0  0
   -1.5601    0.0832    0.8914 C   0  0  0  0  0  0  0  0  0  0  0  0
   -2.2025   -0.2103    1.8806 O   0  0  0  0  0  0  0  0  0  0  0  0
    0.3986   -2.2355   -0.3319 H   0  0  0  0  0  0  0  0  0  0  0  0
    1.0041   -1.9067    1.3292 H   0  0  0  0  0  0  0  0  0  0  0  0
   -0.7493   -2.2358    1.0877 H   0  0  0  0  0  0  0  0  0  0  0  0
    0.6267    1.1905    1.8419 H   0  0  0  0  0  0  0  0  0  0  0  0
    2.5958    0.1118   -0.4152 H   0  0  0  0  0  0  0  0  0  0  0  0
    2.9506    1.3219    0.9408 H   0  0  0  0  0  0  0  0  0  0  0  0
   -1.1548   -0.9921   -1.3888 H   0  0  0  0  0  0  0  0  0  0  0  0
    0.0934    0.3838   -1.6318 H   0  0  0  0  0  0  0  0  0  0  0  0
   -2.6398    0.7686   -0.8265 H   0  0  0  0  0  0  0  0  0  0  0  0
   -1.2318    1.8988   -0.3087 H   0  0  0  0  0  0  0  0  0  0  0  0
  1  2  1  0
  2  3  1  0
  3  4  1  0
  4  5  1  0
  2  6  1  0
  6  7  1  0
  7  8  1  0
  8  9  2  0
  8  2  1  0
  5  3  1  0
  1 10  1  0
  1 11  1  0
  1 12  1  0
  3 13  1  0
  4 14  1  0
  4 15  1  0
  6 16  1  0
  6 17  1  0
  7 18  1  0
  7 19  1  0
M  END
