
     RDKit          3D

 21 21  0  0  0  0  0  0  0  0999 V2000
   -2.2066    0.4304    0.9734 C   0  0  0  0  0  0  0  0  0  0  0  0
   -1.2335   -0.0178   -0.1110 C   0  0  0  0  0  0  0  0  0  0  0  0
   -1.7980   -0.9313   -0.9714 O   0  0  0  0  0  0  0  0  0  0  0  0
   -0.6474    1.1152   -0.8672 C   0  0  0  0  0  0  0  0  0  0  0  0
    0.7650    0.6874   -1.0813 C   0  0  0  0  0  0  0  0  0  0  0  0
    1.1287   -0.2765   -0.2507 C   0  0  0  0  0  0  0  0  0  0  0  0
    2.4486   -0.9431   -0.1740 C   0  0  0  0  0  0  0  0  0  0  0  0
    3.0502   -0.7840    1.0792 O   0  0  0  0  0  0  0  0  0  0  0  0
   -0.0303   -0.5963    0.6192 C   0  0  0  0  0  0  0  0  0  0  0  0
   -1.6527    1.1370    1.6280 H   0  0  0  0  0  0  0  0  0  0  0  0
   -3.1383    0.8290    0.5779 H   0  0  0  0  0  0  0  0  0  0  0  0
   -2.4457   -0.4473    1.6132 H   0  0  0  0  0  0  0  0  0  0  0  0
   -2.5918   -0.5123   -1.3753 H   0  0  0  0  0  0  0  0  0  0  0  0
   -0.6544    2.0847   -0.3203 H   0  0  0  0  0  0  0  0  0  0  0  0
   -1.1119    1.2879   -1.8644 H   0  0  0  0  0  0  0  0  0  0  0  0
    1.4582    1.0881   -1.8199 H   0  0  0  0  0  0  0  0  0  0  0  0
    3.1504   -0.5210   -0.9133 H   0  0  0  0  0  0  0  0  0  0  0  0
    2.3471   -2.0431   -0.3231 H   0  0  0  0  0  0  0  0  0  0  0  0
    3.2354    0.1769    1.2688 H   0  0  0  0  0  0  0  0  0  0  0  0
    0.1503   -0.0917    1.5912 H   0  0  0  0  0  0  0  0  0  0  0  0
   -0.2232   -1.6722    0.7211 H   0  0  0  0  0  0  0  0  0  0  0  0
  1  2  1  0
  2  3  1  0
  2  4  1  0
  4  5  1  0
  5  6  2  0
  6  7  1  0
  7  8  1  0
  6  9  1  0
  9  2  1  0
  1 10  1  0
  1 11  1  0
  1 12  1  0
  3 13  1  0
  4 14  1  0
  4 15  1  0
  5 16  1  0
  7 17  1  0
  7 18  1  0
  8 19  1  0
  9 20  1  0
  9 21  1  0
M  END
