
     RDKit          3D

 21 21  0  0  0  0  0  0  0  0999 V2000
   -1.1819    1.4313    0.2615 C   0  0  0  0  0  0  0  0  0  0  0  0
   -1.1273    0.1559   -0.5013 C   0  0  0  0  0  0  0  0  0  0  0  0
   -1.6427    0.1809   -1.7828 O   0  0  0  0  0  0  0  0  0  0  0  0
   -1.9348   -0.8750    0.3186 C   0  0  0  0  0  0  0  0  0  0  0  0
   -0.7209   -1.0438    1.0339 O   0  0  0  0  0  0  0  0  0  0  0  0
   -0.1242   -0.8597   -0.2127 C   0  0  0  0  0  0  0  0  0  0  0  0
    1.3181   -0.5913   -0.2519 C   0  0  0  0  0  0  0  0  0  0  0  0
    1.8558    0.4471    0.6627 C   0  0  0  0  0  0  0  0  0  0  0  0
    3.2533    0.5112    0.4312 O   0  0  0  0  0  0  0  0  0  0  0  0
   -0.6681    2.2792   -0.1826 H   0  0  0  0  0  0  0  0  0  0  0  0
   -0.8702    1.3436    1.3183 H   0  0  0  0  0  0  0  0  0  0  0  0
   -2.2744    1.7245    0.3110 H   0  0  0  0  0  0  0  0  0  0  0  0
   -1.0109   -0.1685   -2.4510 H   0  0  0  0  0  0  0  0  0  0  0  0
   -2.1747   -1.7379   -0.3146 H   0  0  0  0  0  0  0  0  0  0  0  0
   -2.7497   -0.4441    0.8997 H   0  0  0  0  0  0  0  0  0  0  0  0
   -0.3260   -1.7892   -0.8062 H   0  0  0  0  0  0  0  0  0  0  0  0
    1.5970   -0.3088   -1.2935 H   0  0  0  0  0  0  0  0  0  0  0  0
    1.8661   -1.5412   -0.0502 H   0  0  0  0  0  0  0  0  0  0  0  0
    1.5097    1.4689    0.4092 H   0  0  0  0  0  0  0  0  0  0  0  0
    1.7410    0.2018    1.7313 H   0  0  0  0  0  0  0  0  0  0  0  0
    3.6646   -0.3849    0.4697 H   0  0  0  0  0  0  0  0  0  0  0  0
  1  2  1  0
  2  3  1  0
  2  4  1  0
  4  5  1  0
  5  6  1  0
  6  7  1  0
  7  8  1  0
  8  9  1  0
  6  2  1  0
  1 10  1  0
  1 11  1  0
  1 12  1  0
  3 13  1  0
  4 14  1  0
  4 15  1  0
  6 16  1  0
  7 17  1  0
  7 18  1  0
  8 19  1  0
  8 20  1  0
  9 21  1  0
M  END
