
     RDKit          3D

 23 25  0  0  0  0  0  0  0  0999 V2000
    0.5777   -0.6317   -1.9290 C   0  0  0  0  0  0  0  0  0  0  0  0
    0.1655   -0.3902   -0.4577 C   0  0  0  0  0  0  0  0  0  0  0  0
    1.2886   -0.6485    0.5120 C   0  0  0  0  0  0  0  0  0  0  0  0
    2.5654    0.0504    0.4942 C   0  0  0  0  0  0  0  0  0  0  0  0
    1.5361    0.5206    1.4716 C   0  0  0  0  0  0  0  0  0  0  0  0
   -1.1976   -0.7862   -0.1925 C   0  0  0  0  0  0  0  0  0  0  0  0
   -2.4717    0.0507   -0.3670 C   0  0  0  0  0  0  0  0  0  0  0  0
   -1.8389    0.7511    0.8584 C   0  0  0  0  0  0  0  0  0  0  0  0
   -0.6667    0.7093   -0.1114 C   0  0  0  0  0  0  0  0  0  0  0  0
    1.6278   -0.3991   -2.0919 H   0  0  0  0  0  0  0  0  0  0  0  0
    0.3147   -1.6761   -2.2061 H   0  0  0  0  0  0  0  0  0  0  0  0
   -0.0135    0.0570   -2.5785 H   0  0  0  0  0  0  0  0  0  0  0  0
    1.2073   -1.6335    1.0140 H   0  0  0  0  0  0  0  0  0  0  0  0
    2.9061    0.6999   -0.3352 H   0  0  0  0  0  0  0  0  0  0  0  0
    3.4133   -0.4931    0.9690 H   0  0  0  0  0  0  0  0  0  0  0  0
    1.6208    0.2825    2.5489 H   0  0  0  0  0  0  0  0  0  0  0  0
    1.0858    1.5009    1.2283 H   0  0  0  0  0  0  0  0  0  0  0  0
   -1.2809   -1.2869    0.8227 H   0  0  0  0  0  0  0  0  0  0  0  0
   -3.3591   -0.4996   -0.0938 H   0  0  0  0  0  0  0  0  0  0  0  0
   -2.4910    0.6725   -1.2690 H   0  0  0  0  0  0  0  0  0  0  0  0
   -1.8174    0.0464    1.6822 H   0  0  0  0  0  0  0  0  0  0  0  0
   -2.1975    1.7602    1.0345 H   0  0  0  0  0  0  0  0  0  0  0  0
   -0.9751    1.3433   -1.0036 H   0  0  0  0  0  0  0  0  0  0  0  0
  1  2  1  0
  2  3  1  0
  3  4  1  0
  4  5  1  0
  2  6  1  0
  6  7  1  0
  7  8  1  0
  8  9  1  0
  9  2  1  0
  5  3  1  0
  9  6  1  0
  1 10  1  0
  1 11  1  0
  1 12  1  0
  3 13  1  0
  4 14  1  0
  4 15  1  0
  5 16  1  0
  5 17  1  0
  6 18  1  0
  7 19  1  0
  7 20  1  0
  8 21  1  0
  8 22  1  0
  9 23  1  0
M  END
