
     RDKit          3D

 19 19  0  0  0  0  0  0  0  0999 V2000
   -1.5758    0.1707   -1.0053 C   0  0  0  0  0  0  0  0  0  0  0  0
   -0.8403    0.0426    0.2956 C   0  0  0  0  0  0  0  0  0  0  0  0
    0.6431    0.2512    0.3353 C   0  0  0  0  0  0  0  0  0  0  0  0
    1.0731    1.5893   -0.1054 C   0  0  0  0  0  0  0  0  0  0  0  0
    0.4631    2.6294    0.0330 O   0  0  0  0  0  0  0  0  0  0  0  0
    1.2904   -0.8150   -0.5164 C   0  0  0  0  0  0  0  0  0  0  0  0
    2.6718   -0.7041   -0.5420 O   0  0  0  0  0  0  0  0  0  0  0  0
   -1.4532   -0.7740    1.3344 C   0  0  0  0  0  0  0  0  0  0  0  0
   -1.5782    0.7097    1.3674 O   0  0  0  0  0  0  0  0  0  0  0  0
   -1.2087    1.0293   -1.6188 H   0  0  0  0  0  0  0  0  0  0  0  0
   -1.4429   -0.7316   -1.6673 H   0  0  0  0  0  0  0  0  0  0  0  0
   -2.6462    0.3112   -0.8710 H   0  0  0  0  0  0  0  0  0  0  0  0
    1.0169    0.1050    1.3670 H   0  0  0  0  0  0  0  0  0  0  0  0
    2.0292    1.6576   -0.6037 H   0  0  0  0  0  0  0  0  0  0  0  0
    0.9307   -0.7928   -1.5643 H   0  0  0  0  0  0  0  0  0  0  0  0
    1.0372   -1.8090   -0.0521 H   0  0  0  0  0  0  0  0  0  0  0  0
    2.9721   -0.5397    0.3889 H   0  0  0  0  0  0  0  0  0  0  0  0
   -0.9685   -1.0576    2.2763 H   0  0  0  0  0  0  0  0  0  0  0  0
   -2.4138   -1.2723    1.1483 H   0  0  0  0  0  0  0  0  0  0  0  0
  1  2  1  0
  2  3  1  0
  3  4  1  0
  4  5  2  0
  3  6  1  0
  6  7  1  0
  2  8  1  0
  8  9  1  0
  9  2  1  0
  1 10  1  0
  1 11  1  0
  1 12  1  0
  3 13  1  0
  4 14  1  0
  6 15  1  0
  6 16  1  0
  7 17  1  0
  8 18  1  0
  8 19  1  0
M  END
