
     RDKit          3D

 17 17  0  0  0  0  0  0  0  0999 V2000
   -0.0083    1.5079   -0.8743 C   0  0  0  0  0  0  0  0  0  0  0  0
   -0.1333    0.2545   -0.0104 C   0  0  0  0  0  0  0  0  0  0  0  0
    1.1388   -0.5228    0.0680 C   0  0  0  0  0  0  0  0  0  0  0  0
    1.4991   -0.9282   -1.3371 C   0  0  0  0  0  0  0  0  0  0  0  0
    0.8157   -0.6300   -2.2980 O   0  0  0  0  0  0  0  0  0  0  0  0
   -1.2844   -0.5056   -0.4272 O   0  0  0  0  0  0  0  0  0  0  0  0
   -1.2222    0.1807    0.8847 C   0  0  0  0  0  0  0  0  0  0  0  0
   -1.4539   -0.7939    1.9532 C   0  0  0  0  0  0  0  0  0  0  0  0
   -0.7549   -1.7892    2.0241 O   0  0  0  0  0  0  0  0  0  0  0  0
    1.0418    1.8623   -0.9313 H   0  0  0  0  0  0  0  0  0  0  0  0
   -0.5965    2.3371   -0.4335 H   0  0  0  0  0  0  0  0  0  0  0  0
   -0.3641    1.3485   -1.8962 H   0  0  0  0  0  0  0  0  0  0  0  0
    1.9361    0.1987    0.3984 H   0  0  0  0  0  0  0  0  0  0  0  0
    1.1475   -1.3638    0.7552 H   0  0  0  0  0  0  0  0  0  0  0  0
    2.3985   -1.5083   -1.5168 H   0  0  0  0  0  0  0  0  0  0  0  0
   -1.9377    1.0500    0.9306 H   0  0  0  0  0  0  0  0  0  0  0  0
   -2.2223   -0.6980    2.7108 H   0  0  0  0  0  0  0  0  0  0  0  0
  1  2  1  0
  2  3  1  0
  3  4  1  0
  4  5  2  0
  2  6  1  0
  6  7  1  0
  7  8  1  0
  8  9  2  0
  7  2  1  0
  1 10  1  0
  1 11  1  0
  1 12  1  0
  3 13  1  0
  3 14  1  0
  4 15  1  0
  7 16  1  0
  8 17  1  0
M  END
