
     RDKit          3D

 20 21  0  0  0  0  0  0  0  0999 V2000
    1.4626   -1.1624    0.0638 C   0  0  0  0  0  0  0  0  0  0  0  0
    0.6217    0.1054   -0.0250 C   0  0  0  0  0  0  0  0  0  0  0  0
    1.5116    1.2787   -0.2047 C   0  0  0  0  0  0  0  0  0  0  0  0
   -0.4937    0.2041    0.9603 C   0  0  0  0  0  0  0  0  0  0  0  0
   -1.2089    1.0871   -0.0152 C   0  0  0  0  0  0  0  0  0  0  0  0
   -0.5968   -0.0023   -0.8692 C   0  0  0  0  0  0  0  0  0  0  0  0
   -1.1715   -0.9066    0.1970 C   0  0  0  0  0  0  0  0  0  0  0  0
   -2.5375   -0.8522    0.3640 O   0  0  0  0  0  0  0  0  0  0  0  0
    1.3886   -1.6784   -0.9215 H   0  0  0  0  0  0  0  0  0  0  0  0
    1.1736   -1.7972    0.9136 H   0  0  0  0  0  0  0  0  0  0  0  0
    2.5409   -0.9359    0.2083 H   0  0  0  0  0  0  0  0  0  0  0  0
    1.8435    1.3712   -1.2806 H   0  0  0  0  0  0  0  0  0  0  0  0
    1.1333    2.2342    0.1712 H   0  0  0  0  0  0  0  0  0  0  0  0
    2.4593    1.0802    0.3553 H   0  0  0  0  0  0  0  0  0  0  0  0
   -0.4448    0.3006    1.9566 H   0  0  0  0  0  0  0  0  0  0  0  0
   -0.8702    2.0951   -0.1638 H   0  0  0  0  0  0  0  0  0  0  0  0
   -2.3139    1.0399    0.0827 H   0  0  0  0  0  0  0  0  0  0  0  0
   -0.6885   -0.1073   -1.8570 H   0  0  0  0  0  0  0  0  0  0  0  0
   -0.7621   -1.8986    0.2773 H   0  0  0  0  0  0  0  0  0  0  0  0
   -3.0473   -1.4555   -0.2129 H   0  0  0  0  0  0  0  0  0  0  0  0
  1  2  1  0
  2  3  1  0
  2  4  1  0
  4  5  1  0
  5  6  1  0
  6  7  1  0
  7  8  1  0
  6  2  1  0
  7  4  1  0
  1  9  1  0
  1 10  1  0
  1 11  1  0
  3 12  1  0
  3 13  1  0
  3 14  1  0
  4 15  1  0
  5 16  1  0
  5 17  1  0
  6 18  1  0
  7 19  1  0
  8 20  1  0
M  END
