
     RDKit          3D

 21 22  0  0  0  0  0  0  0  0999 V2000
   -2.3882    0.0461   -0.8215 C   0  0  0  0  0  0  0  0  0  0  0  0
   -1.2727    0.0222    0.1944 C   0  0  0  0  0  0  0  0  0  0  0  0
   -1.7185    0.1187    1.4985 O   0  0  0  0  0  0  0  0  0  0  0  0
   -0.2919   -1.1258    0.0303 C   0  0  0  0  0  0  0  0  0  0  0  0
    0.8026   -0.1272    0.0136 C   0  0  0  0  0  0  0  0  0  0  0  0
    2.0518   -0.2509   -0.7126 C   0  0  0  0  0  0  0  0  0  0  0  0
    1.9874   -0.1389    0.8261 C   0  0  0  0  0  0  0  0  0  0  0  0
    2.4389    1.0696    1.3550 O   0  0  0  0  0  0  0  0  0  0  0  0
   -0.1439    1.0016   -0.1583 C   0  0  0  0  0  0  0  0  0  0  0  0
   -1.9515    0.2448   -1.8304 H   0  0  0  0  0  0  0  0  0  0  0  0
   -3.0310    0.9108   -0.5733 H   0  0  0  0  0  0  0  0  0  0  0  0
   -3.0010   -0.8537   -0.7960 H   0  0  0  0  0  0  0  0  0  0  0  0
   -1.7444   -0.8028    1.8634 H   0  0  0  0  0  0  0  0  0  0  0  0
   -0.2778   -1.8188    0.9132 H   0  0  0  0  0  0  0  0  0  0  0  0
   -0.3574   -1.6588   -0.9436 H   0  0  0  0  0  0  0  0  0  0  0  0
    2.4077    0.6667   -1.2557 H   0  0  0  0  0  0  0  0  0  0  0  0
    2.3036   -1.2368   -1.1414 H   0  0  0  0  0  0  0  0  0  0  0  0
    2.3434   -1.0539    1.3395 H   0  0  0  0  0  0  0  0  0  0  0  0
    2.1534    1.8186    0.7854 H   0  0  0  0  0  0  0  0  0  0  0  0
   -0.1335    1.7988    0.6128 H   0  0  0  0  0  0  0  0  0  0  0  0
   -0.1770    1.3697   -1.1992 H   0  0  0  0  0  0  0  0  0  0  0  0
  1  2  1  0
  2  3  1  0
  2  4  1  0
  4  5  1  0
  5  6  1  0
  6  7  1  0
  7  8  1  0
  5  9  1  0
  9  2  1  0
  7  5  1  0
  1 10  1  0
  1 11  1  0
  1 12  1  0
  3 13  1  0
  4 14  1  0
  4 15  1  0
  6 16  1  0
  6 17  1  0
  7 18  1  0
  8 19  1  0
  9 20  1  0
  9 21  1  0
M  END
