
     RDKit          3D

 19 21  0  0  0  0  0  0  0  0999 V2000
    2.0425   -0.6387   -0.0324 C   0  0  0  0  0  0  0  0  0  0  0  0
    0.8528    0.2847    0.1658 C   0  0  0  0  0  0  0  0  0  0  0  0
    1.2435    1.7518    0.1087 C   0  0  0  0  0  0  0  0  0  0  0  0
    0.0603    0.0072    1.3335 O   0  0  0  0  0  0  0  0  0  0  0  0
   -0.4192   -0.1196   -0.0699 C   0  0  0  0  0  0  0  0  0  0  0  0
   -1.0488   -1.4380   -0.2761 C   0  0  0  0  0  0  0  0  0  0  0  0
   -2.4076   -0.7770   -0.1988 C   0  0  0  0  0  0  0  0  0  0  0  0
   -2.6567    0.1741   -1.1508 O   0  0  0  0  0  0  0  0  0  0  0  0
   -1.7035    0.5866   -0.2293 C   0  0  0  0  0  0  0  0  0  0  0  0
    2.3729   -0.5489   -1.0855 H   0  0  0  0  0  0  0  0  0  0  0  0
    2.8603   -0.3011    0.6421 H   0  0  0  0  0  0  0  0  0  0  0  0
    1.7160   -1.6604    0.1612 H   0  0  0  0  0  0  0  0  0  0  0  0
    1.7009    1.9828   -0.8778 H   0  0  0  0  0  0  0  0  0  0  0  0
    0.3349    2.3637    0.2776 H   0  0  0  0  0  0  0  0  0  0  0  0
    1.9362    1.9874    0.9578 H   0  0  0  0  0  0  0  0  0  0  0  0
   -0.8577   -2.2405    0.4436 H   0  0  0  0  0  0  0  0  0  0  0  0
   -0.9340   -1.8674   -1.3150 H   0  0  0  0  0  0  0  0  0  0  0  0
   -3.0418   -0.9117    0.6861 H   0  0  0  0  0  0  0  0  0  0  0  0
   -2.0509    1.3651    0.4591 H   0  0  0  0  0  0  0  0  0  0  0  0
  1  2  1  0
  2  3  1  0
  2  4  1  0
  4  5  1  0
  5  6  1  0
  6  7  1  0
  7  8  1  0
  8  9  1  0
  5  2  1  0
  9  7  1  0
  9  5  1  0
  1 10  1  0
  1 11  1  0
  1 12  1  0
  3 13  1  0
  3 14  1  0
  3 15  1  0
  6 16  1  0
  6 17  1  0
  7 18  1  0
  9 19  1  0
M  END
