
     RDKit          3D

 17 18  0  0  0  0  0  0  0  0999 V2000
    1.8458   -0.2093   -0.2689 C   0  0  0  0  0  0  0  0  0  0  0  0
    0.5330    0.2939    0.2415 C   0  0  0  0  0  0  0  0  0  0  0  0
    0.7280    0.8751    1.4971 O   0  0  0  0  0  0  0  0  0  0  0  0
   -0.0776    1.3330   -0.6214 C   0  0  0  0  0  0  0  0  0  0  0  0
    0.2365    2.5432   -0.6967 O   0  0  0  0  0  0  0  0  0  0  0  0
   -1.0692    0.7250   -1.3394 O   0  0  0  0  0  0  0  0  0  0  0  0
   -1.4028   -0.5290   -0.7960 C   0  0  0  0  0  0  0  0  0  0  0  0
   -1.8817   -0.5958    0.5928 C   0  0  0  0  0  0  0  0  0  0  0  0
   -0.4504   -0.8447    0.2967 C   0  0  0  0  0  0  0  0  0  0  0  0
    1.7401   -1.1614   -0.8465 H   0  0  0  0  0  0  0  0  0  0  0  0
    2.5499   -0.3672    0.5811 H   0  0  0  0  0  0  0  0  0  0  0  0
    2.2581    0.5566   -0.9539 H   0  0  0  0  0  0  0  0  0  0  0  0
    1.2682    1.7101    1.3265 H   0  0  0  0  0  0  0  0  0  0  0  0
   -1.6213   -1.3119   -1.5299 H   0  0  0  0  0  0  0  0  0  0  0  0
   -2.4893   -1.4715    0.8805 H   0  0  0  0  0  0  0  0  0  0  0  0
   -2.0986    0.3191    1.1662 H   0  0  0  0  0  0  0  0  0  0  0  0
   -0.0687   -1.8652    0.4703 H   0  0  0  0  0  0  0  0  0  0  0  0
  1  2  1  0
  2  3  1  0
  2  4  1  0
  4  5  2  0
  4  6  1  0
  6  7  1  0
  7  8  1  0
  8  9  1  0
  9  2  1  0
  9  7  1  0
  1 10  1  0
  1 11  1  0
  1 12  1  0
  3 13  1  0
  7 14  1  0
  8 15  1  0
  8 16  1  0
  9 17  1  0
M  END
