
     RDKit          3D

 23 24  0  0  0  0  0  0  0  0999 V2000
    2.0446    0.4729   -1.0333 C   0  0  0  0  0  0  0  0  0  0  0  0
    1.1764   -0.2166    0.0249 C   0  0  0  0  0  0  0  0  0  0  0  0
    2.0270   -1.0479    0.9720 C   0  0  0  0  0  0  0  0  0  0  0  0
   -0.0643   -0.7484   -0.3779 C   0  0  0  0  0  0  0  0  0  0  0  0
   -1.1631   -1.4150    0.3199 C   0  0  0  0  0  0  0  0  0  0  0  0
   -2.2337   -0.6248    0.4732 C   0  0  0  0  0  0  0  0  0  0  0  0
   -2.2482    0.7730   -0.0328 C   0  0  0  0  0  0  0  0  0  0  0  0
   -0.8917    1.4441   -0.0562 C   0  0  0  0  0  0  0  0  0  0  0  0
    0.0864    0.5320    0.5276 C   0  0  0  0  0  0  0  0  0  0  0  0
    1.3315    1.0151   -1.6928 H   0  0  0  0  0  0  0  0  0  0  0  0
    2.6950   -0.2315   -1.5601 H   0  0  0  0  0  0  0  0  0  0  0  0
    2.6059    1.2710   -0.4888 H   0  0  0  0  0  0  0  0  0  0  0  0
    1.8788   -2.1282    0.7573 H   0  0  0  0  0  0  0  0  0  0  0  0
    3.0858   -0.8035    0.9357 H   0  0  0  0  0  0  0  0  0  0  0  0
    1.6310   -0.9025    2.0127 H   0  0  0  0  0  0  0  0  0  0  0  0
   -0.3645   -0.5666   -1.4452 H   0  0  0  0  0  0  0  0  0  0  0  0
   -1.2122   -2.4103    0.7043 H   0  0  0  0  0  0  0  0  0  0  0  0
   -3.1355   -1.0073    0.9869 H   0  0  0  0  0  0  0  0  0  0  0  0
   -2.9028    1.3922    0.6302 H   0  0  0  0  0  0  0  0  0  0  0  0
   -2.6876    0.7238   -1.0644 H   0  0  0  0  0  0  0  0  0  0  0  0
   -0.9303    2.4617    0.3950 H   0  0  0  0  0  0  0  0  0  0  0  0
   -0.6196    1.6283   -1.1371 H   0  0  0  0  0  0  0  0  0  0  0  0
   -0.1087    0.3887    1.6337 H   0  0  0  0  0  0  0  0  0  0  0  0
  1  2  1  0
  2  3  1  0
  2  4  1  0
  4  5  1  0
  5  6  2  0
  6  7  1  0
  7  8  1  0
  8  9  1  0
  9  2  1  0
  9  4  1  0
  1 10  1  0
  1 11  1  0
  1 12  1  0
  3 13  1  0
  3 14  1  0
  3 15  1  0
  4 16  1  0
  5 17  1  0
  6 18  1  0
  7 19  1  0
  7 20  1  0
  8 21  1  0
  8 22  1  0
  9 23  1  0
M  END
