
     RDKit          3D

 21 23  0  0  0  0  0  0  0  0999 V2000
    2.3294   -0.1090    0.3032 C   0  0  0  0  0  0  0  0  0  0  0  0
    0.9064   -0.4140   -0.0792 C   0  0  0  0  0  0  0  0  0  0  0  0
    0.7221   -1.4543   -0.9685 O   0  0  0  0  0  0  0  0  0  0  0  0
    0.1306    0.8520   -0.4159 C   0  0  0  0  0  0  0  0  0  0  0  0
   -1.1117    0.6043   -1.2605 C   0  0  0  0  0  0  0  0  0  0  0  0
   -1.9784   -0.2991   -0.4308 C   0  0  0  0  0  0  0  0  0  0  0  0
   -1.4179   -0.2229    0.9813 C   0  0  0  0  0  0  0  0  0  0  0  0
   -0.4210    0.8315    0.9698 C   0  0  0  0  0  0  0  0  0  0  0  0
    0.0111   -0.5621    1.1339 C   0  0  0  0  0  0  0  0  0  0  0  0
    2.5394    0.9781    0.2682 H   0  0  0  0  0  0  0  0  0  0  0  0
    3.0740   -0.6392   -0.3418 H   0  0  0  0  0  0  0  0  0  0  0  0
    2.4844   -0.5244    1.3257 H   0  0  0  0  0  0  0  0  0  0  0  0
    1.5208   -1.6024   -1.5435 H   0  0  0  0  0  0  0  0  0  0  0  0
    0.7366    1.7132   -0.7043 H   0  0  0  0  0  0  0  0  0  0  0  0
   -1.6200    1.5913   -1.3460 H   0  0  0  0  0  0  0  0  0  0  0  0
   -0.8823    0.2222   -2.2588 H   0  0  0  0  0  0  0  0  0  0  0  0
   -1.9997   -1.3388   -0.8172 H   0  0  0  0  0  0  0  0  0  0  0  0
   -3.0494    0.0299   -0.4046 H   0  0  0  0  0  0  0  0  0  0  0  0
   -2.0864   -0.3046    1.8415 H   0  0  0  0  0  0  0  0  0  0  0  0
   -0.2913    1.6249    1.6812 H   0  0  0  0  0  0  0  0  0  0  0  0
    0.4034   -0.9769    2.0666 H   0  0  0  0  0  0  0  0  0  0  0  0
  1  2  1  0
  2  3  1  0
  2  4  1  0
  4  5  1  0
  5  6  1  0
  6  7  1  0
  7  8  1  0
  8  9  1  0
  9  2  1  0
  8  4  1  0
  9  7  1  0
  1 10  1  0
  1 11  1  0
  1 12  1  0
  3 13  1  0
  4 14  1  0
  5 15  1  0
  5 16  1  0
  6 17  1  0
  6 18  1  0
  7 19  1  0
  8 20  1  0
  9 21  1  0
M  END
