
     RDKit          3D

 21 22  0  0  0  0  0  0  0  0999 V2000
    2.0548   -0.7861   -0.1987 C   0  0  0  0  0  0  0  0  0  0  0  0
    0.9300    0.0366    0.3430 C   0  0  0  0  0  0  0  0  0  0  0  0
    1.1040    0.8072    1.4759 O   0  0  0  0  0  0  0  0  0  0  0  0
    0.0726    0.6953   -0.7319 C   0  0  0  0  0  0  0  0  0  0  0  0
   -0.7397    1.8896   -0.3618 C   0  0  0  0  0  0  0  0  0  0  0  0
   -1.7967    1.3863    0.5312 C   0  0  0  0  0  0  0  0  0  0  0  0
   -1.6265    0.1049    0.7622 C   0  0  0  0  0  0  0  0  0  0  0  0
   -0.4551   -0.4080    0.0668 C   0  0  0  0  0  0  0  0  0  0  0  0
   -0.5744   -1.8107   -0.4856 C   0  0  0  0  0  0  0  0  0  0  0  0
    1.6285   -1.5719   -0.8848 H   0  0  0  0  0  0  0  0  0  0  0  0
    2.6397   -0.1153   -0.8959 H   0  0  0  0  0  0  0  0  0  0  0  0
    2.6976   -1.2295    0.5680 H   0  0  0  0  0  0  0  0  0  0  0  0
    1.7781    0.4501    2.0955 H   0  0  0  0  0  0  0  0  0  0  0  0
    0.3757    0.5725   -1.7986 H   0  0  0  0  0  0  0  0  0  0  0  0
   -1.2143    2.3285   -1.2696 H   0  0  0  0  0  0  0  0  0  0  0  0
   -0.0911    2.6553    0.1515 H   0  0  0  0  0  0  0  0  0  0  0  0
   -2.6218    2.0266    0.9439 H   0  0  0  0  0  0  0  0  0  0  0  0
   -2.3210   -0.4562    1.4127 H   0  0  0  0  0  0  0  0  0  0  0  0
   -1.5968   -2.2260   -0.3111 H   0  0  0  0  0  0  0  0  0  0  0  0
    0.1041   -2.4617    0.1382 H   0  0  0  0  0  0  0  0  0  0  0  0
   -0.3478   -1.8875   -1.5508 H   0  0  0  0  0  0  0  0  0  0  0  0
  1  2  1  0
  2  3  1  0
  2  4  1  0
  4  5  1  0
  5  6  1  0
  6  7  2  0
  7  8  1  0
  8  9  1  0
  8  2  1  0
  8  4  1  0
  1 10  1  0
  1 11  1  0
  1 12  1  0
  3 13  1  0
  4 14  1  0
  5 15  1  0
  5 16  1  0
  6 17  1  0
  7 18  1  0
  9 19  1  0
  9 20  1  0
  9 21  1  0
M  END
