
     RDKit          3D

 21 21  0  0  0  0  0  0  0  0999 V2000
    1.2604    1.3079   -0.4693 C   0  0  0  0  0  0  0  0  0  0  0  0
    0.6854    0.1664    0.3385 C   0  0  0  0  0  0  0  0  0  0  0  0
    1.3337    0.0980    1.5508 O   0  0  0  0  0  0  0  0  0  0  0  0
    0.8855   -1.1180   -0.4300 C   0  0  0  0  0  0  0  0  0  0  0  0
   -0.4529   -1.7903   -0.3204 C   0  0  0  0  0  0  0  0  0  0  0  0
   -1.3862   -0.5894   -0.4961 C   0  0  0  0  0  0  0  0  0  0  0  0
   -0.7871    0.3200    0.5800 C   0  0  0  0  0  0  0  0  0  0  0  0
   -1.2681    1.6970    0.4793 C   0  0  0  0  0  0  0  0  0  0  0  0
   -1.2922    2.3805    1.4884 O   0  0  0  0  0  0  0  0  0  0  0  0
    2.3276    1.0662   -0.6593 H   0  0  0  0  0  0  0  0  0  0  0  0
    0.7724    1.4318   -1.4459 H   0  0  0  0  0  0  0  0  0  0  0  0
    1.2506    2.2450    0.1372 H   0  0  0  0  0  0  0  0  0  0  0  0
    1.4135   -0.8408    1.8252 H   0  0  0  0  0  0  0  0  0  0  0  0
    1.7004   -1.7416   -0.0455 H   0  0  0  0  0  0  0  0  0  0  0  0
    1.0466   -0.8678   -1.5066 H   0  0  0  0  0  0  0  0  0  0  0  0
   -0.6310   -2.5639   -1.0804 H   0  0  0  0  0  0  0  0  0  0  0  0
   -0.5810   -2.1336    0.7135 H   0  0  0  0  0  0  0  0  0  0  0  0
   -1.2033   -0.1970   -1.4950 H   0  0  0  0  0  0  0  0  0  0  0  0
   -2.4292   -0.8589   -0.2749 H   0  0  0  0  0  0  0  0  0  0  0  0
   -1.0360   -0.1719    1.5477 H   0  0  0  0  0  0  0  0  0  0  0  0
   -1.6089    2.1605   -0.4374 H   0  0  0  0  0  0  0  0  0  0  0  0
  1  2  1  0
  2  3  1  0
  2  4  1  0
  4  5  1  0
  5  6  1  0
  6  7  1  0
  7  8  1  0
  8  9  2  0
  7  2  1  0
  1 10  1  0
  1 11  1  0
  1 12  1  0
  3 13  1  0
  4 14  1  0
  4 15  1  0
  5 16  1  0
  5 17  1  0
  6 18  1  0
  6 19  1  0
  7 20  1  0
  8 21  1  0
M  END
