
     RDKit          3D

 19 19  0  0  0  0  0  0  0  0999 V2000
   -2.6970   -1.3619    0.0950 C   0  0  0  0  0  0  0  0  0  0  0  0
   -1.3398   -0.7007    0.1869 C   0  0  0  0  0  0  0  0  0  0  0  0
   -0.8912    0.1026   -0.9999 C   0  0  0  0  0  0  0  0  0  0  0  0
    0.4229    0.6638   -0.7464 C   0  0  0  0  0  0  0  0  0  0  0  0
    1.5249    1.1566   -0.5385 C   0  0  0  0  0  0  0  0  0  0  0  0
    2.8384    1.7557   -0.2967 C   0  0  0  0  0  0  0  0  0  0  0  0
    3.2762    1.4062    0.9876 O   0  0  0  0  0  0  0  0  0  0  0  0
   -0.2605   -1.5457    0.8291 C   0  0  0  0  0  0  0  0  0  0  0  0
   -0.8125   -0.4242    1.4417 O   0  0  0  0  0  0  0  0  0  0  0  0
   -2.6241   -2.1435   -0.6926 H   0  0  0  0  0  0  0  0  0  0  0  0
   -3.4955   -0.6127   -0.1386 H   0  0  0  0  0  0  0  0  0  0  0  0
   -2.9052   -1.8016    1.0909 H   0  0  0  0  0  0  0  0  0  0  0  0
   -1.6603    0.9097   -1.1750 H   0  0  0  0  0  0  0  0  0  0  0  0
   -0.8527   -0.5278   -1.9034 H   0  0  0  0  0  0  0  0  0  0  0  0
    2.6895    2.8693   -0.3754 H   0  0  0  0  0  0  0  0  0  0  0  0
    3.5881    1.4242   -1.0485 H   0  0  0  0  0  0  0  0  0  0  0  0
    2.9929    2.1483    1.5789 H   0  0  0  0  0  0  0  0  0  0  0  0
   -0.5520   -2.5442    1.2627 H   0  0  0  0  0  0  0  0  0  0  0  0
    0.7577   -1.5247    0.4420 H   0  0  0  0  0  0  0  0  0  0  0  0
  1  2  1  0
  2  3  1  0
  3  4  1  0
  4  5  3  0
  5  6  1  0
  6  7  1  0
  2  8  1  0
  8  9  1  0
  9  2  1  0
  1 10  1  0
  1 11  1  0
  1 12  1  0
  3 13  1  0
  3 14  1  0
  6 15  1  0
  6 16  1  0
  7 17  1  0
  8 18  1  0
  8 19  1  0
M  END
