
     RDKit          3D

 21 22  0  0  0  0  0  0  0  0999 V2000
   -1.6201   -1.3305    0.3071 C   0  0  0  0  0  0  0  0  0  0  0  0
   -0.7362   -0.1336    0.1084 C   0  0  0  0  0  0  0  0  0  0  0  0
   -1.6005    1.0791   -0.0713 C   0  0  0  0  0  0  0  0  0  0  0  0
    0.1655   -0.4033   -1.0607 C   0  0  0  0  0  0  0  0  0  0  0  0
    1.3267    0.5134   -0.8049 C   0  0  0  0  0  0  0  0  0  0  0  0
    2.4428   -0.0812    0.0229 C   0  0  0  0  0  0  0  0  0  0  0  0
    1.4086    0.7508    0.6673 C   0  0  0  0  0  0  0  0  0  0  0  0
    0.2285    0.0725    1.2159 C   0  0  0  0  0  0  0  0  0  0  0  0
    0.0226   -0.2821    2.3665 O   0  0  0  0  0  0  0  0  0  0  0  0
   -2.5460   -0.9850    0.7965 H   0  0  0  0  0  0  0  0  0  0  0  0
   -1.8352   -1.8216   -0.6699 H   0  0  0  0  0  0  0  0  0  0  0  0
   -1.0447   -2.0606    0.9277 H   0  0  0  0  0  0  0  0  0  0  0  0
   -1.8656    1.4372    0.9657 H   0  0  0  0  0  0  0  0  0  0  0  0
   -1.0820    1.8852   -0.6480 H   0  0  0  0  0  0  0  0  0  0  0  0
   -2.5300    0.8080   -0.6336 H   0  0  0  0  0  0  0  0  0  0  0  0
    0.5255   -1.4480   -1.0153 H   0  0  0  0  0  0  0  0  0  0  0  0
   -0.3500   -0.2205   -2.0111 H   0  0  0  0  0  0  0  0  0  0  0  0
    1.5335    1.3053   -1.5333 H   0  0  0  0  0  0  0  0  0  0  0  0
    3.4400    0.3472   -0.2348 H   0  0  0  0  0  0  0  0  0  0  0  0
    2.4037   -1.1834    0.2433 H   0  0  0  0  0  0  0  0  0  0  0  0
    1.7128    1.7511    1.0616 H   0  0  0  0  0  0  0  0  0  0  0  0
  1  2  1  0
  2  3  1  0
  2  4  1  0
  4  5  1  0
  5  6  1  0
  6  7  1  0
  7  8  1  0
  8  9  2  0
  8  2  1  0
  7  5  1  0
  1 10  1  0
  1 11  1  0
  1 12  1  0
  3 13  1  0
  3 14  1  0
  3 15  1  0
  4 16  1  0
  4 17  1  0
  5 18  1  0
  6 19  1  0
  6 20  1  0
  7 21  1  0
M  END
