
     RDKit          3D

 21 22  0  0  0  0  0  0  0  0999 V2000
   -2.5106    0.7173   -0.4819 C   0  0  0  0  0  0  0  0  0  0  0  0
   -1.2820   -0.1045   -0.8376 C   0  0  0  0  0  0  0  0  0  0  0  0
   -1.3657   -0.6400   -2.0999 O   0  0  0  0  0  0  0  0  0  0  0  0
   -1.0632   -1.1531    0.2339 C   0  0  0  0  0  0  0  0  0  0  0  0
    0.2563   -0.4880    0.5481 C   0  0  0  0  0  0  0  0  0  0  0  0
    1.2559   -0.2496   -0.5173 C   0  0  0  0  0  0  0  0  0  0  0  0
    2.5445    0.3843   -0.0870 C   0  0  0  0  0  0  0  0  0  0  0  0
    3.4166    0.5635   -1.1757 O   0  0  0  0  0  0  0  0  0  0  0  0
    0.0078    0.5507   -0.4688 C   0  0  0  0  0  0  0  0  0  0  0  0
   -2.5914    1.5469   -1.1858 H   0  0  0  0  0  0  0  0  0  0  0  0
   -3.4046    0.0776   -0.4916 H   0  0  0  0  0  0  0  0  0  0  0  0
   -2.3703    1.0869    0.5749 H   0  0  0  0  0  0  0  0  0  0  0  0
   -1.7397   -1.5506   -2.0345 H   0  0  0  0  0  0  0  0  0  0  0  0
   -1.7530   -1.1083    1.0920 H   0  0  0  0  0  0  0  0  0  0  0  0
   -1.0052   -2.1778   -0.1646 H   0  0  0  0  0  0  0  0  0  0  0  0
    0.4659   -0.2120    1.5881 H   0  0  0  0  0  0  0  0  0  0  0  0
    1.3585   -0.9404   -1.3782 H   0  0  0  0  0  0  0  0  0  0  0  0
    3.0808   -0.2671    0.6380 H   0  0  0  0  0  0  0  0  0  0  0  0
    2.3791    1.3690    0.4382 H   0  0  0  0  0  0  0  0  0  0  0  0
    4.2537    0.9659   -0.7994 H   0  0  0  0  0  0  0  0  0  0  0  0
    0.0666    1.6294   -0.2531 H   0  0  0  0  0  0  0  0  0  0  0  0
  1  2  1  0
  2  3  1  0
  2  4  1  0
  4  5  1  0
  5  6  1  0
  6  7  1  0
  7  8  1  0
  6  9  1  0
  9  2  1  0
  9  5  1  0
  1 10  1  0
  1 11  1  0
  1 12  1  0
  3 13  1  0
  4 14  1  0
  4 15  1  0
  5 16  1  0
  6 17  1  0
  7 18  1  0
  7 19  1  0
  8 20  1  0
  9 21  1  0
M  END
