
     RDKit          3D

 19 19  0  0  0  0  0  0  0  0999 V2000
   -1.9935    1.1530   -0.1490 C   0  0  0  0  0  0  0  0  0  0  0  0
   -0.9559    0.0957   -0.3472 C   0  0  0  0  0  0  0  0  0  0  0  0
   -1.5522   -1.1144   -1.0511 C   0  0  0  0  0  0  0  0  0  0  0  0
   -0.2509   -0.2702    0.8247 O   0  0  0  0  0  0  0  0  0  0  0  0
    0.8639   -0.4535    0.0507 C   0  0  0  0  0  0  0  0  0  0  0  0
    2.1885   -0.1150    0.6970 C   0  0  0  0  0  0  0  0  0  0  0  0
    3.2198   -0.3438   -0.1862 O   0  0  0  0  0  0  0  0  0  0  0  0
    0.3432    0.5484   -0.8999 C   0  0  0  0  0  0  0  0  0  0  0  0
    0.7404    1.3382   -1.7140 O   0  0  0  0  0  0  0  0  0  0  0  0
   -2.1994    1.4015    0.8976 H   0  0  0  0  0  0  0  0  0  0  0  0
   -2.9770    0.8837   -0.6243 H   0  0  0  0  0  0  0  0  0  0  0  0
   -1.6535    2.0719   -0.6891 H   0  0  0  0  0  0  0  0  0  0  0  0
   -2.3444   -0.7730   -1.7451 H   0  0  0  0  0  0  0  0  0  0  0  0
   -0.8100   -1.6792   -1.6251 H   0  0  0  0  0  0  0  0  0  0  0  0
   -2.0288   -1.7263   -0.2427 H   0  0  0  0  0  0  0  0  0  0  0  0
    0.9574   -1.4448   -0.4551 H   0  0  0  0  0  0  0  0  0  0  0  0
    2.2023    0.8976    1.1421 H   0  0  0  0  0  0  0  0  0  0  0  0
    2.3220   -0.8258    1.5596 H   0  0  0  0  0  0  0  0  0  0  0  0
    3.9283    0.3558   -0.0634 H   0  0  0  0  0  0  0  0  0  0  0  0
  1  2  1  0
  2  3  1  0
  2  4  1  0
  4  5  1  0
  5  6  1  0
  6  7  1  0
  5  8  1  0
  8  9  2  0
  8  2  1  0
  1 10  1  0
  1 11  1  0
  1 12  1  0
  3 13  1  0
  3 14  1  0
  3 15  1  0
  5 16  1  0
  6 17  1  0
  6 18  1  0
  7 19  1  0
M  END
