
     RDKit          3D

 25 26  0  0  0  0  0  0  0  0999 V2000
   -1.7513    0.3076   -1.1726 C   0  0  0  0  0  0  0  0  0  0  0  0
   -1.3448   -0.3022    0.1378 C   0  0  0  0  0  0  0  0  0  0  0  0
   -2.3475   -1.3380    0.6518 C   0  0  0  0  0  0  0  0  0  0  0  0
   -0.8613    0.6371    1.2289 C   0  0  0  0  0  0  0  0  0  0  0  0
    0.0229   -0.4038    0.6021 C   0  0  0  0  0  0  0  0  0  0  0  0
    1.2216    0.1047   -0.1222 C   0  0  0  0  0  0  0  0  0  0  0  0
    1.4797   -0.4759   -1.5037 C   0  0  0  0  0  0  0  0  0  0  0  0
    2.4684    0.2162    0.7476 C   0  0  0  0  0  0  0  0  0  0  0  0
    1.8342    1.4150    0.1442 C   0  0  0  0  0  0  0  0  0  0  0  0
   -1.1164    1.2174   -1.3288 H   0  0  0  0  0  0  0  0  0  0  0  0
   -1.7087   -0.3811   -2.0182 H   0  0  0  0  0  0  0  0  0  0  0  0
   -2.7968    0.6963   -1.1181 H   0  0  0  0  0  0  0  0  0  0  0  0
   -1.8736   -1.9121    1.4944 H   0  0  0  0  0  0  0  0  0  0  0  0
   -2.6943   -2.0042   -0.1545 H   0  0  0  0  0  0  0  0  0  0  0  0
   -3.1935   -0.7735    1.0588 H   0  0  0  0  0  0  0  0  0  0  0  0
   -1.2226    0.4957    2.2649 H   0  0  0  0  0  0  0  0  0  0  0  0
   -0.7921    1.6869    0.9267 H   0  0  0  0  0  0  0  0  0  0  0  0
    0.2591   -1.2560    1.3060 H   0  0  0  0  0  0  0  0  0  0  0  0
    1.8372    0.3207   -2.2169 H   0  0  0  0  0  0  0  0  0  0  0  0
    2.3666   -1.1695   -1.4120 H   0  0  0  0  0  0  0  0  0  0  0  0
    0.6128   -0.9825   -1.9296 H   0  0  0  0  0  0  0  0  0  0  0  0
    3.4184   -0.2035    0.3608 H   0  0  0  0  0  0  0  0  0  0  0  0
    2.3585    0.0651    1.8484 H   0  0  0  0  0  0  0  0  0  0  0  0
    1.4076    2.1408    0.8631 H   0  0  0  0  0  0  0  0  0  0  0  0
    2.4159    1.8987   -0.6590 H   0  0  0  0  0  0  0  0  0  0  0  0
  1  2  1  0
  2  3  1  0
  2  4  1  0
  4  5  1  0
  5  6  1  0
  6  7  1  0
  6  8  1  0
  8  9  1  0
  5  2  1  0
  9  6  1  0
  1 10  1  0
  1 11  1  0
  1 12  1  0
  3 13  1  0
  3 14  1  0
  3 15  1  0
  4 16  1  0
  4 17  1  0
  5 18  1  0
  7 19  1  0
  7 20  1  0
  7 21  1  0
  8 22  1  0
  8 23  1  0
  9 24  1  0
  9 25  1  0
M  END
