
     RDKit          3D

 19 20  0  0  0  0  0  0  0  0999 V2000
   -1.0763    1.4810    0.0903 C   0  0  0  0  0  0  0  0  0  0  0  0
   -0.7061    0.0335    0.0330 C   0  0  0  0  0  0  0  0  0  0  0  0
   -1.9039   -0.8713    0.0095 C   0  0  0  0  0  0  0  0  0  0  0  0
    0.2975   -0.3591   -1.0176 C   0  0  0  0  0  0  0  0  0  0  0  0
    1.3163   -0.3849    0.0615 C   0  0  0  0  0  0  0  0  0  0  0  0
    2.5983    0.0866    0.0343 C   0  0  0  0  0  0  0  0  0  0  0  0
    2.2911   -1.3617    0.1246 O   0  0  0  0  0  0  0  0  0  0  0  0
    0.2948   -0.2891    1.1005 C   0  0  0  0  0  0  0  0  0  0  0  0
    0.1499   -0.3919    2.3085 O   0  0  0  0  0  0  0  0  0  0  0  0
   -1.7421    1.8181   -0.7040 H   0  0  0  0  0  0  0  0  0  0  0  0
   -1.6137    1.6459    1.0626 H   0  0  0  0  0  0  0  0  0  0  0  0
   -0.1508    2.1006    0.1720 H   0  0  0  0  0  0  0  0  0  0  0  0
   -2.6150   -0.5821    0.8309 H   0  0  0  0  0  0  0  0  0  0  0  0
   -1.6248   -1.9226    0.0799 H   0  0  0  0  0  0  0  0  0  0  0  0
   -2.3975   -0.7274   -0.9863 H   0  0  0  0  0  0  0  0  0  0  0  0
    0.1140   -1.3714   -1.4247 H   0  0  0  0  0  0  0  0  0  0  0  0
    0.4592    0.3551   -1.8291 H   0  0  0  0  0  0  0  0  0  0  0  0
    3.1677    0.3874    0.9476 H   0  0  0  0  0  0  0  0  0  0  0  0
    3.1414    0.3536   -0.8935 H   0  0  0  0  0  0  0  0  0  0  0  0
  1  2  1  0
  2  3  1  0
  2  4  1  0
  4  5  1  0
  5  6  1  0
  6  7  1  0
  5  8  1  0
  8  9  2  0
  8  2  1  0
  7  5  1  0
  1 10  1  0
  1 11  1  0
  1 12  1  0
  3 13  1  0
  3 14  1  0
  3 15  1  0
  4 16  1  0
  4 17  1  0
  6 18  1  0
  6 19  1  0
M  END
