
     RDKit          3D

 21 21  0  0  0  0  0  0  0  0999 V2000
    1.9605    0.2113    1.1933 C   0  0  0  0  0  0  0  0  0  0  0  0
    1.4177   -0.3323   -0.0881 C   0  0  0  0  0  0  0  0  0  0  0  0
   -0.0200   -0.7616   -0.1860 C   0  0  0  0  0  0  0  0  0  0  0  0
   -0.9862    0.3542    0.0987 C   0  0  0  0  0  0  0  0  0  0  0  0
   -0.8243    1.4053   -0.7934 O   0  0  0  0  0  0  0  0  0  0  0  0
   -2.3915   -0.2195   -0.0623 C   0  0  0  0  0  0  0  0  0  0  0  0
   -3.3731    0.7157    0.1887 O   0  0  0  0  0  0  0  0  0  0  0  0
    2.1878   -0.1847   -1.3350 C   0  0  0  0  0  0  0  0  0  0  0  0
    2.2361   -1.4365   -0.6560 O   0  0  0  0  0  0  0  0  0  0  0  0
    2.6505   -0.5388    1.6753 H   0  0  0  0  0  0  0  0  0  0  0  0
    1.1746    0.5075    1.9112 H   0  0  0  0  0  0  0  0  0  0  0  0
    2.5739    1.1298    1.0056 H   0  0  0  0  0  0  0  0  0  0  0  0
   -0.1910   -1.1865   -1.1975 H   0  0  0  0  0  0  0  0  0  0  0  0
   -0.2242   -1.5772    0.5377 H   0  0  0  0  0  0  0  0  0  0  0  0
   -0.8381    0.6807    1.1462 H   0  0  0  0  0  0  0  0  0  0  0  0
   -1.3594    2.1669   -0.4205 H   0  0  0  0  0  0  0  0  0  0  0  0
   -2.5040   -0.5710   -1.1151 H   0  0  0  0  0  0  0  0  0  0  0  0
   -2.5289   -1.0831    0.6188 H   0  0  0  0  0  0  0  0  0  0  0  0
   -3.7042    0.5840    1.1319 H   0  0  0  0  0  0  0  0  0  0  0  0
    3.1628    0.2914   -1.3811 H   0  0  0  0  0  0  0  0  0  0  0  0
    1.5810   -0.1554   -2.2723 H   0  0  0  0  0  0  0  0  0  0  0  0
  1  2  1  0
  2  3  1  0
  3  4  1  0
  4  5  1  0
  4  6  1  0
  6  7  1  0
  2  8  1  0
  8  9  1  0
  9  2  1  0
  1 10  1  0
  1 11  1  0
  1 12  1  0
  3 13  1  0
  3 14  1  0
  4 15  1  0
  5 16  1  0
  6 17  1  0
  6 18  1  0
  7 19  1  0
  8 20  1  0
  8 21  1  0
M  END
