
     RDKit          3D

 19 20  0  0  0  0  0  0  0  0999 V2000
   -0.7709    0.8553   -1.0667 C   0  0  0  0  0  0  0  0  0  0  0  0
   -0.5953   -0.2143   -0.0097 C   0  0  0  0  0  0  0  0  0  0  0  0
    0.8263   -0.4621    0.3845 C   0  0  0  0  0  0  0  0  0  0  0  0
    1.5726    0.7005    0.9567 C   0  0  0  0  0  0  0  0  0  0  0  0
    1.9415    0.2246   -0.3844 C   0  0  0  0  0  0  0  0  0  0  0  0
   -1.4348   -1.4260   -0.2959 C   0  0  0  0  0  0  0  0  0  0  0  0
   -2.4064   -0.8343    0.5450 O   0  0  0  0  0  0  0  0  0  0  0  0
   -1.4643    0.0036    1.1611 C   0  0  0  0  0  0  0  0  0  0  0  0
   -1.3726    0.6627    2.2351 O   0  0  0  0  0  0  0  0  0  0  0  0
   -0.4192    1.8541   -0.7119 H   0  0  0  0  0  0  0  0  0  0  0  0
   -1.8508    0.9542   -1.3028 H   0  0  0  0  0  0  0  0  0  0  0  0
   -0.2811    0.5531   -2.0221 H   0  0  0  0  0  0  0  0  0  0  0  0
    1.0741   -1.4887    0.7074 H   0  0  0  0  0  0  0  0  0  0  0  0
    1.0674    1.6553    1.1390 H   0  0  0  0  0  0  0  0  0  0  0  0
    2.3136    0.4543    1.7723 H   0  0  0  0  0  0  0  0  0  0  0  0
    2.9133   -0.3308   -0.5105 H   0  0  0  0  0  0  0  0  0  0  0  0
    1.6228    0.7147   -1.3062 H   0  0  0  0  0  0  0  0  0  0  0  0
   -1.7244   -1.5050   -1.3589 H   0  0  0  0  0  0  0  0  0  0  0  0
   -1.0120   -2.3710    0.0680 H   0  0  0  0  0  0  0  0  0  0  0  0
  1  2  1  0
  2  3  1  0
  3  4  1  0
  4  5  1  0
  2  6  1  0
  6  7  1  0
  7  8  1  0
  8  9  2  0
  8  2  1  0
  5  3  1  0
  1 10  1  0
  1 11  1  0
  1 12  1  0
  3 13  1  0
  4 14  1  0
  4 15  1  0
  5 16  1  0
  5 17  1  0
  6 18  1  0
  6 19  1  0
M  END
