
     RDKit          3D

 20 20  0  0  0  0  0  0  0  0999 V2000
   -1.6987   -1.0506   -0.4360 C   0  0  0  0  0  0  0  0  0  0  0  0
   -0.5682   -0.2444    0.1304 C   0  0  0  0  0  0  0  0  0  0  0  0
   -0.4696   -0.2326    1.6161 C   0  0  0  0  0  0  0  0  0  0  0  0
   -0.2386    0.9781   -0.6819 C   0  0  0  0  0  0  0  0  0  0  0  0
   -0.0119    2.1307    0.0368 O   0  0  0  0  0  0  0  0  0  0  0  0
    0.7390   -0.1634   -0.6027 C   0  0  0  0  0  0  0  0  0  0  0  0
    1.9962    0.1753    0.1334 C   0  0  0  0  0  0  0  0  0  0  0  0
    0.8815   -1.0482   -1.6424 O   0  0  0  0  0  0  0  0  0  0  0  0
   -1.4931   -1.2428   -1.5205 H   0  0  0  0  0  0  0  0  0  0  0  0
   -1.9202   -1.9723    0.0962 H   0  0  0  0  0  0  0  0  0  0  0  0
   -2.6003   -0.3740   -0.4417 H   0  0  0  0  0  0  0  0  0  0  0  0
   -1.5074   -0.3348    2.0341 H   0  0  0  0  0  0  0  0  0  0  0  0
   -0.0445    0.6740    2.0524 H   0  0  0  0  0  0  0  0  0  0  0  0
    0.0579   -1.1631    1.9682 H   0  0  0  0  0  0  0  0  0  0  0  0
   -0.7044    1.1281   -1.6615 H   0  0  0  0  0  0  0  0  0  0  0  0
   -0.9130    2.5184    0.2470 H   0  0  0  0  0  0  0  0  0  0  0  0
    2.7666   -0.5906    0.1201 H   0  0  0  0  0  0  0  0  0  0  0  0
    1.7916    0.4359    1.1959 H   0  0  0  0  0  0  0  0  0  0  0  0
    2.4579    1.1102   -0.3016 H   0  0  0  0  0  0  0  0  0  0  0  0
    1.4791   -0.7338   -2.3423 H   0  0  0  0  0  0  0  0  0  0  0  0
  1  2  1  0
  2  3  1  0
  2  4  1  0
  4  5  1  0
  4  6  1  0
  6  7  1  0
  6  8  1  0
  6  2  1  0
  1  9  1  0
  1 10  1  0
  1 11  1  0
  3 12  1  0
  3 13  1  0
  3 14  1  0
  4 15  1  0
  5 16  1  0
  7 17  1  0
  7 18  1  0
  7 19  1  0
  8 20  1  0
M  END
