
     RDKit          3D

 23 24  0  0  0  0  0  0  0  0999 V2000
   -2.4037    0.1580   -1.0614 C   0  0  0  0  0  0  0  0  0  0  0  0
   -1.2712   -0.0604   -0.1125 C   0  0  0  0  0  0  0  0  0  0  0  0
   -1.6817   -0.0921    1.3388 C   0  0  0  0  0  0  0  0  0  0  0  0
   -0.1535    0.9481   -0.4172 C   0  0  0  0  0  0  0  0  0  0  0  0
    0.6436   -0.2748   -0.2426 C   0  0  0  0  0  0  0  0  0  0  0  0
    1.8536   -0.4966   -1.0536 C   0  0  0  0  0  0  0  0  0  0  0  0
    2.6944   -0.0804    0.1521 C   0  0  0  0  0  0  0  0  0  0  0  0
    1.4570   -0.3891    1.0069 C   0  0  0  0  0  0  0  0  0  0  0  0
   -0.4219   -1.1189   -0.3886 O   0  0  0  0  0  0  0  0  0  0  0  0
   -3.1789    0.7636   -0.5061 H   0  0  0  0  0  0  0  0  0  0  0  0
   -2.9135   -0.7638   -1.3646 H   0  0  0  0  0  0  0  0  0  0  0  0
   -2.1185    0.8087   -1.9340 H   0  0  0  0  0  0  0  0  0  0  0  0
   -2.7333    0.2128    1.4825 H   0  0  0  0  0  0  0  0  0  0  0  0
   -1.5675   -1.1217    1.7690 H   0  0  0  0  0  0  0  0  0  0  0  0
   -1.0658    0.5682    1.9800 H   0  0  0  0  0  0  0  0  0  0  0  0
   -0.1571    1.7078    0.3788 H   0  0  0  0  0  0  0  0  0  0  0  0
   -0.2216    1.4039   -1.4202 H   0  0  0  0  0  0  0  0  0  0  0  0
    2.0124    0.0829   -1.9611 H   0  0  0  0  0  0  0  0  0  0  0  0
    2.0235   -1.5851   -1.2848 H   0  0  0  0  0  0  0  0  0  0  0  0
    2.8724    1.0089    0.0894 H   0  0  0  0  0  0  0  0  0  0  0  0
    3.5615   -0.7099    0.3590 H   0  0  0  0  0  0  0  0  0  0  0  0
    1.4467   -1.4038    1.4349 H   0  0  0  0  0  0  0  0  0  0  0  0
    1.3232    0.4337    1.7553 H   0  0  0  0  0  0  0  0  0  0  0  0
  1  2  1  0
  2  3  1  0
  2  4  1  0
  4  5  1  0
  5  6  1  0
  6  7  1  0
  7  8  1  0
  5  9  1  0
  9  2  1  0
  8  5  1  0
  1 10  1  0
  1 11  1  0
  1 12  1  0
  3 13  1  0
  3 14  1  0
  3 15  1  0
  4 16  1  0
  4 17  1  0
  6 18  1  0
  6 19  1  0
  7 20  1  0
  7 21  1  0
  8 22  1  0
  8 23  1  0
M  END
