
     RDKit          3D

 18 18  0  0  0  0  0  0  0  0999 V2000
    1.7973   -0.1071    0.3237 C   0  0  0  0  0  0  0  0  0  0  0  0
    0.4763   -0.0638   -0.3508 C   0  0  0  0  0  0  0  0  0  0  0  0
    0.6059    0.4085   -1.6513 O   0  0  0  0  0  0  0  0  0  0  0  0
   -0.1629   -1.4487   -0.3509 C   0  0  0  0  0  0  0  0  0  0  0  0
   -0.8918   -1.4228    0.8505 O   0  0  0  0  0  0  0  0  0  0  0  0
   -1.6505   -0.2706    0.6734 C   0  0  0  0  0  0  0  0  0  0  0  0
   -0.5694    0.7526    0.3405 C   0  0  0  0  0  0  0  0  0  0  0  0
   -1.1797    1.6765   -0.5279 O   0  0  0  0  0  0  0  0  0  0  0  0
    2.0025   -1.1210    0.7754 H   0  0  0  0  0  0  0  0  0  0  0  0
    2.6183    0.0172   -0.4354 H   0  0  0  0  0  0  0  0  0  0  0  0
    1.9264    0.6091    1.1530 H   0  0  0  0  0  0  0  0  0  0  0  0
    0.9678    1.3324   -1.5752 H   0  0  0  0  0  0  0  0  0  0  0  0
   -0.8501   -1.5318   -1.2172 H   0  0  0  0  0  0  0  0  0  0  0  0
    0.5730   -2.2484   -0.2742 H   0  0  0  0  0  0  0  0  0  0  0  0
   -2.2378    0.0045    1.5549 H   0  0  0  0  0  0  0  0  0  0  0  0
   -2.2703   -0.4470   -0.2407 H   0  0  0  0  0  0  0  0  0  0  0  0
   -0.1939    1.2483    1.2351 H   0  0  0  0  0  0  0  0  0  0  0  0
   -0.9610    2.6122   -0.2829 H   0  0  0  0  0  0  0  0  0  0  0  0
  1  2  1  0
  2  3  1  0
  2  4  1  0
  4  5  1  0
  5  6  1  0
  6  7  1  0
  7  8  1  0
  7  2  1  0
  1  9  1  0
  1 10  1  0
  1 11  1  0
  3 12  1  0
  4 13  1  0
  4 14  1  0
  6 15  1  0
  6 16  1  0
  7 17  1  0
  8 18  1  0
M  END
