
     RDKit          3D

 21 22  0  0  0  0  0  0  0  0999 V2000
   -1.7737    1.3069   -0.2459 C   0  0  0  0  0  0  0  0  0  0  0  0
   -1.0836    0.0184    0.1885 C   0  0  0  0  0  0  0  0  0  0  0  0
   -1.9940   -1.1926    0.0754 C   0  0  0  0  0  0  0  0  0  0  0  0
   -0.3177    0.0047    1.3311 O   0  0  0  0  0  0  0  0  0  0  0  0
    0.2706   -0.1010    0.1004 C   0  0  0  0  0  0  0  0  0  0  0  0
    1.1489   -1.2299   -0.2894 C   0  0  0  0  0  0  0  0  0  0  0  0
    2.3497   -0.3092   -0.1230 C   0  0  0  0  0  0  0  0  0  0  0  0
    1.3557    0.8590   -0.1973 C   0  0  0  0  0  0  0  0  0  0  0  0
    1.6804    1.7551    0.8376 O   0  0  0  0  0  0  0  0  0  0  0  0
   -2.8513    1.1797   -0.4008 H   0  0  0  0  0  0  0  0  0  0  0  0
   -1.3414    1.5452   -1.2602 H   0  0  0  0  0  0  0  0  0  0  0  0
   -1.5106    2.1613    0.3954 H   0  0  0  0  0  0  0  0  0  0  0  0
   -1.6509   -2.0329    0.7106 H   0  0  0  0  0  0  0  0  0  0  0  0
   -2.9969   -0.8950    0.4971 H   0  0  0  0  0  0  0  0  0  0  0  0
   -2.1236   -1.5264   -0.9666 H   0  0  0  0  0  0  0  0  0  0  0  0
    1.0366   -1.4345   -1.3941 H   0  0  0  0  0  0  0  0  0  0  0  0
    1.1404   -2.1233    0.3275 H   0  0  0  0  0  0  0  0  0  0  0  0
    2.8273   -0.4278    0.8688 H   0  0  0  0  0  0  0  0  0  0  0  0
    3.0209   -0.2507   -0.9922 H   0  0  0  0  0  0  0  0  0  0  0  0
    1.3493    1.3868   -1.1490 H   0  0  0  0  0  0  0  0  0  0  0  0
    1.4640    1.3062    1.6860 H   0  0  0  0  0  0  0  0  0  0  0  0
  1  2  1  0
  2  3  1  0
  2  4  1  0
  4  5  1  0
  5  6  1  0
  6  7  1  0
  7  8  1  0
  8  9  1  0
  5  2  1  0
  8  5  1  0
  1 10  1  0
  1 11  1  0
  1 12  1  0
  3 13  1  0
  3 14  1  0
  3 15  1  0
  6 16  1  0
  6 17  1  0
  7 18  1  0
  7 19  1  0
  8 20  1  0
  9 21  1  0
M  END
