
     RDKit          3D

 19 20  0  0  0  0  0  0  0  0999 V2000
    1.6797    0.5289   -0.7968 C   0  0  0  0  0  0  0  0  0  0  0  0
    0.6491   -0.0271    0.1367 C   0  0  0  0  0  0  0  0  0  0  0  0
    1.0935   -1.1820    0.9545 C   0  0  0  0  0  0  0  0  0  0  0  0
    1.4396   -2.2240    0.4321 O   0  0  0  0  0  0  0  0  0  0  0  0
    0.0790    1.0903    1.0002 C   0  0  0  0  0  0  0  0  0  0  0  0
   -1.2923    0.7591    0.4364 C   0  0  0  0  0  0  0  0  0  0  0  0
   -1.7628   -0.6201    0.6063 C   0  0  0  0  0  0  0  0  0  0  0  0
   -0.7126   -0.2648   -0.4231 C   0  0  0  0  0  0  0  0  0  0  0  0
   -0.9520   -0.4145   -1.7524 O   0  0  0  0  0  0  0  0  0  0  0  0
    2.0161   -0.1745   -1.5684 H   0  0  0  0  0  0  0  0  0  0  0  0
    2.5907    0.7526   -0.1717 H   0  0  0  0  0  0  0  0  0  0  0  0
    1.3323    1.4791   -1.2054 H   0  0  0  0  0  0  0  0  0  0  0  0
    1.1220   -1.1295    2.0363 H   0  0  0  0  0  0  0  0  0  0  0  0
    0.1836    0.8982    2.0788 H   0  0  0  0  0  0  0  0  0  0  0  0
    0.3966    2.1039    0.7039 H   0  0  0  0  0  0  0  0  0  0  0  0
   -1.9575    1.5643    0.1075 H   0  0  0  0  0  0  0  0  0  0  0  0
   -1.3580   -1.2648    1.4330 H   0  0  0  0  0  0  0  0  0  0  0  0
   -2.7980   -0.8528    0.2713 H   0  0  0  0  0  0  0  0  0  0  0  0
   -1.7490   -1.0223   -1.8690 H   0  0  0  0  0  0  0  0  0  0  0  0
  1  2  1  0
  2  3  1  0
  3  4  2  0
  2  5  1  0
  5  6  1  0
  6  7  1  0
  7  8  1  0
  8  9  1  0
  8  2  1  0
  8  6  1  0
  1 10  1  0
  1 11  1  0
  1 12  1  0
  3 13  1  0
  5 14  1  0
  5 15  1  0
  6 16  1  0
  7 17  1  0
  7 18  1  0
  9 19  1  0
M  END
