
     RDKit          3D

 23 23  0  0  0  0  0  0  0  0999 V2000
   -1.6148   -0.1130   -1.5375 C   0  0  0  0  0  0  0  0  0  0  0  0
   -1.2684    0.0830   -0.0942 C   0  0  0  0  0  0  0  0  0  0  0  0
   -1.9472    1.2646    0.5559 C   0  0  0  0  0  0  0  0  0  0  0  0
   -0.8610   -1.1002    0.6876 C   0  0  0  0  0  0  0  0  0  0  0  0
    0.1690   -0.0899    0.3649 C   0  0  0  0  0  0  0  0  0  0  0  0
    0.6320    0.6619    1.4347 O   0  0  0  0  0  0  0  0  0  0  0  0
    1.1561   -0.2731   -0.7433 C   0  0  0  0  0  0  0  0  0  0  0  0
    2.5553   -0.4342   -0.1350 C   0  0  0  0  0  0  0  0  0  0  0  0
    2.8848    0.7004    0.6024 O   0  0  0  0  0  0  0  0  0  0  0  0
   -1.7671    0.8779   -2.0507 H   0  0  0  0  0  0  0  0  0  0  0  0
   -2.6299   -0.6005   -1.5885 H   0  0  0  0  0  0  0  0  0  0  0  0
   -0.9389   -0.7571   -2.0954 H   0  0  0  0  0  0  0  0  0  0  0  0
   -2.8798    1.5492    0.0336 H   0  0  0  0  0  0  0  0  0  0  0  0
   -1.2534    2.1283    0.4482 H   0  0  0  0  0  0  0  0  0  0  0  0
   -2.0958    1.1192    1.6399 H   0  0  0  0  0  0  0  0  0  0  0  0
   -1.1465   -1.2425    1.7445 H   0  0  0  0  0  0  0  0  0  0  0  0
   -0.7773   -2.0562    0.1216 H   0  0  0  0  0  0  0  0  0  0  0  0
    0.7101    0.1324    2.2695 H   0  0  0  0  0  0  0  0  0  0  0  0
    0.9448   -1.1200   -1.4018 H   0  0  0  0  0  0  0  0  0  0  0  0
    1.2077    0.6573   -1.3497 H   0  0  0  0  0  0  0  0  0  0  0  0
    2.6057   -1.3634    0.4846 H   0  0  0  0  0  0  0  0  0  0  0  0
    3.2932   -0.5343   -0.9468 H   0  0  0  0  0  0  0  0  0  0  0  0
    3.0214    0.5101    1.5555 H   0  0  0  0  0  0  0  0  0  0  0  0
  1  2  1  0
  2  3  1  0
  2  4  1  0
  4  5  1  0
  5  6  1  0
  5  7  1  0
  7  8  1  0
  8  9  1  0
  5  2  1  0
  1 10  1  0
  1 11  1  0
  1 12  1  0
  3 13  1  0
  3 14  1  0
  3 15  1  0
  4 16  1  0
  4 17  1  0
  6 18  1  0
  7 19  1  0
  7 20  1  0
  8 21  1  0
  8 22  1  0
  9 23  1  0
M  END
