
     RDKit          3D

 23 24  0  0  0  0  0  0  0  0999 V2000
   -2.3406   -0.5197   -0.2712 C   0  0  0  0  0  0  0  0  0  0  0  0
   -1.0407    0.1553   -0.0070 C   0  0  0  0  0  0  0  0  0  0  0  0
   -1.2319    1.5438    0.5303 C   0  0  0  0  0  0  0  0  0  0  0  0
    0.0470   -0.0177   -1.0399 C   0  0  0  0  0  0  0  0  0  0  0  0
    0.0894   -1.4303   -0.5841 C   0  0  0  0  0  0  0  0  0  0  0  0
    0.0261   -0.6731    0.6862 C   0  0  0  0  0  0  0  0  0  0  0  0
    0.9929    0.2848    0.0650 C   0  0  0  0  0  0  0  0  0  0  0  0
    2.4180   -0.1614   -0.0478 C   0  0  0  0  0  0  0  0  0  0  0  0
    3.1151    0.2569    1.1215 O   0  0  0  0  0  0  0  0  0  0  0  0
   -3.2001    0.2064   -0.1589 H   0  0  0  0  0  0  0  0  0  0  0  0
   -2.4496   -0.9259   -1.2972 H   0  0  0  0  0  0  0  0  0  0  0  0
   -2.5390   -1.3037    0.5054 H   0  0  0  0  0  0  0  0  0  0  0  0
   -0.7739    1.6897    1.5305 H   0  0  0  0  0  0  0  0  0  0  0  0
   -2.3239    1.7864    0.6742 H   0  0  0  0  0  0  0  0  0  0  0  0
   -0.8691    2.2724   -0.2208 H   0  0  0  0  0  0  0  0  0  0  0  0
    0.0469    0.3428   -1.9739 H   0  0  0  0  0  0  0  0  0  0  0  0
    0.9665   -2.0104   -0.8541 H   0  0  0  0  0  0  0  0  0  0  0  0
   -0.8123   -2.0491   -0.8293 H   0  0  0  0  0  0  0  0  0  0  0  0
   -0.0038   -0.9982    1.6293 H   0  0  0  0  0  0  0  0  0  0  0  0
    0.9385    1.3293    0.4746 H   0  0  0  0  0  0  0  0  0  0  0  0
    2.9589    0.3056   -0.8931 H   0  0  0  0  0  0  0  0  0  0  0  0
    2.5337   -1.2571   -0.0379 H   0  0  0  0  0  0  0  0  0  0  0  0
    3.4521    1.1734    0.9982 H   0  0  0  0  0  0  0  0  0  0  0  0
  1  2  1  0
  2  3  1  0
  2  4  1  0
  4  5  1  0
  5  6  1  0
  6  7  1  0
  7  8  1  0
  8  9  1  0
  6  2  1  0
  7  4  1  0
  1 10  1  0
  1 11  1  0
  1 12  1  0
  3 13  1  0
  3 14  1  0
  3 15  1  0
  4 16  1  0
  5 17  1  0
  5 18  1  0
  6 19  1  0
  7 20  1  0
  8 21  1  0
  8 22  1  0
  9 23  1  0
M  END
