
     RDKit          3D

 19 19  0  0  0  0  0  0  0  0999 V2000
   -1.6514   -0.5200    0.9193 C   0  0  0  0  0  0  0  0  0  0  0  0
   -0.9505   -0.1758   -0.3714 C   0  0  0  0  0  0  0  0  0  0  0  0
   -1.7350   -0.3651   -1.4873 O   0  0  0  0  0  0  0  0  0  0  0  0
   -0.6129    1.3194   -0.2847 C   0  0  0  0  0  0  0  0  0  0  0  0
    0.4634    1.2761    0.6119 O   0  0  0  0  0  0  0  0  0  0  0  0
    1.3093    0.3824   -0.0427 C   0  0  0  0  0  0  0  0  0  0  0  0
    2.4471   -0.0433    0.7587 C   0  0  0  0  0  0  0  0  0  0  0  0
    2.6020    0.3656    1.8790 O   0  0  0  0  0  0  0  0  0  0  0  0
    0.4145   -0.7812   -0.4743 C   0  0  0  0  0  0  0  0  0  0  0  0
   -2.5611    0.1274    0.9792 H   0  0  0  0  0  0  0  0  0  0  0  0
   -1.9137   -1.5857    1.0002 H   0  0  0  0  0  0  0  0  0  0  0  0
   -0.9715   -0.1884    1.7398 H   0  0  0  0  0  0  0  0  0  0  0  0
   -1.2220   -0.9187   -2.1221 H   0  0  0  0  0  0  0  0  0  0  0  0
   -1.4572    1.9082    0.0894 H   0  0  0  0  0  0  0  0  0  0  0  0
   -0.2025    1.6700   -1.2518 H   0  0  0  0  0  0  0  0  0  0  0  0
    1.6919    0.9286   -0.9422 H   0  0  0  0  0  0  0  0  0  0  0  0
    3.1631   -0.7340    0.3471 H   0  0  0  0  0  0  0  0  0  0  0  0
    0.6241   -1.0089   -1.5364 H   0  0  0  0  0  0  0  0  0  0  0  0
    0.5623   -1.6566    0.1881 H   0  0  0  0  0  0  0  0  0  0  0  0
  1  2  1  0
  2  3  1  0
  2  4  1  0
  4  5  1  0
  5  6  1  0
  6  7  1  0
  7  8  2  0
  6  9  1  0
  9  2  1  0
  1 10  1  0
  1 11  1  0
  1 12  1  0
  3 13  1  0
  4 14  1  0
  4 15  1  0
  6 16  1  0
  7 17  1  0
  9 18  1  0
  9 19  1  0
M  END
