
     RDKit          3D

 21 23  0  0  0  0  0  0  0  0999 V2000
   -1.6603    1.2349    0.8517 C   0  0  0  0  0  0  0  0  0  0  0  0
   -0.8683    0.2650    0.0477 C   0  0  0  0  0  0  0  0  0  0  0  0
   -1.7434   -0.8502   -0.5377 C   0  0  0  0  0  0  0  0  0  0  0  0
   -0.1553    0.8129   -0.9846 O   0  0  0  0  0  0  0  0  0  0  0  0
    0.9911    0.0790   -1.2067 C   0  0  0  0  0  0  0  0  0  0  0  0
    2.1401    0.6910   -0.3922 C   0  0  0  0  0  0  0  0  0  0  0  0
    1.5866    0.0002    0.8177 C   0  0  0  0  0  0  0  0  0  0  0  0
    0.9971   -1.0153   -0.1857 C   0  0  0  0  0  0  0  0  0  0  0  0
    0.1817   -0.4629    0.8836 C   0  0  0  0  0  0  0  0  0  0  0  0
   -2.6632    0.7593    1.0565 H   0  0  0  0  0  0  0  0  0  0  0  0
   -1.2390    1.4504    1.8526 H   0  0  0  0  0  0  0  0  0  0  0  0
   -1.9037    2.1733    0.2991 H   0  0  0  0  0  0  0  0  0  0  0  0
   -2.1756   -0.5195   -1.5176 H   0  0  0  0  0  0  0  0  0  0  0  0
   -2.4925   -1.2019    0.1700 H   0  0  0  0  0  0  0  0  0  0  0  0
   -1.0828   -1.7077   -0.7907 H   0  0  0  0  0  0  0  0  0  0  0  0
    1.2440   -0.1763   -2.2334 H   0  0  0  0  0  0  0  0  0  0  0  0
    3.0943    0.1786   -0.6986 H   0  0  0  0  0  0  0  0  0  0  0  0
    2.1622    1.7766   -0.3931 H   0  0  0  0  0  0  0  0  0  0  0  0
    2.2792   -0.4223    1.5497 H   0  0  0  0  0  0  0  0  0  0  0  0
    1.4193   -1.9743   -0.3023 H   0  0  0  0  0  0  0  0  0  0  0  0
   -0.1115   -1.0910    1.7140 H   0  0  0  0  0  0  0  0  0  0  0  0
  1  2  1  0
  2  3  1  0
  2  4  1  0
  4  5  1  0
  5  6  1  0
  6  7  1  0
  7  8  1  0
  8  9  1  0
  9  2  1  0
  8  5  1  0
  9  7  1  0
  1 10  1  0
  1 11  1  0
  1 12  1  0
  3 13  1  0
  3 14  1  0
  3 15  1  0
  5 16  1  0
  6 17  1  0
  6 18  1  0
  7 19  1  0
  8 20  1  0
  9 21  1  0
M  END
