
     RDKit          3D

 21 23  0  0  0  0  0  0  0  0999 V2000
    0.0031    1.7639    0.5444 C   0  0  0  0  0  0  0  0  0  0  0  0
   -0.3001    0.3809    0.0132 C   0  0  0  0  0  0  0  0  0  0  0  0
    0.8543   -0.4516   -0.5002 C   0  0  0  0  0  0  0  0  0  0  0  0
    1.9435   -0.7716    0.4588 C   0  0  0  0  0  0  0  0  0  0  0  0
    2.1695    0.2816   -0.5765 C   0  0  0  0  0  0  0  0  0  0  0  0
   -1.6764    0.1015   -0.4004 C   0  0  0  0  0  0  0  0  0  0  0  0
   -2.0355   -1.3121   -0.7341 C   0  0  0  0  0  0  0  0  0  0  0  0
   -1.6032   -1.6847    0.5541 O   0  0  0  0  0  0  0  0  0  0  0  0
   -1.2461   -0.4042    0.9139 C   0  0  0  0  0  0  0  0  0  0  0  0
    0.6420    1.6640    1.4202 H   0  0  0  0  0  0  0  0  0  0  0  0
   -0.9341    2.2966    0.7959 H   0  0  0  0  0  0  0  0  0  0  0  0
    0.4652    2.3469   -0.2883 H   0  0  0  0  0  0  0  0  0  0  0  0
    0.6432   -1.1890   -1.3108 H   0  0  0  0  0  0  0  0  0  0  0  0
    2.5632   -1.6780    0.3650 H   0  0  0  0  0  0  0  0  0  0  0  0
    1.8520   -0.4366    1.5291 H   0  0  0  0  0  0  0  0  0  0  0  0
    2.2376    1.3384   -0.2512 H   0  0  0  0  0  0  0  0  0  0  0  0
    2.8272    0.0310   -1.4505 H   0  0  0  0  0  0  0  0  0  0  0  0
   -2.4097    0.9185   -0.5197 H   0  0  0  0  0  0  0  0  0  0  0  0
   -3.1067   -1.5101   -0.9316 H   0  0  0  0  0  0  0  0  0  0  0  0
   -1.3278   -1.7067   -1.4964 H   0  0  0  0  0  0  0  0  0  0  0  0
   -1.5613    0.0215    1.8653 H   0  0  0  0  0  0  0  0  0  0  0  0
  1  2  1  0
  2  3  1  0
  3  4  1  0
  4  5  1  0
  2  6  1  0
  6  7  1  0
  7  8  1  0
  8  9  1  0
  9  2  1  0
  5  3  1  0
  9  6  1  0
  1 10  1  0
  1 11  1  0
  1 12  1  0
  3 13  1  0
  4 14  1  0
  4 15  1  0
  5 16  1  0
  5 17  1  0
  6 18  1  0
  7 19  1  0
  7 20  1  0
  9 21  1  0
M  END
