
     RDKit          3D

 19 19  0  0  0  0  0  0  0  0999 V2000
   -1.6727   -0.9285   -0.4763 C   0  0  0  0  0  0  0  0  0  0  0  0
   -0.7584    0.1733   -0.0556 C   0  0  0  0  0  0  0  0  0  0  0  0
   -1.4475    1.4666    0.2291 C   0  0  0  0  0  0  0  0  0  0  0  0
   -0.0907   -0.2541    1.2299 C   0  0  0  0  0  0  0  0  0  0  0  0
    1.1532   -0.6087    0.9324 C   0  0  0  0  0  0  0  0  0  0  0  0
    1.3428   -0.4301   -0.5320 C   0  0  0  0  0  0  0  0  0  0  0  0
    2.6625    0.2310   -0.7861 C   0  0  0  0  0  0  0  0  0  0  0  0
    3.6515   -0.4032   -0.4566 O   0  0  0  0  0  0  0  0  0  0  0  0
    0.2873    0.3857   -0.9476 O   0  0  0  0  0  0  0  0  0  0  0  0
   -2.5215   -0.9561    0.2379 H   0  0  0  0  0  0  0  0  0  0  0  0
   -1.1092   -1.8979   -0.3945 H   0  0  0  0  0  0  0  0  0  0  0  0
   -2.0628   -0.8205   -1.5026 H   0  0  0  0  0  0  0  0  0  0  0  0
   -2.2185    1.3598    1.0180 H   0  0  0  0  0  0  0  0  0  0  0  0
   -1.8517    1.9017   -0.7040 H   0  0  0  0  0  0  0  0  0  0  0  0
   -0.6753    2.1735    0.6252 H   0  0  0  0  0  0  0  0  0  0  0  0
   -0.5567   -0.2605    2.1904 H   0  0  0  0  0  0  0  0  0  0  0  0
    1.8632   -0.9596    1.6691 H   0  0  0  0  0  0  0  0  0  0  0  0
    1.2876   -1.3962   -1.0358 H   0  0  0  0  0  0  0  0  0  0  0  0
    2.7166    1.2239   -1.2410 H   0  0  0  0  0  0  0  0  0  0  0  0
  1  2  1  0
  2  3  1  0
  2  4  1  0
  4  5  2  0
  5  6  1  0
  6  7  1  0
  7  8  2  0
  6  9  1  0
  9  2  1  0
  1 10  1  0
  1 11  1  0
  1 12  1  0
  3 13  1  0
  3 14  1  0
  3 15  1  0
  4 16  1  0
  5 17  1  0
  6 18  1  0
  7 19  1  0
M  END
