
     RDKit          3D

 25 25  0  0  0  0  0  0  0  0999 V2000
   -1.5385   -0.9478   -1.0033 C   0  0  0  0  0  0  0  0  0  0  0  0
   -0.6330   -0.4436    0.0986 C   0  0  0  0  0  0  0  0  0  0  0  0
   -0.7187   -1.4052    1.2417 C   0  0  0  0  0  0  0  0  0  0  0  0
   -1.1189    0.9070    0.5938 C   0  0  0  0  0  0  0  0  0  0  0  0
   -0.6620    1.8188   -0.5048 C   0  0  0  0  0  0  0  0  0  0  0  0
    0.7165    1.2820   -0.8402 C   0  0  0  0  0  0  0  0  0  0  0  0
    0.7028   -0.1767   -0.4364 C   0  0  0  0  0  0  0  0  0  0  0  0
    1.8551   -0.4382    0.4836 C   0  0  0  0  0  0  0  0  0  0  0  0
    3.0437   -0.1327   -0.1833 O   0  0  0  0  0  0  0  0  0  0  0  0
   -2.5828   -0.9141   -0.6249 H   0  0  0  0  0  0  0  0  0  0  0  0
   -1.3865   -0.3011   -1.8897 H   0  0  0  0  0  0  0  0  0  0  0  0
   -1.2116   -1.9729   -1.2798 H   0  0  0  0  0  0  0  0  0  0  0  0
   -0.1553   -1.0697    2.1413 H   0  0  0  0  0  0  0  0  0  0  0  0
   -1.7923   -1.4089    1.5814 H   0  0  0  0  0  0  0  0  0  0  0  0
   -0.4920   -2.4482    0.9733 H   0  0  0  0  0  0  0  0  0  0  0  0
   -0.5849    1.1698    1.5084 H   0  0  0  0  0  0  0  0  0  0  0  0
   -2.2080    0.8366    0.7003 H   0  0  0  0  0  0  0  0  0  0  0  0
   -1.3609    1.7224   -1.3612 H   0  0  0  0  0  0  0  0  0  0  0  0
   -0.5985    2.8798   -0.2027 H   0  0  0  0  0  0  0  0  0  0  0  0
    0.8559    1.4008   -1.9338 H   0  0  0  0  0  0  0  0  0  0  0  0
    1.4440    1.8847   -0.3020 H   0  0  0  0  0  0  0  0  0  0  0  0
    0.8732   -0.7837   -1.3598 H   0  0  0  0  0  0  0  0  0  0  0  0
    1.8230    0.1071    1.4264 H   0  0  0  0  0  0  0  0  0  0  0  0
    1.9203   -1.5279    0.7373 H   0  0  0  0  0  0  0  0  0  0  0  0
    3.8092   -0.0381    0.4357 H   0  0  0  0  0  0  0  0  0  0  0  0
  1  2  1  0
  2  3  1  0
  2  4  1  0
  4  5  1  0
  5  6  1  0
  6  7  1  0
  7  8  1  0
  8  9  1  0
  7  2  1  0
  1 10  1  0
  1 11  1  0
  1 12  1  0
  3 13  1  0
  3 14  1  0
  3 15  1  0
  4 16  1  0
  4 17  1  0
  5 18  1  0
  5 19  1  0
  6 20  1  0
  6 21  1  0
  7 22  1  0
  8 23  1  0
  8 24  1  0
  9 25  1  0
M  END
