
     RDKit          3D

 27 27  0  0  0  0  0  0  0  0999 V2000
    2.0040   -0.1533    0.5035 C   0  0  0  0  0  0  0  0  0  0  0  0
    0.7140   -0.3395   -0.2477 C   0  0  0  0  0  0  0  0  0  0  0  0
    0.8536   -1.2118   -1.4707 C   0  0  0  0  0  0  0  0  0  0  0  0
   -0.5248   -0.3770    0.5768 C   0  0  0  0  0  0  0  0  0  0  0  0
   -1.4855   -1.4552    0.1664 C   0  0  0  0  0  0  0  0  0  0  0  0
   -0.4693   -0.1378    2.0632 C   0  0  0  0  0  0  0  0  0  0  0  0
   -0.2759    0.7560   -0.3336 C   0  0  0  0  0  0  0  0  0  0  0  0
   -1.2159    0.8938   -1.4975 C   0  0  0  0  0  0  0  0  0  0  0  0
    0.2527    2.0751    0.1537 C   0  0  0  0  0  0  0  0  0  0  0  0
    1.9963    0.6698    1.2159 H   0  0  0  0  0  0  0  0  0  0  0  0
    2.1682   -1.0941    1.1053 H   0  0  0  0  0  0  0  0  0  0  0  0
    2.8709   -0.0621   -0.1721 H   0  0  0  0  0  0  0  0  0  0  0  0
    0.0828   -1.0700   -2.2191 H   0  0  0  0  0  0  0  0  0  0  0  0
    1.8293   -0.9160   -1.9519 H   0  0  0  0  0  0  0  0  0  0  0  0
    0.9013   -2.2726   -1.1120 H   0  0  0  0  0  0  0  0  0  0  0  0
   -1.3559   -1.7960   -0.8746 H   0  0  0  0  0  0  0  0  0  0  0  0
   -2.5024   -1.1490    0.4220 H   0  0  0  0  0  0  0  0  0  0  0  0
   -1.2375   -2.3563    0.8022 H   0  0  0  0  0  0  0  0  0  0  0  0
   -1.2397   -0.7439    2.6204 H   0  0  0  0  0  0  0  0  0  0  0  0
    0.5094   -0.4843    2.5074 H   0  0  0  0  0  0  0  0  0  0  0  0
   -0.6899    0.9171    2.3408 H   0  0  0  0  0  0  0  0  0  0  0  0
   -1.6380   -0.0332   -1.8638 H   0  0  0  0  0  0  0  0  0  0  0  0
   -0.7402    1.5304   -2.2865 H   0  0  0  0  0  0  0  0  0  0  0  0
   -2.0844    1.5164   -1.1282 H   0  0  0  0  0  0  0  0  0  0  0  0
   -0.4439    2.9138   -0.0898 H   0  0  0  0  0  0  0  0  0  0  0  0
    1.1889    2.2883   -0.4352 H   0  0  0  0  0  0  0  0  0  0  0  0
    0.5317    2.0913    1.2051 H   0  0  0  0  0  0  0  0  0  0  0  0
  1  2  1  0
  2  3  1  0
  2  4  1  0
  4  5  1  0
  4  6  1  0
  4  7  1  0
  7  8  1  0
  7  9  1  0
  7  2  1  0
  1 10  1  0
  1 11  1  0
  1 12  1  0
  3 13  1  0
  3 14  1  0
  3 15  1  0
  5 16  1  0
  5 17  1  0
  5 18  1  0
  6 19  1  0
  6 20  1  0
  6 21  1  0
  8 22  1  0
  8 23  1  0
  8 24  1  0
  9 25  1  0
  9 26  1  0
  9 27  1  0
M  END
