
     RDKit          3D

 23 24  0  0  0  0  0  0  0  0999 V2000
   -1.8974   -0.6280    1.0128 C   0  0  0  0  0  0  0  0  0  0  0  0
   -1.1011    0.1708   -0.0051 C   0  0  0  0  0  0  0  0  0  0  0  0
   -1.9055    0.6168   -1.1874 C   0  0  0  0  0  0  0  0  0  0  0  0
   -0.1686    1.2661    0.5401 C   0  0  0  0  0  0  0  0  0  0  0  0
    0.3234    0.0143   -0.0097 C   0  0  0  0  0  0  0  0  0  0  0  0
    1.2150   -0.1619   -1.1574 C   0  0  0  0  0  0  0  0  0  0  0  0
    2.2749   -0.6904   -0.1828 C   0  0  0  0  0  0  0  0  0  0  0  0
    3.0703    0.3518    0.2627 O   0  0  0  0  0  0  0  0  0  0  0  0
    1.1088   -0.9742    0.7774 C   0  0  0  0  0  0  0  0  0  0  0  0
   -2.8205   -0.1200    1.3172 H   0  0  0  0  0  0  0  0  0  0  0  0
   -2.0630   -1.6605    0.6287 H   0  0  0  0  0  0  0  0  0  0  0  0
   -1.2206   -0.7507    1.9013 H   0  0  0  0  0  0  0  0  0  0  0  0
   -1.2601    1.0533   -1.9954 H   0  0  0  0  0  0  0  0  0  0  0  0
   -2.6174    1.4537   -0.9288 H   0  0  0  0  0  0  0  0  0  0  0  0
   -2.4981   -0.1682   -1.6512 H   0  0  0  0  0  0  0  0  0  0  0  0
   -0.1089    1.3523    1.6659 H   0  0  0  0  0  0  0  0  0  0  0  0
   -0.1502    2.2374    0.0454 H   0  0  0  0  0  0  0  0  0  0  0  0
    0.9687   -1.0001   -1.8612 H   0  0  0  0  0  0  0  0  0  0  0  0
    1.5190    0.7652   -1.6889 H   0  0  0  0  0  0  0  0  0  0  0  0
    2.7674   -1.6098   -0.4853 H   0  0  0  0  0  0  0  0  0  0  0  0
    2.4556    1.1161    0.4632 H   0  0  0  0  0  0  0  0  0  0  0  0
    0.7362   -2.0095    0.7320 H   0  0  0  0  0  0  0  0  0  0  0  0
    1.3721   -0.6245    1.8063 H   0  0  0  0  0  0  0  0  0  0  0  0
  1  2  1  0
  2  3  1  0
  2  4  1  0
  4  5  1  0
  5  6  1  0
  6  7  1  0
  7  8  1  0
  7  9  1  0
  5  2  1  0
  9  5  1  0
  1 10  1  0
  1 11  1  0
  1 12  1  0
  3 13  1  0
  3 14  1  0
  3 15  1  0
  4 16  1  0
  4 17  1  0
  6 18  1  0
  6 19  1  0
  7 20  1  0
  8 21  1  0
  9 22  1  0
  9 23  1  0
M  END
