
     RDKit          3D

 19 20  0  0  0  0  0  0  0  0999 V2000
   -1.1287   -0.8023    1.4210 C   0  0  0  0  0  0  0  0  0  0  0  0
   -0.5494   -0.2529    0.1297 C   0  0  0  0  0  0  0  0  0  0  0  0
    0.6285   -0.9647   -0.4819 C   0  0  0  0  0  0  0  0  0  0  0  0
    1.7998   -1.1365    0.2346 O   0  0  0  0  0  0  0  0  0  0  0  0
    1.8175   -0.2588   -0.9419 C   0  0  0  0  0  0  0  0  0  0  0  0
    2.2409    1.0763   -0.5279 C   0  0  0  0  0  0  0  0  0  0  0  0
    3.0954    1.6719   -1.1461 O   0  0  0  0  0  0  0  0  0  0  0  0
   -0.8815    1.1203   -0.2396 C   0  0  0  0  0  0  0  0  0  0  0  0
   -1.6766    0.0455   -0.9177 C   0  0  0  0  0  0  0  0  0  0  0  0
   -2.0489   -0.1956    1.6311 H   0  0  0  0  0  0  0  0  0  0  0  0
   -1.4757   -1.8380    1.2914 H   0  0  0  0  0  0  0  0  0  0  0  0
   -0.4648   -0.6555    2.2828 H   0  0  0  0  0  0  0  0  0  0  0  0
    0.3556   -1.8825   -1.0639 H   0  0  0  0  0  0  0  0  0  0  0  0
    2.3488   -0.6734   -1.8238 H   0  0  0  0  0  0  0  0  0  0  0  0
    1.7922    1.5394    0.3356 H   0  0  0  0  0  0  0  0  0  0  0  0
   -0.2197    1.7284   -0.8903 H   0  0  0  0  0  0  0  0  0  0  0  0
   -1.4909    1.7744    0.4268 H   0  0  0  0  0  0  0  0  0  0  0  0
   -2.7024   -0.1659   -0.6258 H   0  0  0  0  0  0  0  0  0  0  0  0
   -1.4399   -0.1300   -1.9678 H   0  0  0  0  0  0  0  0  0  0  0  0
  1  2  1  0
  2  3  1  0
  3  4  1  0
  4  5  1  0
  5  6  1  0
  6  7  2  0
  2  8  1  0
  8  9  1  0
  9  2  1  0
  5  3  1  0
  1 10  1  0
  1 11  1  0
  1 12  1  0
  3 13  1  0
  5 14  1  0
  6 15  1  0
  8 16  1  0
  8 17  1  0
  9 18  1  0
  9 19  1  0
M  END
