
     RDKit          3D

 23 24  0  0  0  0  0  0  0  0999 V2000
    0.0642   -1.8283   -0.8577 C   0  0  0  0  0  0  0  0  0  0  0  0
    0.4713   -0.5821   -0.1146 C   0  0  0  0  0  0  0  0  0  0  0  0
    1.9415   -0.4049    0.0693 C   0  0  0  0  0  0  0  0  0  0  0  0
    2.2584    0.7522    0.7560 O   0  0  0  0  0  0  0  0  0  0  0  0
   -0.3673   -0.0835    1.0307 C   0  0  0  0  0  0  0  0  0  0  0  0
   -1.8326   -0.3768    0.9570 C   0  0  0  0  0  0  0  0  0  0  0  0
   -1.8857    0.4175   -0.3333 C   0  0  0  0  0  0  0  0  0  0  0  0
   -0.4029    0.5972   -0.3056 C   0  0  0  0  0  0  0  0  0  0  0  0
    0.1970    1.9495   -0.4965 C   0  0  0  0  0  0  0  0  0  0  0  0
   -0.4827   -1.5572   -1.7957 H   0  0  0  0  0  0  0  0  0  0  0  0
    0.9430   -2.4297   -1.1927 H   0  0  0  0  0  0  0  0  0  0  0  0
   -0.6251   -2.4537   -0.2603 H   0  0  0  0  0  0  0  0  0  0  0  0
    2.4511   -0.4738   -0.9236 H   0  0  0  0  0  0  0  0  0  0  0  0
    2.3004   -1.2689    0.6955 H   0  0  0  0  0  0  0  0  0  0  0  0
    3.0317    0.6581    1.3622 H   0  0  0  0  0  0  0  0  0  0  0  0
    0.0848    0.4022    1.8955 H   0  0  0  0  0  0  0  0  0  0  0  0
   -2.0441   -1.4672    0.8257 H   0  0  0  0  0  0  0  0  0  0  0  0
   -2.4313    0.0091    1.7791 H   0  0  0  0  0  0  0  0  0  0  0  0
   -2.3073   -0.1144   -1.1919 H   0  0  0  0  0  0  0  0  0  0  0  0
   -2.4386    1.3736   -0.1348 H   0  0  0  0  0  0  0  0  0  0  0  0
   -0.4573    2.5454   -1.1840 H   0  0  0  0  0  0  0  0  0  0  0  0
    0.3509    2.5178    0.4431 H   0  0  0  0  0  0  0  0  0  0  0  0
    1.1806    1.8180   -1.0235 H   0  0  0  0  0  0  0  0  0  0  0  0
  1  2  1  0
  2  3  1  0
  3  4  1  0
  2  5  1  0
  5  6  1  0
  6  7  1  0
  7  8  1  0
  8  9  1  0
  8  2  1  0
  8  5  1  0
  1 10  1  0
  1 11  1  0
  1 12  1  0
  3 13  1  0
  3 14  1  0
  4 15  1  0
  5 16  1  0
  6 17  1  0
  6 18  1  0
  7 19  1  0
  7 20  1  0
  9 21  1  0
  9 22  1  0
  9 23  1  0
M  END
