
     RDKit          3D

 23 24  0  0  0  0  0  0  0  0999 V2000
    1.6884   -0.3924    1.4009 C   0  0  0  0  0  0  0  0  0  0  0  0
    0.8288   -0.1486    0.1746 C   0  0  0  0  0  0  0  0  0  0  0  0
    1.6098    0.1810   -1.0617 C   0  0  0  0  0  0  0  0  0  0  0  0
   -0.4178    0.5904    0.4007 C   0  0  0  0  0  0  0  0  0  0  0  0
   -0.8477    1.6593   -0.5499 C   0  0  0  0  0  0  0  0  0  0  0  0
   -1.4247    0.1885    1.4409 C   0  0  0  0  0  0  0  0  0  0  0  0
   -1.0592   -1.1570    1.3211 O   0  0  0  0  0  0  0  0  0  0  0  0
   -0.4652   -0.8327    0.1106 C   0  0  0  0  0  0  0  0  0  0  0  0
   -1.0265   -1.4268   -1.1360 C   0  0  0  0  0  0  0  0  0  0  0  0
    2.2583   -1.3209    1.2349 H   0  0  0  0  0  0  0  0  0  0  0  0
    1.0268   -0.4370    2.2900 H   0  0  0  0  0  0  0  0  0  0  0  0
    2.4362    0.4374    1.4672 H   0  0  0  0  0  0  0  0  0  0  0  0
    2.2288    1.0826   -0.8382 H   0  0  0  0  0  0  0  0  0  0  0  0
    2.3543   -0.6426   -1.2368 H   0  0  0  0  0  0  0  0  0  0  0  0
    1.0051    0.2779   -1.9691 H   0  0  0  0  0  0  0  0  0  0  0  0
    0.0070    2.1420   -1.0916 H   0  0  0  0  0  0  0  0  0  0  0  0
   -1.2894    2.4890    0.0666 H   0  0  0  0  0  0  0  0  0  0  0  0
   -1.6472    1.3222   -1.2277 H   0  0  0  0  0  0  0  0  0  0  0  0
   -2.4553    0.3240    1.0231 H   0  0  0  0  0  0  0  0  0  0  0  0
   -1.2681    0.5659    2.4581 H   0  0  0  0  0  0  0  0  0  0  0  0
   -2.1248   -1.6044   -0.9999 H   0  0  0  0  0  0  0  0  0  0  0  0
   -0.8288   -0.8338   -2.0475 H   0  0  0  0  0  0  0  0  0  0  0  0
   -0.5889   -2.4641   -1.2304 H   0  0  0  0  0  0  0  0  0  0  0  0
  1  2  1  0
  2  3  1  0
  2  4  1  0
  4  5  1  0
  4  6  1  0
  6  7  1  0
  7  8  1  0
  8  9  1  0
  8  2  1  0
  8  4  1  0
  1 10  1  0
  1 11  1  0
  1 12  1  0
  3 13  1  0
  3 14  1  0
  3 15  1  0
  5 16  1  0
  5 17  1  0
  5 18  1  0
  6 19  1  0
  6 20  1  0
  9 21  1  0
  9 22  1  0
  9 23  1  0
M  END
