
     RDKit          3D

 21 21  0  0  0  0  0  0  0  0999 V2000
   -1.9070   -0.0806   -0.6029 C   0  0  0  0  0  0  0  0  0  0  0  0
   -0.9590    0.1131    0.5594 C   0  0  0  0  0  0  0  0  0  0  0  0
   -1.7192   -0.0046    1.7454 O   0  0  0  0  0  0  0  0  0  0  0  0
   -0.3395    1.4480    0.5848 C   0  0  0  0  0  0  0  0  0  0  0  0
    0.8499    1.6508    0.0655 C   0  0  0  0  0  0  0  0  0  0  0  0
    1.6474    0.5963   -0.5693 C   0  0  0  0  0  0  0  0  0  0  0  0
    1.1863   -0.7914   -0.3763 C   0  0  0  0  0  0  0  0  0  0  0  0
    0.8045   -1.3823   -1.5665 O   0  0  0  0  0  0  0  0  0  0  0  0
    0.0839   -0.9766    0.6158 C   0  0  0  0  0  0  0  0  0  0  0  0
   -1.4668   -0.7672   -1.3770 H   0  0  0  0  0  0  0  0  0  0  0  0
   -2.8783   -0.5141   -0.2779 H   0  0  0  0  0  0  0  0  0  0  0  0
   -2.0749    0.9145   -1.0640 H   0  0  0  0  0  0  0  0  0  0  0  0
   -1.0401   -0.0637    2.4735 H   0  0  0  0  0  0  0  0  0  0  0  0
   -0.8749    2.2989    1.0454 H   0  0  0  0  0  0  0  0  0  0  0  0
    1.2775    2.6475    0.1010 H   0  0  0  0  0  0  0  0  0  0  0  0
    1.6462    0.8187   -1.6773 H   0  0  0  0  0  0  0  0  0  0  0  0
    2.7174    0.7624   -0.2557 H   0  0  0  0  0  0  0  0  0  0  0  0
    2.0647   -1.3916    0.0062 H   0  0  0  0  0  0  0  0  0  0  0  0
    0.8942   -2.3640   -1.4835 H   0  0  0  0  0  0  0  0  0  0  0  0
   -0.4149   -1.9417    0.4039 H   0  0  0  0  0  0  0  0  0  0  0  0
    0.5028   -0.9725    1.6496 H   0  0  0  0  0  0  0  0  0  0  0  0
  1  2  1  0
  2  3  1  0
  2  4  1  0
  4  5  2  0
  5  6  1  0
  6  7  1  0
  7  8  1  0
  7  9  1  0
  9  2  1  0
  1 10  1  0
  1 11  1  0
  1 12  1  0
  3 13  1  0
  4 14  1  0
  5 15  1  0
  6 16  1  0
  6 17  1  0
  7 18  1  0
  8 19  1  0
  9 20  1  0
  9 21  1  0
M  END
