
     RDKit          3D

 21 22  0  0  0  0  0  0  0  0999 V2000
    1.8673    0.1713   -0.6206 C   0  0  0  0  0  0  0  0  0  0  0  0
    0.8001   -0.3817    0.2191 C   0  0  0  0  0  0  0  0  0  0  0  0
    1.1882   -1.2738    1.1896 O   0  0  0  0  0  0  0  0  0  0  0  0
   -0.3635   -0.9948   -0.5705 C   0  0  0  0  0  0  0  0  0  0  0  0
   -1.3179   -1.1636    0.5618 C   0  0  0  0  0  0  0  0  0  0  0  0
   -1.0995   -0.2430    1.4965 C   0  0  0  0  0  0  0  0  0  0  0  0
   -0.0803    0.6879    0.8820 C   0  0  0  0  0  0  0  0  0  0  0  0
   -0.7356    1.3132   -0.2943 C   0  0  0  0  0  0  0  0  0  0  0  0
   -0.8324    0.1975   -1.3472 C   0  0  0  0  0  0  0  0  0  0  0  0
    1.7029   -0.0210   -1.7052 H   0  0  0  0  0  0  0  0  0  0  0  0
    2.0730    1.2627   -0.4230 H   0  0  0  0  0  0  0  0  0  0  0  0
    2.8293   -0.3706   -0.3777 H   0  0  0  0  0  0  0  0  0  0  0  0
    1.3976   -0.8527    2.0566 H   0  0  0  0  0  0  0  0  0  0  0  0
   -0.1174   -1.8738   -1.1151 H   0  0  0  0  0  0  0  0  0  0  0  0
   -2.0743   -1.9289    0.6043 H   0  0  0  0  0  0  0  0  0  0  0  0
   -1.5458   -0.1797    2.4622 H   0  0  0  0  0  0  0  0  0  0  0  0
    0.4271    1.3104    1.5756 H   0  0  0  0  0  0  0  0  0  0  0  0
   -0.2337    2.2029   -0.6934 H   0  0  0  0  0  0  0  0  0  0  0  0
   -1.7827    1.5980   -0.0130 H   0  0  0  0  0  0  0  0  0  0  0  0
   -1.8874    0.0703   -1.6900 H   0  0  0  0  0  0  0  0  0  0  0  0
   -0.2151    0.4694   -2.1977 H   0  0  0  0  0  0  0  0  0  0  0  0
  1  2  1  0
  2  3  1  0
  2  4  1  0
  4  5  1  0
  5  6  2  0
  6  7  1  0
  7  8  1  0
  8  9  1  0
  7  2  1  0
  9  4  1  0
  1 10  1  0
  1 11  1  0
  1 12  1  0
  3 13  1  0
  4 14  1  0
  5 15  1  0
  6 16  1  0
  7 17  1  0
  8 18  1  0
  8 19  1  0
  9 20  1  0
  9 21  1  0
M  END
