
     RDKit          3D

 21 22  0  0  0  0  0  0  0  0999 V2000
   -2.2225    0.2587    0.3376 C   0  0  0  0  0  0  0  0  0  0  0  0
   -0.8767    0.1355   -0.2905 C   0  0  0  0  0  0  0  0  0  0  0  0
   -0.9055   -0.1127   -1.6518 O   0  0  0  0  0  0  0  0  0  0  0  0
    0.0269    1.3347    0.0272 C   0  0  0  0  0  0  0  0  0  0  0  0
    1.1055    0.7089    0.8748 C   0  0  0  0  0  0  0  0  0  0  0  0
    2.0773   -0.1128    0.0431 C   0  0  0  0  0  0  0  0  0  0  0  0
    1.1411   -1.1855   -0.5151 C   0  0  0  0  0  0  0  0  0  0  0  0
   -0.0736   -0.9860    0.3484 C   0  0  0  0  0  0  0  0  0  0  0  0
    0.3894   -0.3314    1.5131 O   0  0  0  0  0  0  0  0  0  0  0  0
   -2.8595    0.8696   -0.3586 H   0  0  0  0  0  0  0  0  0  0  0  0
   -2.6578   -0.7805    0.3910 H   0  0  0  0  0  0  0  0  0  0  0  0
   -2.1198    0.7132    1.3311 H   0  0  0  0  0  0  0  0  0  0  0  0
   -1.7189   -0.6524   -1.8419 H   0  0  0  0  0  0  0  0  0  0  0  0
    0.4524    1.7665   -0.9091 H   0  0  0  0  0  0  0  0  0  0  0  0
   -0.5088    2.0814    0.6110 H   0  0  0  0  0  0  0  0  0  0  0  0
    1.5848    1.3825    1.5725 H   0  0  0  0  0  0  0  0  0  0  0  0
    2.5697    0.4665   -0.7337 H   0  0  0  0  0  0  0  0  0  0  0  0
    2.7426   -0.6273    0.7488 H   0  0  0  0  0  0  0  0  0  0  0  0
    0.9301   -0.8687   -1.5790 H   0  0  0  0  0  0  0  0  0  0  0  0
    1.5691   -2.1841   -0.4758 H   0  0  0  0  0  0  0  0  0  0  0  0
   -0.6457   -1.8762    0.5569 H   0  0  0  0  0  0  0  0  0  0  0  0
  1  2  1  0
  2  3  1  0
  2  4  1  0
  4  5  1  0
  5  6  1  0
  6  7  1  0
  7  8  1  0
  8  9  1  0
  8  2  1  0
  9  5  1  0
  1 10  1  0
  1 11  1  0
  1 12  1  0
  3 13  1  0
  4 14  1  0
  4 15  1  0
  5 16  1  0
  6 17  1  0
  6 18  1  0
  7 19  1  0
  7 20  1  0
  8 21  1  0
M  END
