
     RDKit          3D

 21 22  0  0  0  0  0  0  0  0999 V2000
    1.8716    0.6115   -0.6180 C   0  0  0  0  0  0  0  0  0  0  0  0
    0.8547   -0.0141    0.2496 C   0  0  0  0  0  0  0  0  0  0  0  0
    1.3959   -0.2094    1.5218 O   0  0  0  0  0  0  0  0  0  0  0  0
    0.3529   -1.3556   -0.2298 C   0  0  0  0  0  0  0  0  0  0  0  0
   -1.1463   -1.1999   -0.1758 C   0  0  0  0  0  0  0  0  0  0  0  0
   -1.3221   -0.2090    0.9901 C   0  0  0  0  0  0  0  0  0  0  0  0
   -0.3758    0.8299    0.3555 C   0  0  0  0  0  0  0  0  0  0  0  0
   -1.0820    0.8905   -0.9938 C   0  0  0  0  0  0  0  0  0  0  0  0
   -1.5047   -0.3999   -1.2574 O   0  0  0  0  0  0  0  0  0  0  0  0
    2.8984    0.3631   -0.2365 H   0  0  0  0  0  0  0  0  0  0  0  0
    1.7991    1.7310   -0.4813 H   0  0  0  0  0  0  0  0  0  0  0  0
    1.8248    0.3801   -1.6800 H   0  0  0  0  0  0  0  0  0  0  0  0
    0.9294    0.2973    2.2050 H   0  0  0  0  0  0  0  0  0  0  0  0
    0.6244   -2.1812    0.4652 H   0  0  0  0  0  0  0  0  0  0  0  0
    0.6622   -1.6039   -1.2517 H   0  0  0  0  0  0  0  0  0  0  0  0
   -1.7092   -2.0990   -0.0601 H   0  0  0  0  0  0  0  0  0  0  0  0
   -0.9318   -0.5970    1.9218 H   0  0  0  0  0  0  0  0  0  0  0  0
   -2.3413    0.1655    0.9937 H   0  0  0  0  0  0  0  0  0  0  0  0
   -0.3123    1.7465    0.8875 H   0  0  0  0  0  0  0  0  0  0  0  0
   -2.0052    1.5050   -0.8334 H   0  0  0  0  0  0  0  0  0  0  0  0
   -0.4827    1.3488   -1.7725 H   0  0  0  0  0  0  0  0  0  0  0  0
  1  2  1  0
  2  3  1  0
  2  4  1  0
  4  5  1  0
  5  6  1  0
  6  7  1  0
  7  8  1  0
  8  9  1  0
  7  2  1  0
  9  5  1  0
  1 10  1  0
  1 11  1  0
  1 12  1  0
  3 13  1  0
  4 14  1  0
  4 15  1  0
  5 16  1  0
  6 17  1  0
  6 18  1  0
  7 19  1  0
  8 20  1  0
  8 21  1  0
M  END
