
     RDKit          3D

 21 22  0  0  0  0  0  0  0  0999 V2000
   -0.0140   -0.8237    1.4233 C   0  0  0  0  0  0  0  0  0  0  0  0
    0.0254   -0.1474    0.0779 C   0  0  0  0  0  0  0  0  0  0  0  0
    1.3548   -0.2589   -0.5614 C   0  0  0  0  0  0  0  0  0  0  0  0
    2.5787    0.2320   -0.0461 C   0  0  0  0  0  0  0  0  0  0  0  0
    1.7985    1.0877   -1.0112 O   0  0  0  0  0  0  0  0  0  0  0  0
   -1.0038   -0.7296   -0.8633 C   0  0  0  0  0  0  0  0  0  0  0  0
   -2.2042    0.1019   -0.5714 C   0  0  0  0  0  0  0  0  0  0  0  0
   -1.6460    1.3912   -0.4760 O   0  0  0  0  0  0  0  0  0  0  0  0
   -0.4853    1.2544    0.2666 C   0  0  0  0  0  0  0  0  0  0  0  0
    0.9991   -0.8425    1.8873 H   0  0  0  0  0  0  0  0  0  0  0  0
   -0.6761   -0.2924    2.1402 H   0  0  0  0  0  0  0  0  0  0  0  0
   -0.4461   -1.8320    1.2851 H   0  0  0  0  0  0  0  0  0  0  0  0
    1.3938   -0.9116   -1.4645 H   0  0  0  0  0  0  0  0  0  0  0  0
    3.5222   -0.0105   -0.5757 H   0  0  0  0  0  0  0  0  0  0  0  0
    2.6704    0.8275    0.8754 H   0  0  0  0  0  0  0  0  0  0  0  0
   -0.7269   -0.6035   -1.9275 H   0  0  0  0  0  0  0  0  0  0  0  0
   -1.1393   -1.8095   -0.6640 H   0  0  0  0  0  0  0  0  0  0  0  0
   -2.6804   -0.2050    0.3575 H   0  0  0  0  0  0  0  0  0  0  0  0
   -2.8608    0.0880   -1.4604 H   0  0  0  0  0  0  0  0  0  0  0  0
   -0.7478    1.4765    1.3226 H   0  0  0  0  0  0  0  0  0  0  0  0
    0.2877    2.0073   -0.0144 H   0  0  0  0  0  0  0  0  0  0  0  0
  1  2  1  0
  2  3  1  0
  3  4  1  0
  4  5  1  0
  2  6  1  0
  6  7  1  0
  7  8  1  0
  8  9  1  0
  9  2  1  0
  5  3  1  0
  1 10  1  0
  1 11  1  0
  1 12  1  0
  3 13  1  0
  4 14  1  0
  4 15  1  0
  6 16  1  0
  6 17  1  0
  7 18  1  0
  7 19  1  0
  9 20  1  0
  9 21  1  0
M  END
