
     RDKit          3D

 18 19  0  0  0  0  0  0  0  0999 V2000
   -0.9965    1.2876   -0.3339 C   0  0  0  0  0  0  0  0  0  0  0  0
   -0.7591   -0.0120    0.3536 C   0  0  0  0  0  0  0  0  0  0  0  0
   -1.6599   -0.1652    1.4192 O   0  0  0  0  0  0  0  0  0  0  0  0
   -0.6587   -1.2330   -0.5244 C   0  0  0  0  0  0  0  0  0  0  0  0
    0.7011   -1.5567    0.0334 C   0  0  0  0  0  0  0  0  0  0  0  0
    0.9791   -1.3671    1.3690 O   0  0  0  0  0  0  0  0  0  0  0  0
    0.6700   -0.1988    0.7319 C   0  0  0  0  0  0  0  0  0  0  0  0
    1.7423    0.7324    0.2892 C   0  0  0  0  0  0  0  0  0  0  0  0
   -2.0865    1.5516   -0.3949 H   0  0  0  0  0  0  0  0  0  0  0  0
   -0.5105    1.3262   -1.3173 H   0  0  0  0  0  0  0  0  0  0  0  0
   -0.5530    2.1000    0.3023 H   0  0  0  0  0  0  0  0  0  0  0  0
   -2.5455   -0.4919    1.1166 H   0  0  0  0  0  0  0  0  0  0  0  0
   -1.3731   -2.0522   -0.2663 H   0  0  0  0  0  0  0  0  0  0  0  0
   -0.6791   -1.0545   -1.5995 H   0  0  0  0  0  0  0  0  0  0  0  0
    1.5142   -1.7592   -0.6931 H   0  0  0  0  0  0  0  0  0  0  0  0
    2.5550    0.6989    1.0687 H   0  0  0  0  0  0  0  0  0  0  0  0
    1.4576    1.7755    0.1834 H   0  0  0  0  0  0  0  0  0  0  0  0
    2.2028    0.4183   -0.6937 H   0  0  0  0  0  0  0  0  0  0  0  0
  1  2  1  0
  2  3  1  0
  2  4  1  0
  4  5  1  0
  5  6  1  0
  6  7  1  0
  7  8  1  0
  7  2  1  0
  7  5  1  0
  1  9  1  0
  1 10  1  0
  1 11  1  0
  3 12  1  0
  4 13  1  0
  4 14  1  0
  5 15  1  0
  8 16  1  0
  8 17  1  0
  8 18  1  0
M  END
