
     RDKit          3D

 21 22  0  0  0  0  0  0  0  0999 V2000
   -1.9773   -0.5489    0.8707 C   0  0  0  0  0  0  0  0  0  0  0  0
   -0.9862    0.2126    0.0484 C   0  0  0  0  0  0  0  0  0  0  0  0
   -1.3305    1.6690   -0.1074 C   0  0  0  0  0  0  0  0  0  0  0  0
   -2.1206    2.2290    0.6004 O   0  0  0  0  0  0  0  0  0  0  0  0
   -0.6511   -0.4822   -1.3020 C   0  0  0  0  0  0  0  0  0  0  0  0
    0.3431   -0.2084   -0.2866 C   0  0  0  0  0  0  0  0  0  0  0  0
    1.4408    0.8024   -0.4152 C   0  0  0  0  0  0  0  0  0  0  0  0
    2.3170   -0.1572    0.3912 C   0  0  0  0  0  0  0  0  0  0  0  0
    1.1889   -1.1963    0.3973 C   0  0  0  0  0  0  0  0  0  0  0  0
   -1.9968   -0.0945    1.8908 H   0  0  0  0  0  0  0  0  0  0  0  0
   -2.9979   -0.3249    0.4416 H   0  0  0  0  0  0  0  0  0  0  0  0
   -1.8493   -1.6258    0.8840 H   0  0  0  0  0  0  0  0  0  0  0  0
   -0.8565    2.2395   -0.8813 H   0  0  0  0  0  0  0  0  0  0  0  0
   -0.6404    0.1517   -2.2126 H   0  0  0  0  0  0  0  0  0  0  0  0
   -1.0242   -1.5274   -1.4348 H   0  0  0  0  0  0  0  0  0  0  0  0
    1.2177    1.7590    0.1003 H   0  0  0  0  0  0  0  0  0  0  0  0
    1.7942    0.9800   -1.4367 H   0  0  0  0  0  0  0  0  0  0  0  0
    3.2301   -0.4727   -0.1191 H   0  0  0  0  0  0  0  0  0  0  0  0
    2.4908    0.2001    1.4082 H   0  0  0  0  0  0  0  0  0  0  0  0
    0.9158   -1.5380    1.4014 H   0  0  0  0  0  0  0  0  0  0  0  0
    1.4924   -2.0669   -0.2386 H   0  0  0  0  0  0  0  0  0  0  0  0
  1  2  1  0
  2  3  1  0
  3  4  2  0
  2  5  1  0
  5  6  1  0
  6  7  1  0
  7  8  1  0
  8  9  1  0
  6  2  1  0
  9  6  1  0
  1 10  1  0
  1 11  1  0
  1 12  1  0
  3 13  1  0
  5 14  1  0
  5 15  1  0
  7 16  1  0
  7 17  1  0
  8 18  1  0
  8 19  1  0
  9 20  1  0
  9 21  1  0
M  END
