
     RDKit          3D

 23 24  0  0  0  0  0  0  0  0999 V2000
   -0.8361   -1.2860    0.8809 C   0  0  0  0  0  0  0  0  0  0  0  0
   -0.8680    0.0008    0.1405 C   0  0  0  0  0  0  0  0  0  0  0  0
   -1.2991    1.1882    0.9536 C   0  0  0  0  0  0  0  0  0  0  0  0
   -1.8505   -0.1707   -1.0361 C   0  0  0  0  0  0  0  0  0  0  0  0
   -0.7381   -0.7061   -1.7331 O   0  0  0  0  0  0  0  0  0  0  0  0
    0.0188    0.2180   -1.0026 C   0  0  0  0  0  0  0  0  0  0  0  0
    1.4669   -0.0254   -0.9209 C   0  0  0  0  0  0  0  0  0  0  0  0
    2.2437    0.7724    0.0926 C   0  0  0  0  0  0  0  0  0  0  0  0
    2.1646   -0.7559    0.1223 C   0  0  0  0  0  0  0  0  0  0  0  0
   -0.3382   -2.0790    0.3062 H   0  0  0  0  0  0  0  0  0  0  0  0
   -1.9122   -1.6273    0.9756 H   0  0  0  0  0  0  0  0  0  0  0  0
   -0.4869   -1.2061    1.9350 H   0  0  0  0  0  0  0  0  0  0  0  0
   -2.2800    0.9432    1.4107 H   0  0  0  0  0  0  0  0  0  0  0  0
   -0.6087    1.4776    1.7433 H   0  0  0  0  0  0  0  0  0  0  0  0
   -1.4730    2.0291    0.2389 H   0  0  0  0  0  0  0  0  0  0  0  0
   -2.6268   -0.9246   -0.8636 H   0  0  0  0  0  0  0  0  0  0  0  0
   -2.1717    0.7799   -1.4620 H   0  0  0  0  0  0  0  0  0  0  0  0
   -0.1800    1.2342   -1.4573 H   0  0  0  0  0  0  0  0  0  0  0  0
    1.9715   -0.0189   -1.9342 H   0  0  0  0  0  0  0  0  0  0  0  0
    1.7069    1.3428    0.8729 H   0  0  0  0  0  0  0  0  0  0  0  0
    3.2192    1.2181   -0.1736 H   0  0  0  0  0  0  0  0  0  0  0  0
    1.7388   -1.1375    1.0462 H   0  0  0  0  0  0  0  0  0  0  0  0
    3.1391   -1.2668   -0.1353 H   0  0  0  0  0  0  0  0  0  0  0  0
  1  2  1  0
  2  3  1  0
  2  4  1  0
  4  5  1  0
  5  6  1  0
  6  7  1  0
  7  8  1  0
  8  9  1  0
  6  2  1  0
  9  7  1  0
  1 10  1  0
  1 11  1  0
  1 12  1  0
  3 13  1  0
  3 14  1  0
  3 15  1  0
  4 16  1  0
  4 17  1  0
  6 18  1  0
  7 19  1  0
  8 20  1  0
  8 21  1  0
  9 22  1  0
  9 23  1  0
M  END
