
     RDKit          3D

 17 17  0  0  0  0  0  0  0  0999 V2000
   -1.5792   -0.6115    0.4442 C   0  0  0  0  0  0  0  0  0  0  0  0
   -0.2722   -0.0603   -0.0450 C   0  0  0  0  0  0  0  0  0  0  0  0
   -0.4174    1.1253   -0.9350 C   0  0  0  0  0  0  0  0  0  0  0  0
    0.6037   -1.0939   -0.7011 C   0  0  0  0  0  0  0  0  0  0  0  0
    1.8745   -0.4578   -0.6266 O   0  0  0  0  0  0  0  0  0  0  0  0
    1.9677    0.2990    0.5348 C   0  0  0  0  0  0  0  0  0  0  0  0
    2.9789    0.8549    1.0496 O   0  0  0  0  0  0  0  0  0  0  0  0
    0.6013    0.3430    1.0942 C   0  0  0  0  0  0  0  0  0  0  0  0
    0.2390    0.6437    2.2454 O   0  0  0  0  0  0  0  0  0  0  0  0
   -2.2793   -0.7327   -0.3879 H   0  0  0  0  0  0  0  0  0  0  0  0
   -1.4180   -1.4838    1.0694 H   0  0  0  0  0  0  0  0  0  0  0  0
   -2.0253    0.1804    1.1131 H   0  0  0  0  0  0  0  0  0  0  0  0
    0.6034    1.5257   -1.1349 H   0  0  0  0  0  0  0  0  0  0  0  0
   -0.9436    1.9247   -0.3366 H   0  0  0  0  0  0  0  0  0  0  0  0
   -0.9567    0.8943   -1.8680 H   0  0  0  0  0  0  0  0  0  0  0  0
    0.6898   -2.0246   -0.1154 H   0  0  0  0  0  0  0  0  0  0  0  0
    0.3333   -1.3263   -1.7330 H   0  0  0  0  0  0  0  0  0  0  0  0
  1  2  1  0
  2  3  1  0
  2  4  1  0
  4  5  1  0
  5  6  1  0
  6  7  2  0
  6  8  1  0
  8  9  2  0
  8  2  1  0
  1 10  1  0
  1 11  1  0
  1 12  1  0
  3 13  1  0
  3 14  1  0
  3 15  1  0
  4 16  1  0
  4 17  1  0
M  END
