
     RDKit          3D

 21 22  0  0  0  0  0  0  0  0999 V2000
    2.2622    0.0006   -0.4627 C   0  0  0  0  0  0  0  0  0  0  0  0
    0.9386    0.0274    0.2144 C   0  0  0  0  0  0  0  0  0  0  0  0
    0.9196    0.2136    1.5781 O   0  0  0  0  0  0  0  0  0  0  0  0
   -0.0943    0.7921   -0.5774 C   0  0  0  0  0  0  0  0  0  0  0  0
   -1.3736    0.9442    0.1958 C   0  0  0  0  0  0  0  0  0  0  0  0
   -1.8018   -0.3628    0.7722 C   0  0  0  0  0  0  0  0  0  0  0  0
   -0.8680   -1.3514    0.7522 O   0  0  0  0  0  0  0  0  0  0  0  0
    0.1361   -1.2268   -0.1575 C   0  0  0  0  0  0  0  0  0  0  0  0
   -0.2725   -0.4802   -1.4207 C   0  0  0  0  0  0  0  0  0  0  0  0
    2.6176   -1.0446   -0.6744 H   0  0  0  0  0  0  0  0  0  0  0  0
    2.1932    0.4778   -1.4759 H   0  0  0  0  0  0  0  0  0  0  0  0
    3.0030    0.5535    0.1275 H   0  0  0  0  0  0  0  0  0  0  0  0
    0.4614    1.0297    1.8780 H   0  0  0  0  0  0  0  0  0  0  0  0
    0.2496    1.6369   -1.1615 H   0  0  0  0  0  0  0  0  0  0  0  0
   -1.3289    1.7560    0.9604 H   0  0  0  0  0  0  0  0  0  0  0  0
   -2.1473    1.3007   -0.5463 H   0  0  0  0  0  0  0  0  0  0  0  0
   -2.0881   -0.1851    1.8459 H   0  0  0  0  0  0  0  0  0  0  0  0
   -2.7263   -0.7581    0.2624 H   0  0  0  0  0  0  0  0  0  0  0  0
    0.7253   -2.1270   -0.3055 H   0  0  0  0  0  0  0  0  0  0  0  0
    0.4995   -0.5614   -2.2021 H   0  0  0  0  0  0  0  0  0  0  0  0
   -1.3054   -0.6351   -1.7478 H   0  0  0  0  0  0  0  0  0  0  0  0
  1  2  1  0
  2  3  1  0
  2  4  1  0
  4  5  1  0
  5  6  1  0
  6  7  1  0
  7  8  1  0
  8  9  1  0
  8  2  1  0
  9  4  1  0
  1 10  1  0
  1 11  1  0
  1 12  1  0
  3 13  1  0
  4 14  1  0
  5 15  1  0
  5 16  1  0
  6 17  1  0
  6 18  1  0
  8 19  1  0
  9 20  1  0
  9 21  1  0
M  END
