
     RDKit          3D

 16 16  0  0  0  0  0  0  0  0999 V2000
   -1.3631   -1.1281   -0.4425 C   0  0  0  0  0  0  0  0  0  0  0  0
   -0.7268    0.2015   -0.1121 C   0  0  0  0  0  0  0  0  0  0  0  0
    0.4901    0.1003    0.7879 C   0  0  0  0  0  0  0  0  0  0  0  0
    1.6091   -0.2304   -0.0064 O   0  0  0  0  0  0  0  0  0  0  0  0
    2.8750   -0.3922    0.5443 C   0  0  0  0  0  0  0  0  0  0  0  0
    2.9739   -0.2295    1.7840 O   0  0  0  0  0  0  0  0  0  0  0  0
   -1.5629    1.3989    0.0538 C   0  0  0  0  0  0  0  0  0  0  0  0
   -0.7165    1.1254   -1.1277 O   0  0  0  0  0  0  0  0  0  0  0  0
   -2.1738   -1.0066   -1.1911 H   0  0  0  0  0  0  0  0  0  0  0  0
   -0.5817   -1.8226   -0.8103 H   0  0  0  0  0  0  0  0  0  0  0  0
   -1.7736   -1.5287    0.5299 H   0  0  0  0  0  0  0  0  0  0  0  0
    0.6624    1.0859    1.2946 H   0  0  0  0  0  0  0  0  0  0  0  0
    0.3339   -0.6272    1.6043 H   0  0  0  0  0  0  0  0  0  0  0  0
    3.7408   -0.6501   -0.0839 H   0  0  0  0  0  0  0  0  0  0  0  0
   -1.1826    2.2313    0.6776 H   0  0  0  0  0  0  0  0  0  0  0  0
   -2.6043    1.4721   -0.3021 H   0  0  0  0  0  0  0  0  0  0  0  0
  1  2  1  0
  2  3  1  0
  3  4  1  0
  4  5  1  0
  5  6  2  0
  2  7  1  0
  7  8  1  0
  8  2  1  0
  1  9  1  0
  1 10  1  0
  1 11  1  0
  3 12  1  0
  3 13  1  0
  5 14  1  0
  7 15  1  0
  7 16  1  0
M  END
