
     RDKit          3D

 23 23  0  0  0  0  0  0  0  0999 V2000
   -2.0933   -0.3421   -0.6757 C   0  0  0  0  0  0  0  0  0  0  0  0
   -0.7977   -0.2759    0.1443 C   0  0  0  0  0  0  0  0  0  0  0  0
   -0.9780   -1.0739    1.4309 C   0  0  0  0  0  0  0  0  0  0  0  0
   -0.6518    1.1373    0.5622 C   0  0  0  0  0  0  0  0  0  0  0  0
    0.4703    1.8221    0.5461 C   0  0  0  0  0  0  0  0  0  0  0  0
    1.6900    1.1407    0.0765 C   0  0  0  0  0  0  0  0  0  0  0  0
    1.4142    0.1281   -0.9974 C   0  0  0  0  0  0  0  0  0  0  0  0
    2.5930   -0.5950   -1.1881 O   0  0  0  0  0  0  0  0  0  0  0  0
    0.2990   -0.8088   -0.6802 C   0  0  0  0  0  0  0  0  0  0  0  0
   -2.7836    0.4630   -0.4171 H   0  0  0  0  0  0  0  0  0  0  0  0
   -1.7744   -0.1514   -1.7409 H   0  0  0  0  0  0  0  0  0  0  0  0
   -2.4899   -1.3549   -0.6085 H   0  0  0  0  0  0  0  0  0  0  0  0
   -0.4059   -0.5989    2.2668 H   0  0  0  0  0  0  0  0  0  0  0  0
   -2.0548   -1.1193    1.7089 H   0  0  0  0  0  0  0  0  0  0  0  0
   -0.5452   -2.0697    1.2885 H   0  0  0  0  0  0  0  0  0  0  0  0
   -1.5841    1.6228    0.9107 H   0  0  0  0  0  0  0  0  0  0  0  0
    0.4494    2.8559    0.8783 H   0  0  0  0  0  0  0  0  0  0  0  0
    2.1884    0.6151    0.9300 H   0  0  0  0  0  0  0  0  0  0  0  0
    2.3573    1.9283   -0.3529 H   0  0  0  0  0  0  0  0  0  0  0  0
    1.2194    0.6688   -1.9516 H   0  0  0  0  0  0  0  0  0  0  0  0
    2.7850   -1.0648   -0.3552 H   0  0  0  0  0  0  0  0  0  0  0  0
   -0.0655   -1.2386   -1.6378 H   0  0  0  0  0  0  0  0  0  0  0  0
    0.7583   -1.6885   -0.1377 H   0  0  0  0  0  0  0  0  0  0  0  0
  1  2  1  0
  2  3  1  0
  2  4  1  0
  4  5  2  0
  5  6  1  0
  6  7  1  0
  7  8  1  0
  7  9  1  0
  9  2  1  0
  1 10  1  0
  1 11  1  0
  1 12  1  0
  3 13  1  0
  3 14  1  0
  3 15  1  0
  4 16  1  0
  5 17  1  0
  6 18  1  0
  6 19  1  0
  7 20  1  0
  8 21  1  0
  9 22  1  0
  9 23  1  0
M  END
