
     RDKit          3D

 21 21  0  0  0  0  0  0  0  0999 V2000
   -1.5140    0.4941   -1.3625 C   0  0  0  0  0  0  0  0  0  0  0  0
   -1.3938   -0.2647   -0.1135 C   0  0  0  0  0  0  0  0  0  0  0  0
   -2.6249   -0.8856    0.2342 O   0  0  0  0  0  0  0  0  0  0  0  0
   -0.7217    0.5147    1.0314 C   0  0  0  0  0  0  0  0  0  0  0  0
   -1.4167    0.5626    2.2154 O   0  0  0  0  0  0  0  0  0  0  0  0
   -0.1976   -0.8110    0.4959 C   0  0  0  0  0  0  0  0  0  0  0  0
    1.1664   -0.8541   -0.0154 C   0  0  0  0  0  0  0  0  0  0  0  0
    1.8625    0.4245   -0.3324 C   0  0  0  0  0  0  0  0  0  0  0  0
    3.1532    0.0471   -0.7965 O   0  0  0  0  0  0  0  0  0  0  0  0
   -2.5549    0.8632   -1.4783 H   0  0  0  0  0  0  0  0  0  0  0  0
   -1.3536   -0.1907   -2.2459 H   0  0  0  0  0  0  0  0  0  0  0  0
   -0.8865    1.3892   -1.4674 H   0  0  0  0  0  0  0  0  0  0  0  0
   -2.4314   -1.7967    0.5662 H   0  0  0  0  0  0  0  0  0  0  0  0
   -0.1027    1.3886    0.7507 H   0  0  0  0  0  0  0  0  0  0  0  0
   -0.8795    0.7754    2.9889 H   0  0  0  0  0  0  0  0  0  0  0  0
   -0.3799   -1.6398    1.2510 H   0  0  0  0  0  0  0  0  0  0  0  0
    1.1746   -1.4664   -0.9650 H   0  0  0  0  0  0  0  0  0  0  0  0
    1.8322   -1.4127    0.6734 H   0  0  0  0  0  0  0  0  0  0  0  0
    2.0635    1.0537    0.5447 H   0  0  0  0  0  0  0  0  0  0  0  0
    1.4421    0.9849   -1.1924 H   0  0  0  0  0  0  0  0  0  0  0  0
    3.7628    0.8238   -0.7827 H   0  0  0  0  0  0  0  0  0  0  0  0
  1  2  1  0
  2  3  1  0
  2  4  1  0
  4  5  1  0
  4  6  1  0
  6  7  1  0
  7  8  1  0
  8  9  1  0
  6  2  1  0
  1 10  1  0
  1 11  1  0
  1 12  1  0
  3 13  1  0
  4 14  1  0
  5 15  1  0
  6 16  1  0
  7 17  1  0
  7 18  1  0
  8 19  1  0
  8 20  1  0
  9 21  1  0
M  END
