
     RDKit          3D

 21 22  0  0  0  0  0  0  0  0999 V2000
    1.7910    0.1414   -1.0836 C   0  0  0  0  0  0  0  0  0  0  0  0
    0.8634   -0.0301    0.1276 C   0  0  0  0  0  0  0  0  0  0  0  0
    1.8226   -0.3120    1.2953 C   0  0  0  0  0  0  0  0  0  0  0  0
    0.1920    1.1186    0.4317 O   0  0  0  0  0  0  0  0  0  0  0  0
   -1.1690    1.0375    0.4157 C   0  0  0  0  0  0  0  0  0  0  0  0
   -1.6172    0.3811   -0.8939 C   0  0  0  0  0  0  0  0  0  0  0  0
   -1.2464   -0.9197   -0.2158 C   0  0  0  0  0  0  0  0  0  0  0  0
   -1.7034   -0.2327    1.0802 C   0  0  0  0  0  0  0  0  0  0  0  0
    0.0941   -1.1324   -0.1082 O   0  0  0  0  0  0  0  0  0  0  0  0
    2.5321   -0.7071   -1.0783 H   0  0  0  0  0  0  0  0  0  0  0  0
    2.3369    1.0839   -1.0433 H   0  0  0  0  0  0  0  0  0  0  0  0
    1.2600    0.0795   -2.0287 H   0  0  0  0  0  0  0  0  0  0  0  0
    2.5049    0.5697    1.4289 H   0  0  0  0  0  0  0  0  0  0  0  0
    2.3650   -1.2498    1.1653 H   0  0  0  0  0  0  0  0  0  0  0  0
    1.1939   -0.3356    2.2089 H   0  0  0  0  0  0  0  0  0  0  0  0
   -1.6693    1.9576    0.6781 H   0  0  0  0  0  0  0  0  0  0  0  0
   -2.6969    0.4110   -1.0750 H   0  0  0  0  0  0  0  0  0  0  0  0
   -1.0554    0.6580   -1.7758 H   0  0  0  0  0  0  0  0  0  0  0  0
   -1.8103   -1.7973   -0.5010 H   0  0  0  0  0  0  0  0  0  0  0  0
   -1.1853   -0.5497    1.9778 H   0  0  0  0  0  0  0  0  0  0  0  0
   -2.8026   -0.1721    1.1219 H   0  0  0  0  0  0  0  0  0  0  0  0
  1  2  1  0
  2  3  1  0
  2  4  1  0
  4  5  1  0
  5  6  1  0
  6  7  1  0
  7  8  1  0
  7  9  1  0
  9  2  1  0
  8  5  1  0
  1 10  1  0
  1 11  1  0
  1 12  1  0
  3 13  1  0
  3 14  1  0
  3 15  1  0
  5 16  1  0
  6 17  1  0
  6 18  1  0
  7 19  1  0
  8 20  1  0
  8 21  1  0
M  END
