
     RDKit          3D

 23 24  0  0  0  0  0  0  0  0999 V2000
   -1.3300    1.5565   -0.0904 C   0  0  0  0  0  0  0  0  0  0  0  0
   -1.0973    0.0812    0.0910 C   0  0  0  0  0  0  0  0  0  0  0  0
    0.1479   -0.4927    0.6409 C   0  0  0  0  0  0  0  0  0  0  0  0
    1.4242   -0.2512   -0.0654 C   0  0  0  0  0  0  0  0  0  0  0  0
    2.6961   -0.8890    0.5403 C   0  0  0  0  0  0  0  0  0  0  0  0
    1.7653    1.0684   -0.7215 C   0  0  0  0  0  0  0  0  0  0  0  0
    1.3434   -0.0366   -1.4139 O   0  0  0  0  0  0  0  0  0  0  0  0
   -1.9207   -0.8213   -0.8516 C   0  0  0  0  0  0  0  0  0  0  0  0
   -2.3697   -0.6810    0.5750 C   0  0  0  0  0  0  0  0  0  0  0  0
   -2.4414    1.7880    0.0359 H   0  0  0  0  0  0  0  0  0  0  0  0
   -1.0850    1.8520   -1.1121 H   0  0  0  0  0  0  0  0  0  0  0  0
   -0.8619    2.1092    0.7235 H   0  0  0  0  0  0  0  0  0  0  0  0
   -0.0014   -1.6194    0.6511 H   0  0  0  0  0  0  0  0  0  0  0  0
    0.2282   -0.2651    1.7490 H   0  0  0  0  0  0  0  0  0  0  0  0
    2.5571   -1.9798    0.6675 H   0  0  0  0  0  0  0  0  0  0  0  0
    3.5226   -0.7130   -0.1483 H   0  0  0  0  0  0  0  0  0  0  0  0
    2.8910   -0.3467    1.4717 H   0  0  0  0  0  0  0  0  0  0  0  0
    2.8416    1.3333   -0.8835 H   0  0  0  0  0  0  0  0  0  0  0  0
    1.1526    1.9157   -0.4475 H   0  0  0  0  0  0  0  0  0  0  0  0
   -1.3899   -1.7424   -1.1635 H   0  0  0  0  0  0  0  0  0  0  0  0
   -2.5410   -0.2898   -1.6235 H   0  0  0  0  0  0  0  0  0  0  0  0
   -2.2495   -1.4966    1.2843 H   0  0  0  0  0  0  0  0  0  0  0  0
   -3.2824   -0.0796    0.7398 H   0  0  0  0  0  0  0  0  0  0  0  0
  1  2  1  0
  2  3  1  0
  3  4  1  0
  4  5  1  0
  4  6  1  0
  6  7  1  0
  2  8  1  0
  8  9  1  0
  9  2  1  0
  7  4  1  0
  1 10  1  0
  1 11  1  0
  1 12  1  0
  3 13  1  0
  3 14  1  0
  5 15  1  0
  5 16  1  0
  5 17  1  0
  6 18  1  0
  6 19  1  0
  8 20  1  0
  8 21  1  0
  9 22  1  0
  9 23  1  0
M  END
