
     RDKit          3D

 23 23  0  0  0  0  0  0  0  0999 V2000
   -0.6419    1.5518   -0.4402 C   0  0  0  0  0  0  0  0  0  0  0  0
   -0.3428    0.1585    0.0109 C   0  0  0  0  0  0  0  0  0  0  0  0
    0.8827   -0.0053    0.8584 C   0  0  0  0  0  0  0  0  0  0  0  0
    1.0404   -1.3446    1.2057 O   0  0  0  0  0  0  0  0  0  0  0  0
    2.1355    0.5335    0.2305 C   0  0  0  0  0  0  0  0  0  0  0  0
    2.5253   -0.1075   -0.9115 O   0  0  0  0  0  0  0  0  0  0  0  0
   -1.5451   -0.4330    0.7203 C   0  0  0  0  0  0  0  0  0  0  0  0
   -1.9625   -1.0999   -0.5820 C   0  0  0  0  0  0  0  0  0  0  0  0
   -0.5361   -0.8809   -1.0677 C   0  0  0  0  0  0  0  0  0  0  0  0
    0.2172    2.2191   -0.5071 H   0  0  0  0  0  0  0  0  0  0  0  0
   -1.2310    1.5020   -1.3986 H   0  0  0  0  0  0  0  0  0  0  0  0
   -1.3288    2.0063    0.3320 H   0  0  0  0  0  0  0  0  0  0  0  0
    0.7212    0.5557    1.8027 H   0  0  0  0  0  0  0  0  0  0  0  0
    0.9536   -1.5097    2.1726 H   0  0  0  0  0  0  0  0  0  0  0  0
    2.0872    1.6248    0.0444 H   0  0  0  0  0  0  0  0  0  0  0  0
    2.9482    0.4062    0.9973 H   0  0  0  0  0  0  0  0  0  0  0  0
    3.0694    0.5150   -1.4588 H   0  0  0  0  0  0  0  0  0  0  0  0
   -2.2842    0.3159    1.0680 H   0  0  0  0  0  0  0  0  0  0  0  0
   -1.3122   -1.1290    1.5374 H   0  0  0  0  0  0  0  0  0  0  0  0
   -2.2402   -2.1675   -0.4477 H   0  0  0  0  0  0  0  0  0  0  0  0
   -2.7211   -0.5182   -1.1470 H   0  0  0  0  0  0  0  0  0  0  0  0
   -0.4682   -0.3848   -2.0619 H   0  0  0  0  0  0  0  0  0  0  0  0
    0.0335   -1.8084   -0.9578 H   0  0  0  0  0  0  0  0  0  0  0  0
  1  2  1  0
  2  3  1  0
  3  4  1  0
  3  5  1  0
  5  6  1  0
  2  7  1  0
  7  8  1  0
  8  9  1  0
  9  2  1  0
  1 10  1  0
  1 11  1  0
  1 12  1  0
  3 13  1  0
  4 14  1  0
  5 15  1  0
  5 16  1  0
  6 17  1  0
  7 18  1  0
  7 19  1  0
  8 20  1  0
  8 21  1  0
  9 22  1  0
  9 23  1  0
M  END
