
     RDKit          3D

 23 24  0  0  0  0  0  0  0  0999 V2000
   -1.9193   -1.0130   -0.5926 C   0  0  0  0  0  0  0  0  0  0  0  0
   -1.0787    0.0711    0.0732 C   0  0  0  0  0  0  0  0  0  0  0  0
   -1.9419    1.1053    0.7609 C   0  0  0  0  0  0  0  0  0  0  0  0
    0.1140   -0.3632    0.6980 C   0  0  0  0  0  0  0  0  0  0  0  0
    1.1547   -1.3532    0.3205 C   0  0  0  0  0  0  0  0  0  0  0  0
    2.2660   -0.4997   -0.3272 C   0  0  0  0  0  0  0  0  0  0  0  0
    2.2529    0.7988    0.1551 O   0  0  0  0  0  0  0  0  0  0  0  0
    1.1151    1.5287   -0.2451 C   0  0  0  0  0  0  0  0  0  0  0  0
    0.0850    0.5378   -0.5804 C   0  0  0  0  0  0  0  0  0  0  0  0
   -2.4082   -1.5832    0.2069 H   0  0  0  0  0  0  0  0  0  0  0  0
   -1.1885   -1.6846   -1.1318 H   0  0  0  0  0  0  0  0  0  0  0  0
   -2.5912   -0.6104   -1.3574 H   0  0  0  0  0  0  0  0  0  0  0  0
   -1.3656    1.8986    1.2497 H   0  0  0  0  0  0  0  0  0  0  0  0
   -2.5644    0.5476    1.5040 H   0  0  0  0  0  0  0  0  0  0  0  0
   -2.6198    1.6014    0.0341 H   0  0  0  0  0  0  0  0  0  0  0  0
    0.3687    0.1218    1.6686 H   0  0  0  0  0  0  0  0  0  0  0  0
    1.5664   -1.8794    1.2123 H   0  0  0  0  0  0  0  0  0  0  0  0
    0.8238   -2.1196   -0.3806 H   0  0  0  0  0  0  0  0  0  0  0  0
    2.2529   -0.5806   -1.4167 H   0  0  0  0  0  0  0  0  0  0  0  0
    3.2281   -0.9386    0.0129 H   0  0  0  0  0  0  0  0  0  0  0  0
    0.7893    2.0717    0.6911 H   0  0  0  0  0  0  0  0  0  0  0  0
    1.3410    2.2906   -0.9917 H   0  0  0  0  0  0  0  0  0  0  0  0
    0.3198    0.0521   -1.5635 H   0  0  0  0  0  0  0  0  0  0  0  0
  1  2  1  0
  2  3  1  0
  2  4  1  0
  4  5  1  0
  5  6  1  0
  6  7  1  0
  7  8  1  0
  8  9  1  0
  9  2  1  0
  9  4  1  0
  1 10  1  0
  1 11  1  0
  1 12  1  0
  3 13  1  0
  3 14  1  0
  3 15  1  0
  4 16  1  0
  5 17  1  0
  5 18  1  0
  6 19  1  0
  6 20  1  0
  8 21  1  0
  8 22  1  0
  9 23  1  0
M  END
