
     RDKit          3D

 24 24  0  0  0  0  0  0  0  0999 V2000
    1.8699   -1.1603    0.2583 C   0  0  0  0  0  0  0  0  0  0  0  0
    1.0715    0.0611   -0.0564 C   0  0  0  0  0  0  0  0  0  0  0  0
    1.9168    1.2309   -0.4559 C   0  0  0  0  0  0  0  0  0  0  0  0
   -0.0580   -0.1273   -1.0518 C   0  0  0  0  0  0  0  0  0  0  0  0
   -1.0532   -0.0281    0.0508 C   0  0  0  0  0  0  0  0  0  0  0  0
   -1.7569   -1.3362    0.2742 C   0  0  0  0  0  0  0  0  0  0  0  0
   -2.0548    1.0966   -0.0438 C   0  0  0  0  0  0  0  0  0  0  0  0
    0.0390    0.3175    1.0096 C   0  0  0  0  0  0  0  0  0  0  0  0
    1.8639   -1.3504    1.3705 H   0  0  0  0  0  0  0  0  0  0  0  0
    1.5082   -2.0566   -0.2662 H   0  0  0  0  0  0  0  0  0  0  0  0
    2.9498   -0.9729    0.0201 H   0  0  0  0  0  0  0  0  0  0  0  0
    2.9662    1.0848   -0.1333 H   0  0  0  0  0  0  0  0  0  0  0  0
    1.5443    2.1933   -0.0831 H   0  0  0  0  0  0  0  0  0  0  0  0
    1.9419    1.2499   -1.5762 H   0  0  0  0  0  0  0  0  0  0  0  0
   -0.1439    0.6577   -1.8224 H   0  0  0  0  0  0  0  0  0  0  0  0
    0.0609   -1.1317   -1.5289 H   0  0  0  0  0  0  0  0  0  0  0  0
   -2.1315   -1.4814    1.2878 H   0  0  0  0  0  0  0  0  0  0  0  0
   -2.6683   -1.3192   -0.3928 H   0  0  0  0  0  0  0  0  0  0  0  0
   -1.1255   -2.1629   -0.0932 H   0  0  0  0  0  0  0  0  0  0  0  0
   -1.5515    2.0854   -0.0832 H   0  0  0  0  0  0  0  0  0  0  0  0
   -2.7880    0.9335   -0.8388 H   0  0  0  0  0  0  0  0  0  0  0  0
   -2.6212    1.0985    0.9310 H   0  0  0  0  0  0  0  0  0  0  0  0
    0.0959    1.4048    1.3049 H   0  0  0  0  0  0  0  0  0  0  0  0
    0.1243   -0.2870    1.9189 H   0  0  0  0  0  0  0  0  0  0  0  0
  1  2  1  0
  2  3  1  0
  2  4  1  0
  4  5  1  0
  5  6  1  0
  5  7  1  0
  5  8  1  0
  8  2  1  0
  1  9  1  0
  1 10  1  0
  1 11  1  0
  3 12  1  0
  3 13  1  0
  3 14  1  0
  4 15  1  0
  4 16  1  0
  6 17  1  0
  6 18  1  0
  6 19  1  0
  7 20  1  0
  7 21  1  0
  7 22  1  0
  8 23  1  0
  8 24  1  0
M  END
