
     RDKit          3D

 19 19  0  0  0  0  0  0  0  0999 V2000
   -1.3057   -1.1250    1.0021 C   0  0  0  0  0  0  0  0  0  0  0  0
   -0.5957   -0.1147    0.0933 C   0  0  0  0  0  0  0  0  0  0  0  0
   -1.6532    0.5787   -0.7679 C   0  0  0  0  0  0  0  0  0  0  0  0
   -0.0062    0.8278    0.9097 O   0  0  0  0  0  0  0  0  0  0  0  0
    1.1525    1.3733    0.4219 C   0  0  0  0  0  0  0  0  0  0  0  0
    2.2008    0.3844    0.0912 C   0  0  0  0  0  0  0  0  0  0  0  0
    1.7796   -0.7319   -0.4794 C   0  0  0  0  0  0  0  0  0  0  0  0
    0.3615   -0.8785   -0.7218 C   0  0  0  0  0  0  0  0  0  0  0  0
   -0.0589   -1.6428   -1.6112 O   0  0  0  0  0  0  0  0  0  0  0  0
   -1.2566   -2.1459    0.5651 H   0  0  0  0  0  0  0  0  0  0  0  0
   -2.3553   -0.8286    1.1648 H   0  0  0  0  0  0  0  0  0  0  0  0
   -0.7249   -1.1789    1.9658 H   0  0  0  0  0  0  0  0  0  0  0  0
   -1.5140    1.6902   -0.7254 H   0  0  0  0  0  0  0  0  0  0  0  0
   -1.5863    0.2979   -1.8197 H   0  0  0  0  0  0  0  0  0  0  0  0
   -2.6720    0.3813   -0.3338 H   0  0  0  0  0  0  0  0  0  0  0  0
    0.8868    1.9705   -0.4834 H   0  0  0  0  0  0  0  0  0  0  0  0
    1.5650    2.0625    1.1630 H   0  0  0  0  0  0  0  0  0  0  0  0
    3.2641    0.5583    0.3028 H   0  0  0  0  0  0  0  0  0  0  0  0
    2.5184   -1.4788   -0.7370 H   0  0  0  0  0  0  0  0  0  0  0  0
  1  2  1  0
  2  3  1  0
  2  4  1  0
  4  5  1  0
  5  6  1  0
  6  7  2  0
  7  8  1  0
  8  9  2  0
  8  2  1  0
  1 10  1  0
  1 11  1  0
  1 12  1  0
  3 13  1  0
  3 14  1  0
  3 15  1  0
  5 16  1  0
  5 17  1  0
  6 18  1  0
  7 19  1  0
M  END
