
     RDKit          3D

 17 18  0  0  0  0  0  0  0  0999 V2000
   -1.4021    0.0320    1.2372 C   0  0  0  0  0  0  0  0  0  0  0  0
   -0.6786    0.0812   -0.0683 C   0  0  0  0  0  0  0  0  0  0  0  0
   -1.4146    0.5244   -1.1535 O   0  0  0  0  0  0  0  0  0  0  0  0
    0.1294   -1.1377   -0.4310 C   0  0  0  0  0  0  0  0  0  0  0  0
    1.1570   -0.6296    0.5603 C   0  0  0  0  0  0  0  0  0  0  0  0
    0.7152    0.7207    0.0148 C   0  0  0  0  0  0  0  0  0  0  0  0
    1.1359    0.5831   -1.3878 C   0  0  0  0  0  0  0  0  0  0  0  0
    1.7187    1.4014   -2.1350 O   0  0  0  0  0  0  0  0  0  0  0  0
    0.7047   -0.7352   -1.6801 O   0  0  0  0  0  0  0  0  0  0  0  0
   -1.9668   -0.9206    1.2838 H   0  0  0  0  0  0  0  0  0  0  0  0
   -2.1122    0.9049    1.2492 H   0  0  0  0  0  0  0  0  0  0  0  0
   -0.7473    0.1786    2.1161 H   0  0  0  0  0  0  0  0  0  0  0  0
   -0.9622    1.2251   -1.6702 H   0  0  0  0  0  0  0  0  0  0  0  0
   -0.2708   -2.1031   -0.3325 H   0  0  0  0  0  0  0  0  0  0  0  0
    2.1832   -0.8999    0.2185 H   0  0  0  0  0  0  0  0  0  0  0  0
    0.9610   -0.8144    1.6091 H   0  0  0  0  0  0  0  0  0  0  0  0
    0.8493    1.5893    0.5694 H   0  0  0  0  0  0  0  0  0  0  0  0
  1  2  1  0
  2  3  1  0
  2  4  1  0
  4  5  1  0
  5  6  1  0
  6  7  1  0
  7  8  2  0
  7  9  1  0
  6  2  1  0
  9  4  1  0
  1 10  1  0
  1 11  1  0
  1 12  1  0
  3 13  1  0
  4 14  1  0
  5 15  1  0
  5 16  1  0
  6 17  1  0
M  END
