
     RDKit          3D

 21 22  0  0  0  0  0  0  0  0999 V2000
    1.4422   -1.1555    0.6037 C   0  0  0  0  0  0  0  0  0  0  0  0
    0.8451    0.1241    0.0636 C   0  0  0  0  0  0  0  0  0  0  0  0
    1.3671    1.4047    0.6337 C   0  0  0  0  0  0  0  0  0  0  0  0
    0.3837    0.0284   -1.3489 C   0  0  0  0  0  0  0  0  0  0  0  0
    0.0307    1.2122   -1.9590 O   0  0  0  0  0  0  0  0  0  0  0  0
   -1.1559    1.1847   -1.2006 C   0  0  0  0  0  0  0  0  0  0  0  0
   -0.6137    0.1321   -0.2901 C   0  0  0  0  0  0  0  0  0  0  0  0
   -1.4609   -0.9893    0.1879 C   0  0  0  0  0  0  0  0  0  0  0  0
   -1.4192   -1.0197    1.5994 O   0  0  0  0  0  0  0  0  0  0  0  0
    1.3575   -1.2573    1.6910 H   0  0  0  0  0  0  0  0  0  0  0  0
    2.5258   -1.2281    0.2931 H   0  0  0  0  0  0  0  0  0  0  0  0
    0.9590   -2.0365    0.1127 H   0  0  0  0  0  0  0  0  0  0  0  0
    0.5650    2.1401    0.8679 H   0  0  0  0  0  0  0  0  0  0  0  0
    1.8500    1.1730    1.6156 H   0  0  0  0  0  0  0  0  0  0  0  0
    2.0891    1.9306   -0.0182 H   0  0  0  0  0  0  0  0  0  0  0  0
    0.5703   -0.8737   -1.9474 H   0  0  0  0  0  0  0  0  0  0  0  0
   -1.9886    0.7846   -1.8282 H   0  0  0  0  0  0  0  0  0  0  0  0
   -1.3616    2.1723   -0.7285 H   0  0  0  0  0  0  0  0  0  0  0  0
   -1.1413   -1.9919   -0.1463 H   0  0  0  0  0  0  0  0  0  0  0  0
   -2.5130   -0.8379   -0.1642 H   0  0  0  0  0  0  0  0  0  0  0  0
   -2.3312   -0.8969    1.9629 H   0  0  0  0  0  0  0  0  0  0  0  0
  1  2  1  0
  2  3  1  0
  2  4  1  0
  4  5  1  0
  5  6  1  0
  6  7  1  0
  7  8  1  0
  8  9  1  0
  7  2  1  0
  7  4  1  0
  1 10  1  0
  1 11  1  0
  1 12  1  0
  3 13  1  0
  3 14  1  0
  3 15  1  0
  4 16  1  0
  6 17  1  0
  6 18  1  0
  8 19  1  0
  8 20  1  0
  9 21  1  0
M  END
