
     RDKit          3D

 19 19  0  0  0  0  0  0  0  0999 V2000
   -0.7657   -0.8565   -1.3141 C   0  0  0  0  0  0  0  0  0  0  0  0
   -1.5621   -0.2485   -0.1914 C   0  0  0  0  0  0  0  0  0  0  0  0
   -3.0281   -0.0117   -0.5550 C   0  0  0  0  0  0  0  0  0  0  0  0
   -1.4194   -0.7606    1.0964 O   0  0  0  0  0  0  0  0  0  0  0  0
   -0.9249    0.5602    0.7791 C   0  0  0  0  0  0  0  0  0  0  0  0
    0.5563    0.5726    0.8299 C   0  0  0  0  0  0  0  0  0  0  0  0
    1.7612    0.5935    0.8891 C   0  0  0  0  0  0  0  0  0  0  0  0
    3.2248    0.5952    0.9703 C   0  0  0  0  0  0  0  0  0  0  0  0
    3.7206   -0.6598    1.3359 O   0  0  0  0  0  0  0  0  0  0  0  0
   -1.1360   -0.3701   -2.2615 H   0  0  0  0  0  0  0  0  0  0  0  0
    0.3186   -0.6336   -1.2524 H   0  0  0  0  0  0  0  0  0  0  0  0
   -0.9591   -1.9404   -1.4491 H   0  0  0  0  0  0  0  0  0  0  0  0
   -3.4968   -0.9229   -0.9770 H   0  0  0  0  0  0  0  0  0  0  0  0
   -3.0463    0.7993   -1.3123 H   0  0  0  0  0  0  0  0  0  0  0  0
   -3.5857    0.3730    0.3248 H   0  0  0  0  0  0  0  0  0  0  0  0
   -1.4430    1.4000    1.2571 H   0  0  0  0  0  0  0  0  0  0  0  0
    3.5932    1.3516    1.7228 H   0  0  0  0  0  0  0  0  0  0  0  0
    3.5886    0.9173   -0.0303 H   0  0  0  0  0  0  0  0  0  0  0  0
    4.6038   -0.7585    0.8612 H   0  0  0  0  0  0  0  0  0  0  0  0
  1  2  1  0
  2  3  1  0
  2  4  1  0
  4  5  1  0
  5  6  1  0
  6  7  3  0
  7  8  1  0
  8  9  1  0
  5  2  1  0
  1 10  1  0
  1 11  1  0
  1 12  1  0
  3 13  1  0
  3 14  1  0
  3 15  1  0
  5 16  1  0
  8 17  1  0
  8 18  1  0
  9 19  1  0
M  END
