
     RDKit          3D

 21 22  0  0  0  0  0  0  0  0999 V2000
    1.8368   -0.9183   -0.2997 C   0  0  0  0  0  0  0  0  0  0  0  0
    0.6509   -0.0031   -0.0662 C   0  0  0  0  0  0  0  0  0  0  0  0
    0.8800    1.3378   -0.6493 C   0  0  0  0  0  0  0  0  0  0  0  0
    0.3210    0.0536    1.4126 C   0  0  0  0  0  0  0  0  0  0  0  0
    1.1480    0.1963    2.2707 O   0  0  0  0  0  0  0  0  0  0  0  0
   -1.1655   -0.1004    1.5161 C   0  0  0  0  0  0  0  0  0  0  0  0
   -1.5505    0.3220    0.1442 C   0  0  0  0  0  0  0  0  0  0  0  0
   -1.8026   -0.3314   -1.0681 C   0  0  0  0  0  0  0  0  0  0  0  0
   -0.5658   -0.7152   -0.5378 C   0  0  0  0  0  0  0  0  0  0  0  0
    2.7064   -0.4510    0.1913 H   0  0  0  0  0  0  0  0  0  0  0  0
    1.6399   -1.9427    0.0416 H   0  0  0  0  0  0  0  0  0  0  0  0
    2.0337   -0.9086   -1.3841 H   0  0  0  0  0  0  0  0  0  0  0  0
    0.4171    1.4689   -1.6570 H   0  0  0  0  0  0  0  0  0  0  0  0
    1.9890    1.4404   -0.8395 H   0  0  0  0  0  0  0  0  0  0  0  0
    0.6415    2.1893    0.0338 H   0  0  0  0  0  0  0  0  0  0  0  0
   -1.4203   -1.1238    1.7880 H   0  0  0  0  0  0  0  0  0  0  0  0
   -1.5038    0.6296    2.2739 H   0  0  0  0  0  0  0  0  0  0  0  0
   -1.2448    1.4127    0.0413 H   0  0  0  0  0  0  0  0  0  0  0  0
   -2.6511   -1.0636   -1.1163 H   0  0  0  0  0  0  0  0  0  0  0  0
   -1.8046    0.2549   -2.0344 H   0  0  0  0  0  0  0  0  0  0  0  0
   -0.5551   -1.7474   -0.0611 H   0  0  0  0  0  0  0  0  0  0  0  0
  1  2  1  0
  2  3  1  0
  2  4  1  0
  4  5  2  0
  4  6  1  0
  6  7  1  0
  7  8  1  0
  8  9  1  0
  9  2  1  0
  9  7  1  0
  1 10  1  0
  1 11  1  0
  1 12  1  0
  3 13  1  0
  3 14  1  0
  3 15  1  0
  6 16  1  0
  6 17  1  0
  7 18  1  0
  8 19  1  0
  8 20  1  0
  9 21  1  0
M  END
