
     RDKit          3D

 25 26  0  0  0  0  0  0  0  0999 V2000
   -1.9817   -0.5438   -0.7230 C   0  0  0  0  0  0  0  0  0  0  0  0
   -0.8229    0.1316    0.0297 C   0  0  0  0  0  0  0  0  0  0  0  0
   -1.3813    1.4090    0.5617 C   0  0  0  0  0  0  0  0  0  0  0  0
   -0.3056   -0.7917    1.0945 C   0  0  0  0  0  0  0  0  0  0  0  0
    1.1660   -0.7021    1.3192 C   0  0  0  0  0  0  0  0  0  0  0  0
    1.8892   -0.3325    0.0555 C   0  0  0  0  0  0  0  0  0  0  0  0
    1.1515   -0.8424   -1.1814 C   0  0  0  0  0  0  0  0  0  0  0  0
    0.2439    0.3772   -1.0051 C   0  0  0  0  0  0  0  0  0  0  0  0
    1.4586    1.0656   -0.4114 C   0  0  0  0  0  0  0  0  0  0  0  0
   -2.3847    0.2645   -1.3909 H   0  0  0  0  0  0  0  0  0  0  0  0
   -2.7799   -0.7209    0.0292 H   0  0  0  0  0  0  0  0  0  0  0  0
   -1.6599   -1.4348   -1.2606 H   0  0  0  0  0  0  0  0  0  0  0  0
   -1.9183    1.1780    1.5130 H   0  0  0  0  0  0  0  0  0  0  0  0
   -2.1715    1.8094   -0.1254 H   0  0  0  0  0  0  0  0  0  0  0  0
   -0.6674    2.2090    0.7219 H   0  0  0  0  0  0  0  0  0  0  0  0
   -0.8488   -0.5768    2.0537 H   0  0  0  0  0  0  0  0  0  0  0  0
   -0.6223   -1.8302    0.8113 H   0  0  0  0  0  0  0  0  0  0  0  0
    1.3869    0.0605    2.0982 H   0  0  0  0  0  0  0  0  0  0  0  0
    1.5268   -1.7071    1.6217 H   0  0  0  0  0  0  0  0  0  0  0  0
    2.9685   -0.4378    0.0406 H   0  0  0  0  0  0  0  0  0  0  0  0
    0.6670   -1.8074   -1.0794 H   0  0  0  0  0  0  0  0  0  0  0  0
    1.7910   -0.6713   -2.0684 H   0  0  0  0  0  0  0  0  0  0  0  0
   -0.1143    0.7582   -1.9571 H   0  0  0  0  0  0  0  0  0  0  0  0
    2.1215    1.4469   -1.2073 H   0  0  0  0  0  0  0  0  0  0  0  0
    1.2878    1.6890    0.4596 H   0  0  0  0  0  0  0  0  0  0  0  0
  1  2  1  0
  2  3  1  0
  2  4  1  0
  4  5  1  0
  5  6  1  0
  6  7  1  0
  7  8  1  0
  8  9  1  0
  8  2  1  0
  9  6  1  0
  1 10  1  0
  1 11  1  0
  1 12  1  0
  3 13  1  0
  3 14  1  0
  3 15  1  0
  4 16  1  0
  4 17  1  0
  5 18  1  0
  5 19  1  0
  6 20  1  0
  7 21  1  0
  7 22  1  0
  8 23  1  0
  9 24  1  0
  9 25  1  0
M  END
