
     RDKit          3D

 19 19  0  0  0  0  0  0  0  0999 V2000
   -1.9601   -0.1711   -0.6090 C   0  0  0  0  0  0  0  0  0  0  0  0
   -0.8414    0.1608    0.3570 C   0  0  0  0  0  0  0  0  0  0  0  0
   -1.3844    0.6090    1.5596 O   0  0  0  0  0  0  0  0  0  0  0  0
    0.0512   -1.0349    0.5922 C   0  0  0  0  0  0  0  0  0  0  0  0
    1.2649   -1.0125   -0.3123 C   0  0  0  0  0  0  0  0  0  0  0  0
    2.0274    0.2521   -0.2517 C   0  0  0  0  0  0  0  0  0  0  0  0
    1.3565    1.3865   -0.2094 C   0  0  0  0  0  0  0  0  0  0  0  0
   -0.0913    1.3057   -0.2253 C   0  0  0  0  0  0  0  0  0  0  0  0
   -0.7711    2.2235   -0.7441 O   0  0  0  0  0  0  0  0  0  0  0  0
   -1.7449   -1.1672   -1.0641 H   0  0  0  0  0  0  0  0  0  0  0  0
   -2.0358    0.5416   -1.4417 H   0  0  0  0  0  0  0  0  0  0  0  0
   -2.9280   -0.2483   -0.0444 H   0  0  0  0  0  0  0  0  0  0  0  0
   -0.6437    0.6746    2.2147 H   0  0  0  0  0  0  0  0  0  0  0  0
   -0.5138   -1.9545    0.3296 H   0  0  0  0  0  0  0  0  0  0  0  0
    0.3581   -1.1426    1.6535 H   0  0  0  0  0  0  0  0  0  0  0  0
    0.9169   -1.2367   -1.3615 H   0  0  0  0  0  0  0  0  0  0  0  0
    1.9441   -1.8252   -0.0378 H   0  0  0  0  0  0  0  0  0  0  0  0
    3.1197    0.2771   -0.2409 H   0  0  0  0  0  0  0  0  0  0  0  0
    1.8755    2.3622   -0.1645 H   0  0  0  0  0  0  0  0  0  0  0  0
  1  2  1  0
  2  3  1  0
  2  4  1  0
  4  5  1  0
  5  6  1  0
  6  7  2  0
  7  8  1  0
  8  9  2  0
  8  2  1  0
  1 10  1  0
  1 11  1  0
  1 12  1  0
  3 13  1  0
  4 14  1  0
  4 15  1  0
  5 16  1  0
  5 17  1  0
  6 18  1  0
  7 19  1  0
M  END
