
     RDKit          3D

 21 22  0  0  0  0  0  0  0  0999 V2000
    1.9624   -0.5083    0.5168 C   0  0  0  0  0  0  0  0  0  0  0  0
    0.7020    0.0538   -0.1301 C   0  0  0  0  0  0  0  0  0  0  0  0
    1.0159    1.0488   -1.1663 C   0  0  0  0  0  0  0  0  0  0  0  0
    1.2226    0.7608   -2.3297 O   0  0  0  0  0  0  0  0  0  0  0  0
   -0.0558   -1.1545   -0.7238 C   0  0  0  0  0  0  0  0  0  0  0  0
   -1.4879   -1.0023   -0.1668 C   0  0  0  0  0  0  0  0  0  0  0  0
   -1.4957    0.4711   -0.0706 C   0  0  0  0  0  0  0  0  0  0  0  0
   -1.3189    1.3958    0.9684 C   0  0  0  0  0  0  0  0  0  0  0  0
   -0.2472    0.4911    0.9061 C   0  0  0  0  0  0  0  0  0  0  0  0
    1.9268   -1.6216    0.5831 H   0  0  0  0  0  0  0  0  0  0  0  0
    1.9875   -0.1555    1.5765 H   0  0  0  0  0  0  0  0  0  0  0  0
    2.8638   -0.2386   -0.0330 H   0  0  0  0  0  0  0  0  0  0  0  0
    1.0670    2.0838   -0.8891 H   0  0  0  0  0  0  0  0  0  0  0  0
   -0.1484   -0.9936   -1.8168 H   0  0  0  0  0  0  0  0  0  0  0  0
    0.3942   -2.0982   -0.4331 H   0  0  0  0  0  0  0  0  0  0  0  0
   -2.2278   -1.4594   -0.8124 H   0  0  0  0  0  0  0  0  0  0  0  0
   -1.4349   -1.4963    0.8475 H   0  0  0  0  0  0  0  0  0  0  0  0
   -1.2889    0.8831   -1.1102 H   0  0  0  0  0  0  0  0  0  0  0  0
   -2.0554    1.3616    1.8215 H   0  0  0  0  0  0  0  0  0  0  0  0
   -1.1168    2.4754    0.7376 H   0  0  0  0  0  0  0  0  0  0  0  0
   -0.2646   -0.2969    1.7248 H   0  0  0  0  0  0  0  0  0  0  0  0
  1  2  1  0
  2  3  1  0
  3  4  2  0
  2  5  1  0
  5  6  1  0
  6  7  1  0
  7  8  1  0
  8  9  1  0
  9  2  1  0
  9  7  1  0
  1 10  1  0
  1 11  1  0
  1 12  1  0
  3 13  1  0
  5 14  1  0
  5 15  1  0
  6 16  1  0
  6 17  1  0
  7 18  1  0
  8 19  1  0
  8 20  1  0
  9 21  1  0
M  END
