
     RDKit          3D

 21 22  0  0  0  0  0  0  0  0999 V2000
   -1.0293    1.3138   -0.9850 C   0  0  0  0  0  0  0  0  0  0  0  0
   -0.6956    0.0659   -0.2509 C   0  0  0  0  0  0  0  0  0  0  0  0
   -1.6721   -0.1487    0.9066 C   0  0  0  0  0  0  0  0  0  0  0  0
   -0.4914   -1.1447   -1.0882 C   0  0  0  0  0  0  0  0  0  0  0  0
   -1.1631   -1.7292   -1.9103 O   0  0  0  0  0  0  0  0  0  0  0  0
    0.8476   -1.3380   -0.5133 C   0  0  0  0  0  0  0  0  0  0  0  0
    0.9889   -1.3618    0.9885 C   0  0  0  0  0  0  0  0  0  0  0  0
    0.7110   -0.0850    0.2479 C   0  0  0  0  0  0  0  0  0  0  0  0
    1.6909    1.0215    0.1950 C   0  0  0  0  0  0  0  0  0  0  0  0
   -1.3426    1.0180   -2.0270 H   0  0  0  0  0  0  0  0  0  0  0  0
   -0.1504    1.9573   -1.0726 H   0  0  0  0  0  0  0  0  0  0  0  0
   -1.8284    1.9086   -0.4971 H   0  0  0  0  0  0  0  0  0  0  0  0
   -2.6359    0.3361    0.7003 H   0  0  0  0  0  0  0  0  0  0  0  0
   -1.2011    0.3795    1.7855 H   0  0  0  0  0  0  0  0  0  0  0  0
   -1.7741   -1.2013    1.1724 H   0  0  0  0  0  0  0  0  0  0  0  0
    1.7118   -1.5837   -1.1332 H   0  0  0  0  0  0  0  0  0  0  0  0
    0.1747   -1.8801    1.5146 H   0  0  0  0  0  0  0  0  0  0  0  0
    2.0250   -1.4916    1.3521 H   0  0  0  0  0  0  0  0  0  0  0  0
    1.8182    1.5011   -0.7896 H   0  0  0  0  0  0  0  0  0  0  0  0
    1.3346    1.8297    0.8954 H   0  0  0  0  0  0  0  0  0  0  0  0
    2.6812    0.6329    0.5087 H   0  0  0  0  0  0  0  0  0  0  0  0
  1  2  1  0
  2  3  1  0
  2  4  1  0
  4  5  2  0
  4  6  1  0
  6  7  1  0
  7  8  1  0
  8  9  1  0
  8  2  1  0
  8  6  1  0
  1 10  1  0
  1 11  1  0
  1 12  1  0
  3 13  1  0
  3 14  1  0
  3 15  1  0
  6 16  1  0
  7 17  1  0
  7 18  1  0
  9 19  1  0
  9 20  1  0
  9 21  1  0
M  END
