
     RDKit          3D

 19 20  0  0  0  0  0  0  0  0999 V2000
   -1.4062   -0.7958   -1.0444 C   0  0  0  0  0  0  0  0  0  0  0  0
   -0.4627   -0.1076   -0.0616 C   0  0  0  0  0  0  0  0  0  0  0  0
   -1.1210    0.0695    1.2103 C   0  0  0  0  0  0  0  0  0  0  0  0
    0.1752    1.0657   -0.7697 C   0  0  0  0  0  0  0  0  0  0  0  0
    1.2611    0.8894    0.2560 C   0  0  0  0  0  0  0  0  0  0  0  0
    2.1122   -0.2139    0.5407 C   0  0  0  0  0  0  0  0  0  0  0  0
    0.9395   -0.6099   -0.1369 C   0  0  0  0  0  0  0  0  0  0  0  0
   -1.2264   -0.5036   -2.0805 H   0  0  0  0  0  0  0  0  0  0  0  0
   -2.4660   -0.6292   -0.7791 H   0  0  0  0  0  0  0  0  0  0  0  0
   -1.2340   -1.9002   -0.8858 H   0  0  0  0  0  0  0  0  0  0  0  0
   -1.7695    0.9929    1.1821 H   0  0  0  0  0  0  0  0  0  0  0  0
   -1.8498   -0.7678    1.3620 H   0  0  0  0  0  0  0  0  0  0  0  0
   -0.5409    0.1017    2.1368 H   0  0  0  0  0  0  0  0  0  0  0  0
    0.5324    0.7706   -1.7763 H   0  0  0  0  0  0  0  0  0  0  0  0
   -0.3333    2.0136   -0.7518 H   0  0  0  0  0  0  0  0  0  0  0  0
    0.8282    1.2757    1.2164 H   0  0  0  0  0  0  0  0  0  0  0  0
    2.2636   -0.6880    1.5626 H   0  0  0  0  0  0  0  0  0  0  0  0
    3.1389   -0.1651    0.0619 H   0  0  0  0  0  0  0  0  0  0  0  0
    1.1588   -0.7978   -1.2426 H   0  0  0  0  0  0  0  0  0  0  0  0
  1  2  1  0
  2  3  1  0
  2  4  1  0
  4  5  1  0
  5  6  1  0
  6  7  1  0
  7  2  1  0
  7  5  1  0
  1  8  1  0
  1  9  1  0
  1 10  1  0
  3 11  1  0
  3 12  1  0
  3 13  1  0
  4 14  1  0
  4 15  1  0
  5 16  1  0
  6 17  1  0
  6 18  1  0
  7 19  1  0
M  END
