
     RDKit          3D

 21 22  0  0  0  0  0  0  0  0999 V2000
    1.1154   -0.7749    1.1772 C   0  0  0  0  0  0  0  0  0  0  0  0
    0.7512    0.1027   -0.0200 C   0  0  0  0  0  0  0  0  0  0  0  0
    1.9256    0.7333   -0.6923 C   0  0  0  0  0  0  0  0  0  0  0  0
   -0.2402   -0.5932   -0.9245 C   0  0  0  0  0  0  0  0  0  0  0  0
   -0.1587   -1.9580   -0.7775 O   0  0  0  0  0  0  0  0  0  0  0  0
   -1.4093    0.0957   -0.3010 C   0  0  0  0  0  0  0  0  0  0  0  0
   -2.3479    0.6551   -1.1341 O   0  0  0  0  0  0  0  0  0  0  0  0
   -1.4765    0.4435    1.1212 C   0  0  0  0  0  0  0  0  0  0  0  0
   -0.3749    1.0628    0.3586 C   0  0  0  0  0  0  0  0  0  0  0  0
    2.1326   -1.1935    0.9740 H   0  0  0  0  0  0  0  0  0  0  0  0
    1.0968   -0.1613    2.1096 H   0  0  0  0  0  0  0  0  0  0  0  0
    0.3890   -1.6268    1.2382 H   0  0  0  0  0  0  0  0  0  0  0  0
    1.6994    1.7496   -1.0338 H   0  0  0  0  0  0  0  0  0  0  0  0
    2.2939    0.0546   -1.4823 H   0  0  0  0  0  0  0  0  0  0  0  0
    2.7402    0.8225    0.0744 H   0  0  0  0  0  0  0  0  0  0  0  0
   -0.0673   -0.2247   -1.9772 H   0  0  0  0  0  0  0  0  0  0  0  0
   -0.9568   -2.4473   -1.0623 H   0  0  0  0  0  0  0  0  0  0  0  0
   -3.2831    0.4060   -0.9242 H   0  0  0  0  0  0  0  0  0  0  0  0
   -2.2793    1.0984    1.4509 H   0  0  0  0  0  0  0  0  0  0  0  0
   -1.1444   -0.3057    1.8931 H   0  0  0  0  0  0  0  0  0  0  0  0
   -0.4058    2.0610   -0.0681 H   0  0  0  0  0  0  0  0  0  0  0  0
  1  2  1  0
  2  3  1  0
  2  4  1  0
  4  5  1  0
  4  6  1  0
  6  7  1  0
  6  8  1  0
  8  9  1  0
  9  2  1  0
  9  6  1  0
  1 10  1  0
  1 11  1  0
  1 12  1  0
  3 13  1  0
  3 14  1  0
  3 15  1  0
  4 16  1  0
  5 17  1  0
  7 18  1  0
  8 19  1  0
  8 20  1  0
  9 21  1  0
M  END
