
     RDKit          3D

 23 24  0  0  0  0  0  0  0  0999 V2000
   -1.7536    1.3753    0.2173 C   0  0  0  0  0  0  0  0  0  0  0  0
   -0.9405    0.1197    0.1309 C   0  0  0  0  0  0  0  0  0  0  0  0
   -1.7718   -1.1146    0.2351 C   0  0  0  0  0  0  0  0  0  0  0  0
    0.0203    0.0338   -1.0276 C   0  0  0  0  0  0  0  0  0  0  0  0
   -0.3055   -0.8763   -1.9910 O   0  0  0  0  0  0  0  0  0  0  0  0
    1.1795   -0.2402   -0.1470 C   0  0  0  0  0  0  0  0  0  0  0  0
    2.4211    0.6091   -0.3611 C   0  0  0  0  0  0  0  0  0  0  0  0
    1.0974   -1.0199    1.0997 C   0  0  0  0  0  0  0  0  0  0  0  0
    0.2589    0.2024    1.0397 C   0  0  0  0  0  0  0  0  0  0  0  0
   -2.6998    1.2010   -0.3242 H   0  0  0  0  0  0  0  0  0  0  0  0
   -2.0217    1.5512    1.2841 H   0  0  0  0  0  0  0  0  0  0  0  0
   -1.1489    2.1996   -0.2020 H   0  0  0  0  0  0  0  0  0  0  0  0
   -1.2074   -2.0475    0.2381 H   0  0  0  0  0  0  0  0  0  0  0  0
   -2.4203   -1.1493   -0.6902 H   0  0  0  0  0  0  0  0  0  0  0  0
   -2.5035   -1.0636    1.0779 H   0  0  0  0  0  0  0  0  0  0  0  0
    0.1067    1.0593   -1.4903 H   0  0  0  0  0  0  0  0  0  0  0  0
    0.3776   -1.5216   -2.2319 H   0  0  0  0  0  0  0  0  0  0  0  0
    2.4092    1.4400    0.3717 H   0  0  0  0  0  0  0  0  0  0  0  0
    3.3458   -0.0107   -0.2675 H   0  0  0  0  0  0  0  0  0  0  0  0
    2.4280    1.0555   -1.3839 H   0  0  0  0  0  0  0  0  0  0  0  0
    0.6200   -2.0171    1.1439 H   0  0  0  0  0  0  0  0  0  0  0  0
    1.9633   -0.9364    1.7906 H   0  0  0  0  0  0  0  0  0  0  0  0
    0.5453    1.1505    1.4876 H   0  0  0  0  0  0  0  0  0  0  0  0
  1  2  1  0
  2  3  1  0
  2  4  1  0
  4  5  1  0
  4  6  1  0
  6  7  1  0
  6  8  1  0
  8  9  1  0
  9  2  1  0
  9  6  1  0
  1 10  1  0
  1 11  1  0
  1 12  1  0
  3 13  1  0
  3 14  1  0
  3 15  1  0
  4 16  1  0
  5 17  1  0
  7 18  1  0
  7 19  1  0
  7 20  1  0
  8 21  1  0
  8 22  1  0
  9 23  1  0
M  END
