
     RDKit          3D

 21 22  0  0  0  0  0  0  0  0999 V2000
   -0.8783   -1.4158   -0.9213 C   0  0  0  0  0  0  0  0  0  0  0  0
   -0.4219   -0.2514   -0.1073 C   0  0  0  0  0  0  0  0  0  0  0  0
   -1.4312    0.0970    0.9551 C   0  0  0  0  0  0  0  0  0  0  0  0
   -0.0762    1.0050   -0.9207 C   0  0  0  0  0  0  0  0  0  0  0  0
   -1.0569    1.9703   -0.9146 O   0  0  0  0  0  0  0  0  0  0  0  0
    1.0412    1.2214    0.1077 C   0  0  0  0  0  0  0  0  0  0  0  0
    0.9552   -0.2263    0.3864 C   0  0  0  0  0  0  0  0  0  0  0  0
    1.7882   -1.1199    0.9646 C   0  0  0  0  0  0  0  0  0  0  0  0
    1.8791   -0.9686   -0.5158 O   0  0  0  0  0  0  0  0  0  0  0  0
   -1.6489   -1.0280   -1.6478 H   0  0  0  0  0  0  0  0  0  0  0  0
   -1.4768   -2.0868   -0.2370 H   0  0  0  0  0  0  0  0  0  0  0  0
   -0.0825   -1.9716   -1.4279 H   0  0  0  0  0  0  0  0  0  0  0  0
   -1.8665    1.1259    0.7926 H   0  0  0  0  0  0  0  0  0  0  0  0
   -2.2968   -0.5904    0.9608 H   0  0  0  0  0  0  0  0  0  0  0  0
   -0.9560    0.1265    1.9641 H   0  0  0  0  0  0  0  0  0  0  0  0
    0.3787    0.7614   -1.9018 H   0  0  0  0  0  0  0  0  0  0  0  0
   -0.7447    2.8714   -0.7254 H   0  0  0  0  0  0  0  0  0  0  0  0
    0.6441    1.8413    0.9332 H   0  0  0  0  0  0  0  0  0  0  0  0
    1.9556    1.5929   -0.3781 H   0  0  0  0  0  0  0  0  0  0  0  0
    2.7455   -0.7941    1.4652 H   0  0  0  0  0  0  0  0  0  0  0  0
    1.5489   -2.1602    1.1679 H   0  0  0  0  0  0  0  0  0  0  0  0
  1  2  1  0
  2  3  1  0
  2  4  1  0
  4  5  1  0
  4  6  1  0
  6  7  1  0
  7  8  1  0
  8  9  1  0
  7  2  1  0
  9  7  1  0
  1 10  1  0
  1 11  1  0
  1 12  1  0
  3 13  1  0
  3 14  1  0
  3 15  1  0
  4 16  1  0
  5 17  1  0
  6 18  1  0
  6 19  1  0
  8 20  1  0
  8 21  1  0
M  END
