
     RDKit          3D

 17 19  0  0  0  0  0  0  0  0999 V2000
   -1.3608    1.1093    0.2446 C   0  0  0  0  0  0  0  0  0  0  0  0
   -0.5295   -0.1027    0.4942 C   0  0  0  0  0  0  0  0  0  0  0  0
   -0.6161   -0.5539    1.7861 O   0  0  0  0  0  0  0  0  0  0  0  0
   -0.7672   -1.2503   -0.5025 C   0  0  0  0  0  0  0  0  0  0  0  0
   -0.0247   -2.3697   -0.2039 O   0  0  0  0  0  0  0  0  0  0  0  0
    0.5258   -1.2139   -0.9194 C   0  0  0  0  0  0  0  0  0  0  0  0
    0.8632   -0.0376   -0.0905 C   0  0  0  0  0  0  0  0  0  0  0  0
    1.6000    1.0800   -0.3206 C   0  0  0  0  0  0  0  0  0  0  0  0
    1.9675    0.0546    0.6996 O   0  0  0  0  0  0  0  0  0  0  0  0
   -1.6809    1.6155    1.1829 H   0  0  0  0  0  0  0  0  0  0  0  0
   -0.8160    1.9017   -0.3371 H   0  0  0  0  0  0  0  0  0  0  0  0
   -2.2542    0.7834   -0.3593 H   0  0  0  0  0  0  0  0  0  0  0  0
   -0.0950   -1.3520    1.9816 H   0  0  0  0  0  0  0  0  0  0  0  0
   -1.7423   -1.2980   -0.9798 H   0  0  0  0  0  0  0  0  0  0  0  0
    1.0993   -1.5554   -1.7675 H   0  0  0  0  0  0  0  0  0  0  0  0
    1.4463    2.0383    0.2168 H   0  0  0  0  0  0  0  0  0  0  0  0
    2.3847    1.1508   -1.1253 H   0  0  0  0  0  0  0  0  0  0  0  0
  1  2  1  0
  2  3  1  0
  2  4  1  0
  4  5  1  0
  5  6  1  0
  6  7  1  0
  7  8  1  0
  8  9  1  0
  7  2  1  0
  6  4  1  0
  9  7  1  0
  1 10  1  0
  1 11  1  0
  1 12  1  0
  3 13  1  0
  4 14  1  0
  6 15  1  0
  8 16  1  0
  8 17  1  0
M  END
