
     RDKit          3D

 17 18  0  0  0  0  0  0  0  0999 V2000
   -1.4725    1.0977   -0.5948 C   0  0  0  0  0  0  0  0  0  0  0  0
   -0.6652   -0.1277   -0.3378 C   0  0  0  0  0  0  0  0  0  0  0  0
    0.8253   -0.0550   -0.0961 C   0  0  0  0  0  0  0  0  0  0  0  0
    1.3414    1.3383    0.1594 C   0  0  0  0  0  0  0  0  0  0  0  0
    2.0830    1.3198    1.2079 O   0  0  0  0  0  0  0  0  0  0  0  0
    1.7211   -1.1491   -0.1248 C   0  0  0  0  0  0  0  0  0  0  0  0
    1.5159   -0.4705   -1.4301 O   0  0  0  0  0  0  0  0  0  0  0  0
   -1.3519   -1.0567    0.6785 C   0  0  0  0  0  0  0  0  0  0  0  0
   -1.0839   -1.3933   -0.7673 O   0  0  0  0  0  0  0  0  0  0  0  0
   -0.7972    1.9552   -0.6678 H   0  0  0  0  0  0  0  0  0  0  0  0
   -2.0929    0.9945   -1.5213 H   0  0  0  0  0  0  0  0  0  0  0  0
   -2.2087    1.3390    0.2338 H   0  0  0  0  0  0  0  0  0  0  0  0
    1.1991    2.1773   -0.3575 H   0  0  0  0  0  0  0  0  0  0  0  0
    2.7669   -1.0209    0.2389 H   0  0  0  0  0  0  0  0  0  0  0  0
    1.4151   -2.2093   -0.1645 H   0  0  0  0  0  0  0  0  0  0  0  0
   -0.7560   -1.7193    1.3257 H   0  0  0  0  0  0  0  0  0  0  0  0
   -2.4397   -1.0201    0.7769 H   0  0  0  0  0  0  0  0  0  0  0  0
  1  2  1  0
  2  3  1  0
  3  4  1  0
  4  5  2  0
  3  6  1  0
  6  7  1  0
  2  8  1  0
  8  9  1  0
  9  2  1  0
  7  3  1  0
  1 10  1  0
  1 11  1  0
  1 12  1  0
  4 13  1  0
  6 14  1  0
  6 15  1  0
  8 16  1  0
  8 17  1  0
M  END
