
     RDKit          3D

 21 21  0  0  0  0  0  0  0  0999 V2000
   -1.4799   -1.2043    0.1420 C   0  0  0  0  0  0  0  0  0  0  0  0
   -0.7741    0.1197    0.0171 C   0  0  0  0  0  0  0  0  0  0  0  0
   -1.7383    1.2728   -0.0924 C   0  0  0  0  0  0  0  0  0  0  0  0
    0.2961    0.2530    1.0544 C   0  0  0  0  0  0  0  0  0  0  0  0
    1.2733   -0.3215    0.0245 C   0  0  0  0  0  0  0  0  0  0  0  0
    1.4265   -1.6831    0.0821 O   0  0  0  0  0  0  0  0  0  0  0  0
    2.5387    0.4107    0.0946 C   0  0  0  0  0  0  0  0  0  0  0  0
    2.5300    1.6273    0.0526 O   0  0  0  0  0  0  0  0  0  0  0  0
    0.3059    0.1605   -1.0412 C   0  0  0  0  0  0  0  0  0  0  0  0
   -0.9223   -2.0415   -0.2705 H   0  0  0  0  0  0  0  0  0  0  0  0
   -1.5967   -1.3980    1.2401 H   0  0  0  0  0  0  0  0  0  0  0  0
   -2.4889   -1.1930   -0.3107 H   0  0  0  0  0  0  0  0  0  0  0  0
   -2.5713    0.9339   -0.7475 H   0  0  0  0  0  0  0  0  0  0  0  0
   -1.3058    2.1620   -0.5565 H   0  0  0  0  0  0  0  0  0  0  0  0
   -2.1581    1.5430    0.8843 H   0  0  0  0  0  0  0  0  0  0  0  0
    0.2562   -0.4263    1.9128 H   0  0  0  0  0  0  0  0  0  0  0  0
    0.5429    1.2749    1.3805 H   0  0  0  0  0  0  0  0  0  0  0  0
    1.7459   -2.0035   -0.7960 H   0  0  0  0  0  0  0  0  0  0  0  0
    3.4625   -0.1416    0.1826 H   0  0  0  0  0  0  0  0  0  0  0  0
    0.5105    1.2026   -1.3723 H   0  0  0  0  0  0  0  0  0  0  0  0
    0.1467   -0.5475   -1.8807 H   0  0  0  0  0  0  0  0  0  0  0  0
  1  2  1  0
  2  3  1  0
  2  4  1  0
  4  5  1  0
  5  6  1  0
  5  7  1  0
  7  8  2  0
  5  9  1  0
  9  2  1  0
  1 10  1  0
  1 11  1  0
  1 12  1  0
  3 13  1  0
  3 14  1  0
  3 15  1  0
  4 16  1  0
  4 17  1  0
  6 18  1  0
  7 19  1  0
  9 20  1  0
  9 21  1  0
M  END
