
     RDKit          3D

 21 22  0  0  0  0  0  0  0  0999 V2000
    2.1390   -0.5190    0.1111 C   0  0  0  0  0  0  0  0  0  0  0  0
    0.8631    0.3190    0.1182 C   0  0  0  0  0  0  0  0  0  0  0  0
    1.3016    1.6576    0.2356 O   0  0  0  0  0  0  0  0  0  0  0  0
    0.0110    0.0438    1.3241 C   0  0  0  0  0  0  0  0  0  0  0  0
   -1.3714   -0.4177    0.9649 C   0  0  0  0  0  0  0  0  0  0  0  0
   -2.0143    0.3509   -0.1316 C   0  0  0  0  0  0  0  0  0  0  0  0
   -1.1790   -0.5818   -0.9703 C   0  0  0  0  0  0  0  0  0  0  0  0
    0.1619    0.0678   -1.1809 C   0  0  0  0  0  0  0  0  0  0  0  0
   -1.2099   -1.4902    0.0557 O   0  0  0  0  0  0  0  0  0  0  0  0
    2.8824   -0.1531    0.8348 H   0  0  0  0  0  0  0  0  0  0  0  0
    2.5977   -0.4151   -0.8946 H   0  0  0  0  0  0  0  0  0  0  0  0
    1.8385   -1.5640    0.2441 H   0  0  0  0  0  0  0  0  0  0  0  0
    1.1635    2.1571   -0.5899 H   0  0  0  0  0  0  0  0  0  0  0  0
    0.4994   -0.8199    1.8650 H   0  0  0  0  0  0  0  0  0  0  0  0
    0.0091    0.8711    2.0627 H   0  0  0  0  0  0  0  0  0  0  0  0
   -1.9678   -0.6505    1.8506 H   0  0  0  0  0  0  0  0  0  0  0  0
   -3.0779    0.0937   -0.2317 H   0  0  0  0  0  0  0  0  0  0  0  0
   -1.7444    1.4104   -0.2502 H   0  0  0  0  0  0  0  0  0  0  0  0
   -1.6452   -0.9863   -1.8736 H   0  0  0  0  0  0  0  0  0  0  0  0
    0.7953   -0.4560   -1.9155 H   0  0  0  0  0  0  0  0  0  0  0  0
   -0.0527    1.0823   -1.6285 H   0  0  0  0  0  0  0  0  0  0  0  0
  1  2  1  0
  2  3  1  0
  2  4  1  0
  4  5  1  0
  5  6  1  0
  6  7  1  0
  7  8  1  0
  7  9  1  0
  8  2  1  0
  9  5  1  0
  1 10  1  0
  1 11  1  0
  1 12  1  0
  3 13  1  0
  4 14  1  0
  4 15  1  0
  5 16  1  0
  6 17  1  0
  6 18  1  0
  7 19  1  0
  8 20  1  0
  8 21  1  0
M  END
