
     RDKit          3D

 20 20  0  0  0  0  0  0  0  0999 V2000
   -1.3086    1.3355    0.1879 C   0  0  0  0  0  0  0  0  0  0  0  0
   -0.7181   -0.0414    0.1586 C   0  0  0  0  0  0  0  0  0  0  0  0
   -1.6374   -1.1727    0.4786 C   0  0  0  0  0  0  0  0  0  0  0  0
    0.1562   -0.3569   -1.0326 C   0  0  0  0  0  0  0  0  0  0  0  0
    1.2581    0.4259   -0.3172 C   0  0  0  0  0  0  0  0  0  0  0  0
    2.6029   -0.1374   -0.4283 C   0  0  0  0  0  0  0  0  0  0  0  0
    3.4682    0.4369   -1.0588 O   0  0  0  0  0  0  0  0  0  0  0  0
    0.5800   -0.0352    0.9822 C   0  0  0  0  0  0  0  0  0  0  0  0
   -2.4177    1.3410    0.2872 H   0  0  0  0  0  0  0  0  0  0  0  0
   -1.0577    1.9560   -0.6858 H   0  0  0  0  0  0  0  0  0  0  0  0
   -0.9434    1.9164    1.0845 H   0  0  0  0  0  0  0  0  0  0  0  0
   -1.5407   -1.4130    1.5755 H   0  0  0  0  0  0  0  0  0  0  0  0
   -1.4306   -2.0710   -0.1505 H   0  0  0  0  0  0  0  0  0  0  0  0
   -2.6834   -0.8553    0.2917 H   0  0  0  0  0  0  0  0  0  0  0  0
    0.4039   -1.4420   -1.0191 H   0  0  0  0  0  0  0  0  0  0  0  0
   -0.1572    0.0517   -1.9939 H   0  0  0  0  0  0  0  0  0  0  0  0
    1.1730    1.5152   -0.4365 H   0  0  0  0  0  0  0  0  0  0  0  0
    2.8398   -1.0690    0.0488 H   0  0  0  0  0  0  0  0  0  0  0  0
    0.8099   -1.0825    1.2476 H   0  0  0  0  0  0  0  0  0  0  0  0
    0.6029    0.6977    1.7909 H   0  0  0  0  0  0  0  0  0  0  0  0
  1  2  1  0
  2  3  1  0
  2  4  1  0
  4  5  1  0
  5  6  1  0
  6  7  2  0
  5  8  1  0
  8  2  1  0
  1  9  1  0
  1 10  1  0
  1 11  1  0
  3 12  1  0
  3 13  1  0
  3 14  1  0
  4 15  1  0
  4 16  1  0
  5 17  1  0
  6 18  1  0
  8 19  1  0
  8 20  1  0
M  END
