
     RDKit          3D

 19 20  0  0  0  0  0  0  0  0999 V2000
   -0.3298   -1.4612    0.8488 C   0  0  0  0  0  0  0  0  0  0  0  0
    0.0837   -0.2682    0.0701 C   0  0  0  0  0  0  0  0  0  0  0  0
    1.4631   -0.3379   -0.4970 C   0  0  0  0  0  0  0  0  0  0  0  0
    2.4654    0.6456   -0.2317 C   0  0  0  0  0  0  0  0  0  0  0  0
    1.6503    0.7808   -1.4286 O   0  0  0  0  0  0  0  0  0  0  0  0
   -0.8536   -0.0481   -1.0938 C   0  0  0  0  0  0  0  0  0  0  0  0
   -1.8483    0.7202   -0.6596 C   0  0  0  0  0  0  0  0  0  0  0  0
   -1.5331    0.9790    0.7729 C   0  0  0  0  0  0  0  0  0  0  0  0
   -0.1400    0.9389    0.7676 O   0  0  0  0  0  0  0  0  0  0  0  0
   -1.3112   -1.8572    0.4972 H   0  0  0  0  0  0  0  0  0  0  0  0
   -0.4425   -1.2010    1.9281 H   0  0  0  0  0  0  0  0  0  0  0  0
    0.4648   -2.2203    0.7977 H   0  0  0  0  0  0  0  0  0  0  0  0
    1.7397   -1.3062   -0.9243 H   0  0  0  0  0  0  0  0  0  0  0  0
    3.5237    0.4254   -0.4780 H   0  0  0  0  0  0  0  0  0  0  0  0
    2.3492    1.4867    0.4656 H   0  0  0  0  0  0  0  0  0  0  0  0
   -0.7443   -0.4371   -2.0927 H   0  0  0  0  0  0  0  0  0  0  0  0
   -2.6992    1.0701   -1.2490 H   0  0  0  0  0  0  0  0  0  0  0  0
   -1.9094    0.1334    1.3934 H   0  0  0  0  0  0  0  0  0  0  0  0
   -1.9283    1.9572    1.1135 H   0  0  0  0  0  0  0  0  0  0  0  0
  1  2  1  0
  2  3  1  0
  3  4  1  0
  4  5  1  0
  2  6  1  0
  6  7  2  0
  7  8  1  0
  8  9  1  0
  9  2  1  0
  5  3  1  0
  1 10  1  0
  1 11  1  0
  1 12  1  0
  3 13  1  0
  4 14  1  0
  4 15  1  0
  6 16  1  0
  7 17  1  0
  8 18  1  0
  8 19  1  0
M  END
