
     RDKit          3D

 21 22  0  0  0  0  0  0  0  0999 V2000
    2.3383    0.9300   -0.4434 C   0  0  0  0  0  0  0  0  0  0  0  0
    1.3920   -0.0426    0.2446 C   0  0  0  0  0  0  0  0  0  0  0  0
    1.7785   -0.4764    1.5048 O   0  0  0  0  0  0  0  0  0  0  0  0
    0.7378   -1.0103   -0.7113 C   0  0  0  0  0  0  0  0  0  0  0  0
   -0.0274    0.0793   -0.0192 C   0  0  0  0  0  0  0  0  0  0  0  0
   -1.1107   -0.3984    0.8954 C   0  0  0  0  0  0  0  0  0  0  0  0
   -2.3158   -0.3350   -0.0528 C   0  0  0  0  0  0  0  0  0  0  0  0
   -1.9082    0.7887   -0.9839 C   0  0  0  0  0  0  0  0  0  0  0  0
   -0.6060    1.1060   -0.7150 O   0  0  0  0  0  0  0  0  0  0  0  0
    2.6027    0.5789   -1.4778 H   0  0  0  0  0  0  0  0  0  0  0  0
    1.8856    1.9236   -0.5726 H   0  0  0  0  0  0  0  0  0  0  0  0
    3.3101    0.9528    0.1041 H   0  0  0  0  0  0  0  0  0  0  0  0
    2.7262   -0.7553    1.5534 H   0  0  0  0  0  0  0  0  0  0  0  0
    0.8942   -0.8933   -1.7984 H   0  0  0  0  0  0  0  0  0  0  0  0
    0.6467   -2.0524   -0.3537 H   0  0  0  0  0  0  0  0  0  0  0  0
   -0.9467   -1.4509    1.2478 H   0  0  0  0  0  0  0  0  0  0  0  0
   -1.2669    0.2056    1.7873 H   0  0  0  0  0  0  0  0  0  0  0  0
   -2.3975   -1.2612   -0.6550 H   0  0  0  0  0  0  0  0  0  0  0  0
   -3.2347   -0.0598    0.4596 H   0  0  0  0  0  0  0  0  0  0  0  0
   -1.9612    0.4767   -2.0612 H   0  0  0  0  0  0  0  0  0  0  0  0
   -2.5372    1.6941   -0.7942 H   0  0  0  0  0  0  0  0  0  0  0  0
  1  2  1  0
  2  3  1  0
  2  4  1  0
  4  5  1  0
  5  6  1  0
  6  7  1  0
  7  8  1  0
  8  9  1  0
  5  2  1  0
  9  5  1  0
  1 10  1  0
  1 11  1  0
  1 12  1  0
  3 13  1  0
  4 14  1  0
  4 15  1  0
  6 16  1  0
  6 17  1  0
  7 18  1  0
  7 19  1  0
  8 20  1  0
  8 21  1  0
M  END
