
     RDKit          3D

 21 21  0  0  0  0  0  0  0  0999 V2000
    2.7455    0.3868   -0.5401 C   0  0  0  0  0  0  0  0  0  0  0  0
    1.5514    0.0214    0.3118 C   0  0  0  0  0  0  0  0  0  0  0  0
    1.7774   -0.9296    1.2761 O   0  0  0  0  0  0  0  0  0  0  0  0
    0.6179    1.1349    0.6098 C   0  0  0  0  0  0  0  0  0  0  0  0
    0.1815    0.0329   -0.3009 C   0  0  0  0  0  0  0  0  0  0  0  0
   -0.8648   -0.9594    0.1509 C   0  0  0  0  0  0  0  0  0  0  0  0
   -2.1691   -0.7647   -0.5983 C   0  0  0  0  0  0  0  0  0  0  0  0
   -2.7211    0.6011   -0.3796 C   0  0  0  0  0  0  0  0  0  0  0  0
   -3.3231    0.9154    0.6337 O   0  0  0  0  0  0  0  0  0  0  0  0
    3.5687   -0.3444   -0.4529 H   0  0  0  0  0  0  0  0  0  0  0  0
    2.4745    0.5996   -1.5912 H   0  0  0  0  0  0  0  0  0  0  0  0
    3.1397    1.3545   -0.1322 H   0  0  0  0  0  0  0  0  0  0  0  0
    1.1160   -1.6572    1.1694 H   0  0  0  0  0  0  0  0  0  0  0  0
    0.8088    2.1300    0.1198 H   0  0  0  0  0  0  0  0  0  0  0  0
    0.1093    1.2118    1.5766 H   0  0  0  0  0  0  0  0  0  0  0  0
    0.2035    0.2485   -1.4099 H   0  0  0  0  0  0  0  0  0  0  0  0
   -1.0775   -0.8396    1.2261 H   0  0  0  0  0  0  0  0  0  0  0  0
   -0.5054   -2.0008    0.0026 H   0  0  0  0  0  0  0  0  0  0  0  0
   -2.1236   -1.0497   -1.6496 H   0  0  0  0  0  0  0  0  0  0  0  0
   -2.9083   -1.4655   -0.1205 H   0  0  0  0  0  0  0  0  0  0  0  0
   -2.6017    1.3739   -1.1312 H   0  0  0  0  0  0  0  0  0  0  0  0
  1  2  1  0
  2  3  1  0
  2  4  1  0
  4  5  1  0
  5  6  1  0
  6  7  1  0
  7  8  1  0
  8  9  2  0
  5  2  1  0
  1 10  1  0
  1 11  1  0
  1 12  1  0
  3 13  1  0
  4 14  1  0
  4 15  1  0
  5 16  1  0
  6 17  1  0
  6 18  1  0
  7 19  1  0
  7 20  1  0
  8 21  1  0
M  END
