
     RDKit          3D

 19 21  0  0  0  0  0  0  0  0999 V2000
    1.9781    0.5227    0.2630 C   0  0  0  0  0  0  0  0  0  0  0  0
    0.6938   -0.3321    0.3870 C   0  0  0  0  0  0  0  0  0  0  0  0
   -0.4752    0.3540   -0.1328 C   0  0  0  0  0  0  0  0  0  0  0  0
   -0.5839    1.6683    0.4510 C   0  0  0  0  0  0  0  0  0  0  0  0
   -1.7133    0.8379    0.6611 C   0  0  0  0  0  0  0  0  0  0  0  0
   -1.9232   -0.6307    0.5718 C   0  0  0  0  0  0  0  0  0  0  0  0
   -1.3925   -0.4681   -0.7020 O   0  0  0  0  0  0  0  0  0  0  0  0
    0.9951   -1.7777    0.0802 C   0  0  0  0  0  0  0  0  0  0  0  0
    0.7980   -1.2844    1.3416 O   0  0  0  0  0  0  0  0  0  0  0  0
    2.6663    0.3537    1.0914 H   0  0  0  0  0  0  0  0  0  0  0  0
    2.4992    0.1681   -0.6666 H   0  0  0  0  0  0  0  0  0  0  0  0
    1.7543    1.5829    0.1694 H   0  0  0  0  0  0  0  0  0  0  0  0
   -0.4615    2.5166   -0.2913 H   0  0  0  0  0  0  0  0  0  0  0  0
   -0.0623    1.9947    1.4025 H   0  0  0  0  0  0  0  0  0  0  0  0
   -2.5601    1.2955    0.0460 H   0  0  0  0  0  0  0  0  0  0  0  0
   -2.9911   -0.9840    0.4327 H   0  0  0  0  0  0  0  0  0  0  0  0
   -1.4874   -1.3009    1.2783 H   0  0  0  0  0  0  0  0  0  0  0  0
    2.0284   -2.1206   -0.1248 H   0  0  0  0  0  0  0  0  0  0  0  0
    0.2373   -2.3960   -0.4327 H   0  0  0  0  0  0  0  0  0  0  0  0
  1  2  1  0
  2  3  1  0
  3  4  1  0
  4  5  1  0
  5  6  1  0
  6  7  1  0
  2  8  1  0
  8  9  1  0
  9  2  1  0
  5  3  1  0
  7  3  1  0
  1 10  1  0
  1 11  1  0
  1 12  1  0
  4 13  1  0
  4 14  1  0
  5 15  1  0
  6 16  1  0
  6 17  1  0
  8 18  1  0
  8 19  1  0
M  END
