
     RDKit          3D

 21 23  0  0  0  0  0  0  0  0999 V2000
    2.6246    0.6552   -0.2103 C   0  0  0  0  0  0  0  0  0  0  0  0
    1.2934   -0.0221   -0.5370 C   0  0  0  0  0  0  0  0  0  0  0  0
    1.3199   -0.8153   -1.6634 O   0  0  0  0  0  0  0  0  0  0  0  0
    0.5724   -0.4680    0.6663 C   0  0  0  0  0  0  0  0  0  0  0  0
   -0.7118   -1.1859    0.4838 C   0  0  0  0  0  0  0  0  0  0  0  0
   -1.4914   -1.1608   -0.7679 C   0  0  0  0  0  0  0  0  0  0  0  0
   -1.2747    0.1336   -0.1098 C   0  0  0  0  0  0  0  0  0  0  0  0
   -2.3108    0.8218    0.7116 C   0  0  0  0  0  0  0  0  0  0  0  0
    0.0798    0.7327   -0.1867 C   0  0  0  0  0  0  0  0  0  0  0  0
    3.2793   -0.0945    0.3092 H   0  0  0  0  0  0  0  0  0  0  0  0
    3.1136    1.0120   -1.1203 H   0  0  0  0  0  0  0  0  0  0  0  0
    2.4810    1.4835    0.5159 H   0  0  0  0  0  0  0  0  0  0  0  0
    2.1815   -1.2809   -1.7666 H   0  0  0  0  0  0  0  0  0  0  0  0
    0.8670   -0.1642    1.6866 H   0  0  0  0  0  0  0  0  0  0  0  0
   -1.1860   -1.5422    1.4230 H   0  0  0  0  0  0  0  0  0  0  0  0
   -0.9656   -1.2988   -1.7440 H   0  0  0  0  0  0  0  0  0  0  0  0
   -2.4672   -1.6697   -0.7397 H   0  0  0  0  0  0  0  0  0  0  0  0
   -2.9263    1.4533    0.0492 H   0  0  0  0  0  0  0  0  0  0  0  0
   -1.7692    1.5205    1.4134 H   0  0  0  0  0  0  0  0  0  0  0  0
   -2.9017    0.1583    1.3611 H   0  0  0  0  0  0  0  0  0  0  0  0
    0.1923    1.7316    0.2259 H   0  0  0  0  0  0  0  0  0  0  0  0
  1  2  1  0
  2  3  1  0
  2  4  1  0
  4  5  1  0
  5  6  1  0
  6  7  1  0
  7  8  1  0
  7  9  1  0
  9  2  1  0
  9  4  1  0
  7  5  1  0
  1 10  1  0
  1 11  1  0
  1 12  1  0
  3 13  1  0
  4 14  1  0
  5 15  1  0
  6 16  1  0
  6 17  1  0
  8 18  1  0
  8 19  1  0
  8 20  1  0
  9 21  1  0
M  END
