
     RDKit          3D

 21 22  0  0  0  0  0  0  0  0999 V2000
    2.0842    0.7455   -0.1702 C   0  0  0  0  0  0  0  0  0  0  0  0
    0.8477    0.1737   -0.7558 C   0  0  0  0  0  0  0  0  0  0  0  0
    0.9838   -0.2099   -2.0970 O   0  0  0  0  0  0  0  0  0  0  0  0
    0.3597   -1.0736    0.0097 C   0  0  0  0  0  0  0  0  0  0  0  0
   -1.0678   -0.6763    0.2310 C   0  0  0  0  0  0  0  0  0  0  0  0
   -1.9389   -1.5112    0.7765 O   0  0  0  0  0  0  0  0  0  0  0  0
   -1.4467    0.0214   -1.0831 C   0  0  0  0  0  0  0  0  0  0  0  0
   -0.3747    1.0189   -0.6104 C   0  0  0  0  0  0  0  0  0  0  0  0
   -0.9311    0.7326    0.7805 C   0  0  0  0  0  0  0  0  0  0  0  0
    2.9592    0.2901   -0.7194 H   0  0  0  0  0  0  0  0  0  0  0  0
    2.1625    1.8301   -0.3523 H   0  0  0  0  0  0  0  0  0  0  0  0
    2.2556    0.4960    0.8973 H   0  0  0  0  0  0  0  0  0  0  0  0
    1.5137   -1.0397   -2.1144 H   0  0  0  0  0  0  0  0  0  0  0  0
    0.8581   -1.0755    1.0090 H   0  0  0  0  0  0  0  0  0  0  0  0
    0.5022   -1.9845   -0.5648 H   0  0  0  0  0  0  0  0  0  0  0  0
   -2.6466   -1.7615    0.1046 H   0  0  0  0  0  0  0  0  0  0  0  0
   -2.4140    0.5172   -1.0786 H   0  0  0  0  0  0  0  0  0  0  0  0
   -1.1385   -0.5254   -1.9698 H   0  0  0  0  0  0  0  0  0  0  0  0
   -0.4208    2.0046   -0.9871 H   0  0  0  0  0  0  0  0  0  0  0  0
   -1.9206    1.1845    0.8845 H   0  0  0  0  0  0  0  0  0  0  0  0
   -0.2270    0.8432    1.6009 H   0  0  0  0  0  0  0  0  0  0  0  0
  1  2  1  0
  2  3  1  0
  2  4  1  0
  4  5  1  0
  5  6  1  0
  5  7  1  0
  7  8  1  0
  8  9  1  0
  8  2  1  0
  9  5  1  0
  1 10  1  0
  1 11  1  0
  1 12  1  0
  3 13  1  0
  4 14  1  0
  4 15  1  0
  6 16  1  0
  7 17  1  0
  7 18  1  0
  8 19  1  0
  9 20  1  0
  9 21  1  0
M  END
