
     RDKit          3D

 21 22  0  0  0  0  0  0  0  0999 V2000
    1.9918   -0.0312    1.1719 C   0  0  0  0  0  0  0  0  0  0  0  0
    1.1066   -0.3742   -0.0046 C   0  0  0  0  0  0  0  0  0  0  0  0
    1.6806   -1.4107   -0.7465 O   0  0  0  0  0  0  0  0  0  0  0  0
    0.7307    0.8088   -0.8299 C   0  0  0  0  0  0  0  0  0  0  0  0
   -0.7568    0.6906   -1.1322 C   0  0  0  0  0  0  0  0  0  0  0  0
   -1.0518   -0.4962   -1.7810 O   0  0  0  0  0  0  0  0  0  0  0  0
   -1.2706   -0.5058   -0.4407 C   0  0  0  0  0  0  0  0  0  0  0  0
   -2.6941   -0.5227    0.0928 C   0  0  0  0  0  0  0  0  0  0  0  0
   -0.2290   -0.8197    0.5686 C   0  0  0  0  0  0  0  0  0  0  0  0
    1.6037   -0.4629    2.1285 H   0  0  0  0  0  0  0  0  0  0  0  0
    2.9917   -0.4717    1.0258 H   0  0  0  0  0  0  0  0  0  0  0  0
    2.0950    1.0620    1.3269 H   0  0  0  0  0  0  0  0  0  0  0  0
    2.5725   -1.0666   -1.0349 H   0  0  0  0  0  0  0  0  0  0  0  0
    1.0157    1.7734   -0.4231 H   0  0  0  0  0  0  0  0  0  0  0  0
    1.2336    0.7154   -1.8367 H   0  0  0  0  0  0  0  0  0  0  0  0
   -1.3653    1.5836   -1.2551 H   0  0  0  0  0  0  0  0  0  0  0  0
   -3.4286   -0.4720   -0.7123 H   0  0  0  0  0  0  0  0  0  0  0  0
   -2.7537    0.3378    0.8093 H   0  0  0  0  0  0  0  0  0  0  0  0
   -2.8594   -1.4281    0.7045 H   0  0  0  0  0  0  0  0  0  0  0  0
   -0.2024   -1.8518    0.9182 H   0  0  0  0  0  0  0  0  0  0  0  0
   -0.4101   -0.1361    1.4505 H   0  0  0  0  0  0  0  0  0  0  0  0
  1  2  1  0
  2  3  1  0
  2  4  1  0
  4  5  1  0
  5  6  1  0
  6  7  1  0
  7  8  1  0
  7  9  1  0
  9  2  1  0
  7  5  1  0
  1 10  1  0
  1 11  1  0
  1 12  1  0
  3 13  1  0
  4 14  1  0
  4 15  1  0
  5 16  1  0
  8 17  1  0
  8 18  1  0
  8 19  1  0
  9 20  1  0
  9 21  1  0
M  END
