
     RDKit          3D

 19 20  0  0  0  0  0  0  0  0999 V2000
   -1.6517    0.0740    1.2662 C   0  0  0  0  0  0  0  0  0  0  0  0
   -0.8268    0.4562    0.0556 C   0  0  0  0  0  0  0  0  0  0  0  0
   -0.4845    1.7797    0.0418 O   0  0  0  0  0  0  0  0  0  0  0  0
   -1.5182   -0.0687   -1.1869 C   0  0  0  0  0  0  0  0  0  0  0  0
   -0.2999   -0.5105   -1.6339 O   0  0  0  0  0  0  0  0  0  0  0  0
    0.2352   -0.5150   -0.3464 C   0  0  0  0  0  0  0  0  0  0  0  0
    1.6216    0.0949   -0.3733 C   0  0  0  0  0  0  0  0  0  0  0  0
    2.7167   -0.6144    0.1708 C   0  0  0  0  0  0  0  0  0  0  0  0
    2.4885   -0.7072   -1.2793 O   0  0  0  0  0  0  0  0  0  0  0  0
   -2.1112   -0.9223    1.0810 H   0  0  0  0  0  0  0  0  0  0  0  0
   -2.4577    0.8501    1.3305 H   0  0  0  0  0  0  0  0  0  0  0  0
   -1.0965    0.1308    2.2092 H   0  0  0  0  0  0  0  0  0  0  0  0
   -0.5818    2.1797    0.9607 H   0  0  0  0  0  0  0  0  0  0  0  0
   -2.2339   -0.9139   -0.9854 H   0  0  0  0  0  0  0  0  0  0  0  0
   -1.9893    0.7609   -1.7375 H   0  0  0  0  0  0  0  0  0  0  0  0
    0.1697   -1.5096    0.1012 H   0  0  0  0  0  0  0  0  0  0  0  0
    1.7228    1.1507   -0.6954 H   0  0  0  0  0  0  0  0  0  0  0  0
    2.5894   -1.5706    0.7013 H   0  0  0  0  0  0  0  0  0  0  0  0
    3.7075   -0.1449    0.3198 H   0  0  0  0  0  0  0  0  0  0  0  0
  1  2  1  0
  2  3  1  0
  2  4  1  0
  4  5  1  0
  5  6  1  0
  6  7  1  0
  7  8  1  0
  8  9  1  0
  6  2  1  0
  9  7  1  0
  1 10  1  0
  1 11  1  0
  1 12  1  0
  3 13  1  0
  4 14  1  0
  4 15  1  0
  6 16  1  0
  7 17  1  0
  8 18  1  0
  8 19  1  0
M  END
