
     RDKit          3D

 17 17  0  0  0  0  0  0  0  0999 V2000
    0.2668    1.8061    0.3339 C   0  0  0  0  0  0  0  0  0  0  0  0
    0.2104    0.3215    0.0847 C   0  0  0  0  0  0  0  0  0  0  0  0
    1.4429   -0.4237    0.5224 C   0  0  0  0  0  0  0  0  0  0  0  0
   -0.3608   -0.0370   -1.2779 C   0  0  0  0  0  0  0  0  0  0  0  0
   -1.1117   -0.3254    0.0094 C   0  0  0  0  0  0  0  0  0  0  0  0
   -1.3067   -1.7583    0.2587 C   0  0  0  0  0  0  0  0  0  0  0  0
   -0.4473   -2.5765    0.0266 O   0  0  0  0  0  0  0  0  0  0  0  0
   -0.7461    2.2818    0.2114 H   0  0  0  0  0  0  0  0  0  0  0  0
    0.8677    2.2326   -0.5204 H   0  0  0  0  0  0  0  0  0  0  0  0
    0.6820    2.0861    1.3012 H   0  0  0  0  0  0  0  0  0  0  0  0
    1.6055   -1.3670   -0.0032 H   0  0  0  0  0  0  0  0  0  0  0  0
    1.5059   -0.5727    1.6091 H   0  0  0  0  0  0  0  0  0  0  0  0
    2.3191    0.2355    0.2580 H   0  0  0  0  0  0  0  0  0  0  0  0
    0.0968   -0.8691   -1.8381 H   0  0  0  0  0  0  0  0  0  0  0  0
   -0.8070    0.7473   -1.9010 H   0  0  0  0  0  0  0  0  0  0  0  0
   -1.9744    0.3224    0.2635 H   0  0  0  0  0  0  0  0  0  0  0  0
   -2.2431   -2.1036    0.6617 H   0  0  0  0  0  0  0  0  0  0  0  0
  1  2  1  0
  2  3  1  0
  2  4  1  0
  4  5  1  0
  5  6  1  0
  6  7  2  0
  5  2  1  0
  1  8  1  0
  1  9  1  0
  1 10  1  0
  3 11  1  0
  3 12  1  0
  3 13  1  0
  4 14  1  0
  4 15  1  0
  5 16  1  0
  6 17  1  0
M  END
