
     RDKit          3D

 18 19  0  0  0  0  0  0  0  0999 V2000
    2.0909   -0.3027   -0.2815 C   0  0  0  0  0  0  0  0  0  0  0  0
    0.7275    0.2519    0.0188 C   0  0  0  0  0  0  0  0  0  0  0  0
    0.6679    1.6024    0.0673 O   0  0  0  0  0  0  0  0  0  0  0  0
    0.1739   -0.4627    1.2740 C   0  0  0  0  0  0  0  0  0  0  0  0
   -1.1171    0.0756    0.6967 C   0  0  0  0  0  0  0  0  0  0  0  0
   -1.8119   -0.3088   -0.4881 C   0  0  0  0  0  0  0  0  0  0  0  0
   -2.3750    0.6295   -1.3939 O   0  0  0  0  0  0  0  0  0  0  0  0
   -0.4137   -0.5143   -0.5999 C   0  0  0  0  0  0  0  0  0  0  0  0
    1.9594   -1.4089   -0.4335 H   0  0  0  0  0  0  0  0  0  0  0  0
    2.5871    0.1495   -1.1368 H   0  0  0  0  0  0  0  0  0  0  0  0
    2.7297   -0.1264    0.6109 H   0  0  0  0  0  0  0  0  0  0  0  0
    0.4241    2.0674   -0.7497 H   0  0  0  0  0  0  0  0  0  0  0  0
    0.2315   -1.5478    1.1971 H   0  0  0  0  0  0  0  0  0  0  0  0
    0.4476   -0.0048    2.2167 H   0  0  0  0  0  0  0  0  0  0  0  0
   -1.0572    1.2074    0.7776 H   0  0  0  0  0  0  0  0  0  0  0  0
   -2.5495   -1.1608   -0.3684 H   0  0  0  0  0  0  0  0  0  0  0  0
   -2.5844    1.4680   -0.9139 H   0  0  0  0  0  0  0  0  0  0  0  0
   -0.1306   -1.6146   -0.4935 H   0  0  0  0  0  0  0  0  0  0  0  0
  1  2  1  0
  2  3  1  0
  2  4  1  0
  4  5  1  0
  5  6  1  0
  6  7  1  0
  6  8  1  0
  8  2  1  0
  8  5  1  0
  1  9  1  0
  1 10  1  0
  1 11  1  0
  3 12  1  0
  4 13  1  0
  4 14  1  0
  5 15  1  0
  6 16  1  0
  7 17  1  0
  8 18  1  0
M  END
