
     RDKit          3D

 19 20  0  0  0  0  0  0  0  0999 V2000
    1.7048   -0.5691   -0.4955 C   0  0  0  0  0  0  0  0  0  0  0  0
    0.2719   -0.6519   -0.0129 C   0  0  0  0  0  0  0  0  0  0  0  0
   -0.0635   -1.8056    0.8423 C   0  0  0  0  0  0  0  0  0  0  0  0
    0.8271   -2.4304    1.3899 O   0  0  0  0  0  0  0  0  0  0  0  0
   -0.7028    0.0126   -0.8828 C   0  0  0  0  0  0  0  0  0  0  0  0
   -2.1429   -0.0349   -0.4448 C   0  0  0  0  0  0  0  0  0  0  0  0
   -1.7279    0.6379    0.7197 O   0  0  0  0  0  0  0  0  0  0  0  0
   -0.4006    0.6347    0.4073 C   0  0  0  0  0  0  0  0  0  0  0  0
    0.5008    1.7830    0.6152 C   0  0  0  0  0  0  0  0  0  0  0  0
    1.8553    0.3374   -1.1119 H   0  0  0  0  0  0  0  0  0  0  0  0
    2.4332   -0.5673    0.3167 H   0  0  0  0  0  0  0  0  0  0  0  0
    1.8438   -1.4280   -1.2030 H   0  0  0  0  0  0  0  0  0  0  0  0
   -1.0697   -2.1569    1.0315 H   0  0  0  0  0  0  0  0  0  0  0  0
   -0.4219    0.4614   -1.8451 H   0  0  0  0  0  0  0  0  0  0  0  0
   -2.5522   -1.0488   -0.2687 H   0  0  0  0  0  0  0  0  0  0  0  0
   -2.7613    0.5701   -1.1323 H   0  0  0  0  0  0  0  0  0  0  0  0
    1.2730    1.4843    1.3831 H   0  0  0  0  0  0  0  0  0  0  0  0
    0.0313    2.7034    0.9763 H   0  0  0  0  0  0  0  0  0  0  0  0
    1.1018    2.0683   -0.2850 H   0  0  0  0  0  0  0  0  0  0  0  0
  1  2  1  0
  2  3  1  0
  3  4  2  0
  2  5  1  0
  5  6  1  0
  6  7  1  0
  7  8  1  0
  8  9  1  0
  8  2  1  0
  8  5  1  0
  1 10  1  0
  1 11  1  0
  1 12  1  0
  3 13  1  0
  5 14  1  0
  6 15  1  0
  6 16  1  0
  9 17  1  0
  9 18  1  0
  9 19  1  0
M  END
