
     RDKit          3D

 25 25  0  0  0  0  0  0  0  0999 V2000
   -2.5667    0.1404   -0.1515 C   0  0  0  0  0  0  0  0  0  0  0  0
   -1.1307   -0.0187    0.2751 C   0  0  0  0  0  0  0  0  0  0  0  0
   -0.9683   -0.1791    1.6313 O   0  0  0  0  0  0  0  0  0  0  0  0
   -0.3634    1.1829   -0.2029 C   0  0  0  0  0  0  0  0  0  0  0  0
    0.9010    1.4325    0.5565 C   0  0  0  0  0  0  0  0  0  0  0  0
    2.0797    0.6689    0.0764 C   0  0  0  0  0  0  0  0  0  0  0  0
    1.7585   -0.6047   -0.6387 C   0  0  0  0  0  0  0  0  0  0  0  0
    0.7963   -1.4815    0.1011 C   0  0  0  0  0  0  0  0  0  0  0  0
   -0.5812   -1.2220   -0.4986 C   0  0  0  0  0  0  0  0  0  0  0  0
   -2.5349    0.4014   -1.2490 H   0  0  0  0  0  0  0  0  0  0  0  0
   -3.0411    0.9056    0.4597 H   0  0  0  0  0  0  0  0  0  0  0  0
   -3.1066   -0.8436   -0.1236 H   0  0  0  0  0  0  0  0  0  0  0  0
   -1.5429   -0.8737    2.0157 H   0  0  0  0  0  0  0  0  0  0  0  0
   -0.0853    1.0741   -1.2803 H   0  0  0  0  0  0  0  0  0  0  0  0
   -1.0586    2.0596   -0.1180 H   0  0  0  0  0  0  0  0  0  0  0  0
    0.6791    1.2952    1.6415 H   0  0  0  0  0  0  0  0  0  0  0  0
    1.1336    2.5320    0.4385 H   0  0  0  0  0  0  0  0  0  0  0  0
    2.7610    0.4254    0.9314 H   0  0  0  0  0  0  0  0  0  0  0  0
    2.7087    1.2848   -0.6178 H   0  0  0  0  0  0  0  0  0  0  0  0
    1.3623   -0.3148   -1.6531 H   0  0  0  0  0  0  0  0  0  0  0  0
    2.7121   -1.1498   -0.8138 H   0  0  0  0  0  0  0  0  0  0  0  0
    0.8396   -1.1920    1.1736 H   0  0  0  0  0  0  0  0  0  0  0  0
    1.0023   -2.5499    0.0394 H   0  0  0  0  0  0  0  0  0  0  0  0
   -1.2463   -2.0807   -0.4347 H   0  0  0  0  0  0  0  0  0  0  0  0
   -0.5082   -0.8922   -1.5583 H   0  0  0  0  0  0  0  0  0  0  0  0
  1  2  1  0
  2  3  1  0
  2  4  1  0
  4  5  1  0
  5  6  1  0
  6  7  1  0
  7  8  1  0
  8  9  1  0
  9  2  1  0
  1 10  1  0
  1 11  1  0
  1 12  1  0
  3 13  1  0
  4 14  1  0
  4 15  1  0
  5 16  1  0
  5 17  1  0
  6 18  1  0
  6 19  1  0
  7 20  1  0
  7 21  1  0
  8 22  1  0
  8 23  1  0
  9 24  1  0
  9 25  1  0
M  END
