
     RDKit          3D

 25 26  0  0  0  0  0  0  0  0999 V2000
   -1.9362    1.4101   -0.3718 C   0  0  0  0  0  0  0  0  0  0  0  0
   -1.2838    0.1767    0.1763 C   0  0  0  0  0  0  0  0  0  0  0  0
   -1.9102   -1.1146   -0.2447 C   0  0  0  0  0  0  0  0  0  0  0  0
   -0.7269    0.3438    1.5647 C   0  0  0  0  0  0  0  0  0  0  0  0
    0.1689    0.1069    0.4472 C   0  0  0  0  0  0  0  0  0  0  0  0
    1.0347    1.1096   -0.2031 C   0  0  0  0  0  0  0  0  0  0  0  0
    2.1456    0.3274   -0.9131 C   0  0  0  0  0  0  0  0  0  0  0  0
    2.2295   -0.9917   -0.2104 C   0  0  0  0  0  0  0  0  0  0  0  0
    0.8854   -1.2192    0.4030 C   0  0  0  0  0  0  0  0  0  0  0  0
   -1.3282    2.3254   -0.2696 H   0  0  0  0  0  0  0  0  0  0  0  0
   -2.8512    1.5940    0.2645 H   0  0  0  0  0  0  0  0  0  0  0  0
   -2.3298    1.2879   -1.4012 H   0  0  0  0  0  0  0  0  0  0  0  0
   -2.9939   -0.9842   -0.4953 H   0  0  0  0  0  0  0  0  0  0  0  0
   -1.4371   -1.4113   -1.2264 H   0  0  0  0  0  0  0  0  0  0  0  0
   -1.8056   -1.9356    0.4652 H   0  0  0  0  0  0  0  0  0  0  0  0
   -0.7796    1.3438    2.0602 H   0  0  0  0  0  0  0  0  0  0  0  0
   -0.9400   -0.4861    2.2464 H   0  0  0  0  0  0  0  0  0  0  0  0
    0.4607    1.6625   -0.9924 H   0  0  0  0  0  0  0  0  0  0  0  0
    1.5029    1.8442    0.4468 H   0  0  0  0  0  0  0  0  0  0  0  0
    3.1083    0.8598   -0.8110 H   0  0  0  0  0  0  0  0  0  0  0  0
    1.9311    0.1669   -1.9699 H   0  0  0  0  0  0  0  0  0  0  0  0
    2.4413   -1.8344   -0.9207 H   0  0  0  0  0  0  0  0  0  0  0  0
    3.0653   -1.0341    0.5390 H   0  0  0  0  0  0  0  0  0  0  0  0
    1.0313   -1.5252    1.4807 H   0  0  0  0  0  0  0  0  0  0  0  0
    0.3174   -2.0225   -0.0644 H   0  0  0  0  0  0  0  0  0  0  0  0
  1  2  1  0
  2  3  1  0
  2  4  1  0
  4  5  1  0
  5  6  1  0
  6  7  1  0
  7  8  1  0
  8  9  1  0
  5  2  1  0
  9  5  1  0
  1 10  1  0
  1 11  1  0
  1 12  1  0
  3 13  1  0
  3 14  1  0
  3 15  1  0
  4 16  1  0
  4 17  1  0
  6 18  1  0
  6 19  1  0
  7 20  1  0
  7 21  1  0
  8 22  1  0
  8 23  1  0
  9 24  1  0
  9 25  1  0
M  END
