
     RDKit          3D

 23 23  0  0  0  0  0  0  0  0999 V2000
   -1.8866   -0.1484    1.2174 C   0  0  0  0  0  0  0  0  0  0  0  0
   -0.9453   -0.1899    0.0140 C   0  0  0  0  0  0  0  0  0  0  0  0
   -1.8657   -0.6124   -1.1496 C   0  0  0  0  0  0  0  0  0  0  0  0
   -0.5387    1.2731   -0.2361 C   0  0  0  0  0  0  0  0  0  0  0  0
    0.6871    1.7622   -0.3091 C   0  0  0  0  0  0  0  0  0  0  0  0
    2.0101    1.1856   -0.1960 C   0  0  0  0  0  0  0  0  0  0  0  0
    2.4436   -0.0412    0.0203 C   0  0  0  0  0  0  0  0  0  0  0  0
    1.6265   -1.3157    0.2320 C   0  0  0  0  0  0  0  0  0  0  0  0
    0.2444   -0.9461    0.1612 C   0  0  0  0  0  0  0  0  0  0  0  0
   -2.9205   -0.3620    0.9997 H   0  0  0  0  0  0  0  0  0  0  0  0
   -1.7441    0.8006    1.7929 H   0  0  0  0  0  0  0  0  0  0  0  0
   -1.5193   -0.9752    1.8947 H   0  0  0  0  0  0  0  0  0  0  0  0
   -2.3836   -1.5188   -0.7883 H   0  0  0  0  0  0  0  0  0  0  0  0
   -1.1814   -0.8901   -1.9796 H   0  0  0  0  0  0  0  0  0  0  0  0
   -2.5166    0.2286   -1.3875 H   0  0  0  0  0  0  0  0  0  0  0  0
   -1.3317    1.9803   -0.3667 H   0  0  0  0  0  0  0  0  0  0  0  0
    0.6899    2.8308   -0.4947 H   0  0  0  0  0  0  0  0  0  0  0  0
    2.8202    1.8897   -0.3092 H   0  0  0  0  0  0  0  0  0  0  0  0
    3.5026   -0.1824    0.0555 H   0  0  0  0  0  0  0  0  0  0  0  0
    1.9462   -2.1053   -0.5063 H   0  0  0  0  0  0  0  0  0  0  0  0
    1.9296   -1.8107    1.1902 H   0  0  0  0  0  0  0  0  0  0  0  0
    0.4756   -0.5969   -0.9061 H   0  0  0  0  0  0  0  0  0  0  0  0
    0.4576   -0.2559    1.0515 H   0  0  0  0  0  0  0  0  0  0  0  0
  1  2  1  0
  2  3  1  0
  2  4  1  0
  4  5  2  0
  5  6  1  0
  6  7  2  0
  7  8  1  0
  8  9  1  0
  9  2  1  0
  1 10  1  0
  1 11  1  0
  1 12  1  0
  3 13  1  0
  3 14  1  0
  3 15  1  0
  4 16  1  0
  5 17  1  0
  6 18  1  0
  7 19  1  0
  8 20  1  0
  8 21  1  0
  9 22  1  0
  9 23  1  0
M  END
