
     RDKit          3D

 23 24  0  0  0  0  0  0  0  0999 V2000
   -1.3504   -1.3350    0.9093 C   0  0  0  0  0  0  0  0  0  0  0  0
   -0.9024   -0.1086    0.1766 C   0  0  0  0  0  0  0  0  0  0  0  0
   -2.0502    0.4668   -0.5845 C   0  0  0  0  0  0  0  0  0  0  0  0
   -0.3964    0.8821    1.0111 O   0  0  0  0  0  0  0  0  0  0  0  0
    0.3821    1.7044    0.2107 C   0  0  0  0  0  0  0  0  0  0  0  0
    1.1230    0.7823   -0.7223 C   0  0  0  0  0  0  0  0  0  0  0  0
    2.2670    0.1160   -0.0071 C   0  0  0  0  0  0  0  0  0  0  0  0
    1.3659   -1.0868    0.2016 C   0  0  0  0  0  0  0  0  0  0  0  0
    0.2817   -0.4658   -0.6715 C   0  0  0  0  0  0  0  0  0  0  0  0
   -0.6030   -2.1790    0.8385 H   0  0  0  0  0  0  0  0  0  0  0  0
   -2.2571   -1.7455    0.3741 H   0  0  0  0  0  0  0  0  0  0  0  0
   -1.6639   -1.1500    1.9450 H   0  0  0  0  0  0  0  0  0  0  0  0
   -2.1829    0.0836   -1.5951 H   0  0  0  0  0  0  0  0  0  0  0  0
   -2.9877    0.1868   -0.0199 H   0  0  0  0  0  0  0  0  0  0  0  0
   -2.0415    1.5857   -0.5566 H   0  0  0  0  0  0  0  0  0  0  0  0
   -0.1870    2.4199   -0.3899 H   0  0  0  0  0  0  0  0  0  0  0  0
    1.0957    2.2865    0.8255 H   0  0  0  0  0  0  0  0  0  0  0  0
    1.3856    1.1685   -1.7035 H   0  0  0  0  0  0  0  0  0  0  0  0
    2.5668    0.6425    0.9261 H   0  0  0  0  0  0  0  0  0  0  0  0
    3.1671   -0.0923   -0.6029 H   0  0  0  0  0  0  0  0  0  0  0  0
    1.7987   -2.0263   -0.2277 H   0  0  0  0  0  0  0  0  0  0  0  0
    1.1127   -1.1645    1.2724 H   0  0  0  0  0  0  0  0  0  0  0  0
    0.0763   -0.9712   -1.6099 H   0  0  0  0  0  0  0  0  0  0  0  0
  1  2  1  0
  2  3  1  0
  2  4  1  0
  4  5  1  0
  5  6  1  0
  6  7  1  0
  7  8  1  0
  8  9  1  0
  9  2  1  0
  9  6  1  0
  1 10  1  0
  1 11  1  0
  1 12  1  0
  3 13  1  0
  3 14  1  0
  3 15  1  0
  5 16  1  0
  5 17  1  0
  6 18  1  0
  7 19  1  0
  7 20  1  0
  8 21  1  0
  8 22  1  0
  9 23  1  0
M  END
