
     RDKit          3D

 19 20  0  0  0  0  0  0  0  0999 V2000
    1.6139   -1.0689    0.4159 C   0  0  0  0  0  0  0  0  0  0  0  0
    0.6944    0.0323    0.0061 C   0  0  0  0  0  0  0  0  0  0  0  0
    1.3521    1.3557    0.1112 C   0  0  0  0  0  0  0  0  0  0  0  0
    2.4478    1.5030    0.6286 O   0  0  0  0  0  0  0  0  0  0  0  0
   -0.1220   -0.1858   -1.2310 C   0  0  0  0  0  0  0  0  0  0  0  0
   -1.4012    0.0637   -0.5099 C   0  0  0  0  0  0  0  0  0  0  0  0
   -2.4614   -0.8280   -0.6473 O   0  0  0  0  0  0  0  0  0  0  0  0
   -1.5347    1.0824    0.5463 C   0  0  0  0  0  0  0  0  0  0  0  0
   -0.5882   -0.0206    0.8101 C   0  0  0  0  0  0  0  0  0  0  0  0
    2.6325   -0.9171    0.0273 H   0  0  0  0  0  0  0  0  0  0  0  0
    1.2487   -2.0844    0.1784 H   0  0  0  0  0  0  0  0  0  0  0  0
    1.6923   -1.0249    1.5418 H   0  0  0  0  0  0  0  0  0  0  0  0
    0.8746    2.2503   -0.2736 H   0  0  0  0  0  0  0  0  0  0  0  0
    0.0654    0.5195   -2.0707 H   0  0  0  0  0  0  0  0  0  0  0  0
   -0.0645   -1.2442   -1.6001 H   0  0  0  0  0  0  0  0  0  0  0  0
   -2.1218   -1.7238   -0.9221 H   0  0  0  0  0  0  0  0  0  0  0  0
   -2.4489    1.0973    1.1351 H   0  0  0  0  0  0  0  0  0  0  0  0
   -1.0492    2.0949    0.4447 H   0  0  0  0  0  0  0  0  0  0  0  0
   -0.8301   -0.9014    1.4093 H   0  0  0  0  0  0  0  0  0  0  0  0
  1  2  1  0
  2  3  1  0
  3  4  2  0
  2  5  1  0
  5  6  1  0
  6  7  1  0
  6  8  1  0
  8  9  1  0
  9  2  1  0
  9  6  1  0
  1 10  1  0
  1 11  1  0
  1 12  1  0
  3 13  1  0
  5 14  1  0
  5 15  1  0
  7 16  1  0
  8 17  1  0
  8 18  1  0
  9 19  1  0
M  END
