
     RDKit          2D

 21 23  0  0  0  0  0  0  0  0999 V2000
   -2.8883   -1.2909    0.0000 C   0  0  0  0  0  0  0  0  0  0  0  0
   -1.5133   -0.6913    0.0000 C   0  0  0  0  0  0  0  0  0  0  0  0
   -2.2535    0.6134    0.0000 C   0  0  0  0  0  0  0  0  0  0  0  0
   -1.0607   -2.1213    0.0000 C   0  0  0  0  0  0  0  0  0  0  0  0
   -2.1213   -1.0607    0.0000 C   0  0  0  0  0  0  0  0  0  0  0  0
   -1.0607    0.0000    0.0000 C   0  0  0  0  0  0  0  0  0  0  0  0
   -0.0000   -1.0607    0.0000 C   0  0  0  0  0  0  0  0  0  0  0  0
    1.0607    0.0000    0.0000 O   0  0  0  0  0  0  0  0  0  0  0  0
    0.0000    1.0607    0.0000 C   0  0  0  0  0  0  0  0  0  0  0  0
   -4.2632   -1.8906    0.0000 H   0  0  0  0  0  0  0  0  0  0  0  0
   -3.3743   -0.6591    0.0000 H   0  0  0  0  0  0  0  0  0  0  0  0
   -2.2886   -2.6659    0.0000 H   0  0  0  0  0  0  0  0  0  0  0  0
   -2.9936    1.9181    0.0000 H   0  0  0  0  0  0  0  0  0  0  0  0
   -3.1067    0.3758    0.0000 H   0  0  0  0  0  0  0  0  0  0  0  0
   -0.9488    1.3536    0.0000 H   0  0  0  0  0  0  0  0  0  0  0  0
   -1.0607   -3.6213    0.0000 H   0  0  0  0  0  0  0  0  0  0  0  0
   -3.0759   -0.1061    0.0000 H   0  0  0  0  0  0  0  0  0  0  0  0
   -3.1820   -2.1213    0.0000 H   0  0  0  0  0  0  0  0  0  0  0  0
   -1.8331    1.2858    0.0000 H   0  0  0  0  0  0  0  0  0  0  0  0
    1.0607   -2.1213    0.0000 H   0  0  0  0  0  0  0  0  0  0  0  0
    0.0000    2.5607    0.0000 H   0  0  0  0  0  0  0  0  0  0  0  0
  1  2  1  0
  2  3  1  0
  2  4  1  0
  4  5  1  0
  5  6  1  0
  6  7  1  0
  7  8  1  0
  8  9  1  0
  9  2  1  0
  7  4  1  0
  9  6  1  0
  1 10  1  0
  1 11  1  0
  1 12  1  0
  3 13  1  0
  3 14  1  0
  3 15  1  0
  4 16  1  0
  5 17  1  0
  5 18  1  0
  6 19  1  0
  7 20  1  0
  9 21  1  0
M  END
