
     RDKit          3D

 17 17  0  0  0  0  0  0  0  0999 V2000
   -0.8931   -1.1642   -0.5745 C   0  0  0  0  0  0  0  0  0  0  0  0
   -0.2410    0.0710    0.0127 C   0  0  0  0  0  0  0  0  0  0  0  0
    1.1499    0.3633   -0.4296 C   0  0  0  0  0  0  0  0  0  0  0  0
    2.1141   -0.7185   -0.1098 C   0  0  0  0  0  0  0  0  0  0  0  0
    1.8359   -1.7486    0.4526 O   0  0  0  0  0  0  0  0  0  0  0  0
   -0.7962    0.5548    1.2941 C   0  0  0  0  0  0  0  0  0  0  0  0
   -1.1404    1.3111    0.0578 C   0  0  0  0  0  0  0  0  0  0  0  0
   -0.1460   -1.9463   -0.7711 H   0  0  0  0  0  0  0  0  0  0  0  0
   -1.6419   -1.6124    0.1395 H   0  0  0  0  0  0  0  0  0  0  0  0
   -1.4828   -0.9247   -1.4905 H   0  0  0  0  0  0  0  0  0  0  0  0
    1.1792    0.5048   -1.5286 H   0  0  0  0  0  0  0  0  0  0  0  0
    1.5166    1.3104    0.0215 H   0  0  0  0  0  0  0  0  0  0  0  0
    3.1458   -0.5448   -0.4168 H   0  0  0  0  0  0  0  0  0  0  0  0
   -1.6236   -0.0335    1.7530 H   0  0  0  0  0  0  0  0  0  0  0  0
   -0.1724    1.0588    2.0548 H   0  0  0  0  0  0  0  0  0  0  0  0
   -0.6723    2.3013   -0.0409 H   0  0  0  0  0  0  0  0  0  0  0  0
   -2.1318    1.2174   -0.4244 H   0  0  0  0  0  0  0  0  0  0  0  0
  1  2  1  0
  2  3  1  0
  3  4  1  0
  4  5  2  0
  2  6  1  0
  6  7  1  0
  7  2  1  0
  1  8  1  0
  1  9  1  0
  1 10  1  0
  3 11  1  0
  3 12  1  0
  4 13  1  0
  6 14  1  0
  6 15  1  0
  7 16  1  0
  7 17  1  0
M  END
