
     RDKit          3D

 20 21  0  0  0  0  0  0  0  0999 V2000
   -2.1158   -0.2141   -0.5285 C   0  0  0  0  0  0  0  0  0  0  0  0
   -0.7351    0.1012   -0.0728 C   0  0  0  0  0  0  0  0  0  0  0  0
   -0.5544    1.3148    0.7730 C   0  0  0  0  0  0  0  0  0  0  0  0
    0.0242   -1.1040    0.4988 C   0  0  0  0  0  0  0  0  0  0  0  0
    1.2272   -0.5017   -0.1704 C   0  0  0  0  0  0  0  0  0  0  0  0
    2.3188   -0.0243    0.4788 C   0  0  0  0  0  0  0  0  0  0  0  0
    2.3507   -1.2012   -0.4329 O   0  0  0  0  0  0  0  0  0  0  0  0
    0.3242    0.0715   -1.1888 C   0  0  0  0  0  0  0  0  0  0  0  0
   -2.0430   -1.0794   -1.2428 H   0  0  0  0  0  0  0  0  0  0  0  0
   -2.5220    0.6270   -1.0922 H   0  0  0  0  0  0  0  0  0  0  0  0
   -2.7386   -0.5579    0.3033 H   0  0  0  0  0  0  0  0  0  0  0  0
   -1.3764    2.0369    0.6963 H   0  0  0  0  0  0  0  0  0  0  0  0
   -0.3890    0.9613    1.8286 H   0  0  0  0  0  0  0  0  0  0  0  0
    0.3844    1.8747    0.5100 H   0  0  0  0  0  0  0  0  0  0  0  0
    0.0101   -1.0906    1.5906 H   0  0  0  0  0  0  0  0  0  0  0  0
   -0.2392   -2.0618    0.0013 H   0  0  0  0  0  0  0  0  0  0  0  0
    2.6361   -0.3715    1.4835 H   0  0  0  0  0  0  0  0  0  0  0  0
    2.9813    0.7983    0.0968 H   0  0  0  0  0  0  0  0  0  0  0  0
    0.5229    1.0773   -1.5734 H   0  0  0  0  0  0  0  0  0  0  0  0
   -0.0663   -0.6565   -1.9593 H   0  0  0  0  0  0  0  0  0  0  0  0
  1  2  1  0
  2  3  1  0
  2  4  1  0
  4  5  1  0
  5  6  1  0
  6  7  1  0
  5  8  1  0
  8  2  1  0
  7  5  1  0
  1  9  1  0
  1 10  1  0
  1 11  1  0
  3 12  1  0
  3 13  1  0
  3 14  1  0
  4 15  1  0
  4 16  1  0
  6 17  1  0
  6 18  1  0
  8 19  1  0
  8 20  1  0
M  END
