
     RDKit          3D

 17 17  0  0  0  0  0  0  0  0999 V2000
   -0.7009    1.4821    0.1626 C   0  0  0  0  0  0  0  0  0  0  0  0
   -0.9938    0.0495    0.4596 C   0  0  0  0  0  0  0  0  0  0  0  0
   -2.4575   -0.2332    0.8215 C   0  0  0  0  0  0  0  0  0  0  0  0
   -0.1540   -0.5156    1.5295 O   0  0  0  0  0  0  0  0  0  0  0  0
   -0.1601   -1.0054    0.1039 C   0  0  0  0  0  0  0  0  0  0  0  0
    1.1730   -0.7617   -0.4586 C   0  0  0  0  0  0  0  0  0  0  0  0
    2.2683   -0.5779   -0.9341 C   0  0  0  0  0  0  0  0  0  0  0  0
    3.5780   -0.3669   -1.4768 C   0  0  0  0  0  0  0  0  0  0  0  0
    4.6324   -0.7296   -0.9036 O   0  0  0  0  0  0  0  0  0  0  0  0
   -0.1955    1.9347    1.0179 H   0  0  0  0  0  0  0  0  0  0  0  0
   -1.6543    2.0240   -0.1006 H   0  0  0  0  0  0  0  0  0  0  0  0
   -0.0662    1.5648   -0.7401 H   0  0  0  0  0  0  0  0  0  0  0  0
   -2.8121    0.4265    1.6296 H   0  0  0  0  0  0  0  0  0  0  0  0
   -2.5408   -1.2961    1.1761 H   0  0  0  0  0  0  0  0  0  0  0  0
   -3.0568   -0.0602   -0.0961 H   0  0  0  0  0  0  0  0  0  0  0  0
   -0.5082   -2.0666    0.1767 H   0  0  0  0  0  0  0  0  0  0  0  0
    3.6485    0.1315   -2.4294 H   0  0  0  0  0  0  0  0  0  0  0  0
  1  2  1  0
  2  3  1  0
  2  4  1  0
  4  5  1  0
  5  6  1  0
  6  7  3  0
  7  8  1  0
  8  9  2  0
  5  2  1  0
  1 10  1  0
  1 11  1  0
  1 12  1  0
  3 13  1  0
  3 14  1  0
  3 15  1  0
  5 16  1  0
  8 17  1  0
M  END
