
     RDKit          3D

 18 19  0  0  0  0  0  0  0  0999 V2000
   -1.7844    0.0444   -0.5069 C   0  0  0  0  0  0  0  0  0  0  0  0
   -0.8609   -0.5382    0.5352 C   0  0  0  0  0  0  0  0  0  0  0  0
   -1.5312   -1.2257    1.5482 O   0  0  0  0  0  0  0  0  0  0  0  0
    0.4720   -1.0512    0.1881 C   0  0  0  0  0  0  0  0  0  0  0  0
    1.2049   -0.6885   -1.0189 C   0  0  0  0  0  0  0  0  0  0  0  0
    1.4685    0.5959   -1.1304 C   0  0  0  0  0  0  0  0  0  0  0  0
    0.9165    1.2942    0.0503 C   0  0  0  0  0  0  0  0  0  0  0  0
    0.2849    0.2873    0.9251 C   0  0  0  0  0  0  0  0  0  0  0  0
   -1.2456    0.5424   -1.3247 H   0  0  0  0  0  0  0  0  0  0  0  0
   -2.5139   -0.6766   -0.8975 H   0  0  0  0  0  0  0  0  0  0  0  0
   -2.3799    0.8461    0.0173 H   0  0  0  0  0  0  0  0  0  0  0  0
   -0.9085   -1.4813    2.2920 H   0  0  0  0  0  0  0  0  0  0  0  0
    0.9194   -1.8465    0.8161 H   0  0  0  0  0  0  0  0  0  0  0  0
    1.4993   -1.4583   -1.7597 H   0  0  0  0  0  0  0  0  0  0  0  0
    2.0178    1.0809   -1.9754 H   0  0  0  0  0  0  0  0  0  0  0  0
    0.1986    2.0684   -0.3375 H   0  0  0  0  0  0  0  0  0  0  0  0
    1.6929    1.8987    0.5781 H   0  0  0  0  0  0  0  0  0  0  0  0
    0.5496    0.3081    2.0006 H   0  0  0  0  0  0  0  0  0  0  0  0
  1  2  1  0
  2  3  1  0
  2  4  1  0
  4  5  1  0
  5  6  2  0
  6  7  1  0
  7  8  1  0
  8  2  1  0
  8  4  1  0
  1  9  1  0
  1 10  1  0
  1 11  1  0
  3 12  1  0
  4 13  1  0
  5 14  1  0
  6 15  1  0
  7 16  1  0
  7 17  1  0
  8 18  1  0
M  END
