
     RDKit          3D

 17 17  0  0  0  0  0  0  0  0999 V2000
   -1.3616    1.4785   -0.5185 C   0  0  0  0  0  0  0  0  0  0  0  0
   -0.7050    0.2448    0.1325 C   0  0  0  0  0  0  0  0  0  0  0  0
   -1.4277   -0.1579    1.3738 C   0  0  0  0  0  0  0  0  0  0  0  0
   -0.8978   -0.2488    2.4482 O   0  0  0  0  0  0  0  0  0  0  0  0
   -0.5276   -0.9199   -0.7967 C   0  0  0  0  0  0  0  0  0  0  0  0
    0.6465   -0.0926   -0.2063 C   0  0  0  0  0  0  0  0  0  0  0  0
    1.5384   -0.8446    0.5788 O   0  0  0  0  0  0  0  0  0  0  0  0
    2.8579   -0.8233    0.4261 C   0  0  0  0  0  0  0  0  0  0  0  0
    3.2964   -0.0264   -0.5031 O   0  0  0  0  0  0  0  0  0  0  0  0
   -0.8907    1.5832   -1.5072 H   0  0  0  0  0  0  0  0  0  0  0  0
   -2.4539    1.4512   -0.5008 H   0  0  0  0  0  0  0  0  0  0  0  0
   -0.9762    2.3769    0.0615 H   0  0  0  0  0  0  0  0  0  0  0  0
   -2.5132   -0.4048    1.3430 H   0  0  0  0  0  0  0  0  0  0  0  0
   -0.6489   -1.9481   -0.4102 H   0  0  0  0  0  0  0  0  0  0  0  0
   -0.7251   -0.8572   -1.8694 H   0  0  0  0  0  0  0  0  0  0  0  0
    1.1819    0.5079   -0.9750 H   0  0  0  0  0  0  0  0  0  0  0  0
    3.6065   -1.3188    0.9234 H   0  0  0  0  0  0  0  0  0  0  0  0
  1  2  1  0
  2  3  1  0
  3  4  2  0
  2  5  1  0
  5  6  1  0
  6  7  1  0
  7  8  1  0
  8  9  2  0
  6  2  1  0
  1 10  1  0
  1 11  1  0
  1 12  1  0
  3 13  1  0
  5 14  1  0
  5 15  1  0
  6 16  1  0
  8 17  1  0
M  END
