
     RDKit          3D

 23 23  0  0  0  0  0  0  0  0999 V2000
   -1.5170    1.0544    0.8154 C   0  0  0  0  0  0  0  0  0  0  0  0
   -0.7419    0.0461   -0.0311 C   0  0  0  0  0  0  0  0  0  0  0  0
   -1.7711   -0.4725   -1.0470 C   0  0  0  0  0  0  0  0  0  0  0  0
   -0.3282   -1.1186    0.8023 C   0  0  0  0  0  0  0  0  0  0  0  0
    1.0703   -1.1213    1.2458 C   0  0  0  0  0  0  0  0  0  0  0  0
    2.0285   -0.5803    0.5168 C   0  0  0  0  0  0  0  0  0  0  0  0
    1.6566    0.0363   -0.7726 C   0  0  0  0  0  0  0  0  0  0  0  0
    2.6508    0.9831   -1.0957 O   0  0  0  0  0  0  0  0  0  0  0  0
    0.3562    0.7819   -0.7149 C   0  0  0  0  0  0  0  0  0  0  0  0
   -2.1759    0.5539    1.5480 H   0  0  0  0  0  0  0  0  0  0  0  0
   -0.7814    1.7147    1.3293 H   0  0  0  0  0  0  0  0  0  0  0  0
   -2.1800    1.6376    0.1421 H   0  0  0  0  0  0  0  0  0  0  0  0
   -1.9586    0.2947   -1.8276 H   0  0  0  0  0  0  0  0  0  0  0  0
   -1.4518   -1.4463   -1.4604 H   0  0  0  0  0  0  0  0  0  0  0  0
   -2.7275   -0.6346   -0.5151 H   0  0  0  0  0  0  0  0  0  0  0  0
   -0.5146   -2.0983    0.2705 H   0  0  0  0  0  0  0  0  0  0  0  0
   -0.9818   -1.1860    1.7208 H   0  0  0  0  0  0  0  0  0  0  0  0
    1.3223   -1.5770    2.1902 H   0  0  0  0  0  0  0  0  0  0  0  0
    3.0613   -0.5814    0.8424 H   0  0  0  0  0  0  0  0  0  0  0  0
    1.6953   -0.7191   -1.5789 H   0  0  0  0  0  0  0  0  0  0  0  0
    2.7018    1.6936   -0.4223 H   0  0  0  0  0  0  0  0  0  0  0  0
    0.5383    1.7415   -0.1990 H   0  0  0  0  0  0  0  0  0  0  0  0
    0.0486    0.9974   -1.7592 H   0  0  0  0  0  0  0  0  0  0  0  0
  1  2  1  0
  2  3  1  0
  2  4  1  0
  4  5  1  0
  5  6  2  0
  6  7  1  0
  7  8  1  0
  7  9  1  0
  9  2  1  0
  1 10  1  0
  1 11  1  0
  1 12  1  0
  3 13  1  0
  3 14  1  0
  3 15  1  0
  4 16  1  0
  4 17  1  0
  5 18  1  0
  6 19  1  0
  7 20  1  0
  8 21  1  0
  9 22  1  0
  9 23  1  0
M  END
