
     RDKit          3D

 22 23  0  0  0  0  0  0  0  0999 V2000
   -1.6259    0.8253    0.9136 C   0  0  0  0  0  0  0  0  0  0  0  0
   -1.0095   -0.1501   -0.0997 C   0  0  0  0  0  0  0  0  0  0  0  0
   -1.7762   -0.1880   -1.3909 C   0  0  0  0  0  0  0  0  0  0  0  0
   -0.3305   -1.3146    0.4646 C   0  0  0  0  0  0  0  0  0  0  0  0
    0.4168   -0.2222   -0.1345 C   0  0  0  0  0  0  0  0  0  0  0  0
    1.3080   -0.4821   -1.2729 C   0  0  0  0  0  0  0  0  0  0  0  0
    2.3616    0.3687   -0.5587 C   0  0  0  0  0  0  0  0  0  0  0  0
    1.3765    0.6534    0.5819 C   0  0  0  0  0  0  0  0  0  0  0  0
   -1.0026    1.7382    0.8673 H   0  0  0  0  0  0  0  0  0  0  0  0
   -2.6605    1.0836    0.6563 H   0  0  0  0  0  0  0  0  0  0  0  0
   -1.6163    0.3636    1.9259 H   0  0  0  0  0  0  0  0  0  0  0  0
   -1.4241   -0.9271   -2.1108 H   0  0  0  0  0  0  0  0  0  0  0  0
   -1.6888    0.8460   -1.8370 H   0  0  0  0  0  0  0  0  0  0  0  0
   -2.8673   -0.2888   -1.1558 H   0  0  0  0  0  0  0  0  0  0  0  0
   -0.2444   -1.4427    1.5655 H   0  0  0  0  0  0  0  0  0  0  0  0
   -0.4339   -2.2880   -0.0813 H   0  0  0  0  0  0  0  0  0  0  0  0
    1.6893   -1.5384   -1.3176 H   0  0  0  0  0  0  0  0  0  0  0  0
    0.9670   -0.0870   -2.2338 H   0  0  0  0  0  0  0  0  0  0  0  0
    3.2209   -0.1798   -0.1735 H   0  0  0  0  0  0  0  0  0  0  0  0
    2.5991    1.2317   -1.1869 H   0  0  0  0  0  0  0  0  0  0  0  0
    1.0626    1.7279    0.6253 H   0  0  0  0  0  0  0  0  0  0  0  0
    1.6782    0.2708    1.5586 H   0  0  0  0  0  0  0  0  0  0  0  0
  1  2  1  0
  2  3  1  0
  2  4  1  0
  4  5  1  0
  5  6  1  0
  6  7  1  0
  7  8  1  0
  5  2  1  0
  8  5  1  0
  1  9  1  0
  1 10  1  0
  1 11  1  0
  3 12  1  0
  3 13  1  0
  3 14  1  0
  4 15  1  0
  4 16  1  0
  6 17  1  0
  6 18  1  0
  7 19  1  0
  7 20  1  0
  8 21  1  0
  8 22  1  0
M  END
