
     RDKit          3D

 21 22  0  0  0  0  0  0  0  0999 V2000
    0.8856   -1.1902    1.1887 C   0  0  0  0  0  0  0  0  0  0  0  0
    0.5626   -0.5379   -0.1399 C   0  0  0  0  0  0  0  0  0  0  0  0
    1.6347    0.4838   -0.4669 C   0  0  0  0  0  0  0  0  0  0  0  0
    1.7678    1.3080    0.6577 O   0  0  0  0  0  0  0  0  0  0  0  0
    0.3200   -1.4382   -1.1837 O   0  0  0  0  0  0  0  0  0  0  0  0
   -0.9264   -0.8569   -1.5198 C   0  0  0  0  0  0  0  0  0  0  0  0
   -0.8129   -0.0329   -0.3045 C   0  0  0  0  0  0  0  0  0  0  0  0
   -1.2903    1.3013   -0.0915 C   0  0  0  0  0  0  0  0  0  0  0  0
   -1.8091    0.1077    0.7329 C   0  0  0  0  0  0  0  0  0  0  0  0
    1.8992   -1.6095    1.1682 H   0  0  0  0  0  0  0  0  0  0  0  0
    0.9138   -0.3535    1.9367 H   0  0  0  0  0  0  0  0  0  0  0  0
    0.0940   -1.8827    1.4787 H   0  0  0  0  0  0  0  0  0  0  0  0
    2.5930    0.0108   -0.7592 H   0  0  0  0  0  0  0  0  0  0  0  0
    1.2577    1.0646   -1.3319 H   0  0  0  0  0  0  0  0  0  0  0  0
    2.5946    1.8465    0.4878 H   0  0  0  0  0  0  0  0  0  0  0  0
   -0.9183   -0.2559   -2.4367 H   0  0  0  0  0  0  0  0  0  0  0  0
   -1.7252   -1.6242   -1.4979 H   0  0  0  0  0  0  0  0  0  0  0  0
   -0.6514    1.9998    0.5081 H   0  0  0  0  0  0  0  0  0  0  0  0
   -2.0327    1.7914   -0.7697 H   0  0  0  0  0  0  0  0  0  0  0  0
   -1.4742    0.0302    1.7869 H   0  0  0  0  0  0  0  0  0  0  0  0
   -2.8825   -0.1624    0.5561 H   0  0  0  0  0  0  0  0  0  0  0  0
  1  2  1  0
  2  3  1  0
  3  4  1  0
  2  5  1  0
  5  6  1  0
  6  7  1  0
  7  8  1  0
  8  9  1  0
  7  2  1  0
  9  7  1  0
  1 10  1  0
  1 11  1  0
  1 12  1  0
  3 13  1  0
  3 14  1  0
  4 15  1  0
  6 16  1  0
  6 17  1  0
  8 18  1  0
  8 19  1  0
  9 20  1  0
  9 21  1  0
M  END
