
     RDKit          3D

 19 20  0  0  0  0  0  0  0  0999 V2000
   -1.5734    0.1443    1.2061 C   0  0  0  0  0  0  0  0  0  0  0  0
   -0.6942    0.1380   -0.0158 C   0  0  0  0  0  0  0  0  0  0  0  0
   -1.4220    0.3011   -1.3350 C   0  0  0  0  0  0  0  0  0  0  0  0
    0.2780   -1.0098   -0.1049 C   0  0  0  0  0  0  0  0  0  0  0  0
    1.4041   -0.0971   -0.4180 C   0  0  0  0  0  0  0  0  0  0  0  0
    2.7123   -0.2588    0.2417 C   0  0  0  0  0  0  0  0  0  0  0  0
    3.5822    0.5849    0.1786 O   0  0  0  0  0  0  0  0  0  0  0  0
    1.2352    1.0822   -1.1154 O   0  0  0  0  0  0  0  0  0  0  0  0
    0.4978    1.0560    0.0355 C   0  0  0  0  0  0  0  0  0  0  0  0
   -1.5530   -0.8513    1.7356 H   0  0  0  0  0  0  0  0  0  0  0  0
   -2.6146    0.3280    0.8615 H   0  0  0  0  0  0  0  0  0  0  0  0
   -1.2061    0.9129    1.8940 H   0  0  0  0  0  0  0  0  0  0  0  0
   -0.6435    0.3753   -2.1243 H   0  0  0  0  0  0  0  0  0  0  0  0
   -2.1254    1.1453   -1.3254 H   0  0  0  0  0  0  0  0  0  0  0  0
   -1.9416   -0.6823   -1.5138 H   0  0  0  0  0  0  0  0  0  0  0  0
    0.3342   -1.5256    0.8897 H   0  0  0  0  0  0  0  0  0  0  0  0
   -0.0190   -1.7481   -0.8602 H   0  0  0  0  0  0  0  0  0  0  0  0
    2.9143   -1.1497    0.8005 H   0  0  0  0  0  0  0  0  0  0  0  0
    0.8347    1.5009    0.9696 H   0  0  0  0  0  0  0  0  0  0  0  0
  1  2  1  0
  2  3  1  0
  2  4  1  0
  4  5  1  0
  5  6  1  0
  6  7  2  0
  5  8  1  0
  8  9  1  0
  9  2  1  0
  9  5  1  0
  1 10  1  0
  1 11  1  0
  1 12  1  0
  3 13  1  0
  3 14  1  0
  3 15  1  0
  4 16  1  0
  4 17  1  0
  6 18  1  0
  9 19  1  0
M  END
