
     RDKit          3D

 17 17  0  0  0  0  0  0  0  0999 V2000
   -1.8046   -0.2062   -0.5669 C   0  0  0  0  0  0  0  0  0  0  0  0
   -0.3938   -0.4165   -0.1283 C   0  0  0  0  0  0  0  0  0  0  0  0
   -0.2447   -1.4728    0.7539 O   0  0  0  0  0  0  0  0  0  0  0  0
    0.5367   -0.4195   -1.2765 C   0  0  0  0  0  0  0  0  0  0  0  0
    0.5669   -0.8340   -2.4014 O   0  0  0  0  0  0  0  0  0  0  0  0
    1.5006    0.3570   -0.4205 C   0  0  0  0  0  0  0  0  0  0  0  0
    2.3589   -0.4955    0.2191 O   0  0  0  0  0  0  0  0  0  0  0  0
    0.3155    0.8311    0.3761 C   0  0  0  0  0  0  0  0  0  0  0  0
    0.4915    0.8627    1.7533 O   0  0  0  0  0  0  0  0  0  0  0  0
   -2.2897    0.5472    0.0793 H   0  0  0  0  0  0  0  0  0  0  0  0
   -1.8810    0.0472   -1.6500 H   0  0  0  0  0  0  0  0  0  0  0  0
   -2.3532   -1.1669   -0.4198 H   0  0  0  0  0  0  0  0  0  0  0  0
   -0.9131   -1.3384    1.4795 H   0  0  0  0  0  0  0  0  0  0  0  0
    2.0123    1.1479   -1.0172 H   0  0  0  0  0  0  0  0  0  0  0  0
    2.6834   -0.1574    1.0879 H   0  0  0  0  0  0  0  0  0  0  0  0
   -0.1662    1.7318   -0.0241 H   0  0  0  0  0  0  0  0  0  0  0  0
   -0.4196    0.9822    2.1555 H   0  0  0  0  0  0  0  0  0  0  0  0
  1  2  1  0
  2  3  1  0
  2  4  1  0
  4  5  2  0
  4  6  1  0
  6  7  1  0
  6  8  1  0
  8  9  1  0
  8  2  1  0
  1 10  1  0
  1 11  1  0
  1 12  1  0
  3 13  1  0
  6 14  1  0
  7 15  1  0
  8 16  1  0
  9 17  1  0
M  END
