
     RDKit          3D

 19 21  0  0  0  0  0  0  0  0999 V2000
    2.0046   -0.0989   -1.1510 C   0  0  0  0  0  0  0  0  0  0  0  0
    1.1420   -0.0071    0.1247 C   0  0  0  0  0  0  0  0  0  0  0  0
    2.0048    0.2307    1.2222 O   0  0  0  0  0  0  0  0  0  0  0  0
    0.0284   -0.8078    0.3608 C   0  0  0  0  0  0  0  0  0  0  0  0
   -1.2728   -0.7248    1.0496 C   0  0  0  0  0  0  0  0  0  0  0  0
   -2.1443    0.2387    0.3426 C   0  0  0  0  0  0  0  0  0  0  0  0
   -2.5679    0.4814   -0.8217 O   0  0  0  0  0  0  0  0  0  0  0  0
   -1.2378    0.5244   -0.8976 C   0  0  0  0  0  0  0  0  0  0  0  0
   -0.0740    0.7231   -0.0730 C   0  0  0  0  0  0  0  0  0  0  0  0
    2.4860   -1.1052   -1.2025 H   0  0  0  0  0  0  0  0  0  0  0  0
    2.7243    0.7212   -1.1518 H   0  0  0  0  0  0  0  0  0  0  0  0
    1.3725   -0.0237   -2.0583 H   0  0  0  0  0  0  0  0  0  0  0  0
    1.9812    1.1860    1.4553 H   0  0  0  0  0  0  0  0  0  0  0  0
   -0.1200   -1.5364   -0.5106 H   0  0  0  0  0  0  0  0  0  0  0  0
   -1.0736   -0.4563    2.1149 H   0  0  0  0  0  0  0  0  0  0  0  0
   -1.7847   -1.7088    1.1196 H   0  0  0  0  0  0  0  0  0  0  0  0
   -2.1966    1.2152    0.9515 H   0  0  0  0  0  0  0  0  0  0  0  0
   -1.0511   -0.2978   -1.6623 H   0  0  0  0  0  0  0  0  0  0  0  0
   -0.2210    1.4460    0.7876 H   0  0  0  0  0  0  0  0  0  0  0  0
  1  2  1  0
  2  3  1  0
  2  4  1  0
  4  5  1  0
  5  6  1  0
  6  7  1  0
  7  8  1  0
  8  9  1  0
  9  2  1  0
  9  4  1  0
  8  6  1  0
  1 10  1  0
  1 11  1  0
  1 12  1  0
  3 13  1  0
  4 14  1  0
  5 15  1  0
  5 16  1  0
  6 17  1  0
  8 18  1  0
  9 19  1  0
M  END
