
     RDKit          3D

 19 19  0  0  0  0  0  0  0  0999 V2000
   -1.0203   -1.0471   -0.7721 C   0  0  0  0  0  0  0  0  0  0  0  0
   -0.7234    0.0747    0.1661 C   0  0  0  0  0  0  0  0  0  0  0  0
   -1.9789    0.8452    0.5654 C   0  0  0  0  0  0  0  0  0  0  0  0
    0.2270    1.0767   -0.4020 C   0  0  0  0  0  0  0  0  0  0  0  0
    1.5427    0.8824   -0.3921 C   0  0  0  0  0  0  0  0  0  0  0  0
    2.0240   -0.3905    0.2166 C   0  0  0  0  0  0  0  0  0  0  0  0
    1.1696   -0.7554    1.3684 C   0  0  0  0  0  0  0  0  0  0  0  0
    1.7111   -1.3671    2.3257 O   0  0  0  0  0  0  0  0  0  0  0  0
   -0.1742   -0.4296    1.3790 O   0  0  0  0  0  0  0  0  0  0  0  0
   -0.9035   -2.0248   -0.2215 H   0  0  0  0  0  0  0  0  0  0  0  0
   -2.0494   -0.9913   -1.2180 H   0  0  0  0  0  0  0  0  0  0  0  0
   -0.2461   -1.0712   -1.5667 H   0  0  0  0  0  0  0  0  0  0  0  0
   -1.6219    1.7095    1.1627 H   0  0  0  0  0  0  0  0  0  0  0  0
   -2.5176    1.1674   -0.3439 H   0  0  0  0  0  0  0  0  0  0  0  0
   -2.6206    0.2004    1.2282 H   0  0  0  0  0  0  0  0  0  0  0  0
   -0.1403    2.0003   -0.8425 H   0  0  0  0  0  0  0  0  0  0  0  0
    2.2461    1.6208   -0.8109 H   0  0  0  0  0  0  0  0  0  0  0  0
    3.0905   -0.2827    0.5018 H   0  0  0  0  0  0  0  0  0  0  0  0
    1.9852   -1.2178   -0.5263 H   0  0  0  0  0  0  0  0  0  0  0  0
  1  2  1  0
  2  3  1  0
  2  4  1  0
  4  5  2  0
  5  6  1  0
  6  7  1  0
  7  8  2  0
  7  9  1  0
  9  2  1  0
  1 10  1  0
  1 11  1  0
  1 12  1  0
  3 13  1  0
  3 14  1  0
  3 15  1  0
  4 16  1  0
  5 17  1  0
  6 18  1  0
  6 19  1  0
M  END
