
     RDKit          3D

 19 20  0  0  0  0  0  0  0  0999 V2000
   -1.4821    0.4585    1.0163 C   0  0  0  0  0  0  0  0  0  0  0  0
   -0.5010    0.0200   -0.0316 C   0  0  0  0  0  0  0  0  0  0  0  0
   -1.1456   -1.0354   -0.9225 C   0  0  0  0  0  0  0  0  0  0  0  0
   -0.1488    1.1584   -0.8831 C   0  0  0  0  0  0  0  0  0  0  0  0
   -0.8733    2.1232   -1.1388 O   0  0  0  0  0  0  0  0  0  0  0  0
    1.1264    0.9438   -1.3336 O   0  0  0  0  0  0  0  0  0  0  0  0
    1.7917   -0.0380   -0.5753 C   0  0  0  0  0  0  0  0  0  0  0  0
    1.9266    0.2893    0.8818 C   0  0  0  0  0  0  0  0  0  0  0  0
    0.7748   -0.5130    0.4771 C   0  0  0  0  0  0  0  0  0  0  0  0
   -1.4001    1.5311    1.2808 H   0  0  0  0  0  0  0  0  0  0  0  0
   -1.4797   -0.1918    1.9159 H   0  0  0  0  0  0  0  0  0  0  0  0
   -2.5020    0.3403    0.5679 H   0  0  0  0  0  0  0  0  0  0  0  0
   -2.1849   -0.7633   -1.1655 H   0  0  0  0  0  0  0  0  0  0  0  0
   -0.5618   -0.9981   -1.8853 H   0  0  0  0  0  0  0  0  0  0  0  0
   -1.0368   -2.0262   -0.4503 H   0  0  0  0  0  0  0  0  0  0  0  0
    2.4261   -0.7907   -1.0524 H   0  0  0  0  0  0  0  0  0  0  0  0
    1.7507    1.3288    1.2207 H   0  0  0  0  0  0  0  0  0  0  0  0
    2.7479   -0.2172    1.3965 H   0  0  0  0  0  0  0  0  0  0  0  0
    0.7718   -1.6197    0.6815 H   0  0  0  0  0  0  0  0  0  0  0  0
  1  2  1  0
  2  3  1  0
  2  4  1  0
  4  5  2  0
  4  6  1  0
  6  7  1  0
  7  8  1  0
  8  9  1  0
  9  2  1  0
  9  7  1  0
  1 10  1  0
  1 11  1  0
  1 12  1  0
  3 13  1  0
  3 14  1  0
  3 15  1  0
  7 16  1  0
  8 17  1  0
  8 18  1  0
  9 19  1  0
M  END
