
     RDKit          3D

 21 24  0  0  0  0  0  0  0  0999 V2000
   -1.2883   -0.1459    1.2757 C   0  0  0  0  0  0  0  0  0  0  0  0
   -0.6982    0.1275   -0.1079 C   0  0  0  0  0  0  0  0  0  0  0  0
   -1.7088    0.5393   -1.1017 C   0  0  0  0  0  0  0  0  0  0  0  0
    0.0748   -1.1126   -0.4690 C   0  0  0  0  0  0  0  0  0  0  0  0
    1.3786   -0.7256   -0.9706 C   0  0  0  0  0  0  0  0  0  0  0  0
    1.2214   -1.0654    0.4593 C   0  0  0  0  0  0  0  0  0  0  0  0
    1.4221    0.3480    0.8313 C   0  0  0  0  0  0  0  0  0  0  0  0
    1.5844    0.7045   -0.5995 C   0  0  0  0  0  0  0  0  0  0  0  0
    0.4021    1.1387    0.1218 C   0  0  0  0  0  0  0  0  0  0  0  0
   -1.8987   -1.0636    1.2729 H   0  0  0  0  0  0  0  0  0  0  0  0
   -0.3912   -0.3906    1.9184 H   0  0  0  0  0  0  0  0  0  0  0  0
   -1.8077    0.7456    1.6494 H   0  0  0  0  0  0  0  0  0  0  0  0
   -1.8660    1.6453   -1.0440 H   0  0  0  0  0  0  0  0  0  0  0  0
   -2.7016    0.1018   -0.7868 H   0  0  0  0  0  0  0  0  0  0  0  0
   -1.5464    0.2148   -2.1277 H   0  0  0  0  0  0  0  0  0  0  0  0
   -0.4156   -2.0679   -0.6206 H   0  0  0  0  0  0  0  0  0  0  0  0
    2.0026   -1.2602   -1.6687 H   0  0  0  0  0  0  0  0  0  0  0  0
    1.6660   -1.9112    0.9476 H   0  0  0  0  0  0  0  0  0  0  0  0
    2.0522    0.7021    1.6267 H   0  0  0  0  0  0  0  0  0  0  0  0
    2.3781    1.3176   -0.9904 H   0  0  0  0  0  0  0  0  0  0  0  0
    0.1401    2.1577    0.3837 H   0  0  0  0  0  0  0  0  0  0  0  0
  1  2  1  0
  2  3  1  0
  2  4  1  0
  4  5  1  0
  5  6  1  0
  6  7  1  0
  7  8  1  0
  8  9  1  0
  9  2  1  0
  6  4  1  0
  9  7  1  0
  8  5  1  0
  1 10  1  0
  1 11  1  0
  1 12  1  0
  3 13  1  0
  3 14  1  0
  3 15  1  0
  4 16  1  0
  5 17  1  0
  6 18  1  0
  7 19  1  0
  8 20  1  0
  9 21  1  0
M  END
