
     RDKit          3D

 17 18  0  0  0  0  0  0  0  0999 V2000
   -1.5599   -0.0908   -1.0234 C   0  0  0  0  0  0  0  0  0  0  0  0
   -0.6317   -0.1135    0.1623 C   0  0  0  0  0  0  0  0  0  0  0  0
   -1.0403    0.8592    1.2079 C   0  0  0  0  0  0  0  0  0  0  0  0
   -1.1511    0.4688    2.3526 O   0  0  0  0  0  0  0  0  0  0  0  0
   -0.4192   -1.4150    0.6650 O   0  0  0  0  0  0  0  0  0  0  0  0
    0.8606   -1.4989    0.0680 C   0  0  0  0  0  0  0  0  0  0  0  0
    0.8199   -0.0298   -0.1225 C   0  0  0  0  0  0  0  0  0  0  0  0
    1.7448    0.9433    0.1532 C   0  0  0  0  0  0  0  0  0  0  0  0
    1.3446    0.5999   -1.2056 O   0  0  0  0  0  0  0  0  0  0  0  0
   -1.0906    0.3004   -1.9369 H   0  0  0  0  0  0  0  0  0  0  0  0
   -2.4586    0.5236   -0.8027 H   0  0  0  0  0  0  0  0  0  0  0  0
   -1.9315   -1.1225   -1.2078 H   0  0  0  0  0  0  0  0  0  0  0  0
   -1.2201    1.8718    0.8988 H   0  0  0  0  0  0  0  0  0  0  0  0
    0.7741   -2.1422   -0.8257 H   0  0  0  0  0  0  0  0  0  0  0  0
    1.6469   -1.8432    0.7787 H   0  0  0  0  0  0  0  0  0  0  0  0
    2.8229    0.7107    0.3770 H   0  0  0  0  0  0  0  0  0  0  0  0
    1.4892    1.9782    0.4612 H   0  0  0  0  0  0  0  0  0  0  0  0
  1  2  1  0
  2  3  1  0
  3  4  2  0
  2  5  1  0
  5  6  1  0
  6  7  1  0
  7  8  1  0
  8  9  1  0
  7  2  1  0
  9  7  1  0
  1 10  1  0
  1 11  1  0
  1 12  1  0
  3 13  1  0
  6 14  1  0
  6 15  1  0
  8 16  1  0
  8 17  1  0
M  END
