
     RDKit          3D

 23 24  0  0  0  0  0  0  0  0999 V2000
    2.1641    0.6769    0.9705 C   0  0  0  0  0  0  0  0  0  0  0  0
    1.0995    0.2952   -0.0025 C   0  0  0  0  0  0  0  0  0  0  0  0
    0.6984    1.2667   -0.9029 O   0  0  0  0  0  0  0  0  0  0  0  0
    1.4858   -1.0107   -0.7124 C   0  0  0  0  0  0  0  0  0  0  0  0
   -0.0056   -1.3688   -0.6400 C   0  0  0  0  0  0  0  0  0  0  0  0
   -0.0852   -0.4509    0.5587 C   0  0  0  0  0  0  0  0  0  0  0  0
   -1.3594    0.3338    0.6675 C   0  0  0  0  0  0  0  0  0  0  0  0
   -1.9585    0.9027   -0.5335 C   0  0  0  0  0  0  0  0  0  0  0  0
   -2.6005   -0.3003    0.1510 C   0  0  0  0  0  0  0  0  0  0  0  0
    1.9438    0.2770    1.9817 H   0  0  0  0  0  0  0  0  0  0  0  0
    2.2973    1.7984    1.0072 H   0  0  0  0  0  0  0  0  0  0  0  0
    3.1760    0.2876    0.6985 H   0  0  0  0  0  0  0  0  0  0  0  0
    1.3227    2.0233   -0.8620 H   0  0  0  0  0  0  0  0  0  0  0  0
    2.0952   -1.6358   -0.0565 H   0  0  0  0  0  0  0  0  0  0  0  0
    1.8565   -0.7923   -1.7116 H   0  0  0  0  0  0  0  0  0  0  0  0
   -0.4837   -1.0078   -1.5602 H   0  0  0  0  0  0  0  0  0  0  0  0
   -0.1607   -2.4425   -0.4237 H   0  0  0  0  0  0  0  0  0  0  0  0
    0.1251   -0.9882    1.4868 H   0  0  0  0  0  0  0  0  0  0  0  0
   -1.4264    0.9333    1.6063 H   0  0  0  0  0  0  0  0  0  0  0  0
   -2.4612    1.8867   -0.4438 H   0  0  0  0  0  0  0  0  0  0  0  0
   -1.6319    0.6783   -1.5596 H   0  0  0  0  0  0  0  0  0  0  0  0
   -3.5880   -0.0761    0.5862 H   0  0  0  0  0  0  0  0  0  0  0  0
   -2.5032   -1.2864   -0.3058 H   0  0  0  0  0  0  0  0  0  0  0  0
  1  2  1  0
  2  3  1  0
  2  4  1  0
  4  5  1  0
  5  6  1  0
  6  7  1  0
  7  8  1  0
  8  9  1  0
  6  2  1  0
  9  7  1  0
  1 10  1  0
  1 11  1  0
  1 12  1  0
  3 13  1  0
  4 14  1  0
  4 15  1  0
  5 16  1  0
  5 17  1  0
  6 18  1  0
  7 19  1  0
  8 20  1  0
  8 21  1  0
  9 22  1  0
  9 23  1  0
M  END
