
     RDKit          3D

 23 23  0  0  0  0  0  0  0  0999 V2000
   -1.9678   -0.8725   -0.2028 C   0  0  0  0  0  0  0  0  0  0  0  0
   -1.1124    0.3039    0.1886 C   0  0  0  0  0  0  0  0  0  0  0  0
   -1.8104    1.6206    0.0958 C   0  0  0  0  0  0  0  0  0  0  0  0
   -0.4533    0.0935    1.5293 C   0  0  0  0  0  0  0  0  0  0  0  0
    0.7214   -0.4914    1.3752 C   0  0  0  0  0  0  0  0  0  0  0  0
    0.9470   -0.7201   -0.0475 C   0  0  0  0  0  0  0  0  0  0  0  0
    2.4008   -0.6724   -0.4527 C   0  0  0  0  0  0  0  0  0  0  0  0
    2.9895    0.5490   -0.1789 O   0  0  0  0  0  0  0  0  0  0  0  0
    0.1383    0.3720   -0.7104 C   0  0  0  0  0  0  0  0  0  0  0  0
   -1.6475   -1.2372   -1.2202 H   0  0  0  0  0  0  0  0  0  0  0  0
   -3.0235   -0.5298   -0.2433 H   0  0  0  0  0  0  0  0  0  0  0  0
   -1.8629   -1.7011    0.5377 H   0  0  0  0  0  0  0  0  0  0  0  0
   -1.4138    2.2746   -0.7223 H   0  0  0  0  0  0  0  0  0  0  0  0
   -1.7870    2.1826    1.0562 H   0  0  0  0  0  0  0  0  0  0  0  0
   -2.8768    1.4215   -0.1791 H   0  0  0  0  0  0  0  0  0  0  0  0
   -0.9176    0.3981    2.4805 H   0  0  0  0  0  0  0  0  0  0  0  0
    1.3696   -0.7348    2.2394 H   0  0  0  0  0  0  0  0  0  0  0  0
    0.4772   -1.6854   -0.3823 H   0  0  0  0  0  0  0  0  0  0  0  0
    2.9040   -1.4990    0.0928 H   0  0  0  0  0  0  0  0  0  0  0  0
    2.4332   -0.9259   -1.5467 H   0  0  0  0  0  0  0  0  0  0  0  0
    3.9766    0.3613   -0.0732 H   0  0  0  0  0  0  0  0  0  0  0  0
   -0.1096    0.1420   -1.7493 H   0  0  0  0  0  0  0  0  0  0  0  0
    0.6248    1.3504   -0.5640 H   0  0  0  0  0  0  0  0  0  0  0  0
  1  2  1  0
  2  3  1  0
  2  4  1  0
  4  5  2  0
  5  6  1  0
  6  7  1  0
  7  8  1  0
  6  9  1  0
  9  2  1  0
  1 10  1  0
  1 11  1  0
  1 12  1  0
  3 13  1  0
  3 14  1  0
  3 15  1  0
  4 16  1  0
  5 17  1  0
  6 18  1  0
  7 19  1  0
  7 20  1  0
  8 21  1  0
  9 22  1  0
  9 23  1  0
M  END
