
     RDKit          3D

 20 20  0  0  0  0  0  0  0  0999 V2000
   -0.9705    0.3261   -1.1867 C   0  0  0  0  0  0  0  0  0  0  0  0
   -0.6475   -0.2372    0.1993 C   0  0  0  0  0  0  0  0  0  0  0  0
   -1.8859   -0.8039    0.8037 C   0  0  0  0  0  0  0  0  0  0  0  0
    0.4484   -1.2674   -0.0029 C   0  0  0  0  0  0  0  0  0  0  0  0
    1.4126   -0.6368   -0.8127 O   0  0  0  0  0  0  0  0  0  0  0  0
    1.9536    0.4667   -0.2229 C   0  0  0  0  0  0  0  0  0  0  0  0
    1.0328    1.3173    0.5572 C   0  0  0  0  0  0  0  0  0  0  0  0
   -0.1250    0.7566    0.9902 O   0  0  0  0  0  0  0  0  0  0  0  0
   -1.0660   -0.5091   -1.9106 H   0  0  0  0  0  0  0  0  0  0  0  0
   -1.9039    0.8965   -1.0967 H   0  0  0  0  0  0  0  0  0  0  0  0
   -0.1426    0.9688   -1.5321 H   0  0  0  0  0  0  0  0  0  0  0  0
   -1.8526   -1.8802    1.0085 H   0  0  0  0  0  0  0  0  0  0  0  0
   -2.7724   -0.6280    0.1384 H   0  0  0  0  0  0  0  0  0  0  0  0
   -2.1582   -0.2852    1.7649 H   0  0  0  0  0  0  0  0  0  0  0  0
    0.1057   -2.1923   -0.4561 H   0  0  0  0  0  0  0  0  0  0  0  0
    0.9550   -1.4863    0.9654 H   0  0  0  0  0  0  0  0  0  0  0  0
    2.8633    0.1349    0.3595 H   0  0  0  0  0  0  0  0  0  0  0  0
    2.3929    1.1030   -1.0481 H   0  0  0  0  0  0  0  0  0  0  0  0
    0.7669    2.2713    0.0141 H   0  0  0  0  0  0  0  0  0  0  0  0
    1.5932    1.6853    1.4675 H   0  0  0  0  0  0  0  0  0  0  0  0
  1  2  1  0
  2  3  1  0
  2  4  1  0
  4  5  1  0
  5  6  1  0
  6  7  1  0
  7  8  1  0
  8  2  1  0
  1  9  1  0
  1 10  1  0
  1 11  1  0
  3 12  1  0
  3 13  1  0
  3 14  1  0
  4 15  1  0
  4 16  1  0
  6 17  1  0
  6 18  1  0
  7 19  1  0
  7 20  1  0
M  END
