
     RDKit          3D

 21 22  0  0  0  0  0  0  0  0999 V2000
    0.8651    1.2442    0.5357 C   0  0  0  0  0  0  0  0  0  0  0  0
    0.3732    0.0107   -0.1407 C   0  0  0  0  0  0  0  0  0  0  0  0
    1.4754   -0.7078   -0.8658 C   0  0  0  0  0  0  0  0  0  0  0  0
    2.4384   -1.0539    0.0684 O   0  0  0  0  0  0  0  0  0  0  0  0
   -0.7645    0.3820   -1.1141 C   0  0  0  0  0  0  0  0  0  0  0  0
   -1.8898   -0.2876   -0.3472 C   0  0  0  0  0  0  0  0  0  0  0  0
   -1.6322   -0.0205    1.0998 C   0  0  0  0  0  0  0  0  0  0  0  0
   -0.4428   -0.8863    0.7486 C   0  0  0  0  0  0  0  0  0  0  0  0
   -1.3271   -1.5634   -0.1240 O   0  0  0  0  0  0  0  0  0  0  0  0
    0.1523    2.0979    0.4699 H   0  0  0  0  0  0  0  0  0  0  0  0
    1.7835    1.5809    0.0035 H   0  0  0  0  0  0  0  0  0  0  0  0
    1.0914    0.9851    1.5954 H   0  0  0  0  0  0  0  0  0  0  0  0
    1.1011   -1.6138   -1.3545 H   0  0  0  0  0  0  0  0  0  0  0  0
    1.9383    0.0159   -1.5616 H   0  0  0  0  0  0  0  0  0  0  0  0
    2.9058   -0.2244    0.3596 H   0  0  0  0  0  0  0  0  0  0  0  0
   -0.8807    1.4562   -1.2158 H   0  0  0  0  0  0  0  0  0  0  0  0
   -0.6451   -0.1772   -2.0545 H   0  0  0  0  0  0  0  0  0  0  0  0
   -2.8766   -0.2438   -0.7414 H   0  0  0  0  0  0  0  0  0  0  0  0
   -2.3107   -0.5634    1.7561 H   0  0  0  0  0  0  0  0  0  0  0  0
   -1.3845    1.0228    1.3714 H   0  0  0  0  0  0  0  0  0  0  0  0
    0.0293   -1.4538    1.5112 H   0  0  0  0  0  0  0  0  0  0  0  0
  1  2  1  0
  2  3  1  0
  3  4  1  0
  2  5  1  0
  5  6  1  0
  6  7  1  0
  7  8  1  0
  8  9  1  0
  8  2  1  0
  9  6  1  0
  1 10  1  0
  1 11  1  0
  1 12  1  0
  3 13  1  0
  3 14  1  0
  4 15  1  0
  5 16  1  0
  5 17  1  0
  6 18  1  0
  7 19  1  0
  7 20  1  0
  8 21  1  0
M  END
