
     RDKit          3D

 21 21  0  0  0  0  0  0  0  0999 V2000
    0.5037   -0.7557    1.5867 C   0  0  0  0  0  0  0  0  0  0  0  0
    0.1231   -0.3159    0.1765 C   0  0  0  0  0  0  0  0  0  0  0  0
    1.2973   -0.4319   -0.7670 C   0  0  0  0  0  0  0  0  0  0  0  0
    2.4445    0.3795   -0.3813 C   0  0  0  0  0  0  0  0  0  0  0  0
    3.4441    0.3608   -1.0711 O   0  0  0  0  0  0  0  0  0  0  0  0
   -0.4860    1.0533    0.1772 C   0  0  0  0  0  0  0  0  0  0  0  0
   -1.6213    0.8402   -0.8300 C   0  0  0  0  0  0  0  0  0  0  0  0
   -2.0347   -0.5650   -0.3759 C   0  0  0  0  0  0  0  0  0  0  0  0
   -0.8381   -1.2098   -0.2754 O   0  0  0  0  0  0  0  0  0  0  0  0
    0.5826    0.1181    2.2607 H   0  0  0  0  0  0  0  0  0  0  0  0
   -0.2869   -1.4064    2.0150 H   0  0  0  0  0  0  0  0  0  0  0  0
    1.4633   -1.3445    1.5739 H   0  0  0  0  0  0  0  0  0  0  0  0
    1.6048   -1.5003   -0.7578 H   0  0  0  0  0  0  0  0  0  0  0  0
    0.9040   -0.1863   -1.7830 H   0  0  0  0  0  0  0  0  0  0  0  0
    2.4345    0.9914    0.4902 H   0  0  0  0  0  0  0  0  0  0  0  0
    0.1931    1.8521   -0.1296 H   0  0  0  0  0  0  0  0  0  0  0  0
   -0.9684    1.2773    1.1443 H   0  0  0  0  0  0  0  0  0  0  0  0
   -2.4221    1.5661   -0.7092 H   0  0  0  0  0  0  0  0  0  0  0  0
   -1.1693    0.7945   -1.8237 H   0  0  0  0  0  0  0  0  0  0  0  0
   -2.6804   -1.0504   -1.1318 H   0  0  0  0  0  0  0  0  0  0  0  0
   -2.4879   -0.4672    0.6113 H   0  0  0  0  0  0  0  0  0  0  0  0
  1  2  1  0
  2  3  1  0
  3  4  1  0
  4  5  2  0
  2  6  1  0
  6  7  1  0
  7  8  1  0
  8  9  1  0
  9  2  1  0
  1 10  1  0
  1 11  1  0
  1 12  1  0
  3 13  1  0
  3 14  1  0
  4 15  1  0
  6 16  1  0
  6 17  1  0
  7 18  1  0
  7 19  1  0
  8 20  1  0
  8 21  1  0
M  END
