
     RDKit          3D

 18 18  0  0  0  0  0  0  0  0999 V2000
   -0.9858    1.3961    0.3667 C   0  0  0  0  0  0  0  0  0  0  0  0
   -0.5631    0.0110   -0.0366 C   0  0  0  0  0  0  0  0  0  0  0  0
   -1.7070   -0.8159   -0.5715 C   0  0  0  0  0  0  0  0  0  0  0  0
    0.2799   -0.6748    1.0003 C   0  0  0  0  0  0  0  0  0  0  0  0
    1.4240   -0.6108    0.0106 C   0  0  0  0  0  0  0  0  0  0  0  0
    2.4777    0.3759    0.3209 C   0  0  0  0  0  0  0  0  0  0  0  0
    2.5278    1.4943   -0.1610 O   0  0  0  0  0  0  0  0  0  0  0  0
    0.5147   -0.0578   -0.9080 O   0  0  0  0  0  0  0  0  0  0  0  0
   -2.0638    1.5390    0.1128 H   0  0  0  0  0  0  0  0  0  0  0  0
   -0.4397    2.1994   -0.1507 H   0  0  0  0  0  0  0  0  0  0  0  0
   -0.8471    1.5328    1.4692 H   0  0  0  0  0  0  0  0  0  0  0  0
   -1.5046   -1.2095   -1.5875 H   0  0  0  0  0  0  0  0  0  0  0  0
   -2.6375   -0.2339   -0.5856 H   0  0  0  0  0  0  0  0  0  0  0  0
   -1.8251   -1.6812    0.1012 H   0  0  0  0  0  0  0  0  0  0  0  0
   -0.0745   -1.7042    1.2285 H   0  0  0  0  0  0  0  0  0  0  0  0
    0.4002   -0.0595    1.9015 H   0  0  0  0  0  0  0  0  0  0  0  0
    1.7663   -1.5959   -0.3581 H   0  0  0  0  0  0  0  0  0  0  0  0
    3.2574    0.0949    1.0191 H   0  0  0  0  0  0  0  0  0  0  0  0
  1  2  1  0
  2  3  1  0
  2  4  1  0
  4  5  1  0
  5  6  1  0
  6  7  2  0
  5  8  1  0
  8  2  1  0
  1  9  1  0
  1 10  1  0
  1 11  1  0
  3 12  1  0
  3 13  1  0
  3 14  1  0
  4 15  1  0
  4 16  1  0
  5 17  1  0
  6 18  1  0
M  END
