
     RDKit          3D

 19 20  0  0  0  0  0  0  0  0999 V2000
   -1.6924    1.0045    0.0176 C   0  0  0  0  0  0  0  0  0  0  0  0
   -0.7973   -0.2178   -0.2176 C   0  0  0  0  0  0  0  0  0  0  0  0
   -1.5015   -1.1608   -0.9430 O   0  0  0  0  0  0  0  0  0  0  0  0
    0.4326    0.2845   -0.9262 C   0  0  0  0  0  0  0  0  0  0  0  0
    0.6027    1.6736   -0.7636 O   0  0  0  0  0  0  0  0  0  0  0  0
    1.5766   -0.3829   -0.2237 C   0  0  0  0  0  0  0  0  0  0  0  0
    1.0666   -0.6661    1.1608 C   0  0  0  0  0  0  0  0  0  0  0  0
    0.3673   -1.8716    1.2630 O   0  0  0  0  0  0  0  0  0  0  0  0
   -0.3878   -0.7284    1.1191 C   0  0  0  0  0  0  0  0  0  0  0  0
   -1.0370    1.7209    0.5904 H   0  0  0  0  0  0  0  0  0  0  0  0
   -2.0686    1.4281   -0.9171 H   0  0  0  0  0  0  0  0  0  0  0  0
   -2.4972    0.6582    0.7019 H   0  0  0  0  0  0  0  0  0  0  0  0
   -0.8963   -1.8359   -1.3280 H   0  0  0  0  0  0  0  0  0  0  0  0
    0.4365    0.0831   -2.0080 H   0  0  0  0  0  0  0  0  0  0  0  0
    1.5773    1.8665   -0.6269 H   0  0  0  0  0  0  0  0  0  0  0  0
    1.8184   -1.3602   -0.7208 H   0  0  0  0  0  0  0  0  0  0  0  0
    2.4859    0.2204   -0.2080 H   0  0  0  0  0  0  0  0  0  0  0  0
    1.5391   -0.2207    2.0398 H   0  0  0  0  0  0  0  0  0  0  0  0
   -1.0247   -0.4956    1.9905 H   0  0  0  0  0  0  0  0  0  0  0  0
  1  2  1  0
  2  3  1  0
  2  4  1  0
  4  5  1  0
  4  6  1  0
  6  7  1  0
  7  8  1  0
  8  9  1  0
  9  2  1  0
  9  7  1  0
  1 10  1  0
  1 11  1  0
  1 12  1  0
  3 13  1  0
  4 14  1  0
  5 15  1  0
  6 16  1  0
  6 17  1  0
  7 18  1  0
  9 19  1  0
M  END
