
     RDKit          3D

 21 21  0  0  0  0  0  0  0  0999 V2000
   -1.6331   -0.5956    0.8179 C   0  0  0  0  0  0  0  0  0  0  0  0
   -0.6951   -0.0043   -0.2416 C   0  0  0  0  0  0  0  0  0  0  0  0
   -1.5492    0.6027   -1.1933 O   0  0  0  0  0  0  0  0  0  0  0  0
    0.1105   -1.0680   -0.8704 C   0  0  0  0  0  0  0  0  0  0  0  0
    1.5710   -1.0152   -0.6931 C   0  0  0  0  0  0  0  0  0  0  0  0
    2.0904    0.1607   -0.2071 O   0  0  0  0  0  0  0  0  0  0  0  0
    1.4267    0.6424    0.9083 C   0  0  0  0  0  0  0  0  0  0  0  0
    0.0657    1.1006    0.4077 C   0  0  0  0  0  0  0  0  0  0  0  0
    0.3280    2.1563   -0.4941 O   0  0  0  0  0  0  0  0  0  0  0  0
   -1.5569   -0.0752    1.7682 H   0  0  0  0  0  0  0  0  0  0  0  0
   -1.3183   -1.6618    1.0130 H   0  0  0  0  0  0  0  0  0  0  0  0
   -2.6689   -0.6500    0.4705 H   0  0  0  0  0  0  0  0  0  0  0  0
   -2.1504    1.2390   -0.7614 H   0  0  0  0  0  0  0  0  0  0  0  0
   -0.1136   -1.1041   -1.9786 H   0  0  0  0  0  0  0  0  0  0  0  0
   -0.2486   -2.0760   -0.5036 H   0  0  0  0  0  0  0  0  0  0  0  0
    1.9385   -1.8342   -0.0064 H   0  0  0  0  0  0  0  0  0  0  0  0
    2.1158   -1.2202   -1.6602 H   0  0  0  0  0  0  0  0  0  0  0  0
    1.9678    1.5461    1.2536 H   0  0  0  0  0  0  0  0  0  0  0  0
    1.2552   -0.1057    1.6818 H   0  0  0  0  0  0  0  0  0  0  0  0
   -0.4718    1.5255    1.2698 H   0  0  0  0  0  0  0  0  0  0  0  0
   -0.4638    2.4368   -0.9809 H   0  0  0  0  0  0  0  0  0  0  0  0
  1  2  1  0
  2  3  1  0
  2  4  1  0
  4  5  1  0
  5  6  1  0
  6  7  1  0
  7  8  1  0
  8  9  1  0
  8  2  1  0
  1 10  1  0
  1 11  1  0
  1 12  1  0
  3 13  1  0
  4 14  1  0
  4 15  1  0
  5 16  1  0
  5 17  1  0
  7 18  1  0
  7 19  1  0
  8 20  1  0
  9 21  1  0
M  END
