
     RDKit          3D

 25 26  0  0  0  0  0  0  0  0999 V2000
   -2.3039   -1.3559    0.5396 C   0  0  0  0  0  0  0  0  0  0  0  0
   -1.4917   -0.2028    0.0421 C   0  0  0  0  0  0  0  0  0  0  0  0
   -2.3399    0.9292   -0.4911 C   0  0  0  0  0  0  0  0  0  0  0  0
   -0.4576    0.3404    1.0040 C   0  0  0  0  0  0  0  0  0  0  0  0
    0.5226    0.3566   -0.1626 C   0  0  0  0  0  0  0  0  0  0  0  0
    1.8773   -0.1538    0.2246 C   0  0  0  0  0  0  0  0  0  0  0  0
    2.9909   -0.2377   -0.7169 C   0  0  0  0  0  0  0  0  0  0  0  0
    2.9746    0.9358    0.2139 C   0  0  0  0  0  0  0  0  0  0  0  0
   -0.3656   -0.5788   -0.9086 C   0  0  0  0  0  0  0  0  0  0  0  0
   -3.1460   -1.5022   -0.1749 H   0  0  0  0  0  0  0  0  0  0  0  0
   -2.6998   -1.1021    1.5497 H   0  0  0  0  0  0  0  0  0  0  0  0
   -1.7219   -2.2986    0.6050 H   0  0  0  0  0  0  0  0  0  0  0  0
   -1.7144    1.7073   -0.9712 H   0  0  0  0  0  0  0  0  0  0  0  0
   -3.0763    0.4976   -1.1959 H   0  0  0  0  0  0  0  0  0  0  0  0
   -2.8493    1.3817    0.4037 H   0  0  0  0  0  0  0  0  0  0  0  0
   -0.6993    1.3481    1.3973 H   0  0  0  0  0  0  0  0  0  0  0  0
   -0.1903   -0.3829    1.8093 H   0  0  0  0  0  0  0  0  0  0  0  0
    0.5427    1.3502   -0.6510 H   0  0  0  0  0  0  0  0  0  0  0  0
    1.8706   -0.8187    1.1345 H   0  0  0  0  0  0  0  0  0  0  0  0
    2.8468   -0.0238   -1.7937 H   0  0  0  0  0  0  0  0  0  0  0  0
    3.7580   -1.0350   -0.5256 H   0  0  0  0  0  0  0  0  0  0  0  0
    3.6947    0.8705    1.0708 H   0  0  0  0  0  0  0  0  0  0  0  0
    2.7097    1.9209   -0.1929 H   0  0  0  0  0  0  0  0  0  0  0  0
   -0.1375   -1.6560   -0.8466 H   0  0  0  0  0  0  0  0  0  0  0  0
   -0.5945   -0.2901   -1.9752 H   0  0  0  0  0  0  0  0  0  0  0  0
  1  2  1  0
  2  3  1  0
  2  4  1  0
  4  5  1  0
  5  6  1  0
  6  7  1  0
  7  8  1  0
  5  9  1  0
  9  2  1  0
  8  6  1  0
  1 10  1  0
  1 11  1  0
  1 12  1  0
  3 13  1  0
  3 14  1  0
  3 15  1  0
  4 16  1  0
  4 17  1  0
  5 18  1  0
  6 19  1  0
  7 20  1  0
  7 21  1  0
  8 22  1  0
  8 23  1  0
  9 24  1  0
  9 25  1  0
M  END
