
     RDKit          3D

 21 22  0  0  0  0  0  0  0  0999 V2000
    1.4196   -1.1899    1.0460 C   0  0  0  0  0  0  0  0  0  0  0  0
    0.7034   -0.1151    0.2096 C   0  0  0  0  0  0  0  0  0  0  0  0
    1.6942    1.0246   -0.1024 C   0  0  0  0  0  0  0  0  0  0  0  0
    2.7815    0.5388   -0.8175 O   0  0  0  0  0  0  0  0  0  0  0  0
   -0.2533   -0.5573   -0.7388 C   0  0  0  0  0  0  0  0  0  0  0  0
   -1.7365   -0.8846   -0.5146 C   0  0  0  0  0  0  0  0  0  0  0  0
   -1.7671    0.6546   -0.3857 C   0  0  0  0  0  0  0  0  0  0  0  0
   -2.8455    1.1495    0.2958 O   0  0  0  0  0  0  0  0  0  0  0  0
   -0.6059    0.3031    0.5493 C   0  0  0  0  0  0  0  0  0  0  0  0
    1.3497   -0.8586    2.1028 H   0  0  0  0  0  0  0  0  0  0  0  0
    0.8967   -2.1551    0.9655 H   0  0  0  0  0  0  0  0  0  0  0  0
    2.4736   -1.2686    0.7599 H   0  0  0  0  0  0  0  0  0  0  0  0
    1.1616    1.7808   -0.7174 H   0  0  0  0  0  0  0  0  0  0  0  0
    1.9983    1.5362    0.8288 H   0  0  0  0  0  0  0  0  0  0  0  0
    3.1849    1.2757   -1.3564 H   0  0  0  0  0  0  0  0  0  0  0  0
   -0.2254    0.0579   -1.6971 H   0  0  0  0  0  0  0  0  0  0  0  0
   -2.2150   -1.2706   -1.4140 H   0  0  0  0  0  0  0  0  0  0  0  0
   -1.9808   -1.3434    0.4380 H   0  0  0  0  0  0  0  0  0  0  0  0
   -1.4203    1.1799   -1.2720 H   0  0  0  0  0  0  0  0  0  0  0  0
   -3.5350    0.4465    0.4339 H   0  0  0  0  0  0  0  0  0  0  0  0
   -1.0786   -0.3043    1.3865 H   0  0  0  0  0  0  0  0  0  0  0  0
  1  2  1  0
  2  3  1  0
  3  4  1  0
  2  5  1  0
  5  6  1  0
  6  7  1  0
  7  8  1  0
  7  9  1  0
  9  2  1  0
  9  5  1  0
  1 10  1  0
  1 11  1  0
  1 12  1  0
  3 13  1  0
  3 14  1  0
  4 15  1  0
  5 16  1  0
  6 17  1  0
  6 18  1  0
  7 19  1  0
  8 20  1  0
  9 21  1  0
M  END
