
     RDKit          3D

 18 19  0  0  0  0  0  0  0  0999 V2000
    1.5551    0.3718   -1.2531 C   0  0  0  0  0  0  0  0  0  0  0  0
    0.6724   -0.0712   -0.1132 C   0  0  0  0  0  0  0  0  0  0  0  0
    1.4710   -0.3110    1.1814 C   0  0  0  0  0  0  0  0  0  0  0  0
   -0.0500   -1.3123   -0.4243 O   0  0  0  0  0  0  0  0  0  0  0  0
   -0.6479    0.0118   -0.0724 C   0  0  0  0  0  0  0  0  0  0  0  0
   -1.8254    0.2699   -0.8802 C   0  0  0  0  0  0  0  0  0  0  0  0
   -2.6056   -0.3557    0.1249 O   0  0  0  0  0  0  0  0  0  0  0  0
   -1.5937   -0.0695    1.0689 C   0  0  0  0  0  0  0  0  0  0  0  0
    1.3972   -0.2580   -2.1746 H   0  0  0  0  0  0  0  0  0  0  0  0
    2.6378    0.2768   -1.0281 H   0  0  0  0  0  0  0  0  0  0  0  0
    1.3699    1.4344   -1.5136 H   0  0  0  0  0  0  0  0  0  0  0  0
    0.7567   -0.7348    1.9450 H   0  0  0  0  0  0  0  0  0  0  0  0
    2.2945   -1.0159    1.0143 H   0  0  0  0  0  0  0  0  0  0  0  0
    1.7964    0.6655    1.6084 H   0  0  0  0  0  0  0  0  0  0  0  0
   -1.9612   -0.2480   -1.8505 H   0  0  0  0  0  0  0  0  0  0  0  0
   -2.1671    1.3107   -0.9703 H   0  0  0  0  0  0  0  0  0  0  0  0
   -1.3875   -0.8797    1.7786 H   0  0  0  0  0  0  0  0  0  0  0  0
   -1.7127    0.9151    1.5587 H   0  0  0  0  0  0  0  0  0  0  0  0
  1  2  1  0
  2  3  1  0
  2  4  1  0
  4  5  1  0
  5  6  1  0
  6  7  1  0
  7  8  1  0
  5  2  1  0
  8  5  1  0
  1  9  1  0
  1 10  1  0
  1 11  1  0
  3 12  1  0
  3 13  1  0
  3 14  1  0
  6 15  1  0
  6 16  1  0
  8 17  1  0
  8 18  1  0
M  END
