
     RDKit          3D

 19 19  0  0  0  0  0  0  0  0999 V2000
   -1.2216   -1.1763    0.2635 C   0  0  0  0  0  0  0  0  0  0  0  0
   -0.4675    0.1121   -0.0933 C   0  0  0  0  0  0  0  0  0  0  0  0
   -1.5285    1.1222   -0.5284 C   0  0  0  0  0  0  0  0  0  0  0  0
    0.1825    0.6203    1.1291 C   0  0  0  0  0  0  0  0  0  0  0  0
    1.5477    0.4223    1.2463 O   0  0  0  0  0  0  0  0  0  0  0  0
    2.2892    0.0503    0.1417 C   0  0  0  0  0  0  0  0  0  0  0  0
    3.5090    0.3089    0.0715 O   0  0  0  0  0  0  0  0  0  0  0  0
    1.5566   -0.6614   -0.9323 C   0  0  0  0  0  0  0  0  0  0  0  0
    0.3363   -0.1216   -1.1702 O   0  0  0  0  0  0  0  0  0  0  0  0
   -2.2652   -1.1403   -0.0879 H   0  0  0  0  0  0  0  0  0  0  0  0
   -1.2563   -1.3119    1.3722 H   0  0  0  0  0  0  0  0  0  0  0  0
   -0.7239   -2.0674   -0.1411 H   0  0  0  0  0  0  0  0  0  0  0  0
   -2.5497    0.7312   -0.4099 H   0  0  0  0  0  0  0  0  0  0  0  0
   -1.4193    2.0830    0.0506 H   0  0  0  0  0  0  0  0  0  0  0  0
   -1.4149    1.4108   -1.5889 H   0  0  0  0  0  0  0  0  0  0  0  0
   -0.0055    1.7277    1.2516 H   0  0  0  0  0  0  0  0  0  0  0  0
   -0.2994    0.1730    2.0482 H   0  0  0  0  0  0  0  0  0  0  0  0
    2.1787   -0.5221   -1.8658 H   0  0  0  0  0  0  0  0  0  0  0  0
    1.5518   -1.7607   -0.7569 H   0  0  0  0  0  0  0  0  0  0  0  0
  1  2  1  0
  2  3  1  0
  2  4  1  0
  4  5  1  0
  5  6  1  0
  6  7  2  0
  6  8  1  0
  8  9  1  0
  9  2  1  0
  1 10  1  0
  1 11  1  0
  1 12  1  0
  3 13  1  0
  3 14  1  0
  3 15  1  0
  4 16  1  0
  4 17  1  0
  8 18  1  0
  8 19  1  0
M  END
