
     RDKit          3D

 21 22  0  0  0  0  0  0  0  0999 V2000
    0.4968   -0.4389    1.6307 C   0  0  0  0  0  0  0  0  0  0  0  0
    0.4929   -0.1144    0.1708 C   0  0  0  0  0  0  0  0  0  0  0  0
    1.5855    0.8420   -0.2324 C   0  0  0  0  0  0  0  0  0  0  0  0
    1.5945    1.1479   -1.5634 O   0  0  0  0  0  0  0  0  0  0  0  0
    0.6128   -1.3702   -0.6965 C   0  0  0  0  0  0  0  0  0  0  0  0
   -0.3526   -0.8384   -1.5613 O   0  0  0  0  0  0  0  0  0  0  0  0
   -0.7878   -0.0629   -0.5203 C   0  0  0  0  0  0  0  0  0  0  0  0
   -2.0341   -0.3976    0.2306 C   0  0  0  0  0  0  0  0  0  0  0  0
   -1.7984    0.9383   -0.5269 C   0  0  0  0  0  0  0  0  0  0  0  0
    0.2662    0.4517    2.2231 H   0  0  0  0  0  0  0  0  0  0  0  0
    1.5056   -0.8769    1.8880 H   0  0  0  0  0  0  0  0  0  0  0  0
   -0.2388   -1.2736    1.7853 H   0  0  0  0  0  0  0  0  0  0  0  0
    2.5571    0.3090   -0.0099 H   0  0  0  0  0  0  0  0  0  0  0  0
    1.6186    1.7595    0.3754 H   0  0  0  0  0  0  0  0  0  0  0  0
    1.6281    2.1495   -1.6861 H   0  0  0  0  0  0  0  0  0  0  0  0
    1.6075   -1.5042   -1.1648 H   0  0  0  0  0  0  0  0  0  0  0  0
    0.2690   -2.2551   -0.1177 H   0  0  0  0  0  0  0  0  0  0  0  0
   -2.7600   -1.0994   -0.2157 H   0  0  0  0  0  0  0  0  0  0  0  0
   -2.0750   -0.2934    1.3400 H   0  0  0  0  0  0  0  0  0  0  0  0
   -2.4526    1.0781   -1.4300 H   0  0  0  0  0  0  0  0  0  0  0  0
   -1.7354    1.8492    0.0809 H   0  0  0  0  0  0  0  0  0  0  0  0
  1  2  1  0
  2  3  1  0
  3  4  1  0
  2  5  1  0
  5  6  1  0
  6  7  1  0
  7  8  1  0
  8  9  1  0
  7  2  1  0
  9  7  1  0
  1 10  1  0
  1 11  1  0
  1 12  1  0
  3 13  1  0
  3 14  1  0
  4 15  1  0
  5 16  1  0
  5 17  1  0
  8 18  1  0
  8 19  1  0
  9 20  1  0
  9 21  1  0
M  END
