
     RDKit          3D

 17 18  0  0  0  0  0  0  0  0999 V2000
   -2.1658   -0.1843   -0.1887 C   0  0  0  0  0  0  0  0  0  0  0  0
   -0.8044    0.4261   -0.1427 C   0  0  0  0  0  0  0  0  0  0  0  0
   -0.7792    1.8004   -0.1704 O   0  0  0  0  0  0  0  0  0  0  0  0
    0.1302   -0.1331    0.8718 C   0  0  0  0  0  0  0  0  0  0  0  0
    0.1299   -0.1789    2.0901 O   0  0  0  0  0  0  0  0  0  0  0  0
    0.9980   -0.5741   -0.2527 C   0  0  0  0  0  0  0  0  0  0  0  0
    2.4538   -0.2694   -0.2572 C   0  0  0  0  0  0  0  0  0  0  0  0
    0.4509   -1.5252   -1.0913 O   0  0  0  0  0  0  0  0  0  0  0  0
    0.0923   -0.2027   -1.2083 C   0  0  0  0  0  0  0  0  0  0  0  0
   -2.5248   -0.1092   -1.2526 H   0  0  0  0  0  0  0  0  0  0  0  0
   -2.1432   -1.2483    0.1014 H   0  0  0  0  0  0  0  0  0  0  0  0
   -2.9089    0.3907    0.4198 H   0  0  0  0  0  0  0  0  0  0  0  0
   -1.5102    2.1305    0.4308 H   0  0  0  0  0  0  0  0  0  0  0  0
    3.0055   -1.1073    0.2528 H   0  0  0  0  0  0  0  0  0  0  0  0
    2.6428    0.6786    0.2575 H   0  0  0  0  0  0  0  0  0  0  0  0
    2.7928   -0.1895   -1.3183 H   0  0  0  0  0  0  0  0  0  0  0  0
    0.1403    0.2959   -2.1720 H   0  0  0  0  0  0  0  0  0  0  0  0
  1  2  1  0
  2  3  1  0
  2  4  1  0
  4  5  2  0
  4  6  1  0
  6  7  1  0
  6  8  1  0
  8  9  1  0
  9  2  1  0
  9  6  1  0
  1 10  1  0
  1 11  1  0
  1 12  1  0
  3 13  1  0
  7 14  1  0
  7 15  1  0
  7 16  1  0
  9 17  1  0
M  END
