
     RDKit          3D

 23 23  0  0  0  0  0  0  0  0999 V2000
    0.4964    1.8097    0.5682 C   0  0  0  0  0  0  0  0  0  0  0  0
    0.0044    0.6410   -0.2671 C   0  0  0  0  0  0  0  0  0  0  0  0
   -0.4003    1.0116   -1.6551 C   0  0  0  0  0  0  0  0  0  0  0  0
   -0.7440   -0.3867    0.5183 C   0  0  0  0  0  0  0  0  0  0  0  0
   -1.9924   -0.9767   -0.0915 C   0  0  0  0  0  0  0  0  0  0  0  0
   -2.5532   -1.9100    0.7758 O   0  0  0  0  0  0  0  0  0  0  0  0
    0.5987   -0.7053   -0.0809 C   0  0  0  0  0  0  0  0  0  0  0  0
    1.7863   -0.9166    0.8022 C   0  0  0  0  0  0  0  0  0  0  0  0
    2.8320   -0.1264    0.2757 O   0  0  0  0  0  0  0  0  0  0  0  0
    0.5271    1.5788    1.6403 H   0  0  0  0  0  0  0  0  0  0  0  0
   -0.2861    2.6134    0.4461 H   0  0  0  0  0  0  0  0  0  0  0  0
    1.4823    2.1555    0.1964 H   0  0  0  0  0  0  0  0  0  0  0  0
    0.3831    0.5856   -2.3475 H   0  0  0  0  0  0  0  0  0  0  0  0
   -0.3828    2.1030   -1.8461 H   0  0  0  0  0  0  0  0  0  0  0  0
   -1.3510    0.5402   -1.9855 H   0  0  0  0  0  0  0  0  0  0  0  0
   -0.7339   -0.3372    1.6201 H   0  0  0  0  0  0  0  0  0  0  0  0
   -1.8327   -1.4430   -1.0595 H   0  0  0  0  0  0  0  0  0  0  0  0
   -2.7237   -0.1519   -0.1896 H   0  0  0  0  0  0  0  0  0  0  0  0
   -2.3822   -1.5633    1.6937 H   0  0  0  0  0  0  0  0  0  0  0  0
    0.5414   -1.3974   -0.9440 H   0  0  0  0  0  0  0  0  0  0  0  0
    1.5948   -0.6510    1.8621 H   0  0  0  0  0  0  0  0  0  0  0  0
    2.1314   -1.9655    0.6993 H   0  0  0  0  0  0  0  0  0  0  0  0
    3.0044   -0.5076   -0.6314 H   0  0  0  0  0  0  0  0  0  0  0  0
  1  2  1  0
  2  3  1  0
  2  4  1  0
  4  5  1  0
  5  6  1  0
  4  7  1  0
  7  8  1  0
  8  9  1  0
  7  2  1  0
  1 10  1  0
  1 11  1  0
  1 12  1  0
  3 13  1  0
  3 14  1  0
  3 15  1  0
  4 16  1  0
  5 17  1  0
  5 18  1  0
  6 19  1  0
  7 20  1  0
  8 21  1  0
  8 22  1  0
  9 23  1  0
M  END
