
     RDKit          3D

 21 22  0  0  0  0  0  0  0  0999 V2000
    0.8390   -1.4694   -0.9184 C   0  0  0  0  0  0  0  0  0  0  0  0
    0.5093   -0.2247   -0.1485 C   0  0  0  0  0  0  0  0  0  0  0  0
    1.5700    0.8697   -0.3299 C   0  0  0  0  0  0  0  0  0  0  0  0
    1.1527    1.9752    0.4332 O   0  0  0  0  0  0  0  0  0  0  0  0
    0.1388   -0.4445    1.2934 C   0  0  0  0  0  0  0  0  0  0  0  0
   -1.3185   -0.2242    1.0381 C   0  0  0  0  0  0  0  0  0  0  0  0
   -1.9791   -0.6989   -0.1942 C   0  0  0  0  0  0  0  0  0  0  0  0
   -0.8999    0.2889   -0.3786 C   0  0  0  0  0  0  0  0  0  0  0  0
   -1.1271    1.6282   -0.5716 O   0  0  0  0  0  0  0  0  0  0  0  0
    1.6194   -1.2325   -1.6765 H   0  0  0  0  0  0  0  0  0  0  0  0
    1.2793   -2.2351   -0.2242 H   0  0  0  0  0  0  0  0  0  0  0  0
   -0.0289   -1.8822   -1.4705 H   0  0  0  0  0  0  0  0  0  0  0  0
    1.6592    1.1522   -1.3958 H   0  0  0  0  0  0  0  0  0  0  0  0
    2.5185    0.5107    0.0804 H   0  0  0  0  0  0  0  0  0  0  0  0
    1.8337    2.6894    0.2660 H   0  0  0  0  0  0  0  0  0  0  0  0
    0.3920   -1.4277    1.7168 H   0  0  0  0  0  0  0  0  0  0  0  0
    0.5569    0.3794    1.9383 H   0  0  0  0  0  0  0  0  0  0  0  0
   -1.8436    0.4895    1.6821 H   0  0  0  0  0  0  0  0  0  0  0  0
   -3.0092   -0.3185   -0.3601 H   0  0  0  0  0  0  0  0  0  0  0  0
   -1.8592   -1.7413   -0.5686 H   0  0  0  0  0  0  0  0  0  0  0  0
   -2.0034    1.9159   -0.2115 H   0  0  0  0  0  0  0  0  0  0  0  0
  1  2  1  0
  2  3  1  0
  3  4  1  0
  2  5  1  0
  5  6  1  0
  6  7  1  0
  7  8  1  0
  8  9  1  0
  8  2  1  0
  8  6  1  0
  1 10  1  0
  1 11  1  0
  1 12  1  0
  3 13  1  0
  3 14  1  0
  4 15  1  0
  5 16  1  0
  5 17  1  0
  6 18  1  0
  7 19  1  0
  7 20  1  0
  9 21  1  0
M  END
