
     RDKit          3D

 17 18  0  0  0  0  0  0  0  0999 V2000
   -2.0226   -0.0471   -0.7564 C   0  0  0  0  0  0  0  0  0  0  0  0
   -0.9220    0.1908    0.2200 C   0  0  0  0  0  0  0  0  0  0  0  0
   -1.1677    1.2017    1.1723 O   0  0  0  0  0  0  0  0  0  0  0  0
   -0.2908   -1.1129    0.7804 C   0  0  0  0  0  0  0  0  0  0  0  0
    0.4718   -0.1453   -0.0029 C   0  0  0  0  0  0  0  0  0  0  0  0
    1.0613   -0.3872   -1.2018 O   0  0  0  0  0  0  0  0  0  0  0  0
    2.2991   -0.0324   -0.6611 C   0  0  0  0  0  0  0  0  0  0  0  0
    1.6132    0.6121    0.5144 C   0  0  0  0  0  0  0  0  0  0  0  0
    1.8458    1.3588    1.4205 O   0  0  0  0  0  0  0  0  0  0  0  0
   -1.8138   -0.9805   -1.3132 H   0  0  0  0  0  0  0  0  0  0  0  0
   -2.9525   -0.2727   -0.1550 H   0  0  0  0  0  0  0  0  0  0  0  0
   -2.2514    0.8086   -1.3983 H   0  0  0  0  0  0  0  0  0  0  0  0
   -0.8967    2.0469    0.7362 H   0  0  0  0  0  0  0  0  0  0  0  0
   -0.1181   -1.1103    1.8841 H   0  0  0  0  0  0  0  0  0  0  0  0
   -0.6163   -2.0603    0.3404 H   0  0  0  0  0  0  0  0  0  0  0  0
    2.9382   -0.8567   -0.3489 H   0  0  0  0  0  0  0  0  0  0  0  0
    2.8225    0.7864   -1.2308 H   0  0  0  0  0  0  0  0  0  0  0  0
  1  2  1  0
  2  3  1  0
  2  4  1  0
  4  5  1  0
  5  6  1  0
  6  7  1  0
  7  8  1  0
  8  9  2  0
  5  2  1  0
  8  5  1  0
  1 10  1  0
  1 11  1  0
  1 12  1  0
  3 13  1  0
  4 14  1  0
  4 15  1  0
  7 16  1  0
  7 17  1  0
M  END
