
     RDKit          3D

 23 25  0  0  0  0  0  0  0  0999 V2000
   -0.4658    1.7011    0.7790 C   0  0  0  0  0  0  0  0  0  0  0  0
   -0.2748    0.4071    0.0204 C   0  0  0  0  0  0  0  0  0  0  0  0
    0.9704    0.4718   -0.8005 C   0  0  0  0  0  0  0  0  0  0  0  0
    2.2947    0.7228   -0.1827 C   0  0  0  0  0  0  0  0  0  0  0  0
    1.9369   -0.6841   -0.5676 C   0  0  0  0  0  0  0  0  0  0  0  0
   -1.5167   -0.1292   -0.6287 C   0  0  0  0  0  0  0  0  0  0  0  0
   -0.8760   -1.4654   -0.5962 C   0  0  0  0  0  0  0  0  0  0  0  0
   -0.4952   -0.8639    0.7285 C   0  0  0  0  0  0  0  0  0  0  0  0
   -1.9606   -0.4773    0.7724 C   0  0  0  0  0  0  0  0  0  0  0  0
    0.1520    2.4922    0.3094 H   0  0  0  0  0  0  0  0  0  0  0  0
   -1.5083    2.0808    0.7287 H   0  0  0  0  0  0  0  0  0  0  0  0
   -0.1300    1.5093    1.8249 H   0  0  0  0  0  0  0  0  0  0  0  0
    0.8507    0.8500   -1.8344 H   0  0  0  0  0  0  0  0  0  0  0  0
    3.0824    1.2018   -0.7884 H   0  0  0  0  0  0  0  0  0  0  0  0
    2.4123    0.8795    0.9027 H   0  0  0  0  0  0  0  0  0  0  0  0
    1.6995   -1.4130    0.2337 H   0  0  0  0  0  0  0  0  0  0  0  0
    2.4204   -1.1552   -1.4475 H   0  0  0  0  0  0  0  0  0  0  0  0
   -2.0722    0.2993   -1.3401 H   0  0  0  0  0  0  0  0  0  0  0  0
   -0.1131   -1.7222   -1.3090 H   0  0  0  0  0  0  0  0  0  0  0  0
   -1.6034   -2.3219   -0.4846 H   0  0  0  0  0  0  0  0  0  0  0  0
    0.0160   -1.3039    1.4648 H   0  0  0  0  0  0  0  0  0  0  0  0
   -2.5746   -1.4031    0.7775 H   0  0  0  0  0  0  0  0  0  0  0  0
   -2.2445    0.3236    1.4379 H   0  0  0  0  0  0  0  0  0  0  0  0
  1  2  1  0
  2  3  1  0
  3  4  1  0
  4  5  1  0
  2  6  1  0
  6  7  1  0
  7  8  1  0
  8  9  1  0
  8  2  1  0
  5  3  1  0
  9  6  1  0
  1 10  1  0
  1 11  1  0
  1 12  1  0
  3 13  1  0
  4 14  1  0
  4 15  1  0
  5 16  1  0
  5 17  1  0
  6 18  1  0
  7 19  1  0
  7 20  1  0
  8 21  1  0
  9 22  1  0
  9 23  1  0
M  END
