
     RDKit          3D

 21 22  0  0  0  0  0  0  0  0999 V2000
   -1.0130   -1.6255   -0.4582 C   0  0  0  0  0  0  0  0  0  0  0  0
   -0.8959   -0.1167   -0.2789 C   0  0  0  0  0  0  0  0  0  0  0  0
    0.3232    0.3869   -0.6893 O   0  0  0  0  0  0  0  0  0  0  0  0
    1.3969   -0.1629    0.0120 C   0  0  0  0  0  0  0  0  0  0  0  0
    2.7236   -0.3326   -0.6098 C   0  0  0  0  0  0  0  0  0  0  0  0
    2.4701    0.8258    0.3539 C   0  0  0  0  0  0  0  0  0  0  0  0
   -1.4764    0.3604    1.0540 C   0  0  0  0  0  0  0  0  0  0  0  0
   -2.1291    0.6653   -0.2583 C   0  0  0  0  0  0  0  0  0  0  0  0
   -2.1663    2.0143   -0.5858 O   0  0  0  0  0  0  0  0  0  0  0  0
   -0.4597   -1.8962   -1.3693 H   0  0  0  0  0  0  0  0  0  0  0  0
   -2.0943   -1.8930   -0.5210 H   0  0  0  0  0  0  0  0  0  0  0  0
   -0.5862   -2.0717    0.4686 H   0  0  0  0  0  0  0  0  0  0  0  0
    1.0880   -0.9012    0.7692 H   0  0  0  0  0  0  0  0  0  0  0  0
    3.3756   -1.1156   -0.1825 H   0  0  0  0  0  0  0  0  0  0  0  0
    2.9432   -0.0864   -1.6536 H   0  0  0  0  0  0  0  0  0  0  0  0
    2.4706    1.8240   -0.1331 H   0  0  0  0  0  0  0  0  0  0  0  0
    2.9571    0.8186    1.3350 H   0  0  0  0  0  0  0  0  0  0  0  0
   -2.0113   -0.3534    1.6900 H   0  0  0  0  0  0  0  0  0  0  0  0
   -0.8843    1.1400    1.5700 H   0  0  0  0  0  0  0  0  0  0  0  0
   -3.0719    0.1233   -0.5104 H   0  0  0  0  0  0  0  0  0  0  0  0
   -2.9600    2.3966   -0.1302 H   0  0  0  0  0  0  0  0  0  0  0  0
  1  2  1  0
  2  3  1  0
  3  4  1  0
  4  5  1  0
  5  6  1  0
  2  7  1  0
  7  8  1  0
  8  9  1  0
  8  2  1  0
  6  4  1  0
  1 10  1  0
  1 11  1  0
  1 12  1  0
  4 13  1  0
  5 14  1  0
  5 15  1  0
  6 16  1  0
  6 17  1  0
  7 18  1  0
  7 19  1  0
  8 20  1  0
  9 21  1  0
M  END
