
     RDKit          3D

 21 21  0  0  0  0  0  0  0  0999 V2000
   -1.4412   -1.6000   -0.4812 C   0  0  0  0  0  0  0  0  0  0  0  0
   -0.5044   -0.4961    0.0730 C   0  0  0  0  0  0  0  0  0  0  0  0
   -1.2998    0.6823    0.5307 C   0  0  0  0  0  0  0  0  0  0  0  0
   -2.0401    1.2429   -0.5351 O   0  0  0  0  0  0  0  0  0  0  0  0
    0.6386   -0.9233    0.9138 C   0  0  0  0  0  0  0  0  0  0  0  0
    0.8459   -0.4550   -0.4909 C   0  0  0  0  0  0  0  0  0  0  0  0
    1.6664    0.7454   -0.7733 C   0  0  0  0  0  0  0  0  0  0  0  0
    2.0137    1.6124    0.3597 C   0  0  0  0  0  0  0  0  0  0  0  0
    1.4664    2.6783    0.5502 O   0  0  0  0  0  0  0  0  0  0  0  0
   -0.9227   -2.5451   -0.6378 H   0  0  0  0  0  0  0  0  0  0  0  0
   -2.2882   -1.7298    0.2480 H   0  0  0  0  0  0  0  0  0  0  0  0
   -1.8156   -1.1948   -1.4424 H   0  0  0  0  0  0  0  0  0  0  0  0
   -0.7979    1.4130    1.1497 H   0  0  0  0  0  0  0  0  0  0  0  0
   -2.1156    0.2407    1.2031 H   0  0  0  0  0  0  0  0  0  0  0  0
   -2.8929    0.7394   -0.6902 H   0  0  0  0  0  0  0  0  0  0  0  0
    1.0223   -0.2410    1.7107 H   0  0  0  0  0  0  0  0  0  0  0  0
    0.8261   -1.9826    1.1748 H   0  0  0  0  0  0  0  0  0  0  0  0
    1.0982   -1.3318   -1.1790 H   0  0  0  0  0  0  0  0  0  0  0  0
    2.6541    0.4531   -1.2498 H   0  0  0  0  0  0  0  0  0  0  0  0
    1.0952    1.3654   -1.5218 H   0  0  0  0  0  0  0  0  0  0  0  0
    2.7915    1.3267    1.0878 H   0  0  0  0  0  0  0  0  0  0  0  0
  1  2  1  0
  2  3  1  0
  3  4  1  0
  2  5  1  0
  5  6  1  0
  6  7  1  0
  7  8  1  0
  8  9  2  0
  6  2  1  0
  1 10  1  0
  1 11  1  0
  1 12  1  0
  3 13  1  0
  3 14  1  0
  4 15  1  0
  5 16  1  0
  5 17  1  0
  6 18  1  0
  7 19  1  0
  7 20  1  0
  8 21  1  0
M  END
