
     RDKit          3D

 23 23  0  0  0  0  0  0  0  0999 V2000
    2.2687   -0.5428   -0.4775 C   0  0  0  0  0  0  0  0  0  0  0  0
    0.9381   -0.5640    0.2420 C   0  0  0  0  0  0  0  0  0  0  0  0
    0.4784   -1.8238    0.5029 O   0  0  0  0  0  0  0  0  0  0  0  0
    0.8844    0.3999    1.4093 C   0  0  0  0  0  0  0  0  0  0  0  0
    0.0061    0.5540    0.1749 C   0  0  0  0  0  0  0  0  0  0  0  0
    0.3531    1.7476   -0.7441 C   0  0  0  0  0  0  0  0  0  0  0  0
   -1.4518    0.4466    0.4127 C   0  0  0  0  0  0  0  0  0  0  0  0
   -2.2311   -0.4372   -0.4943 C   0  0  0  0  0  0  0  0  0  0  0  0
   -1.8631   -1.7694   -0.4970 O   0  0  0  0  0  0  0  0  0  0  0  0
    2.6383    0.4612   -0.6939 H   0  0  0  0  0  0  0  0  0  0  0  0
    3.0092   -0.9993    0.2387 H   0  0  0  0  0  0  0  0  0  0  0  0
    2.2887   -1.1747   -1.3752 H   0  0  0  0  0  0  0  0  0  0  0  0
    0.7708   -2.4896   -0.1670 H   0  0  0  0  0  0  0  0  0  0  0  0
    1.6817    1.1654    1.5127 H   0  0  0  0  0  0  0  0  0  0  0  0
    0.4230    0.0377    2.3414 H   0  0  0  0  0  0  0  0  0  0  0  0
    1.3836    2.0740   -0.5852 H   0  0  0  0  0  0  0  0  0  0  0  0
   -0.3209    2.5910   -0.4834 H   0  0  0  0  0  0  0  0  0  0  0  0
    0.1788    1.4404   -1.7841 H   0  0  0  0  0  0  0  0  0  0  0  0
   -1.9206    1.4768    0.3920 H   0  0  0  0  0  0  0  0  0  0  0  0
   -1.6961    0.0984    1.4658 H   0  0  0  0  0  0  0  0  0  0  0  0
   -2.2549   -0.0853   -1.5488 H   0  0  0  0  0  0  0  0  0  0  0  0
   -3.3179   -0.4335   -0.1812 H   0  0  0  0  0  0  0  0  0  0  0  0
   -2.2465   -2.1732    0.3392 H   0  0  0  0  0  0  0  0  0  0  0  0
  1  2  1  0
  2  3  1  0
  2  4  1  0
  4  5  1  0
  5  6  1  0
  5  7  1  0
  7  8  1  0
  8  9  1  0
  5  2  1  0
  1 10  1  0
  1 11  1  0
  1 12  1  0
  3 13  1  0
  4 14  1  0
  4 15  1  0
  6 16  1  0
  6 17  1  0
  6 18  1  0
  7 19  1  0
  7 20  1  0
  8 21  1  0
  8 22  1  0
  9 23  1  0
M  END
