
     RDKit          3D

 19 20  0  0  0  0  0  0  0  0999 V2000
    1.6599    0.9791    0.2750 C   0  0  0  0  0  0  0  0  0  0  0  0
    0.6569    0.0543   -0.3286 C   0  0  0  0  0  0  0  0  0  0  0  0
    1.0767   -0.5841   -1.4829 O   0  0  0  0  0  0  0  0  0  0  0  0
   -0.1565   -0.7773    0.6134 C   0  0  0  0  0  0  0  0  0  0  0  0
    0.2049   -1.6736    1.3973 O   0  0  0  0  0  0  0  0  0  0  0  0
   -1.1534   -0.8617   -0.5180 C   0  0  0  0  0  0  0  0  0  0  0  0
   -0.7371    0.6006   -0.5053 C   0  0  0  0  0  0  0  0  0  0  0  0
   -1.1142    1.5012   -1.2866 O   0  0  0  0  0  0  0  0  0  0  0  0
   -0.8918    0.5117    0.9801 C   0  0  0  0  0  0  0  0  0  0  0  0
    2.4933    1.1126   -0.4657 H   0  0  0  0  0  0  0  0  0  0  0  0
    1.2546    1.9745    0.5303 H   0  0  0  0  0  0  0  0  0  0  0  0
    2.1236    0.4887    1.1552 H   0  0  0  0  0  0  0  0  0  0  0  0
    1.8085   -1.2296   -1.2957 H   0  0  0  0  0  0  0  0  0  0  0  0
   -0.0155   -2.6131    1.3858 H   0  0  0  0  0  0  0  0  0  0  0  0
   -0.8041   -1.3841   -1.4081 H   0  0  0  0  0  0  0  0  0  0  0  0
   -2.1835   -1.0462   -0.1859 H   0  0  0  0  0  0  0  0  0  0  0  0
   -1.9897    1.3882   -1.7200 H   0  0  0  0  0  0  0  0  0  0  0  0
   -0.2888    1.1758    1.5988 H   0  0  0  0  0  0  0  0  0  0  0  0
   -1.9439    0.3829    1.2608 H   0  0  0  0  0  0  0  0  0  0  0  0
  1  2  1  0
  2  3  1  0
  2  4  1  0
  4  5  1  0
  4  6  1  0
  6  7  1  0
  7  8  1  0
  7  9  1  0
  7  2  1  0
  9  4  1  0
  1 10  1  0
  1 11  1  0
  1 12  1  0
  3 13  1  0
  5 14  1  0
  6 15  1  0
  6 16  1  0
  8 17  1  0
  9 18  1  0
  9 19  1  0
M  END
