
     RDKit          3D

 21 21  0  0  0  0  0  0  0  0999 V2000
   -0.9168   -0.3561    1.5382 C   0  0  0  0  0  0  0  0  0  0  0  0
   -0.7082   -0.0083    0.0739 C   0  0  0  0  0  0  0  0  0  0  0  0
   -2.0485    0.2560   -0.5412 C   0  0  0  0  0  0  0  0  0  0  0  0
   -0.0074   -1.1962   -0.5593 C   0  0  0  0  0  0  0  0  0  0  0  0
    1.2306   -1.3099    0.1111 O   0  0  0  0  0  0  0  0  0  0  0  0
    2.1250   -0.3606   -0.3033 C   0  0  0  0  0  0  0  0  0  0  0  0
    1.5583    0.9802   -0.5834 C   0  0  0  0  0  0  0  0  0  0  0  0
    0.1662    1.1682   -0.1089 C   0  0  0  0  0  0  0  0  0  0  0  0
   -0.2654    2.2653    0.1307 O   0  0  0  0  0  0  0  0  0  0  0  0
   -0.0273   -0.8170    1.9846 H   0  0  0  0  0  0  0  0  0  0  0  0
   -1.2782    0.5147    2.1246 H   0  0  0  0  0  0  0  0  0  0  0  0
   -1.7260   -1.1226    1.5593 H   0  0  0  0  0  0  0  0  0  0  0  0
   -2.5743    0.9853    0.1331 H   0  0  0  0  0  0  0  0  0  0  0  0
   -2.6660   -0.6520   -0.6350 H   0  0  0  0  0  0  0  0  0  0  0  0
   -1.9273    0.7554   -1.5422 H   0  0  0  0  0  0  0  0  0  0  0  0
    0.2565   -0.9503   -1.6108 H   0  0  0  0  0  0  0  0  0  0  0  0
   -0.5896   -2.1330   -0.4647 H   0  0  0  0  0  0  0  0  0  0  0  0
    2.9054   -0.2573    0.4940 H   0  0  0  0  0  0  0  0  0  0  0  0
    2.6798   -0.7476   -1.2029 H   0  0  0  0  0  0  0  0  0  0  0  0
    2.1772    1.7917   -0.1058 H   0  0  0  0  0  0  0  0  0  0  0  0
    1.6359    1.1942   -1.6860 H   0  0  0  0  0  0  0  0  0  0  0  0
  1  2  1  0
  2  3  1  0
  2  4  1  0
  4  5  1  0
  5  6  1  0
  6  7  1  0
  7  8  1  0
  8  9  2  0
  8  2  1  0
  1 10  1  0
  1 11  1  0
  1 12  1  0
  3 13  1  0
  3 14  1  0
  3 15  1  0
  4 16  1  0
  4 17  1  0
  6 18  1  0
  6 19  1  0
  7 20  1  0
  7 21  1  0
M  END
