
     RDKit          3D

 17 17  0  0  0  0  0  0  0  0999 V2000
   -0.5004   -1.5189    0.6911 C   0  0  0  0  0  0  0  0  0  0  0  0
   -0.3892   -0.0751    0.3479 C   0  0  0  0  0  0  0  0  0  0  0  0
    0.9823    0.5450    0.4689 C   0  0  0  0  0  0  0  0  0  0  0  0
    1.9842   -0.0931   -0.3937 C   0  0  0  0  0  0  0  0  0  0  0  0
    2.5137   -1.1233   -0.0169 O   0  0  0  0  0  0  0  0  0  0  0  0
   -1.0633    0.3169   -0.9677 C   0  0  0  0  0  0  0  0  0  0  0  0
   -1.2858    1.5501   -0.2045 C   0  0  0  0  0  0  0  0  0  0  0  0
   -1.3780    2.7614   -0.4922 O   0  0  0  0  0  0  0  0  0  0  0  0
   -1.3469    0.7828    0.9447 O   0  0  0  0  0  0  0  0  0  0  0  0
   -1.4019   -1.9372    0.1733 H   0  0  0  0  0  0  0  0  0  0  0  0
   -0.6740   -1.6848    1.7793 H   0  0  0  0  0  0  0  0  0  0  0  0
    0.4105   -2.0386    0.3343 H   0  0  0  0  0  0  0  0  0  0  0  0
    0.8659    1.6368    0.3027 H   0  0  0  0  0  0  0  0  0  0  0  0
    1.2791    0.4502    1.5532 H   0  0  0  0  0  0  0  0  0  0  0  0
    2.2837    0.2990   -1.3558 H   0  0  0  0  0  0  0  0  0  0  0  0
   -0.2980    0.3587   -1.7619 H   0  0  0  0  0  0  0  0  0  0  0  0
   -1.9819   -0.2300   -1.1667 H   0  0  0  0  0  0  0  0  0  0  0  0
  1  2  1  0
  2  3  1  0
  3  4  1  0
  4  5  2  0
  2  6  1  0
  6  7  1  0
  7  8  2  0
  7  9  1  0
  9  2  1  0
  1 10  1  0
  1 11  1  0
  1 12  1  0
  3 13  1  0
  3 14  1  0
  4 15  1  0
  6 16  1  0
  6 17  1  0
M  END
