
     RDKit          3D

 16 17  0  0  0  0  0  0  0  0999 V2000
    1.7472   -0.8101   -0.0517 C   0  0  0  0  0  0  0  0  0  0  0  0
    0.5651    0.1542    0.0203 C   0  0  0  0  0  0  0  0  0  0  0  0
    0.8335    1.4079   -0.7842 C   0  0  0  0  0  0  0  0  0  0  0  0
    0.7595    2.4768   -0.1605 O   0  0  0  0  0  0  0  0  0  0  0  0
   -0.7525   -0.3978   -0.4259 C   0  0  0  0  0  0  0  0  0  0  0  0
   -2.0742   -0.1412    0.2662 C   0  0  0  0  0  0  0  0  0  0  0  0
   -1.4294   -0.8371    1.2801 O   0  0  0  0  0  0  0  0  0  0  0  0
   -0.3694    0.0534    1.0440 C   0  0  0  0  0  0  0  0  0  0  0  0
    1.8914   -1.3318    0.9304 H   0  0  0  0  0  0  0  0  0  0  0  0
    1.6829   -1.5488   -0.9037 H   0  0  0  0  0  0  0  0  0  0  0  0
    2.7083   -0.2605   -0.2208 H   0  0  0  0  0  0  0  0  0  0  0  0
    1.0616    1.4362   -1.8142 H   0  0  0  0  0  0  0  0  0  0  0  0
   -0.6592   -1.5193   -0.5869 H   0  0  0  0  0  0  0  0  0  0  0  0
   -2.8876   -0.7054   -0.2427 H   0  0  0  0  0  0  0  0  0  0  0  0
   -2.2558    0.9295    0.3814 H   0  0  0  0  0  0  0  0  0  0  0  0
   -0.8214    1.0940    1.2682 H   0  0  0  0  0  0  0  0  0  0  0  0
  1  2  1  0
  2  3  1  0
  3  4  2  0
  2  5  1  0
  5  6  1  0
  6  7  1  0
  7  8  1  0
  8  2  1  0
  8  5  1  0
  1  9  1  0
  1 10  1  0
  1 11  1  0
  3 12  1  0
  5 13  1  0
  6 14  1  0
  6 15  1  0
  8 16  1  0
M  END
