
     RDKit          3D

 19 19  0  0  0  0  0  0  0  0999 V2000
    0.3231   -0.8605    1.2970 C   0  0  0  0  0  0  0  0  0  0  0  0
    0.3705   -0.0640    0.0312 C   0  0  0  0  0  0  0  0  0  0  0  0
    1.6576   -0.2922   -0.7684 C   0  0  0  0  0  0  0  0  0  0  0  0
    2.6986    0.0993    0.0785 O   0  0  0  0  0  0  0  0  0  0  0  0
   -0.3231    1.2050   -0.1506 C   0  0  0  0  0  0  0  0  0  0  0  0
   -1.1361    1.7887    0.7948 O   0  0  0  0  0  0  0  0  0  0  0  0
   -0.9217   -0.0705   -0.7625 C   0  0  0  0  0  0  0  0  0  0  0  0
   -2.1345   -0.6382   -0.1483 C   0  0  0  0  0  0  0  0  0  0  0  0
   -2.9947   -1.1467   -0.8418 O   0  0  0  0  0  0  0  0  0  0  0  0
   -0.4922   -0.5876    1.9753 H   0  0  0  0  0  0  0  0  0  0  0  0
    1.2711   -0.7627    1.8824 H   0  0  0  0  0  0  0  0  0  0  0  0
    0.2231   -1.9375    0.9968 H   0  0  0  0  0  0  0  0  0  0  0  0
    1.7323   -1.3873   -0.9839 H   0  0  0  0  0  0  0  0  0  0  0  0
    1.6426    0.3147   -1.7087 H   0  0  0  0  0  0  0  0  0  0  0  0
    3.0032    1.0041   -0.1967 H   0  0  0  0  0  0  0  0  0  0  0  0
    0.1222    1.9331   -0.8664 H   0  0  0  0  0  0  0  0  0  0  0  0
   -1.9342    2.1422    0.3316 H   0  0  0  0  0  0  0  0  0  0  0  0
   -0.8503   -0.1384   -1.8781 H   0  0  0  0  0  0  0  0  0  0  0  0
   -2.2576   -0.6017    0.9178 H   0  0  0  0  0  0  0  0  0  0  0  0
  1  2  1  0
  2  3  1  0
  3  4  1  0
  2  5  1  0
  5  6  1  0
  5  7  1  0
  7  8  1  0
  8  9  2  0
  7  2  1  0
  1 10  1  0
  1 11  1  0
  1 12  1  0
  3 13  1  0
  3 14  1  0
  4 15  1  0
  5 16  1  0
  6 17  1  0
  7 18  1  0
  8 19  1  0
M  END
