
     RDKit          3D

 18 19  0  0  0  0  0  0  0  0999 V2000
    1.8293   -0.9131    0.8217 C   0  0  0  0  0  0  0  0  0  0  0  0
    0.6920    0.0030    0.4141 C   0  0  0  0  0  0  0  0  0  0  0  0
   -0.3036   -0.6285   -0.5133 C   0  0  0  0  0  0  0  0  0  0  0  0
   -1.3168    0.2510   -1.1576 C   0  0  0  0  0  0  0  0  0  0  0  0
   -2.1587   -0.1228    0.0497 C   0  0  0  0  0  0  0  0  0  0  0  0
   -1.3304   -1.2100    0.2574 O   0  0  0  0  0  0  0  0  0  0  0  0
    1.1097    1.4448    0.2268 C   0  0  0  0  0  0  0  0  0  0  0  0
    0.2964    1.0097    1.2702 O   0  0  0  0  0  0  0  0  0  0  0  0
    2.3922   -0.4797    1.6787 H   0  0  0  0  0  0  0  0  0  0  0  0
    2.5118   -0.9770   -0.0564 H   0  0  0  0  0  0  0  0  0  0  0  0
    1.4910   -1.9355    1.0363 H   0  0  0  0  0  0  0  0  0  0  0  0
    0.1671   -1.3673   -1.2062 H   0  0  0  0  0  0  0  0  0  0  0  0
   -1.1287    1.3173   -1.2461 H   0  0  0  0  0  0  0  0  0  0  0  0
   -1.7136   -0.2045   -2.0945 H   0  0  0  0  0  0  0  0  0  0  0  0
   -3.1791   -0.4892   -0.2594 H   0  0  0  0  0  0  0  0  0  0  0  0
   -2.2010    0.6261    0.8446 H   0  0  0  0  0  0  0  0  0  0  0  0
    2.1318    1.7431    0.5914 H   0  0  0  0  0  0  0  0  0  0  0  0
    0.7106    1.9326   -0.6575 H   0  0  0  0  0  0  0  0  0  0  0  0
  1  2  1  0
  2  3  1  0
  3  4  1  0
  4  5  1  0
  5  6  1  0
  2  7  1  0
  7  8  1  0
  8  2  1  0
  6  3  1  0
  1  9  1  0
  1 10  1  0
  1 11  1  0
  3 12  1  0
  4 13  1  0
  4 14  1  0
  5 15  1  0
  5 16  1  0
  7 17  1  0
  7 18  1  0
M  END
