
     RDKit          3D

 23 24  0  0  0  0  0  0  0  0999 V2000
    1.8285   -0.5933    1.2132 C   0  0  0  0  0  0  0  0  0  0  0  0
    1.2336    0.3595    0.1935 C   0  0  0  0  0  0  0  0  0  0  0  0
    1.9687    1.5192    0.0505 O   0  0  0  0  0  0  0  0  0  0  0  0
    1.0824   -0.4116   -1.0987 C   0  0  0  0  0  0  0  0  0  0  0  0
   -0.3529   -0.8265   -1.1630 C   0  0  0  0  0  0  0  0  0  0  0  0
   -1.1250   -0.0146   -0.1764 C   0  0  0  0  0  0  0  0  0  0  0  0
   -2.3663   -0.5801    0.4721 C   0  0  0  0  0  0  0  0  0  0  0  0
   -1.0375    1.4911   -0.2604 C   0  0  0  0  0  0  0  0  0  0  0  0
   -0.1555    0.7270    0.6371 C   0  0  0  0  0  0  0  0  0  0  0  0
    2.6041   -0.0915    1.8315 H   0  0  0  0  0  0  0  0  0  0  0  0
    2.2534   -1.5080    0.7264 H   0  0  0  0  0  0  0  0  0  0  0  0
    1.0326   -0.9444    1.9219 H   0  0  0  0  0  0  0  0  0  0  0  0
    1.9887    1.8813   -0.8636 H   0  0  0  0  0  0  0  0  0  0  0  0
    1.7137   -1.3372   -1.1067 H   0  0  0  0  0  0  0  0  0  0  0  0
    1.4090    0.2133   -1.9567 H   0  0  0  0  0  0  0  0  0  0  0  0
   -0.4950   -1.9038   -0.9192 H   0  0  0  0  0  0  0  0  0  0  0  0
   -0.7218   -0.6882   -2.2009 H   0  0  0  0  0  0  0  0  0  0  0  0
   -2.9746   -1.1622   -0.2387 H   0  0  0  0  0  0  0  0  0  0  0  0
   -3.0234    0.2625    0.8170 H   0  0  0  0  0  0  0  0  0  0  0  0
   -2.0697   -1.1530    1.3675 H   0  0  0  0  0  0  0  0  0  0  0  0
   -0.6394    1.8838   -1.2068 H   0  0  0  0  0  0  0  0  0  0  0  0
   -1.8073    2.1115    0.2177 H   0  0  0  0  0  0  0  0  0  0  0  0
   -0.3464    0.7654    1.7426 H   0  0  0  0  0  0  0  0  0  0  0  0
  1  2  1  0
  2  3  1  0
  2  4  1  0
  4  5  1  0
  5  6  1  0
  6  7  1  0
  6  8  1  0
  8  9  1  0
  9  2  1  0
  9  6  1  0
  1 10  1  0
  1 11  1  0
  1 12  1  0
  3 13  1  0
  4 14  1  0
  4 15  1  0
  5 16  1  0
  5 17  1  0
  7 18  1  0
  7 19  1  0
  7 20  1  0
  8 21  1  0
  8 22  1  0
  9 23  1  0
M  END
