
     RDKit          3D

 20 21  0  0  0  0  0  0  0  0999 V2000
   -0.9336    0.3209    1.3300 C   0  0  0  0  0  0  0  0  0  0  0  0
   -0.5398   -0.0204   -0.0596 C   0  0  0  0  0  0  0  0  0  0  0  0
   -1.2691   -1.2015   -0.5944 C   0  0  0  0  0  0  0  0  0  0  0  0
   -0.5951    1.2338   -0.9403 C   0  0  0  0  0  0  0  0  0  0  0  0
    0.9380    1.1629   -0.9263 C   0  0  0  0  0  0  0  0  0  0  0  0
    1.4211    0.0744   -1.6191 O   0  0  0  0  0  0  0  0  0  0  0  0
    0.9478   -0.0627   -0.3403 C   0  0  0  0  0  0  0  0  0  0  0  0
    1.8756   -0.7010    0.6383 C   0  0  0  0  0  0  0  0  0  0  0  0
   -0.9624    1.4368    1.5017 H   0  0  0  0  0  0  0  0  0  0  0  0
   -2.0105    0.0086    1.4619 H   0  0  0  0  0  0  0  0  0  0  0  0
   -0.3352   -0.1148    2.1242 H   0  0  0  0  0  0  0  0  0  0  0  0
   -1.5122   -1.1527   -1.6605 H   0  0  0  0  0  0  0  0  0  0  0  0
   -2.1807   -1.4416    0.0268 H   0  0  0  0  0  0  0  0  0  0  0  0
   -0.5951   -2.0959   -0.4439 H   0  0  0  0  0  0  0  0  0  0  0  0
   -1.0475    1.0879   -1.9203 H   0  0  0  0  0  0  0  0  0  0  0  0
   -1.0141    2.1205   -0.4457 H   0  0  0  0  0  0  0  0  0  0  0  0
    1.5137    2.0739   -0.7854 H   0  0  0  0  0  0  0  0  0  0  0  0
    2.3972   -1.5791    0.1547 H   0  0  0  0  0  0  0  0  0  0  0  0
    2.6063    0.0074    1.0201 H   0  0  0  0  0  0  0  0  0  0  0  0
    1.2957   -1.1573    1.4780 H   0  0  0  0  0  0  0  0  0  0  0  0
  1  2  1  0
  2  3  1  0
  2  4  1  0
  4  5  1  0
  5  6  1  0
  6  7  1  0
  7  8  1  0
  7  2  1  0
  7  5  1  0
  1  9  1  0
  1 10  1  0
  1 11  1  0
  3 12  1  0
  3 13  1  0
  3 14  1  0
  4 15  1  0
  4 16  1  0
  5 17  1  0
  8 18  1  0
  8 19  1  0
  8 20  1  0
M  END
