
     RDKit          3D

 21 22  0  0  0  0  0  0  0  0999 V2000
   -2.1358    0.7947   -0.6585 C   0  0  0  0  0  0  0  0  0  0  0  0
   -1.0715   -0.1196   -0.1256 C   0  0  0  0  0  0  0  0  0  0  0  0
   -1.6269   -1.2941    0.6914 C   0  0  0  0  0  0  0  0  0  0  0  0
   -0.2242   -0.5748   -1.2579 O   0  0  0  0  0  0  0  0  0  0  0  0
    0.2657    0.1325   -0.1639 C   0  0  0  0  0  0  0  0  0  0  0  0
    1.2614   -0.6943    0.6572 C   0  0  0  0  0  0  0  0  0  0  0  0
    2.5656   -0.1274    0.0813 C   0  0  0  0  0  0  0  0  0  0  0  0
    2.2877    1.2439    0.1622 O   0  0  0  0  0  0  0  0  0  0  0  0
    1.0319    1.4030   -0.3687 C   0  0  0  0  0  0  0  0  0  0  0  0
   -2.7460    0.2152   -1.4058 H   0  0  0  0  0  0  0  0  0  0  0  0
   -2.7314    1.1655    0.1830 H   0  0  0  0  0  0  0  0  0  0  0  0
   -1.6711    1.6155   -1.2532 H   0  0  0  0  0  0  0  0  0  0  0  0
   -2.6677   -1.1123    0.9855 H   0  0  0  0  0  0  0  0  0  0  0  0
   -1.4409   -2.2516    0.1947 H   0  0  0  0  0  0  0  0  0  0  0  0
   -1.0333   -1.2717    1.6504 H   0  0  0  0  0  0  0  0  0  0  0  0
    1.1477   -0.4403    1.7275 H   0  0  0  0  0  0  0  0  0  0  0  0
    1.1763   -1.7628    0.4628 H   0  0  0  0  0  0  0  0  0  0  0  0
    3.4265   -0.4312    0.6648 H   0  0  0  0  0  0  0  0  0  0  0  0
    2.5804   -0.4032   -0.9820 H   0  0  0  0  0  0  0  0  0  0  0  0
    1.1214    1.7015   -1.4367 H   0  0  0  0  0  0  0  0  0  0  0  0
    0.4843    2.2113    0.1913 H   0  0  0  0  0  0  0  0  0  0  0  0
  1  2  1  0
  2  3  1  0
  2  4  1  0
  4  5  1  0
  5  6  1  0
  6  7  1  0
  7  8  1  0
  8  9  1  0
  5  2  1  0
  9  5  1  0
  1 10  1  0
  1 11  1  0
  1 12  1  0
  3 13  1  0
  3 14  1  0
  3 15  1  0
  6 16  1  0
  6 17  1  0
  7 18  1  0
  7 19  1  0
  9 20  1  0
  9 21  1  0
M  END
