
     RDKit          3D

 21 21  0  0  0  0  0  0  0  0999 V2000
   -1.2706    1.3953   -0.5377 C   0  0  0  0  0  0  0  0  0  0  0  0
   -0.3235    0.2675   -0.1066 C   0  0  0  0  0  0  0  0  0  0  0  0
    1.0369    0.8600   -0.0384 C   0  0  0  0  0  0  0  0  0  0  0  0
    2.1178   -0.0961    0.3711 C   0  0  0  0  0  0  0  0  0  0  0  0
    2.2362   -1.1758   -0.5059 O   0  0  0  0  0  0  0  0  0  0  0  0
   -0.8321   -0.3278    1.1495 C   0  0  0  0  0  0  0  0  0  0  0  0
   -1.6275   -1.4073    0.7481 O   0  0  0  0  0  0  0  0  0  0  0  0
   -1.6089   -1.4461   -0.6256 C   0  0  0  0  0  0  0  0  0  0  0  0
   -0.4544   -0.7560   -1.0319 O   0  0  0  0  0  0  0  0  0  0  0  0
   -0.7423    1.9033   -1.3819 H   0  0  0  0  0  0  0  0  0  0  0  0
   -1.2666    2.1186    0.3111 H   0  0  0  0  0  0  0  0  0  0  0  0
   -2.2592    1.0305   -0.8056 H   0  0  0  0  0  0  0  0  0  0  0  0
    1.2991    1.2424   -1.0475 H   0  0  0  0  0  0  0  0  0  0  0  0
    1.0311    1.7062    0.6472 H   0  0  0  0  0  0  0  0  0  0  0  0
    2.0486   -0.4226    1.4187 H   0  0  0  0  0  0  0  0  0  0  0  0
    3.0878    0.4632    0.2894 H   0  0  0  0  0  0  0  0  0  0  0  0
    3.1732   -1.5268   -0.3759 H   0  0  0  0  0  0  0  0  0  0  0  0
   -1.4679    0.4043    1.6952 H   0  0  0  0  0  0  0  0  0  0  0  0
   -0.0727   -0.7361    1.8272 H   0  0  0  0  0  0  0  0  0  0  0  0
   -2.5301   -0.9821   -1.0280 H   0  0  0  0  0  0  0  0  0  0  0  0
   -1.5748   -2.5147   -0.9727 H   0  0  0  0  0  0  0  0  0  0  0  0
  1  2  1  0
  2  3  1  0
  3  4  1  0
  4  5  1  0
  2  6  1  0
  6  7  1  0
  7  8  1  0
  8  9  1  0
  9  2  1  0
  1 10  1  0
  1 11  1  0
  1 12  1  0
  3 13  1  0
  3 14  1  0
  4 15  1  0
  4 16  1  0
  5 17  1  0
  6 18  1  0
  6 19  1  0
  8 20  1  0
  8 21  1  0
M  END
