
     RDKit          3D

 23 24  0  0  0  0  0  0  0  0999 V2000
   -1.2158   -1.4497    0.0638 C   0  0  0  0  0  0  0  0  0  0  0  0
   -1.0660    0.0197   -0.0403 C   0  0  0  0  0  0  0  0  0  0  0  0
   -2.4084    0.6849    0.2539 C   0  0  0  0  0  0  0  0  0  0  0  0
   -0.4037    0.6565   -1.2152 C   0  0  0  0  0  0  0  0  0  0  0  0
    0.1203    0.8110    0.2291 C   0  0  0  0  0  0  0  0  0  0  0  0
   -0.1515    2.0829    0.8153 O   0  0  0  0  0  0  0  0  0  0  0  0
    1.5227    0.4092    0.3629 C   0  0  0  0  0  0  0  0  0  0  0  0
    2.3249   -0.2783   -0.6726 C   0  0  0  0  0  0  0  0  0  0  0  0
    1.9909   -0.9772    0.6507 C   0  0  0  0  0  0  0  0  0  0  0  0
   -0.6302   -2.0534   -0.6396 H   0  0  0  0  0  0  0  0  0  0  0  0
   -1.0173   -1.7890    1.1115 H   0  0  0  0  0  0  0  0  0  0  0  0
   -2.2641   -1.7546   -0.1428 H   0  0  0  0  0  0  0  0  0  0  0  0
   -2.8042    0.3593    1.2133 H   0  0  0  0  0  0  0  0  0  0  0  0
   -2.3518    1.7871    0.1408 H   0  0  0  0  0  0  0  0  0  0  0  0
   -3.1148    0.3381   -0.5498 H   0  0  0  0  0  0  0  0  0  0  0  0
    0.0773   -0.0253   -1.9044 H   0  0  0  0  0  0  0  0  0  0  0  0
   -0.7777    1.5831   -1.6780 H   0  0  0  0  0  0  0  0  0  0  0  0
    0.4554    2.2641    1.5494 H   0  0  0  0  0  0  0  0  0  0  0  0
    2.1720    1.1632    0.9222 H   0  0  0  0  0  0  0  0  0  0  0  0
    3.3836   -0.0064   -0.8790 H   0  0  0  0  0  0  0  0  0  0  0  0
    1.8991   -0.8291   -1.5282 H   0  0  0  0  0  0  0  0  0  0  0  0
    2.9214   -1.1515    1.2694 H   0  0  0  0  0  0  0  0  0  0  0  0
    1.3379   -1.8447    0.6678 H   0  0  0  0  0  0  0  0  0  0  0  0
  1  2  1  0
  2  3  1  0
  2  4  1  0
  4  5  1  0
  5  6  1  0
  5  7  1  0
  7  8  1  0
  8  9  1  0
  5  2  1  0
  9  7  1  0
  1 10  1  0
  1 11  1  0
  1 12  1  0
  3 13  1  0
  3 14  1  0
  3 15  1  0
  4 16  1  0
  4 17  1  0
  6 18  1  0
  7 19  1  0
  8 20  1  0
  8 21  1  0
  9 22  1  0
  9 23  1  0
M  END
