
     RDKit          3D

 19 20  0  0  0  0  0  0  0  0999 V2000
   -1.9365   -1.1138   -0.0736 C   0  0  0  0  0  0  0  0  0  0  0  0
   -1.1337    0.0660    0.3701 C   0  0  0  0  0  0  0  0  0  0  0  0
    0.3283    0.0574    0.1287 C   0  0  0  0  0  0  0  0  0  0  0  0
    0.9602   -0.9427   -0.4673 C   0  0  0  0  0  0  0  0  0  0  0  0
    2.4009   -0.5956   -0.5287 C   0  0  0  0  0  0  0  0  0  0  0  0
    2.4045    0.7740   -0.5155 O   0  0  0  0  0  0  0  0  0  0  0  0
    1.3854    1.0419    0.4362 C   0  0  0  0  0  0  0  0  0  0  0  0
   -1.7620    1.4281    0.2108 C   0  0  0  0  0  0  0  0  0  0  0  0
   -1.6470    0.8032    1.4282 O   0  0  0  0  0  0  0  0  0  0  0  0
   -1.3803   -2.0499    0.1295 H   0  0  0  0  0  0  0  0  0  0  0  0
   -2.9343   -1.1268    0.4016 H   0  0  0  0  0  0  0  0  0  0  0  0
   -2.1058   -1.0983   -1.1869 H   0  0  0  0  0  0  0  0  0  0  0  0
    0.5371   -1.8529   -0.8483 H   0  0  0  0  0  0  0  0  0  0  0  0
    2.9517   -0.9461    0.3710 H   0  0  0  0  0  0  0  0  0  0  0  0
    2.8271   -1.0409   -1.4487 H   0  0  0  0  0  0  0  0  0  0  0  0
    1.8339    0.7393    1.4213 H   0  0  0  0  0  0  0  0  0  0  0  0
    1.0624    2.0827    0.4075 H   0  0  0  0  0  0  0  0  0  0  0  0
   -2.7014    1.4489   -0.3460 H   0  0  0  0  0  0  0  0  0  0  0  0
   -1.0905    2.3255    0.1102 H   0  0  0  0  0  0  0  0  0  0  0  0
  1  2  1  0
  2  3  1  0
  3  4  2  0
  4  5  1  0
  5  6  1  0
  6  7  1  0
  2  8  1  0
  8  9  1  0
  9  2  1  0
  7  3  1  0
  1 10  1  0
  1 11  1  0
  1 12  1  0
  4 13  1  0
  5 14  1  0
  5 15  1  0
  7 16  1  0
  7 17  1  0
  8 18  1  0
  8 19  1  0
M  END
