
     RDKit          3D

 20 20  0  0  0  0  0  0  0  0999 V2000
   -0.8191    1.4282    0.6488 C   0  0  0  0  0  0  0  0  0  0  0  0
   -0.5164    0.1743   -0.1136 C   0  0  0  0  0  0  0  0  0  0  0  0
    0.7592   -0.5355    0.2547 C   0  0  0  0  0  0  0  0  0  0  0  0
    1.9650    0.3523    0.0379 C   0  0  0  0  0  0  0  0  0  0  0  0
    3.1483   -0.2991    0.3764 O   0  0  0  0  0  0  0  0  0  0  0  0
   -0.9956   -0.0352   -1.4953 C   0  0  0  0  0  0  0  0  0  0  0  0
   -1.7473   -0.6732   -0.4149 C   0  0  0  0  0  0  0  0  0  0  0  0
   -1.5890   -2.0151   -0.0900 O   0  0  0  0  0  0  0  0  0  0  0  0
   -1.1616    2.2627    0.0017 H   0  0  0  0  0  0  0  0  0  0  0  0
   -1.6601    1.1785    1.3597 H   0  0  0  0  0  0  0  0  0  0  0  0
    0.0337    1.6922    1.2882 H   0  0  0  0  0  0  0  0  0  0  0  0
    0.8354   -1.4804   -0.3194 H   0  0  0  0  0  0  0  0  0  0  0  0
    0.7742   -0.8219    1.3343 H   0  0  0  0  0  0  0  0  0  0  0  0
    2.0320    0.5954   -1.0588 H   0  0  0  0  0  0  0  0  0  0  0  0
    1.9234    1.2684    0.6532 H   0  0  0  0  0  0  0  0  0  0  0  0
    2.9760   -1.0285    1.0167 H   0  0  0  0  0  0  0  0  0  0  0  0
   -0.3467   -0.6139   -2.1954 H   0  0  0  0  0  0  0  0  0  0  0  0
   -1.4666    0.8484   -2.0048 H   0  0  0  0  0  0  0  0  0  0  0  0
   -2.7499   -0.2517   -0.1747 H   0  0  0  0  0  0  0  0  0  0  0  0
   -1.3949   -2.0460    0.8951 H   0  0  0  0  0  0  0  0  0  0  0  0
  1  2  1  0
  2  3  1  0
  3  4  1  0
  4  5  1  0
  2  6  1  0
  6  7  1  0
  7  8  1  0
  7  2  1  0
  1  9  1  0
  1 10  1  0
  1 11  1  0
  3 12  1  0
  3 13  1  0
  4 14  1  0
  4 15  1  0
  5 16  1  0
  6 17  1  0
  6 18  1  0
  7 19  1  0
  8 20  1  0
M  END
