
     RDKit          3D

 23 24  0  0  0  0  0  0  0  0999 V2000
   -1.5669    0.9668    0.6245 C   0  0  0  0  0  0  0  0  0  0  0  0
   -0.8266   -0.1706    0.0066 C   0  0  0  0  0  0  0  0  0  0  0  0
   -1.8213   -1.0609   -0.7510 C   0  0  0  0  0  0  0  0  0  0  0  0
   -0.0045   -1.0122    0.9542 C   0  0  0  0  0  0  0  0  0  0  0  0
    1.1783   -0.7997    0.0193 C   0  0  0  0  0  0  0  0  0  0  0  0
    2.2476    0.0795    0.5783 C   0  0  0  0  0  0  0  0  0  0  0  0
    1.9611    1.3805    0.2935 O   0  0  0  0  0  0  0  0  0  0  0  0
    1.0213    1.4376   -0.7077 C   0  0  0  0  0  0  0  0  0  0  0  0
    0.3507    0.1286   -0.8381 C   0  0  0  0  0  0  0  0  0  0  0  0
   -2.1699    0.5418    1.4768 H   0  0  0  0  0  0  0  0  0  0  0  0
   -2.2874    1.3524   -0.1339 H   0  0  0  0  0  0  0  0  0  0  0  0
   -0.9566    1.7605    1.0421 H   0  0  0  0  0  0  0  0  0  0  0  0
   -1.2747   -1.9370   -1.1033 H   0  0  0  0  0  0  0  0  0  0  0  0
   -2.2003   -0.4181   -1.5871 H   0  0  0  0  0  0  0  0  0  0  0  0
   -2.6558   -1.3461   -0.0678 H   0  0  0  0  0  0  0  0  0  0  0  0
   -0.2519   -2.0989    0.9602 H   0  0  0  0  0  0  0  0  0  0  0  0
    0.1210   -0.5816    1.9656 H   0  0  0  0  0  0  0  0  0  0  0  0
    1.4891   -1.6791   -0.5540 H   0  0  0  0  0  0  0  0  0  0  0  0
    2.3135   -0.0453    1.6896 H   0  0  0  0  0  0  0  0  0  0  0  0
    3.2247   -0.2726    0.1733 H   0  0  0  0  0  0  0  0  0  0  0  0
    1.5278    1.7011   -1.6771 H   0  0  0  0  0  0  0  0  0  0  0  0
    0.3274    2.2786   -0.4562 H   0  0  0  0  0  0  0  0  0  0  0  0
    0.2534   -0.2051   -1.9078 H   0  0  0  0  0  0  0  0  0  0  0  0
  1  2  1  0
  2  3  1  0
  2  4  1  0
  4  5  1  0
  5  6  1  0
  6  7  1  0
  7  8  1  0
  8  9  1  0
  9  2  1  0
  9  5  1  0
  1 10  1  0
  1 11  1  0
  1 12  1  0
  3 13  1  0
  3 14  1  0
  3 15  1  0
  4 16  1  0
  4 17  1  0
  5 18  1  0
  6 19  1  0
  6 20  1  0
  8 21  1  0
  8 22  1  0
  9 23  1  0
M  END
