
     RDKit          3D

 21 22  0  0  0  0  0  0  0  0999 V2000
   -1.3452    0.6117    1.0132 C   0  0  0  0  0  0  0  0  0  0  0  0
   -0.9566    0.3255   -0.4420 C   0  0  0  0  0  0  0  0  0  0  0  0
   -1.6270   -0.7642   -1.0416 C   0  0  0  0  0  0  0  0  0  0  0  0
   -0.2894   -1.0738   -0.7238 C   0  0  0  0  0  0  0  0  0  0  0  0
    0.4885   -1.2214    0.5043 C   0  0  0  0  0  0  0  0  0  0  0  0
    1.6711   -0.2681    0.4269 C   0  0  0  0  0  0  0  0  0  0  0  0
    1.3997    1.0692   -0.1328 C   0  0  0  0  0  0  0  0  0  0  0  0
    0.0928    1.2183   -0.8684 C   0  0  0  0  0  0  0  0  0  0  0  0
    0.0169    2.0462   -1.7341 O   0  0  0  0  0  0  0  0  0  0  0  0
   -1.8904   -0.2576    1.4598 H   0  0  0  0  0  0  0  0  0  0  0  0
   -2.0985    1.4255    0.9508 H   0  0  0  0  0  0  0  0  0  0  0  0
   -0.4989    0.9547    1.6095 H   0  0  0  0  0  0  0  0  0  0  0  0
   -2.4532   -1.2706   -0.5034 H   0  0  0  0  0  0  0  0  0  0  0  0
   -1.9288   -0.6326   -2.1218 H   0  0  0  0  0  0  0  0  0  0  0  0
    0.4143   -1.1133   -1.6145 H   0  0  0  0  0  0  0  0  0  0  0  0
    0.9187   -2.2581    0.5610 H   0  0  0  0  0  0  0  0  0  0  0  0
   -0.0080   -1.0411    1.4536 H   0  0  0  0  0  0  0  0  0  0  0  0
    2.4253   -0.7856   -0.2376 H   0  0  0  0  0  0  0  0  0  0  0  0
    2.1060   -0.1696    1.4647 H   0  0  0  0  0  0  0  0  0  0  0  0
    2.2462    1.3993   -0.7455 H   0  0  0  0  0  0  0  0  0  0  0  0
    1.3166    1.8054    0.7218 H   0  0  0  0  0  0  0  0  0  0  0  0
  1  2  1  0
  2  3  1  0
  3  4  1  0
  4  5  1  0
  5  6  1  0
  6  7  1  0
  7  8  1  0
  8  9  2  0
  4  2  1  0
  8  2  1  0
  1 10  1  0
  1 11  1  0
  1 12  1  0
  3 13  1  0
  3 14  1  0
  4 15  1  0
  5 16  1  0
  5 17  1  0
  6 18  1  0
  6 19  1  0
  7 20  1  0
  7 21  1  0
M  END
