
     RDKit          3D

 23 25  0  0  0  0  0  0  0  0999 V2000
   -1.5567    1.0362    1.0123 C   0  0  0  0  0  0  0  0  0  0  0  0
   -1.1209    0.3520   -0.2559 C   0  0  0  0  0  0  0  0  0  0  0  0
   -2.1481   -0.5023   -0.9045 C   0  0  0  0  0  0  0  0  0  0  0  0
   -1.2009   -1.6820   -1.0234 C   0  0  0  0  0  0  0  0  0  0  0  0
   -0.2857   -0.9596   -0.0844 C   0  0  0  0  0  0  0  0  0  0  0  0
    0.3026    0.3170   -0.6241 C   0  0  0  0  0  0  0  0  0  0  0  0
    1.3608    0.8786    0.2710 C   0  0  0  0  0  0  0  0  0  0  0  0
    2.7897    0.8400   -0.1057 C   0  0  0  0  0  0  0  0  0  0  0  0
    2.3024   -0.1687    0.8440 C   0  0  0  0  0  0  0  0  0  0  0  0
   -0.9775    1.9578    1.2210 H   0  0  0  0  0  0  0  0  0  0  0  0
   -1.5654    0.3342    1.8900 H   0  0  0  0  0  0  0  0  0  0  0  0
   -2.6149    1.3950    0.8440 H   0  0  0  0  0  0  0  0  0  0  0  0
   -2.5160   -0.1946   -1.8962 H   0  0  0  0  0  0  0  0  0  0  0  0
   -2.9843   -0.8028   -0.2146 H   0  0  0  0  0  0  0  0  0  0  0  0
   -0.7560   -1.7670   -2.0533 H   0  0  0  0  0  0  0  0  0  0  0  0
   -1.5973   -2.6424   -0.6756 H   0  0  0  0  0  0  0  0  0  0  0  0
   -0.1318   -1.2698    0.9421 H   0  0  0  0  0  0  0  0  0  0  0  0
    0.5507    0.3477   -1.7128 H   0  0  0  0  0  0  0  0  0  0  0  0
    1.0263    1.6923    0.9455 H   0  0  0  0  0  0  0  0  0  0  0  0
    2.9939    0.5027   -1.1468 H   0  0  0  0  0  0  0  0  0  0  0  0
    3.4592    1.6433    0.3052 H   0  0  0  0  0  0  0  0  0  0  0  0
    2.2256   -1.2127    0.4875 H   0  0  0  0  0  0  0  0  0  0  0  0
    2.4443   -0.0950    1.9347 H   0  0  0  0  0  0  0  0  0  0  0  0
  1  2  1  0
  2  3  1  0
  3  4  1  0
  4  5  1  0
  5  6  1  0
  6  7  1  0
  7  8  1  0
  8  9  1  0
  5  2  1  0
  9  7  1  0
  6  2  1  0
  1 10  1  0
  1 11  1  0
  1 12  1  0
  3 13  1  0
  3 14  1  0
  4 15  1  0
  4 16  1  0
  5 17  1  0
  6 18  1  0
  7 19  1  0
  8 20  1  0
  8 21  1  0
  9 22  1  0
  9 23  1  0
M  END
