
     RDKit          3D

 17 18  0  0  0  0  0  0  0  0999 V2000
    2.4266    0.0763    0.0445 C   0  0  0  0  0  0  0  0  0  0  0  0
    1.1112   -0.5977    0.2132 C   0  0  0  0  0  0  0  0  0  0  0  0
    1.0769   -1.9313   -0.1678 O   0  0  0  0  0  0  0  0  0  0  0  0
    0.1797   -1.0219   -0.6903 C   0  0  0  0  0  0  0  0  0  0  0  0
   -0.9407   -0.6907    0.2777 C   0  0  0  0  0  0  0  0  0  0  0  0
   -2.0318    0.1635   -0.2674 C   0  0  0  0  0  0  0  0  0  0  0  0
   -1.6161    1.3997   -0.7116 O   0  0  0  0  0  0  0  0  0  0  0  0
    0.0788   -0.0539    1.1103 C   0  0  0  0  0  0  0  0  0  0  0  0
    0.0928    0.6247    2.1025 O   0  0  0  0  0  0  0  0  0  0  0  0
    2.4466    0.8541   -0.7474 H   0  0  0  0  0  0  0  0  0  0  0  0
    2.7252    0.4954    1.0372 H   0  0  0  0  0  0  0  0  0  0  0  0
    3.2271   -0.6481   -0.2219 H   0  0  0  0  0  0  0  0  0  0  0  0
    0.0387   -0.8960   -1.7647 H   0  0  0  0  0  0  0  0  0  0  0  0
   -1.3446   -1.5946    0.7630 H   0  0  0  0  0  0  0  0  0  0  0  0
   -2.8173    0.2631    0.4833 H   0  0  0  0  0  0  0  0  0  0  0  0
   -2.4643   -0.3647   -1.1644 H   0  0  0  0  0  0  0  0  0  0  0  0
   -2.1887    2.1133   -0.2962 H   0  0  0  0  0  0  0  0  0  0  0  0
  1  2  1  0
  2  3  1  0
  3  4  1  0
  4  5  1  0
  5  6  1  0
  6  7  1  0
  5  8  1  0
  8  9  2  0
  4  2  1  0
  8  2  1  0
  1 10  1  0
  1 11  1  0
  1 12  1  0
  4 13  1  0
  5 14  1  0
  6 15  1  0
  6 16  1  0
  7 17  1  0
M  END
