
     RDKit          3D

 17 18  0  0  0  0  0  0  0  0999 V2000
    1.9740   -0.0136    0.2585 C   0  0  0  0  0  0  0  0  0  0  0  0
    0.5484   -0.2695   -0.1286 C   0  0  0  0  0  0  0  0  0  0  0  0
    0.0012    0.4910   -1.2555 C   0  0  0  0  0  0  0  0  0  0  0  0
   -0.5341    0.6953    0.1174 C   0  0  0  0  0  0  0  0  0  0  0  0
   -0.3859    1.8506    0.8155 O   0  0  0  0  0  0  0  0  0  0  0  0
   -1.4130   -0.4271    0.6047 C   0  0  0  0  0  0  0  0  0  0  0  0
   -2.2623   -0.8257   -0.4497 O   0  0  0  0  0  0  0  0  0  0  0  0
   -0.1939   -1.2866    0.6114 C   0  0  0  0  0  0  0  0  0  0  0  0
    0.0257   -2.3749    1.0634 O   0  0  0  0  0  0  0  0  0  0  0  0
    2.3024   -0.6271    1.1398 H   0  0  0  0  0  0  0  0  0  0  0  0
    2.6114   -0.3994   -0.5908 H   0  0  0  0  0  0  0  0  0  0  0  0
    2.2187    1.0428    0.3725 H   0  0  0  0  0  0  0  0  0  0  0  0
    0.6168    1.3197   -1.6400 H   0  0  0  0  0  0  0  0  0  0  0  0
   -0.7247    0.0395   -1.9862 H   0  0  0  0  0  0  0  0  0  0  0  0
   -1.0756    2.5138    0.5816 H   0  0  0  0  0  0  0  0  0  0  0  0
   -1.9147   -0.2891    1.5596 H   0  0  0  0  0  0  0  0  0  0  0  0
   -1.7944   -1.4398   -1.0735 H   0  0  0  0  0  0  0  0  0  0  0  0
  1  2  1  0
  2  3  1  0
  3  4  1  0
  4  5  1  0
  4  6  1  0
  6  7  1  0
  6  8  1  0
  8  9  2  0
  4  2  1  0
  8  2  1  0
  1 10  1  0
  1 11  1  0
  1 12  1  0
  3 13  1  0
  3 14  1  0
  5 15  1  0
  6 16  1  0
  7 17  1  0
M  END
