
     RDKit          3D

 19 21  0  0  0  0  0  0  0  0999 V2000
    2.1585    0.2394   -0.4125 C   0  0  0  0  0  0  0  0  0  0  0  0
    0.7305    0.1927    0.0008 C   0  0  0  0  0  0  0  0  0  0  0  0
    0.3700   -0.4755    1.3148 C   0  0  0  0  0  0  0  0  0  0  0  0
    0.0334   -1.1917    0.0751 C   0  0  0  0  0  0  0  0  0  0  0  0
   -1.2681   -0.8874   -0.6186 C   0  0  0  0  0  0  0  0  0  0  0  0
   -2.0640   -0.0069    0.2634 C   0  0  0  0  0  0  0  0  0  0  0  0
   -1.4814    1.1840    0.1910 C   0  0  0  0  0  0  0  0  0  0  0  0
   -0.3160    1.0093   -0.7075 C   0  0  0  0  0  0  0  0  0  0  0  0
   -0.8344    0.0376   -1.5987 O   0  0  0  0  0  0  0  0  0  0  0  0
    2.4684   -0.5468   -1.1163 H   0  0  0  0  0  0  0  0  0  0  0  0
    2.3964    1.2650   -0.7402 H   0  0  0  0  0  0  0  0  0  0  0  0
    2.7781    0.0696    0.5161 H   0  0  0  0  0  0  0  0  0  0  0  0
    1.2443   -0.8481    1.8872 H   0  0  0  0  0  0  0  0  0  0  0  0
   -0.3809    0.0851    1.8994 H   0  0  0  0  0  0  0  0  0  0  0  0
    0.6271   -2.0590   -0.2300 H   0  0  0  0  0  0  0  0  0  0  0  0
   -1.7870   -1.7351   -1.0268 H   0  0  0  0  0  0  0  0  0  0  0  0
   -2.9287   -0.3300    0.8219 H   0  0  0  0  0  0  0  0  0  0  0  0
   -1.7809    2.0982    0.6781 H   0  0  0  0  0  0  0  0  0  0  0  0
    0.0346    1.8996   -1.1973 H   0  0  0  0  0  0  0  0  0  0  0  0
  1  2  1  0
  2  3  1  0
  3  4  1  0
  4  5  1  0
  5  6  1  0
  6  7  2  0
  7  8  1  0
  8  9  1  0
  4  2  1  0
  9  5  1  0
  8  2  1  0
  1 10  1  0
  1 11  1  0
  1 12  1  0
  3 13  1  0
  3 14  1  0
  4 15  1  0
  5 16  1  0
  6 17  1  0
  7 18  1  0
  8 19  1  0
M  END
