
     RDKit          3D

 17 19  0  0  0  0  0  0  0  0999 V2000
   -1.8984    0.2933    0.2903 C   0  0  0  0  0  0  0  0  0  0  0  0
   -0.8192   -0.0646   -0.7490 C   0  0  0  0  0  0  0  0  0  0  0  0
   -1.2493   -1.0170   -1.5605 O   0  0  0  0  0  0  0  0  0  0  0  0
   -0.3719   -1.5595   -0.7405 C   0  0  0  0  0  0  0  0  0  0  0  0
    0.0138   -1.1715    0.6416 C   0  0  0  0  0  0  0  0  0  0  0  0
   -0.0273   -1.5909    1.7670 O   0  0  0  0  0  0  0  0  0  0  0  0
    0.4970    0.0370   -0.0583 C   0  0  0  0  0  0  0  0  0  0  0  0
    1.7692    0.3417   -0.5466 C   0  0  0  0  0  0  0  0  0  0  0  0
    1.0532    1.2120    0.5371 C   0  0  0  0  0  0  0  0  0  0  0  0
   -1.9377   -0.4172    1.1074 H   0  0  0  0  0  0  0  0  0  0  0  0
   -2.8952    0.3705   -0.1673 H   0  0  0  0  0  0  0  0  0  0  0  0
   -1.6194    1.3052    0.6501 H   0  0  0  0  0  0  0  0  0  0  0  0
    0.6009   -1.7686   -1.2935 H   0  0  0  0  0  0  0  0  0  0  0  0
    2.6797   -0.1991   -0.1702 H   0  0  0  0  0  0  0  0  0  0  0  0
    1.9290    0.8645   -1.5028 H   0  0  0  0  0  0  0  0  0  0  0  0
    0.7858    2.2423    0.2256 H   0  0  0  0  0  0  0  0  0  0  0  0
    1.4899    1.1219    1.5695 H   0  0  0  0  0  0  0  0  0  0  0  0
  1  2  1  0
  2  3  1  0
  3  4  1  0
  4  5  1  0
  5  6  2  0
  5  7  1  0
  7  8  1  0
  8  9  1  0
  4  2  1  0
  9  7  1  0
  7  2  1  0
  1 10  1  0
  1 11  1  0
  1 12  1  0
  4 13  1  0
  8 14  1  0
  8 15  1  0
  9 16  1  0
  9 17  1  0
M  END
