
     RDKit          3D

 19 21  0  0  0  0  0  0  0  0999 V2000
    1.9526   -0.5475   -0.3052 C   0  0  0  0  0  0  0  0  0  0  0  0
    0.6291   -0.1332    0.1143 C   0  0  0  0  0  0  0  0  0  0  0  0
   -0.2722   -0.8518    1.0363 C   0  0  0  0  0  0  0  0  0  0  0  0
   -1.5500   -0.8925    0.1899 C   0  0  0  0  0  0  0  0  0  0  0  0
   -1.6384    0.5181   -0.3330 C   0  0  0  0  0  0  0  0  0  0  0  0
   -0.1851    0.9626   -0.4216 C   0  0  0  0  0  0  0  0  0  0  0  0
    0.2637    1.6422   -1.5092 O   0  0  0  0  0  0  0  0  0  0  0  0
    0.4254    1.0572    0.9249 C   0  0  0  0  0  0  0  0  0  0  0  0
   -0.2329    0.2757    1.8895 O   0  0  0  0  0  0  0  0  0  0  0  0
    2.0414   -1.5991   -0.6663 H   0  0  0  0  0  0  0  0  0  0  0  0
    2.3129    0.0859   -1.1421 H   0  0  0  0  0  0  0  0  0  0  0  0
    2.6887   -0.4117    0.5285 H   0  0  0  0  0  0  0  0  0  0  0  0
    0.0313   -1.7910    1.4788 H   0  0  0  0  0  0  0  0  0  0  0  0
   -2.4163   -1.2138    0.7676 H   0  0  0  0  0  0  0  0  0  0  0  0
   -1.3270   -1.5554   -0.6681 H   0  0  0  0  0  0  0  0  0  0  0  0
   -2.1560    0.5944   -1.3021 H   0  0  0  0  0  0  0  0  0  0  0  0
   -2.1644    1.1123    0.4672 H   0  0  0  0  0  0  0  0  0  0  0  0
    0.4063    0.9863   -2.2545 H   0  0  0  0  0  0  0  0  0  0  0  0
    1.1911    1.7613    1.2051 H   0  0  0  0  0  0  0  0  0  0  0  0
  1  2  1  0
  2  3  1  0
  3  4  1  0
  4  5  1  0
  5  6  1  0
  6  7  1  0
  6  8  1  0
  8  9  1  0
  6  2  1  0
  8  2  1  0
  9  3  1  0
  1 10  1  0
  1 11  1  0
  1 12  1  0
  3 13  1  0
  4 14  1  0
  4 15  1  0
  5 16  1  0
  5 17  1  0
  7 18  1  0
  8 19  1  0
M  END
