
     RDKit          3D

 20 22  0  0  0  0  0  0  0  0999 V2000
   -2.2327   -0.4865   -0.4829 C   0  0  0  0  0  0  0  0  0  0  0  0
   -0.9601    0.2635   -0.3430 C   0  0  0  0  0  0  0  0  0  0  0  0
   -0.9572    1.5323    0.3855 C   0  0  0  0  0  0  0  0  0  0  0  0
   -0.1939    0.3589    0.9062 C   0  0  0  0  0  0  0  0  0  0  0  0
    1.0675    0.0070    0.1675 C   0  0  0  0  0  0  0  0  0  0  0  0
    1.9132   -1.1455    0.6189 C   0  0  0  0  0  0  0  0  0  0  0  0
    1.4134    0.7519   -1.0591 C   0  0  0  0  0  0  0  0  0  0  0  0
    0.2760   -0.1979   -1.0655 C   0  0  0  0  0  0  0  0  0  0  0  0
   -3.0865    0.2172   -0.3701 H   0  0  0  0  0  0  0  0  0  0  0  0
   -2.3645   -1.3284    0.2002 H   0  0  0  0  0  0  0  0  0  0  0  0
   -2.2914   -0.8595   -1.5432 H   0  0  0  0  0  0  0  0  0  0  0  0
   -1.9143    1.7994    0.9018 H   0  0  0  0  0  0  0  0  0  0  0  0
   -0.3787    2.4187    0.0956 H   0  0  0  0  0  0  0  0  0  0  0  0
   -0.4520   -0.1428    1.8346 H   0  0  0  0  0  0  0  0  0  0  0  0
    2.7930   -0.8490    1.2150 H   0  0  0  0  0  0  0  0  0  0  0  0
    1.3547   -1.8914    1.2172 H   0  0  0  0  0  0  0  0  0  0  0  0
    2.2633   -1.6748   -0.3052 H   0  0  0  0  0  0  0  0  0  0  0  0
    2.3616    0.5214   -1.5634 H   0  0  0  0  0  0  0  0  0  0  0  0
    1.1174    1.8280   -1.1622 H   0  0  0  0  0  0  0  0  0  0  0  0
    0.2711   -1.1223   -1.6361 H   0  0  0  0  0  0  0  0  0  0  0  0
  1  2  1  0
  2  3  1  0
  3  4  1  0
  4  5  1  0
  5  6  1  0
  5  7  1  0
  7  8  1  0
  4  2  1  0
  8  5  1  0
  8  2  1  0
  1  9  1  0
  1 10  1  0
  1 11  1  0
  3 12  1  0
  3 13  1  0
  4 14  1  0
  6 15  1  0
  6 16  1  0
  6 17  1  0
  7 18  1  0
  7 19  1  0
  8 20  1  0
M  END
