
     RDKit          3D

 17 19  0  0  0  0  0  0  0  0999 V2000
    2.2331   -0.2511    0.2354 C   0  0  0  0  0  0  0  0  0  0  0  0
    0.8066   -0.2569   -0.1626 C   0  0  0  0  0  0  0  0  0  0  0  0
    0.3713    0.7932   -1.1261 C   0  0  0  0  0  0  0  0  0  0  0  0
   -0.9012    1.0957   -0.9416 C   0  0  0  0  0  0  0  0  0  0  0  0
   -1.4308    0.2647    0.1728 C   0  0  0  0  0  0  0  0  0  0  0  0
   -2.6472    0.5022    0.7245 O   0  0  0  0  0  0  0  0  0  0  0  0
   -0.9411   -1.1483    0.1565 C   0  0  0  0  0  0  0  0  0  0  0  0
    0.2398   -1.4743   -0.5075 O   0  0  0  0  0  0  0  0  0  0  0  0
   -0.2253   -0.1174    0.9075 C   0  0  0  0  0  0  0  0  0  0  0  0
    2.9139    0.1484   -0.5328 H   0  0  0  0  0  0  0  0  0  0  0  0
    2.3306    0.4316    1.1275 H   0  0  0  0  0  0  0  0  0  0  0  0
    2.5118   -1.2602    0.5947 H   0  0  0  0  0  0  0  0  0  0  0  0
    1.0143    1.2356   -1.8650 H   0  0  0  0  0  0  0  0  0  0  0  0
   -1.4517    1.8218   -1.5071 H   0  0  0  0  0  0  0  0  0  0  0  0
   -3.3469    0.2745    0.0336 H   0  0  0  0  0  0  0  0  0  0  0  0
   -1.4292   -1.9444    0.7351 H   0  0  0  0  0  0  0  0  0  0  0  0
   -0.0479   -0.1149    1.9553 H   0  0  0  0  0  0  0  0  0  0  0  0
  1  2  1  0
  2  3  1  0
  3  4  2  0
  4  5  1  0
  5  6  1  0
  5  7  1  0
  7  8  1  0
  7  9  1  0
  8  2  1  0
  9  2  1  0
  9  5  1  0
  1 10  1  0
  1 11  1  0
  1 12  1  0
  3 13  1  0
  4 14  1  0
  6 15  1  0
  7 16  1  0
  9 17  1  0
M  END
