
     RDKit          3D

 19 20  0  0  0  0  0  0  0  0999 V2000
    1.7904   -0.3290    0.5585 C   0  0  0  0  0  0  0  0  0  0  0  0
    0.5703    0.1677   -0.1517 C   0  0  0  0  0  0  0  0  0  0  0  0
    0.7256    1.4841   -0.8213 C   0  0  0  0  0  0  0  0  0  0  0  0
   -0.3984    1.9375   -0.0931 O   0  0  0  0  0  0  0  0  0  0  0  0
   -0.5118    0.7605    0.6748 C   0  0  0  0  0  0  0  0  0  0  0  0
   -1.7853   -0.0069    0.3942 C   0  0  0  0  0  0  0  0  0  0  0  0
   -1.2241   -1.3557   -0.0717 C   0  0  0  0  0  0  0  0  0  0  0  0
   -0.0736   -0.9131   -0.9406 C   0  0  0  0  0  0  0  0  0  0  0  0
    0.1820   -1.3886   -2.0120 O   0  0  0  0  0  0  0  0  0  0  0  0
    1.7756   -1.4485    0.6953 H   0  0  0  0  0  0  0  0  0  0  0  0
    2.6747   -0.1507   -0.1095 H   0  0  0  0  0  0  0  0  0  0  0  0
    1.9155    0.2032    1.5093 H   0  0  0  0  0  0  0  0  0  0  0  0
    0.5933    1.5174   -1.9205 H   0  0  0  0  0  0  0  0  0  0  0  0
    1.6065    2.0686   -0.4817 H   0  0  0  0  0  0  0  0  0  0  0  0
   -0.2897    0.9400    1.7444 H   0  0  0  0  0  0  0  0  0  0  0  0
   -2.3689    0.4406   -0.4407 H   0  0  0  0  0  0  0  0  0  0  0  0
   -2.4176   -0.1400    1.2874 H   0  0  0  0  0  0  0  0  0  0  0  0
   -1.9401   -1.9257   -0.6485 H   0  0  0  0  0  0  0  0  0  0  0  0
   -0.8242   -1.8613    0.8275 H   0  0  0  0  0  0  0  0  0  0  0  0
  1  2  1  0
  2  3  1  0
  3  4  1  0
  4  5  1  0
  5  6  1  0
  6  7  1  0
  7  8  1  0
  8  9  2  0
  5  2  1  0
  8  2  1  0
  1 10  1  0
  1 11  1  0
  1 12  1  0
  3 13  1  0
  3 14  1  0
  5 15  1  0
  6 16  1  0
  6 17  1  0
  7 18  1  0
  7 19  1  0
M  END
