
     RDKit          3D

 18 19  0  0  0  0  0  0  0  0999 V2000
   -1.7673   -0.6078    0.7179 C   0  0  0  0  0  0  0  0  0  0  0  0
   -0.6216   -0.3479   -0.1972 C   0  0  0  0  0  0  0  0  0  0  0  0
    0.3799   -1.4282   -0.3377 C   0  0  0  0  0  0  0  0  0  0  0  0
    1.5649   -1.0229    0.0440 C   0  0  0  0  0  0  0  0  0  0  0  0
    1.4966    0.3928    0.4905 C   0  0  0  0  0  0  0  0  0  0  0  0
    0.1285    0.8873    0.1927 C   0  0  0  0  0  0  0  0  0  0  0  0
   -0.1646    1.3421   -1.1938 C   0  0  0  0  0  0  0  0  0  0  0  0
   -0.9241    0.1855   -1.4425 O   0  0  0  0  0  0  0  0  0  0  0  0
   -1.4952   -1.3842    1.4475 H   0  0  0  0  0  0  0  0  0  0  0  0
   -2.6346   -0.9259    0.1154 H   0  0  0  0  0  0  0  0  0  0  0  0
   -2.0441    0.3224    1.2798 H   0  0  0  0  0  0  0  0  0  0  0  0
    0.1505   -2.4112   -0.7061 H   0  0  0  0  0  0  0  0  0  0  0  0
    2.4923   -1.5849    0.0566 H   0  0  0  0  0  0  0  0  0  0  0  0
    1.6318    0.3959    1.6054 H   0  0  0  0  0  0  0  0  0  0  0  0
    2.3133    0.9762    0.0560 H   0  0  0  0  0  0  0  0  0  0  0  0
   -0.3372    1.5238    0.9635 H   0  0  0  0  0  0  0  0  0  0  0  0
    0.7101    1.4714   -1.8615 H   0  0  0  0  0  0  0  0  0  0  0  0
   -0.8792    2.2157   -1.2303 H   0  0  0  0  0  0  0  0  0  0  0  0
  1  2  1  0
  2  3  1  0
  3  4  2  0
  4  5  1  0
  5  6  1  0
  6  7  1  0
  7  8  1  0
  6  2  1  0
  8  2  1  0
  1  9  1  0
  1 10  1  0
  1 11  1  0
  3 12  1  0
  4 13  1  0
  5 14  1  0
  5 15  1  0
  6 16  1  0
  7 17  1  0
  7 18  1  0
M  END
