
     RDKit          3D

 18 19  0  0  0  0  0  0  0  0999 V2000
   -1.3472   -1.5024    0.1661 C   0  0  0  0  0  0  0  0  0  0  0  0
   -0.3746   -0.4201   -0.1650 C   0  0  0  0  0  0  0  0  0  0  0  0
   -0.8674    0.9048   -0.6760 C   0  0  0  0  0  0  0  0  0  0  0  0
   -0.0275    1.6663    0.3204 C   0  0  0  0  0  0  0  0  0  0  0  0
    0.2702    0.3569    0.9981 C   0  0  0  0  0  0  0  0  0  0  0  0
    1.0484   -0.6250    0.1960 C   0  0  0  0  0  0  0  0  0  0  0  0
    2.0535   -0.1676   -0.7748 C   0  0  0  0  0  0  0  0  0  0  0  0
    3.0663   -0.8184   -0.9608 O   0  0  0  0  0  0  0  0  0  0  0  0
   -2.1787   -1.5943   -0.5470 H   0  0  0  0  0  0  0  0  0  0  0  0
   -1.6906   -1.3366    1.2139 H   0  0  0  0  0  0  0  0  0  0  0  0
   -0.8039   -2.4670    0.1721 H   0  0  0  0  0  0  0  0  0  0  0  0
   -0.6728    1.1153   -1.7367 H   0  0  0  0  0  0  0  0  0  0  0  0
   -1.9471    1.0427   -0.4203 H   0  0  0  0  0  0  0  0  0  0  0  0
    0.9077    2.1175   -0.0982 H   0  0  0  0  0  0  0  0  0  0  0  0
   -0.5983    2.3959    0.9411 H   0  0  0  0  0  0  0  0  0  0  0  0
   -0.0633    0.1502    2.0110 H   0  0  0  0  0  0  0  0  0  0  0  0
    1.2800   -1.5607    0.7142 H   0  0  0  0  0  0  0  0  0  0  0  0
    1.9453    0.7426   -1.3539 H   0  0  0  0  0  0  0  0  0  0  0  0
  1  2  1  0
  2  3  1  0
  3  4  1  0
  4  5  1  0
  5  6  1  0
  6  7  1  0
  7  8  2  0
  5  2  1  0
  6  2  1  0
  1  9  1  0
  1 10  1  0
  1 11  1  0
  3 12  1  0
  3 13  1  0
  4 14  1  0
  4 15  1  0
  5 16  1  0
  6 17  1  0
  7 18  1  0
M  END
