
     RDKit          3D

 21 22  0  0  0  0  0  0  0  0999 V2000
    1.8678   -0.8912    0.2183 C   0  0  0  0  0  0  0  0  0  0  0  0
    0.6414   -0.2915   -0.4146 C   0  0  0  0  0  0  0  0  0  0  0  0
   -0.3830   -1.3466   -0.7232 C   0  0  0  0  0  0  0  0  0  0  0  0
   -1.7053   -0.8080   -0.2777 C   0  0  0  0  0  0  0  0  0  0  0  0
   -1.4676    0.5220    0.3778 C   0  0  0  0  0  0  0  0  0  0  0  0
    0.0031    0.7357    0.4579 C   0  0  0  0  0  0  0  0  0  0  0  0
    0.5619    0.8858    1.7027 O   0  0  0  0  0  0  0  0  0  0  0  0
    0.5646    1.7099   -0.5342 C   0  0  0  0  0  0  0  0  0  0  0  0
    0.8540    0.6589   -1.3858 O   0  0  0  0  0  0  0  0  0  0  0  0
    1.9760   -1.9635   -0.0777 H   0  0  0  0  0  0  0  0  0  0  0  0
    1.6966   -0.8699    1.3284 H   0  0  0  0  0  0  0  0  0  0  0  0
    2.7839   -0.3480   -0.0724 H   0  0  0  0  0  0  0  0  0  0  0  0
   -0.1481   -2.3260   -0.2276 H   0  0  0  0  0  0  0  0  0  0  0  0
   -0.3240   -1.5537   -1.8125 H   0  0  0  0  0  0  0  0  0  0  0  0
   -2.3561   -0.7215   -1.1750 H   0  0  0  0  0  0  0  0  0  0  0  0
   -2.1240   -1.4995    0.4782 H   0  0  0  0  0  0  0  0  0  0  0  0
   -1.8955    1.3143   -0.2932 H   0  0  0  0  0  0  0  0  0  0  0  0
   -1.9030    0.6166    1.3801 H   0  0  0  0  0  0  0  0  0  0  0  0
    0.0984    1.5643    2.2243 H   0  0  0  0  0  0  0  0  0  0  0  0
    1.4858    2.2359   -0.2462 H   0  0  0  0  0  0  0  0  0  0  0  0
   -0.2270    2.3760   -0.9276 H   0  0  0  0  0  0  0  0  0  0  0  0
  1  2  1  0
  2  3  1  0
  3  4  1  0
  4  5  1  0
  5  6  1  0
  6  7  1  0
  6  8  1  0
  8  9  1  0
  6  2  1  0
  9  2  1  0
  1 10  1  0
  1 11  1  0
  1 12  1  0
  3 13  1  0
  3 14  1  0
  4 15  1  0
  4 16  1  0
  5 17  1  0
  5 18  1  0
  7 19  1  0
  8 20  1  0
  8 21  1  0
M  END
