
     RDKit          3D

 19 21  0  0  0  0  0  0  0  0999 V2000
    2.1646    0.3067   -0.4624 C   0  0  0  0  0  0  0  0  0  0  0  0
    0.7018    0.0005   -0.3474 C   0  0  0  0  0  0  0  0  0  0  0  0
    0.2948   -1.4240   -0.4992 C   0  0  0  0  0  0  0  0  0  0  0  0
   -0.7068   -1.7297    0.3792 O   0  0  0  0  0  0  0  0  0  0  0  0
   -1.0675   -0.5694    1.0583 C   0  0  0  0  0  0  0  0  0  0  0  0
   -2.1858    0.0373    0.3048 C   0  0  0  0  0  0  0  0  0  0  0  0
   -1.6987    0.9767   -0.4867 C   0  0  0  0  0  0  0  0  0  0  0  0
   -0.2437    1.1159   -0.3692 C   0  0  0  0  0  0  0  0  0  0  0  0
    0.0365    0.4078    0.9066 C   0  0  0  0  0  0  0  0  0  0  0  0
    2.6954   -0.4991   -1.0256 H   0  0  0  0  0  0  0  0  0  0  0  0
    2.6226    0.3173    0.5493 H   0  0  0  0  0  0  0  0  0  0  0  0
    2.2827    1.2951   -0.9433 H   0  0  0  0  0  0  0  0  0  0  0  0
    0.0683   -1.7100   -1.5464 H   0  0  0  0  0  0  0  0  0  0  0  0
    1.1873   -2.0542   -0.2120 H   0  0  0  0  0  0  0  0  0  0  0  0
   -1.3343   -0.7945    2.1162 H   0  0  0  0  0  0  0  0  0  0  0  0
   -3.2268   -0.2835    0.4273 H   0  0  0  0  0  0  0  0  0  0  0  0
   -2.3175    1.5726   -1.1462 H   0  0  0  0  0  0  0  0  0  0  0  0
    0.2002    2.1331   -0.4378 H   0  0  0  0  0  0  0  0  0  0  0  0
    0.5270    0.9015    1.7346 H   0  0  0  0  0  0  0  0  0  0  0  0
  1  2  1  0
  2  3  1  0
  3  4  1  0
  4  5  1  0
  5  6  1  0
  6  7  2  0
  7  8  1  0
  8  9  1  0
  8  2  1  0
  9  2  1  0
  9  5  1  0
  1 10  1  0
  1 11  1  0
  1 12  1  0
  3 13  1  0
  3 14  1  0
  5 15  1  0
  6 16  1  0
  7 17  1  0
  8 18  1  0
  9 19  1  0
M  END
