
     RDKit          3D

 17 18  0  0  0  0  0  0  0  0999 V2000
    1.9787    0.3077   -0.3524 C   0  0  0  0  0  0  0  0  0  0  0  0
    0.5837    0.1123   -0.0709 C   0  0  0  0  0  0  0  0  0  0  0  0
   -0.2751    1.3270    0.0547 C   0  0  0  0  0  0  0  0  0  0  0  0
   -1.5337    0.9427   -0.1322 C   0  0  0  0  0  0  0  0  0  0  0  0
   -1.5221   -0.5148   -0.2953 C   0  0  0  0  0  0  0  0  0  0  0  0
   -1.0305   -1.0609    1.0126 C   0  0  0  0  0  0  0  0  0  0  0  0
    0.2491   -0.7202    1.1414 C   0  0  0  0  0  0  0  0  0  0  0  0
   -0.2245   -0.6448   -1.0694 C   0  0  0  0  0  0  0  0  0  0  0  0
    0.0066   -1.1731   -2.0998 O   0  0  0  0  0  0  0  0  0  0  0  0
    2.4149   -0.5418   -0.9097 H   0  0  0  0  0  0  0  0  0  0  0  0
    2.5633    0.3911    0.6022 H   0  0  0  0  0  0  0  0  0  0  0  0
    2.1496    1.2410   -0.9118 H   0  0  0  0  0  0  0  0  0  0  0  0
    0.0724    2.3230    0.2589 H   0  0  0  0  0  0  0  0  0  0  0  0
   -2.3690    1.6142   -0.1517 H   0  0  0  0  0  0  0  0  0  0  0  0
   -2.3531   -0.9960   -0.7274 H   0  0  0  0  0  0  0  0  0  0  0  0
   -1.6367   -1.6241    1.6983 H   0  0  0  0  0  0  0  0  0  0  0  0
    0.9262   -0.9833    1.9525 H   0  0  0  0  0  0  0  0  0  0  0  0
  1  2  1  0
  2  3  1  0
  3  4  2  0
  4  5  1  0
  5  6  1  0
  6  7  2  0
  5  8  1  0
  8  9  2  0
  7  2  1  0
  8  2  1  0
  1 10  1  0
  1 11  1  0
  1 12  1  0
  3 13  1  0
  4 14  1  0
  5 15  1  0
  6 16  1  0
  7 17  1  0
M  END
