
     RDKit          3D

 17 18  0  0  0  0  0  0  0  0999 V2000
   -2.0284   -0.1331    0.5252 C   0  0  0  0  0  0  0  0  0  0  0  0
   -0.7269    0.1722    0.0201 C   0  0  0  0  0  0  0  0  0  0  0  0
    0.4227    0.4762    0.9668 C   0  0  0  0  0  0  0  0  0  0  0  0
    1.2664    0.0963   -0.2327 C   0  0  0  0  0  0  0  0  0  0  0  0
    2.5130   -0.2776   -0.0998 O   0  0  0  0  0  0  0  0  0  0  0  0
    0.1774   -0.9637   -0.4816 C   0  0  0  0  0  0  0  0  0  0  0  0
    0.8426    1.1446   -1.1795 C   0  0  0  0  0  0  0  0  0  0  0  0
    1.5057    1.8714   -1.9493 O   0  0  0  0  0  0  0  0  0  0  0  0
   -0.5419    1.1389   -1.0101 O   0  0  0  0  0  0  0  0  0  0  0  0
   -2.2591   -1.2334    0.4318 H   0  0  0  0  0  0  0  0  0  0  0  0
   -2.8497    0.3585   -0.0751 H   0  0  0  0  0  0  0  0  0  0  0  0
   -2.2440    0.1704    1.5858 H   0  0  0  0  0  0  0  0  0  0  0  0
    0.4943    1.5787    1.1328 H   0  0  0  0  0  0  0  0  0  0  0  0
    0.5067   -0.1479    1.8459 H   0  0  0  0  0  0  0  0  0  0  0  0
    2.6017   -1.2806   -0.1273 H   0  0  0  0  0  0  0  0  0  0  0  0
    0.2499   -1.8207    0.1961 H   0  0  0  0  0  0  0  0  0  0  0  0
    0.0697   -1.1503   -1.5491 H   0  0  0  0  0  0  0  0  0  0  0  0
  1  2  1  0
  2  3  1  0
  3  4  1  0
  4  5  1  0
  4  6  1  0
  4  7  1  0
  7  8  2  0
  7  9  1  0
  6  2  1  0
  9  2  1  0
  1 10  1  0
  1 11  1  0
  1 12  1  0
  3 13  1  0
  3 14  1  0
  5 15  1  0
  6 16  1  0
  6 17  1  0
M  END
