
     RDKit          3D

 21 22  0  0  0  0  0  0  0  0999 V2000
   -1.2778   -0.9557   -1.3570 C   0  0  0  0  0  0  0  0  0  0  0  0
   -0.7307   -0.4348   -0.0493 C   0  0  0  0  0  0  0  0  0  0  0  0
   -1.6443    0.3919    0.8056 C   0  0  0  0  0  0  0  0  0  0  0  0
   -0.8016    1.4758    1.3274 C   0  0  0  0  0  0  0  0  0  0  0  0
    0.4326    1.3281    0.9153 C   0  0  0  0  0  0  0  0  0  0  0  0
    0.5869    0.1476    0.0759 C   0  0  0  0  0  0  0  0  0  0  0  0
    1.6458    0.0847   -0.9884 C   0  0  0  0  0  0  0  0  0  0  0  0
    2.7850    0.7508   -0.5215 O   0  0  0  0  0  0  0  0  0  0  0  0
    0.2776   -1.2341    0.7020 C   0  0  0  0  0  0  0  0  0  0  0  0
   -0.4051   -1.2616   -1.9734 H   0  0  0  0  0  0  0  0  0  0  0  0
   -1.7168   -0.0635   -1.8892 H   0  0  0  0  0  0  0  0  0  0  0  0
   -2.0345   -1.7373   -1.2358 H   0  0  0  0  0  0  0  0  0  0  0  0
   -2.0393   -0.2190    1.6701 H   0  0  0  0  0  0  0  0  0  0  0  0
   -2.5210    0.7778    0.2324 H   0  0  0  0  0  0  0  0  0  0  0  0
   -1.1904    2.2959    1.9816 H   0  0  0  0  0  0  0  0  0  0  0  0
    1.2703    2.0017    1.1603 H   0  0  0  0  0  0  0  0  0  0  0  0
    1.2989    0.5857   -1.9217 H   0  0  0  0  0  0  0  0  0  0  0  0
    1.8731   -0.9496   -1.2336 H   0  0  0  0  0  0  0  0  0  0  0  0
    3.1681    0.3285    0.2709 H   0  0  0  0  0  0  0  0  0  0  0  0
    0.3198   -1.1932    1.8008 H   0  0  0  0  0  0  0  0  0  0  0  0
    0.7032   -2.1199    0.2277 H   0  0  0  0  0  0  0  0  0  0  0  0
  1  2  1  0
  2  3  1  0
  3  4  1  0
  4  5  2  0
  5  6  1  0
  6  7  1  0
  7  8  1  0
  6  9  1  0
  6  2  1  0
  9  2  1  0
  1 10  1  0
  1 11  1  0
  1 12  1  0
  3 13  1  0
  3 14  1  0
  4 15  1  0
  5 16  1  0
  7 17  1  0
  7 18  1  0
  8 19  1  0
  9 20  1  0
  9 21  1  0
M  END
