
     RDKit          3D

 19 20  0  0  0  0  0  0  0  0999 V2000
    2.0180    0.0201   -0.1568 C   0  0  0  0  0  0  0  0  0  0  0  0
    0.5845   -0.0052   -0.0688 C   0  0  0  0  0  0  0  0  0  0  0  0
   -0.2209   -1.0215   -0.8359 C   0  0  0  0  0  0  0  0  0  0  0  0
   -1.6295   -0.5030   -0.4859 C   0  0  0  0  0  0  0  0  0  0  0  0
   -1.2714    0.4806    0.5674 C   0  0  0  0  0  0  0  0  0  0  0  0
   -0.1997    1.2950   -0.1712 C   0  0  0  0  0  0  0  0  0  0  0  0
   -0.0760   -0.1307    1.3108 C   0  0  0  0  0  0  0  0  0  0  0  0
    2.4199   -0.9428   -0.5446 H   0  0  0  0  0  0  0  0  0  0  0  0
    2.4749    0.1267    0.8709 H   0  0  0  0  0  0  0  0  0  0  0  0
    2.4542    0.8878   -0.7320 H   0  0  0  0  0  0  0  0  0  0  0  0
   -0.0405   -1.0069   -1.9108 H   0  0  0  0  0  0  0  0  0  0  0  0
   -0.0598   -1.9996   -0.3480 H   0  0  0  0  0  0  0  0  0  0  0  0
   -2.3003   -1.2984   -0.1906 H   0  0  0  0  0  0  0  0  0  0  0  0
   -1.9633    0.0574   -1.3892 H   0  0  0  0  0  0  0  0  0  0  0  0
   -1.9938    1.0045    1.1291 H   0  0  0  0  0  0  0  0  0  0  0  0
    0.1988    2.0755    0.4826 H   0  0  0  0  0  0  0  0  0  0  0  0
   -0.5466    1.5687   -1.1642 H   0  0  0  0  0  0  0  0  0  0  0  0
    0.3945    0.5575    2.0098 H   0  0  0  0  0  0  0  0  0  0  0  0
   -0.2429   -1.1658    1.6275 H   0  0  0  0  0  0  0  0  0  0  0  0
  1  2  1  0
  2  3  1  0
  3  4  1  0
  4  5  1  0
  5  6  1  0
  5  7  1  0
  6  2  1  0
  7  2  1  0
  1  8  1  0
  1  9  1  0
  1 10  1  0
  3 11  1  0
  3 12  1  0
  4 13  1  0
  4 14  1  0
  5 15  1  0
  6 16  1  0
  6 17  1  0
  7 18  1  0
  7 19  1  0
M  END
