
     RDKit          3D

 19 20  0  0  0  0  0  0  0  0999 V2000
   -1.2875    0.5139   -0.6747 C   0  0  0  0  0  0  0  0  0  0  0  0
   -0.6893   -0.1835    0.5262 C   0  0  0  0  0  0  0  0  0  0  0  0
   -0.2176    0.7846    1.5401 C   0  0  0  0  0  0  0  0  0  0  0  0
    0.9020    1.4360    0.8997 O   0  0  0  0  0  0  0  0  0  0  0  0
    1.3872    1.0600   -0.3328 C   0  0  0  0  0  0  0  0  0  0  0  0
    1.9504    1.9285   -1.0177 O   0  0  0  0  0  0  0  0  0  0  0  0
    1.2411   -0.3294   -0.8204 C   0  0  0  0  0  0  0  0  0  0  0  0
    0.5925   -1.0618    0.2911 C   0  0  0  0  0  0  0  0  0  0  0  0
   -0.6944   -1.6030    0.4937 C   0  0  0  0  0  0  0  0  0  0  0  0
   -1.2403   -0.0694   -1.5983 H   0  0  0  0  0  0  0  0  0  0  0  0
   -2.3942    0.5775   -0.4361 H   0  0  0  0  0  0  0  0  0  0  0  0
   -0.9756    1.5721   -0.7790 H   0  0  0  0  0  0  0  0  0  0  0  0
   -0.9404    1.6060    1.7479 H   0  0  0  0  0  0  0  0  0  0  0  0
    0.1410    0.3659    2.4787 H   0  0  0  0  0  0  0  0  0  0  0  0
    0.7558   -0.4096   -1.8013 H   0  0  0  0  0  0  0  0  0  0  0  0
    2.2703   -0.7773   -0.9717 H   0  0  0  0  0  0  0  0  0  0  0  0
    1.3115   -1.1370    1.1633 H   0  0  0  0  0  0  0  0  0  0  0  0
   -1.2086   -2.1256   -0.3374 H   0  0  0  0  0  0  0  0  0  0  0  0
   -0.9036   -2.1480    1.4549 H   0  0  0  0  0  0  0  0  0  0  0  0
  1  2  1  0
  2  3  1  0
  3  4  1  0
  4  5  1  0
  5  6  2  0
  5  7  1  0
  7  8  1  0
  8  9  1  0
  8  2  1  0
  9  2  1  0
  1 10  1  0
  1 11  1  0
  1 12  1  0
  3 13  1  0
  3 14  1  0
  7 15  1  0
  7 16  1  0
  8 17  1  0
  9 18  1  0
  9 19  1  0
M  END
