
     RDKit          3D

 19 20  0  0  0  0  0  0  0  0999 V2000
   -1.3881    0.6492    0.3858 C   0  0  0  0  0  0  0  0  0  0  0  0
   -0.9026   -0.4578   -0.5051 C   0  0  0  0  0  0  0  0  0  0  0  0
   -0.5737   -0.0278   -1.8093 C   0  0  0  0  0  0  0  0  0  0  0  0
    0.5664   -0.4136   -1.0904 C   0  0  0  0  0  0  0  0  0  0  0  0
    1.1681   -0.1367    0.2112 C   0  0  0  0  0  0  0  0  0  0  0  0
    1.2037    1.2075    0.7245 C   0  0  0  0  0  0  0  0  0  0  0  0
    1.1874    1.5119    1.8848 O   0  0  0  0  0  0  0  0  0  0  0  0
    0.4045   -1.1590    1.0476 C   0  0  0  0  0  0  0  0  0  0  0  0
   -0.6716   -1.5847    0.2217 O   0  0  0  0  0  0  0  0  0  0  0  0
   -1.3108    0.4885    1.4525 H   0  0  0  0  0  0  0  0  0  0  0  0
   -2.5149    0.6592    0.2040 H   0  0  0  0  0  0  0  0  0  0  0  0
   -1.1070    1.6739    0.0338 H   0  0  0  0  0  0  0  0  0  0  0  0
   -0.6492    1.0475   -2.1173 H   0  0  0  0  0  0  0  0  0  0  0  0
   -0.9980   -0.6433   -2.6581 H   0  0  0  0  0  0  0  0  0  0  0  0
    0.9495   -1.4377   -1.4369 H   0  0  0  0  0  0  0  0  0  0  0  0
    2.2496   -0.4882    0.2356 H   0  0  0  0  0  0  0  0  0  0  0  0
    1.2502    2.0380    0.0015 H   0  0  0  0  0  0  0  0  0  0  0  0
    1.0197   -2.0966    1.1868 H   0  0  0  0  0  0  0  0  0  0  0  0
    0.1166   -0.8301    2.0272 H   0  0  0  0  0  0  0  0  0  0  0  0
  1  2  1  0
  2  3  1  0
  3  4  1  0
  4  5  1  0
  5  6  1  0
  6  7  2  0
  5  8  1  0
  8  9  1  0
  4  2  1  0
  9  2  1  0
  1 10  1  0
  1 11  1  0
  1 12  1  0
  3 13  1  0
  3 14  1  0
  4 15  1  0
  5 16  1  0
  6 17  1  0
  8 18  1  0
  8 19  1  0
M  END
