
     RDKit          3D

 23 24  0  0  0  0  0  0  0  0999 V2000
   -1.1835    1.6124   -0.7200 C   0  0  0  0  0  0  0  0  0  0  0  0
   -0.8112    0.4135   -0.0178 C   0  0  0  0  0  0  0  0  0  0  0  0
   -1.2192   -0.9432   -0.5462 C   0  0  0  0  0  0  0  0  0  0  0  0
   -0.0424   -1.3837    0.3397 C   0  0  0  0  0  0  0  0  0  0  0  0
   -0.6162   -1.0065    1.6740 C   0  0  0  0  0  0  0  0  0  0  0  0
   -1.0992    0.2872    1.3476 O   0  0  0  0  0  0  0  0  0  0  0  0
    0.6127   -0.0932   -0.0893 C   0  0  0  0  0  0  0  0  0  0  0  0
    1.4565    0.5899    0.9485 C   0  0  0  0  0  0  0  0  0  0  0  0
    1.2644   -0.0870   -1.4165 C   0  0  0  0  0  0  0  0  0  0  0  0
   -1.4685    1.4222   -1.7654 H   0  0  0  0  0  0  0  0  0  0  0  0
   -0.3127    2.3328   -0.7580 H   0  0  0  0  0  0  0  0  0  0  0  0
   -1.9806    2.1693   -0.1815 H   0  0  0  0  0  0  0  0  0  0  0  0
   -1.0985   -1.1235   -1.6031 H   0  0  0  0  0  0  0  0  0  0  0  0
   -2.1712   -1.3235   -0.1638 H   0  0  0  0  0  0  0  0  0  0  0  0
    0.4061   -2.3101    0.1614 H   0  0  0  0  0  0  0  0  0  0  0  0
   -1.4226   -1.6759    1.9667 H   0  0  0  0  0  0  0  0  0  0  0  0
    0.1378   -0.9723    2.4677 H   0  0  0  0  0  0  0  0  0  0  0  0
    0.8751    0.8759    1.8625 H   0  0  0  0  0  0  0  0  0  0  0  0
    1.8007    1.5492    0.5081 H   0  0  0  0  0  0  0  0  0  0  0  0
    2.3630    0.0108    1.2039 H   0  0  0  0  0  0  0  0  0  0  0  0
    0.6174   -0.2509   -2.2782 H   0  0  0  0  0  0  0  0  0  0  0  0
    2.0184   -0.9289   -1.4307 H   0  0  0  0  0  0  0  0  0  0  0  0
    1.8736    0.8355   -1.5097 H   0  0  0  0  0  0  0  0  0  0  0  0
  1  2  1  0
  2  3  1  0
  3  4  1  0
  4  5  1  0
  5  6  1  0
  4  7  1  0
  7  8  1  0
  7  9  1  0
  6  2  1  0
  7  2  1  0
  1 10  1  0
  1 11  1  0
  1 12  1  0
  3 13  1  0
  3 14  1  0
  4 15  1  0
  5 16  1  0
  5 17  1  0
  8 18  1  0
  8 19  1  0
  8 20  1  0
  9 21  1  0
  9 22  1  0
  9 23  1  0
M  END
