
     RDKit          3D

 21 23  0  0  0  0  0  0  0  0999 V2000
   -1.3069   -1.6529   -0.7539 C   0  0  0  0  0  0  0  0  0  0  0  0
   -0.7710   -0.4603   -0.0437 C   0  0  0  0  0  0  0  0  0  0  0  0
   -1.0626   -0.2825    1.4193 C   0  0  0  0  0  0  0  0  0  0  0  0
   -0.2078    0.5824    1.9388 C   0  0  0  0  0  0  0  0  0  0  0  0
    0.7301    1.0659    0.8927 C   0  0  0  0  0  0  0  0  0  0  0  0
   -0.0102    1.9716   -0.0719 C   0  0  0  0  0  0  0  0  0  0  0  0
   -0.4319    0.7381   -0.8231 C   0  0  0  0  0  0  0  0  0  0  0  0
    0.6229   -0.0094   -0.1408 C   0  0  0  0  0  0  0  0  0  0  0  0
    1.7399   -0.7131   -0.7468 C   0  0  0  0  0  0  0  0  0  0  0  0
   -2.2429   -1.3840   -1.3007 H   0  0  0  0  0  0  0  0  0  0  0  0
   -0.5640   -1.9564   -1.5476 H   0  0  0  0  0  0  0  0  0  0  0  0
   -1.5058   -2.4802   -0.0627 H   0  0  0  0  0  0  0  0  0  0  0  0
   -1.8495   -0.7857    1.9569 H   0  0  0  0  0  0  0  0  0  0  0  0
   -0.1951    0.8893    2.9675 H   0  0  0  0  0  0  0  0  0  0  0  0
    1.7138    1.3851    1.2114 H   0  0  0  0  0  0  0  0  0  0  0  0
   -0.9265    2.4566    0.3700 H   0  0  0  0  0  0  0  0  0  0  0  0
    0.5936    2.6991   -0.6145 H   0  0  0  0  0  0  0  0  0  0  0  0
   -0.5554    0.7805   -1.9208 H   0  0  0  0  0  0  0  0  0  0  0  0
    2.6708   -0.6209   -0.1308 H   0  0  0  0  0  0  0  0  0  0  0  0
    2.0323   -0.4035   -1.7696 H   0  0  0  0  0  0  0  0  0  0  0  0
    1.5262   -1.8198   -0.8297 H   0  0  0  0  0  0  0  0  0  0  0  0
  1  2  1  0
  2  3  1  0
  3  4  2  0
  4  5  1  0
  5  6  1  0
  6  7  1  0
  7  8  1  0
  8  9  1  0
  7  2  1  0
  8  2  1  0
  8  5  1  0
  1 10  1  0
  1 11  1  0
  1 12  1  0
  3 13  1  0
  4 14  1  0
  5 15  1  0
  6 16  1  0
  6 17  1  0
  7 18  1  0
  9 19  1  0
  9 20  1  0
  9 21  1  0
M  END
