
     RDKit          3D

 19 21  0  0  0  0  0  0  0  0999 V2000
   -0.2544    1.6745   -0.7686 C   0  0  0  0  0  0  0  0  0  0  0  0
   -0.5223    0.4386   -0.1429 C   0  0  0  0  0  0  0  0  0  0  0  0
   -1.6151   -0.5137   -0.3090 C   0  0  0  0  0  0  0  0  0  0  0  0
   -0.5228   -1.5999   -0.3706 C   0  0  0  0  0  0  0  0  0  0  0  0
    0.2401   -0.5913    0.5122 C   0  0  0  0  0  0  0  0  0  0  0  0
    1.6821   -0.7388    0.4510 C   0  0  0  0  0  0  0  0  0  0  0  0
    2.3989    0.3848    0.8285 O   0  0  0  0  0  0  0  0  0  0  0  0
   -0.3710   -0.2929    1.7144 O   0  0  0  0  0  0  0  0  0  0  0  0
   -1.4535    0.2238    0.9578 C   0  0  0  0  0  0  0  0  0  0  0  0
   -1.0909    2.0017   -1.4394 H   0  0  0  0  0  0  0  0  0  0  0  0
    0.6615    1.7309   -1.3981 H   0  0  0  0  0  0  0  0  0  0  0  0
   -0.1492    2.5209   -0.0270 H   0  0  0  0  0  0  0  0  0  0  0  0
   -2.4247   -0.4853   -0.9925 H   0  0  0  0  0  0  0  0  0  0  0  0
   -0.0285   -1.6636   -1.3454 H   0  0  0  0  0  0  0  0  0  0  0  0
   -0.7850   -2.5244    0.1419 H   0  0  0  0  0  0  0  0  0  0  0  0
    1.9978   -1.5551    1.1677 H   0  0  0  0  0  0  0  0  0  0  0  0
    2.0088   -1.0636   -0.5335 H   0  0  0  0  0  0  0  0  0  0  0  0
    2.3570    1.1086    0.1816 H   0  0  0  0  0  0  0  0  0  0  0  0
   -2.1290    0.9448    1.3721 H   0  0  0  0  0  0  0  0  0  0  0  0
  1  2  1  0
  2  3  1  0
  3  4  1  0
  4  5  1  0
  5  6  1  0
  6  7  1  0
  5  8  1  0
  8  9  1  0
  5  2  1  0
  9  2  1  0
  9  3  1  0
  1 10  1  0
  1 11  1  0
  1 12  1  0
  3 13  1  0
  4 14  1  0
  4 15  1  0
  6 16  1  0
  6 17  1  0
  7 18  1  0
  9 19  1  0
M  END
