
     RDKit          3D

 19 20  0  0  0  0  0  0  0  0999 V2000
    1.4537   -1.3033   -0.2904 C   0  0  0  0  0  0  0  0  0  0  0  0
    0.5705   -0.1801    0.1386 C   0  0  0  0  0  0  0  0  0  0  0  0
   -0.4867   -0.5851    1.1321 C   0  0  0  0  0  0  0  0  0  0  0  0
   -1.7679   -0.5860    0.3714 C   0  0  0  0  0  0  0  0  0  0  0  0
   -1.6164    0.0121   -0.7981 C   0  0  0  0  0  0  0  0  0  0  0  0
   -0.2384    0.4725   -0.9477 C   0  0  0  0  0  0  0  0  0  0  0  0
   -0.0074    1.7603   -0.1587 C   0  0  0  0  0  0  0  0  0  0  0  0
    1.2071    1.1207    0.3833 C   0  0  0  0  0  0  0  0  0  0  0  0
    2.2554    1.5209    0.8282 O   0  0  0  0  0  0  0  0  0  0  0  0
    0.7983   -2.1919   -0.4613 H   0  0  0  0  0  0  0  0  0  0  0  0
    2.1375   -1.5598    0.5344 H   0  0  0  0  0  0  0  0  0  0  0  0
    2.0051   -1.1261   -1.2145 H   0  0  0  0  0  0  0  0  0  0  0  0
   -0.5104    0.1612    1.9595 H   0  0  0  0  0  0  0  0  0  0  0  0
   -0.2789   -1.6079    1.4679 H   0  0  0  0  0  0  0  0  0  0  0  0
   -2.6906   -1.0161    0.7281 H   0  0  0  0  0  0  0  0  0  0  0  0
   -2.4066    0.1328   -1.5225 H   0  0  0  0  0  0  0  0  0  0  0  0
    0.2060    0.4632   -1.9538 H   0  0  0  0  0  0  0  0  0  0  0  0
   -0.7684    1.8960    0.6362 H   0  0  0  0  0  0  0  0  0  0  0  0
    0.1379    2.6166   -0.8326 H   0  0  0  0  0  0  0  0  0  0  0  0
  1  2  1  0
  2  3  1  0
  3  4  1  0
  4  5  2  0
  5  6  1  0
  6  7  1  0
  7  8  1  0
  8  9  2  0
  6  2  1  0
  8  2  1  0
  1 10  1  0
  1 11  1  0
  1 12  1  0
  3 13  1  0
  3 14  1  0
  4 15  1  0
  5 16  1  0
  6 17  1  0
  7 18  1  0
  7 19  1  0
M  END
