
     RDKit          3D

 19 20  0  0  0  0  0  0  0  0999 V2000
    0.8634    1.0004    1.3279 C   0  0  0  0  0  0  0  0  0  0  0  0
    0.3875    0.3083    0.0954 C   0  0  0  0  0  0  0  0  0  0  0  0
   -0.3784    1.1133   -0.8968 C   0  0  0  0  0  0  0  0  0  0  0  0
   -1.5382    0.3941   -1.2113 O   0  0  0  0  0  0  0  0  0  0  0  0
   -1.8389   -0.3889   -0.1143 C   0  0  0  0  0  0  0  0  0  0  0  0
   -0.5043   -0.9013    0.3211 C   0  0  0  0  0  0  0  0  0  0  0  0
    0.2664   -1.5907   -0.7382 C   0  0  0  0  0  0  0  0  0  0  0  0
    0.1002   -2.5130   -1.5099 O   0  0  0  0  0  0  0  0  0  0  0  0
    1.3938   -0.6574   -0.4745 C   0  0  0  0  0  0  0  0  0  0  0  0
    0.9153    0.3451    2.2208 H   0  0  0  0  0  0  0  0  0  0  0  0
    1.8814    1.4281    1.1075 H   0  0  0  0  0  0  0  0  0  0  0  0
    0.2367    1.8640    1.6023 H   0  0  0  0  0  0  0  0  0  0  0  0
   -0.7242    2.0779   -0.4694 H   0  0  0  0  0  0  0  0  0  0  0  0
    0.2009    1.2718   -1.8325 H   0  0  0  0  0  0  0  0  0  0  0  0
   -2.4975   -1.2177   -0.4831 H   0  0  0  0  0  0  0  0  0  0  0  0
   -2.3032    0.1787    0.7146 H   0  0  0  0  0  0  0  0  0  0  0  0
   -0.4473   -1.3423    1.3313 H   0  0  0  0  0  0  0  0  0  0  0  0
    2.0305   -1.0523    0.3521 H   0  0  0  0  0  0  0  0  0  0  0  0
    1.9561   -0.3182   -1.3430 H   0  0  0  0  0  0  0  0  0  0  0  0
  1  2  1  0
  2  3  1  0
  3  4  1  0
  4  5  1  0
  5  6  1  0
  6  7  1  0
  7  8  2  0
  7  9  1  0
  6  2  1  0
  9  2  1  0
  1 10  1  0
  1 11  1  0
  1 12  1  0
  3 13  1  0
  3 14  1  0
  5 15  1  0
  5 16  1  0
  6 17  1  0
  9 18  1  0
  9 19  1  0
M  END
