
     RDKit          3D

 21 23  0  0  0  0  0  0  0  0999 V2000
    1.9100   -0.5247    0.3679 C   0  0  0  0  0  0  0  0  0  0  0  0
    0.6057   -0.4610   -0.3263 C   0  0  0  0  0  0  0  0  0  0  0  0
    0.4010    0.5538   -1.3529 C   0  0  0  0  0  0  0  0  0  0  0  0
   -0.3185    0.7784   -0.0916 C   0  0  0  0  0  0  0  0  0  0  0  0
    0.1238    1.7741    0.9360 C   0  0  0  0  0  0  0  0  0  0  0  0
   -1.5620   -0.0015    0.2663 C   0  0  0  0  0  0  0  0  0  0  0  0
   -1.6842   -1.1338   -0.7004 C   0  0  0  0  0  0  0  0  0  0  0  0
   -0.4155   -1.5073    0.0045 C   0  0  0  0  0  0  0  0  0  0  0  0
   -1.0106   -0.9492    1.1629 O   0  0  0  0  0  0  0  0  0  0  0  0
    2.1140    0.2459    1.1036 H   0  0  0  0  0  0  0  0  0  0  0  0
    2.7173   -0.4313   -0.4185 H   0  0  0  0  0  0  0  0  0  0  0  0
    2.1198   -1.5079    0.8554 H   0  0  0  0  0  0  0  0  0  0  0  0
    1.2525    1.2484   -1.5348 H   0  0  0  0  0  0  0  0  0  0  0  0
   -0.2040    0.4091   -2.2675 H   0  0  0  0  0  0  0  0  0  0  0  0
    1.2077    2.0527    0.8310 H   0  0  0  0  0  0  0  0  0  0  0  0
   -0.4283    2.7213    0.7291 H   0  0  0  0  0  0  0  0  0  0  0  0
   -0.0950    1.4488    1.9739 H   0  0  0  0  0  0  0  0  0  0  0  0
   -2.4289    0.5269    0.5914 H   0  0  0  0  0  0  0  0  0  0  0  0
   -1.6497   -0.9297   -1.7597 H   0  0  0  0  0  0  0  0  0  0  0  0
   -2.5320   -1.7772   -0.4314 H   0  0  0  0  0  0  0  0  0  0  0  0
   -0.1231   -2.5359    0.0610 H   0  0  0  0  0  0  0  0  0  0  0  0
  1  2  1  0
  2  3  1  0
  3  4  1  0
  4  5  1  0
  4  6  1  0
  6  7  1  0
  7  8  1  0
  8  9  1  0
  4  2  1  0
  9  6  1  0
  8  2  1  0
  1 10  1  0
  1 11  1  0
  1 12  1  0
  3 13  1  0
  3 14  1  0
  5 15  1  0
  5 16  1  0
  5 17  1  0
  6 18  1  0
  7 19  1  0
  7 20  1  0
  8 21  1  0
M  END
