
     RDKit          3D

 19 22  0  0  0  0  0  0  0  0999 V2000
   -2.1263   -0.7143   -0.3409 C   0  0  0  0  0  0  0  0  0  0  0  0
   -0.7585   -0.2339   -0.0444 C   0  0  0  0  0  0  0  0  0  0  0  0
   -0.5305    1.0152    0.7841 C   0  0  0  0  0  0  0  0  0  0  0  0
    0.7290    1.2489   -0.0631 C   0  0  0  0  0  0  0  0  0  0  0  0
    1.8846    0.5399    0.5797 C   0  0  0  0  0  0  0  0  0  0  0  0
    2.7453   -0.2226   -0.1695 O   0  0  0  0  0  0  0  0  0  0  0  0
    1.6658   -0.9354    0.3113 C   0  0  0  0  0  0  0  0  0  0  0  0
    0.3968   -1.0317   -0.4997 C   0  0  0  0  0  0  0  0  0  0  0  0
    0.1683    0.2978   -1.0573 C   0  0  0  0  0  0  0  0  0  0  0  0
   -2.3685   -0.8429   -1.4062 H   0  0  0  0  0  0  0  0  0  0  0  0
   -2.2731   -1.7356    0.1216 H   0  0  0  0  0  0  0  0  0  0  0  0
   -2.9178   -0.0852    0.1334 H   0  0  0  0  0  0  0  0  0  0  0  0
   -0.3098    0.8236    1.8585 H   0  0  0  0  0  0  0  0  0  0  0  0
   -1.2418    1.8358    0.6114 H   0  0  0  0  0  0  0  0  0  0  0  0
    0.8783    2.2667   -0.4028 H   0  0  0  0  0  0  0  0  0  0  0  0
    2.1043    0.7834    1.6410 H   0  0  0  0  0  0  0  0  0  0  0  0
    1.8304   -1.6612    1.1460 H   0  0  0  0  0  0  0  0  0  0  0  0
    0.2004   -1.8929   -1.1318 H   0  0  0  0  0  0  0  0  0  0  0  0
   -0.0771    0.5444   -2.0711 H   0  0  0  0  0  0  0  0  0  0  0  0
  1  2  1  0
  2  3  1  0
  3  4  1  0
  4  5  1  0
  5  6  1  0
  6  7  1  0
  7  8  1  0
  8  9  1  0
  8  2  1  0
  9  2  1  0
  9  4  1  0
  7  5  1  0
  1 10  1  0
  1 11  1  0
  1 12  1  0
  3 13  1  0
  3 14  1  0
  4 15  1  0
  5 16  1  0
  7 17  1  0
  8 18  1  0
  9 19  1  0
M  END
