
     RDKit          3D

 23 24  0  0  0  0  0  0  0  0999 V2000
    2.2758   -0.8712    0.0161 C   0  0  0  0  0  0  0  0  0  0  0  0
    0.9176   -0.2001   -0.1852 C   0  0  0  0  0  0  0  0  0  0  0  0
   -0.0567   -1.0299   -0.9039 C   0  0  0  0  0  0  0  0  0  0  0  0
   -1.4067   -0.4649   -1.1150 C   0  0  0  0  0  0  0  0  0  0  0  0
   -2.1899   -0.7254   -0.0206 O   0  0  0  0  0  0  0  0  0  0  0  0
   -1.8459   -0.0985    1.1321 C   0  0  0  0  0  0  0  0  0  0  0  0
   -0.9277    1.0680    0.9976 C   0  0  0  0  0  0  0  0  0  0  0  0
    0.4941    0.7623    0.7893 C   0  0  0  0  0  0  0  0  0  0  0  0
    1.0393    1.2378   -0.5761 C   0  0  0  0  0  0  0  0  0  0  0  0
    3.0239   -0.1664    0.4304 H   0  0  0  0  0  0  0  0  0  0  0  0
    2.6669   -1.2405   -0.9647 H   0  0  0  0  0  0  0  0  0  0  0  0
    2.1750   -1.7720    0.6754 H   0  0  0  0  0  0  0  0  0  0  0  0
   -0.1714   -2.0051   -0.3581 H   0  0  0  0  0  0  0  0  0  0  0  0
    0.3707   -1.2846   -1.9165 H   0  0  0  0  0  0  0  0  0  0  0  0
   -1.8742   -1.0260   -1.9801 H   0  0  0  0  0  0  0  0  0  0  0  0
   -1.4145    0.5925   -1.4397 H   0  0  0  0  0  0  0  0  0  0  0  0
   -2.7962    0.2872    1.6075 H   0  0  0  0  0  0  0  0  0  0  0  0
   -1.4432   -0.8205    1.8933 H   0  0  0  0  0  0  0  0  0  0  0  0
   -1.3764    1.7649    0.2276 H   0  0  0  0  0  0  0  0  0  0  0  0
   -1.0392    1.6591    1.9460 H   0  0  0  0  0  0  0  0  0  0  0  0
    1.2064    0.9787    1.6397 H   0  0  0  0  0  0  0  0  0  0  0  0
    0.3443    1.6158   -1.3153 H   0  0  0  0  0  0  0  0  0  0  0  0
    2.0281    1.7388   -0.5797 H   0  0  0  0  0  0  0  0  0  0  0  0
  1  2  1  0
  2  3  1  0
  3  4  1  0
  4  5  1  0
  5  6  1  0
  6  7  1  0
  7  8  1  0
  8  9  1  0
  8  2  1  0
  9  2  1  0
  1 10  1  0
  1 11  1  0
  1 12  1  0
  3 13  1  0
  3 14  1  0
  4 15  1  0
  4 16  1  0
  6 17  1  0
  6 18  1  0
  7 19  1  0
  7 20  1  0
  8 21  1  0
  9 22  1  0
  9 23  1  0
M  END
