
     RDKit          3D

 19 21  0  0  0  0  0  0  0  0999 V2000
    1.5375   -0.8008   -0.1450 C   0  0  0  0  0  0  0  0  0  0  0  0
    1.0424    0.6408   -0.3362 C   0  0  0  0  0  0  0  0  0  0  0  0
    1.2237    1.4586    0.7803 C   0  0  0  0  0  0  0  0  0  0  0  0
   -0.1343    1.1046    0.6227 C   0  0  0  0  0  0  0  0  0  0  0  0
   -0.8614   -0.1540    0.3955 C   0  0  0  0  0  0  0  0  0  0  0  0
   -1.0907   -1.0249    1.4024 O   0  0  0  0  0  0  0  0  0  0  0  0
   -2.0369   -0.1552   -0.6411 C   0  0  0  0  0  0  0  0  0  0  0  0
   -0.6515   -0.4380   -1.0317 C   0  0  0  0  0  0  0  0  0  0  0  0
    0.2028    0.6330   -1.4242 O   0  0  0  0  0  0  0  0  0  0  0  0
    2.3472   -0.8432    0.6232 H   0  0  0  0  0  0  0  0  0  0  0  0
    0.7830   -1.5115    0.1275 H   0  0  0  0  0  0  0  0  0  0  0  0
    2.0056   -1.0736   -1.1072 H   0  0  0  0  0  0  0  0  0  0  0  0
    1.7446    1.0795    1.7011 H   0  0  0  0  0  0  0  0  0  0  0  0
    1.5874    2.5137    0.6041 H   0  0  0  0  0  0  0  0  0  0  0  0
   -0.7535    1.9741    0.2285 H   0  0  0  0  0  0  0  0  0  0  0  0
   -1.3616   -1.9271    1.1302 H   0  0  0  0  0  0  0  0  0  0  0  0
   -2.3845    0.8953   -0.8343 H   0  0  0  0  0  0  0  0  0  0  0  0
   -2.7477   -0.9690   -0.6150 H   0  0  0  0  0  0  0  0  0  0  0  0
   -0.4520   -1.4023   -1.4810 H   0  0  0  0  0  0  0  0  0  0  0  0
  1  2  1  0
  2  3  1  0
  3  4  1  0
  4  5  1  0
  5  6  1  0
  5  7  1  0
  7  8  1  0
  8  9  1  0
  4  2  1  0
  8  5  1  0
  9  2  1  0
  1 10  1  0
  1 11  1  0
  1 12  1  0
  3 13  1  0
  3 14  1  0
  4 15  1  0
  6 16  1  0
  7 17  1  0
  7 18  1  0
  8 19  1  0
M  END
