
     RDKit          3D

 21 22  0  0  0  0  0  0  0  0999 V2000
    1.8021   -0.1122    0.7297 C   0  0  0  0  0  0  0  0  0  0  0  0
    0.6275    0.1442   -0.1083 C   0  0  0  0  0  0  0  0  0  0  0  0
    0.5432   -0.6667   -1.3695 C   0  0  0  0  0  0  0  0  0  0  0  0
   -0.9245   -0.8919   -1.0790 C   0  0  0  0  0  0  0  0  0  0  0  0
   -0.7152   -0.2218    0.2714 C   0  0  0  0  0  0  0  0  0  0  0  0
   -1.0440   -1.0237    1.4126 C   0  0  0  0  0  0  0  0  0  0  0  0
   -0.4695   -1.0746    2.4900 O   0  0  0  0  0  0  0  0  0  0  0  0
   -1.1867    1.1994    0.2133 C   0  0  0  0  0  0  0  0  0  0  0  0
    0.2145    1.5934   -0.2354 C   0  0  0  0  0  0  0  0  0  0  0  0
    1.6707   -0.7156    1.6212 H   0  0  0  0  0  0  0  0  0  0  0  0
    2.2533    0.8726    1.0343 H   0  0  0  0  0  0  0  0  0  0  0  0
    2.6036   -0.5847    0.0891 H   0  0  0  0  0  0  0  0  0  0  0  0
    0.6875   -0.1274   -2.3100 H   0  0  0  0  0  0  0  0  0  0  0  0
    1.0972   -1.6207   -1.2505 H   0  0  0  0  0  0  0  0  0  0  0  0
   -1.2126   -1.9486   -0.9383 H   0  0  0  0  0  0  0  0  0  0  0  0
   -1.5882   -0.3133   -1.7695 H   0  0  0  0  0  0  0  0  0  0  0  0
   -1.9213   -1.6958    1.3536 H   0  0  0  0  0  0  0  0  0  0  0  0
   -1.4986    1.6184    1.1783 H   0  0  0  0  0  0  0  0  0  0  0  0
   -1.9274    1.3912   -0.5989 H   0  0  0  0  0  0  0  0  0  0  0  0
    0.7141    2.2062    0.5334 H   0  0  0  0  0  0  0  0  0  0  0  0
    0.2744    1.9716   -1.2677 H   0  0  0  0  0  0  0  0  0  0  0  0
  1  2  1  0
  2  3  1  0
  3  4  1  0
  4  5  1  0
  5  6  1  0
  6  7  2  0
  5  8  1  0
  8  9  1  0
  5  2  1  0
  9  2  1  0
  1 10  1  0
  1 11  1  0
  1 12  1  0
  3 13  1  0
  3 14  1  0
  4 15  1  0
  4 16  1  0
  6 17  1  0
  8 18  1  0
  8 19  1  0
  9 20  1  0
  9 21  1  0
M  END
