
     RDKit          3D

 20 21  0  0  0  0  0  0  0  0999 V2000
    2.1504    0.6466   -0.2841 C   0  0  0  0  0  0  0  0  0  0  0  0
    0.7180    0.3298   -0.1160 C   0  0  0  0  0  0  0  0  0  0  0  0
    0.4377   -1.1084   -0.5829 C   0  0  0  0  0  0  0  0  0  0  0  0
   -0.6883   -1.0662    0.4607 C   0  0  0  0  0  0  0  0  0  0  0  0
   -1.8150   -0.3091   -0.1737 C   0  0  0  0  0  0  0  0  0  0  0  0
   -1.4416    1.1645   -0.1957 C   0  0  0  0  0  0  0  0  0  0  0  0
   -0.1395    1.2349   -0.6874 O   0  0  0  0  0  0  0  0  0  0  0  0
    0.2587   -0.1395    1.2363 C   0  0  0  0  0  0  0  0  0  0  0  0
    2.4947    0.2209   -1.2707 H   0  0  0  0  0  0  0  0  0  0  0  0
    2.8229    0.3039    0.5022 H   0  0  0  0  0  0  0  0  0  0  0  0
    2.2919    1.7526   -0.3987 H   0  0  0  0  0  0  0  0  0  0  0  0
    1.2205   -1.7797   -0.2152 H   0  0  0  0  0  0  0  0  0  0  0  0
    0.1099   -1.1994   -1.6138 H   0  0  0  0  0  0  0  0  0  0  0  0
   -0.9102   -2.0092    0.9436 H   0  0  0  0  0  0  0  0  0  0  0  0
   -2.7977   -0.5045    0.2444 H   0  0  0  0  0  0  0  0  0  0  0  0
   -1.8383   -0.6209   -1.2575 H   0  0  0  0  0  0  0  0  0  0  0  0
   -2.0980    1.6397   -0.9622 H   0  0  0  0  0  0  0  0  0  0  0  0
   -1.5776    1.6424    0.7746 H   0  0  0  0  0  0  0  0  0  0  0  0
    1.0319   -0.7841    1.7132 H   0  0  0  0  0  0  0  0  0  0  0  0
   -0.2303    0.5858    1.8831 H   0  0  0  0  0  0  0  0  0  0  0  0
  1  2  1  0
  2  3  1  0
  3  4  1  0
  4  5  1  0
  5  6  1  0
  6  7  1  0
  4  8  1  0
  7  2  1  0
  8  2  1  0
  1  9  1  0
  1 10  1  0
  1 11  1  0
  3 12  1  0
  3 13  1  0
  4 14  1  0
  5 15  1  0
  5 16  1  0
  6 17  1  0
  6 18  1  0
  8 19  1  0
  8 20  1  0
M  END
