
     RDKit          3D

 21 23  0  0  0  0  0  0  0  0999 V2000
   -0.6831   -1.7166   -0.8407 C   0  0  0  0  0  0  0  0  0  0  0  0
   -0.4263   -0.3964   -0.2834 C   0  0  0  0  0  0  0  0  0  0  0  0
   -1.5608    0.4322    0.2360 C   0  0  0  0  0  0  0  0  0  0  0  0
   -0.7981    1.7320    0.5526 C   0  0  0  0  0  0  0  0  0  0  0  0
    0.5991    1.2523    0.3269 C   0  0  0  0  0  0  0  0  0  0  0  0
    0.5416    0.5222   -0.9753 C   0  0  0  0  0  0  0  0  0  0  0  0
    1.6266   -0.3559   -0.4149 C   0  0  0  0  0  0  0  0  0  0  0  0
    0.6539   -0.2067    0.7293 C   0  0  0  0  0  0  0  0  0  0  0  0
    0.7505   -0.6708    1.8862 O   0  0  0  0  0  0  0  0  0  0  0  0
   -1.6910   -2.1136   -0.6854 H   0  0  0  0  0  0  0  0  0  0  0  0
    0.0567   -2.4923   -0.5079 H   0  0  0  0  0  0  0  0  0  0  0  0
   -0.5429   -1.6772   -1.9622 H   0  0  0  0  0  0  0  0  0  0  0  0
   -1.9009    0.0447    1.2166 H   0  0  0  0  0  0  0  0  0  0  0  0
   -2.3625    0.6013   -0.4817 H   0  0  0  0  0  0  0  0  0  0  0  0
   -1.0055    2.0867    1.5661 H   0  0  0  0  0  0  0  0  0  0  0  0
   -1.0206    2.5044   -0.2084 H   0  0  0  0  0  0  0  0  0  0  0  0
    1.4312    1.8786    0.5575 H   0  0  0  0  0  0  0  0  0  0  0  0
    0.4755    0.8959   -1.9000 H   0  0  0  0  0  0  0  0  0  0  0  0
    1.7283   -1.3472   -0.8428 H   0  0  0  0  0  0  0  0  0  0  0  0
    2.5648    0.1635   -0.1759 H   0  0  0  0  0  0  0  0  0  0  0  0
    1.5636   -1.1370    2.2077 H   0  0  0  0  0  0  0  0  0  0  0  0
  1  2  1  0
  2  3  1  0
  3  4  1  0
  4  5  1  0
  5  6  1  0
  6  7  1  0
  7  8  1  0
  8  9  1  0
  6  2  1  0
  8  2  1  0
  8  5  1  0
  1 10  1  0
  1 11  1  0
  1 12  1  0
  3 13  1  0
  3 14  1  0
  4 15  1  0
  4 16  1  0
  5 17  1  0
  6 18  1  0
  7 19  1  0
  7 20  1  0
  9 21  1  0
M  END
