
     RDKit          3D

 19 20  0  0  0  0  0  0  0  0999 V2000
    2.4509    0.3934    0.0570 C   0  0  0  0  0  0  0  0  0  0  0  0
    1.1101    0.1196   -0.0430 C   0  0  0  0  0  0  0  0  0  0  0  0
   -0.0311    1.0915    0.0898 C   0  0  0  0  0  0  0  0  0  0  0  0
   -0.6796   -0.2344   -0.1800 C   0  0  0  0  0  0  0  0  0  0  0  0
   -2.0172   -0.5107   -0.2799 C   0  0  0  0  0  0  0  0  0  0  0  0
   -2.7198   -0.2019    0.8910 O   0  0  0  0  0  0  0  0  0  0  0  0
    0.3754   -0.4155   -1.2410 C   0  0  0  0  0  0  0  0  0  0  0  0
    0.2958   -0.8003    0.7519 C   0  0  0  0  0  0  0  0  0  0  0  0
    0.2991   -1.6010    1.6575 O   0  0  0  0  0  0  0  0  0  0  0  0
    2.6731    1.3222    0.6505 H   0  0  0  0  0  0  0  0  0  0  0  0
    2.9291    0.5951   -0.9419 H   0  0  0  0  0  0  0  0  0  0  0  0
    3.0526   -0.4387    0.4885 H   0  0  0  0  0  0  0  0  0  0  0  0
   -0.1538    1.4094    1.1271 H   0  0  0  0  0  0  0  0  0  0  0  0
   -0.1181    1.8499   -0.6997 H   0  0  0  0  0  0  0  0  0  0  0  0
   -2.5262    0.0764   -1.0872 H   0  0  0  0  0  0  0  0  0  0  0  0
   -2.2376   -1.5691   -0.5097 H   0  0  0  0  0  0  0  0  0  0  0  0
   -3.6389    0.1473    0.6900 H   0  0  0  0  0  0  0  0  0  0  0  0
    0.3165    0.2364   -2.1137 H   0  0  0  0  0  0  0  0  0  0  0  0
    0.6197   -1.4695   -1.4880 H   0  0  0  0  0  0  0  0  0  0  0  0
  1  2  1  0
  2  3  1  0
  3  4  1  0
  4  5  1  0
  5  6  1  0
  4  7  1  0
  4  8  1  0
  8  9  2  0
  7  2  1  0
  8  2  1  0
  1 10  1  0
  1 11  1  0
  1 12  1  0
  3 13  1  0
  3 14  1  0
  5 15  1  0
  5 16  1  0
  6 17  1  0
  7 18  1  0
  7 19  1  0
M  END
