
     RDKit          3D

 17 19  0  0  0  0  0  0  0  0999 V2000
    1.1045   -1.4111   -0.3008 C   0  0  0  0  0  0  0  0  0  0  0  0
    0.4863   -0.2641    0.1316 C   0  0  0  0  0  0  0  0  0  0  0  0
    0.7994    0.4262    1.3281 O   0  0  0  0  0  0  0  0  0  0  0  0
   -0.1921    1.2323    0.7886 C   0  0  0  0  0  0  0  0  0  0  0  0
    0.5201    1.0884   -0.5261 C   0  0  0  0  0  0  0  0  0  0  0  0
    1.7325    1.6960   -0.6533 O   0  0  0  0  0  0  0  0  0  0  0  0
   -0.9199    0.0027    0.4435 C   0  0  0  0  0  0  0  0  0  0  0  0
   -2.1028   -0.2998   -0.1102 C   0  0  0  0  0  0  0  0  0  0  0  0
   -1.7050   -0.7129    1.2745 O   0  0  0  0  0  0  0  0  0  0  0  0
    1.9477   -1.7933    0.3487 H   0  0  0  0  0  0  0  0  0  0  0  0
    1.5768   -1.3425   -1.3255 H   0  0  0  0  0  0  0  0  0  0  0  0
    0.4218   -2.3087   -0.3916 H   0  0  0  0  0  0  0  0  0  0  0  0
   -0.5392    2.0967    1.1835 H   0  0  0  0  0  0  0  0  0  0  0  0
   -0.1900    1.1577   -1.3632 H   0  0  0  0  0  0  0  0  0  0  0  0
    2.3642    1.3112   -0.0045 H   0  0  0  0  0  0  0  0  0  0  0  0
   -2.2814   -1.2067   -0.7588 H   0  0  0  0  0  0  0  0  0  0  0  0
   -3.0229    0.3279   -0.0644 H   0  0  0  0  0  0  0  0  0  0  0  0
  1  2  1  0
  2  3  1  0
  3  4  1  0
  4  5  1  0
  5  6  1  0
  4  7  1  0
  7  8  1  0
  8  9  1  0
  5  2  1  0
  9  7  1  0
  7  2  1  0
  1 10  1  0
  1 11  1  0
  1 12  1  0
  4 13  1  0
  5 14  1  0
  6 15  1  0
  8 16  1  0
  8 17  1  0
M  END
