
     RDKit          3D

 19 20  0  0  0  0  0  0  0  0999 V2000
    1.7912   -1.0832   -0.6068 C   0  0  0  0  0  0  0  0  0  0  0  0
    0.8610   -0.3495    0.2877 C   0  0  0  0  0  0  0  0  0  0  0  0
    1.0565    1.1441    0.3921 C   0  0  0  0  0  0  0  0  0  0  0  0
   -0.4411    1.2415    0.6944 C   0  0  0  0  0  0  0  0  0  0  0  0
   -1.1340    2.0158   -0.2123 O   0  0  0  0  0  0  0  0  0  0  0  0
   -0.4832   -0.2372    0.3603 C   0  0  0  0  0  0  0  0  0  0  0  0
   -1.5932   -0.7353   -0.5048 C   0  0  0  0  0  0  0  0  0  0  0  0
   -2.6782   -1.2321    0.1901 O   0  0  0  0  0  0  0  0  0  0  0  0
    0.1707   -1.0412    1.2479 O   0  0  0  0  0  0  0  0  0  0  0  0
    1.7814   -2.1714   -0.3755 H   0  0  0  0  0  0  0  0  0  0  0  0
    1.6272   -0.9063   -1.6828 H   0  0  0  0  0  0  0  0  0  0  0  0
    2.8282   -0.7327   -0.3781 H   0  0  0  0  0  0  0  0  0  0  0  0
    1.7138    1.5028    1.1813 H   0  0  0  0  0  0  0  0  0  0  0  0
    1.3063    1.5532   -0.6156 H   0  0  0  0  0  0  0  0  0  0  0  0
   -0.5694    1.4858    1.7574 H   0  0  0  0  0  0  0  0  0  0  0  0
   -0.6706    2.8882   -0.2765 H   0  0  0  0  0  0  0  0  0  0  0  0
   -1.1776   -1.5295   -1.1729 H   0  0  0  0  0  0  0  0  0  0  0  0
   -1.9374    0.0739   -1.1782 H   0  0  0  0  0  0  0  0  0  0  0  0
   -2.4516   -1.8870    0.8732 H   0  0  0  0  0  0  0  0  0  0  0  0
  1  2  1  0
  2  3  1  0
  3  4  1  0
  4  5  1  0
  4  6  1  0
  6  7  1  0
  7  8  1  0
  6  9  1  0
  6  2  1  0
  9  2  1  0
  1 10  1  0
  1 11  1  0
  1 12  1  0
  3 13  1  0
  3 14  1  0
  4 15  1  0
  5 16  1  0
  7 17  1  0
  7 18  1  0
  8 19  1  0
M  END
