
     RDKit          3D

 15 16  0  0  0  0  0  0  0  0999 V2000
    1.6810    0.4136    0.0643 C   0  0  0  0  0  0  0  0  0  0  0  0
    0.3647    0.0576   -0.1226 C   0  0  0  0  0  0  0  0  0  0  0  0
   -0.1702   -1.2596   -0.5809 C   0  0  0  0  0  0  0  0  0  0  0  0
   -1.3242   -0.3101   -0.4832 C   0  0  0  0  0  0  0  0  0  0  0  0
   -0.5068    0.6407   -1.0704 O   0  0  0  0  0  0  0  0  0  0  0  0
   -0.7656    0.1507    0.8290 C   0  0  0  0  0  0  0  0  0  0  0  0
   -1.0520    1.4771    1.1573 O   0  0  0  0  0  0  0  0  0  0  0  0
    2.0159    0.3931    1.1277 H   0  0  0  0  0  0  0  0  0  0  0  0
    1.9341    1.4572   -0.2833 H   0  0  0  0  0  0  0  0  0  0  0  0
    2.4088   -0.2329   -0.5036 H   0  0  0  0  0  0  0  0  0  0  0  0
   -0.1165   -2.0403    0.1980 H   0  0  0  0  0  0  0  0  0  0  0  0
    0.0846   -1.5865   -1.5956 H   0  0  0  0  0  0  0  0  0  0  0  0
   -2.2896   -0.5003   -0.6986 H   0  0  0  0  0  0  0  0  0  0  0  0
   -0.8455   -0.5744    1.6330 H   0  0  0  0  0  0  0  0  0  0  0  0
   -1.4188    1.9142    0.3290 H   0  0  0  0  0  0  0  0  0  0  0  0
  1  2  1  0
  2  3  1  0
  3  4  1  0
  4  5  1  0
  4  6  1  0
  6  7  1  0
  5  2  1  0
  6  2  1  0
  1  8  1  0
  1  9  1  0
  1 10  1  0
  3 11  1  0
  3 12  1  0
  4 13  1  0
  6 14  1  0
  7 15  1  0
M  END
