
     RDKit          3D

 19 22  0  0  0  0  0  0  0  0999 V2000
    0.3240    2.0555   -0.1451 C   0  0  0  0  0  0  0  0  0  0  0  0
    0.2147    0.6778    0.2063 C   0  0  0  0  0  0  0  0  0  0  0  0
    1.1573   -0.2172    0.8584 C   0  0  0  0  0  0  0  0  0  0  0  0
    0.0485   -1.3197    0.7579 C   0  0  0  0  0  0  0  0  0  0  0  0
    1.1041   -1.1805   -0.1809 C   0  0  0  0  0  0  0  0  0  0  0  0
    2.0067   -2.0390   -0.6449 O   0  0  0  0  0  0  0  0  0  0  0  0
    0.2061   -0.3258   -0.9989 C   0  0  0  0  0  0  0  0  0  0  0  0
   -0.7729   -0.3276    0.0269 C   0  0  0  0  0  0  0  0  0  0  0  0
   -2.2134   -0.2523   -0.0068 C   0  0  0  0  0  0  0  0  0  0  0  0
   -0.4335    2.3645   -0.8920 H   0  0  0  0  0  0  0  0  0  0  0  0
    0.2712    2.7211    0.7391 H   0  0  0  0  0  0  0  0  0  0  0  0
    1.3210    2.2829   -0.6191 H   0  0  0  0  0  0  0  0  0  0  0  0
    1.5879   -0.1709    1.8191 H   0  0  0  0  0  0  0  0  0  0  0  0
   -0.1815   -1.9150    1.5746 H   0  0  0  0  0  0  0  0  0  0  0  0
    2.9402   -1.7171   -0.5356 H   0  0  0  0  0  0  0  0  0  0  0  0
    0.3204    0.0363   -1.9624 H   0  0  0  0  0  0  0  0  0  0  0  0
   -2.5959    0.2743   -0.8997 H   0  0  0  0  0  0  0  0  0  0  0  0
   -2.6264    0.3152    0.8759 H   0  0  0  0  0  0  0  0  0  0  0  0
   -2.6786   -1.2626    0.0272 H   0  0  0  0  0  0  0  0  0  0  0  0
  1  2  1  0
  2  3  1  0
  3  4  1  0
  4  5  1  0
  5  6  1  0
  5  7  1  0
  7  8  1  0
  8  9  1  0
  7  2  1  0
  8  2  1  0
  5  3  1  0
  8  4  1  0
  1 10  1  0
  1 11  1  0
  1 12  1  0
  3 13  1  0
  4 14  1  0
  6 15  1  0
  7 16  1  0
  9 17  1  0
  9 18  1  0
  9 19  1  0
M  END
