
     RDKit          3D

 19 21  0  0  0  0  0  0  0  0999 V2000
   -1.0952    1.6494   -0.3159 C   0  0  0  0  0  0  0  0  0  0  0  0
   -0.2563    0.4981   -0.2242 C   0  0  0  0  0  0  0  0  0  0  0  0
   -0.2265   -0.7322   -1.0286 C   0  0  0  0  0  0  0  0  0  0  0  0
   -0.8191   -1.7460   -0.1161 C   0  0  0  0  0  0  0  0  0  0  0  0
   -0.6406   -1.3373    1.1318 C   0  0  0  0  0  0  0  0  0  0  0  0
    0.0653   -0.0490    1.1910 C   0  0  0  0  0  0  0  0  0  0  0  0
    1.0947    0.3030    0.2127 C   0  0  0  0  0  0  0  0  0  0  0  0
    1.9760    1.3519    0.3957 O   0  0  0  0  0  0  0  0  0  0  0  0
    1.3105   -0.6774   -0.9083 C   0  0  0  0  0  0  0  0  0  0  0  0
   -1.8723    1.5466   -1.1282 H   0  0  0  0  0  0  0  0  0  0  0  0
   -1.7158    1.7649    0.6223 H   0  0  0  0  0  0  0  0  0  0  0  0
   -0.6052    2.6518   -0.4390 H   0  0  0  0  0  0  0  0  0  0  0  0
   -0.5791   -0.7262   -2.0532 H   0  0  0  0  0  0  0  0  0  0  0  0
   -1.3030   -2.6475   -0.4591 H   0  0  0  0  0  0  0  0  0  0  0  0
   -0.9722   -1.8816    2.0081 H   0  0  0  0  0  0  0  0  0  0  0  0
   -0.1396    0.6572    2.0254 H   0  0  0  0  0  0  0  0  0  0  0  0
    2.2404    1.3277    1.3600 H   0  0  0  0  0  0  0  0  0  0  0  0
    1.7156   -1.6327   -0.4773 H   0  0  0  0  0  0  0  0  0  0  0  0
    1.8222   -0.3208   -1.7972 H   0  0  0  0  0  0  0  0  0  0  0  0
  1  2  1  0
  2  3  1  0
  3  4  1  0
  4  5  2  0
  5  6  1  0
  6  7  1  0
  7  8  1  0
  7  9  1  0
  6  2  1  0
  7  2  1  0
  9  3  1  0
  1 10  1  0
  1 11  1  0
  1 12  1  0
  3 13  1  0
  4 14  1  0
  5 15  1  0
  6 16  1  0
  8 17  1  0
  9 18  1  0
  9 19  1  0
M  END
