
     RDKit          3D

 19 20  0  0  0  0  0  0  0  0999 V2000
   -0.2209    1.7538    0.8764 C   0  0  0  0  0  0  0  0  0  0  0  0
   -0.0492    0.5382    0.0409 C   0  0  0  0  0  0  0  0  0  0  0  0
   -1.0061    0.1194   -1.0057 C   0  0  0  0  0  0  0  0  0  0  0  0
   -1.0238   -1.2679   -0.4031 C   0  0  0  0  0  0  0  0  0  0  0  0
    0.0204   -0.8267    0.5840 C   0  0  0  0  0  0  0  0  0  0  0  0
   -0.1948   -1.0632    1.9244 O   0  0  0  0  0  0  0  0  0  0  0  0
    1.2521   -0.1515    0.1083 C   0  0  0  0  0  0  0  0  0  0  0  0
    1.8775   -0.4936   -1.1806 C   0  0  0  0  0  0  0  0  0  0  0  0
    3.0793   -0.5025   -1.3911 O   0  0  0  0  0  0  0  0  0  0  0  0
   -1.2207    2.1933    0.8786 H   0  0  0  0  0  0  0  0  0  0  0  0
    0.5017    2.5264    0.5091 H   0  0  0  0  0  0  0  0  0  0  0  0
    0.0295    1.5060    1.9376 H   0  0  0  0  0  0  0  0  0  0  0  0
   -0.6265    0.0486   -2.0518 H   0  0  0  0  0  0  0  0  0  0  0  0
   -2.0139    0.5683   -0.9973 H   0  0  0  0  0  0  0  0  0  0  0  0
   -1.9712   -1.5800    0.0449 H   0  0  0  0  0  0  0  0  0  0  0  0
   -0.6318   -2.0752   -1.0549 H   0  0  0  0  0  0  0  0  0  0  0  0
   -1.0194   -0.6438    2.2808 H   0  0  0  0  0  0  0  0  0  0  0  0
    1.9728    0.1138    0.9280 H   0  0  0  0  0  0  0  0  0  0  0  0
    1.2450   -0.7633   -2.0286 H   0  0  0  0  0  0  0  0  0  0  0  0
  1  2  1  0
  2  3  1  0
  3  4  1  0
  4  5  1  0
  5  6  1  0
  5  7  1  0
  7  8  1  0
  8  9  2  0
  5  2  1  0
  7  2  1  0
  1 10  1  0
  1 11  1  0
  1 12  1  0
  3 13  1  0
  3 14  1  0
  4 15  1  0
  4 16  1  0
  6 17  1  0
  7 18  1  0
  8 19  1  0
M  END
