
     RDKit          3D

 17 18  0  0  0  0  0  0  0  0999 V2000
    2.1196   -0.0711    0.0818 C   0  0  0  0  0  0  0  0  0  0  0  0
    0.6715   -0.0549    0.1546 C   0  0  0  0  0  0  0  0  0  0  0  0
    0.0661    1.1927    0.7527 C   0  0  0  0  0  0  0  0  0  0  0  0
   -1.2073    1.1874    0.3553 C   0  0  0  0  0  0  0  0  0  0  0  0
   -1.4224    0.0154   -0.5482 C   0  0  0  0  0  0  0  0  0  0  0  0
   -1.2619   -1.2093    0.3113 C   0  0  0  0  0  0  0  0  0  0  0  0
    0.0535   -1.1184    0.7896 O   0  0  0  0  0  0  0  0  0  0  0  0
   -0.0412   -0.0104   -1.1742 C   0  0  0  0  0  0  0  0  0  0  0  0
    0.3231    0.0008   -2.2980 O   0  0  0  0  0  0  0  0  0  0  0  0
    2.6610    0.7492    0.5536 H   0  0  0  0  0  0  0  0  0  0  0  0
    2.4397   -0.1386   -0.9997 H   0  0  0  0  0  0  0  0  0  0  0  0
    2.5090   -1.0330    0.5286 H   0  0  0  0  0  0  0  0  0  0  0  0
    0.5551    1.9391    1.3740 H   0  0  0  0  0  0  0  0  0  0  0  0
   -1.9787    1.8927    0.6206 H   0  0  0  0  0  0  0  0  0  0  0  0
   -2.2278    0.0607   -1.2233 H   0  0  0  0  0  0  0  0  0  0  0  0
   -1.2541   -2.1000   -0.3846 H   0  0  0  0  0  0  0  0  0  0  0  0
   -2.0052   -1.3023    1.1063 H   0  0  0  0  0  0  0  0  0  0  0  0
  1  2  1  0
  2  3  1  0
  3  4  2  0
  4  5  1  0
  5  6  1  0
  6  7  1  0
  5  8  1  0
  8  9  2  0
  7  2  1  0
  8  2  1  0
  1 10  1  0
  1 11  1  0
  1 12  1  0
  3 13  1  0
  4 14  1  0
  5 15  1  0
  6 16  1  0
  6 17  1  0
M  END
