
     RDKit          3D

 19 21  0  0  0  0  0  0  0  0999 V2000
    1.9842   -0.1532    0.3163 C   0  0  0  0  0  0  0  0  0  0  0  0
    0.5861   -0.4817    0.0930 C   0  0  0  0  0  0  0  0  0  0  0  0
    0.1979   -1.7933   -0.0776 O   0  0  0  0  0  0  0  0  0  0  0  0
   -1.2074   -1.6777   -0.2406 C   0  0  0  0  0  0  0  0  0  0  0  0
   -1.3596   -0.2016   -0.2296 C   0  0  0  0  0  0  0  0  0  0  0  0
   -0.4659    0.1968    0.9474 C   0  0  0  0  0  0  0  0  0  0  0  0
   -0.2806    1.6391    0.6910 C   0  0  0  0  0  0  0  0  0  0  0  0
   -0.0582    1.6768   -0.6472 C   0  0  0  0  0  0  0  0  0  0  0  0
   -0.1506    0.2557   -1.0234 C   0  0  0  0  0  0  0  0  0  0  0  0
    2.5136   -0.0770   -0.6778 H   0  0  0  0  0  0  0  0  0  0  0  0
    2.0905    0.8196    0.8185 H   0  0  0  0  0  0  0  0  0  0  0  0
    2.4849   -0.9813    0.8568 H   0  0  0  0  0  0  0  0  0  0  0  0
   -1.5262   -2.1769   -1.1715 H   0  0  0  0  0  0  0  0  0  0  0  0
   -1.6346   -2.1308    0.6744 H   0  0  0  0  0  0  0  0  0  0  0  0
   -2.2839    0.2842   -0.3516 H   0  0  0  0  0  0  0  0  0  0  0  0
   -0.6911   -0.1725    1.9037 H   0  0  0  0  0  0  0  0  0  0  0  0
   -0.3096    2.4792    1.3793 H   0  0  0  0  0  0  0  0  0  0  0  0
    0.1347    2.5608   -1.2433 H   0  0  0  0  0  0  0  0  0  0  0  0
   -0.0242   -0.0663   -2.0177 H   0  0  0  0  0  0  0  0  0  0  0  0
  1  2  1  0
  2  3  1  0
  3  4  1  0
  4  5  1  0
  5  6  1  0
  6  7  1  0
  7  8  2  0
  8  9  1  0
  6  2  1  0
  9  2  1  0
  9  5  1  0
  1 10  1  0
  1 11  1  0
  1 12  1  0
  4 13  1  0
  4 14  1  0
  5 15  1  0
  6 16  1  0
  7 17  1  0
  8 18  1  0
  9 19  1  0
M  END
