
     RDKit          3D

 19 21  0  0  0  0  0  0  0  0999 V2000
   -2.1073   -0.3668    0.4362 C   0  0  0  0  0  0  0  0  0  0  0  0
   -0.7110   -0.1082    0.0623 C   0  0  0  0  0  0  0  0  0  0  0  0
    0.2519   -1.2276    0.3366 C   0  0  0  0  0  0  0  0  0  0  0  0
    1.4805   -0.7349   -0.4297 C   0  0  0  0  0  0  0  0  0  0  0  0
    2.1307    0.2872    0.2321 O   0  0  0  0  0  0  0  0  0  0  0  0
    1.1794    1.2183   -0.1952 C   0  0  0  0  0  0  0  0  0  0  0  0
   -0.1030    1.1366    0.6450 C   0  0  0  0  0  0  0  0  0  0  0  0
    0.8646    0.3074   -1.3345 C   0  0  0  0  0  0  0  0  0  0  0  0
   -0.5092    0.1025   -1.3139 O   0  0  0  0  0  0  0  0  0  0  0  0
   -2.6726    0.5736    0.4706 H   0  0  0  0  0  0  0  0  0  0  0  0
   -2.5757   -1.0112   -0.3632 H   0  0  0  0  0  0  0  0  0  0  0  0
   -2.1313   -0.8666    1.4284 H   0  0  0  0  0  0  0  0  0  0  0  0
    0.5389   -1.2257    1.4055 H   0  0  0  0  0  0  0  0  0  0  0  0
   -0.0863   -2.2046   -0.0193 H   0  0  0  0  0  0  0  0  0  0  0  0
    2.0820   -1.5058   -0.9010 H   0  0  0  0  0  0  0  0  0  0  0  0
    1.5330    2.2192   -0.4087 H   0  0  0  0  0  0  0  0  0  0  0  0
   -0.7152    2.0315    0.5516 H   0  0  0  0  0  0  0  0  0  0  0  0
    0.2124    0.8999    1.6856 H   0  0  0  0  0  0  0  0  0  0  0  0
    1.3380    0.4753   -2.2882 H   0  0  0  0  0  0  0  0  0  0  0  0
  1  2  1  0
  2  3  1  0
  3  4  1  0
  4  5  1  0
  5  6  1  0
  6  7  1  0
  6  8  1  0
  8  9  1  0
  7  2  1  0
  9  2  1  0
  8  4  1  0
  1 10  1  0
  1 11  1  0
  1 12  1  0
  3 13  1  0
  3 14  1  0
  4 15  1  0
  6 16  1  0
  7 17  1  0
  7 18  1  0
  8 19  1  0
M  END
