
     RDKit          3D

 21 24  0  0  0  0  0  0  0  0999 V2000
    2.1886   -0.6231    0.0345 C   0  0  0  0  0  0  0  0  0  0  0  0
    0.8621    0.0148    0.0207 C   0  0  0  0  0  0  0  0  0  0  0  0
   -0.1679   -0.2152    1.0770 C   0  0  0  0  0  0  0  0  0  0  0  0
   -1.0345   -1.4138    0.6558 C   0  0  0  0  0  0  0  0  0  0  0  0
   -1.3390   -0.4844   -0.5332 C   0  0  0  0  0  0  0  0  0  0  0  0
   -1.3372    0.6087    0.5209 C   0  0  0  0  0  0  0  0  0  0  0  0
   -0.6658    1.7760   -0.0902 C   0  0  0  0  0  0  0  0  0  0  0  0
    0.4598    1.1097   -0.8574 C   0  0  0  0  0  0  0  0  0  0  0  0
   -0.0474   -0.2037   -1.2419 C   0  0  0  0  0  0  0  0  0  0  0  0
    2.2226   -1.6781    0.3089 H   0  0  0  0  0  0  0  0  0  0  0  0
    2.6208   -0.5566   -1.0059 H   0  0  0  0  0  0  0  0  0  0  0  0
    2.8793    0.0151    0.6561 H   0  0  0  0  0  0  0  0  0  0  0  0
    0.0611   -0.1132    2.1061 H   0  0  0  0  0  0  0  0  0  0  0  0
   -1.9101   -1.5597    1.2981 H   0  0  0  0  0  0  0  0  0  0  0  0
   -0.4715   -2.2963    0.3457 H   0  0  0  0  0  0  0  0  0  0  0  0
   -2.2292   -0.6690   -1.0794 H   0  0  0  0  0  0  0  0  0  0  0  0
   -2.1954    0.7141    1.1436 H   0  0  0  0  0  0  0  0  0  0  0  0
   -0.1585    2.3566    0.7360 H   0  0  0  0  0  0  0  0  0  0  0  0
   -1.2847    2.4313   -0.6951 H   0  0  0  0  0  0  0  0  0  0  0  0
    1.1558    1.6734   -1.4525 H   0  0  0  0  0  0  0  0  0  0  0  0
    0.3909   -0.8866   -1.9478 H   0  0  0  0  0  0  0  0  0  0  0  0
  1  2  1  0
  2  3  1  0
  3  4  1  0
  4  5  1  0
  5  6  1  0
  6  7  1  0
  7  8  1  0
  8  9  1  0
  8  2  1  0
  9  2  1  0
  6  3  1  0
  9  5  1  0
  1 10  1  0
  1 11  1  0
  1 12  1  0
  3 13  1  0
  4 14  1  0
  4 15  1  0
  5 16  1  0
  6 17  1  0
  7 18  1  0
  7 19  1  0
  8 20  1  0
  9 21  1  0
M  END
