
     RDKit          3D

 19 21  0  0  0  0  0  0  0  0999 V2000
   -2.2014    0.1688   -0.5706 C   0  0  0  0  0  0  0  0  0  0  0  0
   -0.8015   -0.0606   -0.2379 C   0  0  0  0  0  0  0  0  0  0  0  0
   -0.0345   -1.2742   -0.2850 C   0  0  0  0  0  0  0  0  0  0  0  0
    1.4339   -0.8567   -0.4212 C   0  0  0  0  0  0  0  0  0  0  0  0
    1.4256    0.6505   -0.3363 C   0  0  0  0  0  0  0  0  0  0  0  0
    2.4984    1.1324    0.4181 O   0  0  0  0  0  0  0  0  0  0  0  0
    0.0978    0.9727    0.3638 C   0  0  0  0  0  0  0  0  0  0  0  0
   -0.0352    0.3367    1.5997 O   0  0  0  0  0  0  0  0  0  0  0  0
   -0.5663   -0.8256    1.0809 C   0  0  0  0  0  0  0  0  0  0  0  0
   -2.6473    0.9976    0.0347 H   0  0  0  0  0  0  0  0  0  0  0  0
   -2.8575   -0.7217   -0.3530 H   0  0  0  0  0  0  0  0  0  0  0  0
   -2.3808    0.3757   -1.6615 H   0  0  0  0  0  0  0  0  0  0  0  0
   -0.3458   -2.2627   -0.5860 H   0  0  0  0  0  0  0  0  0  0  0  0
    1.9634   -1.2127    0.5077 H   0  0  0  0  0  0  0  0  0  0  0  0
    1.8994   -1.2484   -1.3215 H   0  0  0  0  0  0  0  0  0  0  0  0
    1.3730    1.1191   -1.3382 H   0  0  0  0  0  0  0  0  0  0  0  0
    2.7851    2.0342    0.1473 H   0  0  0  0  0  0  0  0  0  0  0  0
   -0.1942    2.0116    0.3076 H   0  0  0  0  0  0  0  0  0  0  0  0
   -1.4120   -1.3368    1.5247 H   0  0  0  0  0  0  0  0  0  0  0  0
  1  2  1  0
  2  3  1  0
  3  4  1  0
  4  5  1  0
  5  6  1  0
  5  7  1  0
  7  8  1  0
  8  9  1  0
  7  2  1  0
  9  2  1  0
  9  3  1  0
  1 10  1  0
  1 11  1  0
  1 12  1  0
  3 13  1  0
  4 14  1  0
  4 15  1  0
  5 16  1  0
  6 17  1  0
  7 18  1  0
  9 19  1  0
M  END
