
     RDKit          3D

 16 17  0  0  0  0  0  0  0  0999 V2000
   -1.0194    1.4619   -0.2225 C   0  0  0  0  0  0  0  0  0  0  0  0
   -0.3084    0.2285    0.2115 C   0  0  0  0  0  0  0  0  0  0  0  0
    0.8889    0.3269    1.0983 C   0  0  0  0  0  0  0  0  0  0  0  0
    1.0563    0.6501    2.2483 O   0  0  0  0  0  0  0  0  0  0  0  0
    1.7045   -0.1354   -0.0527 C   0  0  0  0  0  0  0  0  0  0  0  0
    0.5042   -0.5617   -0.8148 C   0  0  0  0  0  0  0  0  0  0  0  0
   -0.7027   -1.1261   -0.1859 C   0  0  0  0  0  0  0  0  0  0  0  0
   -0.6316   -2.1236    0.7832 O   0  0  0  0  0  0  0  0  0  0  0  0
   -0.8868    1.7214   -1.2858 H   0  0  0  0  0  0  0  0  0  0  0  0
   -2.0878    1.4128    0.0814 H   0  0  0  0  0  0  0  0  0  0  0  0
   -0.5615    2.3239    0.3465 H   0  0  0  0  0  0  0  0  0  0  0  0
    2.4712   -0.8939    0.1676 H   0  0  0  0  0  0  0  0  0  0  0  0
    2.1948    0.7658   -0.5190 H   0  0  0  0  0  0  0  0  0  0  0  0
    0.4702   -0.2534   -1.8708 H   0  0  0  0  0  0  0  0  0  0  0  0
   -1.5895   -1.2131   -0.8592 H   0  0  0  0  0  0  0  0  0  0  0  0
   -1.5022   -2.5841    0.8740 H   0  0  0  0  0  0  0  0  0  0  0  0
  1  2  1  0
  2  3  1  0
  3  4  2  0
  3  5  1  0
  5  6  1  0
  6  7  1  0
  7  8  1  0
  6  2  1  0
  7  2  1  0
  1  9  1  0
  1 10  1  0
  1 11  1  0
  5 12  1  0
  5 13  1  0
  6 14  1  0
  7 15  1  0
  8 16  1  0
M  END
