
     RDKit          3D

 23 25  0  0  0  0  0  0  0  0999 V2000
    0.0165    1.4654   -1.6388 C   0  0  0  0  0  0  0  0  0  0  0  0
   -0.3098    0.4354   -0.6148 C   0  0  0  0  0  0  0  0  0  0  0  0
   -1.7001    0.3766   -0.0336 C   0  0  0  0  0  0  0  0  0  0  0  0
   -1.8231   -0.9824    0.6194 C   0  0  0  0  0  0  0  0  0  0  0  0
   -0.4314   -1.5887    0.5708 C   0  0  0  0  0  0  0  0  0  0  0  0
    0.4737   -0.7915    1.5123 C   0  0  0  0  0  0  0  0  0  0  0  0
    0.7750    0.1206    0.3820 C   0  0  0  0  0  0  0  0  0  0  0  0
    2.1441    0.6235    0.0951 C   0  0  0  0  0  0  0  0  0  0  0  0
    0.1773   -0.9233   -0.6056 C   0  0  0  0  0  0  0  0  0  0  0  0
   -0.8070    1.5913   -2.3704 H   0  0  0  0  0  0  0  0  0  0  0  0
    0.9623    1.2571   -2.1345 H   0  0  0  0  0  0  0  0  0  0  0  0
    0.1407    2.4435   -1.1031 H   0  0  0  0  0  0  0  0  0  0  0  0
   -1.7491    1.1923    0.7390 H   0  0  0  0  0  0  0  0  0  0  0  0
   -2.4279    0.5485   -0.8327 H   0  0  0  0  0  0  0  0  0  0  0  0
   -2.0509   -0.8339    1.7053 H   0  0  0  0  0  0  0  0  0  0  0  0
   -2.5809   -1.6099    0.1361 H   0  0  0  0  0  0  0  0  0  0  0  0
   -0.3750   -2.6668    0.6627 H   0  0  0  0  0  0  0  0  0  0  0  0
    1.2981   -1.3822    1.9386 H   0  0  0  0  0  0  0  0  0  0  0  0
   -0.0762   -0.2530    2.3167 H   0  0  0  0  0  0  0  0  0  0  0  0
    2.6009    0.0403   -0.7471 H   0  0  0  0  0  0  0  0  0  0  0  0
    2.0381    1.6650   -0.3196 H   0  0  0  0  0  0  0  0  0  0  0  0
    2.8029    0.6525    0.9811 H   0  0  0  0  0  0  0  0  0  0  0  0
    0.9020   -1.3803   -1.2587 H   0  0  0  0  0  0  0  0  0  0  0  0
  1  2  1  0
  2  3  1  0
  3  4  1  0
  4  5  1  0
  5  6  1  0
  6  7  1  0
  7  8  1  0
  7  9  1  0
  7  2  1  0
  9  2  1  0
  9  5  1  0
  1 10  1  0
  1 11  1  0
  1 12  1  0
  3 13  1  0
  3 14  1  0
  4 15  1  0
  4 16  1  0
  5 17  1  0
  6 18  1  0
  6 19  1  0
  8 20  1  0
  8 21  1  0
  8 22  1  0
  9 23  1  0
M  END
