
     RDKit          3D

 21 22  0  0  0  0  0  0  0  0999 V2000
   -2.3491    0.8012    0.3176 C   0  0  0  0  0  0  0  0  0  0  0  0
   -1.2139   -0.2112    0.1809 C   0  0  0  0  0  0  0  0  0  0  0  0
   -0.4601   -0.5848    1.3923 C   0  0  0  0  0  0  0  0  0  0  0  0
    0.8213   -0.7932    1.1735 C   0  0  0  0  0  0  0  0  0  0  0  0
    1.1186   -0.5884   -0.2316 C   0  0  0  0  0  0  0  0  0  0  0  0
    2.2414    0.3874   -0.4909 C   0  0  0  0  0  0  0  0  0  0  0  0
    1.8976    1.6280    0.0459 O   0  0  0  0  0  0  0  0  0  0  0  0
   -0.1341    0.0187   -0.7986 C   0  0  0  0  0  0  0  0  0  0  0  0
   -1.2146   -0.9916   -1.0522 C   0  0  0  0  0  0  0  0  0  0  0  0
   -3.0714    0.6995   -0.5194 H   0  0  0  0  0  0  0  0  0  0  0  0
   -2.8572    0.5637    1.2837 H   0  0  0  0  0  0  0  0  0  0  0  0
   -1.8786    1.8017    0.3388 H   0  0  0  0  0  0  0  0  0  0  0  0
   -0.9592   -0.6729    2.3815 H   0  0  0  0  0  0  0  0  0  0  0  0
    1.5543   -1.0782    1.9359 H   0  0  0  0  0  0  0  0  0  0  0  0
    1.3897   -1.5441   -0.7522 H   0  0  0  0  0  0  0  0  0  0  0  0
    3.2172    0.0398   -0.0990 H   0  0  0  0  0  0  0  0  0  0  0  0
    2.3357    0.4706   -1.6001 H   0  0  0  0  0  0  0  0  0  0  0  0
    2.5230    1.9084    0.7591 H   0  0  0  0  0  0  0  0  0  0  0  0
   -0.0994    0.9606   -1.3620 H   0  0  0  0  0  0  0  0  0  0  0  0
   -1.9093   -0.7260   -1.8434 H   0  0  0  0  0  0  0  0  0  0  0  0
   -0.9518   -2.0892   -1.0598 H   0  0  0  0  0  0  0  0  0  0  0  0
  1  2  1  0
  2  3  1  0
  3  4  2  0
  4  5  1  0
  5  6  1  0
  6  7  1  0
  5  8  1  0
  8  9  1  0
  8  2  1  0
  9  2  1  0
  1 10  1  0
  1 11  1  0
  1 12  1  0
  3 13  1  0
  4 14  1  0
  5 15  1  0
  6 16  1  0
  6 17  1  0
  7 18  1  0
  8 19  1  0
  9 20  1  0
  9 21  1  0
M  END
