
     RDKit          3D

 18 19  0  0  0  0  0  0  0  0999 V2000
   -1.9069    0.6183    0.6628 C   0  0  0  0  0  0  0  0  0  0  0  0
   -0.6663    0.0968   -0.0765 C   0  0  0  0  0  0  0  0  0  0  0  0
    0.2783    1.1397   -0.5600 C   0  0  0  0  0  0  0  0  0  0  0  0
    1.5552    0.9308   -0.3334 C   0  0  0  0  0  0  0  0  0  0  0  0
    2.0565   -0.2551    0.3557 C   0  0  0  0  0  0  0  0  0  0  0  0
    1.2445   -1.3608    0.2815 O   0  0  0  0  0  0  0  0  0  0  0  0
   -0.0884   -1.1465    0.3819 C   0  0  0  0  0  0  0  0  0  0  0  0
   -0.8185   -1.0748   -0.9728 C   0  0  0  0  0  0  0  0  0  0  0  0
   -1.5882    1.5692    1.1399 H   0  0  0  0  0  0  0  0  0  0  0  0
   -2.2075   -0.0856    1.4715 H   0  0  0  0  0  0  0  0  0  0  0  0
   -2.7292    0.7449   -0.0615 H   0  0  0  0  0  0  0  0  0  0  0  0
   -0.0697    2.0382   -1.0799 H   0  0  0  0  0  0  0  0  0  0  0  0
    2.2809    1.6750   -0.6737 H   0  0  0  0  0  0  0  0  0  0  0  0
    3.0338   -0.5404   -0.1271 H   0  0  0  0  0  0  0  0  0  0  0  0
    2.3247    0.0206    1.3976 H   0  0  0  0  0  0  0  0  0  0  0  0
   -0.6606   -1.7393    1.1321 H   0  0  0  0  0  0  0  0  0  0  0  0
   -1.8232   -1.4934   -1.0510 H   0  0  0  0  0  0  0  0  0  0  0  0
   -0.2154   -1.1377   -1.8870 H   0  0  0  0  0  0  0  0  0  0  0  0
  1  2  1  0
  2  3  1  0
  3  4  2  0
  4  5  1  0
  5  6  1  0
  6  7  1  0
  7  8  1  0
  7  2  1  0
  8  2  1  0
  1  9  1  0
  1 10  1  0
  1 11  1  0
  3 12  1  0
  4 13  1  0
  5 14  1  0
  5 15  1  0
  7 16  1  0
  8 17  1  0
  8 18  1  0
M  END
