
     RDKit          3D

 18 20  0  0  0  0  0  0  0  0999 V2000
    2.0531    0.1355   -0.5435 C   0  0  0  0  0  0  0  0  0  0  0  0
    0.5957   -0.0702   -0.3702 C   0  0  0  0  0  0  0  0  0  0  0  0
    0.0027   -1.4506   -0.2365 C   0  0  0  0  0  0  0  0  0  0  0  0
   -0.9145   -0.8712    0.8489 C   0  0  0  0  0  0  0  0  0  0  0  0
   -2.0624   -0.3947    0.2543 O   0  0  0  0  0  0  0  0  0  0  0  0
   -1.8166    0.8399   -0.2920 C   0  0  0  0  0  0  0  0  0  0  0  0
   -0.3306    1.0817   -0.2750 C   0  0  0  0  0  0  0  0  0  0  0  0
    0.0257    0.2856    0.9197 C   0  0  0  0  0  0  0  0  0  0  0  0
    2.2544    1.1786   -0.7731 H   0  0  0  0  0  0  0  0  0  0  0  0
    2.4639   -0.5746   -1.3010 H   0  0  0  0  0  0  0  0  0  0  0  0
    2.5697   -0.0906    0.4305 H   0  0  0  0  0  0  0  0  0  0  0  0
    0.7210   -2.2035    0.1551 H   0  0  0  0  0  0  0  0  0  0  0  0
   -0.5280   -1.7431   -1.1631 H   0  0  0  0  0  0  0  0  0  0  0  0
   -1.0248   -1.4946    1.7385 H   0  0  0  0  0  0  0  0  0  0  0  0
   -2.2640    1.6059    0.4073 H   0  0  0  0  0  0  0  0  0  0  0  0
   -2.2878    1.0230   -1.2659 H   0  0  0  0  0  0  0  0  0  0  0  0
    0.0259    2.1067   -0.3277 H   0  0  0  0  0  0  0  0  0  0  0  0
    0.5164    0.6363    1.7936 H   0  0  0  0  0  0  0  0  0  0  0  0
  1  2  1  0
  2  3  1  0
  3  4  1  0
  4  5  1  0
  5  6  1  0
  6  7  1  0
  7  8  1  0
  7  2  1  0
  8  2  1  0
  8  4  1  0
  1  9  1  0
  1 10  1  0
  1 11  1  0
  3 12  1  0
  3 13  1  0
  4 14  1  0
  6 15  1  0
  6 16  1  0
  7 17  1  0
  8 18  1  0
M  END
