
     RDKit          3D

 19 20  0  0  0  0  0  0  0  0999 V2000
   -1.1269   -1.4795    0.3608 C   0  0  0  0  0  0  0  0  0  0  0  0
   -0.7923   -0.1885   -0.2580 C   0  0  0  0  0  0  0  0  0  0  0  0
   -1.4950    1.0877    0.1224 C   0  0  0  0  0  0  0  0  0  0  0  0
   -0.1572    1.7827    0.1487 C   0  0  0  0  0  0  0  0  0  0  0  0
    0.2194    2.9163    0.4058 O   0  0  0  0  0  0  0  0  0  0  0  0
    0.4561    0.5060   -0.2638 C   0  0  0  0  0  0  0  0  0  0  0  0
    1.7641    0.0664    0.2457 C   0  0  0  0  0  0  0  0  0  0  0  0
    1.8064   -0.2269    1.5975 O   0  0  0  0  0  0  0  0  0  0  0  0
   -0.0283   -0.1068   -1.5596 C   0  0  0  0  0  0  0  0  0  0  0  0
   -1.2243   -2.2600   -0.4444 H   0  0  0  0  0  0  0  0  0  0  0  0
   -0.4020   -1.8801    1.0824 H   0  0  0  0  0  0  0  0  0  0  0  0
   -2.1129   -1.4570    0.8800 H   0  0  0  0  0  0  0  0  0  0  0  0
   -2.0110    1.1086    1.0771 H   0  0  0  0  0  0  0  0  0  0  0  0
   -2.1424    1.4867   -0.6966 H   0  0  0  0  0  0  0  0  0  0  0  0
    2.5307    0.8692    0.0720 H   0  0  0  0  0  0  0  0  0  0  0  0
    2.1039   -0.8225   -0.3221 H   0  0  0  0  0  0  0  0  0  0  0  0
    2.5702   -0.8744    1.7336 H   0  0  0  0  0  0  0  0  0  0  0  0
    0.4659   -1.0724   -1.8252 H   0  0  0  0  0  0  0  0  0  0  0  0
   -0.4243    0.5447   -2.3564 H   0  0  0  0  0  0  0  0  0  0  0  0
  1  2  1  0
  2  3  1  0
  3  4  1  0
  4  5  2  0
  4  6  1  0
  6  7  1  0
  7  8  1  0
  6  9  1  0
  6  2  1  0
  9  2  1  0
  1 10  1  0
  1 11  1  0
  1 12  1  0
  3 13  1  0
  3 14  1  0
  7 15  1  0
  7 16  1  0
  8 17  1  0
  9 18  1  0
  9 19  1  0
M  END
