
     RDKit          3D

 19 21  0  0  0  0  0  0  0  0999 V2000
   -1.0844   -1.5536    0.1348 C   0  0  0  0  0  0  0  0  0  0  0  0
   -0.6439   -0.1978   -0.1011 C   0  0  0  0  0  0  0  0  0  0  0  0
   -1.5512    0.8362   -0.6521 C   0  0  0  0  0  0  0  0  0  0  0  0
   -0.7071    1.9754   -0.6233 O   0  0  0  0  0  0  0  0  0  0  0  0
    0.4859    1.4603   -0.1758 C   0  0  0  0  0  0  0  0  0  0  0  0
    0.6570    0.0866   -0.7705 C   0  0  0  0  0  0  0  0  0  0  0  0
    1.3154   -0.2831    0.5278 C   0  0  0  0  0  0  0  0  0  0  0  0
    2.5647    0.2756    0.7461 O   0  0  0  0  0  0  0  0  0  0  0  0
    0.1386    0.5357    0.9528 C   0  0  0  0  0  0  0  0  0  0  0  0
   -2.0025   -1.8324   -0.3985 H   0  0  0  0  0  0  0  0  0  0  0  0
   -1.3229   -1.6867    1.2311 H   0  0  0  0  0  0  0  0  0  0  0  0
   -0.3209   -2.3473   -0.0724 H   0  0  0  0  0  0  0  0  0  0  0  0
   -1.7043    0.6284   -1.7413 H   0  0  0  0  0  0  0  0  0  0  0  0
   -2.4746    0.9996   -0.0994 H   0  0  0  0  0  0  0  0  0  0  0  0
    1.3450    2.0937   -0.0886 H   0  0  0  0  0  0  0  0  0  0  0  0
    0.9533   -0.1387   -1.6962 H   0  0  0  0  0  0  0  0  0  0  0  0
    1.2864   -1.3552    0.7345 H   0  0  0  0  0  0  0  0  0  0  0  0
    3.2225   -0.2710    0.2163 H   0  0  0  0  0  0  0  0  0  0  0  0
   -0.1568    0.7745    1.8757 H   0  0  0  0  0  0  0  0  0  0  0  0
  1  2  1  0
  2  3  1  0
  3  4  1  0
  4  5  1  0
  5  6  1  0
  6  7  1  0
  7  8  1  0
  7  9  1  0
  6  2  1  0
  9  2  1  0
  9  5  1  0
  1 10  1  0
  1 11  1  0
  1 12  1  0
  3 13  1  0
  3 14  1  0
  5 15  1  0
  6 16  1  0
  7 17  1  0
  8 18  1  0
  9 19  1  0
M  END
