
     RDKit          3D

 18 20  0  0  0  0  0  0  0  0999 V2000
    2.1353   -0.0972    0.1333 C   0  0  0  0  0  0  0  0  0  0  0  0
    0.6352   -0.0970    0.2677 C   0  0  0  0  0  0  0  0  0  0  0  0
   -0.0130    1.2472    0.2399 C   0  0  0  0  0  0  0  0  0  0  0  0
   -1.1824    0.5955   -0.4906 C   0  0  0  0  0  0  0  0  0  0  0  0
   -1.9490   -0.2461    0.4984 C   0  0  0  0  0  0  0  0  0  0  0  0
   -1.3818   -1.5141    0.5089 O   0  0  0  0  0  0  0  0  0  0  0  0
   -0.0567   -1.3554    0.0419 C   0  0  0  0  0  0  0  0  0  0  0  0
   -0.1831   -0.3905   -1.0225 C   0  0  0  0  0  0  0  0  0  0  0  0
    2.4624    0.7592   -0.4718 H   0  0  0  0  0  0  0  0  0  0  0  0
    2.4719   -1.0709   -0.3046 H   0  0  0  0  0  0  0  0  0  0  0  0
    2.5353   -0.0626    1.1686 H   0  0  0  0  0  0  0  0  0  0  0  0
    0.5321    1.9498   -0.4526 H   0  0  0  0  0  0  0  0  0  0  0  0
   -0.3387    1.6838    1.1828 H   0  0  0  0  0  0  0  0  0  0  0  0
   -1.7318    1.2071   -1.1823 H   0  0  0  0  0  0  0  0  0  0  0  0
   -1.8116    0.1538    1.5467 H   0  0  0  0  0  0  0  0  0  0  0  0
   -3.0339   -0.2504    0.3281 H   0  0  0  0  0  0  0  0  0  0  0  0
    0.5158   -2.2601   -0.0837 H   0  0  0  0  0  0  0  0  0  0  0  0
    0.3941   -0.2521   -1.9083 H   0  0  0  0  0  0  0  0  0  0  0  0
  1  2  1  0
  2  3  1  0
  3  4  1  0
  4  5  1  0
  5  6  1  0
  6  7  1  0
  7  8  1  0
  7  2  1  0
  8  2  1  0
  8  4  1  0
  1  9  1  0
  1 10  1  0
  1 11  1  0
  3 12  1  0
  3 13  1  0
  4 14  1  0
  5 15  1  0
  5 16  1  0
  7 17  1  0
  8 18  1  0
M  END
