
     RDKit          3D

 19 21  0  0  0  0  0  0  0  0999 V2000
    0.0166   -1.9547   -0.2303 C   0  0  0  0  0  0  0  0  0  0  0  0
    0.1537   -0.5902   -0.1273 C   0  0  0  0  0  0  0  0  0  0  0  0
    0.2036    0.4058   -1.2565 C   0  0  0  0  0  0  0  0  0  0  0  0
    0.3416    1.1933    0.0237 C   0  0  0  0  0  0  0  0  0  0  0  0
    1.3393    0.1482    0.4499 C   0  0  0  0  0  0  0  0  0  0  0  0
    1.4790    0.0547    1.8179 O   0  0  0  0  0  0  0  0  0  0  0  0
   -0.7098    0.3892    0.5994 C   0  0  0  0  0  0  0  0  0  0  0  0
   -1.9177    1.1237    0.3058 C   0  0  0  0  0  0  0  0  0  0  0  0
   -1.9045   -0.1688    0.3684 O   0  0  0  0  0  0  0  0  0  0  0  0
   -0.8997   -2.3779    0.2774 H   0  0  0  0  0  0  0  0  0  0  0  0
   -0.0697   -2.3442   -1.2877 H   0  0  0  0  0  0  0  0  0  0  0  0
    0.8632   -2.5505    0.2226 H   0  0  0  0  0  0  0  0  0  0  0  0
    1.1470    0.3271   -1.8415 H   0  0  0  0  0  0  0  0  0  0  0  0
   -0.7167    0.5638   -1.8148 H   0  0  0  0  0  0  0  0  0  0  0  0
    0.5120    2.1968    0.0584 H   0  0  0  0  0  0  0  0  0  0  0  0
    2.2435    0.0609   -0.1605 H   0  0  0  0  0  0  0  0  0  0  0  0
    2.4288    0.2166    2.0753 H   0  0  0  0  0  0  0  0  0  0  0  0
   -2.2128    1.5943   -0.6560 H   0  0  0  0  0  0  0  0  0  0  0  0
   -2.2972    1.7119    1.1758 H   0  0  0  0  0  0  0  0  0  0  0  0
  1  2  1  0
  2  3  1  0
  3  4  1  0
  4  5  1  0
  5  6  1  0
  4  7  1  0
  7  8  1  0
  8  9  1  0
  5  2  1  0
  9  7  1  0
  7  2  1  0
  1 10  1  0
  1 11  1  0
  1 12  1  0
  3 13  1  0
  3 14  1  0
  4 15  1  0
  5 16  1  0
  6 17  1  0
  8 18  1  0
  8 19  1  0
M  END
