
     RDKit          3D

 19 20  0  0  0  0  0  0  0  0999 V2000
   -1.0350    1.8117   -0.2664 C   0  0  0  0  0  0  0  0  0  0  0  0
   -0.2511    0.6167    0.2285 C   0  0  0  0  0  0  0  0  0  0  0  0
    0.9537    0.9657    0.8377 O   0  0  0  0  0  0  0  0  0  0  0  0
    1.9946    0.3958    0.1157 C   0  0  0  0  0  0  0  0  0  0  0  0
    1.9677   -0.9738    0.3777 O   0  0  0  0  0  0  0  0  0  0  0  0
    0.9389   -1.5147   -0.3712 C   0  0  0  0  0  0  0  0  0  0  0  0
   -0.2652   -0.6474   -0.4846 C   0  0  0  0  0  0  0  0  0  0  0  0
   -1.0217   -0.4719    0.8318 C   0  0  0  0  0  0  0  0  0  0  0  0
   -2.3958   -0.5988    0.6866 O   0  0  0  0  0  0  0  0  0  0  0  0
   -0.6076    2.2737   -1.1670 H   0  0  0  0  0  0  0  0  0  0  0  0
   -2.1041    1.5790   -0.4132 H   0  0  0  0  0  0  0  0  0  0  0  0
   -0.9885    2.5903    0.5342 H   0  0  0  0  0  0  0  0  0  0  0  0
    2.9802    0.8408    0.3482 H   0  0  0  0  0  0  0  0  0  0  0  0
    1.8466    0.5055   -0.9786 H   0  0  0  0  0  0  0  0  0  0  0  0
    0.6231   -2.4537    0.1670 H   0  0  0  0  0  0  0  0  0  0  0  0
    1.3506   -1.8400   -1.3531 H   0  0  0  0  0  0  0  0  0  0  0  0
   -0.8426   -0.6993   -1.4254 H   0  0  0  0  0  0  0  0  0  0  0  0
   -0.6129   -0.9321    1.7457 H   0  0  0  0  0  0  0  0  0  0  0  0
   -2.5309   -1.4475    0.1550 H   0  0  0  0  0  0  0  0  0  0  0  0
  1  2  1  0
  2  3  1  0
  3  4  1  0
  4  5  1  0
  5  6  1  0
  6  7  1  0
  7  8  1  0
  8  9  1  0
  7  2  1  0
  8  2  1  0
  1 10  1  0
  1 11  1  0
  1 12  1  0
  4 13  1  0
  4 14  1  0
  6 15  1  0
  6 16  1  0
  7 17  1  0
  8 18  1  0
  9 19  1  0
M  END
