
     RDKit          3D

 19 20  0  0  0  0  0  0  0  0999 V2000
   -2.3095   -0.3142    0.3563 C   0  0  0  0  0  0  0  0  0  0  0  0
   -0.9566    0.1580    0.1577 C   0  0  0  0  0  0  0  0  0  0  0  0
   -0.0847   -0.5894   -0.8720 C   0  0  0  0  0  0  0  0  0  0  0  0
    1.0255    0.0582   -0.0320 C   0  0  0  0  0  0  0  0  0  0  0  0
    2.3338   -0.4568   -0.0970 C   0  0  0  0  0  0  0  0  0  0  0  0
    3.2888    0.2632    0.2030 O   0  0  0  0  0  0  0  0  0  0  0  0
    0.7127    1.4851   -0.2918 C   0  0  0  0  0  0  0  0  0  0  0  0
   -0.6868    1.4902   -0.0476 O   0  0  0  0  0  0  0  0  0  0  0  0
    0.1204   -0.3123    1.1502 C   0  0  0  0  0  0  0  0  0  0  0  0
   -2.3914   -0.9340    1.2965 H   0  0  0  0  0  0  0  0  0  0  0  0
   -2.7725   -0.8984   -0.4563 H   0  0  0  0  0  0  0  0  0  0  0  0
   -2.9985    0.5591    0.5518 H   0  0  0  0  0  0  0  0  0  0  0  0
   -0.1561   -0.1831   -1.8809 H   0  0  0  0  0  0  0  0  0  0  0  0
   -0.1037   -1.6697   -0.7325 H   0  0  0  0  0  0  0  0  0  0  0  0
    2.6110   -1.4677   -0.3966 H   0  0  0  0  0  0  0  0  0  0  0  0
    1.2354    2.2149    0.3172 H   0  0  0  0  0  0  0  0  0  0  0  0
    0.7960    1.6732   -1.3983 H   0  0  0  0  0  0  0  0  0  0  0  0
    0.1031   -1.3955    1.2681 H   0  0  0  0  0  0  0  0  0  0  0  0
    0.2330    0.3194    2.0260 H   0  0  0  0  0  0  0  0  0  0  0  0
  1  2  1  0
  2  3  1  0
  3  4  1  0
  4  5  1  0
  5  6  2  0
  4  7  1  0
  7  8  1  0
  4  9  1  0
  8  2  1  0
  9  2  1  0
  1 10  1  0
  1 11  1  0
  1 12  1  0
  3 13  1  0
  3 14  1  0
  5 15  1  0
  7 16  1  0
  7 17  1  0
  9 18  1  0
  9 19  1  0
M  END
