
     RDKit          3D

 19 21  0  0  0  0  0  0  0  0999 V2000
   -1.8483    0.0431    1.3334 C   0  0  0  0  0  0  0  0  0  0  0  0
   -0.9165    0.1962    0.1878 C   0  0  0  0  0  0  0  0  0  0  0  0
   -1.3106   -0.3830   -1.0995 C   0  0  0  0  0  0  0  0  0  0  0  0
   -0.1499   -0.9552   -0.3754 C   0  0  0  0  0  0  0  0  0  0  0  0
    1.1087   -0.1504   -0.4054 C   0  0  0  0  0  0  0  0  0  0  0  0
    2.3863   -0.7166    0.0169 C   0  0  0  0  0  0  0  0  0  0  0  0
    2.5947   -1.2479    1.1055 O   0  0  0  0  0  0  0  0  0  0  0  0
    1.1102    1.2412   -0.9040 C   0  0  0  0  0  0  0  0  0  0  0  0
    0.3996    0.9056    0.3519 C   0  0  0  0  0  0  0  0  0  0  0  0
   -1.4060    0.1534    2.3263 H   0  0  0  0  0  0  0  0  0  0  0  0
   -2.3187   -0.9737    1.2749 H   0  0  0  0  0  0  0  0  0  0  0  0
   -2.6891    0.7724    1.1873 H   0  0  0  0  0  0  0  0  0  0  0  0
   -2.2164   -1.0087   -1.1136 H   0  0  0  0  0  0  0  0  0  0  0  0
   -1.1396    0.2225   -2.0132 H   0  0  0  0  0  0  0  0  0  0  0  0
   -0.1530   -1.9280    0.1039 H   0  0  0  0  0  0  0  0  0  0  0  0
    3.2287   -0.6631   -0.6963 H   0  0  0  0  0  0  0  0  0  0  0  0
    2.0424    1.8185   -0.7683 H   0  0  0  0  0  0  0  0  0  0  0  0
    0.5707    1.4234   -1.8437 H   0  0  0  0  0  0  0  0  0  0  0  0
    0.7067    1.2502    1.3315 H   0  0  0  0  0  0  0  0  0  0  0  0
  1  2  1  0
  2  3  1  0
  3  4  1  0
  4  5  1  0
  5  6  1  0
  6  7  2  0
  5  8  1  0
  8  9  1  0
  4  2  1  0
  9  5  1  0
  9  2  1  0
  1 10  1  0
  1 11  1  0
  1 12  1  0
  3 13  1  0
  3 14  1  0
  4 15  1  0
  6 16  1  0
  8 17  1  0
  8 18  1  0
  9 19  1  0
M  END
