
     RDKit          3D

 19 20  0  0  0  0  0  0  0  0999 V2000
    2.2994    0.1289   -0.0366 C   0  0  0  0  0  0  0  0  0  0  0  0
    0.9063   -0.1194   -0.4569 C   0  0  0  0  0  0  0  0  0  0  0  0
    0.2449   -1.4720   -0.1487 C   0  0  0  0  0  0  0  0  0  0  0  0
   -0.9182   -0.6351    0.3595 C   0  0  0  0  0  0  0  0  0  0  0  0
   -2.2382   -0.9899   -0.1444 C   0  0  0  0  0  0  0  0  0  0  0  0
   -2.7230   -2.0718    0.1410 O   0  0  0  0  0  0  0  0  0  0  0  0
   -0.2580    0.5548   -0.2660 C   0  0  0  0  0  0  0  0  0  0  0  0
   -0.5965    1.8846    0.2875 C   0  0  0  0  0  0  0  0  0  0  0  0
    0.3071    0.5211   -1.5065 O   0  0  0  0  0  0  0  0  0  0  0  0
    2.9253    0.5549   -0.8510 H   0  0  0  0  0  0  0  0  0  0  0  0
    2.3660    0.7736    0.8692 H   0  0  0  0  0  0  0  0  0  0  0  0
    2.8287   -0.8242    0.2575 H   0  0  0  0  0  0  0  0  0  0  0  0
    0.0144   -2.0375   -1.0732 H   0  0  0  0  0  0  0  0  0  0  0  0
    0.7659   -2.0693    0.5982 H   0  0  0  0  0  0  0  0  0  0  0  0
   -0.8556   -0.6061    1.4823 H   0  0  0  0  0  0  0  0  0  0  0  0
   -2.8021   -0.3096   -0.7708 H   0  0  0  0  0  0  0  0  0  0  0  0
   -1.6457    1.8271    0.6981 H   0  0  0  0  0  0  0  0  0  0  0  0
   -0.6531    2.6591   -0.5285 H   0  0  0  0  0  0  0  0  0  0  0  0
    0.0324    2.2308    1.1088 H   0  0  0  0  0  0  0  0  0  0  0  0
  1  2  1  0
  2  3  1  0
  3  4  1  0
  4  5  1  0
  5  6  2  0
  4  7  1  0
  7  8  1  0
  7  9  1  0
  7  2  1  0
  9  2  1  0
  1 10  1  0
  1 11  1  0
  1 12  1  0
  3 13  1  0
  3 14  1  0
  4 15  1  0
  5 16  1  0
  8 17  1  0
  8 18  1  0
  8 19  1  0
M  END
