
     RDKit          3D

 20 21  0  0  0  0  0  0  0  0999 V2000
   -2.2165   -0.3412   -0.0020 C   0  0  0  0  0  0  0  0  0  0  0  0
   -0.7330   -0.0174    0.2186 C   0  0  0  0  0  0  0  0  0  0  0  0
    0.1318   -1.1999    0.3660 C   0  0  0  0  0  0  0  0  0  0  0  0
    1.5796   -1.0122    0.1717 C   0  0  0  0  0  0  0  0  0  0  0  0
    1.9552    0.0704   -0.7627 C   0  0  0  0  0  0  0  0  0  0  0  0
    1.1213    1.0360   -1.0698 C   0  0  0  0  0  0  0  0  0  0  0  0
   -0.2403    1.1274   -0.5213 C   0  0  0  0  0  0  0  0  0  0  0  0
   -0.4328    1.2129    0.9831 C   0  0  0  0  0  0  0  0  0  0  0  0
   -2.8695    0.3321    0.5804 H   0  0  0  0  0  0  0  0  0  0  0  0
   -2.4356   -1.3780    0.2705 H   0  0  0  0  0  0  0  0  0  0  0  0
   -2.4206   -0.1394   -1.0851 H   0  0  0  0  0  0  0  0  0  0  0  0
   -0.0294   -1.6222    1.4016 H   0  0  0  0  0  0  0  0  0  0  0  0
   -0.2285   -2.0286   -0.3118 H   0  0  0  0  0  0  0  0  0  0  0  0
    2.1342   -0.8626    1.1313 H   0  0  0  0  0  0  0  0  0  0  0  0
    2.0255   -1.9591   -0.2561 H   0  0  0  0  0  0  0  0  0  0  0  0
    2.9474    0.0731   -1.2115 H   0  0  0  0  0  0  0  0  0  0  0  0
    1.4569    1.8045   -1.7641 H   0  0  0  0  0  0  0  0  0  0  0  0
   -0.9591    1.7804   -1.0710 H   0  0  0  0  0  0  0  0  0  0  0  0
   -1.2880    1.7715    1.3935 H   0  0  0  0  0  0  0  0  0  0  0  0
    0.5014    1.3525    1.5387 H   0  0  0  0  0  0  0  0  0  0  0  0
  1  2  1  0
  2  3  1  0
  3  4  1  0
  4  5  1  0
  5  6  2  0
  6  7  1  0
  7  8  1  0
  7  2  1  0
  8  2  1  0
  1  9  1  0
  1 10  1  0
  1 11  1  0
  3 12  1  0
  3 13  1  0
  4 14  1  0
  4 15  1  0
  5 16  1  0
  6 17  1  0
  7 18  1  0
  8 19  1  0
  8 20  1  0
M  END
