
     RDKit          3D

 23 24  0  0  0  0  0  0  0  0999 V2000
   -2.0861   -0.9099   -0.8077 C   0  0  0  0  0  0  0  0  0  0  0  0
   -0.8537   -0.2921   -0.0834 C   0  0  0  0  0  0  0  0  0  0  0  0
    0.0762   -1.3285    0.3105 C   0  0  0  0  0  0  0  0  0  0  0  0
    1.4607   -1.0517    0.7235 C   0  0  0  0  0  0  0  0  0  0  0  0
    2.1429   -0.1997   -0.2956 C   0  0  0  0  0  0  0  0  0  0  0  0
    1.7845    1.0263   -0.6431 C   0  0  0  0  0  0  0  0  0  0  0  0
    0.6345    1.7823   -0.0812 C   0  0  0  0  0  0  0  0  0  0  0  0
   -0.6203    1.0590   -0.3289 C   0  0  0  0  0  0  0  0  0  0  0  0
   -1.3558    0.6827    0.9922 C   0  0  0  0  0  0  0  0  0  0  0  0
   -1.6866   -1.1263   -1.8408 H   0  0  0  0  0  0  0  0  0  0  0  0
   -2.8611   -0.1553   -0.9284 H   0  0  0  0  0  0  0  0  0  0  0  0
   -2.3803   -1.8260   -0.2909 H   0  0  0  0  0  0  0  0  0  0  0  0
   -0.4003   -1.9325    1.1453 H   0  0  0  0  0  0  0  0  0  0  0  0
    0.1499   -2.1010   -0.5190 H   0  0  0  0  0  0  0  0  0  0  0  0
    1.5179   -0.6116    1.7395 H   0  0  0  0  0  0  0  0  0  0  0  0
    2.0219   -2.0001    0.7613 H   0  0  0  0  0  0  0  0  0  0  0  0
    3.0039   -0.5861   -0.8109 H   0  0  0  0  0  0  0  0  0  0  0  0
    2.3753    1.5261   -1.4005 H   0  0  0  0  0  0  0  0  0  0  0  0
    0.8592    1.9561    1.0137 H   0  0  0  0  0  0  0  0  0  0  0  0
    0.6508    2.7972   -0.5155 H   0  0  0  0  0  0  0  0  0  0  0  0
   -1.2697    1.5898   -1.0968 H   0  0  0  0  0  0  0  0  0  0  0  0
   -0.7768    0.6971    1.9234 H   0  0  0  0  0  0  0  0  0  0  0  0
   -2.3870    1.0041    1.0332 H   0  0  0  0  0  0  0  0  0  0  0  0
  1  2  1  0
  2  3  1  0
  3  4  1  0
  4  5  1  0
  5  6  2  0
  6  7  1  0
  7  8  1  0
  8  9  1  0
  8  2  1  0
  9  2  1  0
  1 10  1  0
  1 11  1  0
  1 12  1  0
  3 13  1  0
  3 14  1  0
  4 15  1  0
  4 16  1  0
  5 17  1  0
  6 18  1  0
  7 19  1  0
  7 20  1  0
  8 21  1  0
  9 22  1  0
  9 23  1  0
M  END
