
     RDKit          3D

 21 23  0  0  0  0  0  0  0  0999 V2000
   -0.7284    1.5192   -1.0264 C   0  0  0  0  0  0  0  0  0  0  0  0
   -0.4321    0.4409   -0.0585 C   0  0  0  0  0  0  0  0  0  0  0  0
   -1.4108    0.1584    1.0729 C   0  0  0  0  0  0  0  0  0  0  0  0
   -1.1717   -0.8325    0.0103 C   0  0  0  0  0  0  0  0  0  0  0  0
   -2.1938   -1.1647   -0.8356 O   0  0  0  0  0  0  0  0  0  0  0  0
    0.1408   -1.5823   -0.0233 C   0  0  0  0  0  0  0  0  0  0  0  0
    0.8415   -0.2856    0.0149 C   0  0  0  0  0  0  0  0  0  0  0  0
    1.8413    0.0988    1.0115 C   0  0  0  0  0  0  0  0  0  0  0  0
    2.1206    0.0532   -0.5044 C   0  0  0  0  0  0  0  0  0  0  0  0
   -0.7458    2.5038   -0.4725 H   0  0  0  0  0  0  0  0  0  0  0  0
   -1.7383    1.4447   -1.4889 H   0  0  0  0  0  0  0  0  0  0  0  0
    0.0876    1.6004   -1.7488 H   0  0  0  0  0  0  0  0  0  0  0  0
   -0.8939    0.0945    2.0637 H   0  0  0  0  0  0  0  0  0  0  0  0
   -2.4102    0.6575    1.0417 H   0  0  0  0  0  0  0  0  0  0  0  0
   -3.0522   -1.0653   -0.3106 H   0  0  0  0  0  0  0  0  0  0  0  0
    0.2371   -2.1636   -0.9680 H   0  0  0  0  0  0  0  0  0  0  0  0
    0.2427   -2.2411    0.8778 H   0  0  0  0  0  0  0  0  0  0  0  0
    1.7061    1.1163    1.4638 H   0  0  0  0  0  0  0  0  0  0  0  0
    2.3733   -0.6109    1.6570 H   0  0  0  0  0  0  0  0  0  0  0  0
    2.8316   -0.7618   -0.7826 H   0  0  0  0  0  0  0  0  0  0  0  0
    2.3546    1.0199   -0.9941 H   0  0  0  0  0  0  0  0  0  0  0  0
  1  2  1  0
  2  3  1  0
  3  4  1  0
  4  5  1  0
  4  6  1  0
  6  7  1  0
  7  8  1  0
  8  9  1  0
  4  2  1  0
  9  7  1  0
  7  2  1  0
  1 10  1  0
  1 11  1  0
  1 12  1  0
  3 13  1  0
  3 14  1  0
  5 15  1  0
  6 16  1  0
  6 17  1  0
  8 18  1  0
  8 19  1  0
  9 20  1  0
  9 21  1  0
M  END
