
     RDKit          3D

 20 21  0  0  0  0  0  0  0  0999 V2000
    2.4219    0.0254    0.0793 C   0  0  0  0  0  0  0  0  0  0  0  0
    0.9400    0.1490    0.4083 C   0  0  0  0  0  0  0  0  0  0  0  0
    0.2028   -1.1364    0.5575 C   0  0  0  0  0  0  0  0  0  0  0  0
   -1.0258   -1.2374   -0.3199 C   0  0  0  0  0  0  0  0  0  0  0  0
   -1.8833   -0.0270   -0.0149 C   0  0  0  0  0  0  0  0  0  0  0  0
   -1.1612    1.1831   -0.5118 C   0  0  0  0  0  0  0  0  0  0  0  0
    0.2434    1.3089   -0.0167 C   0  0  0  0  0  0  0  0  0  0  0  0
    0.5517    1.1444    1.3177 O   0  0  0  0  0  0  0  0  0  0  0  0
    3.0418    0.0916    0.9823 H   0  0  0  0  0  0  0  0  0  0  0  0
    2.5394   -0.9091   -0.4926 H   0  0  0  0  0  0  0  0  0  0  0  0
    2.7632    0.8466   -0.5962 H   0  0  0  0  0  0  0  0  0  0  0  0
    0.8835   -2.0137    0.4323 H   0  0  0  0  0  0  0  0  0  0  0  0
   -0.1779   -1.2334    1.6173 H   0  0  0  0  0  0  0  0  0  0  0  0
   -1.5530   -2.1776   -0.0034 H   0  0  0  0  0  0  0  0  0  0  0  0
   -0.7971   -1.2410   -1.3930 H   0  0  0  0  0  0  0  0  0  0  0  0
   -2.8144   -0.1361   -0.6050 H   0  0  0  0  0  0  0  0  0  0  0  0
   -2.1259    0.0280    1.0656 H   0  0  0  0  0  0  0  0  0  0  0  0
   -1.7626    2.1201   -0.3526 H   0  0  0  0  0  0  0  0  0  0  0  0
   -1.1019    1.0870   -1.6338 H   0  0  0  0  0  0  0  0  0  0  0  0
    0.8154    2.1276   -0.5204 H   0  0  0  0  0  0  0  0  0  0  0  0
  1  2  1  0
  2  3  1  0
  3  4  1  0
  4  5  1  0
  5  6  1  0
  6  7  1  0
  7  8  1  0
  7  2  1  0
  8  2  1  0
  1  9  1  0
  1 10  1  0
  1 11  1  0
  3 12  1  0
  3 13  1  0
  4 14  1  0
  4 15  1  0
  5 16  1  0
  5 17  1  0
  6 18  1  0
  6 19  1  0
  7 20  1  0
M  END
