
     RDKit          3D

 19 21  0  0  0  0  0  0  0  0999 V2000
   -2.1586   -0.7323    0.4717 C   0  0  0  0  0  0  0  0  0  0  0  0
   -1.1644    0.1412   -0.1990 C   0  0  0  0  0  0  0  0  0  0  0  0
   -1.1484    1.5828    0.0692 C   0  0  0  0  0  0  0  0  0  0  0  0
   -0.0139    0.7495    0.5358 C   0  0  0  0  0  0  0  0  0  0  0  0
    0.8898    0.1654   -0.5283 C   0  0  0  0  0  0  0  0  0  0  0  0
    2.2820   -0.2275   -0.2227 C   0  0  0  0  0  0  0  0  0  0  0  0
    2.4750   -0.5520    1.1118 O   0  0  0  0  0  0  0  0  0  0  0  0
    0.5992    0.5054   -1.8263 O   0  0  0  0  0  0  0  0  0  0  0  0
   -0.1419   -0.4553   -1.1577 C   0  0  0  0  0  0  0  0  0  0  0  0
   -2.2645   -1.6916   -0.0933 H   0  0  0  0  0  0  0  0  0  0  0  0
   -1.9776   -0.8891    1.5503 H   0  0  0  0  0  0  0  0  0  0  0  0
   -3.1673   -0.2332    0.3639 H   0  0  0  0  0  0  0  0  0  0  0  0
   -1.8191    1.9518    0.8552 H   0  0  0  0  0  0  0  0  0  0  0  0
   -0.9705    2.3079   -0.7535 H   0  0  0  0  0  0  0  0  0  0  0  0
    0.1624    0.5625    1.5905 H   0  0  0  0  0  0  0  0  0  0  0  0
    2.9722    0.6268   -0.4833 H   0  0  0  0  0  0  0  0  0  0  0  0
    2.5711   -1.0854   -0.8621 H   0  0  0  0  0  0  0  0  0  0  0  0
    3.1670   -1.2733    1.1405 H   0  0  0  0  0  0  0  0  0  0  0  0
   -0.2925   -1.4535   -1.5629 H   0  0  0  0  0  0  0  0  0  0  0  0
  1  2  1  0
  2  3  1  0
  3  4  1  0
  4  5  1  0
  5  6  1  0
  6  7  1  0
  5  8  1  0
  8  9  1  0
  4  2  1  0
  9  5  1  0
  9  2  1  0
  1 10  1  0
  1 11  1  0
  1 12  1  0
  3 13  1  0
  3 14  1  0
  4 15  1  0
  6 16  1  0
  6 17  1  0
  7 18  1  0
  9 19  1  0
M  END
