
     RDKit          3D

 19 20  0  0  0  0  0  0  0  0999 V2000
   -1.3307   -1.3647   -0.4516 C   0  0  0  0  0  0  0  0  0  0  0  0
   -0.3411   -0.5467    0.2761 C   0  0  0  0  0  0  0  0  0  0  0  0
    0.8822   -1.2088    0.8228 C   0  0  0  0  0  0  0  0  0  0  0  0
    1.7555   -0.5723   -0.2017 C   0  0  0  0  0  0  0  0  0  0  0  0
    2.9196   -0.6069   -0.5535 O   0  0  0  0  0  0  0  0  0  0  0  0
    0.5832    0.1846   -0.6767 C   0  0  0  0  0  0  0  0  0  0  0  0
    0.5200    1.5978   -0.1397 C   0  0  0  0  0  0  0  0  0  0  0  0
   -0.8791    1.6020    0.4872 C   0  0  0  0  0  0  0  0  0  0  0  0
   -0.8962    0.3729    1.1169 O   0  0  0  0  0  0  0  0  0  0  0  0
   -2.2397   -1.5791    0.1547 H   0  0  0  0  0  0  0  0  0  0  0  0
   -0.9621   -2.2956   -0.8950 H   0  0  0  0  0  0  0  0  0  0  0  0
   -1.7124   -0.7467   -1.3181 H   0  0  0  0  0  0  0  0  0  0  0  0
    0.9192   -2.2948    0.8303 H   0  0  0  0  0  0  0  0  0  0  0  0
    1.1572   -0.7974    1.8295 H   0  0  0  0  0  0  0  0  0  0  0  0
    0.3300    0.0830   -1.7357 H   0  0  0  0  0  0  0  0  0  0  0  0
    0.5867    2.2961   -0.9836 H   0  0  0  0  0  0  0  0  0  0  0  0
    1.3043    1.7832    0.6238 H   0  0  0  0  0  0  0  0  0  0  0  0
   -1.0116    2.4419    1.1629 H   0  0  0  0  0  0  0  0  0  0  0  0
   -1.5851    1.6514   -0.3484 H   0  0  0  0  0  0  0  0  0  0  0  0
  1  2  1  0
  2  3  1  0
  3  4  1  0
  4  5  2  0
  4  6  1  0
  6  7  1  0
  7  8  1  0
  8  9  1  0
  6  2  1  0
  9  2  1  0
  1 10  1  0
  1 11  1  0
  1 12  1  0
  3 13  1  0
  3 14  1  0
  6 15  1  0
  7 16  1  0
  7 17  1  0
  8 18  1  0
  8 19  1  0
M  END
