
     RDKit          3D

 14 15  0  0  0  0  0  0  0  0999 V2000
   -1.8254   -0.2081   -0.2161 C   0  0  0  0  0  0  0  0  0  0  0  0
   -0.5164   -0.0488    0.4650 C   0  0  0  0  0  0  0  0  0  0  0  0
   -0.2818    1.0051    1.3341 O   0  0  0  0  0  0  0  0  0  0  0  0
    0.2697    1.1803    0.0879 C   0  0  0  0  0  0  0  0  0  0  0  0
    1.6086    0.7166   -0.2580 C   0  0  0  0  0  0  0  0  0  0  0  0
    1.7080   -0.5783   -0.0335 C   0  0  0  0  0  0  0  0  0  0  0  0
    0.4772   -1.1509    0.4831 C   0  0  0  0  0  0  0  0  0  0  0  0
    0.2768   -2.3476    0.8740 O   0  0  0  0  0  0  0  0  0  0  0  0
   -2.1577    0.7724   -0.6659 H   0  0  0  0  0  0  0  0  0  0  0  0
   -2.6508   -0.5570    0.4368 H   0  0  0  0  0  0  0  0  0  0  0  0
   -1.7285   -0.8974   -1.0747 H   0  0  0  0  0  0  0  0  0  0  0  0
   -0.1805    1.9348   -0.5821 H   0  0  0  0  0  0  0  0  0  0  0  0
    2.3955    1.3576   -0.6428 H   0  0  0  0  0  0  0  0  0  0  0  0
    2.6052   -1.1787   -0.2078 H   0  0  0  0  0  0  0  0  0  0  0  0
  1  2  1  0
  2  3  1  0
  3  4  1  0
  4  5  1  0
  5  6  2  0
  6  7  1  0
  7  8  2  0
  4  2  1  0
  7  2  1  0
  1  9  1  0
  1 10  1  0
  1 11  1  0
  4 12  1  0
  5 13  1  0
  6 14  1  0
M  END
