
     RDKit          3D

 15 17  0  0  0  0  0  0  0  0999 V2000
   -2.1289    0.3273   -0.3598 C   0  0  0  0  0  0  0  0  0  0  0  0
   -0.8329   -0.3943   -0.5227 C   0  0  0  0  0  0  0  0  0  0  0  0
   -0.7497   -1.7576   -0.5514 O   0  0  0  0  0  0  0  0  0  0  0  0
   -0.0336   -1.0244    0.3938 C   0  0  0  0  0  0  0  0  0  0  0  0
    1.0903   -0.1510    0.0123 C   0  0  0  0  0  0  0  0  0  0  0  0
    2.2732    0.1838    0.5550 C   0  0  0  0  0  0  0  0  0  0  0  0
    1.2098    0.9704    0.9885 O   0  0  0  0  0  0  0  0  0  0  0  0
    0.3331    0.3003   -1.1437 C   0  0  0  0  0  0  0  0  0  0  0  0
    0.4710    0.9319   -2.1666 O   0  0  0  0  0  0  0  0  0  0  0  0
   -2.0350    0.9729    0.5551 H   0  0  0  0  0  0  0  0  0  0  0  0
   -2.9547   -0.3805   -0.2546 H   0  0  0  0  0  0  0  0  0  0  0  0
   -2.2482    1.0282   -1.2271 H   0  0  0  0  0  0  0  0  0  0  0  0
   -0.1985   -1.3855    1.4201 H   0  0  0  0  0  0  0  0  0  0  0  0
    3.0425    0.7637   -0.0377 H   0  0  0  0  0  0  0  0  0  0  0  0
    2.7617   -0.3851    1.3684 H   0  0  0  0  0  0  0  0  0  0  0  0
  1  2  1  0
  2  3  1  0
  3  4  1  0
  4  5  1  0
  5  6  1  0
  6  7  1  0
  5  8  1  0
  8  9  2  0
  4  2  1  0
  7  5  1  0
  8  2  1  0
  1 10  1  0
  1 11  1  0
  1 12  1  0
  4 13  1  0
  6 14  1  0
  6 15  1  0
M  END
