
     RDKit          3D

 21 23  0  0  0  0  0  0  0  0999 V2000
    2.6963    0.6120   -0.2754 C   0  0  0  0  0  0  0  0  0  0  0  0
    1.6201   -0.1847    0.3573 C   0  0  0  0  0  0  0  0  0  0  0  0
    0.4061    0.4564    0.9628 C   0  0  0  0  0  0  0  0  0  0  0  0
   -0.4287   -0.2816   -0.0320 C   0  0  0  0  0  0  0  0  0  0  0  0
   -1.6466   -0.9641    0.4394 C   0  0  0  0  0  0  0  0  0  0  0  0
   -2.4568    0.1954   -0.1555 C   0  0  0  0  0  0  0  0  0  0  0  0
   -1.2155    0.5009   -1.0037 C   0  0  0  0  0  0  0  0  0  0  0  0
    0.7213   -1.0749   -0.5088 C   0  0  0  0  0  0  0  0  0  0  0  0
    1.6521   -1.5445    0.3763 O   0  0  0  0  0  0  0  0  0  0  0  0
    2.9466    0.1452   -1.2595 H   0  0  0  0  0  0  0  0  0  0  0  0
    3.6050    0.5523    0.3663 H   0  0  0  0  0  0  0  0  0  0  0  0
    2.4115    1.6521   -0.4694 H   0  0  0  0  0  0  0  0  0  0  0  0
    0.2236    0.0429    1.9898 H   0  0  0  0  0  0  0  0  0  0  0  0
    0.3584    1.5528    0.9421 H   0  0  0  0  0  0  0  0  0  0  0  0
   -1.7548   -1.0523    1.5490 H   0  0  0  0  0  0  0  0  0  0  0  0
   -1.8022   -1.9313   -0.0943 H   0  0  0  0  0  0  0  0  0  0  0  0
   -3.3256   -0.1500   -0.7147 H   0  0  0  0  0  0  0  0  0  0  0  0
   -2.6216    0.9471    0.6382 H   0  0  0  0  0  0  0  0  0  0  0  0
   -0.9436    1.5695   -1.0386 H   0  0  0  0  0  0  0  0  0  0  0  0
   -1.3342    0.0555   -2.0259 H   0  0  0  0  0  0  0  0  0  0  0  0
    0.8887   -1.0986   -1.5934 H   0  0  0  0  0  0  0  0  0  0  0  0
  1  2  1  0
  2  3  1  0
  3  4  1  0
  4  5  1  0
  5  6  1  0
  6  7  1  0
  4  8  1  0
  8  9  1  0
  8  2  1  0
  9  2  1  0
  7  4  1  0
  1 10  1  0
  1 11  1  0
  1 12  1  0
  3 13  1  0
  3 14  1  0
  5 15  1  0
  5 16  1  0
  6 17  1  0
  6 18  1  0
  7 19  1  0
  7 20  1  0
  8 21  1  0
M  END
