
     RDKit          3D

 19 20  0  0  0  0  0  0  0  0999 V2000
    1.8330    0.4929    0.5277 C   0  0  0  0  0  0  0  0  0  0  0  0
    0.6395    0.0504   -0.2395 C   0  0  0  0  0  0  0  0  0  0  0  0
    0.0476    1.1908   -1.0352 C   0  0  0  0  0  0  0  0  0  0  0  0
   -1.3290    1.0440   -0.9567 O   0  0  0  0  0  0  0  0  0  0  0  0
   -1.5951    0.5278    0.3169 C   0  0  0  0  0  0  0  0  0  0  0  0
   -0.5168   -0.4990    0.4919 C   0  0  0  0  0  0  0  0  0  0  0  0
   -0.3356   -1.0219    1.7377 O   0  0  0  0  0  0  0  0  0  0  0  0
   -0.4826   -1.4784   -0.6374 C   0  0  0  0  0  0  0  0  0  0  0  0
    0.8371   -1.1154   -0.9429 O   0  0  0  0  0  0  0  0  0  0  0  0
    1.5992    1.2461    1.3114 H   0  0  0  0  0  0  0  0  0  0  0  0
    2.5097    1.0363   -0.1943 H   0  0  0  0  0  0  0  0  0  0  0  0
    2.4478   -0.3325    0.9397 H   0  0  0  0  0  0  0  0  0  0  0  0
    0.3732    2.1598   -0.5952 H   0  0  0  0  0  0  0  0  0  0  0  0
    0.4396    1.1140   -2.0668 H   0  0  0  0  0  0  0  0  0  0  0  0
   -1.5765    1.3252    1.0720 H   0  0  0  0  0  0  0  0  0  0  0  0
   -2.6049    0.0458    0.2788 H   0  0  0  0  0  0  0  0  0  0  0  0
   -0.5960   -1.9855    1.8233 H   0  0  0  0  0  0  0  0  0  0  0  0
   -0.5468   -2.5372   -0.3301 H   0  0  0  0  0  0  0  0  0  0  0  0
   -1.1433   -1.2635   -1.5012 H   0  0  0  0  0  0  0  0  0  0  0  0
  1  2  1  0
  2  3  1  0
  3  4  1  0
  4  5  1  0
  5  6  1  0
  6  7  1  0
  6  8  1  0
  8  9  1  0
  6  2  1  0
  9  2  1  0
  1 10  1  0
  1 11  1  0
  1 12  1  0
  3 13  1  0
  3 14  1  0
  5 15  1  0
  5 16  1  0
  7 17  1  0
  8 18  1  0
  8 19  1  0
M  END
