
     RDKit          3D

 18 19  0  0  0  0  0  0  0  0999 V2000
   -2.0650    0.4176   -0.2281 C   0  0  0  0  0  0  0  0  0  0  0  0
   -0.8175   -0.3610   -0.5042 C   0  0  0  0  0  0  0  0  0  0  0  0
    0.3499    0.2822   -1.1775 C   0  0  0  0  0  0  0  0  0  0  0  0
    1.4835    0.1962   -0.2127 C   0  0  0  0  0  0  0  0  0  0  0  0
    1.8848    1.4522    0.2358 O   0  0  0  0  0  0  0  0  0  0  0  0
    1.0594   -0.6918    0.9159 C   0  0  0  0  0  0  0  0  0  0  0  0
   -0.3166   -1.1467    0.6670 C   0  0  0  0  0  0  0  0  0  0  0  0
   -0.7733   -1.7235   -0.4738 O   0  0  0  0  0  0  0  0  0  0  0  0
   -2.9367    0.1137   -0.8124 H   0  0  0  0  0  0  0  0  0  0  0  0
   -1.7991    1.5032   -0.3991 H   0  0  0  0  0  0  0  0  0  0  0  0
   -2.3626    0.3920    0.8612 H   0  0  0  0  0  0  0  0  0  0  0  0
    0.6227   -0.3696   -2.0598 H   0  0  0  0  0  0  0  0  0  0  0  0
    0.1573    1.2825   -1.5837 H   0  0  0  0  0  0  0  0  0  0  0  0
    2.4042   -0.2680   -0.6671 H   0  0  0  0  0  0  0  0  0  0  0  0
    1.2609    1.7911    0.9464 H   0  0  0  0  0  0  0  0  0  0  0  0
    1.7532   -1.5327    1.0828 H   0  0  0  0  0  0  0  0  0  0  0  0
    1.0547   -0.0613    1.8524 H   0  0  0  0  0  0  0  0  0  0  0  0
   -0.9597   -1.2762    1.5571 H   0  0  0  0  0  0  0  0  0  0  0  0
  1  2  1  0
  2  3  1  0
  3  4  1  0
  4  5  1  0
  4  6  1  0
  6  7  1  0
  7  8  1  0
  7  2  1  0
  8  2  1  0
  1  9  1  0
  1 10  1  0
  1 11  1  0
  3 12  1  0
  3 13  1  0
  4 14  1  0
  5 15  1  0
  6 16  1  0
  6 17  1  0
  7 18  1  0
M  END
