
     RDKit          3D

 21 22  0  0  0  0  0  0  0  0999 V2000
   -1.9046    0.6496    0.6393 C   0  0  0  0  0  0  0  0  0  0  0  0
   -0.8631   -0.0579    0.0622 C   0  0  0  0  0  0  0  0  0  0  0  0
   -0.0373   -1.1140    0.6789 C   0  0  0  0  0  0  0  0  0  0  0  0
    0.4323   -1.1146   -0.7191 C   0  0  0  0  0  0  0  0  0  0  0  0
   -1.0682   -1.0962   -1.0514 C   0  0  0  0  0  0  0  0  0  0  0  0
    0.2738    0.3768   -0.7373 C   0  0  0  0  0  0  0  0  0  0  0  0
    1.3683    1.2231   -0.2389 C   0  0  0  0  0  0  0  0  0  0  0  0
    2.1789    0.7020    0.8748 C   0  0  0  0  0  0  0  0  0  0  0  0
    3.0445   -0.1420    0.6156 O   0  0  0  0  0  0  0  0  0  0  0  0
   -2.7599   -0.0310    0.9288 H   0  0  0  0  0  0  0  0  0  0  0  0
   -2.3615    1.3921   -0.0524 H   0  0  0  0  0  0  0  0  0  0  0  0
   -1.6011    1.1450    1.5966 H   0  0  0  0  0  0  0  0  0  0  0  0
    0.6110   -0.9102    1.5167 H   0  0  0  0  0  0  0  0  0  0  0  0
   -0.7315   -2.0170    0.8811 H   0  0  0  0  0  0  0  0  0  0  0  0
    1.1111   -1.6704   -1.1893 H   0  0  0  0  0  0  0  0  0  0  0  0
   -1.6360   -1.9568   -0.7078 H   0  0  0  0  0  0  0  0  0  0  0  0
   -1.2103   -0.6988   -2.0526 H   0  0  0  0  0  0  0  0  0  0  0  0
   -0.0328    0.6509   -1.8113 H   0  0  0  0  0  0  0  0  0  0  0  0
    1.0528    2.2809   -0.0342 H   0  0  0  0  0  0  0  0  0  0  0  0
    2.1003    1.3460   -1.1014 H   0  0  0  0  0  0  0  0  0  0  0  0
    2.0334    1.0425    1.9017 H   0  0  0  0  0  0  0  0  0  0  0  0
  1  2  1  0
  2  3  1  0
  3  4  1  0
  4  5  1  0
  4  6  1  0
  6  7  1  0
  7  8  1  0
  8  9  2  0
  5  2  1  0
  6  2  1  0
  1 10  1  0
  1 11  1  0
  1 12  1  0
  3 13  1  0
  3 14  1  0
  4 15  1  0
  5 16  1  0
  5 17  1  0
  6 18  1  0
  7 19  1  0
  7 20  1  0
  8 21  1  0
M  END
