
     RDKit          3D

 21 23  0  0  0  0  0  0  0  0999 V2000
   -1.7247   -0.6323    1.0357 C   0  0  0  0  0  0  0  0  0  0  0  0
   -1.0412   -0.0789   -0.2233 C   0  0  0  0  0  0  0  0  0  0  0  0
   -1.8987    0.8770   -0.9826 C   0  0  0  0  0  0  0  0  0  0  0  0
   -0.8848    1.8012   -1.1433 O   0  0  0  0  0  0  0  0  0  0  0  0
   -0.2757    1.2628   -0.0174 C   0  0  0  0  0  0  0  0  0  0  0  0
    0.3973   -0.0156   -0.1726 C   0  0  0  0  0  0  0  0  0  0  0  0
    1.3691   -0.3816   -1.1983 C   0  0  0  0  0  0  0  0  0  0  0  0
    2.4318   -0.4136   -0.0894 C   0  0  0  0  0  0  0  0  0  0  0  0
    1.2667   -0.5133    0.9064 C   0  0  0  0  0  0  0  0  0  0  0  0
   -1.2812   -0.1437    1.9203 H   0  0  0  0  0  0  0  0  0  0  0  0
   -1.5322   -1.7343    1.0059 H   0  0  0  0  0  0  0  0  0  0  0  0
   -2.8127   -0.5086    0.9908 H   0  0  0  0  0  0  0  0  0  0  0  0
   -2.7208    1.3540   -0.3718 H   0  0  0  0  0  0  0  0  0  0  0  0
   -2.3679    0.4966   -1.9140 H   0  0  0  0  0  0  0  0  0  0  0  0
   -0.3648    1.7403    0.9547 H   0  0  0  0  0  0  0  0  0  0  0  0
    1.3105   -1.4074   -1.6405 H   0  0  0  0  0  0  0  0  0  0  0  0
    1.6335    0.3348   -1.9905 H   0  0  0  0  0  0  0  0  0  0  0  0
    3.0312   -1.3191   -0.0500 H   0  0  0  0  0  0  0  0  0  0  0  0
    2.9559    0.5590   -0.0491 H   0  0  0  0  0  0  0  0  0  0  0  0
    1.1000   -1.5197    1.3052 H   0  0  0  0  0  0  0  0  0  0  0  0
    1.4088    0.2423    1.7237 H   0  0  0  0  0  0  0  0  0  0  0  0
  1  2  1  0
  2  3  1  0
  3  4  1  0
  4  5  1  0
  5  6  1  0
  6  7  1  0
  7  8  1  0
  8  9  1  0
  5  2  1  0
  9  6  1  0
  6  2  1  0
  1 10  1  0
  1 11  1  0
  1 12  1  0
  3 13  1  0
  3 14  1  0
  5 15  1  0
  7 16  1  0
  7 17  1  0
  8 18  1  0
  8 19  1  0
  9 20  1  0
  9 21  1  0
M  END
