
     RDKit          3D

 14 15  0  0  0  0  0  0  0  0999 V2000
   -1.2425   -0.9066    0.4213 C   0  0  0  0  0  0  0  0  0  0  0  0
   -0.3073    0.2217    0.1192 C   0  0  0  0  0  0  0  0  0  0  0  0
   -0.8327    1.5131   -0.3679 C   0  0  0  0  0  0  0  0  0  0  0  0
   -1.7086    2.2843    0.0587 O   0  0  0  0  0  0  0  0  0  0  0  0
    0.0527    1.4321   -1.4253 O   0  0  0  0  0  0  0  0  0  0  0  0
    0.6183    0.1960   -1.0255 C   0  0  0  0  0  0  0  0  0  0  0  0
    1.1388    0.1522    0.3717 C   0  0  0  0  0  0  0  0  0  0  0  0
    1.7805   -0.9815    0.7983 O   0  0  0  0  0  0  0  0  0  0  0  0
   -1.3540   -1.0291    1.5113 H   0  0  0  0  0  0  0  0  0  0  0  0
   -0.9921   -1.8453   -0.0872 H   0  0  0  0  0  0  0  0  0  0  0  0
   -2.2535   -0.6030    0.0383 H   0  0  0  0  0  0  0  0  0  0  0  0
    0.7274   -0.6277   -1.7202 H   0  0  0  0  0  0  0  0  0  0  0  0
    1.6155    1.1038    0.7042 H   0  0  0  0  0  0  0  0  0  0  0  0
    2.7574   -0.9100    0.6032 H   0  0  0  0  0  0  0  0  0  0  0  0
  1  2  1  0
  2  3  1  0
  3  4  2  0
  3  5  1  0
  5  6  1  0
  6  7  1  0
  7  8  1  0
  6  2  1  0
  7  2  1  0
  1  9  1  0
  1 10  1  0
  1 11  1  0
  6 12  1  0
  7 13  1  0
  8 14  1  0
M  END
