
     RDKit          3D

 19 20  0  0  0  0  0  0  0  0999 V2000
    0.4386    1.6412    0.5929 C   0  0  0  0  0  0  0  0  0  0  0  0
    0.6083    0.1654    0.4548 C   0  0  0  0  0  0  0  0  0  0  0  0
   -0.5734   -0.7586    0.4551 C   0  0  0  0  0  0  0  0  0  0  0  0
   -1.9207   -0.0873    0.5282 C   0  0  0  0  0  0  0  0  0  0  0  0
   -2.9261   -0.9553    0.1033 O   0  0  0  0  0  0  0  0  0  0  0  0
   -0.2417   -1.1675   -0.8234 O   0  0  0  0  0  0  0  0  0  0  0  0
    0.8615   -0.3601   -0.9092 C   0  0  0  0  0  0  0  0  0  0  0  0
    1.9310   -0.3698    0.1389 C   0  0  0  0  0  0  0  0  0  0  0  0
    2.2942   -1.6738    0.5447 O   0  0  0  0  0  0  0  0  0  0  0  0
    0.4112    2.1285   -0.4225 H   0  0  0  0  0  0  0  0  0  0  0  0
    1.3041    2.0509    1.1449 H   0  0  0  0  0  0  0  0  0  0  0  0
   -0.4685    1.9540    1.1180 H   0  0  0  0  0  0  0  0  0  0  0  0
   -0.5129   -1.5868    1.1765 H   0  0  0  0  0  0  0  0  0  0  0  0
   -2.1504    0.1324    1.6106 H   0  0  0  0  0  0  0  0  0  0  0  0
   -1.9943    0.8394   -0.0365 H   0  0  0  0  0  0  0  0  0  0  0  0
   -3.5215   -0.5200   -0.5541 H   0  0  0  0  0  0  0  0  0  0  0  0
    0.9530    0.3217   -1.7761 H   0  0  0  0  0  0  0  0  0  0  0  0
    2.7742    0.3205   -0.0743 H   0  0  0  0  0  0  0  0  0  0  0  0
    2.7333   -2.0746   -0.2443 H   0  0  0  0  0  0  0  0  0  0  0  0
  1  2  1  0
  2  3  1  0
  3  4  1  0
  4  5  1  0
  3  6  1  0
  6  7  1  0
  7  8  1  0
  8  9  1  0
  7  2  1  0
  8  2  1  0
  1 10  1  0
  1 11  1  0
  1 12  1  0
  3 13  1  0
  4 14  1  0
  4 15  1  0
  5 16  1  0
  7 17  1  0
  8 18  1  0
  9 19  1  0
M  END
