
     RDKit          3D

 21 22  0  0  0  0  0  0  0  0999 V2000
    2.1427   -0.5983   -0.6498 C   0  0  0  0  0  0  0  0  0  0  0  0
    0.8172   -0.4021    0.0592 C   0  0  0  0  0  0  0  0  0  0  0  0
    0.5164    0.9749    0.5275 C   0  0  0  0  0  0  0  0  0  0  0  0
   -0.8804    1.3300    0.0701 C   0  0  0  0  0  0  0  0  0  0  0  0
   -1.5144    2.0255    1.1020 O   0  0  0  0  0  0  0  0  0  0  0  0
   -1.5350   -0.0021   -0.1261 C   0  0  0  0  0  0  0  0  0  0  0  0
   -2.5795    0.0101   -1.0193 O   0  0  0  0  0  0  0  0  0  0  0  0
   -0.4341   -0.9606   -0.4884 C   0  0  0  0  0  0  0  0  0  0  0  0
    0.2452   -1.6069    0.6843 C   0  0  0  0  0  0  0  0  0  0  0  0
    2.0256   -1.1649   -1.5847 H   0  0  0  0  0  0  0  0  0  0  0  0
    2.7513   -1.2602    0.0288 H   0  0  0  0  0  0  0  0  0  0  0  0
    2.6824    0.3440   -0.7388 H   0  0  0  0  0  0  0  0  0  0  0  0
    0.6265    1.1361    1.6079 H   0  0  0  0  0  0  0  0  0  0  0  0
    1.2069    1.6962    0.0232 H   0  0  0  0  0  0  0  0  0  0  0  0
   -0.9021    1.9509   -0.8326 H   0  0  0  0  0  0  0  0  0  0  0  0
   -0.8715    2.4614    1.6960 H   0  0  0  0  0  0  0  0  0  0  0  0
   -1.9675   -0.2970    0.8721 H   0  0  0  0  0  0  0  0  0  0  0  0
   -2.3217   -0.0202   -1.9630 H   0  0  0  0  0  0  0  0  0  0  0  0
   -0.4900   -1.4684   -1.4624 H   0  0  0  0  0  0  0  0  0  0  0  0
   -0.2528   -1.5718    1.6904 H   0  0  0  0  0  0  0  0  0  0  0  0
    0.7348   -2.5765    0.5036 H   0  0  0  0  0  0  0  0  0  0  0  0
  1  2  1  0
  2  3  1  0
  3  4  1  0
  4  5  1  0
  4  6  1  0
  6  7  1  0
  6  8  1  0
  8  9  1  0
  8  2  1  0
  9  2  1  0
  1 10  1  0
  1 11  1  0
  1 12  1  0
  3 13  1  0
  3 14  1  0
  4 15  1  0
  5 16  1  0
  6 17  1  0
  7 18  1  0
  8 19  1  0
  9 20  1  0
  9 21  1  0
M  END
