
     RDKit          3D

 21 23  0  0  0  0  0  0  0  0999 V2000
   -2.3846    0.8046   -0.0220 C   0  0  0  0  0  0  0  0  0  0  0  0
   -1.2388   -0.1607   -0.0232 C   0  0  0  0  0  0  0  0  0  0  0  0
   -0.6558   -0.6218   -1.3428 C   0  0  0  0  0  0  0  0  0  0  0  0
    0.4546    0.2017   -1.5428 O   0  0  0  0  0  0  0  0  0  0  0  0
    1.0580    0.2326   -0.2976 C   0  0  0  0  0  0  0  0  0  0  0  0
    2.1937   -0.6468    0.0150 C   0  0  0  0  0  0  0  0  0  0  0  0
    2.3898    0.8123   -0.0744 C   0  0  0  0  0  0  0  0  0  0  0  0
   -0.0134    0.3643    0.7350 C   0  0  0  0  0  0  0  0  0  0  0  0
   -0.7664   -0.8297    1.2036 C   0  0  0  0  0  0  0  0  0  0  0  0
   -2.1512    1.6830   -0.6588 H   0  0  0  0  0  0  0  0  0  0  0  0
   -3.2884    0.2590   -0.3441 H   0  0  0  0  0  0  0  0  0  0  0  0
   -2.5199    1.1417    1.0429 H   0  0  0  0  0  0  0  0  0  0  0  0
   -1.4018   -0.5326   -2.1563 H   0  0  0  0  0  0  0  0  0  0  0  0
   -0.3324   -1.6838   -1.3079 H   0  0  0  0  0  0  0  0  0  0  0  0
    2.5599   -1.2847   -0.8068 H   0  0  0  0  0  0  0  0  0  0  0  0
    2.3166   -1.0868    1.0297 H   0  0  0  0  0  0  0  0  0  0  0  0
    3.0400    1.1827   -0.8783 H   0  0  0  0  0  0  0  0  0  0  0  0
    2.4839    1.4256    0.8685 H   0  0  0  0  0  0  0  0  0  0  0  0
   -0.1141    1.2627    1.3498 H   0  0  0  0  0  0  0  0  0  0  0  0
   -0.2334   -1.7873    1.1211 H   0  0  0  0  0  0  0  0  0  0  0  0
   -1.3961   -0.7361    2.0894 H   0  0  0  0  0  0  0  0  0  0  0  0
  1  2  1  0
  2  3  1  0
  3  4  1  0
  4  5  1  0
  5  6  1  0
  6  7  1  0
  5  8  1  0
  8  9  1  0
  8  2  1  0
  9  2  1  0
  7  5  1  0
  1 10  1  0
  1 11  1  0
  1 12  1  0
  3 13  1  0
  3 14  1  0
  6 15  1  0
  6 16  1  0
  7 17  1  0
  7 18  1  0
  8 19  1  0
  9 20  1  0
  9 21  1  0
M  END
