
     RDKit          3D

 21 22  0  0  0  0  0  0  0  0999 V2000
   -1.9822    1.2039    0.3936 C   0  0  0  0  0  0  0  0  0  0  0  0
   -0.7553    0.3614    0.0766 C   0  0  0  0  0  0  0  0  0  0  0  0
    0.5050    1.1541   -0.0538 C   0  0  0  0  0  0  0  0  0  0  0  0
    1.6999    0.3298   -0.4114 C   0  0  0  0  0  0  0  0  0  0  0  0
    1.7628   -0.9092    0.4471 C   0  0  0  0  0  0  0  0  0  0  0  0
    0.7572   -1.0224    1.3551 O   0  0  0  0  0  0  0  0  0  0  0  0
   -0.5139   -0.8616    0.8804 C   0  0  0  0  0  0  0  0  0  0  0  0
   -0.9073   -0.9861   -0.5216 C   0  0  0  0  0  0  0  0  0  0  0  0
   -0.0508   -1.4604   -1.4944 O   0  0  0  0  0  0  0  0  0  0  0  0
   -2.6300    0.6198    1.0563 H   0  0  0  0  0  0  0  0  0  0  0  0
   -2.5394    1.4106   -0.5388 H   0  0  0  0  0  0  0  0  0  0  0  0
   -1.6745    2.1074    0.9363 H   0  0  0  0  0  0  0  0  0  0  0  0
    0.7110    1.6061    0.9567 H   0  0  0  0  0  0  0  0  0  0  0  0
    0.4386    1.9975   -0.7546 H   0  0  0  0  0  0  0  0  0  0  0  0
    1.7616    0.0916   -1.4993 H   0  0  0  0  0  0  0  0  0  0  0  0
    2.6062    0.9757   -0.2167 H   0  0  0  0  0  0  0  0  0  0  0  0
    1.8788   -1.8094   -0.2231 H   0  0  0  0  0  0  0  0  0  0  0  0
    2.7314   -0.8964    1.0322 H   0  0  0  0  0  0  0  0  0  0  0  0
   -1.3018   -1.0758    1.6576 H   0  0  0  0  0  0  0  0  0  0  0  0
   -1.9821   -1.2720   -0.7248 H   0  0  0  0  0  0  0  0  0  0  0  0
   -0.5152   -1.5648   -2.3532 H   0  0  0  0  0  0  0  0  0  0  0  0
  1  2  1  0
  2  3  1  0
  3  4  1  0
  4  5  1  0
  5  6  1  0
  6  7  1  0
  7  8  1  0
  8  9  1  0
  7  2  1  0
  8  2  1  0
  1 10  1  0
  1 11  1  0
  1 12  1  0
  3 13  1  0
  3 14  1  0
  4 15  1  0
  4 16  1  0
  5 17  1  0
  5 18  1  0
  7 19  1  0
  8 20  1  0
  9 21  1  0
M  END
