
     RDKit          2D

 19 21  0  0  0  0  0  0  0  0999 V2000
   -1.0607    3.6213    0.0000 C   0  0  0  0  0  0  0  0  0  0  0  0
   -1.0607    2.1213    0.0000 C   0  0  0  0  0  0  0  0  0  0  0  0
   -0.8041    1.2256    0.0000 C   0  0  0  0  0  0  0  0  0  0  0  0
   -0.3102   -0.1519    0.0000 C   0  0  0  0  0  0  0  0  0  0  0  0
   -0.0000   -1.0607    0.0000 C   0  0  0  0  0  0  0  0  0  0  0  0
    1.0607    0.0000    0.0000 O   0  0  0  0  0  0  0  0  0  0  0  0
    0.0000    1.0607    0.0000 C   0  0  0  0  0  0  0  0  0  0  0  0
   -1.0607    0.0000    0.0000 C   0  0  0  0  0  0  0  0  0  0  0  0
   -2.1213    1.0607    0.0000 O   0  0  0  0  0  0  0  0  0  0  0  0
   -1.0607    5.1213    0.0000 H   0  0  0  0  0  0  0  0  0  0  0  0
    0.4393    3.6213    0.0000 H   0  0  0  0  0  0  0  0  0  0  0  0
   -2.5607    3.6213    0.0000 H   0  0  0  0  0  0  0  0  0  0  0  0
   -3.2629   -0.0512    0.0000 H   0  0  0  0  0  0  0  0  0  0  0  0
   -2.8763    1.8381    0.0000 H   0  0  0  0  0  0  0  0  0  0  0  0
   -1.5105   -2.2594    0.0000 H   0  0  0  0  0  0  0  0  0  0  0  0
   -1.6947   -0.6872    0.0000 H   0  0  0  0  0  0  0  0  0  0  0  0
   -0.0000   -2.5607    0.0000 H   0  0  0  0  0  0  0  0  0  0  0  0
    1.0607    2.1213    0.0000 H   0  0  0  0  0  0  0  0  0  0  0  0
   -1.7889   -0.3242    0.0000 H   0  0  0  0  0  0  0  0  0  0  0  0
  1  2  1  0
  2  3  1  0
  3  4  1  0
  4  5  1  0
  5  6  1  0
  6  7  1  0
  7  8  1  0
  8  9  1  0
  7  2  1  0
  9  2  1  0
  8  5  1  0
  1 10  1  0
  1 11  1  0
  1 12  1  0
  3 13  1  0
  3 14  1  0
  4 15  1  0
  4 16  1  0
  5 17  1  0
  7 18  1  0
  8 19  1  0
M  END
