
     RDKit          3D

 21 23  0  0  0  0  0  0  0  0999 V2000
   -1.6330    0.9761   -0.8201 C   0  0  0  0  0  0  0  0  0  0  0  0
   -0.8120    0.1401    0.1357 C   0  0  0  0  0  0  0  0  0  0  0  0
   -1.4962   -1.0681    0.6564 C   0  0  0  0  0  0  0  0  0  0  0  0
   -0.4052   -1.2642   -0.3470 C   0  0  0  0  0  0  0  0  0  0  0  0
    0.8777   -1.7450    0.2086 C   0  0  0  0  0  0  0  0  0  0  0  0
    1.9118   -0.8691    0.3108 C   0  0  0  0  0  0  0  0  0  0  0  0
    1.5201    0.4573   -0.1796 C   0  0  0  0  0  0  0  0  0  0  0  0
    1.3004    1.7013    0.4337 C   0  0  0  0  0  0  0  0  0  0  0  0
    0.3260    0.7435    0.8074 C   0  0  0  0  0  0  0  0  0  0  0  0
   -1.8980    0.4210   -1.7392 H   0  0  0  0  0  0  0  0  0  0  0  0
   -2.5697    1.2609   -0.3019 H   0  0  0  0  0  0  0  0  0  0  0  0
   -1.0849    1.9206   -1.0184 H   0  0  0  0  0  0  0  0  0  0  0  0
   -1.2980   -1.3160    1.7129 H   0  0  0  0  0  0  0  0  0  0  0  0
   -2.5410   -1.2700    0.3453 H   0  0  0  0  0  0  0  0  0  0  0  0
   -0.6840   -1.5291   -1.3884 H   0  0  0  0  0  0  0  0  0  0  0  0
    1.0135   -2.7919    0.5402 H   0  0  0  0  0  0  0  0  0  0  0  0
    2.8459   -1.1770    0.7027 H   0  0  0  0  0  0  0  0  0  0  0  0
    1.2440    0.3794   -1.2746 H   0  0  0  0  0  0  0  0  0  0  0  0
    0.9546    2.5644   -0.2082 H   0  0  0  0  0  0  0  0  0  0  0  0
    1.9882    2.1225    1.2187 H   0  0  0  0  0  0  0  0  0  0  0  0
    0.4397    0.3435    1.8592 H   0  0  0  0  0  0  0  0  0  0  0  0
  1  2  1  0
  2  3  1  0
  3  4  1  0
  4  5  1  0
  5  6  2  0
  6  7  1  0
  7  8  1  0
  8  9  1  0
  4  2  1  0
  9  7  1  0
  9  2  1  0
  1 10  1  0
  1 11  1  0
  1 12  1  0
  3 13  1  0
  3 14  1  0
  4 15  1  0
  5 16  1  0
  6 17  1  0
  7 18  1  0
  8 19  1  0
  8 20  1  0
  9 21  1  0
M  END
