
     RDKit          3D

 15 17  0  0  0  0  0  0  0  0999 V2000
    1.6788   -0.4368   -0.3499 C   0  0  0  0  0  0  0  0  0  0  0  0
    0.3286    0.0417   -0.0948 C   0  0  0  0  0  0  0  0  0  0  0  0
   -0.5422   -0.4501    1.0224 C   0  0  0  0  0  0  0  0  0  0  0  0
   -0.6013    0.8499    1.4982 O   0  0  0  0  0  0  0  0  0  0  0  0
   -0.0988    1.3547    0.3123 C   0  0  0  0  0  0  0  0  0  0  0  0
   -0.5834    0.6988   -1.0049 C   0  0  0  0  0  0  0  0  0  0  0  0
   -1.8605    0.0818   -0.8158 O   0  0  0  0  0  0  0  0  0  0  0  0
   -1.7878   -0.8044    0.2500 C   0  0  0  0  0  0  0  0  0  0  0  0
   -2.6201   -1.7093    0.4860 O   0  0  0  0  0  0  0  0  0  0  0  0
    2.4862   -0.0021    0.2665 H   0  0  0  0  0  0  0  0  0  0  0  0
    1.9511   -0.3563   -1.4386 H   0  0  0  0  0  0  0  0  0  0  0  0
    1.7166   -1.5451   -0.1419 H   0  0  0  0  0  0  0  0  0  0  0  0
   -0.1586   -1.2205    1.6769 H   0  0  0  0  0  0  0  0  0  0  0  0
    0.4478    2.2861    0.2577 H   0  0  0  0  0  0  0  0  0  0  0  0
   -0.3565    1.2115   -1.9243 H   0  0  0  0  0  0  0  0  0  0  0  0
  1  2  1  0
  2  3  1  0
  3  4  1  0
  4  5  1  0
  5  6  1  0
  6  7  1  0
  7  8  1  0
  8  9  2  0
  5  2  1  0
  6  2  1  0
  8  3  1  0
  1 10  1  0
  1 11  1  0
  1 12  1  0
  3 13  1  0
  5 14  1  0
  6 15  1  0
M  END
