
     RDKit          3D

 17 18  0  0  0  0  0  0  0  0999 V2000
    2.4518   -0.1189    0.2247 C   0  0  0  0  0  0  0  0  0  0  0  0
    1.0824    0.0244    0.2267 C   0  0  0  0  0  0  0  0  0  0  0  0
    0.0620   -0.9810   -0.2089 C   0  0  0  0  0  0  0  0  0  0  0  0
   -0.6612    0.2348    0.3217 C   0  0  0  0  0  0  0  0  0  0  0  0
   -2.0304    0.3679    0.4373 C   0  0  0  0  0  0  0  0  0  0  0  0
   -2.6621    0.3483   -0.8156 O   0  0  0  0  0  0  0  0  0  0  0  0
    0.2708    0.2134    1.3479 O   0  0  0  0  0  0  0  0  0  0  0  0
    0.2735    1.0506   -0.4130 C   0  0  0  0  0  0  0  0  0  0  0  0
    0.4497    1.9875   -1.1282 O   0  0  0  0  0  0  0  0  0  0  0  0
    2.8129   -1.1861    0.1481 H   0  0  0  0  0  0  0  0  0  0  0  0
    2.9757    0.2799    1.1298 H   0  0  0  0  0  0  0  0  0  0  0  0
    2.9664    0.3981   -0.6390 H   0  0  0  0  0  0  0  0  0  0  0  0
   -0.0237   -1.1764   -1.2755 H   0  0  0  0  0  0  0  0  0  0  0  0
    0.0246   -1.8479    0.4786 H   0  0  0  0  0  0  0  0  0  0  0  0
   -2.5181   -0.4331    1.0288 H   0  0  0  0  0  0  0  0  0  0  0  0
   -2.3405    1.3223    0.9121 H   0  0  0  0  0  0  0  0  0  0  0  0
   -3.1340   -0.4838   -0.9872 H   0  0  0  0  0  0  0  0  0  0  0  0
  1  2  1  0
  2  3  1  0
  3  4  1  0
  4  5  1  0
  5  6  1  0
  4  7  1  0
  4  8  1  0
  8  9  2  0
  7  2  1  0
  8  2  1  0
  1 10  1  0
  1 11  1  0
  1 12  1  0
  3 13  1  0
  3 14  1  0
  5 15  1  0
  5 16  1  0
  6 17  1  0
M  END
