
     RDKit          3D

 21 23  0  0  0  0  0  0  0  0999 V2000
    1.1752    1.7694    0.6335 C   0  0  0  0  0  0  0  0  0  0  0  0
    0.2457    0.6596    0.3055 C   0  0  0  0  0  0  0  0  0  0  0  0
   -1.1648    1.1326    0.3166 C   0  0  0  0  0  0  0  0  0  0  0  0
   -2.1018    0.2788   -0.1082 C   0  0  0  0  0  0  0  0  0  0  0  0
   -1.6998   -1.1399   -0.2561 C   0  0  0  0  0  0  0  0  0  0  0  0
   -0.2483   -1.2926   -0.1888 C   0  0  0  0  0  0  0  0  0  0  0  0
    0.4438   -0.6531    0.9695 C   0  0  0  0  0  0  0  0  0  0  0  0
    1.6624   -0.8362    0.0966 C   0  0  0  0  0  0  0  0  0  0  0  0
    0.6242   -0.2406   -0.8180 C   0  0  0  0  0  0  0  0  0  0  0  0
    2.0591    1.4991    1.2140 H   0  0  0  0  0  0  0  0  0  0  0  0
    1.5126    2.2254   -0.3434 H   0  0  0  0  0  0  0  0  0  0  0  0
    0.6319    2.5507    1.2324 H   0  0  0  0  0  0  0  0  0  0  0  0
   -1.4204    2.1289    0.6556 H   0  0  0  0  0  0  0  0  0  0  0  0
   -3.1087    0.6074   -0.3340 H   0  0  0  0  0  0  0  0  0  0  0  0
   -2.0763   -1.5942   -1.1900 H   0  0  0  0  0  0  0  0  0  0  0  0
   -2.1692   -1.6843    0.6121 H   0  0  0  0  0  0  0  0  0  0  0  0
    0.1487   -2.2954   -0.4180 H   0  0  0  0  0  0  0  0  0  0  0  0
    0.3716   -0.8915    1.9404 H   0  0  0  0  0  0  0  0  0  0  0  0
    2.5409   -0.2675    0.3150 H   0  0  0  0  0  0  0  0  0  0  0  0
    1.8504   -1.9200   -0.0431 H   0  0  0  0  0  0  0  0  0  0  0  0
    0.7230   -0.0368   -1.7925 H   0  0  0  0  0  0  0  0  0  0  0  0
  1  2  1  0
  2  3  1  0
  3  4  2  0
  4  5  1  0
  5  6  1  0
  6  7  1  0
  7  8  1  0
  8  9  1  0
  7  2  1  0
  9  2  1  0
  9  6  1  0
  1 10  1  0
  1 11  1  0
  1 12  1  0
  3 13  1  0
  4 14  1  0
  5 15  1  0
  5 16  1  0
  6 17  1  0
  7 18  1  0
  8 19  1  0
  8 20  1  0
  9 21  1  0
M  END
