
     RDKit          3D

 21 22  0  0  0  0  0  0  0  0999 V2000
    2.5722    0.1035    0.4181 C   0  0  0  0  0  0  0  0  0  0  0  0
    1.2280   -0.0520    0.2618 C   0  0  0  0  0  0  0  0  0  0  0  0
    0.3580    0.3975   -0.8852 C   0  0  0  0  0  0  0  0  0  0  0  0
   -0.5966   -0.2686    0.0338 C   0  0  0  0  0  0  0  0  0  0  0  0
   -1.9537   -0.4235   -0.0976 C   0  0  0  0  0  0  0  0  0  0  0  0
   -2.6660    0.8862   -0.1839 C   0  0  0  0  0  0  0  0  0  0  0  0
   -2.6862    1.5359   -1.2095 O   0  0  0  0  0  0  0  0  0  0  0  0
    0.1161    0.4344    1.1593 C   0  0  0  0  0  0  0  0  0  0  0  0
    0.4415   -1.3426    0.1877 C   0  0  0  0  0  0  0  0  0  0  0  0
    2.9015    0.3607    1.4694 H   0  0  0  0  0  0  0  0  0  0  0  0
    3.0174    0.9446   -0.1951 H   0  0  0  0  0  0  0  0  0  0  0  0
    3.2039   -0.7784    0.1522 H   0  0  0  0  0  0  0  0  0  0  0  0
    0.6201   -0.1458   -1.8023 H   0  0  0  0  0  0  0  0  0  0  0  0
    0.2612    1.4739   -1.0390 H   0  0  0  0  0  0  0  0  0  0  0  0
   -2.4074   -0.9635    0.7779 H   0  0  0  0  0  0  0  0  0  0  0  0
   -2.2400   -1.0301   -0.9807 H   0  0  0  0  0  0  0  0  0  0  0  0
   -3.1888    1.2980    0.6705 H   0  0  0  0  0  0  0  0  0  0  0  0
   -0.0102   -0.1041    2.1106 H   0  0  0  0  0  0  0  0  0  0  0  0
   -0.0299    1.5214    1.1824 H   0  0  0  0  0  0  0  0  0  0  0  0
    0.3774   -1.9235    1.1137 H   0  0  0  0  0  0  0  0  0  0  0  0
    0.6815   -1.9239   -0.7231 H   0  0  0  0  0  0  0  0  0  0  0  0
  1  2  1  0
  2  3  1  0
  3  4  1  0
  4  5  1  0
  5  6  1  0
  6  7  2  0
  4  8  1  0
  4  9  1  0
  8  2  1  0
  9  2  1  0
  1 10  1  0
  1 11  1  0
  1 12  1  0
  3 13  1  0
  3 14  1  0
  5 15  1  0
  5 16  1  0
  6 17  1  0
  8 18  1  0
  8 19  1  0
  9 20  1  0
  9 21  1  0
M  END
