
     RDKit          3D

 21 22  0  0  0  0  0  0  0  0999 V2000
   -1.9567   -0.2501   -1.0814 C   0  0  0  0  0  0  0  0  0  0  0  0
   -0.7753   -0.2249   -0.1016 C   0  0  0  0  0  0  0  0  0  0  0  0
    0.3740   -1.0685   -0.5443 C   0  0  0  0  0  0  0  0  0  0  0  0
    1.5738   -0.9532    0.3367 C   0  0  0  0  0  0  0  0  0  0  0  0
    2.4197    0.0223   -0.2270 O   0  0  0  0  0  0  0  0  0  0  0  0
    1.7839    1.2723   -0.0649 C   0  0  0  0  0  0  0  0  0  0  0  0
    0.8448    1.2432    0.9260 O   0  0  0  0  0  0  0  0  0  0  0  0
   -0.4415    1.0413    0.5360 C   0  0  0  0  0  0  0  0  0  0  0  0
   -1.1547   -0.0834    1.3124 C   0  0  0  0  0  0  0  0  0  0  0  0
   -2.8379   -0.6757   -0.5333 H   0  0  0  0  0  0  0  0  0  0  0  0
   -2.2549    0.7900   -1.3442 H   0  0  0  0  0  0  0  0  0  0  0  0
   -1.7245   -0.7915   -1.9977 H   0  0  0  0  0  0  0  0  0  0  0  0
    0.0308   -2.1283   -0.6849 H   0  0  0  0  0  0  0  0  0  0  0  0
    0.6399   -0.7312   -1.5898 H   0  0  0  0  0  0  0  0  0  0  0  0
    1.2792   -0.6382    1.3674 H   0  0  0  0  0  0  0  0  0  0  0  0
    2.0977   -1.9141    0.4460 H   0  0  0  0  0  0  0  0  0  0  0  0
    2.6130    1.9564    0.2872 H   0  0  0  0  0  0  0  0  0  0  0  0
    1.4461    1.6891   -1.0199 H   0  0  0  0  0  0  0  0  0  0  0  0
   -1.1022    1.9126    0.2759 H   0  0  0  0  0  0  0  0  0  0  0  0
   -2.2372    0.1026    1.5692 H   0  0  0  0  0  0  0  0  0  0  0  0
   -0.6180   -0.5705    2.1323 H   0  0  0  0  0  0  0  0  0  0  0  0
  1  2  1  0
  2  3  1  0
  3  4  1  0
  4  5  1  0
  5  6  1  0
  6  7  1  0
  7  8  1  0
  8  9  1  0
  8  2  1  0
  9  2  1  0
  1 10  1  0
  1 11  1  0
  1 12  1  0
  3 13  1  0
  3 14  1  0
  4 15  1  0
  4 16  1  0
  6 17  1  0
  6 18  1  0
  8 19  1  0
  9 20  1  0
  9 21  1  0
M  END
