
     RDKit          3D

 23 24  0  0  0  0  0  0  0  0999 V2000
    2.3053   -0.2867    0.3112 C   0  0  0  0  0  0  0  0  0  0  0  0
    0.8361   -0.0502    0.0194 C   0  0  0  0  0  0  0  0  0  0  0  0
    0.3101   -1.2735   -0.6707 C   0  0  0  0  0  0  0  0  0  0  0  0
   -1.1528   -1.5108   -0.4545 C   0  0  0  0  0  0  0  0  0  0  0  0
   -1.9226   -0.2884   -0.0721 C   0  0  0  0  0  0  0  0  0  0  0  0
   -1.0804    0.7664    0.5779 C   0  0  0  0  0  0  0  0  0  0  0  0
   -0.6172    1.7121   -0.5176 C   0  0  0  0  0  0  0  0  0  0  0  0
    0.7523    1.1947   -0.8243 C   0  0  0  0  0  0  0  0  0  0  0  0
    0.0930    0.2262    1.1343 O   0  0  0  0  0  0  0  0  0  0  0  0
    2.8407   -0.0500   -0.6558 H   0  0  0  0  0  0  0  0  0  0  0  0
    2.7166    0.4250    1.0468 H   0  0  0  0  0  0  0  0  0  0  0  0
    2.5204   -1.3452    0.5444 H   0  0  0  0  0  0  0  0  0  0  0  0
    0.5982   -1.3208   -1.7532 H   0  0  0  0  0  0  0  0  0  0  0  0
    0.8470   -2.1532   -0.2056 H   0  0  0  0  0  0  0  0  0  0  0  0
   -1.3367   -2.2775    0.3455 H   0  0  0  0  0  0  0  0  0  0  0  0
   -1.5418   -1.9979   -1.3924 H   0  0  0  0  0  0  0  0  0  0  0  0
   -2.3859    0.1123   -1.0195 H   0  0  0  0  0  0  0  0  0  0  0  0
   -2.7817   -0.4902    0.5995 H   0  0  0  0  0  0  0  0  0  0  0  0
   -1.5841    1.3396    1.3605 H   0  0  0  0  0  0  0  0  0  0  0  0
   -0.6404    2.7658   -0.2134 H   0  0  0  0  0  0  0  0  0  0  0  0
   -1.2324    1.5878   -1.4441 H   0  0  0  0  0  0  0  0  0  0  0  0
    0.9334    0.9991   -1.8944 H   0  0  0  0  0  0  0  0  0  0  0  0
    1.5229    1.9153   -0.4664 H   0  0  0  0  0  0  0  0  0  0  0  0
  1  2  1  0
  2  3  1  0
  3  4  1  0
  4  5  1  0
  5  6  1  0
  6  7  1  0
  7  8  1  0
  6  9  1  0
  8  2  1  0
  9  2  1  0
  1 10  1  0
  1 11  1  0
  1 12  1  0
  3 13  1  0
  3 14  1  0
  4 15  1  0
  4 16  1  0
  5 17  1  0
  5 18  1  0
  6 19  1  0
  7 20  1  0
  7 21  1  0
  8 22  1  0
  8 23  1  0
M  END
