
     RDKit          3D

 19 21  0  0  0  0  0  0  0  0999 V2000
   -1.3061    1.0313   -0.9971 C   0  0  0  0  0  0  0  0  0  0  0  0
   -0.6846    0.0613   -0.0514 C   0  0  0  0  0  0  0  0  0  0  0  0
   -1.5744   -0.7477    0.8648 C   0  0  0  0  0  0  0  0  0  0  0  0
   -0.8176   -1.4075   -0.2129 C   0  0  0  0  0  0  0  0  0  0  0  0
    0.6601   -1.5707    0.0104 C   0  0  0  0  0  0  0  0  0  0  0  0
    1.3735   -2.5705    0.0613 O   0  0  0  0  0  0  0  0  0  0  0  0
    0.7552   -0.1128    0.1154 C   0  0  0  0  0  0  0  0  0  0  0  0
    1.8255    0.6999   -0.4000 C   0  0  0  0  0  0  0  0  0  0  0  0
    1.5760    0.5951    1.0883 C   0  0  0  0  0  0  0  0  0  0  0  0
   -0.6825    1.2505   -1.8728 H   0  0  0  0  0  0  0  0  0  0  0  0
   -2.3256    0.6538   -1.2620 H   0  0  0  0  0  0  0  0  0  0  0  0
   -1.4396    2.0116   -0.4627 H   0  0  0  0  0  0  0  0  0  0  0  0
   -2.6459   -0.5553    0.7394 H   0  0  0  0  0  0  0  0  0  0  0  0
   -1.2192   -0.8598    1.9005 H   0  0  0  0  0  0  0  0  0  0  0  0
   -1.2859   -1.8644   -1.0856 H   0  0  0  0  0  0  0  0  0  0  0  0
    1.6624    1.6810   -0.9090 H   0  0  0  0  0  0  0  0  0  0  0  0
    2.7465    0.1766   -0.7628 H   0  0  0  0  0  0  0  0  0  0  0  0
    1.1324    1.5368    1.5166 H   0  0  0  0  0  0  0  0  0  0  0  0
    2.2499   -0.0093    1.7196 H   0  0  0  0  0  0  0  0  0  0  0  0
  1  2  1  0
  2  3  1  0
  3  4  1  0
  4  5  1  0
  5  6  2  0
  5  7  1  0
  7  8  1  0
  8  9  1  0
  4  2  1  0
  9  7  1  0
  7  2  1  0
  1 10  1  0
  1 11  1  0
  1 12  1  0
  3 13  1  0
  3 14  1  0
  4 15  1  0
  8 16  1  0
  8 17  1  0
  9 18  1  0
  9 19  1  0
M  END
