
     RDKit          3D

 23 24  0  0  0  0  0  0  0  0999 V2000
   -1.6105    0.9443   -0.4033 C   0  0  0  0  0  0  0  0  0  0  0  0
   -1.0748   -0.2516    0.3826 C   0  0  0  0  0  0  0  0  0  0  0  0
   -0.1640    0.1775    1.4520 C   0  0  0  0  0  0  0  0  0  0  0  0
    0.9788    0.9280    0.7968 C   0  0  0  0  0  0  0  0  0  0  0  0
    1.4642    0.4405   -0.4927 C   0  0  0  0  0  0  0  0  0  0  0  0
    2.5555   -0.4261   -0.2679 O   0  0  0  0  0  0  0  0  0  0  0  0
    0.4778   -0.3768   -1.3369 C   0  0  0  0  0  0  0  0  0  0  0  0
   -0.1873   -1.2818   -0.4023 C   0  0  0  0  0  0  0  0  0  0  0  0
   -1.5339   -1.5221   -0.0443 C   0  0  0  0  0  0  0  0  0  0  0  0
   -2.0749    0.6051   -1.3747 H   0  0  0  0  0  0  0  0  0  0  0  0
   -2.4582    1.3295    0.1943 H   0  0  0  0  0  0  0  0  0  0  0  0
   -0.8809    1.7337   -0.5311 H   0  0  0  0  0  0  0  0  0  0  0  0
   -0.6251    0.8407    2.1915 H   0  0  0  0  0  0  0  0  0  0  0  0
    0.2705   -0.7269    1.9620 H   0  0  0  0  0  0  0  0  0  0  0  0
    1.8239    0.9022    1.5462 H   0  0  0  0  0  0  0  0  0  0  0  0
    0.7246    2.0258    0.7260 H   0  0  0  0  0  0  0  0  0  0  0  0
    1.8435    1.2992   -1.1005 H   0  0  0  0  0  0  0  0  0  0  0  0
    2.9877   -0.2288    0.5971 H   0  0  0  0  0  0  0  0  0  0  0  0
    1.1088   -0.9699   -2.0573 H   0  0  0  0  0  0  0  0  0  0  0  0
   -0.1475    0.2738   -1.9515 H   0  0  0  0  0  0  0  0  0  0  0  0
    0.5878   -1.8418    0.2074 H   0  0  0  0  0  0  0  0  0  0  0  0
   -1.7624   -2.2859    0.7479 H   0  0  0  0  0  0  0  0  0  0  0  0
   -2.3036   -1.5886   -0.8413 H   0  0  0  0  0  0  0  0  0  0  0  0
  1  2  1  0
  2  3  1  0
  3  4  1  0
  4  5  1  0
  5  6  1  0
  5  7  1  0
  7  8  1  0
  8  9  1  0
  8  2  1  0
  9  2  1  0
  1 10  1  0
  1 11  1  0
  1 12  1  0
  3 13  1  0
  3 14  1  0
  4 15  1  0
  4 16  1  0
  5 17  1  0
  6 18  1  0
  7 19  1  0
  7 20  1  0
  8 21  1  0
  9 22  1  0
  9 23  1  0
M  END
