
     RDKit          3D

 17 20  0  0  0  0  0  0  0  0999 V2000
    2.2255   -0.2949   -0.3664 C   0  0  0  0  0  0  0  0  0  0  0  0
    0.7434   -0.2643   -0.1861 C   0  0  0  0  0  0  0  0  0  0  0  0
    0.0817   -1.4025    0.3027 O   0  0  0  0  0  0  0  0  0  0  0  0
   -1.1996   -0.9881    0.5095 C   0  0  0  0  0  0  0  0  0  0  0  0
   -1.1143    0.4146    1.1230 C   0  0  0  0  0  0  0  0  0  0  0  0
   -2.1889    0.7390    0.2735 O   0  0  0  0  0  0  0  0  0  0  0  0
   -1.5521   -0.1109   -0.6613 C   0  0  0  0  0  0  0  0  0  0  0  0
   -0.1912    0.4687   -0.9828 C   0  0  0  0  0  0  0  0  0  0  0  0
    0.1677    0.8753    0.4952 C   0  0  0  0  0  0  0  0  0  0  0  0
    2.6549   -0.7687    0.5615 H   0  0  0  0  0  0  0  0  0  0  0  0
    2.5804   -0.8452   -1.2366 H   0  0  0  0  0  0  0  0  0  0  0  0
    2.6065    0.7659   -0.3242 H   0  0  0  0  0  0  0  0  0  0  0  0
   -1.9378   -1.6438    0.9083 H   0  0  0  0  0  0  0  0  0  0  0  0
   -1.2596    0.4985    2.1732 H   0  0  0  0  0  0  0  0  0  0  0  0
   -2.1469   -0.5040   -1.4532 H   0  0  0  0  0  0  0  0  0  0  0  0
   -0.0379    1.1988   -1.7477 H   0  0  0  0  0  0  0  0  0  0  0  0
    0.5682    1.8615    0.6115 H   0  0  0  0  0  0  0  0  0  0  0  0
  1  2  1  0
  2  3  1  0
  3  4  1  0
  4  5  1  0
  5  6  1  0
  6  7  1  0
  7  8  1  0
  8  9  1  0
  8  2  1  0
  9  2  1  0
  7  4  1  0
  9  5  1  0
  1 10  1  0
  1 11  1  0
  1 12  1  0
  4 13  1  0
  5 14  1  0
  7 15  1  0
  8 16  1  0
  9 17  1  0
M  END
