
     RDKit          3D

 23 24  0  0  0  0  0  0  0  0999 V2000
   -0.8204   -1.8935    0.4616 C   0  0  0  0  0  0  0  0  0  0  0  0
   -0.6442   -0.4578    0.2948 C   0  0  0  0  0  0  0  0  0  0  0  0
   -1.6248    0.3011   -0.5787 C   0  0  0  0  0  0  0  0  0  0  0  0
   -1.0838    1.7130   -0.2692 C   0  0  0  0  0  0  0  0  0  0  0  0
    0.0295    1.2887    0.6601 C   0  0  0  0  0  0  0  0  0  0  0  0
   -0.6667    0.3469    1.4586 O   0  0  0  0  0  0  0  0  0  0  0  0
    0.7117    0.1104    0.0386 C   0  0  0  0  0  0  0  0  0  0  0  0
    1.1327    0.2428   -1.3877 C   0  0  0  0  0  0  0  0  0  0  0  0
    1.7366   -0.4756    0.9514 C   0  0  0  0  0  0  0  0  0  0  0  0
   -1.4968   -2.0989    1.3237 H   0  0  0  0  0  0  0  0  0  0  0  0
   -1.1872   -2.3469   -0.4740 H   0  0  0  0  0  0  0  0  0  0  0  0
    0.1821   -2.3705    0.6504 H   0  0  0  0  0  0  0  0  0  0  0  0
   -2.6418    0.2008   -0.2035 H   0  0  0  0  0  0  0  0  0  0  0  0
   -1.4786    0.0382   -1.6279 H   0  0  0  0  0  0  0  0  0  0  0  0
   -1.8252    2.2627    0.3369 H   0  0  0  0  0  0  0  0  0  0  0  0
   -0.7526    2.2291   -1.1628 H   0  0  0  0  0  0  0  0  0  0  0  0
    0.5963    2.0339    1.1694 H   0  0  0  0  0  0  0  0  0  0  0  0
    0.3951    0.7622   -1.9948 H   0  0  0  0  0  0  0  0  0  0  0  0
    2.1292    0.7350   -1.4014 H   0  0  0  0  0  0  0  0  0  0  0  0
    1.3266   -0.8017   -1.7689 H   0  0  0  0  0  0  0  0  0  0  0  0
    2.2930   -1.2572    0.3711 H   0  0  0  0  0  0  0  0  0  0  0  0
    1.2730   -0.9004    1.8648 H   0  0  0  0  0  0  0  0  0  0  0  0
    2.4163    0.3376    1.2877 H   0  0  0  0  0  0  0  0  0  0  0  0
  1  2  1  0
  2  3  1  0
  3  4  1  0
  4  5  1  0
  5  6  1  0
  5  7  1  0
  7  8  1  0
  7  9  1  0
  6  2  1  0
  7  2  1  0
  1 10  1  0
  1 11  1  0
  1 12  1  0
  3 13  1  0
  3 14  1  0
  4 15  1  0
  4 16  1  0
  5 17  1  0
  8 18  1  0
  8 19  1  0
  8 20  1  0
  9 21  1  0
  9 22  1  0
  9 23  1  0
M  END
