
     RDKit          3D

 19 20  0  0  0  0  0  0  0  0999 V2000
    0.7251    1.9460   -0.1437 C   0  0  0  0  0  0  0  0  0  0  0  0
    0.2840    0.5881    0.2660 C   0  0  0  0  0  0  0  0  0  0  0  0
   -0.6551    0.5104    1.2673 O   0  0  0  0  0  0  0  0  0  0  0  0
   -1.7582   -0.1823    0.7545 C   0  0  0  0  0  0  0  0  0  0  0  0
   -1.0693   -1.3148   -0.0006 C   0  0  0  0  0  0  0  0  0  0  0  0
    0.0811   -0.5302   -0.6505 C   0  0  0  0  0  0  0  0  0  0  0  0
    0.0609   -0.4059   -2.0232 O   0  0  0  0  0  0  0  0  0  0  0  0
    1.3282   -0.5230    0.1348 C   0  0  0  0  0  0  0  0  0  0  0  0
    1.4253   -1.3448    1.2733 O   0  0  0  0  0  0  0  0  0  0  0  0
    0.9243    2.0772   -1.2143 H   0  0  0  0  0  0  0  0  0  0  0  0
    1.6229    2.2334    0.4664 H   0  0  0  0  0  0  0  0  0  0  0  0
   -0.0664    2.6914    0.1208 H   0  0  0  0  0  0  0  0  0  0  0  0
   -2.3990   -0.5331    1.5598 H   0  0  0  0  0  0  0  0  0  0  0  0
   -2.2940    0.4103   -0.0270 H   0  0  0  0  0  0  0  0  0  0  0  0
   -0.6807   -2.0927    0.6829 H   0  0  0  0  0  0  0  0  0  0  0  0
   -1.7471   -1.6880   -0.7748 H   0  0  0  0  0  0  0  0  0  0  0  0
   -0.0815    0.5144   -2.3260 H   0  0  0  0  0  0  0  0  0  0  0  0
    2.2552   -0.2598   -0.4105 H   0  0  0  0  0  0  0  0  0  0  0  0
    2.0441   -2.0967    1.0447 H   0  0  0  0  0  0  0  0  0  0  0  0
  1  2  1  0
  2  3  1  0
  3  4  1  0
  4  5  1  0
  5  6  1  0
  6  7  1  0
  6  8  1  0
  8  9  1  0
  6  2  1  0
  8  2  1  0
  1 10  1  0
  1 11  1  0
  1 12  1  0
  4 13  1  0
  4 14  1  0
  5 15  1  0
  5 16  1  0
  7 17  1  0
  8 18  1  0
  9 19  1  0
M  END
