
     RDKit          3D

 17 19  0  0  0  0  0  0  0  0999 V2000
   -1.5332   -1.1416   -0.4129 C   0  0  0  0  0  0  0  0  0  0  0  0
   -0.4438   -0.1288   -0.4624 C   0  0  0  0  0  0  0  0  0  0  0  0
   -0.6535    1.3129   -0.3762 C   0  0  0  0  0  0  0  0  0  0  0  0
   -0.2377    0.6488    0.8887 C   0  0  0  0  0  0  0  0  0  0  0  0
    1.2025    0.2343    1.0988 C   0  0  0  0  0  0  0  0  0  0  0  0
    1.1893   -1.1208    0.7133 O   0  0  0  0  0  0  0  0  0  0  0  0
    0.9789   -0.6161   -0.5952 C   0  0  0  0  0  0  0  0  0  0  0  0
    1.8419    0.4896   -0.1947 C   0  0  0  0  0  0  0  0  0  0  0  0
    2.6487    1.2231   -0.6667 O   0  0  0  0  0  0  0  0  0  0  0  0
   -1.0950   -2.1347   -0.6902 H   0  0  0  0  0  0  0  0  0  0  0  0
   -1.9169   -1.2938    0.6381 H   0  0  0  0  0  0  0  0  0  0  0  0
   -2.4154   -0.8996   -1.0161 H   0  0  0  0  0  0  0  0  0  0  0  0
    0.1321    1.9757   -0.8215 H   0  0  0  0  0  0  0  0  0  0  0  0
   -1.6532    1.7580   -0.3780 H   0  0  0  0  0  0  0  0  0  0  0  0
   -0.9665    0.4586    1.6723 H   0  0  0  0  0  0  0  0  0  0  0  0
    1.6865    0.4895    2.0099 H   0  0  0  0  0  0  0  0  0  0  0  0
    1.2354   -1.2550   -1.4068 H   0  0  0  0  0  0  0  0  0  0  0  0
  1  2  1  0
  2  3  1  0
  3  4  1  0
  4  5  1  0
  5  6  1  0
  6  7  1  0
  7  8  1  0
  8  9  2  0
  4  2  1  0
  8  5  1  0
  7  2  1  0
  1 10  1  0
  1 11  1  0
  1 12  1  0
  3 13  1  0
  3 14  1  0
  4 15  1  0
  5 16  1  0
  7 17  1  0
M  END
