
     RDKit          3D

 21 22  0  0  0  0  0  0  0  0999 V2000
    2.3032    0.6014    0.2524 C   0  0  0  0  0  0  0  0  0  0  0  0
    0.9334    0.0672   -0.0608 C   0  0  0  0  0  0  0  0  0  0  0  0
   -0.0891    0.7241    0.8563 C   0  0  0  0  0  0  0  0  0  0  0  0
   -1.3739    0.7965    0.0200 C   0  0  0  0  0  0  0  0  0  0  0  0
   -2.4477    1.2325    0.7487 O   0  0  0  0  0  0  0  0  0  0  0  0
   -1.5572   -0.6496   -0.4650 C   0  0  0  0  0  0  0  0  0  0  0  0
   -0.2518   -1.0473   -1.1014 C   0  0  0  0  0  0  0  0  0  0  0  0
    0.7949   -1.4282   -0.0770 C   0  0  0  0  0  0  0  0  0  0  0  0
    0.5517    0.0818   -1.3827 O   0  0  0  0  0  0  0  0  0  0  0  0
    2.5614    0.2226    1.2835 H   0  0  0  0  0  0  0  0  0  0  0  0
    3.0763    0.3200   -0.4642 H   0  0  0  0  0  0  0  0  0  0  0  0
    2.1897    1.7115    0.3764 H   0  0  0  0  0  0  0  0  0  0  0  0
    0.2245    1.6966    1.2255 H   0  0  0  0  0  0  0  0  0  0  0  0
   -0.3377    0.0175    1.6916 H   0  0  0  0  0  0  0  0  0  0  0  0
   -1.1187    1.4471   -0.8440 H   0  0  0  0  0  0  0  0  0  0  0  0
   -3.0866    1.7838    0.2502 H   0  0  0  0  0  0  0  0  0  0  0  0
   -2.4093   -0.7595   -1.1314 H   0  0  0  0  0  0  0  0  0  0  0  0
   -1.7713   -1.2313    0.4716 H   0  0  0  0  0  0  0  0  0  0  0  0
   -0.3000   -1.7946   -1.8881 H   0  0  0  0  0  0  0  0  0  0  0  0
    1.6716   -1.8784   -0.5886 H   0  0  0  0  0  0  0  0  0  0  0  0
    0.4367   -1.9136    0.8269 H   0  0  0  0  0  0  0  0  0  0  0  0
  1  2  1  0
  2  3  1  0
  3  4  1  0
  4  5  1  0
  4  6  1  0
  6  7  1  0
  7  8  1  0
  7  9  1  0
  8  2  1  0
  9  2  1  0
  1 10  1  0
  1 11  1  0
  1 12  1  0
  3 13  1  0
  3 14  1  0
  4 15  1  0
  5 16  1  0
  6 17  1  0
  6 18  1  0
  7 19  1  0
  8 20  1  0
  8 21  1  0
M  END
