
     RDKit          3D

 19 21  0  0  0  0  0  0  0  0999 V2000
    2.0570   -0.4023   -0.5446 C   0  0  0  0  0  0  0  0  0  0  0  0
    0.7383    0.0458   -0.0218 C   0  0  0  0  0  0  0  0  0  0  0  0
    0.4564    0.0825    1.4582 C   0  0  0  0  0  0  0  0  0  0  0  0
   -1.0181   -0.1611    1.1017 C   0  0  0  0  0  0  0  0  0  0  0  0
   -1.6250    1.0418    0.8549 O   0  0  0  0  0  0  0  0  0  0  0  0
   -1.3682    1.4529   -0.4232 C   0  0  0  0  0  0  0  0  0  0  0  0
   -0.2683    0.5511   -0.9727 C   0  0  0  0  0  0  0  0  0  0  0  0
   -0.5111   -0.6785   -0.2064 C   0  0  0  0  0  0  0  0  0  0  0  0
   -0.6935   -1.9081   -0.6778 O   0  0  0  0  0  0  0  0  0  0  0  0
    1.9711   -1.0600   -1.4463 H   0  0  0  0  0  0  0  0  0  0  0  0
    2.6176    0.5066   -0.8954 H   0  0  0  0  0  0  0  0  0  0  0  0
    2.6667   -0.8623    0.2479 H   0  0  0  0  0  0  0  0  0  0  0  0
    0.6544    1.0145    1.9763 H   0  0  0  0  0  0  0  0  0  0  0  0
    0.8406   -0.8527    1.9235 H   0  0  0  0  0  0  0  0  0  0  0  0
   -1.5288   -0.8770    1.7548 H   0  0  0  0  0  0  0  0  0  0  0  0
   -2.2713    1.2979   -1.0735 H   0  0  0  0  0  0  0  0  0  0  0  0
   -1.0301    2.4912   -0.5230 H   0  0  0  0  0  0  0  0  0  0  0  0
   -0.0684    0.5375   -2.0327 H   0  0  0  0  0  0  0  0  0  0  0  0
   -1.6195   -2.2198   -0.5002 H   0  0  0  0  0  0  0  0  0  0  0  0
  1  2  1  0
  2  3  1  0
  3  4  1  0
  4  5  1  0
  5  6  1  0
  6  7  1  0
  7  8  1  0
  8  9  1  0
  7  2  1  0
  8  2  1  0
  8  4  1  0
  1 10  1  0
  1 11  1  0
  1 12  1  0
  3 13  1  0
  3 14  1  0
  4 15  1  0
  6 16  1  0
  6 17  1  0
  7 18  1  0
  9 19  1  0
M  END
