
     RDKit          3D

 19 21  0  0  0  0  0  0  0  0999 V2000
    2.4554    0.5033    0.2987 C   0  0  0  0  0  0  0  0  0  0  0  0
    1.0612    0.0505   -0.0283 C   0  0  0  0  0  0  0  0  0  0  0  0
   -0.0276    0.9603    0.4999 C   0  0  0  0  0  0  0  0  0  0  0  0
   -1.2343    0.0929    0.7353 C   0  0  0  0  0  0  0  0  0  0  0  0
   -2.2884    0.2236   -0.3349 C   0  0  0  0  0  0  0  0  0  0  0  0
   -1.6782   -0.8061   -1.0159 O   0  0  0  0  0  0  0  0  0  0  0  0
   -0.9272   -1.2166    0.0843 C   0  0  0  0  0  0  0  0  0  0  0  0
    0.5510   -1.2355   -0.0901 C   0  0  0  0  0  0  0  0  0  0  0  0
    0.9359   -0.4960   -1.2982 O   0  0  0  0  0  0  0  0  0  0  0  0
    2.4838    1.5392    0.6998 H   0  0  0  0  0  0  0  0  0  0  0  0
    3.1153    0.5304   -0.6130 H   0  0  0  0  0  0  0  0  0  0  0  0
    2.9022   -0.2020    1.0014 H   0  0  0  0  0  0  0  0  0  0  0  0
    0.3417    1.3292    1.4993 H   0  0  0  0  0  0  0  0  0  0  0  0
   -0.2350    1.7910   -0.1678 H   0  0  0  0  0  0  0  0  0  0  0  0
   -1.6538    0.0790    1.7397 H   0  0  0  0  0  0  0  0  0  0  0  0
   -2.2427    1.2256   -0.7839 H   0  0  0  0  0  0  0  0  0  0  0  0
   -3.3041   -0.0961    0.0215 H   0  0  0  0  0  0  0  0  0  0  0  0
   -1.3887   -2.1024    0.5752 H   0  0  0  0  0  0  0  0  0  0  0  0
    1.1336   -2.1705    0.0649 H   0  0  0  0  0  0  0  0  0  0  0  0
  1  2  1  0
  2  3  1  0
  3  4  1  0
  4  5  1  0
  5  6  1  0
  6  7  1  0
  7  8  1  0
  8  9  1  0
  8  2  1  0
  9  2  1  0
  7  4  1  0
  1 10  1  0
  1 11  1  0
  1 12  1  0
  3 13  1  0
  3 14  1  0
  4 15  1  0
  5 16  1  0
  5 17  1  0
  7 18  1  0
  8 19  1  0
M  END
