
     RDKit          3D

 15 16  0  0  0  0  0  0  0  0999 V2000
   -0.5794    1.6711    0.1446 C   0  0  0  0  0  0  0  0  0  0  0  0
   -0.0468    0.2818    0.0972 C   0  0  0  0  0  0  0  0  0  0  0  0
   -0.9780   -0.7609    0.7263 C   0  0  0  0  0  0  0  0  0  0  0  0
   -0.6563   -0.7814   -0.7308 C   0  0  0  0  0  0  0  0  0  0  0  0
    0.3640   -1.6978   -1.0961 O   0  0  0  0  0  0  0  0  0  0  0  0
    1.6054   -1.2246   -0.6248 C   0  0  0  0  0  0  0  0  0  0  0  0
    2.6968   -1.7846   -0.8442 O   0  0  0  0  0  0  0  0  0  0  0  0
    1.3869   -0.0055    0.1381 C   0  0  0  0  0  0  0  0  0  0  0  0
    2.2839    0.6477    0.7089 O   0  0  0  0  0  0  0  0  0  0  0  0
   -0.4614    2.1058    1.1797 H   0  0  0  0  0  0  0  0  0  0  0  0
   -1.6623    1.6512   -0.0590 H   0  0  0  0  0  0  0  0  0  0  0  0
   -0.0203    2.3265   -0.5782 H   0  0  0  0  0  0  0  0  0  0  0  0
   -2.0194   -0.4500    0.9581 H   0  0  0  0  0  0  0  0  0  0  0  0
   -0.4768   -1.4017    1.4506 H   0  0  0  0  0  0  0  0  0  0  0  0
   -1.4361   -0.5774   -1.4703 H   0  0  0  0  0  0  0  0  0  0  0  0
  1  2  1  0
  2  3  1  0
  3  4  1  0
  4  5  1  0
  5  6  1  0
  6  7  2  0
  6  8  1  0
  8  9  2  0
  4  2  1  0
  8  2  1  0
  1 10  1  0
  1 11  1  0
  1 12  1  0
  3 13  1  0
  3 14  1  0
  4 15  1  0
M  END
