
     RDKit          3D

 19 20  0  0  0  0  0  0  0  0999 V2000
    2.1879   -0.5860    0.0036 C   0  0  0  0  0  0  0  0  0  0  0  0
    0.8572   -0.1050   -0.1774 C   0  0  0  0  0  0  0  0  0  0  0  0
    0.4742    0.7742   -1.3017 C   0  0  0  0  0  0  0  0  0  0  0  0
   -0.8503    0.9764   -1.0800 C   0  0  0  0  0  0  0  0  0  0  0  0
   -1.0991    0.1961    0.1385 C   0  0  0  0  0  0  0  0  0  0  0  0
   -2.3695    0.1084    0.7352 C   0  0  0  0  0  0  0  0  0  0  0  0
   -3.1904    1.0022    0.6077 O   0  0  0  0  0  0  0  0  0  0  0  0
    0.1200    0.5625    0.9932 C   0  0  0  0  0  0  0  0  0  0  0  0
   -0.3203   -1.0904   -0.1586 C   0  0  0  0  0  0  0  0  0  0  0  0
    2.2274   -1.7086    0.1167 H   0  0  0  0  0  0  0  0  0  0  0  0
    2.7339   -0.1016    0.8627 H   0  0  0  0  0  0  0  0  0  0  0  0
    2.8406   -0.3690   -0.8868 H   0  0  0  0  0  0  0  0  0  0  0  0
    1.0604    1.1810   -2.1185 H   0  0  0  0  0  0  0  0  0  0  0  0
   -1.5441    1.5694   -1.6643 H   0  0  0  0  0  0  0  0  0  0  0  0
   -2.6836   -0.7430    1.3305 H   0  0  0  0  0  0  0  0  0  0  0  0
    0.2977    1.6423    1.0808 H   0  0  0  0  0  0  0  0  0  0  0  0
    0.1746   -0.0396    1.9098 H   0  0  0  0  0  0  0  0  0  0  0  0
   -0.5585   -1.5376   -1.1239 H   0  0  0  0  0  0  0  0  0  0  0  0
   -0.3582   -1.7318    0.7326 H   0  0  0  0  0  0  0  0  0  0  0  0
  1  2  1  0
  2  3  1  0
  3  4  2  0
  4  5  1  0
  5  6  1  0
  6  7  2  0
  5  8  1  0
  5  9  1  0
  8  2  1  0
  9  2  1  0
  1 10  1  0
  1 11  1  0
  1 12  1  0
  3 13  1  0
  4 14  1  0
  6 15  1  0
  8 16  1  0
  8 17  1  0
  9 18  1  0
  9 19  1  0
M  END
