
     RDKit          3D

 17 18  0  0  0  0  0  0  0  0999 V2000
   -2.1923    0.1414   -0.4356 C   0  0  0  0  0  0  0  0  0  0  0  0
   -0.7542    0.0514    0.0189 C   0  0  0  0  0  0  0  0  0  0  0  0
    0.1137    1.1449   -0.5049 C   0  0  0  0  0  0  0  0  0  0  0  0
    1.5367    1.0420   -0.1380 C   0  0  0  0  0  0  0  0  0  0  0  0
    2.2129    2.0689    0.0383 O   0  0  0  0  0  0  0  0  0  0  0  0
    2.1183   -0.2811    0.0096 C   0  0  0  0  0  0  0  0  0  0  0  0
    1.3229   -1.3296    0.1421 C   0  0  0  0  0  0  0  0  0  0  0  0
   -0.1504   -1.2005    0.1451 C   0  0  0  0  0  0  0  0  0  0  0  0
   -0.5977   -0.4717    1.2783 O   0  0  0  0  0  0  0  0  0  0  0  0
   -2.2744   -0.3647   -1.4232 H   0  0  0  0  0  0  0  0  0  0  0  0
   -2.5475    1.1828   -0.4996 H   0  0  0  0  0  0  0  0  0  0  0  0
   -2.8828   -0.3931    0.2583 H   0  0  0  0  0  0  0  0  0  0  0  0
    0.0840    1.0599   -1.6331 H   0  0  0  0  0  0  0  0  0  0  0  0
   -0.2754    2.1567   -0.2696 H   0  0  0  0  0  0  0  0  0  0  0  0
    3.2125   -0.3813    0.0080 H   0  0  0  0  0  0  0  0  0  0  0  0
    1.7761   -2.2947    0.2495 H   0  0  0  0  0  0  0  0  0  0  0  0
   -0.7023   -2.1314   -0.1007 H   0  0  0  0  0  0  0  0  0  0  0  0
  1  2  1  0
  2  3  1  0
  3  4  1  0
  4  5  2  0
  4  6  1  0
  6  7  2  0
  7  8  1  0
  8  9  1  0
  8  2  1  0
  9  2  1  0
  1 10  1  0
  1 11  1  0
  1 12  1  0
  3 13  1  0
  3 14  1  0
  6 15  1  0
  7 16  1  0
  8 17  1  0
M  END
