
     RDKit          3D

 21 23  0  0  0  0  0  0  0  0999 V2000
   -0.6784    1.3815    0.7243 C   0  0  0  0  0  0  0  0  0  0  0  0
   -0.2449    0.3584   -0.3376 C   0  0  0  0  0  0  0  0  0  0  0  0
   -1.3007    0.1258   -1.3350 C   0  0  0  0  0  0  0  0  0  0  0  0
   -1.9741   -0.6356   -0.1083 C   0  0  0  0  0  0  0  0  0  0  0  0
   -0.5636   -1.0839    0.1071 C   0  0  0  0  0  0  0  0  0  0  0  0
    0.5563   -1.7237    0.3459 C   0  0  0  0  0  0  0  0  0  0  0  0
    1.7594   -0.9370    0.1131 C   0  0  0  0  0  0  0  0  0  0  0  0
    2.0435    0.3513    0.7020 C   0  0  0  0  0  0  0  0  0  0  0  0
    1.2141    0.3373   -0.5576 C   0  0  0  0  0  0  0  0  0  0  0  0
   -1.6086    1.9017    0.4584 H   0  0  0  0  0  0  0  0  0  0  0  0
    0.1025    2.1829    0.8072 H   0  0  0  0  0  0  0  0  0  0  0  0
   -0.8033    0.8992    1.7021 H   0  0  0  0  0  0  0  0  0  0  0  0
   -1.0732   -0.6593   -2.0613 H   0  0  0  0  0  0  0  0  0  0  0  0
   -1.9353    0.9515   -1.6594 H   0  0  0  0  0  0  0  0  0  0  0  0
   -2.2801    0.0471    0.6836 H   0  0  0  0  0  0  0  0  0  0  0  0
   -2.6702   -1.3929   -0.4591 H   0  0  0  0  0  0  0  0  0  0  0  0
    0.5925   -2.7690    0.6937 H   0  0  0  0  0  0  0  0  0  0  0  0
    2.5621   -1.4240   -0.5674 H   0  0  0  0  0  0  0  0  0  0  0  0
    1.5903    0.6410    1.6661 H   0  0  0  0  0  0  0  0  0  0  0  0
    3.0725    0.7574    0.5623 H   0  0  0  0  0  0  0  0  0  0  0  0
    1.6390    0.6904   -1.4804 H   0  0  0  0  0  0  0  0  0  0  0  0
  1  2  1  0
  2  3  1  0
  3  4  1  0
  4  5  1  0
  5  6  2  0
  6  7  1  0
  7  8  1  0
  8  9  1  0
  5  2  1  0
  9  7  1  0
  9  2  1  0
  1 10  1  0
  1 11  1  0
  1 12  1  0
  3 13  1  0
  3 14  1  0
  4 15  1  0
  4 16  1  0
  6 17  1  0
  7 18  1  0
  8 19  1  0
  8 20  1  0
  9 21  1  0
M  END
