
     RDKit          3D

 21 22  0  0  0  0  0  0  0  0999 V2000
    2.4050    0.1247   -0.3701 C   0  0  0  0  0  0  0  0  0  0  0  0
    0.9085    0.0954   -0.1327 C   0  0  0  0  0  0  0  0  0  0  0  0
    0.3402   -1.3069   -0.3523 C   0  0  0  0  0  0  0  0  0  0  0  0
   -1.1213   -1.2278    0.0871 C   0  0  0  0  0  0  0  0  0  0  0  0
   -1.4800    0.2338    0.3000 C   0  0  0  0  0  0  0  0  0  0  0  0
   -0.6339    0.8012    1.4402 C   0  0  0  0  0  0  0  0  0  0  0  0
    0.6825    0.4237    1.1804 O   0  0  0  0  0  0  0  0  0  0  0  0
   -1.0479    1.0337   -0.9330 C   0  0  0  0  0  0  0  0  0  0  0  0
    0.3136    0.9221   -1.0502 O   0  0  0  0  0  0  0  0  0  0  0  0
    2.6775    0.7392   -1.2359 H   0  0  0  0  0  0  0  0  0  0  0  0
    2.7787   -0.9248   -0.4621 H   0  0  0  0  0  0  0  0  0  0  0  0
    2.9494    0.5476    0.5140 H   0  0  0  0  0  0  0  0  0  0  0  0
    0.9100   -2.0404    0.2640 H   0  0  0  0  0  0  0  0  0  0  0  0
    0.3778   -1.5539   -1.4262 H   0  0  0  0  0  0  0  0  0  0  0  0
   -1.7932   -1.6356   -0.6890 H   0  0  0  0  0  0  0  0  0  0  0  0
   -1.1830   -1.7456    1.0537 H   0  0  0  0  0  0  0  0  0  0  0  0
   -2.5587    0.3354    0.4973 H   0  0  0  0  0  0  0  0  0  0  0  0
   -0.6468    1.9191    1.3869 H   0  0  0  0  0  0  0  0  0  0  0  0
   -0.9798    0.4410    2.4173 H   0  0  0  0  0  0  0  0  0  0  0  0
   -1.2725    2.1039   -0.6870 H   0  0  0  0  0  0  0  0  0  0  0  0
   -1.6261    0.7144   -1.8024 H   0  0  0  0  0  0  0  0  0  0  0  0
  1  2  1  0
  2  3  1  0
  3  4  1  0
  4  5  1  0
  5  6  1  0
  6  7  1  0
  5  8  1  0
  8  9  1  0
  7  2  1  0
  9  2  1  0
  1 10  1  0
  1 11  1  0
  1 12  1  0
  3 13  1  0
  3 14  1  0
  4 15  1  0
  4 16  1  0
  5 17  1  0
  6 18  1  0
  6 19  1  0
  8 20  1  0
  8 21  1  0
M  END
