
     RDKit          3D

 19 20  0  0  0  0  0  0  0  0999 V2000
    1.7199   -0.3016   -0.8948 C   0  0  0  0  0  0  0  0  0  0  0  0
    0.4204   -0.2576   -0.2770 C   0  0  0  0  0  0  0  0  0  0  0  0
   -0.2673   -1.5128    0.1823 C   0  0  0  0  0  0  0  0  0  0  0  0
   -1.5021   -0.8659    0.7565 C   0  0  0  0  0  0  0  0  0  0  0  0
   -2.4406   -1.3984    1.2969 O   0  0  0  0  0  0  0  0  0  0  0  0
   -1.2645    0.5501    0.4895 C   0  0  0  0  0  0  0  0  0  0  0  0
   -0.6926    0.5580   -0.9285 C   0  0  0  0  0  0  0  0  0  0  0  0
    0.2050    0.6879    0.9167 C   0  0  0  0  0  0  0  0  0  0  0  0
    0.7633    1.9097    0.6383 O   0  0  0  0  0  0  0  0  0  0  0  0
    2.2738   -1.2023   -0.5958 H   0  0  0  0  0  0  0  0  0  0  0  0
    1.6494   -0.2641   -1.9983 H   0  0  0  0  0  0  0  0  0  0  0  0
    2.3292    0.5830   -0.5443 H   0  0  0  0  0  0  0  0  0  0  0  0
    0.2816   -2.0827    0.9337 H   0  0  0  0  0  0  0  0  0  0  0  0
   -0.6226   -2.1288   -0.6705 H   0  0  0  0  0  0  0  0  0  0  0  0
   -1.9370    1.3074    0.7704 H   0  0  0  0  0  0  0  0  0  0  0  0
   -1.2461   -0.0237   -1.6617 H   0  0  0  0  0  0  0  0  0  0  0  0
   -0.3301    1.5468   -1.2001 H   0  0  0  0  0  0  0  0  0  0  0  0
    0.4470    0.2146    1.8739 H   0  0  0  0  0  0  0  0  0  0  0  0
    0.2133    2.6805    0.9128 H   0  0  0  0  0  0  0  0  0  0  0  0
  1  2  1  0
  2  3  1  0
  3  4  1  0
  4  5  2  0
  4  6  1  0
  6  7  1  0
  6  8  1  0
  8  9  1  0
  7  2  1  0
  8  2  1  0
  1 10  1  0
  1 11  1  0
  1 12  1  0
  3 13  1  0
  3 14  1  0
  6 15  1  0
  7 16  1  0
  7 17  1  0
  8 18  1  0
  9 19  1  0
M  END
