
     RDKit          3D

 21 23  0  0  0  0  0  0  0  0999 V2000
   -1.6368   -1.2297   -0.4373 C   0  0  0  0  0  0  0  0  0  0  0  0
   -0.9022   -0.1667    0.0123 C   0  0  0  0  0  0  0  0  0  0  0  0
   -1.3916    1.0276    0.7870 C   0  0  0  0  0  0  0  0  0  0  0  0
    0.0928    1.2531    0.6626 C   0  0  0  0  0  0  0  0  0  0  0  0
   -0.0558    0.7845   -0.7596 C   0  0  0  0  0  0  0  0  0  0  0  0
    1.1688   -0.0087   -1.1116 C   0  0  0  0  0  0  0  0  0  0  0  0
    1.4698   -0.6228    0.2683 C   0  0  0  0  0  0  0  0  0  0  0  0
    2.5553    0.0382    0.8105 O   0  0  0  0  0  0  0  0  0  0  0  0
    0.2378   -0.1907    0.9992 C   0  0  0  0  0  0  0  0  0  0  0  0
   -1.9622   -1.1469   -1.5019 H   0  0  0  0  0  0  0  0  0  0  0  0
   -1.1017   -2.2180   -0.3887 H   0  0  0  0  0  0  0  0  0  0  0  0
   -2.5861   -1.4100    0.1320 H   0  0  0  0  0  0  0  0  0  0  0  0
   -1.9886    1.7006    0.1733 H   0  0  0  0  0  0  0  0  0  0  0  0
   -1.7571    0.8068    1.8081 H   0  0  0  0  0  0  0  0  0  0  0  0
    0.6174    2.0357    0.9942 H   0  0  0  0  0  0  0  0  0  0  0  0
   -0.4918    1.4374   -1.4830 H   0  0  0  0  0  0  0  0  0  0  0  0
    0.9244   -0.8145   -1.8240 H   0  0  0  0  0  0  0  0  0  0  0  0
    2.0119    0.6036   -1.4483 H   0  0  0  0  0  0  0  0  0  0  0  0
    1.5951   -1.7054    0.2023 H   0  0  0  0  0  0  0  0  0  0  0  0
    3.1455    0.3623    0.1111 H   0  0  0  0  0  0  0  0  0  0  0  0
    0.0551   -0.5364    1.9934 H   0  0  0  0  0  0  0  0  0  0  0  0
  1  2  1  0
  2  3  1  0
  3  4  1  0
  4  5  1  0
  5  6  1  0
  6  7  1  0
  7  8  1  0
  7  9  1  0
  5  2  1  0
  9  2  1  0
  9  4  1  0
  1 10  1  0
  1 11  1  0
  1 12  1  0
  3 13  1  0
  3 14  1  0
  4 15  1  0
  5 16  1  0
  6 17  1  0
  6 18  1  0
  7 19  1  0
  8 20  1  0
  9 21  1  0
M  END
