
     RDKit          3D

 19 21  0  0  0  0  0  0  0  0999 V2000
   -1.5780    1.4509    0.1278 C   0  0  0  0  0  0  0  0  0  0  0  0
   -0.6113    0.3446   -0.0433 C   0  0  0  0  0  0  0  0  0  0  0  0
   -0.8884   -0.8592    0.8454 C   0  0  0  0  0  0  0  0  0  0  0  0
   -0.3240   -1.8862    0.0910 O   0  0  0  0  0  0  0  0  0  0  0  0
    0.2290   -1.3204   -1.0418 C   0  0  0  0  0  0  0  0  0  0  0  0
   -0.7042   -0.2868   -1.3093 O   0  0  0  0  0  0  0  0  0  0  0  0
    1.4573   -0.5081   -0.7485 C   0  0  0  0  0  0  0  0  0  0  0  0
    1.8316   -0.1281    0.6272 C   0  0  0  0  0  0  0  0  0  0  0  0
    0.8286    0.7347   -0.0292 C   0  0  0  0  0  0  0  0  0  0  0  0
   -2.4730    1.2261   -0.5166 H   0  0  0  0  0  0  0  0  0  0  0  0
   -1.9796    1.5225    1.1600 H   0  0  0  0  0  0  0  0  0  0  0  0
   -1.1638    2.4027   -0.2075 H   0  0  0  0  0  0  0  0  0  0  0  0
   -0.4846   -0.7633    1.8484 H   0  0  0  0  0  0  0  0  0  0  0  0
   -1.9898   -0.9601    0.9001 H   0  0  0  0  0  0  0  0  0  0  0  0
    0.2858   -1.9593   -1.9076 H   0  0  0  0  0  0  0  0  0  0  0  0
    2.1175   -0.3053   -1.5895 H   0  0  0  0  0  0  0  0  0  0  0  0
    2.8414    0.3153    0.7397 H   0  0  0  0  0  0  0  0  0  0  0  0
    1.5250   -0.7280    1.5035 H   0  0  0  0  0  0  0  0  0  0  0  0
    1.0804    1.7078   -0.4496 H   0  0  0  0  0  0  0  0  0  0  0  0
  1  2  1  0
  2  3  1  0
  3  4  1  0
  4  5  1  0
  5  6  1  0
  5  7  1  0
  7  8  1  0
  8  9  1  0
  6  2  1  0
  9  7  1  0
  9  2  1  0
  1 10  1  0
  1 11  1  0
  1 12  1  0
  3 13  1  0
  3 14  1  0
  5 15  1  0
  7 16  1  0
  8 17  1  0
  8 18  1  0
  9 19  1  0
M  END
