
     RDKit          3D

 21 23  0  0  0  0  0  0  0  0999 V2000
   -2.1168    0.6613   -0.4627 C   0  0  0  0  0  0  0  0  0  0  0  0
   -0.7621    0.1184   -0.3340 C   0  0  0  0  0  0  0  0  0  0  0  0
    0.0389    0.4622    0.8720 C   0  0  0  0  0  0  0  0  0  0  0  0
    1.3383    1.0408    0.3918 C   0  0  0  0  0  0  0  0  0  0  0  0
    2.0179    0.0059   -0.4659 C   0  0  0  0  0  0  0  0  0  0  0  0
    1.2765   -0.3488   -1.5451 O   0  0  0  0  0  0  0  0  0  0  0  0
   -0.0316   -0.6691   -1.3091 C   0  0  0  0  0  0  0  0  0  0  0  0
   -0.4911   -1.3398   -0.0686 C   0  0  0  0  0  0  0  0  0  0  0  0
    0.0448   -0.9718    1.2724 C   0  0  0  0  0  0  0  0  0  0  0  0
   -2.2176    1.5388    0.2430 H   0  0  0  0  0  0  0  0  0  0  0  0
   -2.3847    1.0721   -1.4583 H   0  0  0  0  0  0  0  0  0  0  0  0
   -2.8923   -0.0639   -0.1109 H   0  0  0  0  0  0  0  0  0  0  0  0
   -0.5124    1.1507    1.5611 H   0  0  0  0  0  0  0  0  0  0  0  0
    1.0713    1.8895   -0.2985 H   0  0  0  0  0  0  0  0  0  0  0  0
    1.9679    1.4281    1.1849 H   0  0  0  0  0  0  0  0  0  0  0  0
    2.3672   -0.8698    0.1115 H   0  0  0  0  0  0  0  0  0  0  0  0
    2.9625    0.4954   -0.8477 H   0  0  0  0  0  0  0  0  0  0  0  0
   -0.5759   -1.0067   -2.2315 H   0  0  0  0  0  0  0  0  0  0  0  0
   -1.3965   -1.9721   -0.0932 H   0  0  0  0  0  0  0  0  0  0  0  0
    0.9971   -1.4443    1.5091 H   0  0  0  0  0  0  0  0  0  0  0  0
   -0.7014   -1.1768    2.0795 H   0  0  0  0  0  0  0  0  0  0  0  0
  1  2  1  0
  2  3  1  0
  3  4  1  0
  4  5  1  0
  5  6  1  0
  6  7  1  0
  7  8  1  0
  8  9  1  0
  7  2  1  0
  8  2  1  0
  9  3  1  0
  1 10  1  0
  1 11  1  0
  1 12  1  0
  3 13  1  0
  4 14  1  0
  4 15  1  0
  5 16  1  0
  5 17  1  0
  7 18  1  0
  8 19  1  0
  9 20  1  0
  9 21  1  0
M  END
