
     RDKit          3D

 17 18  0  0  0  0  0  0  0  0999 V2000
   -1.0147    1.3678   -0.1677 C   0  0  0  0  0  0  0  0  0  0  0  0
   -0.6793   -0.0440    0.1288 C   0  0  0  0  0  0  0  0  0  0  0  0
   -1.0648   -1.1491   -0.8435 C   0  0  0  0  0  0  0  0  0  0  0  0
    0.2635   -1.5647   -0.8487 O   0  0  0  0  0  0  0  0  0  0  0  0
    0.6596   -0.6158    0.0717 C   0  0  0  0  0  0  0  0  0  0  0  0
    1.9044    0.1882   -0.1378 C   0  0  0  0  0  0  0  0  0  0  0  0
   -0.0728   -0.4973    1.3915 C   0  0  0  0  0  0  0  0  0  0  0  0
   -1.9177    1.6460    0.4362 H   0  0  0  0  0  0  0  0  0  0  0  0
   -1.3642    1.4273   -1.2345 H   0  0  0  0  0  0  0  0  0  0  0  0
   -0.2313    2.1041    0.0610 H   0  0  0  0  0  0  0  0  0  0  0  0
   -1.4468   -0.8083   -1.8137 H   0  0  0  0  0  0  0  0  0  0  0  0
   -1.7272   -1.8693   -0.2936 H   0  0  0  0  0  0  0  0  0  0  0  0
    1.7196    1.2451   -0.3914 H   0  0  0  0  0  0  0  0  0  0  0  0
    2.5495    0.0607    0.7649 H   0  0  0  0  0  0  0  0  0  0  0  0
    2.4662   -0.2609   -0.9814 H   0  0  0  0  0  0  0  0  0  0  0  0
   -0.3844   -1.4950    1.7990 H   0  0  0  0  0  0  0  0  0  0  0  0
    0.3405    0.2654    2.0591 H   0  0  0  0  0  0  0  0  0  0  0  0
  1  2  1  0
  2  3  1  0
  3  4  1  0
  4  5  1  0
  5  6  1  0
  5  7  1  0
  5  2  1  0
  7  2  1  0
  1  8  1  0
  1  9  1  0
  1 10  1  0
  3 11  1  0
  3 12  1  0
  6 13  1  0
  6 14  1  0
  6 15  1  0
  7 16  1  0
  7 17  1  0
M  END
