
     RDKit          3D

 21 22  0  0  0  0  0  0  0  0999 V2000
   -2.6362   -0.2298    0.0342 C   0  0  0  0  0  0  0  0  0  0  0  0
   -1.2572    0.2049    0.0059 C   0  0  0  0  0  0  0  0  0  0  0  0
   -0.3288   -0.4164   -1.0537 C   0  0  0  0  0  0  0  0  0  0  0  0
    0.7250    0.0343   -0.0417 C   0  0  0  0  0  0  0  0  0  0  0  0
    2.0275   -0.5652   -0.0793 C   0  0  0  0  0  0  0  0  0  0  0  0
    2.8413   -0.0366    0.9025 O   0  0  0  0  0  0  0  0  0  0  0  0
    0.5010    1.4961   -0.0263 C   0  0  0  0  0  0  0  0  0  0  0  0
   -0.9181    1.5347    0.0451 O   0  0  0  0  0  0  0  0  0  0  0  0
   -0.2820   -0.4349    1.0128 C   0  0  0  0  0  0  0  0  0  0  0  0
   -3.2944    0.5130    0.4816 H   0  0  0  0  0  0  0  0  0  0  0  0
   -2.7169   -1.2188    0.5689 H   0  0  0  0  0  0  0  0  0  0  0  0
   -3.0030   -0.4484   -1.0011 H   0  0  0  0  0  0  0  0  0  0  0  0
   -0.4606   -1.5017   -1.0893 H   0  0  0  0  0  0  0  0  0  0  0  0
   -0.3188    0.1192   -2.0069 H   0  0  0  0  0  0  0  0  0  0  0  0
    1.9524   -1.6667    0.0393 H   0  0  0  0  0  0  0  0  0  0  0  0
    2.4835   -0.4232   -1.0997 H   0  0  0  0  0  0  0  0  0  0  0  0
    3.6074    0.4585    0.4896 H   0  0  0  0  0  0  0  0  0  0  0  0
    0.8250    1.9448   -0.9871 H   0  0  0  0  0  0  0  0  0  0  0  0
    0.9448    2.0359    0.8113 H   0  0  0  0  0  0  0  0  0  0  0  0
   -0.2218    0.1070    1.9599 H   0  0  0  0  0  0  0  0  0  0  0  0
   -0.4702   -1.5066    1.0340 H   0  0  0  0  0  0  0  0  0  0  0  0
  1  2  1  0
  2  3  1  0
  3  4  1  0
  4  5  1  0
  5  6  1  0
  4  7  1  0
  7  8  1  0
  4  9  1  0
  8  2  1  0
  9  2  1  0
  1 10  1  0
  1 11  1  0
  1 12  1  0
  3 13  1  0
  3 14  1  0
  5 15  1  0
  5 16  1  0
  6 17  1  0
  7 18  1  0
  7 19  1  0
  9 20  1  0
  9 21  1  0
M  END
