
     RDKit          3D

 19 21  0  0  0  0  0  0  0  0999 V2000
    1.5620   -1.1628    0.0335 C   0  0  0  0  0  0  0  0  0  0  0  0
    0.5872   -0.1267    0.1664 C   0  0  0  0  0  0  0  0  0  0  0  0
    0.3919    0.6009    1.4501 C   0  0  0  0  0  0  0  0  0  0  0  0
   -0.5365    1.5099    1.1528 C   0  0  0  0  0  0  0  0  0  0  0  0
   -0.8115    1.2079   -0.3032 C   0  0  0  0  0  0  0  0  0  0  0  0
    0.6462    1.0864   -0.7865 C   0  0  0  0  0  0  0  0  0  0  0  0
   -0.8152   -0.2622   -0.3092 C   0  0  0  0  0  0  0  0  0  0  0  0
   -1.5771   -1.2450   -0.7751 C   0  0  0  0  0  0  0  0  0  0  0  0
   -1.6845   -0.9266    0.6888 O   0  0  0  0  0  0  0  0  0  0  0  0
    2.0212   -1.1661   -0.9988 H   0  0  0  0  0  0  0  0  0  0  0  0
    1.1431   -2.1882    0.1566 H   0  0  0  0  0  0  0  0  0  0  0  0
    2.3676   -1.0729    0.8009 H   0  0  0  0  0  0  0  0  0  0  0  0
    0.9275    0.3680    2.3533 H   0  0  0  0  0  0  0  0  0  0  0  0
   -1.0008    2.2787    1.7565 H   0  0  0  0  0  0  0  0  0  0  0  0
   -1.4685    1.8157   -0.8380 H   0  0  0  0  0  0  0  0  0  0  0  0
    1.3004    1.8925   -0.4349 H   0  0  0  0  0  0  0  0  0  0  0  0
    0.7407    0.7739   -1.8374 H   0  0  0  0  0  0  0  0  0  0  0  0
   -1.2257   -2.2958   -0.9327 H   0  0  0  0  0  0  0  0  0  0  0  0
   -2.5680   -1.0874   -1.2623 H   0  0  0  0  0  0  0  0  0  0  0  0
  1  2  1  0
  2  3  1  0
  3  4  2  0
  4  5  1  0
  5  6  1  0
  5  7  1  0
  7  8  1  0
  8  9  1  0
  6  2  1  0
  9  7  1  0
  7  2  1  0
  1 10  1  0
  1 11  1  0
  1 12  1  0
  3 13  1  0
  4 14  1  0
  5 15  1  0
  6 16  1  0
  6 17  1  0
  8 18  1  0
  8 19  1  0
M  END
