
     RDKit          3D

 17 18  0  0  0  0  0  0  0  0999 V2000
    1.4932   -0.9784    0.6587 C   0  0  0  0  0  0  0  0  0  0  0  0
    0.6374    0.0387   -0.0184 C   0  0  0  0  0  0  0  0  0  0  0  0
    0.0027   -0.4646   -1.3315 C   0  0  0  0  0  0  0  0  0  0  0  0
   -0.8055   -0.0590   -0.1584 C   0  0  0  0  0  0  0  0  0  0  0  0
   -1.6457   -1.0255    0.5672 C   0  0  0  0  0  0  0  0  0  0  0  0
   -2.6918   -0.7088    1.1151 O   0  0  0  0  0  0  0  0  0  0  0  0
   -1.2976    1.2374   -0.1688 O   0  0  0  0  0  0  0  0  0  0  0  0
   -0.2375    2.0969   -0.0674 C   0  0  0  0  0  0  0  0  0  0  0  0
    0.9210    1.3849    0.0707 O   0  0  0  0  0  0  0  0  0  0  0  0
    1.5455   -1.9472    0.0881 H   0  0  0  0  0  0  0  0  0  0  0  0
    2.5529   -0.6060    0.6606 H   0  0  0  0  0  0  0  0  0  0  0  0
    1.2099   -1.1544    1.7132 H   0  0  0  0  0  0  0  0  0  0  0  0
    0.1269   -1.5220   -1.5926 H   0  0  0  0  0  0  0  0  0  0  0  0
    0.1555    0.2461   -2.1676 H   0  0  0  0  0  0  0  0  0  0  0  0
   -1.3863   -2.0935    0.6629 H   0  0  0  0  0  0  0  0  0  0  0  0
   -0.2225    2.8366   -0.8993 H   0  0  0  0  0  0  0  0  0  0  0  0
   -0.3581    2.7190    0.8676 H   0  0  0  0  0  0  0  0  0  0  0  0
  1  2  1  0
  2  3  1  0
  3  4  1  0
  4  5  1  0
  5  6  2  0
  4  7  1  0
  7  8  1  0
  8  9  1  0
  4  2  1  0
  9  2  1  0
  1 10  1  0
  1 11  1  0
  1 12  1  0
  3 13  1  0
  3 14  1  0
  5 15  1  0
  8 16  1  0
  8 17  1  0
M  END
