
     RDKit          3D

 21 23  0  0  0  0  0  0  0  0999 V2000
    2.0617    0.1884    0.7120 C   0  0  0  0  0  0  0  0  0  0  0  0
    1.0316   -0.2492   -0.2719 C   0  0  0  0  0  0  0  0  0  0  0  0
    1.0993   -1.6142   -0.7976 C   0  0  0  0  0  0  0  0  0  0  0  0
    0.0255   -1.3510    0.1710 C   0  0  0  0  0  0  0  0  0  0  0  0
   -1.0624   -0.4076   -0.3210 C   0  0  0  0  0  0  0  0  0  0  0  0
   -2.4280   -0.4740    0.2539 C   0  0  0  0  0  0  0  0  0  0  0  0
   -0.9693    0.1288   -1.5880 O   0  0  0  0  0  0  0  0  0  0  0  0
   -0.1879    0.6021   -0.5416 C   0  0  0  0  0  0  0  0  0  0  0  0
   -0.2239    2.0319   -0.1352 C   0  0  0  0  0  0  0  0  0  0  0  0
    2.4827   -0.7461    1.1856 H   0  0  0  0  0  0  0  0  0  0  0  0
    2.9067    0.6449    0.1730 H   0  0  0  0  0  0  0  0  0  0  0  0
    1.6661    0.8836    1.4748 H   0  0  0  0  0  0  0  0  0  0  0  0
    0.7464   -1.7668   -1.8598 H   0  0  0  0  0  0  0  0  0  0  0  0
    1.9975   -2.2024   -0.5393 H   0  0  0  0  0  0  0  0  0  0  0  0
    0.0800   -1.5507    1.2358 H   0  0  0  0  0  0  0  0  0  0  0  0
   -2.9548    0.4847   -0.0053 H   0  0  0  0  0  0  0  0  0  0  0  0
   -3.0271   -1.2625   -0.2903 H   0  0  0  0  0  0  0  0  0  0  0  0
   -2.4615   -0.5852    1.3352 H   0  0  0  0  0  0  0  0  0  0  0  0
    0.6760    2.3380    0.3915 H   0  0  0  0  0  0  0  0  0  0  0  0
   -0.3303    2.6453   -1.0771 H   0  0  0  0  0  0  0  0  0  0  0  0
   -1.1283    2.2619    0.4944 H   0  0  0  0  0  0  0  0  0  0  0  0
  1  2  1  0
  2  3  1  0
  3  4  1  0
  4  5  1  0
  5  6  1  0
  5  7  1  0
  7  8  1  0
  8  9  1  0
  4  2  1  0
  8  5  1  0
  8  2  1  0
  1 10  1  0
  1 11  1  0
  1 12  1  0
  3 13  1  0
  3 14  1  0
  4 15  1  0
  6 16  1  0
  6 17  1  0
  6 18  1  0
  9 19  1  0
  9 20  1  0
  9 21  1  0
M  END
