
     RDKit          3D

 19 20  0  0  0  0  0  0  0  0999 V2000
   -1.3363    0.0657   -1.4105 C   0  0  0  0  0  0  0  0  0  0  0  0
   -1.0032   -0.4964   -0.0720 C   0  0  0  0  0  0  0  0  0  0  0  0
   -1.9922   -0.8781    0.8120 O   0  0  0  0  0  0  0  0  0  0  0  0
   -1.3654    0.3025    1.1087 C   0  0  0  0  0  0  0  0  0  0  0  0
    0.0695    0.3539    1.5226 C   0  0  0  0  0  0  0  0  0  0  0  0
    0.3887   -0.6332    0.4268 C   0  0  0  0  0  0  0  0  0  0  0  0
    0.6014   -1.8979    0.9772 O   0  0  0  0  0  0  0  0  0  0  0  0
    1.5102   -0.2485   -0.4722 C   0  0  0  0  0  0  0  0  0  0  0  0
    1.3943    0.9770   -1.0612 O   0  0  0  0  0  0  0  0  0  0  0  0
   -0.9113    1.0926   -1.5750 H   0  0  0  0  0  0  0  0  0  0  0  0
   -1.1038   -0.6081   -2.2551 H   0  0  0  0  0  0  0  0  0  0  0  0
   -2.4501    0.2238   -1.4349 H   0  0  0  0  0  0  0  0  0  0  0  0
   -1.9830    1.2128    1.0618 H   0  0  0  0  0  0  0  0  0  0  0  0
    0.2288    0.0126    2.5477 H   0  0  0  0  0  0  0  0  0  0  0  0
    0.4972    1.3671    1.3743 H   0  0  0  0  0  0  0  0  0  0  0  0
    1.4624   -1.9274    1.4634 H   0  0  0  0  0  0  0  0  0  0  0  0
    1.6579   -1.0322   -1.2429 H   0  0  0  0  0  0  0  0  0  0  0  0
    2.4491   -0.2572    0.1441 H   0  0  0  0  0  0  0  0  0  0  0  0
    1.8860    0.9838   -1.9148 H   0  0  0  0  0  0  0  0  0  0  0  0
  1  2  1  0
  2  3  1  0
  3  4  1  0
  4  5  1  0
  5  6  1  0
  6  7  1  0
  6  8  1  0
  8  9  1  0
  4  2  1  0
  6  2  1  0
  1 10  1  0
  1 11  1  0
  1 12  1  0
  4 13  1  0
  5 14  1  0
  5 15  1  0
  7 16  1  0
  8 17  1  0
  8 18  1  0
  9 19  1  0
M  END
