
     RDKit          2D

 17 20  0  0  0  0  0  0  0  0999 V2000
    1.9267    1.0607    0.0000 C   0  0  0  0  0  0  0  0  0  0  0  0
    0.8660    0.0000    0.0000 C   0  0  0  0  0  0  0  0  0  0  0  0
    1.6160   -1.2990    0.0000 C   0  0  0  0  0  0  0  0  0  0  0  0
    0.3170   -2.0490    0.0000 C   0  0  0  0  0  0  0  0  0  0  0  0
    1.0670   -3.3481    0.0000 C   0  0  0  0  0  0  0  0  0  0  0  0
    0.6788   -4.7970    0.0000 O   0  0  0  0  0  0  0  0  0  0  0  0
    2.3660   -2.5981    0.0000 C   0  0  0  0  0  0  0  0  0  0  0  0
   -0.4330    0.7500    0.0000 C   0  0  0  0  0  0  0  0  0  0  0  0
   -0.4330   -0.7500    0.0000 C   0  0  0  0  0  0  0  0  0  0  0  0
    2.9873    2.1213    0.0000 H   0  0  0  0  0  0  0  0  0  0  0  0
    0.8660    2.1213    0.0000 H   0  0  0  0  0  0  0  0  0  0  0  0
    2.9905    0.2295    0.0000 H   0  0  0  0  0  0  0  0  0  0  0  0
    2.8587   -0.7716    0.0000 H   0  0  0  0  0  0  0  0  0  0  0  0
   -0.9821   -2.7990    0.0000 H   0  0  0  0  0  0  0  0  0  0  0  0
    3.8149   -2.9863    0.0000 H   0  0  0  0  0  0  0  0  0  0  0  0
   -1.1830    2.0490    0.0000 H   0  0  0  0  0  0  0  0  0  0  0  0
   -1.8819   -1.1382    0.0000 H   0  0  0  0  0  0  0  0  0  0  0  0
  1  2  1  0
  2  3  1  0
  3  4  1  0
  4  5  1  0
  5  6  2  0
  5  7  1  0
  7  8  1  0
  8  9  1  0
  8  2  1  0
  9  2  1  0
  7  3  1  0
  9  4  1  0
  1 10  1  0
  1 11  1  0
  1 12  1  0
  3 13  1  0
  4 14  1  0
  7 15  1  0
  8 16  1  0
  9 17  1  0
M  END
