
     RDKit          3D

 18 19  0  0  0  0  0  0  0  0999 V2000
    0.1563    1.9919   -0.3491 C   0  0  0  0  0  0  0  0  0  0  0  0
   -0.0483    0.6479   -0.2956 C   0  0  0  0  0  0  0  0  0  0  0  0
   -0.8064   -0.2134   -1.2867 C   0  0  0  0  0  0  0  0  0  0  0  0
   -0.3245   -1.1996   -0.2352 C   0  0  0  0  0  0  0  0  0  0  0  0
   -0.5129   -2.4323   -0.2114 O   0  0  0  0  0  0  0  0  0  0  0  0
   -0.7381   -0.1597    0.7694 C   0  0  0  0  0  0  0  0  0  0  0  0
    0.9863   -0.4539   -0.3227 C   0  0  0  0  0  0  0  0  0  0  0  0
    1.8115   -0.5338    0.7671 O   0  0  0  0  0  0  0  0  0  0  0  0
   -0.1687    2.4924   -1.3108 H   0  0  0  0  0  0  0  0  0  0  0  0
   -0.3768    2.5986    0.4428 H   0  0  0  0  0  0  0  0  0  0  0  0
    1.2315    2.3267   -0.2423 H   0  0  0  0  0  0  0  0  0  0  0  0
   -0.3006   -0.3712   -2.2467 H   0  0  0  0  0  0  0  0  0  0  0  0
   -1.8723    0.0004   -1.2918 H   0  0  0  0  0  0  0  0  0  0  0  0
   -1.0369   -2.8235    0.5413 H   0  0  0  0  0  0  0  0  0  0  0  0
   -0.2714   -0.1959    1.7513 H   0  0  0  0  0  0  0  0  0  0  0  0
   -1.8410   -0.0891    0.8012 H   0  0  0  0  0  0  0  0  0  0  0  0
    1.4457   -0.6342   -1.3148 H   0  0  0  0  0  0  0  0  0  0  0  0
    2.6664   -0.9512    0.4641 H   0  0  0  0  0  0  0  0  0  0  0  0
  1  2  1  0
  2  3  1  0
  3  4  1  0
  4  5  1  0
  4  6  1  0
  4  7  1  0
  7  8  1  0
  6  2  1  0
  7  2  1  0
  1  9  1  0
  1 10  1  0
  1 11  1  0
  3 12  1  0
  3 13  1  0
  5 14  1  0
  6 15  1  0
  6 16  1  0
  7 17  1  0
  8 18  1  0
M  END
