
     RDKit          3D

 18 19  0  0  0  0  0  0  0  0999 V2000
    2.1322    0.5482    0.3655 C   0  0  0  0  0  0  0  0  0  0  0  0
    0.8320    0.0366   -0.1017 C   0  0  0  0  0  0  0  0  0  0  0  0
    0.5176   -1.3978    0.3480 C   0  0  0  0  0  0  0  0  0  0  0  0
   -0.9496   -1.0353    0.0760 C   0  0  0  0  0  0  0  0  0  0  0  0
   -1.8059   -1.2736    1.1206 O   0  0  0  0  0  0  0  0  0  0  0  0
   -0.4458    0.3907   -0.0585 C   0  0  0  0  0  0  0  0  0  0  0  0
   -1.2746    1.5440    0.2854 C   0  0  0  0  0  0  0  0  0  0  0  0
    0.3247    0.4832   -1.2980 O   0  0  0  0  0  0  0  0  0  0  0  0
    2.8908   -0.2877    0.3096 H   0  0  0  0  0  0  0  0  0  0  0  0
    2.0918    0.9345    1.4009 H   0  0  0  0  0  0  0  0  0  0  0  0
    2.5631    1.3407   -0.3073 H   0  0  0  0  0  0  0  0  0  0  0  0
    0.9261   -2.1806   -0.2816 H   0  0  0  0  0  0  0  0  0  0  0  0
    0.7058   -1.4549    1.4379 H   0  0  0  0  0  0  0  0  0  0  0  0
   -1.2891   -1.4840   -0.8904 H   0  0  0  0  0  0  0  0  0  0  0  0
   -2.6508   -1.6950    0.7677 H   0  0  0  0  0  0  0  0  0  0  0  0
   -2.3352    1.3649   -0.0273 H   0  0  0  0  0  0  0  0  0  0  0  0
   -1.3342    1.7106    1.3947 H   0  0  0  0  0  0  0  0  0  0  0  0
   -0.8990    2.4555   -0.2293 H   0  0  0  0  0  0  0  0  0  0  0  0
  1  2  1  0
  2  3  1  0
  3  4  1  0
  4  5  1  0
  4  6  1  0
  6  7  1  0
  6  8  1  0
  6  2  1  0
  8  2  1  0
  1  9  1  0
  1 10  1  0
  1 11  1  0
  3 12  1  0
  3 13  1  0
  4 14  1  0
  5 15  1  0
  7 16  1  0
  7 17  1  0
  7 18  1  0
M  END
