
     RDKit          3D

 19 21  0  0  0  0  0  0  0  0999 V2000
   -1.9524   -0.6871   -0.1704 C   0  0  0  0  0  0  0  0  0  0  0  0
   -0.7073   -0.0190    0.2362 C   0  0  0  0  0  0  0  0  0  0  0  0
   -0.7965    1.4518    0.3821 C   0  0  0  0  0  0  0  0  0  0  0  0
    0.3739    1.8905   -0.0030 C   0  0  0  0  0  0  0  0  0  0  0  0
    1.3431    0.9003   -0.4234 C   0  0  0  0  0  0  0  0  0  0  0  0
    1.4225   -0.5799   -0.3946 C   0  0  0  0  0  0  0  0  0  0  0  0
    0.9975   -1.3414    0.8606 C   0  0  0  0  0  0  0  0  0  0  0  0
   -0.0509   -0.5458    1.3095 O   0  0  0  0  0  0  0  0  0  0  0  0
    0.3401    0.0186   -0.9106 C   0  0  0  0  0  0  0  0  0  0  0  0
   -2.4874   -1.0637    0.7128 H   0  0  0  0  0  0  0  0  0  0  0  0
   -2.5590    0.0152   -0.7857 H   0  0  0  0  0  0  0  0  0  0  0  0
   -1.6986   -1.5655   -0.8279 H   0  0  0  0  0  0  0  0  0  0  0  0
   -1.6323    2.0018    0.7239 H   0  0  0  0  0  0  0  0  0  0  0  0
    0.6456    2.9709   -0.0297 H   0  0  0  0  0  0  0  0  0  0  0  0
    2.2159    1.0948    0.1597 H   0  0  0  0  0  0  0  0  0  0  0  0
    2.2381   -0.9970   -1.0268 H   0  0  0  0  0  0  0  0  0  0  0  0
    0.5535   -2.2987    0.5310 H   0  0  0  0  0  0  0  0  0  0  0  0
    1.8085   -1.4465    1.5762 H   0  0  0  0  0  0  0  0  0  0  0  0
   -0.0544    0.2009   -1.9199 H   0  0  0  0  0  0  0  0  0  0  0  0
  1  2  1  0
  2  3  1  0
  3  4  2  0
  4  5  1  0
  5  6  1  0
  6  7  1  0
  7  8  1  0
  6  9  1  0
  8  2  1  0
  9  2  1  0
  9  5  1  0
  1 10  1  0
  1 11  1  0
  1 12  1  0
  3 13  1  0
  4 14  1  0
  5 15  1  0
  6 16  1  0
  7 17  1  0
  7 18  1  0
  9 19  1  0
M  END
