
     RDKit          3D

 19 21  0  0  0  0  0  0  0  0999 V2000
    2.1002    0.6534   -0.9510 C   0  0  0  0  0  0  0  0  0  0  0  0
    0.9738   -0.0606   -0.3133 C   0  0  0  0  0  0  0  0  0  0  0  0
    1.3065   -0.9988    0.7953 C   0  0  0  0  0  0  0  0  0  0  0  0
    0.2944   -1.0843    1.6455 C   0  0  0  0  0  0  0  0  0  0  0  0
   -0.8027   -0.2058    1.1727 C   0  0  0  0  0  0  0  0  0  0  0  0
   -0.1172    0.7555    0.3069 C   0  0  0  0  0  0  0  0  0  0  0  0
   -1.0032   -0.2176   -0.3073 C   0  0  0  0  0  0  0  0  0  0  0  0
   -2.3979    0.0920   -0.7622 C   0  0  0  0  0  0  0  0  0  0  0  0
   -0.0153   -0.5678   -1.1807 O   0  0  0  0  0  0  0  0  0  0  0  0
    2.3897    1.5184   -0.3006 H   0  0  0  0  0  0  0  0  0  0  0  0
    2.9892    0.0276   -1.0472 H   0  0  0  0  0  0  0  0  0  0  0  0
    1.7962    1.0398   -1.9244 H   0  0  0  0  0  0  0  0  0  0  0  0
    2.2557   -1.5104    0.8480 H   0  0  0  0  0  0  0  0  0  0  0  0
    0.2485   -1.6843    2.5401 H   0  0  0  0  0  0  0  0  0  0  0  0
   -1.6222    0.0784    1.8105 H   0  0  0  0  0  0  0  0  0  0  0  0
   -0.1783    1.8172    0.3059 H   0  0  0  0  0  0  0  0  0  0  0  0
   -2.7545    1.0653   -0.3643 H   0  0  0  0  0  0  0  0  0  0  0  0
   -3.0443   -0.7615   -0.4090 H   0  0  0  0  0  0  0  0  0  0  0  0
   -2.4186    0.0436   -1.8649 H   0  0  0  0  0  0  0  0  0  0  0  0
  1  2  1  0
  2  3  1  0
  3  4  2  0
  4  5  1  0
  5  6  1  0
  6  7  1  0
  7  8  1  0
  7  9  1  0
  6  2  1  0
  9  2  1  0
  7  5  1  0
  1 10  1  0
  1 11  1  0
  1 12  1  0
  3 13  1  0
  4 14  1  0
  5 15  1  0
  6 16  1  0
  8 17  1  0
  8 18  1  0
  8 19  1  0
M  END
