
     RDKit          3D

 19 20  0  0  0  0  0  0  0  0999 V2000
   -1.9467   -0.5839    0.1817 C   0  0  0  0  0  0  0  0  0  0  0  0
   -0.6345   -0.0560   -0.3432 C   0  0  0  0  0  0  0  0  0  0  0  0
    0.2618   -1.1111   -0.9071 C   0  0  0  0  0  0  0  0  0  0  0  0
    1.5034   -1.2925   -0.4951 C   0  0  0  0  0  0  0  0  0  0  0  0
    2.0599   -0.4304    0.5687 C   0  0  0  0  0  0  0  0  0  0  0  0
    1.4836    0.8445    0.3931 O   0  0  0  0  0  0  0  0  0  0  0  0
    0.1254    0.8456    0.5798 C   0  0  0  0  0  0  0  0  0  0  0  0
   -0.5195    1.9367   -0.2522 C   0  0  0  0  0  0  0  0  0  0  0  0
   -0.8845    0.9958   -1.2421 O   0  0  0  0  0  0  0  0  0  0  0  0
   -2.3693    0.0434    0.9898 H   0  0  0  0  0  0  0  0  0  0  0  0
   -1.8884   -1.6583    0.4799 H   0  0  0  0  0  0  0  0  0  0  0  0
   -2.7192   -0.5518   -0.6422 H   0  0  0  0  0  0  0  0  0  0  0  0
   -0.1703   -1.7337   -1.6895 H   0  0  0  0  0  0  0  0  0  0  0  0
    2.1183   -2.0635   -0.9260 H   0  0  0  0  0  0  0  0  0  0  0  0
    3.1532   -0.2995    0.5015 H   0  0  0  0  0  0  0  0  0  0  0  0
    1.7485   -0.7686    1.5982 H   0  0  0  0  0  0  0  0  0  0  0  0
   -0.1686    0.8326    1.6405 H   0  0  0  0  0  0  0  0  0  0  0  0
   -1.3645    2.3966    0.2764 H   0  0  0  0  0  0  0  0  0  0  0  0
    0.2112    2.6539   -0.7121 H   0  0  0  0  0  0  0  0  0  0  0  0
  1  2  1  0
  2  3  1  0
  3  4  2  0
  4  5  1  0
  5  6  1  0
  6  7  1  0
  7  8  1  0
  8  9  1  0
  7  2  1  0
  9  2  1  0
  1 10  1  0
  1 11  1  0
  1 12  1  0
  3 13  1  0
  4 14  1  0
  5 15  1  0
  5 16  1  0
  7 17  1  0
  8 18  1  0
  8 19  1  0
M  END
