
     RDKit          3D

 19 21  0  0  0  0  0  0  0  0999 V2000
   -2.6232    0.2810   -0.0856 C   0  0  0  0  0  0  0  0  0  0  0  0
   -1.3989   -0.4425    0.3387 C   0  0  0  0  0  0  0  0  0  0  0  0
   -0.2888    0.3178    1.0763 C   0  0  0  0  0  0  0  0  0  0  0  0
    0.6879   -0.3439    0.1896 C   0  0  0  0  0  0  0  0  0  0  0  0
    1.6817    0.4741   -0.5358 C   0  0  0  0  0  0  0  0  0  0  0  0
    2.5232    0.0178    0.6561 C   0  0  0  0  0  0  0  0  0  0  0  0
    1.6732   -1.1109    0.7321 O   0  0  0  0  0  0  0  0  0  0  0  0
   -0.4016   -0.9965   -0.5687 C   0  0  0  0  0  0  0  0  0  0  0  0
   -1.2543   -1.8029    0.1696 O   0  0  0  0  0  0  0  0  0  0  0  0
   -2.8519    1.0899    0.6376 H   0  0  0  0  0  0  0  0  0  0  0  0
   -2.5353    0.6442   -1.1250 H   0  0  0  0  0  0  0  0  0  0  0  0
   -3.4855   -0.4441   -0.0076 H   0  0  0  0  0  0  0  0  0  0  0  0
   -0.2423   -0.1011    2.1146 H   0  0  0  0  0  0  0  0  0  0  0  0
   -0.4236    1.3987    1.0179 H   0  0  0  0  0  0  0  0  0  0  0  0
    1.5311    1.5577   -0.6046 H   0  0  0  0  0  0  0  0  0  0  0  0
    1.9713   -0.0343   -1.5004 H   0  0  0  0  0  0  0  0  0  0  0  0
    2.3375    0.6691    1.5167 H   0  0  0  0  0  0  0  0  0  0  0  0
    3.5650   -0.2078    0.4369 H   0  0  0  0  0  0  0  0  0  0  0  0
   -0.4656   -0.9663   -1.6687 H   0  0  0  0  0  0  0  0  0  0  0  0
  1  2  1  0
  2  3  1  0
  3  4  1  0
  4  5  1  0
  5  6  1  0
  6  7  1  0
  4  8  1  0
  8  9  1  0
  8  2  1  0
  9  2  1  0
  7  4  1  0
  1 10  1  0
  1 11  1  0
  1 12  1  0
  3 13  1  0
  3 14  1  0
  5 15  1  0
  5 16  1  0
  6 17  1  0
  6 18  1  0
  8 19  1  0
M  END
