
     RDKit          3D

 21 22  0  0  0  0  0  0  0  0999 V2000
   -2.0733    0.7759   -0.8052 C   0  0  0  0  0  0  0  0  0  0  0  0
   -0.9313    0.1639    0.0301 C   0  0  0  0  0  0  0  0  0  0  0  0
   -0.1666    1.1503    0.7573 C   0  0  0  0  0  0  0  0  0  0  0  0
    1.1352    1.3776    0.7746 C   0  0  0  0  0  0  0  0  0  0  0  0
    2.1601    0.6522    0.0279 C   0  0  0  0  0  0  0  0  0  0  0  0
    2.0506   -0.8255    0.1442 C   0  0  0  0  0  0  0  0  0  0  0  0
    0.9393   -1.5038   -0.0612 C   0  0  0  0  0  0  0  0  0  0  0  0
   -0.4015   -1.0620   -0.4310 C   0  0  0  0  0  0  0  0  0  0  0  0
   -1.4046   -1.1114    0.7363 C   0  0  0  0  0  0  0  0  0  0  0  0
   -2.5104   -0.0019   -1.4655 H   0  0  0  0  0  0  0  0  0  0  0  0
   -2.9044    1.1115   -0.1352 H   0  0  0  0  0  0  0  0  0  0  0  0
   -1.7151    1.6520   -1.3651 H   0  0  0  0  0  0  0  0  0  0  0  0
   -0.7694    1.8179    1.3991 H   0  0  0  0  0  0  0  0  0  0  0  0
    1.5153    2.1806    1.3989 H   0  0  0  0  0  0  0  0  0  0  0  0
    2.0285    0.8918   -1.0648 H   0  0  0  0  0  0  0  0  0  0  0  0
    3.1969    0.9660    0.2699 H   0  0  0  0  0  0  0  0  0  0  0  0
    2.9582   -1.3478    0.4161 H   0  0  0  0  0  0  0  0  0  0  0  0
    1.0279   -2.5771    0.0644 H   0  0  0  0  0  0  0  0  0  0  0  0
   -0.7584   -1.4865   -1.4136 H   0  0  0  0  0  0  0  0  0  0  0  0
   -2.3611   -1.5589    0.4854 H   0  0  0  0  0  0  0  0  0  0  0  0
   -1.0159   -1.2646    1.7497 H   0  0  0  0  0  0  0  0  0  0  0  0
  1  2  1  0
  2  3  1  0
  3  4  2  0
  4  5  1  0
  5  6  1  0
  6  7  2  0
  7  8  1  0
  8  9  1  0
  8  2  1  0
  9  2  1  0
  1 10  1  0
  1 11  1  0
  1 12  1  0
  3 13  1  0
  4 14  1  0
  5 15  1  0
  5 16  1  0
  6 17  1  0
  7 18  1  0
  8 19  1  0
  9 20  1  0
  9 21  1  0
M  END
