
     RDKit          3D

 17 18  0  0  0  0  0  0  0  0999 V2000
    1.8820    0.2937   -0.1443 C   0  0  0  0  0  0  0  0  0  0  0  0
    0.5007   -0.0004    0.0466 C   0  0  0  0  0  0  0  0  0  0  0  0
    0.0190   -0.9628    1.0555 C   0  0  0  0  0  0  0  0  0  0  0  0
   -1.3225   -0.9199    0.8901 C   0  0  0  0  0  0  0  0  0  0  0  0
   -1.4907    0.0478   -0.1977 C   0  0  0  0  0  0  0  0  0  0  0  0
   -0.5077    1.1463    0.2242 C   0  0  0  0  0  0  0  0  0  0  0  0
   -0.3743   -0.3811   -1.1551 C   0  0  0  0  0  0  0  0  0  0  0  0
    2.0446    1.3994   -0.3139 H   0  0  0  0  0  0  0  0  0  0  0  0
    2.5262    0.0246    0.6994 H   0  0  0  0  0  0  0  0  0  0  0  0
    2.2827   -0.1757   -1.0897 H   0  0  0  0  0  0  0  0  0  0  0  0
    0.5736   -1.5664    1.7641 H   0  0  0  0  0  0  0  0  0  0  0  0
   -2.0524   -1.4859    1.4536 H   0  0  0  0  0  0  0  0  0  0  0  0
   -2.4214    0.3191   -0.5865 H   0  0  0  0  0  0  0  0  0  0  0  0
   -0.6127    1.4872    1.2561 H   0  0  0  0  0  0  0  0  0  0  0  0
   -0.4452    1.9055   -0.5637 H   0  0  0  0  0  0  0  0  0  0  0  0
   -0.1779    0.3156   -1.9683 H   0  0  0  0  0  0  0  0  0  0  0  0
   -0.4239   -1.4470   -1.3706 H   0  0  0  0  0  0  0  0  0  0  0  0
  1  2  1  0
  2  3  1  0
  3  4  2  0
  4  5  1  0
  5  6  1  0
  5  7  1  0
  6  2  1  0
  7  2  1  0
  1  8  1  0
  1  9  1  0
  1 10  1  0
  3 11  1  0
  4 12  1  0
  5 13  1  0
  6 14  1  0
  6 15  1  0
  7 16  1  0
  7 17  1  0
M  END
