
     RDKit          3D

 19 21  0  0  0  0  0  0  0  0999 V2000
   -1.7667    0.9902   -0.8226 C   0  0  0  0  0  0  0  0  0  0  0  0
   -0.8281   -0.0861   -0.4312 C   0  0  0  0  0  0  0  0  0  0  0  0
   -1.1827   -1.2955    0.2967 C   0  0  0  0  0  0  0  0  0  0  0  0
   -0.6170   -0.2012    1.0919 C   0  0  0  0  0  0  0  0  0  0  0  0
    0.7017   -0.0027    1.3278 O   0  0  0  0  0  0  0  0  0  0  0  0
    1.3164    0.5267    0.2332 C   0  0  0  0  0  0  0  0  0  0  0  0
    2.3686   -0.4135   -0.3083 C   0  0  0  0  0  0  0  0  0  0  0  0
    1.3260   -1.1842   -0.8366 O   0  0  0  0  0  0  0  0  0  0  0  0
    0.5863   -0.0141   -0.9751 C   0  0  0  0  0  0  0  0  0  0  0  0
   -2.4351    1.2783    0.0358 H   0  0  0  0  0  0  0  0  0  0  0  0
   -1.1547    1.9167   -1.0255 H   0  0  0  0  0  0  0  0  0  0  0  0
   -2.3985    0.7064   -1.6672 H   0  0  0  0  0  0  0  0  0  0  0  0
   -2.2424   -1.5897    0.5024 H   0  0  0  0  0  0  0  0  0  0  0  0
   -0.5696   -2.2126    0.0517 H   0  0  0  0  0  0  0  0  0  0  0  0
   -1.3128    0.3507    1.7489 H   0  0  0  0  0  0  0  0  0  0  0  0
    1.5325    1.5875    0.1962 H   0  0  0  0  0  0  0  0  0  0  0  0
    3.0703    0.0067   -1.0346 H   0  0  0  0  0  0  0  0  0  0  0  0
    2.8949   -0.8910    0.5607 H   0  0  0  0  0  0  0  0  0  0  0  0
    0.7111    0.5273   -1.9098 H   0  0  0  0  0  0  0  0  0  0  0  0
  1  2  1  0
  2  3  1  0
  3  4  1  0
  4  5  1  0
  5  6  1  0
  6  7  1  0
  7  8  1  0
  8  9  1  0
  4  2  1  0
  9  6  1  0
  9  2  1  0
  1 10  1  0
  1 11  1  0
  1 12  1  0
  3 13  1  0
  3 14  1  0
  4 15  1  0
  6 16  1  0
  7 17  1  0
  7 18  1  0
  9 19  1  0
M  END
