
     RDKit          3D

 21 23  0  0  0  0  0  0  0  0999 V2000
   -1.1004    1.7527   -0.7980 C   0  0  0  0  0  0  0  0  0  0  0  0
   -0.4413    0.5549   -0.2240 C   0  0  0  0  0  0  0  0  0  0  0  0
    0.2981   -0.4290   -1.0903 C   0  0  0  0  0  0  0  0  0  0  0  0
    1.6693   -0.5031   -0.4600 C   0  0  0  0  0  0  0  0  0  0  0  0
    1.5240   -0.0028    0.9438 C   0  0  0  0  0  0  0  0  0  0  0  0
    0.1350    0.5025    1.1212 C   0  0  0  0  0  0  0  0  0  0  0  0
   -1.0640   -0.2946    0.8129 C   0  0  0  0  0  0  0  0  0  0  0  0
   -0.9840   -1.6776    0.2513 C   0  0  0  0  0  0  0  0  0  0  0  0
   -0.3264   -1.6391   -0.9444 O   0  0  0  0  0  0  0  0  0  0  0  0
   -0.7454    2.0229   -1.7970 H   0  0  0  0  0  0  0  0  0  0  0  0
   -1.0053    2.6723   -0.1591 H   0  0  0  0  0  0  0  0  0  0  0  0
   -2.2021    1.5805   -0.8886 H   0  0  0  0  0  0  0  0  0  0  0  0
    0.3212   -0.0790   -2.1384 H   0  0  0  0  0  0  0  0  0  0  0  0
    2.0473   -1.5569   -0.4492 H   0  0  0  0  0  0  0  0  0  0  0  0
    2.4301    0.0650   -1.0543 H   0  0  0  0  0  0  0  0  0  0  0  0
    1.8041   -0.7415    1.7110 H   0  0  0  0  0  0  0  0  0  0  0  0
    2.2378    0.8527    1.0659 H   0  0  0  0  0  0  0  0  0  0  0  0
    0.0212    1.3339    1.8248 H   0  0  0  0  0  0  0  0  0  0  0  0
   -2.0169    0.0337    1.2372 H   0  0  0  0  0  0  0  0  0  0  0  0
   -0.5690   -2.4142    0.9789 H   0  0  0  0  0  0  0  0  0  0  0  0
   -2.0332   -2.0334    0.0564 H   0  0  0  0  0  0  0  0  0  0  0  0
  1  2  1  0
  2  3  1  0
  3  4  1  0
  4  5  1  0
  5  6  1  0
  6  7  1  0
  7  8  1  0
  8  9  1  0
  6  2  1  0
  7  2  1  0
  9  3  1  0
  1 10  1  0
  1 11  1  0
  1 12  1  0
  3 13  1  0
  4 14  1  0
  4 15  1  0
  5 16  1  0
  5 17  1  0
  6 18  1  0
  7 19  1  0
  8 20  1  0
  8 21  1  0
M  END
