
     RDKit          3D

 19 21  0  0  0  0  0  0  0  0999 V2000
    0.4521    1.8753   -0.2383 C   0  0  0  0  0  0  0  0  0  0  0  0
    0.4639    0.4288    0.1377 C   0  0  0  0  0  0  0  0  0  0  0  0
    1.6844   -0.0136    0.5771 O   0  0  0  0  0  0  0  0  0  0  0  0
    1.7754   -1.3519    0.2736 C   0  0  0  0  0  0  0  0  0  0  0  0
    0.9003   -1.6505   -0.7299 O   0  0  0  0  0  0  0  0  0  0  0  0
    0.0943   -0.5360   -0.9563 C   0  0  0  0  0  0  0  0  0  0  0  0
   -1.2743   -0.7605   -0.4008 C   0  0  0  0  0  0  0  0  0  0  0  0
   -2.0522    0.2877    0.2761 C   0  0  0  0  0  0  0  0  0  0  0  0
   -0.7469   -0.0708    0.8889 C   0  0  0  0  0  0  0  0  0  0  0  0
    1.2944    2.0366   -0.9567 H   0  0  0  0  0  0  0  0  0  0  0  0
   -0.4563    2.2069   -0.7433 H   0  0  0  0  0  0  0  0  0  0  0  0
    0.6310    2.4702    0.6815 H   0  0  0  0  0  0  0  0  0  0  0  0
    1.6172   -1.9417    1.2111 H   0  0  0  0  0  0  0  0  0  0  0  0
    2.8171   -1.5191   -0.1283 H   0  0  0  0  0  0  0  0  0  0  0  0
    0.1662   -0.1415   -1.9791 H   0  0  0  0  0  0  0  0  0  0  0  0
   -1.6027   -1.7943   -0.3252 H   0  0  0  0  0  0  0  0  0  0  0  0
   -2.1842    1.2891   -0.1652 H   0  0  0  0  0  0  0  0  0  0  0  0
   -2.9319   -0.0528    0.8514 H   0  0  0  0  0  0  0  0  0  0  0  0
   -0.6479   -0.7620    1.7258 H   0  0  0  0  0  0  0  0  0  0  0  0
  1  2  1  0
  2  3  1  0
  3  4  1  0
  4  5  1  0
  5  6  1  0
  6  7  1  0
  7  8  1  0
  8  9  1  0
  6  2  1  0
  9  7  1  0
  9  2  1  0
  1 10  1  0
  1 11  1  0
  1 12  1  0
  4 13  1  0
  4 14  1  0
  6 15  1  0
  7 16  1  0
  8 17  1  0
  8 18  1  0
  9 19  1  0
M  END
