
     RDKit          3D

 19 20  0  0  0  0  0  0  0  0999 V2000
    0.4242    1.6602    0.1268 C   0  0  0  0  0  0  0  0  0  0  0  0
    0.3123    0.1910    0.4751 C   0  0  0  0  0  0  0  0  0  0  0  0
   -0.6178   -0.0589    1.5888 C   0  0  0  0  0  0  0  0  0  0  0  0
   -1.8140   -0.4080    1.1092 C   0  0  0  0  0  0  0  0  0  0  0  0
   -1.7679   -0.4167   -0.4020 C   0  0  0  0  0  0  0  0  0  0  0  0
   -0.3360   -0.5896   -0.6096 C   0  0  0  0  0  0  0  0  0  0  0  0
    0.6494   -1.1064   -1.2945 C   0  0  0  0  0  0  0  0  0  0  0  0
    1.9602   -0.6722   -0.6685 C   0  0  0  0  0  0  0  0  0  0  0  0
    1.5804   -0.3415    0.6330 O   0  0  0  0  0  0  0  0  0  0  0  0
   -0.3398    2.2746    0.6828 H   0  0  0  0  0  0  0  0  0  0  0  0
    1.4170    2.0256    0.4605 H   0  0  0  0  0  0  0  0  0  0  0  0
    0.3447    1.8557   -0.9447 H   0  0  0  0  0  0  0  0  0  0  0  0
   -0.3362    0.0369    2.6470 H   0  0  0  0  0  0  0  0  0  0  0  0
   -2.6915   -0.6506    1.6859 H   0  0  0  0  0  0  0  0  0  0  0  0
   -2.3957   -1.2223   -0.8097 H   0  0  0  0  0  0  0  0  0  0  0  0
   -2.0641    0.5976   -0.7225 H   0  0  0  0  0  0  0  0  0  0  0  0
    0.6567   -1.7435   -2.1674 H   0  0  0  0  0  0  0  0  0  0  0  0
    2.5972   -1.5780   -0.5752 H   0  0  0  0  0  0  0  0  0  0  0  0
    2.4209    0.1462   -1.2150 H   0  0  0  0  0  0  0  0  0  0  0  0
  1  2  1  0
  2  3  1  0
  3  4  2  0
  4  5  1  0
  5  6  1  0
  6  7  2  0
  7  8  1  0
  8  9  1  0
  6  2  1  0
  9  2  1  0
  1 10  1  0
  1 11  1  0
  1 12  1  0
  3 13  1  0
  4 14  1  0
  5 15  1  0
  5 16  1  0
  7 17  1  0
  8 18  1  0
  8 19  1  0
M  END
