
     RDKit          3D

 16 17  0  0  0  0  0  0  0  0999 V2000
    1.7028   -0.0479    0.5962 C   0  0  0  0  0  0  0  0  0  0  0  0
    0.6100   -0.4469   -0.3287 C   0  0  0  0  0  0  0  0  0  0  0  0
    0.8545   -0.9487   -1.5845 O   0  0  0  0  0  0  0  0  0  0  0  0
    0.2438    0.2721   -1.4449 C   0  0  0  0  0  0  0  0  0  0  0  0
   -1.1716    0.3980   -0.9631 C   0  0  0  0  0  0  0  0  0  0  0  0
   -0.8055   -0.5970    0.1466 C   0  0  0  0  0  0  0  0  0  0  0  0
   -1.1184   -0.0912    1.4787 C   0  0  0  0  0  0  0  0  0  0  0  0
   -2.1278    0.5621    1.6673 O   0  0  0  0  0  0  0  0  0  0  0  0
    1.5040    0.9222    1.1336 H   0  0  0  0  0  0  0  0  0  0  0  0
    2.6126    0.1596   -0.0192 H   0  0  0  0  0  0  0  0  0  0  0  0
    1.9984   -0.8242    1.3211 H   0  0  0  0  0  0  0  0  0  0  0  0
    0.6726    1.1032   -1.9921 H   0  0  0  0  0  0  0  0  0  0  0  0
   -1.8826   -0.0021   -1.6897 H   0  0  0  0  0  0  0  0  0  0  0  0
   -1.3639    1.4100   -0.5648 H   0  0  0  0  0  0  0  0  0  0  0  0
   -1.2435   -1.6005   -0.0923 H   0  0  0  0  0  0  0  0  0  0  0  0
   -0.4853   -0.2687    2.3359 H   0  0  0  0  0  0  0  0  0  0  0  0
  1  2  1  0
  2  3  1  0
  3  4  1  0
  4  5  1  0
  5  6  1  0
  6  7  1  0
  7  8  2  0
  4  2  1  0
  6  2  1  0
  1  9  1  0
  1 10  1  0
  1 11  1  0
  4 12  1  0
  5 13  1  0
  5 14  1  0
  6 15  1  0
  7 16  1  0
M  END
