
     RDKit          3D

 21 22  0  0  0  0  0  0  0  0999 V2000
   -1.8227   -0.7216   -0.6530 C   0  0  0  0  0  0  0  0  0  0  0  0
   -0.4619   -0.5399   -0.0187 C   0  0  0  0  0  0  0  0  0  0  0  0
    0.5432   -1.5152   -0.4768 C   0  0  0  0  0  0  0  0  0  0  0  0
    1.8032   -1.1694   -0.4948 C   0  0  0  0  0  0  0  0  0  0  0  0
    2.2497    0.1765   -0.0673 C   0  0  0  0  0  0  0  0  0  0  0  0
    1.2979    1.1293   -0.0636 O   0  0  0  0  0  0  0  0  0  0  0  0
    0.0342    0.8056    0.2786 C   0  0  0  0  0  0  0  0  0  0  0  0
   -0.9821    1.9361    0.0564 C   0  0  0  0  0  0  0  0  0  0  0  0
   -0.3314   -0.1028    1.3930 C   0  0  0  0  0  0  0  0  0  0  0  0
   -2.6101   -0.1540   -0.1638 H   0  0  0  0  0  0  0  0  0  0  0  0
   -2.1167   -1.8049   -0.5871 H   0  0  0  0  0  0  0  0  0  0  0  0
   -1.7009   -0.5006   -1.7336 H   0  0  0  0  0  0  0  0  0  0  0  0
    0.2340   -2.4897   -0.7873 H   0  0  0  0  0  0  0  0  0  0  0  0
    2.5600   -1.8651   -0.8259 H   0  0  0  0  0  0  0  0  0  0  0  0
    3.0523    0.4846   -0.8010 H   0  0  0  0  0  0  0  0  0  0  0  0
    2.7838    0.0958    0.9074 H   0  0  0  0  0  0  0  0  0  0  0  0
   -1.5010    2.1784    1.0194 H   0  0  0  0  0  0  0  0  0  0  0  0
   -0.4985    2.8438   -0.3558 H   0  0  0  0  0  0  0  0  0  0  0  0
   -1.7645    1.6374   -0.6535 H   0  0  0  0  0  0  0  0  0  0  0  0
    0.4869   -0.5108    2.0241 H   0  0  0  0  0  0  0  0  0  0  0  0
   -1.2554    0.0865    2.0033 H   0  0  0  0  0  0  0  0  0  0  0  0
  1  2  1  0
  2  3  1  0
  3  4  2  0
  4  5  1  0
  5  6  1  0
  6  7  1  0
  7  8  1  0
  7  9  1  0
  7  2  1  0
  9  2  1  0
  1 10  1  0
  1 11  1  0
  1 12  1  0
  3 13  1  0
  4 14  1  0
  5 15  1  0
  5 16  1  0
  8 17  1  0
  8 18  1  0
  8 19  1  0
  9 20  1  0
  9 21  1  0
M  END
