
     RDKit          3D

 17 20  0  0  0  0  0  0  0  0999 V2000
    1.8736    0.1009    0.5375 C   0  0  0  0  0  0  0  0  0  0  0  0
    0.4679   -0.2408    0.3768 C   0  0  0  0  0  0  0  0  0  0  0  0
   -0.0832   -1.2095   -0.6029 C   0  0  0  0  0  0  0  0  0  0  0  0
   -1.5250   -1.2305   -0.3206 C   0  0  0  0  0  0  0  0  0  0  0  0
   -1.6914   -0.7006    0.9466 O   0  0  0  0  0  0  0  0  0  0  0  0
   -0.6727    0.2566    1.1118 C   0  0  0  0  0  0  0  0  0  0  0  0
   -0.4315    0.8230   -0.2161 C   0  0  0  0  0  0  0  0  0  0  0  0
   -0.0025    2.0582   -0.5090 O   0  0  0  0  0  0  0  0  0  0  0  0
   -0.9570   -0.1743   -1.1645 C   0  0  0  0  0  0  0  0  0  0  0  0
    2.2384    0.1888    1.5918 H   0  0  0  0  0  0  0  0  0  0  0  0
    2.1315    1.0995    0.0746 H   0  0  0  0  0  0  0  0  0  0  0  0
    2.5410   -0.6242    0.0259 H   0  0  0  0  0  0  0  0  0  0  0  0
    0.4798   -1.9419   -1.1451 H   0  0  0  0  0  0  0  0  0  0  0  0
   -2.2196   -1.9944   -0.6405 H   0  0  0  0  0  0  0  0  0  0  0  0
   -0.6881    0.9170    1.9613 H   0  0  0  0  0  0  0  0  0  0  0  0
   -0.3453    2.7035    0.1876 H   0  0  0  0  0  0  0  0  0  0  0  0
   -1.1158   -0.0314   -2.2153 H   0  0  0  0  0  0  0  0  0  0  0  0
  1  2  1  0
  2  3  1  0
  3  4  1  0
  4  5  1  0
  5  6  1  0
  6  7  1  0
  7  8  1  0
  7  9  1  0
  6  2  1  0
  7  2  1  0
  9  3  1  0
  9  4  1  0
  1 10  1  0
  1 11  1  0
  1 12  1  0
  3 13  1  0
  4 14  1  0
  6 15  1  0
  8 16  1  0
  9 17  1  0
M  END
