
     RDKit          3D

 15 17  0  0  0  0  0  0  0  0999 V2000
   -1.9225    0.0981   -0.1560 C   0  0  0  0  0  0  0  0  0  0  0  0
   -0.4963    0.1910    0.0572 C   0  0  0  0  0  0  0  0  0  0  0  0
    0.0611    1.4085    0.5511 O   0  0  0  0  0  0  0  0  0  0  0  0
    1.4354    1.1469    0.5065 C   0  0  0  0  0  0  0  0  0  0  0  0
    2.3263    1.9822    0.7925 O   0  0  0  0  0  0  0  0  0  0  0  0
    1.4975   -0.2448    0.0719 C   0  0  0  0  0  0  0  0  0  0  0  0
    0.4602   -0.3342   -0.9805 C   0  0  0  0  0  0  0  0  0  0  0  0
    0.1697   -1.5988   -0.5018 O   0  0  0  0  0  0  0  0  0  0  0  0
    0.2859   -0.8827    0.6831 C   0  0  0  0  0  0  0  0  0  0  0  0
   -2.4043   -0.6415    0.5058 H   0  0  0  0  0  0  0  0  0  0  0  0
   -2.1609   -0.1537   -1.2168 H   0  0  0  0  0  0  0  0  0  0  0  0
   -2.3945    1.1118    0.0043 H   0  0  0  0  0  0  0  0  0  0  0  0
    2.4119   -0.7737    0.0110 H   0  0  0  0  0  0  0  0  0  0  0  0
    0.5089   -0.0421   -1.9445 H   0  0  0  0  0  0  0  0  0  0  0  0
    0.2217   -1.2671    1.6163 H   0  0  0  0  0  0  0  0  0  0  0  0
  1  2  1  0
  2  3  1  0
  3  4  1  0
  4  5  2  0
  4  6  1  0
  6  7  1  0
  7  8  1  0
  8  9  1  0
  7  2  1  0
  9  2  1  0
  9  6  1  0
  1 10  1  0
  1 11  1  0
  1 12  1  0
  6 13  1  0
  7 14  1  0
  9 15  1  0
M  END
