
     RDKit          3D

 21 24  0  0  0  0  0  0  0  0999 V2000
    2.3579    0.2452    0.4467 C   0  0  0  0  0  0  0  0  0  0  0  0
    0.9280   -0.2423    0.3954 C   0  0  0  0  0  0  0  0  0  0  0  0
    0.6024   -1.1175   -0.8481 C   0  0  0  0  0  0  0  0  0  0  0  0
   -0.9011   -0.9333   -1.2056 C   0  0  0  0  0  0  0  0  0  0  0  0
   -1.9078   -0.0044   -0.4338 C   0  0  0  0  0  0  0  0  0  0  0  0
   -1.5859    0.8604    0.8226 C   0  0  0  0  0  0  0  0  0  0  0  0
   -0.0914    0.6482    1.1618 C   0  0  0  0  0  0  0  0  0  0  0  0
   -0.0094    0.5055   -0.1338 C   0  0  0  0  0  0  0  0  0  0  0  0
   -1.0109   -0.7743    0.0349 C   0  0  0  0  0  0  0  0  0  0  0  0
    2.4373    1.0760    1.1491 H   0  0  0  0  0  0  0  0  0  0  0  0
    2.6556    0.5598   -0.5970 H   0  0  0  0  0  0  0  0  0  0  0  0
    2.9791   -0.6320    0.7243 H   0  0  0  0  0  0  0  0  0  0  0  0
    0.7565   -2.1765   -0.5532 H   0  0  0  0  0  0  0  0  0  0  0  0
    1.2519   -0.8321   -1.6729 H   0  0  0  0  0  0  0  0  0  0  0  0
   -1.0333   -0.8576   -2.2651 H   0  0  0  0  0  0  0  0  0  0  0  0
   -2.7763    0.2271   -0.9585 H   0  0  0  0  0  0  0  0  0  0  0  0
   -1.7901    1.8908    0.5466 H   0  0  0  0  0  0  0  0  0  0  0  0
   -2.2092    0.4620    1.6480 H   0  0  0  0  0  0  0  0  0  0  0  0
    0.3454    1.3601    1.8138 H   0  0  0  0  0  0  0  0  0  0  0  0
   -0.0207    1.1629   -0.9466 H   0  0  0  0  0  0  0  0  0  0  0  0
   -0.9779   -1.4280    0.8716 H   0  0  0  0  0  0  0  0  0  0  0  0
  1  2  1  0
  2  3  1  0
  3  4  1  0
  4  5  1  0
  5  6  1  0
  6  7  1  0
  7  8  1  0
  8  9  1  0
  7  2  1  0
  8  2  1  0
  9  4  1  0
  9  5  1  0
  1 10  1  0
  1 11  1  0
  1 12  1  0
  3 13  1  0
  3 14  1  0
  4 15  1  0
  5 16  1  0
  6 17  1  0
  6 18  1  0
  7 19  1  0
  8 20  1  0
  9 21  1  0
M  END
