
     RDKit          3D

 17 19  0  0  0  0  0  0  0  0999 V2000
   -2.2353    0.2208    0.0719 C   0  0  0  0  0  0  0  0  0  0  0  0
   -0.7457    0.1927   -0.1541 C   0  0  0  0  0  0  0  0  0  0  0  0
   -0.3821    1.0108   -1.3181 O   0  0  0  0  0  0  0  0  0  0  0  0
    0.0556    1.2761    0.0975 C   0  0  0  0  0  0  0  0  0  0  0  0
    1.5220    1.0798    0.1552 C   0  0  0  0  0  0  0  0  0  0  0  0
    2.0991   -0.0959    0.0446 C   0  0  0  0  0  0  0  0  0  0  0  0
    1.2798   -1.2929   -0.1463 C   0  0  0  0  0  0  0  0  0  0  0  0
    0.4888   -1.6028    1.0849 O   0  0  0  0  0  0  0  0  0  0  0  0
   -0.1293   -1.1617   -0.1112 C   0  0  0  0  0  0  0  0  0  0  0  0
   -2.7780    0.8920   -0.6006 H   0  0  0  0  0  0  0  0  0  0  0  0
   -2.4961    0.5191    1.1222 H   0  0  0  0  0  0  0  0  0  0  0  0
   -2.6952   -0.7959   -0.0528 H   0  0  0  0  0  0  0  0  0  0  0  0
   -0.3258    2.2579    0.4524 H   0  0  0  0  0  0  0  0  0  0  0  0
    2.1661    1.9418    0.2957 H   0  0  0  0  0  0  0  0  0  0  0  0
    3.1930   -0.2354    0.0885 H   0  0  0  0  0  0  0  0  0  0  0  0
    1.7329   -2.2262   -0.5652 H   0  0  0  0  0  0  0  0  0  0  0  0
   -0.7498   -1.9804   -0.5822 H   0  0  0  0  0  0  0  0  0  0  0  0
  1  2  1  0
  2  3  1  0
  3  4  1  0
  4  5  1  0
  5  6  2  0
  6  7  1  0
  7  8  1  0
  8  9  1  0
  4  2  1  0
  9  7  1  0
  9  2  1  0
  1 10  1  0
  1 11  1  0
  1 12  1  0
  4 13  1  0
  5 14  1  0
  6 15  1  0
  7 16  1  0
  9 17  1  0
M  END
