
     RDKit          3D

 19 21  0  0  0  0  0  0  0  0999 V2000
   -1.8362   -1.3151   -0.5149 C   0  0  0  0  0  0  0  0  0  0  0  0
   -0.6864   -0.5733    0.1326 C   0  0  0  0  0  0  0  0  0  0  0  0
   -1.0625    0.6399    0.8901 C   0  0  0  0  0  0  0  0  0  0  0  0
   -0.2063    0.7173   -0.3999 C   0  0  0  0  0  0  0  0  0  0  0  0
   -0.7694    1.2969   -1.5085 O   0  0  0  0  0  0  0  0  0  0  0  0
    1.2511    0.7710   -0.1319 C   0  0  0  0  0  0  0  0  0  0  0  0
    2.2299   -0.1580   -0.6983 C   0  0  0  0  0  0  0  0  0  0  0  0
    1.5070   -0.5308    0.5735 C   0  0  0  0  0  0  0  0  0  0  0  0
    0.4075   -1.3324    0.4214 O   0  0  0  0  0  0  0  0  0  0  0  0
   -2.6229   -1.5823    0.2371 H   0  0  0  0  0  0  0  0  0  0  0  0
   -1.4967   -2.1976   -1.0609 H   0  0  0  0  0  0  0  0  0  0  0  0
   -2.3192   -0.5877   -1.2203 H   0  0  0  0  0  0  0  0  0  0  0  0
   -0.5743    0.9024    1.8378 H   0  0  0  0  0  0  0  0  0  0  0  0
   -2.0782    1.0278    0.7823 H   0  0  0  0  0  0  0  0  0  0  0  0
   -0.7275    2.2769   -1.5237 H   0  0  0  0  0  0  0  0  0  0  0  0
    1.6094    1.7240    0.3166 H   0  0  0  0  0  0  0  0  0  0  0  0
    2.0489   -0.7683   -1.6040 H   0  0  0  0  0  0  0  0  0  0  0  0
    3.2985    0.1361   -0.5975 H   0  0  0  0  0  0  0  0  0  0  0  0
    2.0274   -0.4468    1.5416 H   0  0  0  0  0  0  0  0  0  0  0  0
  1  2  1  0
  2  3  1  0
  3  4  1  0
  4  5  1  0
  4  6  1  0
  6  7  1  0
  7  8  1  0
  8  9  1  0
  4  2  1  0
  8  6  1  0
  9  2  1  0
  1 10  1  0
  1 11  1  0
  1 12  1  0
  3 13  1  0
  3 14  1  0
  5 15  1  0
  6 16  1  0
  7 17  1  0
  7 18  1  0
  8 19  1  0
M  END
