
     RDKit          3D

 21 23  0  0  0  0  0  0  0  0999 V2000
   -1.3104    1.6131   -0.3455 C   0  0  0  0  0  0  0  0  0  0  0  0
   -0.6590    0.4582    0.3539 C   0  0  0  0  0  0  0  0  0  0  0  0
   -1.4503   -0.5973    1.0061 C   0  0  0  0  0  0  0  0  0  0  0  0
   -0.9612   -0.9140   -0.3454 C   0  0  0  0  0  0  0  0  0  0  0  0
    0.4349   -1.3242   -0.6420 C   0  0  0  0  0  0  0  0  0  0  0  0
    1.0883   -0.0114   -1.1105 C   0  0  0  0  0  0  0  0  0  0  0  0
    0.8369    0.3815    0.3559 C   0  0  0  0  0  0  0  0  0  0  0  0
    1.5674    1.3748    0.8612 O   0  0  0  0  0  0  0  0  0  0  0  0
    1.2178   -1.0486    0.6314 C   0  0  0  0  0  0  0  0  0  0  0  0
   -0.5238    2.2190   -0.8421 H   0  0  0  0  0  0  0  0  0  0  0  0
   -1.9980    1.2864   -1.1676 H   0  0  0  0  0  0  0  0  0  0  0  0
   -1.8639    2.2424    0.3463 H   0  0  0  0  0  0  0  0  0  0  0  0
   -2.5637   -0.4199    1.0645 H   0  0  0  0  0  0  0  0  0  0  0  0
   -1.0640   -1.0358    1.9273 H   0  0  0  0  0  0  0  0  0  0  0  0
   -1.6448   -0.9101   -1.1895 H   0  0  0  0  0  0  0  0  0  0  0  0
    0.6563   -2.1998   -1.1977 H   0  0  0  0  0  0  0  0  0  0  0  0
    2.1644   -0.1240   -1.2655 H   0  0  0  0  0  0  0  0  0  0  0  0
    0.5069    0.5559   -1.8314 H   0  0  0  0  0  0  0  0  0  0  0  0
    2.3777    1.1351    1.3410 H   0  0  0  0  0  0  0  0  0  0  0  0
    0.8755   -1.5128    1.5374 H   0  0  0  0  0  0  0  0  0  0  0  0
    2.3131   -1.1685    0.5120 H   0  0  0  0  0  0  0  0  0  0  0  0
  1  2  1  0
  2  3  1  0
  3  4  1  0
  4  5  1  0
  5  6  1  0
  6  7  1  0
  7  8  1  0
  7  9  1  0
  4  2  1  0
  9  5  1  0
  7  2  1  0
  1 10  1  0
  1 11  1  0
  1 12  1  0
  3 13  1  0
  3 14  1  0
  4 15  1  0
  5 16  1  0
  6 17  1  0
  6 18  1  0
  8 19  1  0
  9 20  1  0
  9 21  1  0
M  END
