
     RDKit          3D

 19 20  0  0  0  0  0  0  0  0999 V2000
    1.9600   -0.6995   -0.6032 C   0  0  0  0  0  0  0  0  0  0  0  0
    0.5639   -0.3427   -0.1341 C   0  0  0  0  0  0  0  0  0  0  0  0
    0.6262    0.1331    1.3005 C   0  0  0  0  0  0  0  0  0  0  0  0
    0.7439    1.4657    0.8756 O   0  0  0  0  0  0  0  0  0  0  0  0
    0.1318    1.0549   -0.3316 C   0  0  0  0  0  0  0  0  0  0  0  0
   -1.3446    1.2074   -0.2189 C   0  0  0  0  0  0  0  0  0  0  0  0
   -1.9810    0.2049   -0.9541 O   0  0  0  0  0  0  0  0  0  0  0  0
   -1.6447   -1.0043   -0.3614 C   0  0  0  0  0  0  0  0  0  0  0  0
   -0.3227   -1.3175   -0.4332 O   0  0  0  0  0  0  0  0  0  0  0  0
    2.0344   -0.7687   -1.6961 H   0  0  0  0  0  0  0  0  0  0  0  0
    2.7414   -0.0722   -0.1326 H   0  0  0  0  0  0  0  0  0  0  0  0
    2.1507   -1.7410   -0.2081 H   0  0  0  0  0  0  0  0  0  0  0  0
   -0.2373   -0.0767    1.9256 H   0  0  0  0  0  0  0  0  0  0  0  0
    1.5717   -0.1555    1.8315 H   0  0  0  0  0  0  0  0  0  0  0  0
    0.5455    1.6217   -1.1817 H   0  0  0  0  0  0  0  0  0  0  0  0
   -1.6541    1.0298    0.8505 H   0  0  0  0  0  0  0  0  0  0  0  0
   -1.7102    2.2149   -0.4655 H   0  0  0  0  0  0  0  0  0  0  0  0
   -2.2468   -1.8331   -0.7749 H   0  0  0  0  0  0  0  0  0  0  0  0
   -1.9279   -0.9214    0.7118 H   0  0  0  0  0  0  0  0  0  0  0  0
  1  2  1  0
  2  3  1  0
  3  4  1  0
  4  5  1  0
  5  6  1  0
  6  7  1  0
  7  8  1  0
  8  9  1  0
  5  2  1  0
  9  2  1  0
  1 10  1  0
  1 11  1  0
  1 12  1  0
  3 13  1  0
  3 14  1  0
  5 15  1  0
  6 16  1  0
  6 17  1  0
  8 18  1  0
  8 19  1  0
M  END
