
     RDKit          3D

 17 18  0  0  0  0  0  0  0  0999 V2000
   -0.9696    1.4993   -0.0365 C   0  0  0  0  0  0  0  0  0  0  0  0
   -0.1143    0.3327    0.3488 C   0  0  0  0  0  0  0  0  0  0  0  0
    1.0340    0.6133    1.0615 O   0  0  0  0  0  0  0  0  0  0  0  0
    2.0549    0.1066    0.2455 C   0  0  0  0  0  0  0  0  0  0  0  0
    1.5266   -1.0623   -0.3110 O   0  0  0  0  0  0  0  0  0  0  0  0
    0.2868   -0.5945   -0.7681 C   0  0  0  0  0  0  0  0  0  0  0  0
   -0.8922   -1.4503   -0.3865 C   0  0  0  0  0  0  0  0  0  0  0  0
   -0.9140   -0.7528    0.9261 C   0  0  0  0  0  0  0  0  0  0  0  0
   -1.3804   -0.9586    2.0249 O   0  0  0  0  0  0  0  0  0  0  0  0
   -0.3618    2.4410   -0.0707 H   0  0  0  0  0  0  0  0  0  0  0  0
   -1.5676    1.3274   -0.9286 H   0  0  0  0  0  0  0  0  0  0  0  0
   -1.6849    1.6701    0.8211 H   0  0  0  0  0  0  0  0  0  0  0  0
    2.2304    0.8052   -0.6102 H   0  0  0  0  0  0  0  0  0  0  0  0
    2.9723   -0.0706    0.8275 H   0  0  0  0  0  0  0  0  0  0  0  0
    0.2549   -0.2092   -1.7792 H   0  0  0  0  0  0  0  0  0  0  0  0
   -1.7646   -1.1666   -1.0431 H   0  0  0  0  0  0  0  0  0  0  0  0
   -0.7104   -2.5305   -0.3214 H   0  0  0  0  0  0  0  0  0  0  0  0
  1  2  1  0
  2  3  1  0
  3  4  1  0
  4  5  1  0
  5  6  1  0
  6  7  1  0
  7  8  1  0
  8  9  2  0
  6  2  1  0
  8  2  1  0
  1 10  1  0
  1 11  1  0
  1 12  1  0
  4 13  1  0
  4 14  1  0
  6 15  1  0
  7 16  1  0
  7 17  1  0
M  END
