
     RDKit          3D

 18 19  0  0  0  0  0  0  0  0999 V2000
   -2.3139    0.2538    0.5623 C   0  0  0  0  0  0  0  0  0  0  0  0
   -0.9812    0.1571    0.2373 C   0  0  0  0  0  0  0  0  0  0  0  0
   -0.2936    0.7253   -0.9714 C   0  0  0  0  0  0  0  0  0  0  0  0
    0.7358    0.0755   -0.1325 C   0  0  0  0  0  0  0  0  0  0  0  0
    2.1002    0.0116   -0.3574 C   0  0  0  0  0  0  0  0  0  0  0  0
    2.7608   -0.7229    0.6472 O   0  0  0  0  0  0  0  0  0  0  0  0
   -0.1856   -1.0970    0.0151 C   0  0  0  0  0  0  0  0  0  0  0  0
    0.1070    0.6180    0.9711 O   0  0  0  0  0  0  0  0  0  0  0  0
   -2.9079   -0.6898    0.3791 H   0  0  0  0  0  0  0  0  0  0  0  0
   -2.8632    1.0741    0.0251 H   0  0  0  0  0  0  0  0  0  0  0  0
   -2.5105    0.4737    1.6530 H   0  0  0  0  0  0  0  0  0  0  0  0
   -0.5180    0.2336   -1.9298 H   0  0  0  0  0  0  0  0  0  0  0  0
   -0.3168    1.8267   -0.9593 H   0  0  0  0  0  0  0  0  0  0  0  0
    2.3679   -0.4751   -1.3057 H   0  0  0  0  0  0  0  0  0  0  0  0
    2.5836    1.0091   -0.3698 H   0  0  0  0  0  0  0  0  0  0  0  0
    2.6708   -0.1596    1.4686 H   0  0  0  0  0  0  0  0  0  0  0  0
   -0.4017   -1.6692   -0.8880 H   0  0  0  0  0  0  0  0  0  0  0  0
   -0.0339   -1.6451    0.9550 H   0  0  0  0  0  0  0  0  0  0  0  0
  1  2  1  0
  2  3  1  0
  3  4  1  0
  4  5  1  0
  5  6  1  0
  4  7  1  0
  4  8  1  0
  7  2  1  0
  8  2  1  0
  1  9  1  0
  1 10  1  0
  1 11  1  0
  3 12  1  0
  3 13  1  0
  5 14  1  0
  5 15  1  0
  6 16  1  0
  7 17  1  0
  7 18  1  0
M  END
