
     RDKit          3D

 21 22  0  0  0  0  0  0  0  0999 V2000
   -1.0628    1.6509   -0.9256 C   0  0  0  0  0  0  0  0  0  0  0  0
   -0.4622    0.5134   -0.1774 C   0  0  0  0  0  0  0  0  0  0  0  0
    0.8951    0.6352    0.4649 C   0  0  0  0  0  0  0  0  0  0  0  0
    0.6563    0.6243    1.8589 O   0  0  0  0  0  0  0  0  0  0  0  0
    1.6615   -0.5806    0.0570 C   0  0  0  0  0  0  0  0  0  0  0  0
    0.7550   -1.3793   -0.8421 C   0  0  0  0  0  0  0  0  0  0  0  0
   -0.6134   -0.8295   -0.7467 C   0  0  0  0  0  0  0  0  0  0  0  0
   -1.3233   -0.5274    0.4852 C   0  0  0  0  0  0  0  0  0  0  0  0
   -0.9205   -1.0915    1.6932 O   0  0  0  0  0  0  0  0  0  0  0  0
   -1.1708    1.4354   -2.0287 H   0  0  0  0  0  0  0  0  0  0  0  0
   -2.0062    1.9370   -0.4623 H   0  0  0  0  0  0  0  0  0  0  0  0
   -0.3614    2.5198   -0.8849 H   0  0  0  0  0  0  0  0  0  0  0  0
    1.3351    1.5843    0.1729 H   0  0  0  0  0  0  0  0  0  0  0  0
    1.3730    1.0709    2.3359 H   0  0  0  0  0  0  0  0  0  0  0  0
    1.9564   -1.1890    0.9186 H   0  0  0  0  0  0  0  0  0  0  0  0
    2.6022   -0.2619   -0.4480 H   0  0  0  0  0  0  0  0  0  0  0  0
    0.8362   -2.4629   -0.6818 H   0  0  0  0  0  0  0  0  0  0  0  0
    1.1248   -1.1951   -1.8942 H   0  0  0  0  0  0  0  0  0  0  0  0
   -1.2337   -0.9586   -1.6760 H   0  0  0  0  0  0  0  0  0  0  0  0
   -2.3969   -0.3274    0.4296 H   0  0  0  0  0  0  0  0  0  0  0  0
   -1.6445   -1.1678    2.3514 H   0  0  0  0  0  0  0  0  0  0  0  0
  1  2  1  0
  2  3  1  0
  3  4  1  0
  3  5  1  0
  5  6  1  0
  6  7  1  0
  7  8  1  0
  8  9  1  0
  7  2  1  0
  8  2  1  0
  1 10  1  0
  1 11  1  0
  1 12  1  0
  3 13  1  0
  4 14  1  0
  5 15  1  0
  5 16  1  0
  6 17  1  0
  6 18  1  0
  7 19  1  0
  8 20  1  0
  9 21  1  0
M  END
