
     RDKit          3D

 16 17  0  0  0  0  0  0  0  0999 V2000
    2.0675    0.4497    0.3545 C   0  0  0  0  0  0  0  0  0  0  0  0
    0.7207    0.1993    0.3623 C   0  0  0  0  0  0  0  0  0  0  0  0
    0.0399   -1.1320    0.1450 C   0  0  0  0  0  0  0  0  0  0  0  0
   -1.0149   -0.1079    0.4430 C   0  0  0  0  0  0  0  0  0  0  0  0
   -2.3551   -0.3333    0.5359 C   0  0  0  0  0  0  0  0  0  0  0  0
   -2.9974   -0.1040    1.5730 O   0  0  0  0  0  0  0  0  0  0  0  0
   -0.3298    0.8013   -0.5329 C   0  0  0  0  0  0  0  0  0  0  0  0
   -0.1803    0.3796    1.4064 O   0  0  0  0  0  0  0  0  0  0  0  0
    2.7269   -0.4679    0.3191 H   0  0  0  0  0  0  0  0  0  0  0  0
    2.4573    1.0135    1.2526 H   0  0  0  0  0  0  0  0  0  0  0  0
    2.4367    1.0663   -0.5180 H   0  0  0  0  0  0  0  0  0  0  0  0
    0.0842   -1.4662   -0.8941 H   0  0  0  0  0  0  0  0  0  0  0  0
    0.1775   -1.8641    0.9403 H   0  0  0  0  0  0  0  0  0  0  0  0
   -2.9563   -0.7250   -0.2772 H   0  0  0  0  0  0  0  0  0  0  0  0
   -0.5213    1.8822   -0.4015 H   0  0  0  0  0  0  0  0  0  0  0  0
   -0.3555    0.4087   -1.5548 H   0  0  0  0  0  0  0  0  0  0  0  0
  1  2  1  0
  2  3  1  0
  3  4  1  0
  4  5  1  0
  5  6  2  0
  4  7  1  0
  4  8  1  0
  7  2  1  0
  8  2  1  0
  1  9  1  0
  1 10  1  0
  1 11  1  0
  3 12  1  0
  3 13  1  0
  5 14  1  0
  7 15  1  0
  7 16  1  0
M  END
