
     RDKit          3D

 20 22  0  0  0  0  0  0  0  0999 V2000
   -1.2987   -1.0503   -0.9315 C   0  0  0  0  0  0  0  0  0  0  0  0
   -0.5426    0.1657   -0.5516 C   0  0  0  0  0  0  0  0  0  0  0  0
   -1.0186    1.5371   -0.6854 C   0  0  0  0  0  0  0  0  0  0  0  0
   -1.1652    0.9418    0.6374 C   0  0  0  0  0  0  0  0  0  0  0  0
   -0.0521    0.4098    1.4684 C   0  0  0  0  0  0  0  0  0  0  0  0
    0.6722   -0.0358    0.2921 C   0  0  0  0  0  0  0  0  0  0  0  0
    1.5523   -1.1509    0.1050 C   0  0  0  0  0  0  0  0  0  0  0  0
    2.0293    0.2703   -0.0891 C   0  0  0  0  0  0  0  0  0  0  0  0
   -0.5486   -1.8775   -1.0984 H   0  0  0  0  0  0  0  0  0  0  0  0
   -1.9795   -0.9334   -1.7941 H   0  0  0  0  0  0  0  0  0  0  0  0
   -1.9142   -1.4259   -0.0637 H   0  0  0  0  0  0  0  0  0  0  0  0
   -1.9303    1.7055   -1.2718 H   0  0  0  0  0  0  0  0  0  0  0  0
   -0.2256    2.3061   -0.9215 H   0  0  0  0  0  0  0  0  0  0  0  0
   -2.1731    0.6466    0.9616 H   0  0  0  0  0  0  0  0  0  0  0  0
    0.3867    1.2153    2.1001 H   0  0  0  0  0  0  0  0  0  0  0  0
   -0.3421   -0.4350    2.1599 H   0  0  0  0  0  0  0  0  0  0  0  0
    1.4859   -1.7085   -0.8741 H   0  0  0  0  0  0  0  0  0  0  0  0
    1.9543   -1.7726    0.9058 H   0  0  0  0  0  0  0  0  0  0  0  0
    2.3656    0.6134   -1.0773 H   0  0  0  0  0  0  0  0  0  0  0  0
    2.7443    0.5785    0.7281 H   0  0  0  0  0  0  0  0  0  0  0  0
  1  2  1  0
  2  3  1  0
  3  4  1  0
  4  5  1  0
  5  6  1  0
  6  7  1  0
  7  8  1  0
  4  2  1  0
  8  6  1  0
  6  2  1  0
  1  9  1  0
  1 10  1  0
  1 11  1  0
  3 12  1  0
  3 13  1  0
  4 14  1  0
  5 15  1  0
  5 16  1  0
  7 17  1  0
  7 18  1  0
  8 19  1  0
  8 20  1  0
M  END
