
     RDKit          2D

 21 23  0  0  0  0  0  0  0  0999 V2000
    0.0000    2.5607    0.0000 C   0  0  0  0  0  0  0  0  0  0  0  0
    0.0000    1.0607    0.0000 C   0  0  0  0  0  0  0  0  0  0  0  0
    1.4266    0.5971    0.0000 C   0  0  0  0  0  0  0  0  0  0  0  0
    1.4266   -0.9029    0.0000 C   0  0  0  0  0  0  0  0  0  0  0  0
    1.6558   -2.3867    0.0000 C   0  0  0  0  0  0  0  0  0  0  0  0
    0.1649   -2.5516    0.0000 C   0  0  0  0  0  0  0  0  0  0  0  0
   -0.0000   -1.0607    0.0000 C   0  0  0  0  0  0  0  0  0  0  0  0
    1.0607    0.0000    0.0000 C   0  0  0  0  0  0  0  0  0  0  0  0
   -1.0607    0.0000    0.0000 O   0  0  0  0  0  0  0  0  0  0  0  0
    0.0000    4.0607    0.0000 H   0  0  0  0  0  0  0  0  0  0  0  0
   -1.5000    2.5607    0.0000 H   0  0  0  0  0  0  0  0  0  0  0  0
    1.3399    2.7252    0.0000 H   0  0  0  0  0  0  0  0  0  0  0  0
    1.8222    1.7459    0.0000 H   0  0  0  0  0  0  0  0  0  0  0  0
    2.9184    0.4403    0.0000 H   0  0  0  0  0  0  0  0  0  0  0  0
    2.9257   -0.8506    0.0000 H   0  0  0  0  0  0  0  0  0  0  0  0
    1.8207   -3.8776    0.0000 H   0  0  0  0  0  0  0  0  0  0  0  0
    3.1467   -2.2217    0.0000 H   0  0  0  0  0  0  0  0  0  0  0  0
   -1.3260   -2.7165    0.0000 H   0  0  0  0  0  0  0  0  0  0  0  0
    0.3298   -4.0425    0.0000 H   0  0  0  0  0  0  0  0  0  0  0  0
    1.6243    0.5637    0.0000 H   0  0  0  0  0  0  0  0  0  0  0  0
    2.4310   -0.6100    0.0000 H   0  0  0  0  0  0  0  0  0  0  0  0
  1  2  1  0
  2  3  1  0
  3  4  1  0
  4  5  1  0
  5  6  1  0
  6  7  1  0
  7  8  1  0
  7  9  1  0
  8  2  1  0
  9  2  1  0
  7  4  1  0
  1 10  1  0
  1 11  1  0
  1 12  1  0
  3 13  1  0
  3 14  1  0
  4 15  1  0
  5 16  1  0
  5 17  1  0
  6 18  1  0
  6 19  1  0
  8 20  1  0
  8 21  1  0
M  END
