
     RDKit          3D

 23 25  0  0  0  0  0  0  0  0999 V2000
   -0.9587   -1.9507   -0.4519 C   0  0  0  0  0  0  0  0  0  0  0  0
   -0.5785   -0.5204   -0.2610 C   0  0  0  0  0  0  0  0  0  0  0  0
   -1.2098    0.4855   -1.2065 C   0  0  0  0  0  0  0  0  0  0  0  0
   -1.5133    0.4936    0.2531 C   0  0  0  0  0  0  0  0  0  0  0  0
   -0.7509    1.4672    1.1187 C   0  0  0  0  0  0  0  0  0  0  0  0
    0.5191    0.7107    1.4970 C   0  0  0  0  0  0  0  0  0  0  0  0
    0.7519   -0.1200    0.2679 C   0  0  0  0  0  0  0  0  0  0  0  0
    1.6962    0.4843   -0.8024 C   0  0  0  0  0  0  0  0  0  0  0  0
    2.0088   -0.7724   -0.0465 C   0  0  0  0  0  0  0  0  0  0  0  0
   -1.1282   -2.1298   -1.5375 H   0  0  0  0  0  0  0  0  0  0  0  0
   -0.2068   -2.6779   -0.1165 H   0  0  0  0  0  0  0  0  0  0  0  0
   -1.9362   -2.1468    0.0629 H   0  0  0  0  0  0  0  0  0  0  0  0
   -0.5504    1.2602   -1.6598 H   0  0  0  0  0  0  0  0  0  0  0  0
   -2.0225    0.1481   -1.8863 H   0  0  0  0  0  0  0  0  0  0  0  0
   -2.5360    0.2101    0.5815 H   0  0  0  0  0  0  0  0  0  0  0  0
   -0.4407    2.3078    0.4523 H   0  0  0  0  0  0  0  0  0  0  0  0
   -1.3145    1.8022    2.0040 H   0  0  0  0  0  0  0  0  0  0  0  0
    1.3708    1.3729    1.6733 H   0  0  0  0  0  0  0  0  0  0  0  0
    0.3484    0.0454    2.3787 H   0  0  0  0  0  0  0  0  0  0  0  0
    2.1892    1.4453   -0.5202 H   0  0  0  0  0  0  0  0  0  0  0  0
    1.3797    0.4051   -1.8549 H   0  0  0  0  0  0  0  0  0  0  0  0
    2.0428   -1.6792   -0.6527 H   0  0  0  0  0  0  0  0  0  0  0  0
    2.8395   -0.6412    0.7067 H   0  0  0  0  0  0  0  0  0  0  0  0
  1  2  1  0
  2  3  1  0
  3  4  1  0
  4  5  1  0
  5  6  1  0
  6  7  1  0
  7  8  1  0
  8  9  1  0
  4  2  1  0
  9  7  1  0
  7  2  1  0
  1 10  1  0
  1 11  1  0
  1 12  1  0
  3 13  1  0
  3 14  1  0
  4 15  1  0
  5 16  1  0
  5 17  1  0
  6 18  1  0
  6 19  1  0
  8 20  1  0
  8 21  1  0
  9 22  1  0
  9 23  1  0
M  END
