
     RDKit          3D

 19 21  0  0  0  0  0  0  0  0999 V2000
    1.5885    1.0317    0.6766 C   0  0  0  0  0  0  0  0  0  0  0  0
    0.4673    0.3013    0.1053 C   0  0  0  0  0  0  0  0  0  0  0  0
   -0.4110    1.0620   -0.8629 C   0  0  0  0  0  0  0  0  0  0  0  0
   -1.6751    0.4770   -0.8020 O   0  0  0  0  0  0  0  0  0  0  0  0
   -1.5657   -0.6441    0.0245 C   0  0  0  0  0  0  0  0  0  0  0  0
   -0.6291   -0.0884    1.1110 C   0  0  0  0  0  0  0  0  0  0  0  0
   -0.6587   -1.6223   -0.6446 C   0  0  0  0  0  0  0  0  0  0  0  0
    0.3791   -2.2049    0.0952 O   0  0  0  0  0  0  0  0  0  0  0  0
    0.7576   -1.0353   -0.5107 C   0  0  0  0  0  0  0  0  0  0  0  0
    2.0443    1.6930   -0.0808 H   0  0  0  0  0  0  0  0  0  0  0  0
    1.2441    1.6830    1.5059 H   0  0  0  0  0  0  0  0  0  0  0  0
    2.3552    0.3541    1.0533 H   0  0  0  0  0  0  0  0  0  0  0  0
   -0.0099    1.0134   -1.8920 H   0  0  0  0  0  0  0  0  0  0  0  0
   -0.4724    2.1128   -0.4752 H   0  0  0  0  0  0  0  0  0  0  0  0
   -2.4943   -1.0100    0.4029 H   0  0  0  0  0  0  0  0  0  0  0  0
   -1.1081    0.7939    1.5296 H   0  0  0  0  0  0  0  0  0  0  0  0
   -0.3044   -0.8516    1.8063 H   0  0  0  0  0  0  0  0  0  0  0  0
   -0.9084   -2.0190   -1.6299 H   0  0  0  0  0  0  0  0  0  0  0  0
    1.4010   -1.0465   -1.4123 H   0  0  0  0  0  0  0  0  0  0  0  0
  1  2  1  0
  2  3  1  0
  3  4  1  0
  4  5  1  0
  5  6  1  0
  5  7  1  0
  7  8  1  0
  8  9  1  0
  6  2  1  0
  9  7  1  0
  9  2  1  0
  1 10  1  0
  1 11  1  0
  1 12  1  0
  3 13  1  0
  3 14  1  0
  5 15  1  0
  6 16  1  0
  6 17  1  0
  7 18  1  0
  9 19  1  0
M  END
