
     RDKit          3D

 21 22  0  0  0  0  0  0  0  0999 V2000
   -2.3800   -0.1520   -0.0061 C   0  0  0  0  0  0  0  0  0  0  0  0
   -0.8957    0.0110    0.1425 C   0  0  0  0  0  0  0  0  0  0  0  0
   -0.3096   -0.8866    1.1693 C   0  0  0  0  0  0  0  0  0  0  0  0
    0.7833   -1.4903    0.7140 C   0  0  0  0  0  0  0  0  0  0  0  0
    1.2139   -0.6930   -0.4938 C   0  0  0  0  0  0  0  0  0  0  0  0
    1.7103    0.6202    0.0043 C   0  0  0  0  0  0  0  0  0  0  0  0
    0.6961    1.6954    0.0870 C   0  0  0  0  0  0  0  0  0  0  0  0
   -0.5629    1.3177    0.4396 O   0  0  0  0  0  0  0  0  0  0  0  0
   -0.1620   -0.4519   -1.1255 C   0  0  0  0  0  0  0  0  0  0  0  0
   -2.6726   -1.0852   -0.4897 H   0  0  0  0  0  0  0  0  0  0  0  0
   -2.8250   -0.0652    1.0157 H   0  0  0  0  0  0  0  0  0  0  0  0
   -2.7532    0.7564   -0.5552 H   0  0  0  0  0  0  0  0  0  0  0  0
   -0.7117   -1.0430    2.1750 H   0  0  0  0  0  0  0  0  0  0  0  0
    1.3107   -2.3517    1.0607 H   0  0  0  0  0  0  0  0  0  0  0  0
    1.8860   -1.2438   -1.1433 H   0  0  0  0  0  0  0  0  0  0  0  0
    2.1990    0.4977    1.0133 H   0  0  0  0  0  0  0  0  0  0  0  0
    2.5252    0.9620   -0.6872 H   0  0  0  0  0  0  0  0  0  0  0  0
    0.6471    2.2467   -0.8708 H   0  0  0  0  0  0  0  0  0  0  0  0
    1.0522    2.4395    0.8586 H   0  0  0  0  0  0  0  0  0  0  0  0
   -0.1379    0.3192   -1.8921 H   0  0  0  0  0  0  0  0  0  0  0  0
   -0.6134   -1.4031   -1.4163 H   0  0  0  0  0  0  0  0  0  0  0  0
  1  2  1  0
  2  3  1  0
  3  4  2  0
  4  5  1  0
  5  6  1  0
  6  7  1  0
  7  8  1  0
  5  9  1  0
  8  2  1  0
  9  2  1  0
  1 10  1  0
  1 11  1  0
  1 12  1  0
  3 13  1  0
  4 14  1  0
  5 15  1  0
  6 16  1  0
  6 17  1  0
  7 18  1  0
  7 19  1  0
  9 20  1  0
  9 21  1  0
M  END
