
     RDKit          3D

 19 20  0  0  0  0  0  0  0  0999 V2000
   -0.2134    2.1625    0.0481 C   0  0  0  0  0  0  0  0  0  0  0  0
   -0.3488    0.6970   -0.1037 C   0  0  0  0  0  0  0  0  0  0  0  0
   -1.3722    0.2453   -0.8746 O   0  0  0  0  0  0  0  0  0  0  0  0
   -1.5833   -1.0640   -0.3764 C   0  0  0  0  0  0  0  0  0  0  0  0
   -0.5828   -1.2030    0.7631 C   0  0  0  0  0  0  0  0  0  0  0  0
    0.8262   -1.3047    0.2550 C   0  0  0  0  0  0  0  0  0  0  0  0
    0.9335    0.0135   -0.5285 C   0  0  0  0  0  0  0  0  0  0  0  0
    2.0166    0.7623   -0.1265 O   0  0  0  0  0  0  0  0  0  0  0  0
   -0.5848    0.1520    1.1836 O   0  0  0  0  0  0  0  0  0  0  0  0
   -1.1313    2.5682    0.4927 H   0  0  0  0  0  0  0  0  0  0  0  0
    0.0832    2.7087   -0.8431 H   0  0  0  0  0  0  0  0  0  0  0  0
    0.5961    2.3383    0.8119 H   0  0  0  0  0  0  0  0  0  0  0  0
   -1.4776   -1.8254   -1.1420 H   0  0  0  0  0  0  0  0  0  0  0  0
   -2.5896   -1.0286    0.1063 H   0  0  0  0  0  0  0  0  0  0  0  0
   -0.8666   -1.8938    1.5296 H   0  0  0  0  0  0  0  0  0  0  0  0
    1.0299   -2.1736   -0.3664 H   0  0  0  0  0  0  0  0  0  0  0  0
    1.5051   -1.1805    1.1214 H   0  0  0  0  0  0  0  0  0  0  0  0
    0.9250   -0.2178   -1.6132 H   0  0  0  0  0  0  0  0  0  0  0  0
    2.8349    0.2438   -0.3374 H   0  0  0  0  0  0  0  0  0  0  0  0
  1  2  1  0
  2  3  1  0
  3  4  1  0
  4  5  1  0
  5  6  1  0
  6  7  1  0
  7  8  1  0
  5  9  1  0
  7  2  1  0
  9  2  1  0
  1 10  1  0
  1 11  1  0
  1 12  1  0
  4 13  1  0
  4 14  1  0
  5 15  1  0
  6 16  1  0
  6 17  1  0
  7 18  1  0
  8 19  1  0
M  END
