
     RDKit          3D

 17 20  0  0  0  0  0  0  0  0999 V2000
   -1.5296   -0.8130    0.6982 C   0  0  0  0  0  0  0  0  0  0  0  0
   -0.4597   -0.2810    0.0683 C   0  0  0  0  0  0  0  0  0  0  0  0
   -0.0123    1.2117   -0.2269 C   0  0  0  0  0  0  0  0  0  0  0  0
    1.2335    0.6694   -1.0963 C   0  0  0  0  0  0  0  0  0  0  0  0
    0.7023   -0.8760   -0.7857 C   0  0  0  0  0  0  0  0  0  0  0  0
    1.0893    0.0328   -0.1446 C   0  0  0  0  0  0  0  0  0  0  0  0
    1.1198    0.2729    1.2910 C   0  0  0  0  0  0  0  0  0  0  0  0
    1.9977    1.0118    1.7505 O   0  0  0  0  0  0  0  0  0  0  0  0
   -0.3485    0.3611   -0.9761 C   0  0  0  0  0  0  0  0  0  0  0  0
   -1.2786   -1.6814    1.3771 H   0  0  0  0  0  0  0  0  0  0  0  0
   -2.3415   -1.2360    0.0338 H   0  0  0  0  0  0  0  0  0  0  0  0
   -2.0554   -0.0740    1.3378 H   0  0  0  0  0  0  0  0  0  0  0  0
    0.1901    1.8884    0.5589 H   0  0  0  0  0  0  0  0  0  0  0  0
    1.2145    0.9044   -2.1569 H   0  0  0  0  0  0  0  0  0  0  0  0
    0.4316   -1.3967   -1.7126 H   0  0  0  0  0  0  0  0  0  0  0  0
    0.4376   -0.1390    2.0103 H   0  0  0  0  0  0  0  0  0  0  0  0
   -0.3908    0.1446   -2.0268 H   0  0  0  0  0  0  0  0  0  0  0  0
  1  2  1  0
  2  3  1  0
  3  4  1  0
  4  5  1  0
  5  6  1  0
  6  7  1  0
  7  8  2  0
  6  9  1  0
  5  2  1  0
  9  2  1  0
  9  3  1  0
  6  4  1  0
  1 10  1  0
  1 11  1  0
  1 12  1  0
  3 13  1  0
  4 14  1  0
  5 15  1  0
  7 16  1  0
  9 17  1  0
M  END
