
     RDKit          3D

 18 19  0  0  0  0  0  0  0  0999 V2000
    1.7752   -0.8854   -0.1387 C   0  0  0  0  0  0  0  0  0  0  0  0
    0.6942    0.0157    0.4348 C   0  0  0  0  0  0  0  0  0  0  0  0
    0.9906    1.4202    0.6533 C   0  0  0  0  0  0  0  0  0  0  0  0
    0.0944    0.9823   -0.5075 C   0  0  0  0  0  0  0  0  0  0  0  0
   -1.2294    1.2696   -0.3161 O   0  0  0  0  0  0  0  0  0  0  0  0
   -2.0610    0.1870   -0.2055 C   0  0  0  0  0  0  0  0  0  0  0  0
   -1.2147   -1.0597    0.0520 C   0  0  0  0  0  0  0  0  0  0  0  0
   -0.3139   -0.6773    1.0781 O   0  0  0  0  0  0  0  0  0  0  0  0
    2.0703   -1.6528    0.6083 H   0  0  0  0  0  0  0  0  0  0  0  0
    1.4212   -1.3229   -1.0942 H   0  0  0  0  0  0  0  0  0  0  0  0
    2.6688   -0.2658   -0.3681 H   0  0  0  0  0  0  0  0  0  0  0  0
    2.0163    1.7658    0.3774 H   0  0  0  0  0  0  0  0  0  0  0  0
    0.5452    2.0359    1.4580 H   0  0  0  0  0  0  0  0  0  0  0  0
    0.4789    1.0351   -1.5287 H   0  0  0  0  0  0  0  0  0  0  0  0
   -2.7396    0.2572    0.6946 H   0  0  0  0  0  0  0  0  0  0  0  0
   -2.7307    0.0316   -1.0630 H   0  0  0  0  0  0  0  0  0  0  0  0
   -0.6426   -1.2206   -0.8978 H   0  0  0  0  0  0  0  0  0  0  0  0
   -1.8233   -1.9159    0.3295 H   0  0  0  0  0  0  0  0  0  0  0  0
  1  2  1  0
  2  3  1  0
  3  4  1  0
  4  5  1  0
  5  6  1  0
  6  7  1  0
  7  8  1  0
  4  2  1  0
  8  2  1  0
  1  9  1  0
  1 10  1  0
  1 11  1  0
  3 12  1  0
  3 13  1  0
  4 14  1  0
  6 15  1  0
  6 16  1  0
  7 17  1  0
  7 18  1  0
M  END
