
     RDKit          3D

 19 20  0  0  0  0  0  0  0  0999 V2000
   -1.5973   -1.3163    0.0463 C   0  0  0  0  0  0  0  0  0  0  0  0
   -0.9329   -0.0403    0.3575 C   0  0  0  0  0  0  0  0  0  0  0  0
    0.0154   -0.0450    1.5156 C   0  0  0  0  0  0  0  0  0  0  0  0
    0.4673    0.2921    0.1724 C   0  0  0  0  0  0  0  0  0  0  0  0
    1.4553   -0.4700   -0.6198 C   0  0  0  0  0  0  0  0  0  0  0  0
    2.6939    0.1984   -0.5350 O   0  0  0  0  0  0  0  0  0  0  0  0
    0.0830    1.6639   -0.3434 C   0  0  0  0  0  0  0  0  0  0  0  0
   -1.3338    1.2189   -0.2641 C   0  0  0  0  0  0  0  0  0  0  0  0
   -2.3965    1.7103   -0.5882 O   0  0  0  0  0  0  0  0  0  0  0  0
   -0.9492   -2.1842   -0.0989 H   0  0  0  0  0  0  0  0  0  0  0  0
   -2.3204   -1.5608    0.8799 H   0  0  0  0  0  0  0  0  0  0  0  0
   -2.2645   -1.2120   -0.8563 H   0  0  0  0  0  0  0  0  0  0  0  0
   -0.2013    0.7347    2.2835 H   0  0  0  0  0  0  0  0  0  0  0  0
    0.3033   -1.0178    1.9257 H   0  0  0  0  0  0  0  0  0  0  0  0
    1.1930   -0.4174   -1.7177 H   0  0  0  0  0  0  0  0  0  0  0  0
    1.6179   -1.4963   -0.3013 H   0  0  0  0  0  0  0  0  0  0  0  0
    3.4075   -0.3597   -0.9357 H   0  0  0  0  0  0  0  0  0  0  0  0
    0.4769    1.8540   -1.3454 H   0  0  0  0  0  0  0  0  0  0  0  0
    0.2824    2.4474    0.4250 H   0  0  0  0  0  0  0  0  0  0  0  0
  1  2  1  0
  2  3  1  0
  3  4  1  0
  4  5  1  0
  5  6  1  0
  4  7  1  0
  7  8  1  0
  8  9  2  0
  4  2  1  0
  8  2  1  0
  1 10  1  0
  1 11  1  0
  1 12  1  0
  3 13  1  0
  3 14  1  0
  5 15  1  0
  5 16  1  0
  6 17  1  0
  7 18  1  0
  7 19  1  0
M  END
