
     RDKit          3D

 21 22  0  0  0  0  0  0  0  0999 V2000
   -0.7768    1.3781    0.5913 C   0  0  0  0  0  0  0  0  0  0  0  0
   -0.2892    0.2842   -0.3219 C   0  0  0  0  0  0  0  0  0  0  0  0
    0.9309    0.6353   -1.0953 C   0  0  0  0  0  0  0  0  0  0  0  0
    2.0646    0.3838   -0.0910 C   0  0  0  0  0  0  0  0  0  0  0  0
    1.5054   -0.7700    0.6951 C   0  0  0  0  0  0  0  0  0  0  0  0
    0.2028   -0.8456    0.5798 C   0  0  0  0  0  0  0  0  0  0  0  0
   -1.0979   -1.5227    0.8842 C   0  0  0  0  0  0  0  0  0  0  0  0
   -1.6083   -1.6597   -0.4001 O   0  0  0  0  0  0  0  0  0  0  0  0
   -1.3729   -0.4417   -1.0228 C   0  0  0  0  0  0  0  0  0  0  0  0
   -1.8180    1.1568    0.8659 H   0  0  0  0  0  0  0  0  0  0  0  0
   -0.7486    2.3755    0.1223 H   0  0  0  0  0  0  0  0  0  0  0  0
   -0.1902    1.3793    1.5412 H   0  0  0  0  0  0  0  0  0  0  0  0
    0.9660    1.6591   -1.4664 H   0  0  0  0  0  0  0  0  0  0  0  0
    1.0446   -0.0568   -1.9488 H   0  0  0  0  0  0  0  0  0  0  0  0
    2.3043    1.2476    0.5204 H   0  0  0  0  0  0  0  0  0  0  0  0
    2.9655    0.0130   -0.6058 H   0  0  0  0  0  0  0  0  0  0  0  0
    2.0831   -1.4835    1.3030 H   0  0  0  0  0  0  0  0  0  0  0  0
   -0.9336   -2.4980    1.3827 H   0  0  0  0  0  0  0  0  0  0  0  0
   -1.7070   -0.8184    1.4486 H   0  0  0  0  0  0  0  0  0  0  0  0
   -2.3217    0.1543   -0.8703 H   0  0  0  0  0  0  0  0  0  0  0  0
   -1.2029   -0.5707   -2.1121 H   0  0  0  0  0  0  0  0  0  0  0  0
  1  2  1  0
  2  3  1  0
  3  4  1  0
  4  5  1  0
  5  6  2  0
  6  7  1  0
  7  8  1  0
  8  9  1  0
  6  2  1  0
  9  2  1  0
  1 10  1  0
  1 11  1  0
  1 12  1  0
  3 13  1  0
  3 14  1  0
  4 15  1  0
  4 16  1  0
  5 17  1  0
  7 18  1  0
  7 19  1  0
  9 20  1  0
  9 21  1  0
M  END
