
     RDKit          3D

 21 23  0  0  0  0  0  0  0  0999 V2000
   -2.1958   -0.6203    0.0360 C   0  0  0  0  0  0  0  0  0  0  0  0
   -0.7997   -0.1519    0.0218 C   0  0  0  0  0  0  0  0  0  0  0  0
   -0.1995    0.6581   -1.0539 C   0  0  0  0  0  0  0  0  0  0  0  0
    0.0481    1.7437   -0.0205 C   0  0  0  0  0  0  0  0  0  0  0  0
   -0.2238    0.7487    1.0501 C   0  0  0  0  0  0  0  0  0  0  0  0
    0.2055   -0.6374    1.0404 C   0  0  0  0  0  0  0  0  0  0  0  0
    1.3720   -1.1739    0.2797 C   0  0  0  0  0  0  0  0  0  0  0  0
    1.9346   -0.1592   -0.6870 C   0  0  0  0  0  0  0  0  0  0  0  0
    0.9685    0.1913   -1.5886 O   0  0  0  0  0  0  0  0  0  0  0  0
   -2.3058   -1.4069    0.8154 H   0  0  0  0  0  0  0  0  0  0  0  0
   -2.8888    0.2156    0.1830 H   0  0  0  0  0  0  0  0  0  0  0  0
   -2.4110   -1.1127   -0.9553 H   0  0  0  0  0  0  0  0  0  0  0  0
   -0.9237    0.9160   -1.8360 H   0  0  0  0  0  0  0  0  0  0  0  0
    1.0328    2.2159   -0.0580 H   0  0  0  0  0  0  0  0  0  0  0  0
   -0.8154    2.4713   -0.0839 H   0  0  0  0  0  0  0  0  0  0  0  0
   -0.8048    1.1037    1.9179 H   0  0  0  0  0  0  0  0  0  0  0  0
   -0.2354   -1.3193    1.7759 H   0  0  0  0  0  0  0  0  0  0  0  0
    2.1520   -1.6437    0.9139 H   0  0  0  0  0  0  0  0  0  0  0  0
    0.9772   -2.0194   -0.3581 H   0  0  0  0  0  0  0  0  0  0  0  0
    2.7360   -0.7027   -1.2695 H   0  0  0  0  0  0  0  0  0  0  0  0
    2.3771    0.6832   -0.1233 H   0  0  0  0  0  0  0  0  0  0  0  0
  1  2  1  0
  2  3  1  0
  3  4  1  0
  4  5  1  0
  5  6  1  0
  6  7  1  0
  7  8  1  0
  8  9  1  0
  5  2  1  0
  6  2  1  0
  9  3  1  0
  1 10  1  0
  1 11  1  0
  1 12  1  0
  3 13  1  0
  4 14  1  0
  4 15  1  0
  5 16  1  0
  6 17  1  0
  7 18  1  0
  7 19  1  0
  8 20  1  0
  8 21  1  0
M  END
