
     RDKit          3D

 21 23  0  0  0  0  0  0  0  0999 V2000
   -2.3871   -0.2741   -0.2539 C   0  0  0  0  0  0  0  0  0  0  0  0
   -0.8958   -0.2338   -0.1501 C   0  0  0  0  0  0  0  0  0  0  0  0
   -0.3782    0.7943    0.8186 C   0  0  0  0  0  0  0  0  0  0  0  0
    1.0767    1.0940    0.6602 C   0  0  0  0  0  0  0  0  0  0  0  0
    1.7065    1.3893   -0.6280 C   0  0  0  0  0  0  0  0  0  0  0  0
    1.7435   -0.0338   -0.0505 C   0  0  0  0  0  0  0  0  0  0  0  0
    0.7982   -0.9924   -0.7076 C   0  0  0  0  0  0  0  0  0  0  0  0
   -0.2355   -1.5583    0.2224 C   0  0  0  0  0  0  0  0  0  0  0  0
   -0.2144   -0.2807   -1.3390 O   0  0  0  0  0  0  0  0  0  0  0  0
   -2.7583   -0.6322   -1.2391 H   0  0  0  0  0  0  0  0  0  0  0  0
   -2.7547    0.7708   -0.0586 H   0  0  0  0  0  0  0  0  0  0  0  0
   -2.7920   -0.9186    0.5599 H   0  0  0  0  0  0  0  0  0  0  0  0
   -0.4975    0.3387    1.8466 H   0  0  0  0  0  0  0  0  0  0  0  0
   -1.0247    1.7015    0.8444 H   0  0  0  0  0  0  0  0  0  0  0  0
    1.5534    1.5470    1.5587 H   0  0  0  0  0  0  0  0  0  0  0  0
    2.6835    1.8638   -0.6452 H   0  0  0  0  0  0  0  0  0  0  0  0
    1.0982    1.5392   -1.5624 H   0  0  0  0  0  0  0  0  0  0  0  0
    2.6757   -0.3887    0.4092 H   0  0  0  0  0  0  0  0  0  0  0  0
    1.3327   -1.7175   -1.3372 H   0  0  0  0  0  0  0  0  0  0  0  0
    0.0534   -1.6203    1.2745 H   0  0  0  0  0  0  0  0  0  0  0  0
   -0.7834   -2.3883   -0.2230 H   0  0  0  0  0  0  0  0  0  0  0  0
  1  2  1  0
  2  3  1  0
  3  4  1  0
  4  5  1  0
  5  6  1  0
  6  7  1  0
  7  8  1  0
  7  9  1  0
  8  2  1  0
  9  2  1  0
  6  4  1  0
  1 10  1  0
  1 11  1  0
  1 12  1  0
  3 13  1  0
  3 14  1  0
  4 15  1  0
  5 16  1  0
  5 17  1  0
  6 18  1  0
  7 19  1  0
  8 20  1  0
  8 21  1  0
M  END
