
     RDKit          3D

 18 19  0  0  0  0  0  0  0  0999 V2000
    1.9562   -0.6345   -0.3132 C   0  0  0  0  0  0  0  0  0  0  0  0
    0.8197    0.1697    0.2526 C   0  0  0  0  0  0  0  0  0  0  0  0
    0.6137    1.5592   -0.1908 C   0  0  0  0  0  0  0  0  0  0  0  0
   -0.6579    1.9185   -0.1030 C   0  0  0  0  0  0  0  0  0  0  0  0
   -1.4888    0.8041    0.4183 C   0  0  0  0  0  0  0  0  0  0  0  0
   -0.5117   -0.3396    0.4735 C   0  0  0  0  0  0  0  0  0  0  0  0
   -0.9318   -1.6346   -0.1331 C   0  0  0  0  0  0  0  0  0  0  0  0
    0.3872   -0.2513    1.4985 O   0  0  0  0  0  0  0  0  0  0  0  0
    1.6461   -1.4104   -1.0230 H   0  0  0  0  0  0  0  0  0  0  0  0
    2.5400   -1.0925    0.5299 H   0  0  0  0  0  0  0  0  0  0  0  0
    2.7051    0.0336   -0.8296 H   0  0  0  0  0  0  0  0  0  0  0  0
    1.3866    2.2208   -0.5468 H   0  0  0  0  0  0  0  0  0  0  0  0
   -1.0829    2.8872   -0.3654 H   0  0  0  0  0  0  0  0  0  0  0  0
   -1.7880    1.0823    1.4572 H   0  0  0  0  0  0  0  0  0  0  0  0
   -2.3500    0.5617   -0.2063 H   0  0  0  0  0  0  0  0  0  0  0  0
   -0.3262   -1.9320   -1.0198 H   0  0  0  0  0  0  0  0  0  0  0  0
   -0.9336   -2.4130    0.6333 H   0  0  0  0  0  0  0  0  0  0  0  0
   -1.9836   -1.5290   -0.5322 H   0  0  0  0  0  0  0  0  0  0  0  0
  1  2  1  0
  2  3  1  0
  3  4  2  0
  4  5  1  0
  5  6  1  0
  6  7  1  0
  6  8  1  0
  6  2  1  0
  8  2  1  0
  1  9  1  0
  1 10  1  0
  1 11  1  0
  3 12  1  0
  4 13  1  0
  5 14  1  0
  5 15  1  0
  7 16  1  0
  7 17  1  0
  7 18  1  0
M  END
