
     RDKit          3D

 23 25  0  0  0  0  0  0  0  0999 V2000
   -2.4416   -0.6896    0.2839 C   0  0  0  0  0  0  0  0  0  0  0  0
   -0.9935   -0.2649    0.3258 C   0  0  0  0  0  0  0  0  0  0  0  0
   -0.7508    1.1225    0.7805 C   0  0  0  0  0  0  0  0  0  0  0  0
    0.4926    1.6454    0.1536 C   0  0  0  0  0  0  0  0  0  0  0  0
    0.8058    0.6807   -0.9491 C   0  0  0  0  0  0  0  0  0  0  0  0
    2.0298   -0.1021   -0.5486 C   0  0  0  0  0  0  0  0  0  0  0  0
    1.4680   -1.1101    0.4386 C   0  0  0  0  0  0  0  0  0  0  0  0
    0.0250   -1.2877    0.1308 C   0  0  0  0  0  0  0  0  0  0  0  0
   -0.2699   -0.3642   -0.9680 C   0  0  0  0  0  0  0  0  0  0  0  0
   -2.8864   -0.7358    1.3039 H   0  0  0  0  0  0  0  0  0  0  0  0
   -2.9890    0.0864   -0.2889 H   0  0  0  0  0  0  0  0  0  0  0  0
   -2.4980   -1.6636   -0.2398 H   0  0  0  0  0  0  0  0  0  0  0  0
   -1.6029    1.7475    0.3772 H   0  0  0  0  0  0  0  0  0  0  0  0
   -0.7849    1.2526    1.8800 H   0  0  0  0  0  0  0  0  0  0  0  0
    1.3193    1.7131    0.9169 H   0  0  0  0  0  0  0  0  0  0  0  0
    0.3803    2.6890   -0.2278 H   0  0  0  0  0  0  0  0  0  0  0  0
    0.8822    1.1395   -1.9386 H   0  0  0  0  0  0  0  0  0  0  0  0
    2.7077    0.6008   -0.0022 H   0  0  0  0  0  0  0  0  0  0  0  0
    2.5165   -0.5856   -1.4114 H   0  0  0  0  0  0  0  0  0  0  0  0
    2.0184   -2.0571    0.2584 H   0  0  0  0  0  0  0  0  0  0  0  0
    1.6798   -0.8239    1.4894 H   0  0  0  0  0  0  0  0  0  0  0  0
   -0.3309   -2.3474    0.1297 H   0  0  0  0  0  0  0  0  0  0  0  0
   -0.7776   -0.6457   -1.8942 H   0  0  0  0  0  0  0  0  0  0  0  0
  1  2  1  0
  2  3  1  0
  3  4  1  0
  4  5  1  0
  5  6  1  0
  6  7  1  0
  7  8  1  0
  8  9  1  0
  8  2  1  0
  9  2  1  0
  9  5  1  0
  1 10  1  0
  1 11  1  0
  1 12  1  0
  3 13  1  0
  3 14  1  0
  4 15  1  0
  4 16  1  0
  5 17  1  0
  6 18  1  0
  6 19  1  0
  7 20  1  0
  7 21  1  0
  8 22  1  0
  9 23  1  0
M  END
