
     RDKit          3D

 19 21  0  0  0  0  0  0  0  0999 V2000
   -2.1580    0.0500    0.2606 C   0  0  0  0  0  0  0  0  0  0  0  0
   -0.7705   -0.3707    0.0591 C   0  0  0  0  0  0  0  0  0  0  0  0
   -0.4633   -1.7056   -0.0283 O   0  0  0  0  0  0  0  0  0  0  0  0
    0.9370   -1.6765   -0.2560 C   0  0  0  0  0  0  0  0  0  0  0  0
    1.2058   -0.2191   -0.2512 C   0  0  0  0  0  0  0  0  0  0  0  0
    2.4281    0.2794   -0.4048 O   0  0  0  0  0  0  0  0  0  0  0  0
    0.0412    0.3593   -0.9891 C   0  0  0  0  0  0  0  0  0  0  0  0
    0.1271    1.4937   -0.0187 C   0  0  0  0  0  0  0  0  0  0  0  0
    0.3152    0.2908    0.8513 C   0  0  0  0  0  0  0  0  0  0  0  0
   -2.5498    0.4760   -0.7098 H   0  0  0  0  0  0  0  0  0  0  0  0
   -2.7953   -0.8679    0.4190 H   0  0  0  0  0  0  0  0  0  0  0  0
   -2.3434    0.7646    1.0749 H   0  0  0  0  0  0  0  0  0  0  0  0
    1.1718   -2.1923   -1.2053 H   0  0  0  0  0  0  0  0  0  0  0  0
    1.4017   -2.1960    0.6163 H   0  0  0  0  0  0  0  0  0  0  0  0
    2.7727    0.7363    0.3774 H   0  0  0  0  0  0  0  0  0  0  0  0
   -0.1302    0.3819   -1.9693 H   0  0  0  0  0  0  0  0  0  0  0  0
   -0.7639    2.0959    0.1442 H   0  0  0  0  0  0  0  0  0  0  0  0
    1.0922    2.0513   -0.1003 H   0  0  0  0  0  0  0  0  0  0  0  0
    0.4817    0.2488    1.8337 H   0  0  0  0  0  0  0  0  0  0  0  0
  1  2  1  0
  2  3  1  0
  3  4  1  0
  4  5  1  0
  5  6  1  0
  5  7  1  0
  7  8  1  0
  8  9  1  0
  7  2  1  0
  9  2  1  0
  9  5  1  0
  1 10  1  0
  1 11  1  0
  1 12  1  0
  4 13  1  0
  4 14  1  0
  6 15  1  0
  7 16  1  0
  8 17  1  0
  8 18  1  0
  9 19  1  0
M  END
