
     RDKit          3D

 23 24  0  0  0  0  0  0  0  0999 V2000
    2.0814    0.6728   -0.5215 C   0  0  0  0  0  0  0  0  0  0  0  0
    0.9626   -0.1210    0.1148 C   0  0  0  0  0  0  0  0  0  0  0  0
    0.2828    0.7348    1.1650 C   0  0  0  0  0  0  0  0  0  0  0  0
   -0.7692    1.5290    0.3793 C   0  0  0  0  0  0  0  0  0  0  0  0
   -1.8666    0.5074    0.1175 C   0  0  0  0  0  0  0  0  0  0  0  0
   -1.3752   -0.6032   -0.7191 C   0  0  0  0  0  0  0  0  0  0  0  0
    0.0588   -0.8622   -0.7621 C   0  0  0  0  0  0  0  0  0  0  0  0
    0.4581   -2.0021    0.1803 C   0  0  0  0  0  0  0  0  0  0  0  0
    1.4875   -1.2618    0.7178 O   0  0  0  0  0  0  0  0  0  0  0  0
    2.4948    0.2257   -1.4185 H   0  0  0  0  0  0  0  0  0  0  0  0
    2.8327    0.8714    0.2840 H   0  0  0  0  0  0  0  0  0  0  0  0
    1.6833    1.6826   -0.8011 H   0  0  0  0  0  0  0  0  0  0  0  0
   -0.2345    0.0276    1.8623 H   0  0  0  0  0  0  0  0  0  0  0  0
    1.0034    1.3818    1.6629 H   0  0  0  0  0  0  0  0  0  0  0  0
   -1.1128    2.4101    0.9115 H   0  0  0  0  0  0  0  0  0  0  0  0
   -0.3470    1.7824   -0.6255 H   0  0  0  0  0  0  0  0  0  0  0  0
   -2.7454    1.0042   -0.3395 H   0  0  0  0  0  0  0  0  0  0  0  0
   -2.1418    0.1092    1.1379 H   0  0  0  0  0  0  0  0  0  0  0  0
   -1.7574   -0.4397   -1.7704 H   0  0  0  0  0  0  0  0  0  0  0  0
   -1.9091   -1.5445   -0.3934 H   0  0  0  0  0  0  0  0  0  0  0  0
    0.4705   -1.0103   -1.8005 H   0  0  0  0  0  0  0  0  0  0  0  0
    0.7689   -2.9171   -0.3490 H   0  0  0  0  0  0  0  0  0  0  0  0
   -0.3260   -2.1771    0.9671 H   0  0  0  0  0  0  0  0  0  0  0  0
  1  2  1  0
  2  3  1  0
  3  4  1  0
  4  5  1  0
  5  6  1  0
  6  7  1  0
  7  8  1  0
  8  9  1  0
  7  2  1  0
  9  2  1  0
  1 10  1  0
  1 11  1  0
  1 12  1  0
  3 13  1  0
  3 14  1  0
  4 15  1  0
  4 16  1  0
  5 17  1  0
  5 18  1  0
  6 19  1  0
  6 20  1  0
  7 21  1  0
  8 22  1  0
  8 23  1  0
M  END
