
     RDKit          3D

 21 23  0  0  0  0  0  0  0  0999 V2000
   -1.5247   -1.1346    0.8390 C   0  0  0  0  0  0  0  0  0  0  0  0
   -0.8041   -0.2664   -0.0689 C   0  0  0  0  0  0  0  0  0  0  0  0
   -1.2207    1.1930   -0.1757 C   0  0  0  0  0  0  0  0  0  0  0  0
   -0.6259    0.9627   -1.5241 C   0  0  0  0  0  0  0  0  0  0  0  0
    0.8687    0.7623   -1.2401 C   0  0  0  0  0  0  0  0  0  0  0  0
    0.6778   -0.1550   -0.0204 C   0  0  0  0  0  0  0  0  0  0  0  0
    1.6201   -1.1624    0.3527 C   0  0  0  0  0  0  0  0  0  0  0  0
    1.3985    0.0805    1.2218 C   0  0  0  0  0  0  0  0  0  0  0  0
   -1.0938   -0.3474   -1.4499 O   0  0  0  0  0  0  0  0  0  0  0  0
   -2.5246   -0.6754    1.0924 H   0  0  0  0  0  0  0  0  0  0  0  0
   -1.7821   -2.1018    0.3135 H   0  0  0  0  0  0  0  0  0  0  0  0
   -0.9752   -1.3088    1.7630 H   0  0  0  0  0  0  0  0  0  0  0  0
   -0.6026    1.8871    0.4277 H   0  0  0  0  0  0  0  0  0  0  0  0
   -2.2907    1.3726   -0.1653 H   0  0  0  0  0  0  0  0  0  0  0  0
   -0.8932    1.5694   -2.3538 H   0  0  0  0  0  0  0  0  0  0  0  0
    1.3592    1.6978   -0.9713 H   0  0  0  0  0  0  0  0  0  0  0  0
    1.3413    0.2110   -2.0650 H   0  0  0  0  0  0  0  0  0  0  0  0
    2.6290   -1.1526   -0.1476 H   0  0  0  0  0  0  0  0  0  0  0  0
    1.3646   -2.1453    0.7506 H   0  0  0  0  0  0  0  0  0  0  0  0
    0.9151   -0.1549    2.1975 H   0  0  0  0  0  0  0  0  0  0  0  0
    2.1633    0.8683    1.2237 H   0  0  0  0  0  0  0  0  0  0  0  0
  1  2  1  0
  2  3  1  0
  3  4  1  0
  4  5  1  0
  5  6  1  0
  6  7  1  0
  7  8  1  0
  4  9  1  0
  6  2  1  0
  9  2  1  0
  8  6  1  0
  1 10  1  0
  1 11  1  0
  1 12  1  0
  3 13  1  0
  3 14  1  0
  4 15  1  0
  5 16  1  0
  5 17  1  0
  7 18  1  0
  7 19  1  0
  8 20  1  0
  8 21  1  0
M  END
