
     RDKit          3D

 21 22  0  0  0  0  0  0  0  0999 V2000
   -0.5730    1.4231    1.1883 C   0  0  0  0  0  0  0  0  0  0  0  0
   -0.7796    0.2710    0.2340 C   0  0  0  0  0  0  0  0  0  0  0  0
   -1.4143    0.5653   -1.0914 C   0  0  0  0  0  0  0  0  0  0  0  0
   -0.5532    0.0763   -2.0709 O   0  0  0  0  0  0  0  0  0  0  0  0
    0.0842   -1.0344   -1.5368 C   0  0  0  0  0  0  0  0  0  0  0  0
    0.2885   -0.6830   -0.0712 C   0  0  0  0  0  0  0  0  0  0  0  0
    1.7077   -0.4602    0.4018 C   0  0  0  0  0  0  0  0  0  0  0  0
    2.1228    0.7592   -0.1696 O   0  0  0  0  0  0  0  0  0  0  0  0
   -0.7882   -1.0774    0.8354 C   0  0  0  0  0  0  0  0  0  0  0  0
   -0.3992    1.0484    2.2276 H   0  0  0  0  0  0  0  0  0  0  0  0
   -1.5369    1.9927    1.2258 H   0  0  0  0  0  0  0  0  0  0  0  0
    0.2813    2.0468    0.9252 H   0  0  0  0  0  0  0  0  0  0  0  0
   -2.4236    0.1691   -1.2098 H   0  0  0  0  0  0  0  0  0  0  0  0
   -1.4476    1.6781   -1.2130 H   0  0  0  0  0  0  0  0  0  0  0  0
    1.0598   -1.2280   -2.0032 H   0  0  0  0  0  0  0  0  0  0  0  0
   -0.6175   -1.9097   -1.6156 H   0  0  0  0  0  0  0  0  0  0  0  0
    1.7239   -0.3663    1.4886 H   0  0  0  0  0  0  0  0  0  0  0  0
    2.3961   -1.2345    0.0708 H   0  0  0  0  0  0  0  0  0  0  0  0
    3.0584    0.9523    0.0128 H   0  0  0  0  0  0  0  0  0  0  0  0
   -0.6437   -1.1677    1.9189 H   0  0  0  0  0  0  0  0  0  0  0  0
   -1.5458   -1.8209    0.4522 H   0  0  0  0  0  0  0  0  0  0  0  0
  1  2  1  0
  2  3  1  0
  3  4  1  0
  4  5  1  0
  5  6  1  0
  6  7  1  0
  7  8  1  0
  6  9  1  0
  6  2  1  0
  9  2  1  0
  1 10  1  0
  1 11  1  0
  1 12  1  0
  3 13  1  0
  3 14  1  0
  5 15  1  0
  5 16  1  0
  7 17  1  0
  7 18  1  0
  8 19  1  0
  9 20  1  0
  9 21  1  0
M  END
