
     RDKit          3D

 21 23  0  0  0  0  0  0  0  0999 V2000
    2.2163   -0.1706   -0.2014 C   0  0  0  0  0  0  0  0  0  0  0  0
    0.7969    0.0033   -0.0303 C   0  0  0  0  0  0  0  0  0  0  0  0
    0.2650    1.4220   -0.0592 C   0  0  0  0  0  0  0  0  0  0  0  0
   -1.2264    1.1185    0.1111 C   0  0  0  0  0  0  0  0  0  0  0  0
   -1.2638   -0.0394    1.0012 C   0  0  0  0  0  0  0  0  0  0  0  0
    0.1859   -0.4836    1.2692 C   0  0  0  0  0  0  0  0  0  0  0  0
   -1.4602   -0.2304   -0.4397 C   0  0  0  0  0  0  0  0  0  0  0  0
   -2.6213   -0.6306   -1.0248 O   0  0  0  0  0  0  0  0  0  0  0  0
   -0.1123   -0.7059   -1.0109 C   0  0  0  0  0  0  0  0  0  0  0  0
    2.6659    0.7766   -0.6213 H   0  0  0  0  0  0  0  0  0  0  0  0
    2.8086   -0.3624    0.7321 H   0  0  0  0  0  0  0  0  0  0  0  0
    2.4546   -0.9529   -0.9789 H   0  0  0  0  0  0  0  0  0  0  0  0
    0.5846    1.9198    0.8672 H   0  0  0  0  0  0  0  0  0  0  0  0
    0.4865    1.9506   -0.9799 H   0  0  0  0  0  0  0  0  0  0  0  0
   -1.9480    1.9210    0.1172 H   0  0  0  0  0  0  0  0  0  0  0  0
   -2.0127   -0.1827    1.7671 H   0  0  0  0  0  0  0  0  0  0  0  0
    0.6247    0.0444    2.1087 H   0  0  0  0  0  0  0  0  0  0  0  0
    0.1490   -1.5737    1.3524 H   0  0  0  0  0  0  0  0  0  0  0  0
   -2.6434   -1.6137   -1.1107 H   0  0  0  0  0  0  0  0  0  0  0  0
    0.0294   -0.4064   -2.0423 H   0  0  0  0  0  0  0  0  0  0  0  0
    0.0208   -1.8037   -0.8268 H   0  0  0  0  0  0  0  0  0  0  0  0
  1  2  1  0
  2  3  1  0
  3  4  1  0
  4  5  1  0
  5  6  1  0
  5  7  1  0
  7  8  1  0
  7  9  1  0
  6  2  1  0
  9  2  1  0
  7  4  1  0
  1 10  1  0
  1 11  1  0
  1 12  1  0
  3 13  1  0
  3 14  1  0
  4 15  1  0
  5 16  1  0
  6 17  1  0
  6 18  1  0
  8 19  1  0
  9 20  1  0
  9 21  1  0
M  END
