
     RDKit          3D

 19 21  0  0  0  0  0  0  0  0999 V2000
    2.5309    0.1352    0.2194 C   0  0  0  0  0  0  0  0  0  0  0  0
    1.1189   -0.2787   -0.0328 C   0  0  0  0  0  0  0  0  0  0  0  0
    0.7710   -0.9377   -1.1863 O   0  0  0  0  0  0  0  0  0  0  0  0
   -0.4022   -0.1743   -1.3328 C   0  0  0  0  0  0  0  0  0  0  0  0
   -1.5662   -0.7777   -0.5591 C   0  0  0  0  0  0  0  0  0  0  0  0
   -1.2915   -0.5034    0.9019 C   0  0  0  0  0  0  0  0  0  0  0  0
   -2.1861    0.5042    1.3222 O   0  0  0  0  0  0  0  0  0  0  0  0
    0.0887    0.1434    0.9360 C   0  0  0  0  0  0  0  0  0  0  0  0
    0.1644    0.7955   -0.3744 C   0  0  0  0  0  0  0  0  0  0  0  0
    3.0295    0.3209   -0.7742 H   0  0  0  0  0  0  0  0  0  0  0  0
    2.5949    1.1282    0.7421 H   0  0  0  0  0  0  0  0  0  0  0  0
    3.1105   -0.5644    0.8429 H   0  0  0  0  0  0  0  0  0  0  0  0
   -0.6234    0.1694   -2.3408 H   0  0  0  0  0  0  0  0  0  0  0  0
   -1.6986   -1.8506   -0.7718 H   0  0  0  0  0  0  0  0  0  0  0  0
   -2.4971   -0.2741   -0.9038 H   0  0  0  0  0  0  0  0  0  0  0  0
   -1.3731   -1.3764    1.5432 H   0  0  0  0  0  0  0  0  0  0  0  0
   -2.5575    1.0003    0.5443 H   0  0  0  0  0  0  0  0  0  0  0  0
    0.3700    0.7275    1.8064 H   0  0  0  0  0  0  0  0  0  0  0  0
    0.4169    1.8127   -0.5824 H   0  0  0  0  0  0  0  0  0  0  0  0
  1  2  1  0
  2  3  1  0
  3  4  1  0
  4  5  1  0
  5  6  1  0
  6  7  1  0
  6  8  1  0
  8  9  1  0
  8  2  1  0
  9  2  1  0
  9  4  1  0
  1 10  1  0
  1 11  1  0
  1 12  1  0
  4 13  1  0
  5 14  1  0
  5 15  1  0
  6 16  1  0
  7 17  1  0
  8 18  1  0
  9 19  1  0
M  END
