
     RDKit          3D

 17 18  0  0  0  0  0  0  0  0999 V2000
    2.0445   -0.3114    0.1273 C   0  0  0  0  0  0  0  0  0  0  0  0
    0.6331   -0.1384   -0.1524 C   0  0  0  0  0  0  0  0  0  0  0  0
    0.2041    1.1933   -0.6566 C   0  0  0  0  0  0  0  0  0  0  0  0
   -1.1142    1.2533   -0.4728 C   0  0  0  0  0  0  0  0  0  0  0  0
   -1.5498   -0.0070    0.2258 C   0  0  0  0  0  0  0  0  0  0  0  0
   -0.2841   -0.2088    1.0886 C   0  0  0  0  0  0  0  0  0  0  0  0
   -1.3598   -1.1002   -0.7281 C   0  0  0  0  0  0  0  0  0  0  0  0
   -2.2261   -1.8326   -1.2547 O   0  0  0  0  0  0  0  0  0  0  0  0
    0.0148   -1.1618   -0.9363 O   0  0  0  0  0  0  0  0  0  0  0  0
    2.3734   -1.3429   -0.1950 H   0  0  0  0  0  0  0  0  0  0  0  0
    2.6954    0.3787   -0.4594 H   0  0  0  0  0  0  0  0  0  0  0  0
    2.2615   -0.2551    1.2246 H   0  0  0  0  0  0  0  0  0  0  0  0
    0.8717    1.9314   -1.0799 H   0  0  0  0  0  0  0  0  0  0  0  0
   -1.7058    2.0922   -0.7950 H   0  0  0  0  0  0  0  0  0  0  0  0
   -2.4506    0.0531    0.7719 H   0  0  0  0  0  0  0  0  0  0  0  0
   -0.2594   -1.1913    1.5494 H   0  0  0  0  0  0  0  0  0  0  0  0
   -0.1488    0.6474    1.7425 H   0  0  0  0  0  0  0  0  0  0  0  0
  1  2  1  0
  2  3  1  0
  3  4  2  0
  4  5  1  0
  5  6  1  0
  5  7  1  0
  7  8  2  0
  7  9  1  0
  6  2  1  0
  9  2  1  0
  1 10  1  0
  1 11  1  0
  1 12  1  0
  3 13  1  0
  4 14  1  0
  5 15  1  0
  6 16  1  0
  6 17  1  0
M  END
