
     RDKit          3D

 19 20  0  0  0  0  0  0  0  0999 V2000
    1.7268    0.2809   -0.8339 C   0  0  0  0  0  0  0  0  0  0  0  0
    0.6123   -0.2088    0.0247 C   0  0  0  0  0  0  0  0  0  0  0  0
    0.0690   -1.5727   -0.3124 C   0  0  0  0  0  0  0  0  0  0  0  0
   -1.3463   -1.5284    0.0886 C   0  0  0  0  0  0  0  0  0  0  0  0
   -1.7492   -0.3417    0.4488 C   0  0  0  0  0  0  0  0  0  0  0  0
   -0.5907    0.5848    0.3224 C   0  0  0  0  0  0  0  0  0  0  0  0
   -0.8430    1.9016   -0.2676 C   0  0  0  0  0  0  0  0  0  0  0  0
   -1.0483    1.9934   -1.4649 O   0  0  0  0  0  0  0  0  0  0  0  0
    0.4666    0.3871    1.3599 C   0  0  0  0  0  0  0  0  0  0  0  0
    1.5269    1.2058   -1.3764 H   0  0  0  0  0  0  0  0  0  0  0  0
    2.6319    0.4615   -0.2065 H   0  0  0  0  0  0  0  0  0  0  0  0
    2.0357   -0.4889   -1.5946 H   0  0  0  0  0  0  0  0  0  0  0  0
    0.6428   -2.3629    0.1824 H   0  0  0  0  0  0  0  0  0  0  0  0
    0.0947   -1.6603   -1.4244 H   0  0  0  0  0  0  0  0  0  0  0  0
   -1.9965   -2.4091    0.0839 H   0  0  0  0  0  0  0  0  0  0  0  0
   -2.7234   -0.0074    0.7886 H   0  0  0  0  0  0  0  0  0  0  0  0
   -0.8454    2.7812    0.3619 H   0  0  0  0  0  0  0  0  0  0  0  0
    1.0714    1.2691    1.5805 H   0  0  0  0  0  0  0  0  0  0  0  0
    0.2648   -0.2852    2.2390 H   0  0  0  0  0  0  0  0  0  0  0  0
  1  2  1  0
  2  3  1  0
  3  4  1  0
  4  5  2  0
  5  6  1  0
  6  7  1  0
  7  8  2  0
  6  9  1  0
  6  2  1  0
  9  2  1  0
  1 10  1  0
  1 11  1  0
  1 12  1  0
  3 13  1  0
  3 14  1  0
  4 15  1  0
  5 16  1  0
  7 17  1  0
  9 18  1  0
  9 19  1  0
M  END
