
     RDKit          3D

 17 19  0  0  0  0  0  0  0  0999 V2000
   -2.1048   -0.0933    0.0891 C   0  0  0  0  0  0  0  0  0  0  0  0
   -0.6066   -0.0559    0.0707 C   0  0  0  0  0  0  0  0  0  0  0  0
    0.1252   -1.3337    0.1838 C   0  0  0  0  0  0  0  0  0  0  0  0
    1.4466   -1.2816   -0.0410 C   0  0  0  0  0  0  0  0  0  0  0  0
    1.9773    0.1352   -0.1204 C   0  0  0  0  0  0  0  0  0  0  0  0
    1.4400    0.7846    0.9958 O   0  0  0  0  0  0  0  0  0  0  0  0
    0.1308    1.0596    0.7165 C   0  0  0  0  0  0  0  0  0  0  0  0
    0.0277    0.9647   -0.7717 C   0  0  0  0  0  0  0  0  0  0  0  0
    1.3106    0.7225   -1.1752 O   0  0  0  0  0  0  0  0  0  0  0  0
   -2.4798    0.9276   -0.2077 H   0  0  0  0  0  0  0  0  0  0  0  0
   -2.5361   -0.3934    1.0558 H   0  0  0  0  0  0  0  0  0  0  0  0
   -2.4409   -0.7632   -0.7489 H   0  0  0  0  0  0  0  0  0  0  0  0
   -0.4147   -2.2357    0.4359 H   0  0  0  0  0  0  0  0  0  0  0  0
    2.0682   -2.1407   -0.1537 H   0  0  0  0  0  0  0  0  0  0  0  0
    3.0600    0.1701   -0.1757 H   0  0  0  0  0  0  0  0  0  0  0  0
   -0.3992    1.8918    1.1941 H   0  0  0  0  0  0  0  0  0  0  0  0
   -0.6044    1.6414   -1.3476 H   0  0  0  0  0  0  0  0  0  0  0  0
  1  2  1  0
  2  3  1  0
  3  4  2  0
  4  5  1  0
  5  6  1  0
  6  7  1  0
  7  8  1  0
  8  9  1  0
  7  2  1  0
  8  2  1  0
  9  5  1  0
  1 10  1  0
  1 11  1  0
  1 12  1  0
  3 13  1  0
  4 14  1  0
  5 15  1  0
  7 16  1  0
  8 17  1  0
M  END
