
     RDKit          3D

 16 18  0  0  0  0  0  0  0  0999 V2000
    2.0815   -0.0531    0.2136 C   0  0  0  0  0  0  0  0  0  0  0  0
    0.5693   -0.0850    0.3360 C   0  0  0  0  0  0  0  0  0  0  0  0
   -0.1431    1.1042   -0.2385 C   0  0  0  0  0  0  0  0  0  0  0  0
   -1.5880    0.7231   -0.4100 C   0  0  0  0  0  0  0  0  0  0  0  0
   -2.3089    0.2142    0.6462 O   0  0  0  0  0  0  0  0  0  0  0  0
   -1.6469   -0.7267   -0.1270 C   0  0  0  0  0  0  0  0  0  0  0  0
   -0.2672   -1.1866    0.2519 C   0  0  0  0  0  0  0  0  0  0  0  0
    0.1308   -0.6580    1.5244 O   0  0  0  0  0  0  0  0  0  0  0  0
    2.4377    0.3460   -0.7328 H   0  0  0  0  0  0  0  0  0  0  0  0
    2.4601    0.5792    1.0658 H   0  0  0  0  0  0  0  0  0  0  0  0
    2.4307   -1.0833    0.4430 H   0  0  0  0  0  0  0  0  0  0  0  0
   -0.0129    2.0169    0.3617 H   0  0  0  0  0  0  0  0  0  0  0  0
    0.2760    1.2580   -1.2720 H   0  0  0  0  0  0  0  0  0  0  0  0
   -2.1539    1.1359   -1.2775 H   0  0  0  0  0  0  0  0  0  0  0  0
   -2.2452   -1.3370   -0.8440 H   0  0  0  0  0  0  0  0  0  0  0  0
   -0.0199   -2.2477    0.0591 H   0  0  0  0  0  0  0  0  0  0  0  0
  1  2  1  0
  2  3  1  0
  3  4  1  0
  4  5  1  0
  5  6  1  0
  6  7  1  0
  7  8  1  0
  7  2  1  0
  8  2  1  0
  6  4  1  0
  1  9  1  0
  1 10  1  0
  1 11  1  0
  3 12  1  0
  3 13  1  0
  4 14  1  0
  6 15  1  0
  7 16  1  0
M  END
