
     RDKit          3D

 19 20  0  0  0  0  0  0  0  0999 V2000
   -0.9218    1.4961    0.5142 C   0  0  0  0  0  0  0  0  0  0  0  0
   -0.8155    0.1257   -0.1092 C   0  0  0  0  0  0  0  0  0  0  0  0
   -1.9568   -0.7762    0.0570 C   0  0  0  0  0  0  0  0  0  0  0  0
   -0.7651   -1.0814    0.8655 C   0  0  0  0  0  0  0  0  0  0  0  0
    0.4024   -1.6591    0.0694 C   0  0  0  0  0  0  0  0  0  0  0  0
    0.5297   -0.3081   -0.5803 C   0  0  0  0  0  0  0  0  0  0  0  0
    1.5431    0.4847    0.0174 O   0  0  0  0  0  0  0  0  0  0  0  0
    2.5420    1.1112   -0.7002 C   0  0  0  0  0  0  0  0  0  0  0  0
    2.5294    0.9525   -1.9608 O   0  0  0  0  0  0  0  0  0  0  0  0
   -1.9239    1.9233    0.2954 H   0  0  0  0  0  0  0  0  0  0  0  0
   -0.1072    2.1360    0.0793 H   0  0  0  0  0  0  0  0  0  0  0  0
   -0.7117    1.3916    1.5896 H   0  0  0  0  0  0  0  0  0  0  0  0
   -2.8314   -0.3946    0.5863 H   0  0  0  0  0  0  0  0  0  0  0  0
   -2.2213   -1.5520   -0.7152 H   0  0  0  0  0  0  0  0  0  0  0  0
   -0.6251   -0.7923    1.9008 H   0  0  0  0  0  0  0  0  0  0  0  0
    1.2471   -2.0095    0.6564 H   0  0  0  0  0  0  0  0  0  0  0  0
    0.0868   -2.4393   -0.6726 H   0  0  0  0  0  0  0  0  0  0  0  0
    0.6877   -0.3260   -1.6801 H   0  0  0  0  0  0  0  0  0  0  0  0
    3.3117    1.7173   -0.2126 H   0  0  0  0  0  0  0  0  0  0  0  0
  1  2  1  0
  2  3  1  0
  3  4  1  0
  4  5  1  0
  5  6  1  0
  6  7  1  0
  7  8  1  0
  8  9  2  0
  4  2  1  0
  6  2  1  0
  1 10  1  0
  1 11  1  0
  1 12  1  0
  3 13  1  0
  3 14  1  0
  4 15  1  0
  5 16  1  0
  5 17  1  0
  6 18  1  0
  8 19  1  0
M  END
