
     RDKit          3D

 18 19  0  0  0  0  0  0  0  0999 V2000
   -2.1063   -0.0835    0.4359 C   0  0  0  0  0  0  0  0  0  0  0  0
   -0.8406    0.1461   -0.3540 C   0  0  0  0  0  0  0  0  0  0  0  0
   -0.3450    1.5253   -0.5061 C   0  0  0  0  0  0  0  0  0  0  0  0
    0.4095    0.5969    0.3497 C   0  0  0  0  0  0  0  0  0  0  0  0
    1.4687   -0.2408   -0.3673 C   0  0  0  0  0  0  0  0  0  0  0  0
    2.5767   -0.4684    0.3889 O   0  0  0  0  0  0  0  0  0  0  0  0
    0.6651   -1.4728   -0.6939 C   0  0  0  0  0  0  0  0  0  0  0  0
   -0.5071   -0.8728   -1.2129 O   0  0  0  0  0  0  0  0  0  0  0  0
   -1.9421   -0.1471    1.5185 H   0  0  0  0  0  0  0  0  0  0  0  0
   -2.8030    0.7521    0.1724 H   0  0  0  0  0  0  0  0  0  0  0  0
   -2.6475   -1.0109    0.0846 H   0  0  0  0  0  0  0  0  0  0  0  0
   -0.9670    2.3313   -0.0588 H   0  0  0  0  0  0  0  0  0  0  0  0
    0.1851    1.8740   -1.4214 H   0  0  0  0  0  0  0  0  0  0  0  0
    0.4109    0.6385    1.4446 H   0  0  0  0  0  0  0  0  0  0  0  0
    1.7396    0.2632   -1.3210 H   0  0  0  0  0  0  0  0  0  0  0  0
    3.2386    0.2615    0.1848 H   0  0  0  0  0  0  0  0  0  0  0  0
    1.1113   -2.1144   -1.4534 H   0  0  0  0  0  0  0  0  0  0  0  0
    0.3530   -1.9782    0.2303 H   0  0  0  0  0  0  0  0  0  0  0  0
  1  2  1  0
  2  3  1  0
  3  4  1  0
  4  5  1  0
  5  6  1  0
  5  7  1  0
  7  8  1  0
  4  2  1  0
  8  2  1  0
  1  9  1  0
  1 10  1  0
  1 11  1  0
  3 12  1  0
  3 13  1  0
  4 14  1  0
  5 15  1  0
  6 16  1  0
  7 17  1  0
  7 18  1  0
M  END
