
     RDKit          3D

 21 22  0  0  0  0  0  0  0  0999 V2000
   -1.7542    0.5349    0.8998 C   0  0  0  0  0  0  0  0  0  0  0  0
   -0.6689    0.2223   -0.0690 C   0  0  0  0  0  0  0  0  0  0  0  0
   -0.2766    1.3744   -0.8983 C   0  0  0  0  0  0  0  0  0  0  0  0
    1.0230    1.4571   -1.1093 C   0  0  0  0  0  0  0  0  0  0  0  0
    1.6741    0.3251   -0.4183 C   0  0  0  0  0  0  0  0  0  0  0  0
    0.6514   -0.1991    0.5159 C   0  0  0  0  0  0  0  0  0  0  0  0
    0.7939    0.0607    1.8554 O   0  0  0  0  0  0  0  0  0  0  0  0
    0.2613   -1.6315    0.1622 C   0  0  0  0  0  0  0  0  0  0  0  0
   -0.7994   -1.1052   -0.7916 C   0  0  0  0  0  0  0  0  0  0  0  0
   -1.4756    1.4529    1.4487 H   0  0  0  0  0  0  0  0  0  0  0  0
   -2.6840    0.7269    0.3221 H   0  0  0  0  0  0  0  0  0  0  0  0
   -1.9316   -0.2497    1.6474 H   0  0  0  0  0  0  0  0  0  0  0  0
   -1.0055    2.0906   -1.2980 H   0  0  0  0  0  0  0  0  0  0  0  0
    1.5461    2.2374   -1.7013 H   0  0  0  0  0  0  0  0  0  0  0  0
    2.6126    0.6627    0.0860 H   0  0  0  0  0  0  0  0  0  0  0  0
    1.9451   -0.4358   -1.2061 H   0  0  0  0  0  0  0  0  0  0  0  0
    1.4007   -0.5535    2.3235 H   0  0  0  0  0  0  0  0  0  0  0  0
   -0.1462   -2.1763    1.0317 H   0  0  0  0  0  0  0  0  0  0  0  0
    1.0820   -2.1932   -0.3541 H   0  0  0  0  0  0  0  0  0  0  0  0
   -1.7628   -1.6123   -0.6137 H   0  0  0  0  0  0  0  0  0  0  0  0
   -0.4855   -0.9886   -1.8330 H   0  0  0  0  0  0  0  0  0  0  0  0
  1  2  1  0
  2  3  1  0
  3  4  2  0
  4  5  1  0
  5  6  1  0
  6  7  1  0
  6  8  1  0
  8  9  1  0
  6  2  1  0
  9  2  1  0
  1 10  1  0
  1 11  1  0
  1 12  1  0
  3 13  1  0
  4 14  1  0
  5 15  1  0
  5 16  1  0
  7 17  1  0
  8 18  1  0
  8 19  1  0
  9 20  1  0
  9 21  1  0
M  END
