
     RDKit          3D

 21 23  0  0  0  0  0  0  0  0999 V2000
    1.9180   -0.1981    1.1808 C   0  0  0  0  0  0  0  0  0  0  0  0
    1.1022   -0.5855    0.0054 C   0  0  0  0  0  0  0  0  0  0  0  0
    1.3491   -0.1302   -1.3634 C   0  0  0  0  0  0  0  0  0  0  0  0
    0.1191    0.2966   -0.6201 C   0  0  0  0  0  0  0  0  0  0  0  0
   -0.0392    1.7447   -0.2846 C   0  0  0  0  0  0  0  0  0  0  0  0
   -0.8107   -0.7130   -0.1106 C   0  0  0  0  0  0  0  0  0  0  0  0
   -1.8642   -0.5529    0.8673 C   0  0  0  0  0  0  0  0  0  0  0  0
   -2.1491   -0.9364   -0.5720 C   0  0  0  0  0  0  0  0  0  0  0  0
    0.1654   -1.6398    0.1231 O   0  0  0  0  0  0  0  0  0  0  0  0
    1.5202   -0.6748    2.0947 H   0  0  0  0  0  0  0  0  0  0  0  0
    2.9533   -0.5685    1.0570 H   0  0  0  0  0  0  0  0  0  0  0  0
    1.9683    0.9066    1.3155 H   0  0  0  0  0  0  0  0  0  0  0  0
    2.1474    0.5929   -1.5945 H   0  0  0  0  0  0  0  0  0  0  0  0
    1.2580   -0.9203   -2.1630 H   0  0  0  0  0  0  0  0  0  0  0  0
    0.9388    2.2617   -0.1952 H   0  0  0  0  0  0  0  0  0  0  0  0
   -0.7089    1.9444    0.5644 H   0  0  0  0  0  0  0  0  0  0  0  0
   -0.5369    2.2286   -1.1760 H   0  0  0  0  0  0  0  0  0  0  0  0
   -2.1570    0.4247    1.2506 H   0  0  0  0  0  0  0  0  0  0  0  0
   -2.0327   -1.4227    1.5692 H   0  0  0  0  0  0  0  0  0  0  0  0
   -2.6583   -0.1091   -1.1293 H   0  0  0  0  0  0  0  0  0  0  0  0
   -2.4828   -1.9489   -0.8193 H   0  0  0  0  0  0  0  0  0  0  0  0
  1  2  1  0
  2  3  1  0
  3  4  1  0
  4  5  1  0
  4  6  1  0
  6  7  1  0
  7  8  1  0
  6  9  1  0
  4  2  1  0
  8  6  1  0
  9  2  1  0
  1 10  1  0
  1 11  1  0
  1 12  1  0
  3 13  1  0
  3 14  1  0
  5 15  1  0
  5 16  1  0
  5 17  1  0
  7 18  1  0
  7 19  1  0
  8 20  1  0
  8 21  1  0
M  END
