
     RDKit          3D

 21 22  0  0  0  0  0  0  0  0999 V2000
    1.7238    1.2334   -0.1807 C   0  0  0  0  0  0  0  0  0  0  0  0
    0.7258    0.1663    0.1096 C   0  0  0  0  0  0  0  0  0  0  0  0
    1.3051   -1.1133    0.7183 C   0  0  0  0  0  0  0  0  0  0  0  0
    0.6765   -1.0805   -0.6696 C   0  0  0  0  0  0  0  0  0  0  0  0
   -0.6410   -1.7326   -0.7300 C   0  0  0  0  0  0  0  0  0  0  0  0
   -1.7936   -1.0858   -0.5975 C   0  0  0  0  0  0  0  0  0  0  0  0
   -1.7082    0.3838   -0.3765 C   0  0  0  0  0  0  0  0  0  0  0  0
   -0.6155    0.6527    0.6025 C   0  0  0  0  0  0  0  0  0  0  0  0
   -0.5787    2.0414    0.8373 O   0  0  0  0  0  0  0  0  0  0  0  0
    1.7293    1.5461   -1.2484 H   0  0  0  0  0  0  0  0  0  0  0  0
    1.5204    2.1439    0.4154 H   0  0  0  0  0  0  0  0  0  0  0  0
    2.7687    0.9202    0.1123 H   0  0  0  0  0  0  0  0  0  0  0  0
    0.7279   -1.5168    1.5614 H   0  0  0  0  0  0  0  0  0  0  0  0
    2.3929   -1.2073    0.8054 H   0  0  0  0  0  0  0  0  0  0  0  0
    1.3720   -1.2298   -1.5221 H   0  0  0  0  0  0  0  0  0  0  0  0
   -0.6937   -2.8017   -0.8912 H   0  0  0  0  0  0  0  0  0  0  0  0
   -2.7569   -1.5970   -0.6468 H   0  0  0  0  0  0  0  0  0  0  0  0
   -2.6473    0.8063    0.0217 H   0  0  0  0  0  0  0  0  0  0  0  0
   -1.4742    0.8356   -1.3632 H   0  0  0  0  0  0  0  0  0  0  0  0
   -0.8253    0.1084    1.5510 H   0  0  0  0  0  0  0  0  0  0  0  0
   -1.2078    2.5266    0.2361 H   0  0  0  0  0  0  0  0  0  0  0  0
  1  2  1  0
  2  3  1  0
  3  4  1  0
  4  5  1  0
  5  6  2  0
  6  7  1  0
  7  8  1  0
  8  9  1  0
  4  2  1  0
  8  2  1  0
  1 10  1  0
  1 11  1  0
  1 12  1  0
  3 13  1  0
  3 14  1  0
  4 15  1  0
  5 16  1  0
  6 17  1  0
  7 18  1  0
  7 19  1  0
  8 20  1  0
  9 21  1  0
M  END
