
     RDKit          3D

 19 20  0  0  0  0  0  0  0  0999 V2000
    1.8838    0.4292    0.0733 C   0  0  0  0  0  0  0  0  0  0  0  0
    0.6751   -0.4056    0.5456 C   0  0  0  0  0  0  0  0  0  0  0  0
    0.4476   -1.5659   -0.2158 C   0  0  0  0  0  0  0  0  0  0  0  0
   -0.4981   -0.5693   -0.5147 C   0  0  0  0  0  0  0  0  0  0  0  0
   -1.8919   -0.8125    0.0976 C   0  0  0  0  0  0  0  0  0  0  0  0
   -0.3827    0.8376   -0.8872 C   0  0  0  0  0  0  0  0  0  0  0  0
   -0.3551    1.3372   -1.9723 O   0  0  0  0  0  0  0  0  0  0  0  0
   -0.3074    1.4928    0.4824 C   0  0  0  0  0  0  0  0  0  0  0  0
   -0.1009    0.3793    1.3427 O   0  0  0  0  0  0  0  0  0  0  0  0
    2.3020    0.9529    0.9326 H   0  0  0  0  0  0  0  0  0  0  0  0
    2.6793   -0.2857   -0.2773 H   0  0  0  0  0  0  0  0  0  0  0  0
    1.6343    1.0609   -0.7776 H   0  0  0  0  0  0  0  0  0  0  0  0
    1.1621   -1.8695   -1.0317 H   0  0  0  0  0  0  0  0  0  0  0  0
    0.1496   -2.4906    0.3414 H   0  0  0  0  0  0  0  0  0  0  0  0
   -2.5263   -1.0444   -0.7826 H   0  0  0  0  0  0  0  0  0  0  0  0
   -1.9121   -1.7144    0.7361 H   0  0  0  0  0  0  0  0  0  0  0  0
   -2.2605    0.0570    0.6474 H   0  0  0  0  0  0  0  0  0  0  0  0
    0.5289    2.1905    0.5391 H   0  0  0  0  0  0  0  0  0  0  0  0
   -1.2276    2.0205    0.7209 H   0  0  0  0  0  0  0  0  0  0  0  0
  1  2  1  0
  2  3  1  0
  3  4  1  0
  4  5  1  0
  4  6  1  0
  6  7  2  0
  6  8  1  0
  8  9  1  0
  4  2  1  0
  9  2  1  0
  1 10  1  0
  1 11  1  0
  1 12  1  0
  3 13  1  0
  3 14  1  0
  5 15  1  0
  5 16  1  0
  5 17  1  0
  8 18  1  0
  8 19  1  0
M  END
