
     RDKit          3D

 21 24  0  0  0  0  0  0  0  0999 V2000
   -2.5007    0.0596    0.1484 C   0  0  0  0  0  0  0  0  0  0  0  0
   -1.0640    0.0434   -0.1337 C   0  0  0  0  0  0  0  0  0  0  0  0
   -0.3962    1.3420   -0.6068 C   0  0  0  0  0  0  0  0  0  0  0  0
    1.0185    0.9207   -0.6332 C   0  0  0  0  0  0  0  0  0  0  0  0
    1.2332    0.1236    0.6455 C   0  0  0  0  0  0  0  0  0  0  0  0
    2.1275   -0.7559   -0.2455 C   0  0  0  0  0  0  0  0  0  0  0  0
    0.9998   -0.4838   -1.2534 C   0  0  0  0  0  0  0  0  0  0  0  0
   -0.2811   -1.0250   -0.6999 C   0  0  0  0  0  0  0  0  0  0  0  0
   -0.1048   -0.5410    0.7851 C   0  0  0  0  0  0  0  0  0  0  0  0
   -2.6514    0.4353    1.2037 H   0  0  0  0  0  0  0  0  0  0  0  0
   -2.9998   -0.9098    0.0545 H   0  0  0  0  0  0  0  0  0  0  0  0
   -3.0087    0.8324   -0.4861 H   0  0  0  0  0  0  0  0  0  0  0  0
   -0.8356    1.5920   -1.5786 H   0  0  0  0  0  0  0  0  0  0  0  0
   -0.6206    2.0920    0.1770 H   0  0  0  0  0  0  0  0  0  0  0  0
    1.7973    1.5769   -0.9498 H   0  0  0  0  0  0  0  0  0  0  0  0
    1.6895    0.6038    1.4734 H   0  0  0  0  0  0  0  0  0  0  0  0
    3.0575   -0.2087   -0.4487 H   0  0  0  0  0  0  0  0  0  0  0  0
    2.2043   -1.7908    0.0879 H   0  0  0  0  0  0  0  0  0  0  0  0
    1.2312   -0.5682   -2.2840 H   0  0  0  0  0  0  0  0  0  0  0  0
   -0.5844   -2.0596   -0.8397 H   0  0  0  0  0  0  0  0  0  0  0  0
   -0.3114   -1.2790    1.5528 H   0  0  0  0  0  0  0  0  0  0  0  0
  1  2  1  0
  2  3  1  0
  3  4  1  0
  4  5  1  0
  5  6  1  0
  6  7  1  0
  7  8  1  0
  8  9  1  0
  8  2  1  0
  9  2  1  0
  7  4  1  0
  9  5  1  0
  1 10  1  0
  1 11  1  0
  1 12  1  0
  3 13  1  0
  3 14  1  0
  4 15  1  0
  5 16  1  0
  6 17  1  0
  6 18  1  0
  7 19  1  0
  8 20  1  0
  9 21  1  0
M  END
