
     RDKit          3D

 19 21  0  0  0  0  0  0  0  0999 V2000
   -1.7956   -0.9594    0.4526 C   0  0  0  0  0  0  0  0  0  0  0  0
   -0.6344   -0.2091    0.0070 C   0  0  0  0  0  0  0  0  0  0  0  0
    0.2620    0.5967    0.8710 C   0  0  0  0  0  0  0  0  0  0  0  0
    1.5608   -0.1975    0.7965 C   0  0  0  0  0  0  0  0  0  0  0  0
    1.5534   -0.6570   -0.6182 C   0  0  0  0  0  0  0  0  0  0  0  0
    2.5331   -1.0089   -1.2175 O   0  0  0  0  0  0  0  0  0  0  0  0
    0.1461   -0.6076   -1.1574 C   0  0  0  0  0  0  0  0  0  0  0  0
   -0.5048    0.7228   -1.0825 C   0  0  0  0  0  0  0  0  0  0  0  0
    0.1901    1.7149   -0.1715 C   0  0  0  0  0  0  0  0  0  0  0  0
   -2.3362   -0.5833    1.3168 H   0  0  0  0  0  0  0  0  0  0  0  0
   -1.4852   -2.0145    0.7090 H   0  0  0  0  0  0  0  0  0  0  0  0
   -2.5468   -1.0903   -0.3717 H   0  0  0  0  0  0  0  0  0  0  0  0
   -0.0694    0.8691    1.8706 H   0  0  0  0  0  0  0  0  0  0  0  0
    1.4156   -1.0954    1.4388 H   0  0  0  0  0  0  0  0  0  0  0  0
    2.4324    0.4011    1.0609 H   0  0  0  0  0  0  0  0  0  0  0  0
   -0.1967   -1.4079   -1.8175 H   0  0  0  0  0  0  0  0  0  0  0  0
   -1.3571    1.0125   -1.6821 H   0  0  0  0  0  0  0  0  0  0  0  0
    1.2305    1.9282   -0.5366 H   0  0  0  0  0  0  0  0  0  0  0  0
   -0.3979    2.5858    0.1318 H   0  0  0  0  0  0  0  0  0  0  0  0
  1  2  1  0
  2  3  1  0
  3  4  1  0
  4  5  1  0
  5  6  2  0
  5  7  1  0
  7  8  1  0
  8  9  1  0
  7  2  1  0
  8  2  1  0
  9  3  1  0
  1 10  1  0
  1 11  1  0
  1 12  1  0
  3 13  1  0
  4 14  1  0
  4 15  1  0
  7 16  1  0
  8 17  1  0
  9 18  1  0
  9 19  1  0
M  END
