
     RDKit          3D

 21 22  0  0  0  0  0  0  0  0999 V2000
   -2.3303    0.2041    0.2288 C   0  0  0  0  0  0  0  0  0  0  0  0
   -0.8554    0.1370    0.1139 C   0  0  0  0  0  0  0  0  0  0  0  0
   -0.1639    1.4455    0.2786 C   0  0  0  0  0  0  0  0  0  0  0  0
    1.1528    1.6745    0.1899 C   0  0  0  0  0  0  0  0  0  0  0  0
    2.1998    0.6517   -0.0784 C   0  0  0  0  0  0  0  0  0  0  0  0
    2.0126   -0.6530   -0.2872 C   0  0  0  0  0  0  0  0  0  0  0  0
    0.6825   -1.3549   -0.2727 C   0  0  0  0  0  0  0  0  0  0  0  0
   -0.3194   -0.5808   -1.1362 C   0  0  0  0  0  0  0  0  0  0  0  0
   -0.1511   -0.9372    0.9183 C   0  0  0  0  0  0  0  0  0  0  0  0
   -2.8648   -0.1097   -0.7037 H   0  0  0  0  0  0  0  0  0  0  0  0
   -2.7538   -0.4500    1.0409 H   0  0  0  0  0  0  0  0  0  0  0  0
   -2.7057    1.2352    0.4485 H   0  0  0  0  0  0  0  0  0  0  0  0
   -0.8307    2.2653    0.4899 H   0  0  0  0  0  0  0  0  0  0  0  0
    1.5076    2.6836    0.3214 H   0  0  0  0  0  0  0  0  0  0  0  0
    3.2154    1.0275   -0.1024 H   0  0  0  0  0  0  0  0  0  0  0  0
    2.8314   -1.2987   -0.4847 H   0  0  0  0  0  0  0  0  0  0  0  0
    0.7397   -2.4161   -0.4913 H   0  0  0  0  0  0  0  0  0  0  0  0
    0.1373    0.1053   -1.8609 H   0  0  0  0  0  0  0  0  0  0  0  0
   -1.0499   -1.2981   -1.5598 H   0  0  0  0  0  0  0  0  0  0  0  0
    0.4004   -0.5524    1.7770 H   0  0  0  0  0  0  0  0  0  0  0  0
   -0.8545   -1.7789    1.1703 H   0  0  0  0  0  0  0  0  0  0  0  0
  1  2  1  0
  2  3  1  0
  3  4  2  0
  4  5  1  0
  5  6  2  0
  6  7  1  0
  7  8  1  0
  7  9  1  0
  8  2  1  0
  9  2  1  0
  1 10  1  0
  1 11  1  0
  1 12  1  0
  3 13  1  0
  4 14  1  0
  5 15  1  0
  6 16  1  0
  7 17  1  0
  8 18  1  0
  8 19  1  0
  9 20  1  0
  9 21  1  0
M  END
