
     RDKit          3D

 17 18  0  0  0  0  0  0  0  0999 V2000
    1.8734   -0.0423    0.2630 C   0  0  0  0  0  0  0  0  0  0  0  0
    0.4378   -0.1923   -0.0616 C   0  0  0  0  0  0  0  0  0  0  0  0
    0.0279    0.6642   -1.2247 C   0  0  0  0  0  0  0  0  0  0  0  0
   -0.2758    1.6799   -0.3181 O   0  0  0  0  0  0  0  0  0  0  0  0
   -0.5293    0.7162    0.6507 C   0  0  0  0  0  0  0  0  0  0  0  0
   -1.8495    0.0130    0.4390 C   0  0  0  0  0  0  0  0  0  0  0  0
   -1.5389   -1.3472    0.1564 O   0  0  0  0  0  0  0  0  0  0  0  0
   -0.1700   -1.5112    0.0385 C   0  0  0  0  0  0  0  0  0  0  0  0
    0.4494   -2.6057    0.0202 O   0  0  0  0  0  0  0  0  0  0  0  0
    2.0811    1.0287    0.5177 H   0  0  0  0  0  0  0  0  0  0  0  0
    2.4644   -0.3076   -0.6557 H   0  0  0  0  0  0  0  0  0  0  0  0
    2.2301   -0.6488    1.1040 H   0  0  0  0  0  0  0  0  0  0  0  0
   -0.8748    0.2068   -1.7195 H   0  0  0  0  0  0  0  0  0  0  0  0
    0.8659    0.8760   -1.8964 H   0  0  0  0  0  0  0  0  0  0  0  0
   -0.2847    0.9797    1.6779 H   0  0  0  0  0  0  0  0  0  0  0  0
   -2.4317    0.4955   -0.3485 H   0  0  0  0  0  0  0  0  0  0  0  0
   -2.4752   -0.0047    1.3570 H   0  0  0  0  0  0  0  0  0  0  0  0
  1  2  1  0
  2  3  1  0
  3  4  1  0
  4  5  1  0
  5  6  1  0
  6  7  1  0
  7  8  1  0
  8  9  2  0
  5  2  1  0
  8  2  1  0
  1 10  1  0
  1 11  1  0
  1 12  1  0
  3 13  1  0
  3 14  1  0
  5 15  1  0
  6 16  1  0
  6 17  1  0
M  END
