
     RDKit          3D

 21 23  0  0  0  0  0  0  0  0999 V2000
    2.2269   -0.0710   -0.2805 C   0  0  0  0  0  0  0  0  0  0  0  0
    0.7818   -0.0145   -0.0927 C   0  0  0  0  0  0  0  0  0  0  0  0
   -0.0346   -1.2497   -0.4121 C   0  0  0  0  0  0  0  0  0  0  0  0
   -1.4107   -0.6401   -0.0981 C   0  0  0  0  0  0  0  0  0  0  0  0
   -1.3702    0.5917   -0.9540 C   0  0  0  0  0  0  0  0  0  0  0  0
    0.0131    1.1564   -0.5950 C   0  0  0  0  0  0  0  0  0  0  0  0
    0.0714    1.7067    0.6853 O   0  0  0  0  0  0  0  0  0  0  0  0
    0.2163    0.4276    1.2092 C   0  0  0  0  0  0  0  0  0  0  0  0
   -1.1794   -0.2009    1.3348 C   0  0  0  0  0  0  0  0  0  0  0  0
    2.5784    0.9180   -0.6989 H   0  0  0  0  0  0  0  0  0  0  0  0
    2.5493   -0.8229   -1.0272 H   0  0  0  0  0  0  0  0  0  0  0  0
    2.8037   -0.2021    0.6670 H   0  0  0  0  0  0  0  0  0  0  0  0
    0.0453   -1.5767   -1.4475 H   0  0  0  0  0  0  0  0  0  0  0  0
    0.2363   -2.0170    0.3410 H   0  0  0  0  0  0  0  0  0  0  0  0
   -2.2281   -1.3098   -0.2511 H   0  0  0  0  0  0  0  0  0  0  0  0
   -1.3515    0.3906   -2.0351 H   0  0  0  0  0  0  0  0  0  0  0  0
   -2.1496    1.2806   -0.6229 H   0  0  0  0  0  0  0  0  0  0  0  0
    0.4903    1.7353   -1.3863 H   0  0  0  0  0  0  0  0  0  0  0  0
    0.8511    0.3148    2.0834 H   0  0  0  0  0  0  0  0  0  0  0  0
   -1.9352    0.6020    1.5314 H   0  0  0  0  0  0  0  0  0  0  0  0
   -1.2046   -1.0190    2.0494 H   0  0  0  0  0  0  0  0  0  0  0  0
  1  2  1  0
  2  3  1  0
  3  4  1  0
  4  5  1  0
  5  6  1  0
  6  7  1  0
  7  8  1  0
  8  9  1  0
  6  2  1  0
  8  2  1  0
  9  4  1  0
  1 10  1  0
  1 11  1  0
  1 12  1  0
  3 13  1  0
  3 14  1  0
  4 15  1  0
  5 16  1  0
  5 17  1  0
  6 18  1  0
  8 19  1  0
  9 20  1  0
  9 21  1  0
M  END
