
     RDKit          3D

 19 20  0  0  0  0  0  0  0  0999 V2000
    1.4589    1.4607    0.3017 C   0  0  0  0  0  0  0  0  0  0  0  0
    0.7270    0.2768   -0.2381 C   0  0  0  0  0  0  0  0  0  0  0  0
    0.0074    0.4849   -1.3858 O   0  0  0  0  0  0  0  0  0  0  0  0
   -1.3002    0.7160   -0.9012 C   0  0  0  0  0  0  0  0  0  0  0  0
   -1.4525   -0.5755   -0.0826 C   0  0  0  0  0  0  0  0  0  0  0  0
   -2.5515   -0.5445    0.7328 O   0  0  0  0  0  0  0  0  0  0  0  0
   -0.1898   -0.5178    0.7119 C   0  0  0  0  0  0  0  0  0  0  0  0
    1.0836   -1.0725    0.2444 C   0  0  0  0  0  0  0  0  0  0  0  0
    1.1383   -2.1612   -0.6269 O   0  0  0  0  0  0  0  0  0  0  0  0
    0.8331    2.0193    1.0087 H   0  0  0  0  0  0  0  0  0  0  0  0
    2.4371    1.1346    0.7438 H   0  0  0  0  0  0  0  0  0  0  0  0
    1.7526    2.0944   -0.5836 H   0  0  0  0  0  0  0  0  0  0  0  0
   -1.3245    1.5809   -0.2151 H   0  0  0  0  0  0  0  0  0  0  0  0
   -2.0125    0.7549   -1.7220 H   0  0  0  0  0  0  0  0  0  0  0  0
   -1.4810   -1.3918   -0.8292 H   0  0  0  0  0  0  0  0  0  0  0  0
   -2.3870   -1.1185    1.5344 H   0  0  0  0  0  0  0  0  0  0  0  0
   -0.2951   -0.1000    1.7272 H   0  0  0  0  0  0  0  0  0  0  0  0
    1.8935   -1.1038    1.0075 H   0  0  0  0  0  0  0  0  0  0  0  0
    1.6628   -1.9369   -1.4278 H   0  0  0  0  0  0  0  0  0  0  0  0
  1  2  1  0
  2  3  1  0
  3  4  1  0
  4  5  1  0
  5  6  1  0
  5  7  1  0
  7  8  1  0
  8  9  1  0
  7  2  1  0
  8  2  1  0
  1 10  1  0
  1 11  1  0
  1 12  1  0
  4 13  1  0
  4 14  1  0
  5 15  1  0
  6 16  1  0
  7 17  1  0
  8 18  1  0
  9 19  1  0
M  END
