
     RDKit          3D

 21 22  0  0  0  0  0  0  0  0999 V2000
   -1.9220   -0.8921   -0.3350 C   0  0  0  0  0  0  0  0  0  0  0  0
   -0.9038   -0.0014    0.3360 C   0  0  0  0  0  0  0  0  0  0  0  0
   -1.2155    1.4476    0.3385 C   0  0  0  0  0  0  0  0  0  0  0  0
   -0.1376    2.1330    0.0144 C   0  0  0  0  0  0  0  0  0  0  0  0
    1.0115    1.2325   -0.2407 C   0  0  0  0  0  0  0  0  0  0  0  0
    0.5401   -0.1547    0.0720 C   0  0  0  0  0  0  0  0  0  0  0  0
    1.1152   -1.2737   -0.7176 C   0  0  0  0  0  0  0  0  0  0  0  0
    2.5154   -1.0859   -0.7559 O   0  0  0  0  0  0  0  0  0  0  0  0
   -0.0318   -0.4865    1.4053 C   0  0  0  0  0  0  0  0  0  0  0  0
   -1.7000   -0.8864   -1.4208 H   0  0  0  0  0  0  0  0  0  0  0  0
   -1.9634   -1.9084    0.1000 H   0  0  0  0  0  0  0  0  0  0  0  0
   -2.9097   -0.4031   -0.2061 H   0  0  0  0  0  0  0  0  0  0  0  0
   -2.1680    1.8777    0.5675 H   0  0  0  0  0  0  0  0  0  0  0  0
   -0.0954    3.2104   -0.0564 H   0  0  0  0  0  0  0  0  0  0  0  0
    1.2252    1.2712   -1.3450 H   0  0  0  0  0  0  0  0  0  0  0  0
    1.9300    1.5303    0.2644 H   0  0  0  0  0  0  0  0  0  0  0  0
    0.8946   -2.2715   -0.3450 H   0  0  0  0  0  0  0  0  0  0  0  0
    0.7825   -1.1718   -1.7828 H   0  0  0  0  0  0  0  0  0  0  0  0
    2.7870   -0.8538    0.1852 H   0  0  0  0  0  0  0  0  0  0  0  0
   -0.0410   -1.5401    1.7023 H   0  0  0  0  0  0  0  0  0  0  0  0
    0.2865    0.2268    2.2196 H   0  0  0  0  0  0  0  0  0  0  0  0
  1  2  1  0
  2  3  1  0
  3  4  2  0
  4  5  1  0
  5  6  1  0
  6  7  1  0
  7  8  1  0
  6  9  1  0
  6  2  1  0
  9  2  1  0
  1 10  1  0
  1 11  1  0
  1 12  1  0
  3 13  1  0
  4 14  1  0
  5 15  1  0
  5 16  1  0
  7 17  1  0
  7 18  1  0
  8 19  1  0
  9 20  1  0
  9 21  1  0
M  END
