
     RDKit          3D

 21 23  0  0  0  0  0  0  0  0999 V2000
    1.7641    1.4123   -0.0360 C   0  0  0  0  0  0  0  0  0  0  0  0
    0.5473    0.5790    0.0940 C   0  0  0  0  0  0  0  0  0  0  0  0
   -0.6045    1.0268    0.9785 C   0  0  0  0  0  0  0  0  0  0  0  0
   -1.8051    0.2741    0.4774 C   0  0  0  0  0  0  0  0  0  0  0  0
   -1.3370   -0.5811   -0.6838 C   0  0  0  0  0  0  0  0  0  0  0  0
   -0.5542   -1.7660   -0.1351 C   0  0  0  0  0  0  0  0  0  0  0  0
    0.6635   -0.8834   -0.1171 C   0  0  0  0  0  0  0  0  0  0  0  0
    1.8691   -1.4529   -0.4642 O   0  0  0  0  0  0  0  0  0  0  0  0
   -0.0544    0.0214   -1.1066 C   0  0  0  0  0  0  0  0  0  0  0  0
    1.9286    2.0025    0.8790 H   0  0  0  0  0  0  0  0  0  0  0  0
    1.6469    2.1717   -0.8626 H   0  0  0  0  0  0  0  0  0  0  0  0
    2.6575    0.8283   -0.2621 H   0  0  0  0  0  0  0  0  0  0  0  0
   -0.3595    0.7069    2.0259 H   0  0  0  0  0  0  0  0  0  0  0  0
   -0.7290    2.1226    0.9689 H   0  0  0  0  0  0  0  0  0  0  0  0
   -2.6459    0.9306    0.2202 H   0  0  0  0  0  0  0  0  0  0  0  0
   -2.1778   -0.4132    1.2817 H   0  0  0  0  0  0  0  0  0  0  0  0
   -2.0738   -0.8069   -1.4507 H   0  0  0  0  0  0  0  0  0  0  0  0
   -0.5422   -2.5794   -0.8873 H   0  0  0  0  0  0  0  0  0  0  0  0
   -0.9277   -2.1191    0.8309 H   0  0  0  0  0  0  0  0  0  0  0  0
    2.4339   -1.5610    0.3647 H   0  0  0  0  0  0  0  0  0  0  0  0
    0.3002    0.0867   -2.1156 H   0  0  0  0  0  0  0  0  0  0  0  0
  1  2  1  0
  2  3  1  0
  3  4  1  0
  4  5  1  0
  5  6  1  0
  6  7  1  0
  7  8  1  0
  7  9  1  0
  7  2  1  0
  9  2  1  0
  9  5  1  0
  1 10  1  0
  1 11  1  0
  1 12  1  0
  3 13  1  0
  3 14  1  0
  4 15  1  0
  4 16  1  0
  5 17  1  0
  6 18  1  0
  6 19  1  0
  8 20  1  0
  9 21  1  0
M  END
