
     RDKit          3D

 21 23  0  0  0  0  0  0  0  0999 V2000
   -0.5585    1.8501   -0.3519 C   0  0  0  0  0  0  0  0  0  0  0  0
   -0.4219    0.4470   -0.0663 C   0  0  0  0  0  0  0  0  0  0  0  0
   -1.4696   -0.2486    0.7942 C   0  0  0  0  0  0  0  0  0  0  0  0
   -0.9459   -1.5002    0.0673 C   0  0  0  0  0  0  0  0  0  0  0  0
   -0.8297   -0.5713   -1.1366 C   0  0  0  0  0  0  0  0  0  0  0  0
    0.4610   -1.5982    0.5385 C   0  0  0  0  0  0  0  0  0  0  0  0
    0.7788   -0.8994    1.6720 O   0  0  0  0  0  0  0  0  0  0  0  0
    0.8359   -0.1047    0.5421 C   0  0  0  0  0  0  0  0  0  0  0  0
    2.1769    0.3272    0.1208 C   0  0  0  0  0  0  0  0  0  0  0  0
    0.3321    2.4625   -0.0332 H   0  0  0  0  0  0  0  0  0  0  0  0
   -1.4518    2.3334    0.0825 H   0  0  0  0  0  0  0  0  0  0  0  0
   -0.6306    2.0255   -1.4598 H   0  0  0  0  0  0  0  0  0  0  0  0
   -2.4918    0.0277    0.5490 H   0  0  0  0  0  0  0  0  0  0  0  0
   -1.2023   -0.2628    1.8842 H   0  0  0  0  0  0  0  0  0  0  0  0
   -1.5847   -2.3377    0.0072 H   0  0  0  0  0  0  0  0  0  0  0  0
   -1.8412   -0.3397   -1.5209 H   0  0  0  0  0  0  0  0  0  0  0  0
   -0.0578   -0.8213   -1.8582 H   0  0  0  0  0  0  0  0  0  0  0  0
    1.2176   -2.1978    0.0002 H   0  0  0  0  0  0  0  0  0  0  0  0
    2.6839   -0.3085   -0.6238 H   0  0  0  0  0  0  0  0  0  0  0  0
    2.8608    0.3366    1.0208 H   0  0  0  0  0  0  0  0  0  0  0  0
    2.1388    1.3802   -0.2279 H   0  0  0  0  0  0  0  0  0  0  0  0
  1  2  1  0
  2  3  1  0
  3  4  1  0
  4  5  1  0
  4  6  1  0
  6  7  1  0
  7  8  1  0
  8  9  1  0
  5  2  1  0
  8  6  1  0
  8  2  1  0
  1 10  1  0
  1 11  1  0
  1 12  1  0
  3 13  1  0
  3 14  1  0
  4 15  1  0
  5 16  1  0
  5 17  1  0
  6 18  1  0
  9 19  1  0
  9 20  1  0
  9 21  1  0
M  END
