
     RDKit          3D

 23 24  0  0  0  0  0  0  0  0999 V2000
    2.0018   -1.4015    0.2399 C   0  0  0  0  0  0  0  0  0  0  0  0
    0.9528   -0.3126    0.5181 C   0  0  0  0  0  0  0  0  0  0  0  0
    1.4842    0.9716    0.9720 C   0  0  0  0  0  0  0  0  0  0  0  0
    0.8355    0.7676   -0.4258 C   0  0  0  0  0  0  0  0  0  0  0  0
   -0.4152    1.4799   -0.6217 C   0  0  0  0  0  0  0  0  0  0  0  0
   -1.6343    0.9569    0.0523 C   0  0  0  0  0  0  0  0  0  0  0  0
   -2.0427   -0.4132   -0.3720 C   0  0  0  0  0  0  0  0  0  0  0  0
   -0.9049   -1.3750   -0.1276 C   0  0  0  0  0  0  0  0  0  0  0  0
   -0.2245   -0.8625    0.9937 O   0  0  0  0  0  0  0  0  0  0  0  0
    2.9847   -0.9817    0.0412 H   0  0  0  0  0  0  0  0  0  0  0  0
    1.6621   -1.9988   -0.6407 H   0  0  0  0  0  0  0  0  0  0  0  0
    1.9889   -2.1308    1.0977 H   0  0  0  0  0  0  0  0  0  0  0  0
    0.9620    1.6103    1.6841 H   0  0  0  0  0  0  0  0  0  0  0  0
    2.5871    1.1200    0.9707 H   0  0  0  0  0  0  0  0  0  0  0  0
    1.5662    0.7975   -1.2737 H   0  0  0  0  0  0  0  0  0  0  0  0
   -0.2958    2.5500   -0.3031 H   0  0  0  0  0  0  0  0  0  0  0  0
   -0.6496    1.5524   -1.7240 H   0  0  0  0  0  0  0  0  0  0  0  0
   -1.5967    1.0261    1.1540 H   0  0  0  0  0  0  0  0  0  0  0  0
   -2.4863    1.6374   -0.2509 H   0  0  0  0  0  0  0  0  0  0  0  0
   -2.4024   -0.4956   -1.3927 H   0  0  0  0  0  0  0  0  0  0  0  0
   -2.8711   -0.7369    0.3202 H   0  0  0  0  0  0  0  0  0  0  0  0
   -0.2768   -1.3717   -1.0336 H   0  0  0  0  0  0  0  0  0  0  0  0
   -1.2249   -2.3891    0.1220 H   0  0  0  0  0  0  0  0  0  0  0  0
  1  2  1  0
  2  3  1  0
  3  4  1  0
  4  5  1  0
  5  6  1  0
  6  7  1  0
  7  8  1  0
  8  9  1  0
  4  2  1  0
  9  2  1  0
  1 10  1  0
  1 11  1  0
  1 12  1  0
  3 13  1  0
  3 14  1  0
  4 15  1  0
  5 16  1  0
  5 17  1  0
  6 18  1  0
  6 19  1  0
  7 20  1  0
  7 21  1  0
  8 22  1  0
  8 23  1  0
M  END
