
     RDKit          3D

 17 19  0  0  0  0  0  0  0  0999 V2000
   -1.5599    1.1418   -0.0255 C   0  0  0  0  0  0  0  0  0  0  0  0
   -0.6040    0.0774   -0.2291 C   0  0  0  0  0  0  0  0  0  0  0  0
   -1.0177   -1.3368    0.0853 C   0  0  0  0  0  0  0  0  0  0  0  0
    0.0867   -1.9989   -0.3426 C   0  0  0  0  0  0  0  0  0  0  0  0
    0.9184   -0.8543   -0.8399 C   0  0  0  0  0  0  0  0  0  0  0  0
   -0.0820   -0.1232   -1.5302 O   0  0  0  0  0  0  0  0  0  0  0  0
    0.7933    0.1644    0.2219 C   0  0  0  0  0  0  0  0  0  0  0  0
    1.5911    1.1733    0.6465 C   0  0  0  0  0  0  0  0  0  0  0  0
    1.2098   -0.0055    1.5050 O   0  0  0  0  0  0  0  0  0  0  0  0
   -1.4025    1.9402   -0.7890 H   0  0  0  0  0  0  0  0  0  0  0  0
   -2.6024    0.7615   -0.1289 H   0  0  0  0  0  0  0  0  0  0  0  0
   -1.4505    1.5736    0.9888 H   0  0  0  0  0  0  0  0  0  0  0  0
   -1.9191   -1.7172    0.5199 H   0  0  0  0  0  0  0  0  0  0  0  0
    0.2865   -3.0621   -0.3195 H   0  0  0  0  0  0  0  0  0  0  0  0
    1.8225   -1.0561   -1.3441 H   0  0  0  0  0  0  0  0  0  0  0  0
    1.2289    2.1244    1.0914 H   0  0  0  0  0  0  0  0  0  0  0  0
    2.7011    1.1976    0.4898 H   0  0  0  0  0  0  0  0  0  0  0  0
  1  2  1  0
  2  3  1  0
  3  4  2  0
  4  5  1  0
  5  6  1  0
  5  7  1  0
  7  8  1  0
  8  9  1  0
  6  2  1  0
  9  7  1  0
  7  2  1  0
  1 10  1  0
  1 11  1  0
  1 12  1  0
  3 13  1  0
  4 14  1  0
  5 15  1  0
  8 16  1  0
  8 17  1  0
M  END
