
     RDKit          3D

 19 20  0  0  0  0  0  0  0  0999 V2000
   -1.8348    0.2300   -0.5948 C   0  0  0  0  0  0  0  0  0  0  0  0
   -0.5096    0.0470    0.0785 C   0  0  0  0  0  0  0  0  0  0  0  0
   -0.2807   -1.2430    0.7700 C   0  0  0  0  0  0  0  0  0  0  0  0
    1.1652   -1.5026    0.5815 C   0  0  0  0  0  0  0  0  0  0  0  0
    1.6722   -0.7062   -0.3451 C   0  0  0  0  0  0  0  0  0  0  0  0
    0.6310    0.2075   -0.9134 C   0  0  0  0  0  0  0  0  0  0  0  0
    0.7487    1.6029   -0.4475 C   0  0  0  0  0  0  0  0  0  0  0  0
    1.2273    2.6083   -0.9137 O   0  0  0  0  0  0  0  0  0  0  0  0
    0.0456    1.2399    0.8000 C   0  0  0  0  0  0  0  0  0  0  0  0
   -1.7485   -0.1838   -1.6219 H   0  0  0  0  0  0  0  0  0  0  0  0
   -2.0677    1.3116   -0.7129 H   0  0  0  0  0  0  0  0  0  0  0  0
   -2.6195   -0.3061   -0.0150 H   0  0  0  0  0  0  0  0  0  0  0  0
   -0.8545   -2.0337    0.2285 H   0  0  0  0  0  0  0  0  0  0  0  0
   -0.5671   -1.2179    1.8478 H   0  0  0  0  0  0  0  0  0  0  0  0
    1.7729   -2.2519    1.1231 H   0  0  0  0  0  0  0  0  0  0  0  0
    2.7321   -0.7178   -0.6569 H   0  0  0  0  0  0  0  0  0  0  0  0
    0.3811    0.0409   -1.9586 H   0  0  0  0  0  0  0  0  0  0  0  0
   -0.6972    1.9380    1.1792 H   0  0  0  0  0  0  0  0  0  0  0  0
    0.8035    0.9370    1.5711 H   0  0  0  0  0  0  0  0  0  0  0  0
  1  2  1  0
  2  3  1  0
  3  4  1  0
  4  5  2  0
  5  6  1  0
  6  7  1  0
  7  8  2  0
  7  9  1  0
  6  2  1  0
  9  2  1  0
  1 10  1  0
  1 11  1  0
  1 12  1  0
  3 13  1  0
  3 14  1  0
  4 15  1  0
  5 16  1  0
  6 17  1  0
  9 18  1  0
  9 19  1  0
M  END
