
     RDKit          3D

 17 18  0  0  0  0  0  0  0  0999 V2000
   -2.2160    0.2202    0.2863 C   0  0  0  0  0  0  0  0  0  0  0  0
   -0.7773    0.2998   -0.1293 C   0  0  0  0  0  0  0  0  0  0  0  0
   -0.1728   -0.9074   -0.8203 C   0  0  0  0  0  0  0  0  0  0  0  0
    1.0236   -0.5591   -1.4290 O   0  0  0  0  0  0  0  0  0  0  0  0
    1.9930   -0.4685   -0.4064 C   0  0  0  0  0  0  0  0  0  0  0  0
    1.5859    0.5469    0.5838 C   0  0  0  0  0  0  0  0  0  0  0  0
    2.4121    1.1055    1.2593 O   0  0  0  0  0  0  0  0  0  0  0  0
    0.1664    0.8918    0.7605 C   0  0  0  0  0  0  0  0  0  0  0  0
   -0.3247    1.5612   -0.4583 O   0  0  0  0  0  0  0  0  0  0  0  0
   -2.7979    0.9037   -0.3795 H   0  0  0  0  0  0  0  0  0  0  0  0
   -2.3735    0.4990    1.3641 H   0  0  0  0  0  0  0  0  0  0  0  0
   -2.5761   -0.8260    0.1203 H   0  0  0  0  0  0  0  0  0  0  0  0
   -0.9115   -1.2768   -1.5634 H   0  0  0  0  0  0  0  0  0  0  0  0
    0.0587   -1.6596   -0.0388 H   0  0  0  0  0  0  0  0  0  0  0  0
    2.1419   -1.4804    0.0671 H   0  0  0  0  0  0  0  0  0  0  0  0
    2.9491   -0.2337   -0.9093 H   0  0  0  0  0  0  0  0  0  0  0  0
   -0.1808    1.3833    1.6928 H   0  0  0  0  0  0  0  0  0  0  0  0
  1  2  1  0
  2  3  1  0
  3  4  1  0
  4  5  1  0
  5  6  1  0
  6  7  2  0
  6  8  1  0
  8  9  1  0
  8  2  1  0
  9  2  1  0
  1 10  1  0
  1 11  1  0
  1 12  1  0
  3 13  1  0
  3 14  1  0
  5 15  1  0
  5 16  1  0
  8 17  1  0
M  END
