
     RDKit          3D

 21 23  0  0  0  0  0  0  0  0999 V2000
   -1.2157   -1.3587    1.0042 C   0  0  0  0  0  0  0  0  0  0  0  0
   -0.4717   -0.6165   -0.0288 C   0  0  0  0  0  0  0  0  0  0  0  0
   -0.8623   -0.8234   -1.5108 C   0  0  0  0  0  0  0  0  0  0  0  0
   -1.1505    0.4730   -0.8387 C   0  0  0  0  0  0  0  0  0  0  0  0
   -0.0198    1.3940   -0.4436 C   0  0  0  0  0  0  0  0  0  0  0  0
   -0.3986    2.4019    0.4146 O   0  0  0  0  0  0  0  0  0  0  0  0
    0.6774    0.2452    0.1727 C   0  0  0  0  0  0  0  0  0  0  0  0
    1.6645    0.2724    1.2006 C   0  0  0  0  0  0  0  0  0  0  0  0
    2.0389   -0.1831   -0.1807 C   0  0  0  0  0  0  0  0  0  0  0  0
   -0.6290   -2.2424    1.3149 H   0  0  0  0  0  0  0  0  0  0  0  0
   -1.5755   -0.7676    1.8625 H   0  0  0  0  0  0  0  0  0  0  0  0
   -2.1490   -1.7787    0.5248 H   0  0  0  0  0  0  0  0  0  0  0  0
   -1.7049   -1.4991   -1.6463 H   0  0  0  0  0  0  0  0  0  0  0  0
    0.0152   -0.8478   -2.2024 H   0  0  0  0  0  0  0  0  0  0  0  0
   -2.1919    0.7321   -0.5826 H   0  0  0  0  0  0  0  0  0  0  0  0
    0.5046    1.8182   -1.3360 H   0  0  0  0  0  0  0  0  0  0  0  0
   -1.1788    2.9064    0.0548 H   0  0  0  0  0  0  0  0  0  0  0  0
    2.1645    1.2081    1.5130 H   0  0  0  0  0  0  0  0  0  0  0  0
    1.6928   -0.5275    1.9601 H   0  0  0  0  0  0  0  0  0  0  0  0
    2.6159    0.4603   -0.8573 H   0  0  0  0  0  0  0  0  0  0  0  0
    2.1738   -1.2667   -0.3952 H   0  0  0  0  0  0  0  0  0  0  0  0
  1  2  1  0
  2  3  1  0
  3  4  1  0
  4  5  1  0
  5  6  1  0
  5  7  1  0
  7  8  1  0
  8  9  1  0
  4  2  1  0
  9  7  1  0
  7  2  1  0
  1 10  1  0
  1 11  1  0
  1 12  1  0
  3 13  1  0
  3 14  1  0
  4 15  1  0
  5 16  1  0
  6 17  1  0
  8 18  1  0
  8 19  1  0
  9 20  1  0
  9 21  1  0
M  END
