
     RDKit          3D

 19 21  0  0  0  0  0  0  0  0999 V2000
   -1.8920    0.6005    0.3275 C   0  0  0  0  0  0  0  0  0  0  0  0
   -0.5864    0.0339    0.1062 C   0  0  0  0  0  0  0  0  0  0  0  0
    0.2565   -0.4013    1.2902 C   0  0  0  0  0  0  0  0  0  0  0  0
    1.4151   -0.2027    0.3091 C   0  0  0  0  0  0  0  0  0  0  0  0
    1.1452   -1.2776   -0.6876 C   0  0  0  0  0  0  0  0  0  0  0  0
    0.5989   -0.9039   -1.8879 O   0  0  0  0  0  0  0  0  0  0  0  0
   -0.3685   -1.0634   -0.8879 C   0  0  0  0  0  0  0  0  0  0  0  0
    0.5823    0.9780   -0.2095 C   0  0  0  0  0  0  0  0  0  0  0  0
    0.7542    1.2622   -1.5346 O   0  0  0  0  0  0  0  0  0  0  0  0
   -2.4277    0.0347    1.1468 H   0  0  0  0  0  0  0  0  0  0  0  0
   -1.8125    1.6457    0.7175 H   0  0  0  0  0  0  0  0  0  0  0  0
   -2.5312    0.5341   -0.5495 H   0  0  0  0  0  0  0  0  0  0  0  0
    0.2721    0.4129    2.0397 H   0  0  0  0  0  0  0  0  0  0  0  0
    0.1122   -1.4172    1.6435 H   0  0  0  0  0  0  0  0  0  0  0  0
    2.3761   -0.0104    0.6914 H   0  0  0  0  0  0  0  0  0  0  0  0
    1.4009   -2.3307   -0.4667 H   0  0  0  0  0  0  0  0  0  0  0  0
   -1.0112   -1.9439   -0.9328 H   0  0  0  0  0  0  0  0  0  0  0  0
    0.6912    1.8166    0.4847 H   0  0  0  0  0  0  0  0  0  0  0  0
    1.0248    2.2325   -1.6001 H   0  0  0  0  0  0  0  0  0  0  0  0
  1  2  1  0
  2  3  1  0
  3  4  1  0
  4  5  1  0
  5  6  1  0
  6  7  1  0
  4  8  1  0
  8  9  1  0
  7  2  1  0
  8  2  1  0
  7  5  1  0
  1 10  1  0
  1 11  1  0
  1 12  1  0
  3 13  1  0
  3 14  1  0
  4 15  1  0
  5 16  1  0
  7 17  1  0
  8 18  1  0
  9 19  1  0
M  END
