
     RDKit          3D

 19 21  0  0  0  0  0  0  0  0999 V2000
    2.0520   -0.4266   -0.2298 C   0  0  0  0  0  0  0  0  0  0  0  0
    0.6563   -0.0714    0.0185 C   0  0  0  0  0  0  0  0  0  0  0  0
    0.1255   -0.3335    1.3603 C   0  0  0  0  0  0  0  0  0  0  0  0
   -1.1923   -0.4941    1.2832 C   0  0  0  0  0  0  0  0  0  0  0  0
   -1.5711   -0.2226   -0.1464 C   0  0  0  0  0  0  0  0  0  0  0  0
   -0.3530   -0.8748   -0.8274 C   0  0  0  0  0  0  0  0  0  0  0  0
   -1.2803    1.2200   -0.4029 C   0  0  0  0  0  0  0  0  0  0  0  0
   -0.5027    1.5459   -1.5044 O   0  0  0  0  0  0  0  0  0  0  0  0
    0.2493    1.3260   -0.3726 C   0  0  0  0  0  0  0  0  0  0  0  0
    2.3309   -1.3188    0.3435 H   0  0  0  0  0  0  0  0  0  0  0  0
    2.7017    0.4641    0.0085 H   0  0  0  0  0  0  0  0  0  0  0  0
    2.1868   -0.6157   -1.3355 H   0  0  0  0  0  0  0  0  0  0  0  0
    0.6767   -0.3952    2.2882 H   0  0  0  0  0  0  0  0  0  0  0  0
   -1.8843   -0.7651    2.0700 H   0  0  0  0  0  0  0  0  0  0  0  0
   -2.5085   -0.6113   -0.4545 H   0  0  0  0  0  0  0  0  0  0  0  0
   -0.3222   -1.9347   -0.5802 H   0  0  0  0  0  0  0  0  0  0  0  0
   -0.2890   -0.6195   -1.8839 H   0  0  0  0  0  0  0  0  0  0  0  0
   -1.7897    1.9878    0.1785 H   0  0  0  0  0  0  0  0  0  0  0  0
    0.7139    2.1395    0.1870 H   0  0  0  0  0  0  0  0  0  0  0  0
  1  2  1  0
  2  3  1  0
  3  4  2  0
  4  5  1  0
  5  6  1  0
  5  7  1  0
  7  8  1  0
  8  9  1  0
  6  2  1  0
  9  7  1  0
  9  2  1  0
  1 10  1  0
  1 11  1  0
  1 12  1  0
  3 13  1  0
  4 14  1  0
  5 15  1  0
  6 16  1  0
  6 17  1  0
  7 18  1  0
  9 19  1  0
M  END
