
     RDKit          3D

 14 15  0  0  0  0  0  0  0  0999 V2000
   -1.7415   -0.1214   -0.1854 C   0  0  0  0  0  0  0  0  0  0  0  0
   -0.3099   -0.0220   -0.5429 C   0  0  0  0  0  0  0  0  0  0  0  0
    0.7006   -0.9887    0.0454 C   0  0  0  0  0  0  0  0  0  0  0  0
    1.4470    0.2488    0.5435 C   0  0  0  0  0  0  0  0  0  0  0  0
    0.5325    1.0911   -0.2773 C   0  0  0  0  0  0  0  0  0  0  0  0
    0.1741    0.7503   -1.5582 O   0  0  0  0  0  0  0  0  0  0  0  0
   -1.8488   -0.9685    0.5549 H   0  0  0  0  0  0  0  0  0  0  0  0
   -2.4165   -0.3765   -1.0171 H   0  0  0  0  0  0  0  0  0  0  0  0
   -2.1339    0.7685    0.3825 H   0  0  0  0  0  0  0  0  0  0  0  0
    1.3034   -1.4711   -0.7505 H   0  0  0  0  0  0  0  0  0  0  0  0
    0.3331   -1.6587    0.8232 H   0  0  0  0  0  0  0  0  0  0  0  0
    2.5151    0.2726    0.3205 H   0  0  0  0  0  0  0  0  0  0  0  0
    1.1898    0.3678    1.6353 H   0  0  0  0  0  0  0  0  0  0  0  0
    0.2550    2.1076    0.0262 H   0  0  0  0  0  0  0  0  0  0  0  0
  1  2  1  0
  2  3  1  0
  3  4  1  0
  4  5  1  0
  5  6  1  0
  5  2  1  0
  6  2  1  0
  1  7  1  0
  1  8  1  0
  1  9  1  0
  3 10  1  0
  3 11  1  0
  4 12  1  0
  4 13  1  0
  5 14  1  0
M  END
