
     RDKit          3D

 21 22  0  0  0  0  0  0  0  0999 V2000
   -2.1438   -1.0563   -0.3011 C   0  0  0  0  0  0  0  0  0  0  0  0
   -1.0215   -0.0965   -0.1654 C   0  0  0  0  0  0  0  0  0  0  0  0
    0.0094   -0.4414    0.9202 C   0  0  0  0  0  0  0  0  0  0  0  0
    1.0242    0.1913   -0.0133 C   0  0  0  0  0  0  0  0  0  0  0  0
    2.3955   -0.3904    0.0316 C   0  0  0  0  0  0  0  0  0  0  0  0
    0.1387   -0.2983   -1.1522 C   0  0  0  0  0  0  0  0  0  0  0  0
    0.9676    1.5517    0.1213 O   0  0  0  0  0  0  0  0  0  0  0  0
   -0.3180    2.0050    0.4488 C   0  0  0  0  0  0  0  0  0  0  0  0
   -1.3140    1.2458   -0.1418 O   0  0  0  0  0  0  0  0  0  0  0  0
   -2.2401   -1.3906   -1.3657 H   0  0  0  0  0  0  0  0  0  0  0  0
   -3.0967   -0.5009   -0.0938 H   0  0  0  0  0  0  0  0  0  0  0  0
   -2.0865   -1.8765    0.4136 H   0  0  0  0  0  0  0  0  0  0  0  0
    0.0944   -1.5421    1.0275 H   0  0  0  0  0  0  0  0  0  0  0  0
   -0.1468    0.0614    1.8763 H   0  0  0  0  0  0  0  0  0  0  0  0
    2.9782    0.0416   -0.8045 H   0  0  0  0  0  0  0  0  0  0  0  0
    2.3924   -1.4797   -0.0966 H   0  0  0  0  0  0  0  0  0  0  0  0
    2.8700   -0.0968    0.9745 H   0  0  0  0  0  0  0  0  0  0  0  0
    0.1055    0.3346   -2.0366 H   0  0  0  0  0  0  0  0  0  0  0  0
    0.2535   -1.3897   -1.3099 H   0  0  0  0  0  0  0  0  0  0  0  0
   -0.4225    2.0581    1.5621 H   0  0  0  0  0  0  0  0  0  0  0  0
   -0.4395    3.0698    0.1051 H   0  0  0  0  0  0  0  0  0  0  0  0
  1  2  1  0
  2  3  1  0
  3  4  1  0
  4  5  1  0
  4  6  1  0
  4  7  1  0
  7  8  1  0
  8  9  1  0
  6  2  1  0
  9  2  1  0
  1 10  1  0
  1 11  1  0
  1 12  1  0
  3 13  1  0
  3 14  1  0
  5 15  1  0
  5 16  1  0
  5 17  1  0
  6 18  1  0
  6 19  1  0
  8 20  1  0
  8 21  1  0
M  END
