
     RDKit          3D

 18 19  0  0  0  0  0  0  0  0999 V2000
   -1.7232    0.3683   -0.5263 C   0  0  0  0  0  0  0  0  0  0  0  0
   -0.5743   -0.4117    0.0185 C   0  0  0  0  0  0  0  0  0  0  0  0
    0.2455   -1.1872   -0.9391 C   0  0  0  0  0  0  0  0  0  0  0  0
    1.5246   -0.7640   -0.2303 C   0  0  0  0  0  0  0  0  0  0  0  0
    0.6598    0.2474    0.5236 C   0  0  0  0  0  0  0  0  0  0  0  0
    0.8943    1.6742    0.3434 C   0  0  0  0  0  0  0  0  0  0  0  0
    0.0145    2.5189    0.3401 O   0  0  0  0  0  0  0  0  0  0  0  0
   -0.3021   -0.3229    1.4622 C   0  0  0  0  0  0  0  0  0  0  0  0
   -1.9981    1.1827    0.1876 H   0  0  0  0  0  0  0  0  0  0  0  0
   -2.6176   -0.3204   -0.5331 H   0  0  0  0  0  0  0  0  0  0  0  0
   -1.5599    0.7310   -1.5508 H   0  0  0  0  0  0  0  0  0  0  0  0
    0.0779   -2.2668   -1.0092 H   0  0  0  0  0  0  0  0  0  0  0  0
    0.2404   -0.6830   -1.9506 H   0  0  0  0  0  0  0  0  0  0  0  0
    2.2881   -0.3094   -0.8555 H   0  0  0  0  0  0  0  0  0  0  0  0
    1.8494   -1.5711    0.4657 H   0  0  0  0  0  0  0  0  0  0  0  0
    1.9092    2.0280    0.2015 H   0  0  0  0  0  0  0  0  0  0  0  0
    0.0208   -1.2394    2.0006 H   0  0  0  0  0  0  0  0  0  0  0  0
   -0.9494    0.3253    2.0516 H   0  0  0  0  0  0  0  0  0  0  0  0
  1  2  1  0
  2  3  1  0
  3  4  1  0
  4  5  1  0
  5  6  1  0
  6  7  2  0
  5  8  1  0
  5  2  1  0
  8  2  1  0
  1  9  1  0
  1 10  1  0
  1 11  1  0
  3 12  1  0
  3 13  1  0
  4 14  1  0
  4 15  1  0
  6 16  1  0
  8 17  1  0
  8 18  1  0
M  END
