
     RDKit          3D

 23 25  0  0  0  0  0  0  0  0999 V2000
    2.5123    0.8012    0.2604 C   0  0  0  0  0  0  0  0  0  0  0  0
    1.1899    0.1149    0.1511 C   0  0  0  0  0  0  0  0  0  0  0  0
    0.4117   -0.1786    1.4019 C   0  0  0  0  0  0  0  0  0  0  0  0
   -1.0373   -0.0553    1.0819 C   0  0  0  0  0  0  0  0  0  0  0  0
   -1.6397    1.1577    0.5113 C   0  0  0  0  0  0  0  0  0  0  0  0
   -1.1592    0.1409   -0.4190 C   0  0  0  0  0  0  0  0  0  0  0  0
   -2.0720   -0.8612   -1.0764 C   0  0  0  0  0  0  0  0  0  0  0  0
    0.2494    0.3113   -0.9399 C   0  0  0  0  0  0  0  0  0  0  0  0
    1.1101   -0.9212   -0.9478 C   0  0  0  0  0  0  0  0  0  0  0  0
    2.6516    1.0887    1.3342 H   0  0  0  0  0  0  0  0  0  0  0  0
    2.6206    1.6867   -0.3902 H   0  0  0  0  0  0  0  0  0  0  0  0
    3.3015    0.0477    0.0094 H   0  0  0  0  0  0  0  0  0  0  0  0
    0.7457    0.4219    2.2643 H   0  0  0  0  0  0  0  0  0  0  0  0
    0.6296   -1.2465    1.6740 H   0  0  0  0  0  0  0  0  0  0  0  0
   -1.7170   -0.7732    1.5874 H   0  0  0  0  0  0  0  0  0  0  0  0
   -2.7343    1.3049    0.6757 H   0  0  0  0  0  0  0  0  0  0  0  0
   -1.0417    2.0894    0.6100 H   0  0  0  0  0  0  0  0  0  0  0  0
   -1.5083   -1.8335   -1.0982 H   0  0  0  0  0  0  0  0  0  0  0  0
   -2.9562   -0.9836   -0.3923 H   0  0  0  0  0  0  0  0  0  0  0  0
   -2.4299   -0.5544   -2.0682 H   0  0  0  0  0  0  0  0  0  0  0  0
    0.3839    1.0460   -1.7508 H   0  0  0  0  0  0  0  0  0  0  0  0
    1.9038   -0.9224   -1.7278 H   0  0  0  0  0  0  0  0  0  0  0  0
    0.5859   -1.8815   -0.7507 H   0  0  0  0  0  0  0  0  0  0  0  0
  1  2  1  0
  2  3  1  0
  3  4  1  0
  4  5  1  0
  5  6  1  0
  6  7  1  0
  6  8  1  0
  8  9  1  0
  8  2  1  0
  9  2  1  0
  6  4  1  0
  1 10  1  0
  1 11  1  0
  1 12  1  0
  3 13  1  0
  3 14  1  0
  4 15  1  0
  5 16  1  0
  5 17  1  0
  7 18  1  0
  7 19  1  0
  7 20  1  0
  8 21  1  0
  9 22  1  0
  9 23  1  0
M  END
