
     RDKit          3D

 18 19  0  0  0  0  0  0  0  0999 V2000
    2.2945   -0.4171   -0.4460 C   0  0  0  0  0  0  0  0  0  0  0  0
    0.9353   -0.0032   -0.2165 C   0  0  0  0  0  0  0  0  0  0  0  0
    0.6042    1.4718   -0.2509 C   0  0  0  0  0  0  0  0  0  0  0  0
   -0.7238    1.4169   -0.1021 C   0  0  0  0  0  0  0  0  0  0  0  0
   -0.9428   -0.0635   -0.0292 C   0  0  0  0  0  0  0  0  0  0  0  0
   -2.2789   -0.5894    0.0566 C   0  0  0  0  0  0  0  0  0  0  0  0
    0.1314   -0.5236    0.9236 C   0  0  0  0  0  0  0  0  0  0  0  0
   -0.0877   -0.4917   -1.0634 O   0  0  0  0  0  0  0  0  0  0  0  0
    2.3068   -1.3898   -1.0197 H   0  0  0  0  0  0  0  0  0  0  0  0
    2.8308    0.3284   -1.0763 H   0  0  0  0  0  0  0  0  0  0  0  0
    2.8588   -0.5177    0.5041 H   0  0  0  0  0  0  0  0  0  0  0  0
    1.2760    2.3126   -0.3653 H   0  0  0  0  0  0  0  0  0  0  0  0
   -1.4745    2.1913   -0.0445 H   0  0  0  0  0  0  0  0  0  0  0  0
   -2.5145   -0.9469    1.0896 H   0  0  0  0  0  0  0  0  0  0  0  0
   -3.0362    0.2223   -0.1369 H   0  0  0  0  0  0  0  0  0  0  0  0
   -2.5501   -1.3994   -0.6711 H   0  0  0  0  0  0  0  0  0  0  0  0
    0.2134   -1.6295    0.9860 H   0  0  0  0  0  0  0  0  0  0  0  0
    0.1574    0.0285    1.8621 H   0  0  0  0  0  0  0  0  0  0  0  0
  1  2  1  0
  2  3  1  0
  3  4  2  0
  4  5  1  0
  5  6  1  0
  5  7  1  0
  5  8  1  0
  7  2  1  0
  8  2  1  0
  1  9  1  0
  1 10  1  0
  1 11  1  0
  3 12  1  0
  4 13  1  0
  6 14  1  0
  6 15  1  0
  6 16  1  0
  7 17  1  0
  7 18  1  0
M  END
