
     RDKit          3D

 19 20  0  0  0  0  0  0  0  0999 V2000
   -1.3445   -1.4032   -0.3461 C   0  0  0  0  0  0  0  0  0  0  0  0
   -0.3204   -0.3637   -0.0906 C   0  0  0  0  0  0  0  0  0  0  0  0
    1.1061   -0.8571   -0.0385 C   0  0  0  0  0  0  0  0  0  0  0  0
    2.0309    0.2748    0.1412 C   0  0  0  0  0  0  0  0  0  0  0  0
    3.2569    0.0696    0.1114 O   0  0  0  0  0  0  0  0  0  0  0  0
    1.5140    1.5326    0.3377 O   0  0  0  0  0  0  0  0  0  0  0  0
    0.0842    1.6445    0.2830 C   0  0  0  0  0  0  0  0  0  0  0  0
   -0.5432    0.5329    1.1053 C   0  0  0  0  0  0  0  0  0  0  0  0
   -0.4425    0.9012   -0.9492 C   0  0  0  0  0  0  0  0  0  0  0  0
   -1.6547   -1.3872   -1.4283 H   0  0  0  0  0  0  0  0  0  0  0  0
   -0.8563   -2.4106   -0.2175 H   0  0  0  0  0  0  0  0  0  0  0  0
   -2.1948   -1.2841    0.3272 H   0  0  0  0  0  0  0  0  0  0  0  0
    1.1826   -1.4850    0.8941 H   0  0  0  0  0  0  0  0  0  0  0  0
    1.3648   -1.4931   -0.9071 H   0  0  0  0  0  0  0  0  0  0  0  0
   -0.3142    2.6438    0.4320 H   0  0  0  0  0  0  0  0  0  0  0  0
    0.0342    0.2597    2.0084 H   0  0  0  0  0  0  0  0  0  0  0  0
   -1.6168    0.7522    1.2567 H   0  0  0  0  0  0  0  0  0  0  0  0
    0.2179    0.9345   -1.8167 H   0  0  0  0  0  0  0  0  0  0  0  0
   -1.5042    1.1384   -1.1031 H   0  0  0  0  0  0  0  0  0  0  0  0
  1  2  1  0
  2  3  1  0
  3  4  1  0
  4  5  2  0
  4  6  1  0
  6  7  1  0
  7  8  1  0
  7  9  1  0
  8  2  1  0
  9  2  1  0
  1 10  1  0
  1 11  1  0
  1 12  1  0
  3 13  1  0
  3 14  1  0
  7 15  1  0
  8 16  1  0
  8 17  1  0
  9 18  1  0
  9 19  1  0
M  END
