
     RDKit          3D

 17 18  0  0  0  0  0  0  0  0999 V2000
   -1.6617   -0.6409    0.3917 C   0  0  0  0  0  0  0  0  0  0  0  0
   -0.3498    0.0853    0.3976 C   0  0  0  0  0  0  0  0  0  0  0  0
    0.8112   -0.4787    1.1113 C   0  0  0  0  0  0  0  0  0  0  0  0
    1.0902   -0.6006    2.2727 O   0  0  0  0  0  0  0  0  0  0  0  0
    1.4091   -0.7923   -0.2043 C   0  0  0  0  0  0  0  0  0  0  0  0
    2.7581   -0.5182   -0.3368 O   0  0  0  0  0  0  0  0  0  0  0  0
    0.4585    0.0777   -0.9375 C   0  0  0  0  0  0  0  0  0  0  0  0
   -0.1186    1.3141   -0.3787 C   0  0  0  0  0  0  0  0  0  0  0  0
   -1.2408    1.8490   -1.0076 O   0  0  0  0  0  0  0  0  0  0  0  0
   -2.3506   -0.0944    1.0737 H   0  0  0  0  0  0  0  0  0  0  0  0
   -2.0748   -0.5773   -0.6427 H   0  0  0  0  0  0  0  0  0  0  0  0
   -1.5389   -1.6882    0.6904 H   0  0  0  0  0  0  0  0  0  0  0  0
    1.2230   -1.8808   -0.4307 H   0  0  0  0  0  0  0  0  0  0  0  0
    3.0132    0.3209    0.0894 H   0  0  0  0  0  0  0  0  0  0  0  0
   -0.0700   -0.3595   -1.8061 H   0  0  0  0  0  0  0  0  0  0  0  0
    0.5936    2.0767    0.0137 H   0  0  0  0  0  0  0  0  0  0  0  0
   -1.9517    1.9072   -0.2961 H   0  0  0  0  0  0  0  0  0  0  0  0
  1  2  1  0
  2  3  1  0
  3  4  2  0
  3  5  1  0
  5  6  1  0
  5  7  1  0
  7  8  1  0
  8  9  1  0
  7  2  1  0
  8  2  1  0
  1 10  1  0
  1 11  1  0
  1 12  1  0
  5 13  1  0
  6 14  1  0
  7 15  1  0
  8 16  1  0
  9 17  1  0
M  END
