
     RDKit          3D

 19 20  0  0  0  0  0  0  0  0999 V2000
    2.2828    0.4398    0.1704 C   0  0  0  0  0  0  0  0  0  0  0  0
    0.9042   -0.0914    0.4423 C   0  0  0  0  0  0  0  0  0  0  0  0
    0.5328   -1.4338   -0.0903 C   0  0  0  0  0  0  0  0  0  0  0  0
   -0.7703   -1.7513    0.3189 O   0  0  0  0  0  0  0  0  0  0  0  0
   -1.6169   -0.8778   -0.3539 C   0  0  0  0  0  0  0  0  0  0  0  0
   -1.4840    0.4713    0.2612 C   0  0  0  0  0  0  0  0  0  0  0  0
   -1.7456    1.4243   -0.7492 O   0  0  0  0  0  0  0  0  0  0  0  0
   -0.1367    0.7829    0.8152 C   0  0  0  0  0  0  0  0  0  0  0  0
    0.4346    0.0528    1.8196 O   0  0  0  0  0  0  0  0  0  0  0  0
    3.0819   -0.2897    0.3001 H   0  0  0  0  0  0  0  0  0  0  0  0
    2.4170    1.3863    0.7231 H   0  0  0  0  0  0  0  0  0  0  0  0
    2.3037    0.7331   -0.9203 H   0  0  0  0  0  0  0  0  0  0  0  0
    1.1889   -2.1870    0.4377 H   0  0  0  0  0  0  0  0  0  0  0  0
    0.6428   -1.5364   -1.1726 H   0  0  0  0  0  0  0  0  0  0  0  0
   -1.3472   -0.7995   -1.4477 H   0  0  0  0  0  0  0  0  0  0  0  0
   -2.6624   -1.2037   -0.2695 H   0  0  0  0  0  0  0  0  0  0  0  0
   -2.2488    0.6706    1.0464 H   0  0  0  0  0  0  0  0  0  0  0  0
   -1.8510    2.3221   -0.3041 H   0  0  0  0  0  0  0  0  0  0  0  0
    0.0742    1.8876    0.8794 H   0  0  0  0  0  0  0  0  0  0  0  0
  1  2  1  0
  2  3  1  0
  3  4  1  0
  4  5  1  0
  5  6  1  0
  6  7  1  0
  6  8  1  0
  8  9  1  0
  8  2  1  0
  9  2  1  0
  1 10  1  0
  1 11  1  0
  1 12  1  0
  3 13  1  0
  3 14  1  0
  5 15  1  0
  5 16  1  0
  6 17  1  0
  7 18  1  0
  8 19  1  0
M  END
