
     RDKit          3D

 19 21  0  0  0  0  0  0  0  0999 V2000
    1.7192    0.9878    0.2703 C   0  0  0  0  0  0  0  0  0  0  0  0
    0.6090    0.0137    0.2197 C   0  0  0  0  0  0  0  0  0  0  0  0
   -0.3429    0.0090    1.3631 C   0  0  0  0  0  0  0  0  0  0  0  0
   -1.5555    0.3887    1.0202 C   0  0  0  0  0  0  0  0  0  0  0  0
   -1.5685    0.7002   -0.4116 C   0  0  0  0  0  0  0  0  0  0  0  0
   -0.3369    0.0977   -0.9497 C   0  0  0  0  0  0  0  0  0  0  0  0
   -0.2402   -1.4210   -0.9763 C   0  0  0  0  0  0  0  0  0  0  0  0
    0.9797   -1.8157   -1.5019 O   0  0  0  0  0  0  0  0  0  0  0  0
    0.9339   -1.3921   -0.2064 C   0  0  0  0  0  0  0  0  0  0  0  0
    1.3834    1.8861    0.8251 H   0  0  0  0  0  0  0  0  0  0  0  0
    2.5668    0.5669    0.8439 H   0  0  0  0  0  0  0  0  0  0  0  0
    2.0029    1.3226   -0.7475 H   0  0  0  0  0  0  0  0  0  0  0  0
   -0.0591   -0.2789    2.3718 H   0  0  0  0  0  0  0  0  0  0  0  0
   -2.4244    0.4590    1.7121 H   0  0  0  0  0  0  0  0  0  0  0  0
   -1.5283    1.7957   -0.5969 H   0  0  0  0  0  0  0  0  0  0  0  0
   -2.4365    0.2644   -0.9547 H   0  0  0  0  0  0  0  0  0  0  0  0
    0.1042    0.5632   -1.8591 H   0  0  0  0  0  0  0  0  0  0  0  0
   -1.1126   -2.0466   -0.9631 H   0  0  0  0  0  0  0  0  0  0  0  0
    1.3058   -2.1006    0.5409 H   0  0  0  0  0  0  0  0  0  0  0  0
  1  2  1  0
  2  3  1  0
  3  4  2  0
  4  5  1  0
  5  6  1  0
  6  7  1  0
  7  8  1  0
  8  9  1  0
  6  2  1  0
  9  7  1  0
  9  2  1  0
  1 10  1  0
  1 11  1  0
  1 12  1  0
  3 13  1  0
  4 14  1  0
  5 15  1  0
  5 16  1  0
  6 17  1  0
  7 18  1  0
  9 19  1  0
M  END
