
     RDKit          2D

 23 25  0  0  0  0  0  0  0  0999 V2000
   -1.0607    3.6213    0.0000 C   0  0  0  0  0  0  0  0  0  0  0  0
   -1.0607    2.1213    0.0000 C   0  0  0  0  0  0  0  0  0  0  0  0
   -1.9439    0.6631    0.0000 C   0  0  0  0  0  0  0  0  0  0  0  0
   -1.4695   -0.7599    0.0000 C   0  0  0  0  0  0  0  0  0  0  0  0
   -0.0000   -1.0607    0.0000 C   0  0  0  0  0  0  0  0  0  0  0  0
    1.0607    0.0000    0.0000 C   0  0  0  0  0  0  0  0  0  0  0  0
    0.0000    1.0607    0.0000 C   0  0  0  0  0  0  0  0  0  0  0  0
   -1.0607    0.0000    0.0000 C   0  0  0  0  0  0  0  0  0  0  0  0
   -0.7213    1.0607    0.0000 C   0  0  0  0  0  0  0  0  0  0  0  0
   -1.0607    5.1213    0.0000 H   0  0  0  0  0  0  0  0  0  0  0  0
    0.4393    3.6213    0.0000 H   0  0  0  0  0  0  0  0  0  0  0  0
   -2.5607    3.6213    0.0000 H   0  0  0  0  0  0  0  0  0  0  0  0
   -2.9338   -0.0414    0.0000 H   0  0  0  0  0  0  0  0  0  0  0  0
   -3.0126    1.7156    0.0000 H   0  0  0  0  0  0  0  0  0  0  0  0
   -1.5105   -2.2594    0.0000 H   0  0  0  0  0  0  0  0  0  0  0  0
   -2.9154   -1.1592    0.0000 H   0  0  0  0  0  0  0  0  0  0  0  0
   -0.0000   -2.5607    0.0000 H   0  0  0  0  0  0  0  0  0  0  0  0
    2.1213    1.0607    0.0000 H   0  0  0  0  0  0  0  0  0  0  0  0
    2.1213   -1.0607    0.0000 H   0  0  0  0  0  0  0  0  0  0  0  0
    1.0607    2.1213    0.0000 H   0  0  0  0  0  0  0  0  0  0  0  0
   -1.7889   -0.3242    0.0000 H   0  0  0  0  0  0  0  0  0  0  0  0
   -3.0448    2.2427    0.0000 H   0  0  0  0  0  0  0  0  0  0  0  0
   -3.3034    0.1372    0.0000 H   0  0  0  0  0  0  0  0  0  0  0  0
  1  2  1  0
  2  3  1  0
  3  4  1  0
  4  5  1  0
  5  6  1  0
  6  7  1  0
  7  8  1  0
  8  9  1  0
  7  2  1  0
  9  2  1  0
  8  5  1  0
  1 10  1  0
  1 11  1  0
  1 12  1  0
  3 13  1  0
  3 14  1  0
  4 15  1  0
  4 16  1  0
  5 17  1  0
  6 18  1  0
  6 19  1  0
  7 20  1  0
  8 21  1  0
  9 22  1  0
  9 23  1  0
M  END
