
     RDKit          3D

 19 21  0  0  0  0  0  0  0  0999 V2000
    1.6954   -1.0508    0.4361 C   0  0  0  0  0  0  0  0  0  0  0  0
    0.7311   -0.4339   -0.5162 C   0  0  0  0  0  0  0  0  0  0  0  0
    1.0848   -0.0935   -1.7984 O   0  0  0  0  0  0  0  0  0  0  0  0
    1.1446    0.9762   -0.9563 C   0  0  0  0  0  0  0  0  0  0  0  0
   -0.0634    1.4803   -0.2076 C   0  0  0  0  0  0  0  0  0  0  0  0
   -0.5686    0.1222   -0.0684 C   0  0  0  0  0  0  0  0  0  0  0  0
   -1.8122   -0.2854   -0.7468 C   0  0  0  0  0  0  0  0  0  0  0  0
   -2.4511   -0.2382    0.5145 O   0  0  0  0  0  0  0  0  0  0  0  0
   -1.1942   -0.3734    1.1551 C   0  0  0  0  0  0  0  0  0  0  0  0
    1.3011   -1.9756    0.8660 H   0  0  0  0  0  0  0  0  0  0  0  0
    2.6844   -1.1788   -0.0466 H   0  0  0  0  0  0  0  0  0  0  0  0
    1.8699   -0.3541    1.3025 H   0  0  0  0  0  0  0  0  0  0  0  0
    2.1424    1.3404   -0.7089 H   0  0  0  0  0  0  0  0  0  0  0  0
    0.2911    1.9737    0.7427 H   0  0  0  0  0  0  0  0  0  0  0  0
   -0.6673    2.2175   -0.7726 H   0  0  0  0  0  0  0  0  0  0  0  0
   -2.2418    0.4809   -1.4507 H   0  0  0  0  0  0  0  0  0  0  0  0
   -1.8014   -1.3065   -1.1115 H   0  0  0  0  0  0  0  0  0  0  0  0
   -1.1158    0.1841    2.0885 H   0  0  0  0  0  0  0  0  0  0  0  0
   -1.0289   -1.4849    1.2787 H   0  0  0  0  0  0  0  0  0  0  0  0
  1  2  1  0
  2  3  1  0
  3  4  1  0
  4  5  1  0
  5  6  1  0
  6  7  1  0
  7  8  1  0
  8  9  1  0
  4  2  1  0
  9  6  1  0
  6  2  1  0
  1 10  1  0
  1 11  1  0
  1 12  1  0
  4 13  1  0
  5 14  1  0
  5 15  1  0
  7 16  1  0
  7 17  1  0
  9 18  1  0
  9 19  1  0
M  END
