
     RDKit          3D

 19 21  0  0  0  0  0  0  0  0999 V2000
   -2.3072   -1.2566   -0.2059 C   0  0  0  0  0  0  0  0  0  0  0  0
   -1.0933   -0.3886    0.0599 C   0  0  0  0  0  0  0  0  0  0  0  0
   -0.8001    0.6129   -0.9977 C   0  0  0  0  0  0  0  0  0  0  0  0
    0.1449   -0.5471   -0.7361 C   0  0  0  0  0  0  0  0  0  0  0  0
    1.2498   -0.2254    0.1929 C   0  0  0  0  0  0  0  0  0  0  0  0
    0.5811    0.0109    1.4950 C   0  0  0  0  0  0  0  0  0  0  0  0
   -0.7625   -0.2154    1.3656 O   0  0  0  0  0  0  0  0  0  0  0  0
    2.5918   -0.2679   -0.0257 C   0  0  0  0  0  0  0  0  0  0  0  0
    1.9203    1.0364   -0.2899 O   0  0  0  0  0  0  0  0  0  0  0  0
   -2.9920   -1.2185    0.6765 H   0  0  0  0  0  0  0  0  0  0  0  0
   -2.9228   -0.8383   -1.0538 H   0  0  0  0  0  0  0  0  0  0  0  0
   -2.0612   -2.2991   -0.4025 H   0  0  0  0  0  0  0  0  0  0  0  0
   -0.5217    1.6105   -0.6598 H   0  0  0  0  0  0  0  0  0  0  0  0
   -1.3412    0.5648   -1.9401 H   0  0  0  0  0  0  0  0  0  0  0  0
    0.1659   -1.4038   -1.4176 H   0  0  0  0  0  0  0  0  0  0  0  0
    0.7224    1.0349    1.9098 H   0  0  0  0  0  0  0  0  0  0  0  0
    1.0146   -0.6762    2.2704 H   0  0  0  0  0  0  0  0  0  0  0  0
    3.0597   -0.5645   -0.9962 H   0  0  0  0  0  0  0  0  0  0  0  0
    3.3517   -0.0783    0.7552 H   0  0  0  0  0  0  0  0  0  0  0  0
  1  2  1  0
  2  3  1  0
  3  4  1  0
  4  5  1  0
  5  6  1  0
  6  7  1  0
  5  8  1  0
  8  9  1  0
  4  2  1  0
  9  5  1  0
  7  2  1  0
  1 10  1  0
  1 11  1  0
  1 12  1  0
  3 13  1  0
  3 14  1  0
  4 15  1  0
  6 16  1  0
  6 17  1  0
  8 18  1  0
  8 19  1  0
M  END
