
     RDKit          3D

 19 21  0  0  0  0  0  0  0  0999 V2000
   -2.1947    0.3688    0.1613 C   0  0  0  0  0  0  0  0  0  0  0  0
   -0.7406    0.1079    0.2355 C   0  0  0  0  0  0  0  0  0  0  0  0
    0.2685    1.1082   -0.2816 C   0  0  0  0  0  0  0  0  0  0  0  0
    0.9427    1.6658    0.8296 O   0  0  0  0  0  0  0  0  0  0  0  0
    1.0384   -0.0693   -0.8633 C   0  0  0  0  0  0  0  0  0  0  0  0
    1.9565   -0.7103    0.1774 C   0  0  0  0  0  0  0  0  0  0  0  0
    1.1525   -0.9963    1.2503 O   0  0  0  0  0  0  0  0  0  0  0  0
   -0.1601   -1.1386    0.7993 C   0  0  0  0  0  0  0  0  0  0  0  0
   -0.1811   -0.9042   -0.6464 C   0  0  0  0  0  0  0  0  0  0  0  0
   -2.4530    0.6826   -0.8875 H   0  0  0  0  0  0  0  0  0  0  0  0
   -2.5340    1.1571    0.8392 H   0  0  0  0  0  0  0  0  0  0  0  0
   -2.7480   -0.5696    0.3311 H   0  0  0  0  0  0  0  0  0  0  0  0
   -0.0906    1.8386   -1.0048 H   0  0  0  0  0  0  0  0  0  0  0  0
    0.6973    2.6083    0.9479 H   0  0  0  0  0  0  0  0  0  0  0  0
    1.4354    0.0425   -1.8576 H   0  0  0  0  0  0  0  0  0  0  0  0
    2.8190   -0.0898    0.3968 H   0  0  0  0  0  0  0  0  0  0  0  0
    2.2546   -1.7006   -0.2777 H   0  0  0  0  0  0  0  0  0  0  0  0
   -0.7901   -1.9208    1.2466 H   0  0  0  0  0  0  0  0  0  0  0  0
   -0.6727   -1.4803   -1.3961 H   0  0  0  0  0  0  0  0  0  0  0  0
  1  2  1  0
  2  3  1  0
  3  4  1  0
  3  5  1  0
  5  6  1  0
  6  7  1  0
  7  8  1  0
  8  9  1  0
  8  2  1  0
  9  2  1  0
  9  5  1  0
  1 10  1  0
  1 11  1  0
  1 12  1  0
  3 13  1  0
  4 14  1  0
  5 15  1  0
  6 16  1  0
  6 17  1  0
  8 18  1  0
  9 19  1  0
M  END
