
     RDKit          3D

 21 22  0  0  0  0  0  0  0  0999 V2000
   -1.1045    1.3055   -0.9418 C   0  0  0  0  0  0  0  0  0  0  0  0
   -0.6753    0.3148   -0.1116 C   0  0  0  0  0  0  0  0  0  0  0  0
   -1.0126   -1.1569   -0.1723 C   0  0  0  0  0  0  0  0  0  0  0  0
   -0.0873   -1.0372    1.0149 C   0  0  0  0  0  0  0  0  0  0  0  0
   -0.9067    0.1729    1.3709 C   0  0  0  0  0  0  0  0  0  0  0  0
    0.7399   -0.1377    0.1490 C   0  0  0  0  0  0  0  0  0  0  0  0
    1.4010   -0.8181   -1.0386 C   0  0  0  0  0  0  0  0  0  0  0  0
    1.6055    0.8320    0.8320 C   0  0  0  0  0  0  0  0  0  0  0  0
    1.3448    2.0115    0.9981 O   0  0  0  0  0  0  0  0  0  0  0  0
   -1.5116    0.9582   -1.9390 H   0  0  0  0  0  0  0  0  0  0  0  0
   -1.9377    1.9510   -0.5391 H   0  0  0  0  0  0  0  0  0  0  0  0
   -0.3186    2.0615   -1.2415 H   0  0  0  0  0  0  0  0  0  0  0  0
   -2.0442   -1.3297    0.1408 H   0  0  0  0  0  0  0  0  0  0  0  0
   -0.6343   -1.7060   -1.0308 H   0  0  0  0  0  0  0  0  0  0  0  0
    0.2145   -1.7716    1.6186 H   0  0  0  0  0  0  0  0  0  0  0  0
   -1.9497   -0.1269    1.5885 H   0  0  0  0  0  0  0  0  0  0  0  0
   -0.4496    0.9145    2.0181 H   0  0  0  0  0  0  0  0  0  0  0  0
    1.4433   -1.9136   -0.8303 H   0  0  0  0  0  0  0  0  0  0  0  0
    0.8924   -0.5793   -1.9892 H   0  0  0  0  0  0  0  0  0  0  0  0
    2.4360   -0.4260   -1.1201 H   0  0  0  0  0  0  0  0  0  0  0  0
    2.5545    0.4812    1.2234 H   0  0  0  0  0  0  0  0  0  0  0  0
  1  2  1  0
  2  3  1  0
  3  4  1  0
  4  5  1  0
  4  6  1  0
  6  7  1  0
  6  8  1  0
  8  9  2  0
  5  2  1  0
  6  2  1  0
  1 10  1  0
  1 11  1  0
  1 12  1  0
  3 13  1  0
  3 14  1  0
  4 15  1  0
  5 16  1  0
  5 17  1  0
  7 18  1  0
  7 19  1  0
  7 20  1  0
  8 21  1  0
M  END
