
     RDKit          3D

 19 20  0  0  0  0  0  0  0  0999 V2000
    1.9642    0.5260    0.0435 C   0  0  0  0  0  0  0  0  0  0  0  0
    0.5659    0.1736    0.1794 C   0  0  0  0  0  0  0  0  0  0  0  0
    0.0633   -0.0783    1.4787 O   0  0  0  0  0  0  0  0  0  0  0  0
   -1.2005    0.1934    0.9109 C   0  0  0  0  0  0  0  0  0  0  0  0
   -1.4323   -0.9054   -0.0998 C   0  0  0  0  0  0  0  0  0  0  0  0
    0.0388   -1.0559   -0.5334 C   0  0  0  0  0  0  0  0  0  0  0  0
    0.5115   -2.1634    0.1292 O   0  0  0  0  0  0  0  0  0  0  0  0
   -0.4970    1.2192    0.0632 C   0  0  0  0  0  0  0  0  0  0  0  0
   -1.0360    1.4266   -1.1844 O   0  0  0  0  0  0  0  0  0  0  0  0
    2.5582    0.6229    0.9767 H   0  0  0  0  0  0  0  0  0  0  0  0
    2.5016   -0.2305   -0.6004 H   0  0  0  0  0  0  0  0  0  0  0  0
    2.0832    1.4914   -0.5228 H   0  0  0  0  0  0  0  0  0  0  0  0
   -1.9863    0.4876    1.5567 H   0  0  0  0  0  0  0  0  0  0  0  0
   -1.9728   -0.5364   -0.9965 H   0  0  0  0  0  0  0  0  0  0  0  0
   -1.8327   -1.8235    0.3186 H   0  0  0  0  0  0  0  0  0  0  0  0
    0.1636   -1.0426   -1.6003 H   0  0  0  0  0  0  0  0  0  0  0  0
    0.1367   -2.1148    1.0668 H   0  0  0  0  0  0  0  0  0  0  0  0
   -0.2591    2.1060    0.6592 H   0  0  0  0  0  0  0  0  0  0  0  0
   -0.3702    1.7040   -1.8454 H   0  0  0  0  0  0  0  0  0  0  0  0
  1  2  1  0
  2  3  1  0
  3  4  1  0
  4  5  1  0
  5  6  1  0
  6  7  1  0
  4  8  1  0
  8  9  1  0
  6  2  1  0
  8  2  1  0
  1 10  1  0
  1 11  1  0
  1 12  1  0
  4 13  1  0
  5 14  1  0
  5 15  1  0
  6 16  1  0
  7 17  1  0
  8 18  1  0
  9 19  1  0
M  END
