
     RDKit          3D

 21 22  0  0  0  0  0  0  0  0999 V2000
    2.1544    0.3747    0.2669 C   0  0  0  0  0  0  0  0  0  0  0  0
    0.7524    0.0875    0.0065 C   0  0  0  0  0  0  0  0  0  0  0  0
    0.4115   -1.2707   -0.5080 C   0  0  0  0  0  0  0  0  0  0  0  0
   -1.1160   -1.2559   -0.3718 C   0  0  0  0  0  0  0  0  0  0  0  0
   -1.4625   -0.0662    0.4732 C   0  0  0  0  0  0  0  0  0  0  0  0
   -1.4076    1.1559   -0.4043 C   0  0  0  0  0  0  0  0  0  0  0  0
    0.0353    1.1095   -0.8337 C   0  0  0  0  0  0  0  0  0  0  0  0
    0.5786    1.7631   -1.7033 O   0  0  0  0  0  0  0  0  0  0  0  0
   -0.1485    0.1245    1.2537 C   0  0  0  0  0  0  0  0  0  0  0  0
    2.5852    0.9344   -0.6161 H   0  0  0  0  0  0  0  0  0  0  0  0
    2.7800   -0.5269    0.3703 H   0  0  0  0  0  0  0  0  0  0  0  0
    2.3468    1.0268    1.1377 H   0  0  0  0  0  0  0  0  0  0  0  0
    0.7281   -1.4635   -1.5406 H   0  0  0  0  0  0  0  0  0  0  0  0
    0.7672   -2.0425    0.2141 H   0  0  0  0  0  0  0  0  0  0  0  0
   -1.4968   -1.0954   -1.4069 H   0  0  0  0  0  0  0  0  0  0  0  0
   -1.5028   -2.2011   -0.0038 H   0  0  0  0  0  0  0  0  0  0  0  0
   -2.3227   -0.1581    1.1018 H   0  0  0  0  0  0  0  0  0  0  0  0
   -2.0692    1.0909   -1.2885 H   0  0  0  0  0  0  0  0  0  0  0  0
   -1.5605    2.0472    0.2137 H   0  0  0  0  0  0  0  0  0  0  0  0
    0.0681   -0.7339    1.8930 H   0  0  0  0  0  0  0  0  0  0  0  0
   -0.1210    1.0996    1.7460 H   0  0  0  0  0  0  0  0  0  0  0  0
  1  2  1  0
  2  3  1  0
  3  4  1  0
  4  5  1  0
  5  6  1  0
  6  7  1  0
  7  8  2  0
  5  9  1  0
  7  2  1  0
  9  2  1  0
  1 10  1  0
  1 11  1  0
  1 12  1  0
  3 13  1  0
  3 14  1  0
  4 15  1  0
  4 16  1  0
  5 17  1  0
  6 18  1  0
  6 19  1  0
  9 20  1  0
  9 21  1  0
M  END
