
     RDKit          3D

 19 20  0  0  0  0  0  0  0  0999 V2000
   -2.1134    0.9879    0.1552 C   0  0  0  0  0  0  0  0  0  0  0  0
   -0.8781    0.2496   -0.0104 C   0  0  0  0  0  0  0  0  0  0  0  0
   -0.9544   -1.2209   -0.4319 C   0  0  0  0  0  0  0  0  0  0  0  0
    0.5223   -1.4239   -0.4984 C   0  0  0  0  0  0  0  0  0  0  0  0
    1.0881   -2.4350   -0.7609 O   0  0  0  0  0  0  0  0  0  0  0  0
    0.9992   -0.0717   -0.1597 C   0  0  0  0  0  0  0  0  0  0  0  0
    2.4078    0.2541   -0.2334 C   0  0  0  0  0  0  0  0  0  0  0  0
    0.1965    0.3358    1.0490 C   0  0  0  0  0  0  0  0  0  0  0  0
    0.0905    0.7193   -0.9071 O   0  0  0  0  0  0  0  0  0  0  0  0
   -2.3598    1.2190    1.2306 H   0  0  0  0  0  0  0  0  0  0  0  0
   -2.9678    0.4029   -0.2985 H   0  0  0  0  0  0  0  0  0  0  0  0
   -2.0661    1.9849   -0.3707 H   0  0  0  0  0  0  0  0  0  0  0  0
   -1.3611   -1.3059   -1.4401 H   0  0  0  0  0  0  0  0  0  0  0  0
   -1.4372   -1.8394    0.3299 H   0  0  0  0  0  0  0  0  0  0  0  0
    2.5339    1.3011   -0.6299 H   0  0  0  0  0  0  0  0  0  0  0  0
    2.9328   -0.3985   -0.9473 H   0  0  0  0  0  0  0  0  0  0  0  0
    2.8669    0.2682    0.7727 H   0  0  0  0  0  0  0  0  0  0  0  0
    0.1167   -0.4040    1.8460 H   0  0  0  0  0  0  0  0  0  0  0  0
    0.3831    1.3766    1.3051 H   0  0  0  0  0  0  0  0  0  0  0  0
  1  2  1  0
  2  3  1  0
  3  4  1  0
  4  5  2  0
  4  6  1  0
  6  7  1  0
  6  8  1  0
  6  9  1  0
  8  2  1  0
  9  2  1  0
  1 10  1  0
  1 11  1  0
  1 12  1  0
  3 13  1  0
  3 14  1  0
  7 15  1  0
  7 16  1  0
  7 17  1  0
  8 18  1  0
  8 19  1  0
M  END
