
     RDKit          3D

 19 20  0  0  0  0  0  0  0  0999 V2000
   -1.5338   -0.7364   -0.6430 C   0  0  0  0  0  0  0  0  0  0  0  0
   -0.4288    0.0955   -0.1707 C   0  0  0  0  0  0  0  0  0  0  0  0
    0.4435    0.7908   -1.1603 C   0  0  0  0  0  0  0  0  0  0  0  0
    1.6479    0.1846   -0.4782 C   0  0  0  0  0  0  0  0  0  0  0  0
    0.7315   -0.4867    0.5223 C   0  0  0  0  0  0  0  0  0  0  0  0
    0.9080   -1.8126    0.6249 O   0  0  0  0  0  0  0  0  0  0  0  0
    0.4313    0.2942    1.7262 C   0  0  0  0  0  0  0  0  0  0  0  0
    0.8735    0.3918    2.8521 O   0  0  0  0  0  0  0  0  0  0  0  0
   -0.6903    0.9760    1.0298 C   0  0  0  0  0  0  0  0  0  0  0  0
   -1.6273   -1.7417   -0.1855 H   0  0  0  0  0  0  0  0  0  0  0  0
   -2.5089   -0.2237   -0.3870 H   0  0  0  0  0  0  0  0  0  0  0  0
   -1.5117   -0.9153   -1.7578 H   0  0  0  0  0  0  0  0  0  0  0  0
    0.3114    0.4910   -2.2190 H   0  0  0  0  0  0  0  0  0  0  0  0
    0.4129    1.9114   -1.0842 H   0  0  0  0  0  0  0  0  0  0  0  0
    2.3530    0.9090   -0.0446 H   0  0  0  0  0  0  0  0  0  0  0  0
    2.1095   -0.5708   -1.1511 H   0  0  0  0  0  0  0  0  0  0  0  0
    0.2511   -2.4100    0.2524 H   0  0  0  0  0  0  0  0  0  0  0  0
   -1.6935    0.7920    1.4173 H   0  0  0  0  0  0  0  0  0  0  0  0
   -0.4793    2.0608    0.8564 H   0  0  0  0  0  0  0  0  0  0  0  0
  1  2  1  0
  2  3  1  0
  3  4  1  0
  4  5  1  0
  5  6  1  0
  5  7  1  0
  7  8  2  0
  7  9  1  0
  5  2  1  0
  9  2  1  0
  1 10  1  0
  1 11  1  0
  1 12  1  0
  3 13  1  0
  3 14  1  0
  4 15  1  0
  4 16  1  0
  6 17  1  0
  9 18  1  0
  9 19  1  0
M  END
