
     RDKit          3D

 19 20  0  0  0  0  0  0  0  0999 V2000
   -2.1896    0.5213    0.3252 C   0  0  0  0  0  0  0  0  0  0  0  0
   -1.3687   -0.3359   -0.6418 C   0  0  0  0  0  0  0  0  0  0  0  0
   -0.7800   -1.4732    0.0112 C   0  0  0  0  0  0  0  0  0  0  0  0
    0.3326   -1.0919    0.6059 C   0  0  0  0  0  0  0  0  0  0  0  0
    0.4572    0.3883    0.3015 C   0  0  0  0  0  0  0  0  0  0  0  0
    1.9000    0.8173    0.2687 C   0  0  0  0  0  0  0  0  0  0  0  0
    2.6313    0.1321   -0.7058 O   0  0  0  0  0  0  0  0  0  0  0  0
   -0.0212    0.2908   -1.1138 C   0  0  0  0  0  0  0  0  0  0  0  0
   -1.1544    0.3380   -1.7368 O   0  0  0  0  0  0  0  0  0  0  0  0
   -2.2581    0.0930    1.3365 H   0  0  0  0  0  0  0  0  0  0  0  0
   -3.2419    0.4632   -0.0881 H   0  0  0  0  0  0  0  0  0  0  0  0
   -1.9211    1.5767    0.2959 H   0  0  0  0  0  0  0  0  0  0  0  0
   -1.1523   -2.4958    0.0382 H   0  0  0  0  0  0  0  0  0  0  0  0
    1.0173   -1.6672    1.1808 H   0  0  0  0  0  0  0  0  0  0  0  0
   -0.0807    1.0242    0.9749 H   0  0  0  0  0  0  0  0  0  0  0  0
    1.9230    1.9113    0.1016 H   0  0  0  0  0  0  0  0  0  0  0  0
    2.3119    0.6497    1.2832 H   0  0  0  0  0  0  0  0  0  0  0  0
    2.9125   -0.7157   -0.2974 H   0  0  0  0  0  0  0  0  0  0  0  0
    0.6822   -0.4262   -1.6553 H   0  0  0  0  0  0  0  0  0  0  0  0
  1  2  1  0
  2  3  1  0
  3  4  2  0
  4  5  1  0
  5  6  1  0
  6  7  1  0
  5  8  1  0
  8  9  1  0
  8  2  1  0
  9  2  1  0
  1 10  1  0
  1 11  1  0
  1 12  1  0
  3 13  1  0
  4 14  1  0
  5 15  1  0
  6 16  1  0
  6 17  1  0
  7 18  1  0
  8 19  1  0
M  END
