
     RDKit          3D

 16 17  0  0  0  0  0  0  0  0999 V2000
    1.9449   -0.0516    0.4440 C   0  0  0  0  0  0  0  0  0  0  0  0
    0.5338   -0.1509    0.1327 C   0  0  0  0  0  0  0  0  0  0  0  0
   -0.3220    1.1081    0.2013 C   0  0  0  0  0  0  0  0  0  0  0  0
   -1.6817    0.3976    0.0357 C   0  0  0  0  0  0  0  0  0  0  0  0
   -1.1293   -0.9771   -0.2740 C   0  0  0  0  0  0  0  0  0  0  0  0
   -0.2345   -1.1257    0.8153 O   0  0  0  0  0  0  0  0  0  0  0  0
    0.0701   -0.7776   -1.1022 C   0  0  0  0  0  0  0  0  0  0  0  0
    0.4280   -1.0266   -2.2221 O   0  0  0  0  0  0  0  0  0  0  0  0
    2.3402    0.9448    0.2296 H   0  0  0  0  0  0  0  0  0  0  0  0
    2.5195   -0.8350   -0.0908 H   0  0  0  0  0  0  0  0  0  0  0  0
    2.1064   -0.2763    1.5396 H   0  0  0  0  0  0  0  0  0  0  0  0
   -0.2571    1.6059    1.1743 H   0  0  0  0  0  0  0  0  0  0  0  0
   -0.1062    1.7363   -0.6637 H   0  0  0  0  0  0  0  0  0  0  0  0
   -2.1493    0.3744    1.0208 H   0  0  0  0  0  0  0  0  0  0  0  0
   -2.2629    0.8300   -0.7708 H   0  0  0  0  0  0  0  0  0  0  0  0
   -1.7999   -1.7764   -0.4699 H   0  0  0  0  0  0  0  0  0  0  0  0
  1  2  1  0
  2  3  1  0
  3  4  1  0
  4  5  1  0
  5  6  1  0
  5  7  1  0
  7  8  2  0
  6  2  1  0
  7  2  1  0
  1  9  1  0
  1 10  1  0
  1 11  1  0
  3 12  1  0
  3 13  1  0
  4 14  1  0
  4 15  1  0
  5 16  1  0
M  END
