
     RDKit          3D

 17 19  0  0  0  0  0  0  0  0999 V2000
   -1.6024    0.0709   -0.8511 C   0  0  0  0  0  0  0  0  0  0  0  0
   -0.6140    0.0131    0.2601 C   0  0  0  0  0  0  0  0  0  0  0  0
    0.0128    1.2863    0.7421 C   0  0  0  0  0  0  0  0  0  0  0  0
    0.8260    0.2538    0.0826 C   0  0  0  0  0  0  0  0  0  0  0  0
    1.4559    0.4437   -1.2305 C   0  0  0  0  0  0  0  0  0  0  0  0
    2.4141    1.1896   -1.4061 O   0  0  0  0  0  0  0  0  0  0  0  0
    1.1154   -1.0039    0.8792 C   0  0  0  0  0  0  0  0  0  0  0  0
    0.6119   -2.1713    0.3532 O   0  0  0  0  0  0  0  0  0  0  0  0
   -0.3013   -1.2923    0.9489 C   0  0  0  0  0  0  0  0  0  0  0  0
   -1.8027    1.1343   -1.0852 H   0  0  0  0  0  0  0  0  0  0  0  0
   -2.5753   -0.3399   -0.4612 H   0  0  0  0  0  0  0  0  0  0  0  0
   -1.3543   -0.5275   -1.7319 H   0  0  0  0  0  0  0  0  0  0  0  0
   -0.3081    2.1858    0.2040 H   0  0  0  0  0  0  0  0  0  0  0  0
    0.1089    1.4198    1.8386 H   0  0  0  0  0  0  0  0  0  0  0  0
    1.0988   -0.0729   -2.1158 H   0  0  0  0  0  0  0  0  0  0  0  0
    1.7734   -0.9795    1.7432 H   0  0  0  0  0  0  0  0  0  0  0  0
   -0.8593   -1.6102    1.8299 H   0  0  0  0  0  0  0  0  0  0  0  0
  1  2  1  0
  2  3  1  0
  3  4  1  0
  4  5  1  0
  5  6  2  0
  4  7  1  0
  7  8  1  0
  8  9  1  0
  4  2  1  0
  9  7  1  0
  9  2  1  0
  1 10  1  0
  1 11  1  0
  1 12  1  0
  3 13  1  0
  3 14  1  0
  5 15  1  0
  7 16  1  0
  9 17  1  0
M  END
