
     RDKit          3D

 19 20  0  0  0  0  0  0  0  0999 V2000
    1.2360    0.1641    1.1085 C   0  0  0  0  0  0  0  0  0  0  0  0
    0.9685    0.1901   -0.3987 C   0  0  0  0  0  0  0  0  0  0  0  0
    1.7988   -0.5586   -1.0653 O   0  0  0  0  0  0  0  0  0  0  0  0
    0.6687   -1.2074   -1.0319 C   0  0  0  0  0  0  0  0  0  0  0  0
   -0.2981   -1.5664    0.0350 C   0  0  0  0  0  0  0  0  0  0  0  0
   -1.2540   -0.3673   -0.1042 C   0  0  0  0  0  0  0  0  0  0  0  0
   -0.3770    0.7459   -0.7068 C   0  0  0  0  0  0  0  0  0  0  0  0
   -0.6115    1.9948    0.0683 C   0  0  0  0  0  0  0  0  0  0  0  0
   -0.6470    3.0891   -0.4587 O   0  0  0  0  0  0  0  0  0  0  0  0
    1.8701    1.0849    1.2840 H   0  0  0  0  0  0  0  0  0  0  0  0
    1.8580   -0.6764    1.4251 H   0  0  0  0  0  0  0  0  0  0  0  0
    0.3381    0.3066    1.7107 H   0  0  0  0  0  0  0  0  0  0  0  0
    0.1340   -1.1789   -2.0337 H   0  0  0  0  0  0  0  0  0  0  0  0
    0.0893   -1.6189    1.0453 H   0  0  0  0  0  0  0  0  0  0  0  0
   -0.8117   -2.5029   -0.2494 H   0  0  0  0  0  0  0  0  0  0  0  0
   -1.9968   -0.6300   -0.8642 H   0  0  0  0  0  0  0  0  0  0  0  0
   -1.6683   -0.0744    0.8676 H   0  0  0  0  0  0  0  0  0  0  0  0
   -0.5395    0.8613   -1.7727 H   0  0  0  0  0  0  0  0  0  0  0  0
   -0.7577    1.9445    1.1411 H   0  0  0  0  0  0  0  0  0  0  0  0
  1  2  1  0
  2  3  1  0
  3  4  1  0
  4  5  1  0
  5  6  1  0
  6  7  1  0
  7  8  1  0
  8  9  2  0
  4  2  1  0
  7  2  1  0
  1 10  1  0
  1 11  1  0
  1 12  1  0
  4 13  1  0
  5 14  1  0
  5 15  1  0
  6 16  1  0
  6 17  1  0
  7 18  1  0
  8 19  1  0
M  END
