
     RDKit          3D

 21 23  0  0  0  0  0  0  0  0999 V2000
    0.0207    1.9262   -0.2470 C   0  0  0  0  0  0  0  0  0  0  0  0
   -0.3725    0.5949    0.0727 C   0  0  0  0  0  0  0  0  0  0  0  0
   -1.8108    0.1640    0.0923 C   0  0  0  0  0  0  0  0  0  0  0  0
   -1.1752   -1.2272   -0.0740 C   0  0  0  0  0  0  0  0  0  0  0  0
   -0.5327   -1.3564    1.1386 O   0  0  0  0  0  0  0  0  0  0  0  0
    0.2206   -0.1601    1.2326 C   0  0  0  0  0  0  0  0  0  0  0  0
    1.5816   -0.4886    0.6814 C   0  0  0  0  0  0  0  0  0  0  0  0
    1.2027   -1.0205   -0.7075 C   0  0  0  0  0  0  0  0  0  0  0  0
   -0.1785   -0.5229   -0.9683 C   0  0  0  0  0  0  0  0  0  0  0  0
    0.4424    2.0147   -1.2777 H   0  0  0  0  0  0  0  0  0  0  0  0
   -0.8346    2.6500   -0.1755 H   0  0  0  0  0  0  0  0  0  0  0  0
    0.8380    2.2892    0.4427 H   0  0  0  0  0  0  0  0  0  0  0  0
   -2.4057    0.4992   -0.7526 H   0  0  0  0  0  0  0  0  0  0  0  0
   -2.2481    0.2281    1.0931 H   0  0  0  0  0  0  0  0  0  0  0  0
   -1.7807   -1.9986   -0.4667 H   0  0  0  0  0  0  0  0  0  0  0  0
    0.1856    0.3152    2.1851 H   0  0  0  0  0  0  0  0  0  0  0  0
    2.0971    0.4768    0.4894 H   0  0  0  0  0  0  0  0  0  0  0  0
    2.1507   -1.2054    1.2623 H   0  0  0  0  0  0  0  0  0  0  0  0
    1.9389   -0.7601   -1.4634 H   0  0  0  0  0  0  0  0  0  0  0  0
    1.1403   -2.1316   -0.5879 H   0  0  0  0  0  0  0  0  0  0  0  0
   -0.4798   -0.2870   -1.9695 H   0  0  0  0  0  0  0  0  0  0  0  0
  1  2  1  0
  2  3  1  0
  3  4  1  0
  4  5  1  0
  5  6  1  0
  6  7  1  0
  7  8  1  0
  8  9  1  0
  6  2  1  0
  9  2  1  0
  9  4  1  0
  1 10  1  0
  1 11  1  0
  1 12  1  0
  3 13  1  0
  3 14  1  0
  4 15  1  0
  6 16  1  0
  7 17  1  0
  7 18  1  0
  8 19  1  0
  8 20  1  0
  9 21  1  0
M  END
