
     RDKit          3D

 19 22  0  0  0  0  0  0  0  0999 V2000
    2.1205   -0.2069   -0.2363 C   0  0  0  0  0  0  0  0  0  0  0  0
    0.6864   -0.0392   -0.0332 C   0  0  0  0  0  0  0  0  0  0  0  0
    0.1777    1.0052    0.8928 C   0  0  0  0  0  0  0  0  0  0  0  0
   -1.3360    0.7669    0.7965 C   0  0  0  0  0  0  0  0  0  0  0  0
   -1.4997   -0.6466    0.5235 C   0  0  0  0  0  0  0  0  0  0  0  0
   -1.5396    0.4499   -0.6046 C   0  0  0  0  0  0  0  0  0  0  0  0
   -0.2188    0.0881   -1.2277 C   0  0  0  0  0  0  0  0  0  0  0  0
   -0.1576   -1.3270   -1.2999 O   0  0  0  0  0  0  0  0  0  0  0  0
   -0.1777   -1.2556    0.1145 C   0  0  0  0  0  0  0  0  0  0  0  0
    2.6492    0.7408   -0.1101 H   0  0  0  0  0  0  0  0  0  0  0  0
    2.3661   -0.6899   -1.1933 H   0  0  0  0  0  0  0  0  0  0  0  0
    2.5270   -0.8941    0.5625 H   0  0  0  0  0  0  0  0  0  0  0  0
    0.4071    2.0074    0.4404 H   0  0  0  0  0  0  0  0  0  0  0  0
    0.5364    0.9336    1.9206 H   0  0  0  0  0  0  0  0  0  0  0  0
   -2.0019    1.3193    1.4334 H   0  0  0  0  0  0  0  0  0  0  0  0
   -2.3861   -1.2432    0.6572 H   0  0  0  0  0  0  0  0  0  0  0  0
   -2.4624    0.4659   -1.1580 H   0  0  0  0  0  0  0  0  0  0  0  0
    0.1220    0.6293   -2.0861 H   0  0  0  0  0  0  0  0  0  0  0  0
    0.1873   -2.1039    0.6495 H   0  0  0  0  0  0  0  0  0  0  0  0
  1  2  1  0
  2  3  1  0
  3  4  1  0
  4  5  1  0
  5  6  1  0
  6  7  1  0
  7  8  1  0
  8  9  1  0
  7  2  1  0
  9  2  1  0
  6  4  1  0
  9  5  1  0
  1 10  1  0
  1 11  1  0
  1 12  1  0
  3 13  1  0
  3 14  1  0
  4 15  1  0
  5 16  1  0
  6 17  1  0
  7 18  1  0
  9 19  1  0
M  END
