
     RDKit          3D

 17 18  0  0  0  0  0  0  0  0999 V2000
    1.9565    0.2326    0.0858 C   0  0  0  0  0  0  0  0  0  0  0  0
    0.5014    0.1947   -0.1493 C   0  0  0  0  0  0  0  0  0  0  0  0
   -0.0322   -1.1164   -0.7095 C   0  0  0  0  0  0  0  0  0  0  0  0
   -1.5070   -0.9401   -0.3177 C   0  0  0  0  0  0  0  0  0  0  0  0
   -1.3615   -0.5839    1.0243 O   0  0  0  0  0  0  0  0  0  0  0  0
   -0.4119    0.4246    1.0186 C   0  0  0  0  0  0  0  0  0  0  0  0
   -0.9427    1.6157    0.3099 C   0  0  0  0  0  0  0  0  0  0  0  0
   -1.7754    2.5218    0.5077 O   0  0  0  0  0  0  0  0  0  0  0  0
   -0.0949    1.3242   -0.7499 O   0  0  0  0  0  0  0  0  0  0  0  0
    2.3624    1.1778   -0.3734 H   0  0  0  0  0  0  0  0  0  0  0  0
    2.4321   -0.5881   -0.5221 H   0  0  0  0  0  0  0  0  0  0  0  0
    2.2672    0.1248    1.1379 H   0  0  0  0  0  0  0  0  0  0  0  0
    0.1039   -1.2201   -1.7804 H   0  0  0  0  0  0  0  0  0  0  0  0
    0.3884   -1.9489   -0.1032 H   0  0  0  0  0  0  0  0  0  0  0  0
   -1.8517   -0.0490   -0.8793 H   0  0  0  0  0  0  0  0  0  0  0  0
   -2.0886   -1.8398   -0.4729 H   0  0  0  0  0  0  0  0  0  0  0  0
    0.0539    0.6701    1.9735 H   0  0  0  0  0  0  0  0  0  0  0  0
  1  2  1  0
  2  3  1  0
  3  4  1  0
  4  5  1  0
  5  6  1  0
  6  7  1  0
  7  8  2  0
  7  9  1  0
  6  2  1  0
  9  2  1  0
  1 10  1  0
  1 11  1  0
  1 12  1  0
  3 13  1  0
  3 14  1  0
  4 15  1  0
  4 16  1  0
  6 17  1  0
M  END
