
     RDKit          3D

 16 17  0  0  0  0  0  0  0  0999 V2000
    1.3851   -0.5690    0.2803 C   0  0  0  0  0  0  0  0  0  0  0  0
    0.2440    0.0753   -0.5334 C   0  0  0  0  0  0  0  0  0  0  0  0
    0.4414    1.4654   -0.7537 C   0  0  0  0  0  0  0  0  0  0  0  0
   -0.5513    1.2033    0.2582 C   0  0  0  0  0  0  0  0  0  0  0  0
   -0.6843    0.0526    1.1586 C   0  0  0  0  0  0  0  0  0  0  0  0
   -0.5709   -0.2292    2.2937 O   0  0  0  0  0  0  0  0  0  0  0  0
   -1.0524   -0.6326   -0.1142 C   0  0  0  0  0  0  0  0  0  0  0  0
   -0.8951   -2.0104   -0.0947 O   0  0  0  0  0  0  0  0  0  0  0  0
    1.2494   -1.6355    0.4132 H   0  0  0  0  0  0  0  0  0  0  0  0
    1.5029   -0.0263    1.2360 H   0  0  0  0  0  0  0  0  0  0  0  0
    2.3124   -0.3381   -0.3170 H   0  0  0  0  0  0  0  0  0  0  0  0
    0.1853    1.8509   -1.7847 H   0  0  0  0  0  0  0  0  0  0  0  0
    1.3568    2.0174   -0.3863 H   0  0  0  0  0  0  0  0  0  0  0  0
   -1.5997    1.3904   -0.1503 H   0  0  0  0  0  0  0  0  0  0  0  0
   -1.9313   -0.2382   -0.6248 H   0  0  0  0  0  0  0  0  0  0  0  0
   -1.3924   -2.3759   -0.8809 H   0  0  0  0  0  0  0  0  0  0  0  0
  1  2  1  0
  2  3  1  0
  3  4  1  0
  4  5  1  0
  5  6  2  0
  5  7  1  0
  7  8  1  0
  4  2  1  0
  7  2  1  0
  1  9  1  0
  1 10  1  0
  1 11  1  0
  3 12  1  0
  3 13  1  0
  4 14  1  0
  7 15  1  0
  8 16  1  0
M  END
