
     RDKit          3D

 21 22  0  0  0  0  0  0  0  0999 V2000
    1.3544    1.6790   -0.1618 C   0  0  0  0  0  0  0  0  0  0  0  0
    0.5167    0.5212    0.2802 C   0  0  0  0  0  0  0  0  0  0  0  0
    1.0177   -0.2203    1.3508 O   0  0  0  0  0  0  0  0  0  0  0  0
    1.2893   -1.2879    0.5067 C   0  0  0  0  0  0  0  0  0  0  0  0
    0.6498   -0.6315   -0.6726 C   0  0  0  0  0  0  0  0  0  0  0  0
   -0.7255   -1.0922   -1.0361 C   0  0  0  0  0  0  0  0  0  0  0  0
   -1.6980   -0.3458   -0.1853 C   0  0  0  0  0  0  0  0  0  0  0  0
   -0.9461    0.7856    0.4812 C   0  0  0  0  0  0  0  0  0  0  0  0
   -1.2792    0.7331    1.8487 O   0  0  0  0  0  0  0  0  0  0  0  0
    1.7992    1.5226   -1.1883 H   0  0  0  0  0  0  0  0  0  0  0  0
    0.8023    2.6341   -0.2330 H   0  0  0  0  0  0  0  0  0  0  0  0
    2.2370    1.8543    0.5069 H   0  0  0  0  0  0  0  0  0  0  0  0
    2.4085   -1.3743    0.3998 H   0  0  0  0  0  0  0  0  0  0  0  0
    0.8293   -2.2523    0.7733 H   0  0  0  0  0  0  0  0  0  0  0  0
    1.3565   -0.4668   -1.5092 H   0  0  0  0  0  0  0  0  0  0  0  0
   -0.9113   -0.7794   -2.1010 H   0  0  0  0  0  0  0  0  0  0  0  0
   -0.8385   -2.1906   -1.0073 H   0  0  0  0  0  0  0  0  0  0  0  0
   -2.5077    0.1282   -0.7858 H   0  0  0  0  0  0  0  0  0  0  0  0
   -2.1487   -1.0481    0.5586 H   0  0  0  0  0  0  0  0  0  0  0  0
   -1.2596    1.7812    0.1239 H   0  0  0  0  0  0  0  0  0  0  0  0
   -1.9462    0.0500    2.0502 H   0  0  0  0  0  0  0  0  0  0  0  0
  1  2  1  0
  2  3  1  0
  3  4  1  0
  4  5  1  0
  5  6  1  0
  6  7  1  0
  7  8  1  0
  8  9  1  0
  5  2  1  0
  8  2  1  0
  1 10  1  0
  1 11  1  0
  1 12  1  0
  4 13  1  0
  4 14  1  0
  5 15  1  0
  6 16  1  0
  6 17  1  0
  7 18  1  0
  7 19  1  0
  8 20  1  0
  9 21  1  0
M  END
