
     RDKit          3D

 21 23  0  0  0  0  0  0  0  0999 V2000
    2.3374   -0.1622   -0.3414 C   0  0  0  0  0  0  0  0  0  0  0  0
    0.8340   -0.1680   -0.2591 C   0  0  0  0  0  0  0  0  0  0  0  0
    0.0633    0.9536   -0.8715 C   0  0  0  0  0  0  0  0  0  0  0  0
   -1.2752    0.8022   -0.1609 C   0  0  0  0  0  0  0  0  0  0  0  0
   -1.8928   -0.4688   -0.6276 C   0  0  0  0  0  0  0  0  0  0  0  0
   -1.1540   -1.5584   -0.3177 O   0  0  0  0  0  0  0  0  0  0  0  0
    0.1324   -1.3933    0.0240 C   0  0  0  0  0  0  0  0  0  0  0  0
    0.2973   -0.4185    1.1153 C   0  0  0  0  0  0  0  0  0  0  0  0
   -0.7897    0.5815    1.2759 C   0  0  0  0  0  0  0  0  0  0  0  0
    2.7011    0.6599    0.3440 H   0  0  0  0  0  0  0  0  0  0  0  0
    2.6939   -1.1033    0.1533 H   0  0  0  0  0  0  0  0  0  0  0  0
    2.7076   -0.0316   -1.3570 H   0  0  0  0  0  0  0  0  0  0  0  0
    0.4909    1.9126   -0.5142 H   0  0  0  0  0  0  0  0  0  0  0  0
   -0.0381    0.8946   -1.9668 H   0  0  0  0  0  0  0  0  0  0  0  0
   -1.8980    1.6864   -0.2112 H   0  0  0  0  0  0  0  0  0  0  0  0
   -2.1124   -0.4766   -1.7168 H   0  0  0  0  0  0  0  0  0  0  0  0
   -2.8993   -0.5596   -0.1321 H   0  0  0  0  0  0  0  0  0  0  0  0
    0.7338   -2.3278    0.1012 H   0  0  0  0  0  0  0  0  0  0  0  0
    0.9632   -0.6853    1.9532 H   0  0  0  0  0  0  0  0  0  0  0  0
   -1.5927    0.3014    1.9529 H   0  0  0  0  0  0  0  0  0  0  0  0
   -0.3027    1.5611    1.5565 H   0  0  0  0  0  0  0  0  0  0  0  0
  1  2  1  0
  2  3  1  0
  3  4  1  0
  4  5  1  0
  5  6  1  0
  6  7  1  0
  7  8  1  0
  8  9  1  0
  7  2  1  0
  8  2  1  0
  9  4  1  0
  1 10  1  0
  1 11  1  0
  1 12  1  0
  3 13  1  0
  3 14  1  0
  4 15  1  0
  5 16  1  0
  5 17  1  0
  7 18  1  0
  8 19  1  0
  9 20  1  0
  9 21  1  0
M  END
