
     RDKit          3D

 16 17  0  0  0  0  0  0  0  0999 V2000
    1.6995   -0.5232   -0.3198 C   0  0  0  0  0  0  0  0  0  0  0  0
    0.4939   -0.0079    0.0554 C   0  0  0  0  0  0  0  0  0  0  0  0
   -0.2359    1.1735   -0.5209 C   0  0  0  0  0  0  0  0  0  0  0  0
   -1.1406    0.6599    0.5698 C   0  0  0  0  0  0  0  0  0  0  0  0
    0.0940    0.5221    1.3792 C   0  0  0  0  0  0  0  0  0  0  0  0
    0.4964    0.7361    2.4889 O   0  0  0  0  0  0  0  0  0  0  0  0
   -0.8470   -0.7062    0.0547 C   0  0  0  0  0  0  0  0  0  0  0  0
   -1.3445   -1.0346   -1.1865 O   0  0  0  0  0  0  0  0  0  0  0  0
    1.6429   -1.4382   -0.9820 H   0  0  0  0  0  0  0  0  0  0  0  0
    2.3682   -0.8592    0.5239 H   0  0  0  0  0  0  0  0  0  0  0  0
    2.3622    0.1761   -0.9103 H   0  0  0  0  0  0  0  0  0  0  0  0
    0.1984    2.1554   -0.2509 H   0  0  0  0  0  0  0  0  0  0  0  0
   -0.6307    1.0674   -1.5373 H   0  0  0  0  0  0  0  0  0  0  0  0
   -2.0142    1.0508    0.8619 H   0  0  0  0  0  0  0  0  0  0  0  0
   -0.9592   -1.4626    0.8546 H   0  0  0  0  0  0  0  0  0  0  0  0
   -2.1834   -1.5095   -1.0807 H   0  0  0  0  0  0  0  0  0  0  0  0
  1  2  1  0
  2  3  1  0
  3  4  1  0
  4  5  1  0
  5  6  2  0
  4  7  1  0
  7  8  1  0
  5  2  1  0
  7  2  1  0
  1  9  1  0
  1 10  1  0
  1 11  1  0
  3 12  1  0
  3 13  1  0
  4 14  1  0
  7 15  1  0
  8 16  1  0
M  END
