
     RDKit          3D

 19 20  0  0  0  0  0  0  0  0999 V2000
    2.1130   -0.2727    0.0691 C   0  0  0  0  0  0  0  0  0  0  0  0
    0.7004   -0.0883   -0.3805 C   0  0  0  0  0  0  0  0  0  0  0  0
    0.5729    0.7971   -1.4629 O   0  0  0  0  0  0  0  0  0  0  0  0
   -0.4036    1.5426   -0.8031 C   0  0  0  0  0  0  0  0  0  0  0  0
   -0.1190    0.8459    0.4788 C   0  0  0  0  0  0  0  0  0  0  0  0
   -1.1742   -0.0250    1.0534 C   0  0  0  0  0  0  0  0  0  0  0  0
   -1.4668   -1.0402   -0.0308 C   0  0  0  0  0  0  0  0  0  0  0  0
   -0.1036   -1.3212   -0.5510 C   0  0  0  0  0  0  0  0  0  0  0  0
    0.3002   -2.3600   -1.0313 O   0  0  0  0  0  0  0  0  0  0  0  0
    2.3033   -1.3103    0.4023 H   0  0  0  0  0  0  0  0  0  0  0  0
    2.7878   -0.1136   -0.8163 H   0  0  0  0  0  0  0  0  0  0  0  0
    2.4244    0.4601    0.8457 H   0  0  0  0  0  0  0  0  0  0  0  0
   -0.1016    2.6245   -0.7483 H   0  0  0  0  0  0  0  0  0  0  0  0
   -1.4329    1.4377   -1.2091 H   0  0  0  0  0  0  0  0  0  0  0  0
    0.4508    1.4241    1.2239 H   0  0  0  0  0  0  0  0  0  0  0  0
   -2.0746    0.4999    1.3977 H   0  0  0  0  0  0  0  0  0  0  0  0
   -0.7315   -0.5876    1.9108 H   0  0  0  0  0  0  0  0  0  0  0  0
   -1.9214   -1.9199    0.4593 H   0  0  0  0  0  0  0  0  0  0  0  0
   -2.1235   -0.5931   -0.8077 H   0  0  0  0  0  0  0  0  0  0  0  0
  1  2  1  0
  2  3  1  0
  3  4  1  0
  4  5  1  0
  5  6  1  0
  6  7  1  0
  7  8  1  0
  8  9  2  0
  5  2  1  0
  8  2  1  0
  1 10  1  0
  1 11  1  0
  1 12  1  0
  4 13  1  0
  4 14  1  0
  5 15  1  0
  6 16  1  0
  6 17  1  0
  7 18  1  0
  7 19  1  0
M  END
