
     RDKit          3D

 19 20  0  0  0  0  0  0  0  0999 V2000
   -1.1523    0.8302   -0.8736 C   0  0  0  0  0  0  0  0  0  0  0  0
   -0.6254   -0.4933   -0.5308 C   0  0  0  0  0  0  0  0  0  0  0  0
   -1.5823   -1.2770    0.2335 C   0  0  0  0  0  0  0  0  0  0  0  0
   -2.3987   -2.1155    0.0032 O   0  0  0  0  0  0  0  0  0  0  0  0
   -1.0684   -0.5496    1.4141 C   0  0  0  0  0  0  0  0  0  0  0  0
    0.2270   -0.8246    0.7458 C   0  0  0  0  0  0  0  0  0  0  0  0
    0.8243   -0.4315   -0.4611 C   0  0  0  0  0  0  0  0  0  0  0  0
    1.6074    0.8880   -0.3916 C   0  0  0  0  0  0  0  0  0  0  0  0
    2.9531    0.5299   -0.3363 O   0  0  0  0  0  0  0  0  0  0  0  0
   -2.1687    0.6546   -1.3002 H   0  0  0  0  0  0  0  0  0  0  0  0
   -1.2597    1.5942   -0.1234 H   0  0  0  0  0  0  0  0  0  0  0  0
   -0.6038    1.3340   -1.7312 H   0  0  0  0  0  0  0  0  0  0  0  0
   -1.1939   -1.0657    2.3975 H   0  0  0  0  0  0  0  0  0  0  0  0
   -1.3902    0.4848    1.5570 H   0  0  0  0  0  0  0  0  0  0  0  0
    0.4053   -1.9506    0.8810 H   0  0  0  0  0  0  0  0  0  0  0  0
    1.3184   -1.0982   -1.2324 H   0  0  0  0  0  0  0  0  0  0  0  0
    1.3401    1.4753    0.4968 H   0  0  0  0  0  0  0  0  0  0  0  0
    1.4695    1.4717   -1.3251 H   0  0  0  0  0  0  0  0  0  0  0  0
    3.2982    0.5432    0.5766 H   0  0  0  0  0  0  0  0  0  0  0  0
  1  2  1  0
  2  3  1  0
  3  4  2  0
  3  5  1  0
  5  6  1  0
  6  7  1  0
  7  8  1  0
  8  9  1  0
  6  2  1  0
  7  2  1  0
  1 10  1  0
  1 11  1  0
  1 12  1  0
  5 13  1  0
  5 14  1  0
  6 15  1  0
  7 16  1  0
  8 17  1  0
  8 18  1  0
  9 19  1  0
M  END
