
     RDKit          3D

 19 20  0  0  0  0  0  0  0  0999 V2000
    2.5250   -0.0905    0.0658 C   0  0  0  0  0  0  0  0  0  0  0  0
    1.0539    0.2282   -0.1953 C   0  0  0  0  0  0  0  0  0  0  0  0
    0.4889    1.3750    0.5241 C   0  0  0  0  0  0  0  0  0  0  0  0
   -0.7737    1.3734    0.8552 C   0  0  0  0  0  0  0  0  0  0  0  0
   -1.7437    0.2955    0.5737 C   0  0  0  0  0  0  0  0  0  0  0  0
   -1.2360   -0.8151   -0.2461 C   0  0  0  0  0  0  0  0  0  0  0  0
   -2.0065   -0.9367   -1.4210 O   0  0  0  0  0  0  0  0  0  0  0  0
    0.1942   -0.7879   -0.6173 C   0  0  0  0  0  0  0  0  0  0  0  0
    0.6295    0.1723   -1.5533 O   0  0  0  0  0  0  0  0  0  0  0  0
    2.7463   -1.1203   -0.3169 H   0  0  0  0  0  0  0  0  0  0  0  0
    2.6537   -0.1220    1.1503 H   0  0  0  0  0  0  0  0  0  0  0  0
    3.1808    0.6636   -0.4028 H   0  0  0  0  0  0  0  0  0  0  0  0
    1.0964    2.2404    0.7950 H   0  0  0  0  0  0  0  0  0  0  0  0
   -1.1773    2.2469    1.3960 H   0  0  0  0  0  0  0  0  0  0  0  0
   -2.6304    0.7844    0.0765 H   0  0  0  0  0  0  0  0  0  0  0  0
   -2.1434   -0.0412    1.5669 H   0  0  0  0  0  0  0  0  0  0  0  0
   -1.4283   -1.7789    0.3115 H   0  0  0  0  0  0  0  0  0  0  0  0
   -2.0565   -1.8867   -1.6941 H   0  0  0  0  0  0  0  0  0  0  0  0
    0.6272   -1.8005   -0.8682 H   0  0  0  0  0  0  0  0  0  0  0  0
  1  2  1  0
  2  3  1  0
  3  4  2  0
  4  5  1  0
  5  6  1  0
  6  7  1  0
  6  8  1  0
  8  9  1  0
  8  2  1  0
  9  2  1  0
  1 10  1  0
  1 11  1  0
  1 12  1  0
  3 13  1  0
  4 14  1  0
  5 15  1  0
  5 16  1  0
  6 17  1  0
  7 18  1  0
  8 19  1  0
M  END
