
     RDKit          3D

 16 18  0  0  0  0  0  0  0  0999 V2000
   -1.8253    0.4893    0.1875 C   0  0  0  0  0  0  0  0  0  0  0  0
   -0.4187    0.1986    0.0540 C   0  0  0  0  0  0  0  0  0  0  0  0
    0.6009    1.2335    0.2749 C   0  0  0  0  0  0  0  0  0  0  0  0
    1.7572    0.5858    0.1120 C   0  0  0  0  0  0  0  0  0  0  0  0
    1.3373   -0.7874   -0.2445 C   0  0  0  0  0  0  0  0  0  0  0  0
    0.1180   -0.5901   -1.0843 C   0  0  0  0  0  0  0  0  0  0  0  0
   -0.3994   -1.7226   -0.4728 O   0  0  0  0  0  0  0  0  0  0  0  0
    0.1602   -1.0664    0.6087 C   0  0  0  0  0  0  0  0  0  0  0  0
   -2.0372    1.5625    0.4613 H   0  0  0  0  0  0  0  0  0  0  0  0
   -2.2651   -0.0929    1.0474 H   0  0  0  0  0  0  0  0  0  0  0  0
   -2.4750    0.2602   -0.6808 H   0  0  0  0  0  0  0  0  0  0  0  0
    0.3856    2.2677    0.5127 H   0  0  0  0  0  0  0  0  0  0  0  0
    2.7826    0.9216    0.2028 H   0  0  0  0  0  0  0  0  0  0  0  0
    2.0549   -1.5278   -0.4837 H   0  0  0  0  0  0  0  0  0  0  0  0
    0.0842   -0.3684   -2.0686 H   0  0  0  0  0  0  0  0  0  0  0  0
    0.1397   -1.3636    1.5732 H   0  0  0  0  0  0  0  0  0  0  0  0
  1  2  1  0
  2  3  1  0
  3  4  2  0
  4  5  1  0
  5  6  1  0
  6  7  1  0
  7  8  1  0
  6  2  1  0
  8  2  1  0
  8  5  1  0
  1  9  1  0
  1 10  1  0
  1 11  1  0
  3 12  1  0
  4 13  1  0
  5 14  1  0
  6 15  1  0
  8 16  1  0
M  END
