
     RDKit          3D

 17 18  0  0  0  0  0  0  0  0999 V2000
   -1.5686   -0.7677   -0.6163 C   0  0  0  0  0  0  0  0  0  0  0  0
   -0.7305   -0.0388    0.3638 C   0  0  0  0  0  0  0  0  0  0  0  0
   -0.7243   -0.5466    1.6667 O   0  0  0  0  0  0  0  0  0  0  0  0
    0.6739   -0.6348    1.6310 C   0  0  0  0  0  0  0  0  0  0  0  0
    0.7166    0.0709    0.3195 C   0  0  0  0  0  0  0  0  0  0  0  0
    1.5585   -0.3974   -0.7859 C   0  0  0  0  0  0  0  0  0  0  0  0
    1.1782   -0.9244   -1.8019 O   0  0  0  0  0  0  0  0  0  0  0  0
   -0.1673    1.2924    0.1338 C   0  0  0  0  0  0  0  0  0  0  0  0
   -0.1106    2.1925    1.2022 O   0  0  0  0  0  0  0  0  0  0  0  0
   -1.1890   -0.8097   -1.6390 H   0  0  0  0  0  0  0  0  0  0  0  0
   -2.6097   -0.3345   -0.5729 H   0  0  0  0  0  0  0  0  0  0  0  0
   -1.6784   -1.8339   -0.2764 H   0  0  0  0  0  0  0  0  0  0  0  0
    0.9599   -1.6987    1.5920 H   0  0  0  0  0  0  0  0  0  0  0  0
    1.0863   -0.0557    2.4734 H   0  0  0  0  0  0  0  0  0  0  0  0
    2.6422   -0.2591   -0.6879 H   0  0  0  0  0  0  0  0  0  0  0  0
   -0.2479    1.6906   -0.8987 H   0  0  0  0  0  0  0  0  0  0  0  0
    0.2105    3.0548    0.8332 H   0  0  0  0  0  0  0  0  0  0  0  0
  1  2  1  0
  2  3  1  0
  3  4  1  0
  4  5  1  0
  5  6  1  0
  6  7  2  0
  5  8  1  0
  8  9  1  0
  5  2  1  0
  8  2  1  0
  1 10  1  0
  1 11  1  0
  1 12  1  0
  4 13  1  0
  4 14  1  0
  6 15  1  0
  8 16  1  0
  9 17  1  0
M  END
