
     RDKit          3D

 19 21  0  0  0  0  0  0  0  0999 V2000
   -2.5569    0.0259   -0.1144 C   0  0  0  0  0  0  0  0  0  0  0  0
   -1.0802    0.1143   -0.3274 C   0  0  0  0  0  0  0  0  0  0  0  0
   -0.4157   -0.7332   -1.1695 O   0  0  0  0  0  0  0  0  0  0  0  0
    0.4323   -1.2213   -0.1756 C   0  0  0  0  0  0  0  0  0  0  0  0
    1.8633   -0.8075   -0.3518 C   0  0  0  0  0  0  0  0  0  0  0  0
    2.0351    0.6695   -0.3989 C   0  0  0  0  0  0  0  0  0  0  0  0
    1.0633    1.4878   -0.0269 C   0  0  0  0  0  0  0  0  0  0  0  0
   -0.2702    1.0580    0.4656 C   0  0  0  0  0  0  0  0  0  0  0  0
   -0.2228   -0.3472    0.8665 C   0  0  0  0  0  0  0  0  0  0  0  0
   -2.7476    0.2987    0.9613 H   0  0  0  0  0  0  0  0  0  0  0  0
   -2.8676   -1.0268   -0.2159 H   0  0  0  0  0  0  0  0  0  0  0  0
   -3.1181    0.7167   -0.7526 H   0  0  0  0  0  0  0  0  0  0  0  0
    0.3539   -2.2941    0.0392 H   0  0  0  0  0  0  0  0  0  0  0  0
    2.4680   -1.2772    0.4574 H   0  0  0  0  0  0  0  0  0  0  0  0
    2.2294   -1.2668   -1.3054 H   0  0  0  0  0  0  0  0  0  0  0  0
    3.0086    1.0521   -0.7580 H   0  0  0  0  0  0  0  0  0  0  0  0
    1.2958    2.5620   -0.1012 H   0  0  0  0  0  0  0  0  0  0  0  0
   -0.7400    1.7624    1.1801 H   0  0  0  0  0  0  0  0  0  0  0  0
   -0.7306   -0.7732    1.7276 H   0  0  0  0  0  0  0  0  0  0  0  0
  1  2  1  0
  2  3  1  0
  3  4  1  0
  4  5  1  0
  5  6  1  0
  6  7  2  0
  7  8  1  0
  8  9  1  0
  8  2  1  0
  9  2  1  0
  9  4  1  0
  1 10  1  0
  1 11  1  0
  1 12  1  0
  4 13  1  0
  5 14  1  0
  5 15  1  0
  6 16  1  0
  7 17  1  0
  8 18  1  0
  9 19  1  0
M  END
