
     RDKit          3D

 21 22  0  0  0  0  0  0  0  0999 V2000
    2.1504   -0.4237    0.1637 C   0  0  0  0  0  0  0  0  0  0  0  0
    0.7246   -0.0808   -0.0267 C   0  0  0  0  0  0  0  0  0  0  0  0
    0.4375    1.3986   -0.1031 C   0  0  0  0  0  0  0  0  0  0  0  0
   -1.0440    1.5062   -0.4753 C   0  0  0  0  0  0  0  0  0  0  0  0
   -1.8491    0.7248    0.2904 O   0  0  0  0  0  0  0  0  0  0  0  0
   -1.4626   -0.5882    0.4231 C   0  0  0  0  0  0  0  0  0  0  0  0
   -1.0176   -1.2000   -0.8913 C   0  0  0  0  0  0  0  0  0  0  0  0
    0.2161   -0.6750   -1.1502 O   0  0  0  0  0  0  0  0  0  0  0  0
   -0.1151   -0.5766    1.1588 C   0  0  0  0  0  0  0  0  0  0  0  0
    2.3721   -0.6741    1.2358 H   0  0  0  0  0  0  0  0  0  0  0  0
    2.3485   -1.3859   -0.3906 H   0  0  0  0  0  0  0  0  0  0  0  0
    2.8330    0.3161   -0.2571 H   0  0  0  0  0  0  0  0  0  0  0  0
    0.9916    1.9080   -0.9152 H   0  0  0  0  0  0  0  0  0  0  0  0
    0.5943    1.9226    0.8489 H   0  0  0  0  0  0  0  0  0  0  0  0
   -1.1218    1.2411   -1.5430 H   0  0  0  0  0  0  0  0  0  0  0  0
   -1.3362    2.5694   -0.3226 H   0  0  0  0  0  0  0  0  0  0  0  0
   -2.2153   -1.1666    0.9464 H   0  0  0  0  0  0  0  0  0  0  0  0
   -1.7444   -1.0773   -1.6944 H   0  0  0  0  0  0  0  0  0  0  0  0
   -0.8720   -2.2977   -0.6734 H   0  0  0  0  0  0  0  0  0  0  0  0
   -0.1254    0.1359    1.9807 H   0  0  0  0  0  0  0  0  0  0  0  0
    0.2355   -1.5770    1.3952 H   0  0  0  0  0  0  0  0  0  0  0  0
  1  2  1  0
  2  3  1  0
  3  4  1  0
  4  5  1  0
  5  6  1  0
  6  7  1  0
  7  8  1  0
  6  9  1  0
  8  2  1  0
  9  2  1  0
  1 10  1  0
  1 11  1  0
  1 12  1  0
  3 13  1  0
  3 14  1  0
  4 15  1  0
  4 16  1  0
  6 17  1  0
  7 18  1  0
  7 19  1  0
  9 20  1  0
  9 21  1  0
M  END
