
     RDKit          3D

 23 24  0  0  0  0  0  0  0  0999 V2000
   -1.9323   -1.2492    0.7725 C   0  0  0  0  0  0  0  0  0  0  0  0
   -1.1428   -0.3305   -0.1611 C   0  0  0  0  0  0  0  0  0  0  0  0
    0.1676   -0.8511   -0.6585 C   0  0  0  0  0  0  0  0  0  0  0  0
    1.1293    0.2834   -0.7129 C   0  0  0  0  0  0  0  0  0  0  0  0
    2.2787    0.0464    0.2685 C   0  0  0  0  0  0  0  0  0  0  0  0
    2.9754   -1.1051   -0.0113 O   0  0  0  0  0  0  0  0  0  0  0  0
    0.4145    1.5248   -0.2360 C   0  0  0  0  0  0  0  0  0  0  0  0
   -0.9483    1.0962    0.2405 C   0  0  0  0  0  0  0  0  0  0  0  0
   -1.8994    0.7215   -0.8365 C   0  0  0  0  0  0  0  0  0  0  0  0
   -1.3949   -2.2003    0.9395 H   0  0  0  0  0  0  0  0  0  0  0  0
   -2.9556   -1.4463    0.3718 H   0  0  0  0  0  0  0  0  0  0  0  0
   -2.0315   -0.7306    1.7471 H   0  0  0  0  0  0  0  0  0  0  0  0
    0.0858   -1.4217   -1.6094 H   0  0  0  0  0  0  0  0  0  0  0  0
    0.5210   -1.6100    0.1003 H   0  0  0  0  0  0  0  0  0  0  0  0
    1.4865    0.4554   -1.7286 H   0  0  0  0  0  0  0  0  0  0  0  0
    1.9400    0.1497    1.3031 H   0  0  0  0  0  0  0  0  0  0  0  0
    2.9867    0.9032    0.0874 H   0  0  0  0  0  0  0  0  0  0  0  0
    2.9814   -1.7694    0.7272 H   0  0  0  0  0  0  0  0  0  0  0  0
    0.2734    2.2427   -1.0826 H   0  0  0  0  0  0  0  0  0  0  0  0
    0.9581    2.0716    0.5431 H   0  0  0  0  0  0  0  0  0  0  0  0
   -1.2591    1.3534    1.2497 H   0  0  0  0  0  0  0  0  0  0  0  0
   -2.9741    0.8106   -0.6144 H   0  0  0  0  0  0  0  0  0  0  0  0
   -1.6604    1.0553   -1.8852 H   0  0  0  0  0  0  0  0  0  0  0  0
  1  2  1  0
  2  3  1  0
  3  4  1  0
  4  5  1  0
  5  6  1  0
  4  7  1  0
  7  8  1  0
  8  9  1  0
  8  2  1  0
  9  2  1  0
  1 10  1  0
  1 11  1  0
  1 12  1  0
  3 13  1  0
  3 14  1  0
  4 15  1  0
  5 16  1  0
  5 17  1  0
  6 18  1  0
  7 19  1  0
  7 20  1  0
  8 21  1  0
  9 22  1  0
  9 23  1  0
M  END
