
     RDKit          3D

 20 22  0  0  0  0  0  0  0  0999 V2000
    2.1689   -0.6283    0.2604 C   0  0  0  0  0  0  0  0  0  0  0  0
    0.7171   -0.2898    0.2956 C   0  0  0  0  0  0  0  0  0  0  0  0
    0.3292    1.0717    0.8043 C   0  0  0  0  0  0  0  0  0  0  0  0
   -0.7207    1.5782   -0.1723 C   0  0  0  0  0  0  0  0  0  0  0  0
   -1.2595    0.3136   -0.8148 C   0  0  0  0  0  0  0  0  0  0  0  0
   -1.7642   -0.7200    0.1759 C   0  0  0  0  0  0  0  0  0  0  0  0
   -0.3502   -1.2995    0.2013 C   0  0  0  0  0  0  0  0  0  0  0  0
   -0.0207   -0.4955   -0.9640 C   0  0  0  0  0  0  0  0  0  0  0  0
    2.6377    0.0593   -0.5047 H   0  0  0  0  0  0  0  0  0  0  0  0
    2.6531   -0.4402    1.2576 H   0  0  0  0  0  0  0  0  0  0  0  0
    2.3476   -1.6644   -0.0475 H   0  0  0  0  0  0  0  0  0  0  0  0
   -0.1024    0.9378    1.8304 H   0  0  0  0  0  0  0  0  0  0  0  0
    1.2062    1.7492    0.8494 H   0  0  0  0  0  0  0  0  0  0  0  0
   -0.1413    2.0973   -0.9873 H   0  0  0  0  0  0  0  0  0  0  0  0
   -1.4828    2.1967    0.2855 H   0  0  0  0  0  0  0  0  0  0  0  0
   -1.8419    0.4402   -1.7227 H   0  0  0  0  0  0  0  0  0  0  0  0
   -2.4952   -1.4091   -0.2790 H   0  0  0  0  0  0  0  0  0  0  0  0
   -2.0750   -0.3075    1.1553 H   0  0  0  0  0  0  0  0  0  0  0  0
   -0.2016   -2.3711    0.2705 H   0  0  0  0  0  0  0  0  0  0  0  0
    0.3958   -0.8186   -1.8937 H   0  0  0  0  0  0  0  0  0  0  0  0
  1  2  1  0
  2  3  1  0
  3  4  1  0
  4  5  1  0
  5  6  1  0
  6  7  1  0
  7  8  1  0
  7  2  1  0
  8  2  1  0
  8  5  1  0
  1  9  1  0
  1 10  1  0
  1 11  1  0
  3 12  1  0
  3 13  1  0
  4 14  1  0
  4 15  1  0
  5 16  1  0
  6 17  1  0
  6 18  1  0
  7 19  1  0
  8 20  1  0
M  END
