
     RDKit          3D

 19 20  0  0  0  0  0  0  0  0999 V2000
    2.2670   -0.0742   -0.5722 C   0  0  0  0  0  0  0  0  0  0  0  0
    0.9180   -0.0505   -0.3593 C   0  0  0  0  0  0  0  0  0  0  0  0
    0.1183   -0.8303    0.6407 C   0  0  0  0  0  0  0  0  0  0  0  0
   -0.9207    0.0111   -0.0702 C   0  0  0  0  0  0  0  0  0  0  0  0
   -2.2594    0.0591    0.1591 C   0  0  0  0  0  0  0  0  0  0  0  0
    0.0862    1.1388    0.0784 C   0  0  0  0  0  0  0  0  0  0  0  0
   -0.1865   -0.3253   -1.3366 C   0  0  0  0  0  0  0  0  0  0  0  0
    2.5512    0.0759   -1.6553 H   0  0  0  0  0  0  0  0  0  0  0  0
    2.7823   -1.0104   -0.2728 H   0  0  0  0  0  0  0  0  0  0  0  0
    2.8348    0.7444   -0.0399 H   0  0  0  0  0  0  0  0  0  0  0  0
   -0.0201   -1.8949    0.4566 H   0  0  0  0  0  0  0  0  0  0  0  0
    0.3124   -0.5000    1.6690 H   0  0  0  0  0  0  0  0  0  0  0  0
   -2.9122    0.0712   -0.7647 H   0  0  0  0  0  0  0  0  0  0  0  0
   -2.6241    0.9618    0.7355 H   0  0  0  0  0  0  0  0  0  0  0  0
   -2.6834   -0.8054    0.7538 H   0  0  0  0  0  0  0  0  0  0  0  0
    0.0045    1.9415   -0.6630 H   0  0  0  0  0  0  0  0  0  0  0  0
    0.2031    1.4264    1.1311 H   0  0  0  0  0  0  0  0  0  0  0  0
   -0.2650    0.4313   -2.1395 H   0  0  0  0  0  0  0  0  0  0  0  0
   -0.2061   -1.3704   -1.6314 H   0  0  0  0  0  0  0  0  0  0  0  0
  1  2  1  0
  2  3  1  0
  3  4  1  0
  4  5  1  0
  4  6  1  0
  4  7  1  0
  6  2  1  0
  7  2  1  0
  1  8  1  0
  1  9  1  0
  1 10  1  0
  3 11  1  0
  3 12  1  0
  5 13  1  0
  5 14  1  0
  5 15  1  0
  6 16  1  0
  6 17  1  0
  7 18  1  0
  7 19  1  0
M  END
