
     RDKit          3D

 23 24  0  0  0  0  0  0  0  0999 V2000
   -1.2746   -0.7739    1.5476 C   0  0  0  0  0  0  0  0  0  0  0  0
   -0.5965   -0.3001    0.2549 C   0  0  0  0  0  0  0  0  0  0  0  0
    0.3294   -1.3284   -0.2483 C   0  0  0  0  0  0  0  0  0  0  0  0
    1.6436   -0.7977   -0.7659 C   0  0  0  0  0  0  0  0  0  0  0  0
    2.1475    0.3442    0.0020 C   0  0  0  0  0  0  0  0  0  0  0  0
    1.3331    1.2317    0.5452 C   0  0  0  0  0  0  0  0  0  0  0  0
   -0.1094    1.0881    0.3871 C   0  0  0  0  0  0  0  0  0  0  0  0
   -0.6668    1.3518   -1.0173 C   0  0  0  0  0  0  0  0  0  0  0  0
   -1.6365    0.2062   -0.7315 C   0  0  0  0  0  0  0  0  0  0  0  0
   -1.6385   -1.8063    1.3207 H   0  0  0  0  0  0  0  0  0  0  0  0
   -2.1043   -0.0799    1.7797 H   0  0  0  0  0  0  0  0  0  0  0  0
   -0.5091   -0.7795    2.3562 H   0  0  0  0  0  0  0  0  0  0  0  0
   -0.1615   -1.8327   -1.1335 H   0  0  0  0  0  0  0  0  0  0  0  0
    0.5057   -2.1285    0.4924 H   0  0  0  0  0  0  0  0  0  0  0  0
    1.6119   -0.6374   -1.8661 H   0  0  0  0  0  0  0  0  0  0  0  0
    2.3915   -1.6347   -0.6212 H   0  0  0  0  0  0  0  0  0  0  0  0
    3.2209    0.5004    0.1515 H   0  0  0  0  0  0  0  0  0  0  0  0
    1.6981    2.0834    1.1177 H   0  0  0  0  0  0  0  0  0  0  0  0
   -0.7460    1.6525    1.1072 H   0  0  0  0  0  0  0  0  0  0  0  0
    0.0545    1.1783   -1.8106 H   0  0  0  0  0  0  0  0  0  0  0  0
   -1.1286    2.3445   -1.0891 H   0  0  0  0  0  0  0  0  0  0  0  0
   -1.8324   -0.4538   -1.5810 H   0  0  0  0  0  0  0  0  0  0  0  0
   -2.5321    0.5718   -0.1978 H   0  0  0  0  0  0  0  0  0  0  0  0
  1  2  1  0
  2  3  1  0
  3  4  1  0
  4  5  1  0
  5  6  2  0
  6  7  1  0
  7  8  1  0
  8  9  1  0
  7  2  1  0
  9  2  1  0
  1 10  1  0
  1 11  1  0
  1 12  1  0
  3 13  1  0
  3 14  1  0
  4 15  1  0
  4 16  1  0
  5 17  1  0
  6 18  1  0
  7 19  1  0
  8 20  1  0
  8 21  1  0
  9 22  1  0
  9 23  1  0
M  END
