
     RDKit          3D

 19 20  0  0  0  0  0  0  0  0999 V2000
   -2.1136   -0.6931   -0.2181 C   0  0  0  0  0  0  0  0  0  0  0  0
   -0.7568   -0.2782    0.0987 C   0  0  0  0  0  0  0  0  0  0  0  0
    0.2710   -0.5563   -1.0141 C   0  0  0  0  0  0  0  0  0  0  0  0
    1.4360    0.0637   -0.2229 C   0  0  0  0  0  0  0  0  0  0  0  0
    1.2177   -0.6267    1.0955 C   0  0  0  0  0  0  0  0  0  0  0  0
   -0.1467   -0.9401    1.1606 O   0  0  0  0  0  0  0  0  0  0  0  0
    0.8895    1.4726   -0.0809 C   0  0  0  0  0  0  0  0  0  0  0  0
   -0.5292    1.1798    0.2710 C   0  0  0  0  0  0  0  0  0  0  0  0
   -1.3483    1.9989    0.6343 O   0  0  0  0  0  0  0  0  0  0  0  0
   -2.8156    0.1860   -0.1737 H   0  0  0  0  0  0  0  0  0  0  0  0
   -2.2424   -1.2696   -1.1536 H   0  0  0  0  0  0  0  0  0  0  0  0
   -2.4950   -1.3768    0.5972 H   0  0  0  0  0  0  0  0  0  0  0  0
    0.1167    0.0772   -1.8810 H   0  0  0  0  0  0  0  0  0  0  0  0
    0.4093   -1.6151   -1.1946 H   0  0  0  0  0  0  0  0  0  0  0  0
    2.3886   -0.0339   -0.6814 H   0  0  0  0  0  0  0  0  0  0  0  0
    1.8399   -1.5507    1.1186 H   0  0  0  0  0  0  0  0  0  0  0  0
    1.5345   -0.0133    1.9507 H   0  0  0  0  0  0  0  0  0  0  0  0
    0.9435    1.9741   -1.0490 H   0  0  0  0  0  0  0  0  0  0  0  0
    1.4011    2.0016    0.7429 H   0  0  0  0  0  0  0  0  0  0  0  0
  1  2  1  0
  2  3  1  0
  3  4  1  0
  4  5  1  0
  5  6  1  0
  4  7  1  0
  7  8  1  0
  8  9  2  0
  6  2  1  0
  8  2  1  0
  1 10  1  0
  1 11  1  0
  1 12  1  0
  3 13  1  0
  3 14  1  0
  4 15  1  0
  5 16  1  0
  5 17  1  0
  7 18  1  0
  7 19  1  0
M  END
