
     RDKit          3D

 19 21  0  0  0  0  0  0  0  0999 V2000
   -2.1403   -0.8627    0.2555 C   0  0  0  0  0  0  0  0  0  0  0  0
   -0.7962   -0.2298   -0.0548 C   0  0  0  0  0  0  0  0  0  0  0  0
   -0.9040    1.1443   -0.6384 C   0  0  0  0  0  0  0  0  0  0  0  0
   -0.0304    1.6818    0.2721 O   0  0  0  0  0  0  0  0  0  0  0  0
   -0.2214    0.5857    1.0882 C   0  0  0  0  0  0  0  0  0  0  0  0
    0.3923   -0.6860    0.6901 C   0  0  0  0  0  0  0  0  0  0  0  0
    1.7688   -0.6615    0.1379 C   0  0  0  0  0  0  0  0  0  0  0  0
    2.5234    0.4606   -0.3166 C   0  0  0  0  0  0  0  0  0  0  0  0
    1.8506   -0.4198   -1.3071 O   0  0  0  0  0  0  0  0  0  0  0  0
   -2.0558   -1.9776    0.2645 H   0  0  0  0  0  0  0  0  0  0  0  0
   -2.8938   -0.6132   -0.5173 H   0  0  0  0  0  0  0  0  0  0  0  0
   -2.5112   -0.5777    1.2577 H   0  0  0  0  0  0  0  0  0  0  0  0
   -0.5873    1.1623   -1.7047 H   0  0  0  0  0  0  0  0  0  0  0  0
   -1.9003    1.6373   -0.5582 H   0  0  0  0  0  0  0  0  0  0  0  0
   -0.8205    0.6973    2.0148 H   0  0  0  0  0  0  0  0  0  0  0  0
    0.1870   -1.5573    1.3794 H   0  0  0  0  0  0  0  0  0  0  0  0
    2.3526   -1.6189    0.3060 H   0  0  0  0  0  0  0  0  0  0  0  0
    2.1432    1.4685   -0.4861 H   0  0  0  0  0  0  0  0  0  0  0  0
    3.6434    0.3668   -0.3691 H   0  0  0  0  0  0  0  0  0  0  0  0
  1  2  1  0
  2  3  1  0
  3  4  1  0
  4  5  1  0
  5  6  1  0
  6  7  1  0
  7  8  1  0
  8  9  1  0
  5  2  1  0
  9  7  1  0
  6  2  1  0
  1 10  1  0
  1 11  1  0
  1 12  1  0
  3 13  1  0
  3 14  1  0
  5 15  1  0
  6 16  1  0
  7 17  1  0
  8 18  1  0
  8 19  1  0
M  END
