
     RDKit          3D

 19 22  0  0  0  0  0  0  0  0999 V2000
    2.0703   -0.1624    0.3424 C   0  0  0  0  0  0  0  0  0  0  0  0
    0.6285   -0.0874    0.1292 C   0  0  0  0  0  0  0  0  0  0  0  0
   -0.0339   -0.8703   -0.9295 C   0  0  0  0  0  0  0  0  0  0  0  0
   -1.4481   -0.9056   -0.5918 C   0  0  0  0  0  0  0  0  0  0  0  0
   -1.5106   -0.6646    0.9025 C   0  0  0  0  0  0  0  0  0  0  0  0
   -0.3775    0.2991    1.1129 C   0  0  0  0  0  0  0  0  0  0  0  0
   -0.1961    1.0589   -0.1152 C   0  0  0  0  0  0  0  0  0  0  0  0
    0.1738    2.3584   -0.1977 O   0  0  0  0  0  0  0  0  0  0  0  0
   -0.9751    0.3498   -1.1551 C   0  0  0  0  0  0  0  0  0  0  0  0
    2.6023   -0.2336   -0.6517 H   0  0  0  0  0  0  0  0  0  0  0  0
    2.5229    0.6050    0.9607 H   0  0  0  0  0  0  0  0  0  0  0  0
    2.3126   -1.1500    0.8370 H   0  0  0  0  0  0  0  0  0  0  0  0
    0.4304   -1.2131   -1.8380 H   0  0  0  0  0  0  0  0  0  0  0  0
   -2.1169   -1.6015   -1.0750 H   0  0  0  0  0  0  0  0  0  0  0  0
   -1.4201   -1.5910    1.4915 H   0  0  0  0  0  0  0  0  0  0  0  0
   -2.4846   -0.2034    1.2062 H   0  0  0  0  0  0  0  0  0  0  0  0
   -0.1758    0.7598    2.0708 H   0  0  0  0  0  0  0  0  0  0  0  0
    1.1147    2.5459   -0.3366 H   0  0  0  0  0  0  0  0  0  0  0  0
   -1.1166    0.7060   -2.1628 H   0  0  0  0  0  0  0  0  0  0  0  0
  1  2  1  0
  2  3  1  0
  3  4  1  0
  4  5  1  0
  5  6  1  0
  6  7  1  0
  7  8  1  0
  7  9  1  0
  6  2  1  0
  7  2  1  0
  9  3  1  0
  9  4  1  0
  1 10  1  0
  1 11  1  0
  1 12  1  0
  3 13  1  0
  4 14  1  0
  5 15  1  0
  5 16  1  0
  6 17  1  0
  8 18  1  0
  9 19  1  0
M  END
