
     RDKit          3D

 18 20  0  0  0  0  0  0  0  0999 V2000
   -1.8918   -0.6441    0.6603 C   0  0  0  0  0  0  0  0  0  0  0  0
   -0.9504    0.4353    0.2802 C   0  0  0  0  0  0  0  0  0  0  0  0
   -1.0695    1.1919   -0.9980 C   0  0  0  0  0  0  0  0  0  0  0  0
   -0.0829    0.0990   -0.9684 C   0  0  0  0  0  0  0  0  0  0  0  0
    1.1116    0.2468   -0.0496 C   0  0  0  0  0  0  0  0  0  0  0  0
    2.2941   -0.6548   -0.2132 C   0  0  0  0  0  0  0  0  0  0  0  0
    1.2698    1.4969    0.4945 O   0  0  0  0  0  0  0  0  0  0  0  0
    0.3464    0.5439    1.0375 C   0  0  0  0  0  0  0  0  0  0  0  0
   -2.3261   -0.4953    1.6592 H   0  0  0  0  0  0  0  0  0  0  0  0
   -2.6999   -0.7835   -0.0783 H   0  0  0  0  0  0  0  0  0  0  0  0
   -1.3352   -1.6263    0.6744 H   0  0  0  0  0  0  0  0  0  0  0  0
   -0.6545    2.2400   -0.9297 H   0  0  0  0  0  0  0  0  0  0  0  0
   -2.0191    1.0611   -1.5322 H   0  0  0  0  0  0  0  0  0  0  0  0
   -0.2413   -0.8604   -1.4508 H   0  0  0  0  0  0  0  0  0  0  0  0
    2.4281   -1.3239    0.6800 H   0  0  0  0  0  0  0  0  0  0  0  0
    3.2018    0.0107   -0.2942 H   0  0  0  0  0  0  0  0  0  0  0  0
    2.2145   -1.3337   -1.0799 H   0  0  0  0  0  0  0  0  0  0  0  0
    0.4043    0.3965    2.1080 H   0  0  0  0  0  0  0  0  0  0  0  0
  1  2  1  0
  2  3  1  0
  3  4  1  0
  4  5  1  0
  5  6  1  0
  5  7  1  0
  7  8  1  0
  4  2  1  0
  8  5  1  0
  8  2  1  0
  1  9  1  0
  1 10  1  0
  1 11  1  0
  3 12  1  0
  3 13  1  0
  4 14  1  0
  6 15  1  0
  6 16  1  0
  6 17  1  0
  8 18  1  0
M  END
