
     RDKit          3D

 19 21  0  0  0  0  0  0  0  0999 V2000
    2.2156    0.2362    0.2846 C   0  0  0  0  0  0  0  0  0  0  0  0
    0.7921   -0.0591    0.3295 C   0  0  0  0  0  0  0  0  0  0  0  0
    0.2166   -1.3876   -0.1591 C   0  0  0  0  0  0  0  0  0  0  0  0
   -1.2609   -1.0069    0.0246 C   0  0  0  0  0  0  0  0  0  0  0  0
   -1.2480   -0.5467    1.3146 O   0  0  0  0  0  0  0  0  0  0  0  0
   -0.1882    0.3950    1.3094 C   0  0  0  0  0  0  0  0  0  0  0  0
   -0.1747    1.0085   -0.0319 C   0  0  0  0  0  0  0  0  0  0  0  0
   -1.2835    0.2886   -0.7673 C   0  0  0  0  0  0  0  0  0  0  0  0
   -2.4881    0.9362   -0.7180 O   0  0  0  0  0  0  0  0  0  0  0  0
    2.5870    0.7535    1.2058 H   0  0  0  0  0  0  0  0  0  0  0  0
    2.4231    0.9317   -0.5822 H   0  0  0  0  0  0  0  0  0  0  0  0
    2.8408   -0.6688    0.0551 H   0  0  0  0  0  0  0  0  0  0  0  0
    0.3712   -1.5322   -1.2266 H   0  0  0  0  0  0  0  0  0  0  0  0
    0.4941   -2.2278    0.4793 H   0  0  0  0  0  0  0  0  0  0  0  0
   -1.9551   -1.7477   -0.2575 H   0  0  0  0  0  0  0  0  0  0  0  0
    0.0210    0.9595    2.2115 H   0  0  0  0  0  0  0  0  0  0  0  0
    0.0920    2.0264   -0.2519 H   0  0  0  0  0  0  0  0  0  0  0  0
   -0.9442    0.0259   -1.7945 H   0  0  0  0  0  0  0  0  0  0  0  0
   -2.5107    1.6153   -1.4255 H   0  0  0  0  0  0  0  0  0  0  0  0
  1  2  1  0
  2  3  1  0
  3  4  1  0
  4  5  1  0
  5  6  1  0
  6  7  1  0
  7  8  1  0
  8  9  1  0
  6  2  1  0
  7  2  1  0
  8  4  1  0
  1 10  1  0
  1 11  1  0
  1 12  1  0
  3 13  1  0
  3 14  1  0
  4 15  1  0
  6 16  1  0
  7 17  1  0
  8 18  1  0
  9 19  1  0
M  END
