
     RDKit          3D

 21 22  0  0  0  0  0  0  0  0999 V2000
   -1.0192    0.6087    1.2974 C   0  0  0  0  0  0  0  0  0  0  0  0
   -0.9276   -0.0960   -0.0616 C   0  0  0  0  0  0  0  0  0  0  0  0
   -0.3617    0.7825   -1.0946 C   0  0  0  0  0  0  0  0  0  0  0  0
    1.0039    1.2398   -0.5718 C   0  0  0  0  0  0  0  0  0  0  0  0
    1.5242    0.3514    0.5078 C   0  0  0  0  0  0  0  0  0  0  0  0
    1.0759   -0.8792    0.7255 C   0  0  0  0  0  0  0  0  0  0  0  0
    0.0337   -1.3426   -0.1473 C   0  0  0  0  0  0  0  0  0  0  0  0
    0.5805   -1.6158   -1.4297 O   0  0  0  0  0  0  0  0  0  0  0  0
   -1.3723   -1.4446   -0.0681 C   0  0  0  0  0  0  0  0  0  0  0  0
   -2.1155    0.7970    1.4653 H   0  0  0  0  0  0  0  0  0  0  0  0
   -0.4659    1.5396    1.3398 H   0  0  0  0  0  0  0  0  0  0  0  0
   -0.7288   -0.1152    2.0993 H   0  0  0  0  0  0  0  0  0  0  0  0
   -0.9464    1.6976   -1.2804 H   0  0  0  0  0  0  0  0  0  0  0  0
   -0.2031    0.2352   -2.0467 H   0  0  0  0  0  0  0  0  0  0  0  0
    0.9055    2.2517   -0.1408 H   0  0  0  0  0  0  0  0  0  0  0  0
    1.6754    1.3183   -1.4333 H   0  0  0  0  0  0  0  0  0  0  0  0
    2.3178    0.8026    1.1135 H   0  0  0  0  0  0  0  0  0  0  0  0
    1.5027   -1.4499    1.5203 H   0  0  0  0  0  0  0  0  0  0  0  0
    1.3326   -1.0456   -1.6562 H   0  0  0  0  0  0  0  0  0  0  0  0
   -1.8573   -1.8692    0.8344 H   0  0  0  0  0  0  0  0  0  0  0  0
   -1.9545   -1.7663   -0.9730 H   0  0  0  0  0  0  0  0  0  0  0  0
  1  2  1  0
  2  3  1  0
  3  4  1  0
  4  5  1  0
  5  6  2  0
  6  7  1  0
  7  8  1  0
  7  9  1  0
  7  2  1  0
  9  2  1  0
  1 10  1  0
  1 11  1  0
  1 12  1  0
  3 13  1  0
  3 14  1  0
  4 15  1  0
  4 16  1  0
  5 17  1  0
  6 18  1  0
  8 19  1  0
  9 20  1  0
  9 21  1  0
M  END
