
     RDKit          3D

 19 22  0  0  0  0  0  0  0  0999 V2000
    2.3795    0.9626    0.0837 C   0  0  0  0  0  0  0  0  0  0  0  0
    1.2297    0.1112   -0.0973 C   0  0  0  0  0  0  0  0  0  0  0  0
    1.0691   -1.2242   -0.5330 C   0  0  0  0  0  0  0  0  0  0  0  0
   -0.1541   -1.3829    0.2987 C   0  0  0  0  0  0  0  0  0  0  0  0
    0.1207   -0.1003    0.8580 C   0  0  0  0  0  0  0  0  0  0  0  0
   -0.8009   -0.3090   -0.3663 C   0  0  0  0  0  0  0  0  0  0  0  0
   -2.0782    0.3291   -0.2720 C   0  0  0  0  0  0  0  0  0  0  0  0
   -3.1675   -0.5283   -0.5115 O   0  0  0  0  0  0  0  0  0  0  0  0
    0.3400   -0.0149   -1.2080 C   0  0  0  0  0  0  0  0  0  0  0  0
    2.5343    1.6123   -0.8171 H   0  0  0  0  0  0  0  0  0  0  0  0
    3.3547    0.4908    0.2978 H   0  0  0  0  0  0  0  0  0  0  0  0
    2.2002    1.6913    0.9215 H   0  0  0  0  0  0  0  0  0  0  0  0
    1.5778   -1.9238   -1.1070 H   0  0  0  0  0  0  0  0  0  0  0  0
   -0.5057   -2.2871    0.7265 H   0  0  0  0  0  0  0  0  0  0  0  0
   -0.1694    0.4419    1.6909 H   0  0  0  0  0  0  0  0  0  0  0  0
   -2.1697    1.1545   -1.0398 H   0  0  0  0  0  0  0  0  0  0  0  0
   -2.2618    0.7938    0.7165 H   0  0  0  0  0  0  0  0  0  0  0  0
   -3.9304    0.0448   -0.7763 H   0  0  0  0  0  0  0  0  0  0  0  0
    0.4318    0.1384   -2.2417 H   0  0  0  0  0  0  0  0  0  0  0  0
  1  2  1  0
  2  3  1  0
  3  4  1  0
  4  5  1  0
  5  6  1  0
  6  7  1  0
  7  8  1  0
  6  9  1  0
  5  2  1  0
  9  2  1  0
  9  3  1  0
  6  4  1  0
  1 10  1  0
  1 11  1  0
  1 12  1  0
  3 13  1  0
  4 14  1  0
  5 15  1  0
  7 16  1  0
  7 17  1  0
  8 18  1  0
  9 19  1  0
M  END
