
     RDKit          3D

 19 22  0  0  0  0  0  0  0  0999 V2000
    1.8734   -0.4368   -0.6765 C   0  0  0  0  0  0  0  0  0  0  0  0
    0.6250    0.0827   -0.1479 C   0  0  0  0  0  0  0  0  0  0  0  0
    0.3784    1.5663   -0.1217 C   0  0  0  0  0  0  0  0  0  0  0  0
   -0.9674    1.7784    0.0118 O   0  0  0  0  0  0  0  0  0  0  0  0
   -1.6480    0.5916   -0.1281 C   0  0  0  0  0  0  0  0  0  0  0  0
   -1.4058   -0.2515    1.1405 C   0  0  0  0  0  0  0  0  0  0  0  0
   -0.8710   -1.2941    0.3400 C   0  0  0  0  0  0  0  0  0  0  0  0
   -0.6805   -0.3597   -0.7803 C   0  0  0  0  0  0  0  0  0  0  0  0
    0.0696   -0.5344    1.1359 C   0  0  0  0  0  0  0  0  0  0  0  0
    2.7042    0.2979   -0.4729 H   0  0  0  0  0  0  0  0  0  0  0  0
    1.8559   -0.7425   -1.7341 H   0  0  0  0  0  0  0  0  0  0  0  0
    2.1677   -1.3632   -0.1003 H   0  0  0  0  0  0  0  0  0  0  0  0
    1.0065    1.9986    0.6651 H   0  0  0  0  0  0  0  0  0  0  0  0
    0.6890    2.0198   -1.1020 H   0  0  0  0  0  0  0  0  0  0  0  0
   -2.6630    0.6114   -0.4842 H   0  0  0  0  0  0  0  0  0  0  0  0
   -2.0295   -0.2082    1.9830 H   0  0  0  0  0  0  0  0  0  0  0  0
   -1.0239   -2.3408    0.2991 H   0  0  0  0  0  0  0  0  0  0  0  0
   -0.7374   -0.6095   -1.7910 H   0  0  0  0  0  0  0  0  0  0  0  0
    0.6570   -0.8060    1.9636 H   0  0  0  0  0  0  0  0  0  0  0  0
  1  2  1  0
  2  3  1  0
  3  4  1  0
  4  5  1  0
  5  6  1  0
  6  7  1  0
  7  8  1  0
  7  9  1  0
  8  2  1  0
  9  2  1  0
  8  5  1  0
  9  6  1  0
  1 10  1  0
  1 11  1  0
  1 12  1  0
  3 13  1  0
  3 14  1  0
  5 15  1  0
  6 16  1  0
  7 17  1  0
  8 18  1  0
  9 19  1  0
M  END
