
     RDKit          3D

 17 18  0  0  0  0  0  0  0  0999 V2000
    1.8540    0.5706   -0.2913 C   0  0  0  0  0  0  0  0  0  0  0  0
    0.5499   -0.0180   -0.1301 C   0  0  0  0  0  0  0  0  0  0  0  0
   -0.1220   -0.5188   -1.2687 O   0  0  0  0  0  0  0  0  0  0  0  0
   -0.8627   -1.2804   -0.3342 C   0  0  0  0  0  0  0  0  0  0  0  0
   -1.6707   -0.2507    0.4170 C   0  0  0  0  0  0  0  0  0  0  0  0
   -0.5742    0.8328    0.4754 C   0  0  0  0  0  0  0  0  0  0  0  0
   -0.8305    1.8442   -0.4208 O   0  0  0  0  0  0  0  0  0  0  0  0
    0.3862   -1.3601    0.4579 C   0  0  0  0  0  0  0  0  0  0  0  0
    0.9485   -2.1442    1.1972 O   0  0  0  0  0  0  0  0  0  0  0  0
    2.2037    0.5803   -1.3454 H   0  0  0  0  0  0  0  0  0  0  0  0
    1.9880    1.6076    0.1300 H   0  0  0  0  0  0  0  0  0  0  0  0
    2.6287   -0.0404    0.2594 H   0  0  0  0  0  0  0  0  0  0  0  0
   -1.3300   -2.1692   -0.6790 H   0  0  0  0  0  0  0  0  0  0  0  0
   -1.8894   -0.6213    1.4516 H   0  0  0  0  0  0  0  0  0  0  0  0
   -2.5479    0.1083   -0.1112 H   0  0  0  0  0  0  0  0  0  0  0  0
   -0.3606    1.1442    1.4921 H   0  0  0  0  0  0  0  0  0  0  0  0
   -0.3709    1.7151   -1.3001 H   0  0  0  0  0  0  0  0  0  0  0  0
  1  2  1  0
  2  3  1  0
  3  4  1  0
  4  5  1  0
  5  6  1  0
  6  7  1  0
  4  8  1  0
  8  9  2  0
  6  2  1  0
  8  2  1  0
  1 10  1  0
  1 11  1  0
  1 12  1  0
  4 13  1  0
  5 14  1  0
  5 15  1  0
  6 16  1  0
  7 17  1  0
M  END
