
     RDKit          3D

 14 15  0  0  0  0  0  0  0  0999 V2000
   -1.6379    0.2200   -0.3182 C   0  0  0  0  0  0  0  0  0  0  0  0
   -0.2866    0.2777   -0.0487 C   0  0  0  0  0  0  0  0  0  0  0  0
    0.8299   -0.2272   -0.9047 C   0  0  0  0  0  0  0  0  0  0  0  0
    1.4319    0.4099    0.3064 C   0  0  0  0  0  0  0  0  0  0  0  0
    0.4230   -0.3187    1.1287 C   0  0  0  0  0  0  0  0  0  0  0  0
    0.4798    1.4120    0.1654 O   0  0  0  0  0  0  0  0  0  0  0  0
   -1.8611    0.1997   -1.4255 H   0  0  0  0  0  0  0  0  0  0  0  0
   -2.2106    1.1228    0.0459 H   0  0  0  0  0  0  0  0  0  0  0  0
   -2.1684   -0.6470    0.1234 H   0  0  0  0  0  0  0  0  0  0  0  0
    1.0047    0.3041   -1.8517 H   0  0  0  0  0  0  0  0  0  0  0  0
    0.9125   -1.3250   -0.9698 H   0  0  0  0  0  0  0  0  0  0  0  0
    2.4112    0.5381    0.5058 H   0  0  0  0  0  0  0  0  0  0  0  0
    0.1848    0.2333    2.0530 H   0  0  0  0  0  0  0  0  0  0  0  0
    0.4868   -1.4010    1.1901 H   0  0  0  0  0  0  0  0  0  0  0  0
  1  2  1  0
  2  3  1  0
  3  4  1  0
  4  5  1  0
  4  6  1  0
  5  2  1  0
  6  2  1  0
  1  7  1  0
  1  8  1  0
  1  9  1  0
  3 10  1  0
  3 11  1  0
  4 12  1  0
  5 13  1  0
  5 14  1  0
M  END
