
     RDKit          3D

 19 20  0  0  0  0  0  0  0  0999 V2000
   -1.5524   -0.9170   -1.1165 C   0  0  0  0  0  0  0  0  0  0  0  0
   -0.4408   -0.3639   -0.2568 C   0  0  0  0  0  0  0  0  0  0  0  0
    0.9313   -0.4849   -0.8764 C   0  0  0  0  0  0  0  0  0  0  0  0
    1.9886   -0.1962    0.1419 C   0  0  0  0  0  0  0  0  0  0  0  0
    2.9642   -0.9591    0.3239 O   0  0  0  0  0  0  0  0  0  0  0  0
    1.8028    0.9874    0.8713 O   0  0  0  0  0  0  0  0  0  0  0  0
    0.6144    1.6962    0.7210 C   0  0  0  0  0  0  0  0  0  0  0  0
   -0.5993    0.8106    0.5892 C   0  0  0  0  0  0  0  0  0  0  0  0
   -0.6369   -0.5197    1.2067 C   0  0  0  0  0  0  0  0  0  0  0  0
   -1.8882   -0.1980   -1.8951 H   0  0  0  0  0  0  0  0  0  0  0  0
   -2.4089   -1.2844   -0.5025 H   0  0  0  0  0  0  0  0  0  0  0  0
   -1.1398   -1.8294   -1.6204 H   0  0  0  0  0  0  0  0  0  0  0  0
    1.0181    0.3283   -1.6347 H   0  0  0  0  0  0  0  0  0  0  0  0
    1.1225   -1.4464   -1.3519 H   0  0  0  0  0  0  0  0  0  0  0  0
    0.4647    2.3137    1.6538 H   0  0  0  0  0  0  0  0  0  0  0  0
    0.7010    2.4354   -0.1046 H   0  0  0  0  0  0  0  0  0  0  0  0
   -1.5500    1.4014    0.5043 H   0  0  0  0  0  0  0  0  0  0  0  0
   -1.6178   -0.8822    1.5722 H   0  0  0  0  0  0  0  0  0  0  0  0
    0.2265   -0.8918    1.7747 H   0  0  0  0  0  0  0  0  0  0  0  0
  1  2  1  0
  2  3  1  0
  3  4  1  0
  4  5  2  0
  4  6  1  0
  6  7  1  0
  7  8  1  0
  8  9  1  0
  8  2  1  0
  9  2  1  0
  1 10  1  0
  1 11  1  0
  1 12  1  0
  3 13  1  0
  3 14  1  0
  7 15  1  0
  7 16  1  0
  8 17  1  0
  9 18  1  0
  9 19  1  0
M  END
