
     RDKit          3D

 19 20  0  0  0  0  0  0  0  0999 V2000
   -0.7813    1.7472   -0.4784 C   0  0  0  0  0  0  0  0  0  0  0  0
   -0.6847    0.3193   -0.3284 C   0  0  0  0  0  0  0  0  0  0  0  0
   -1.6957   -0.4210    0.5312 C   0  0  0  0  0  0  0  0  0  0  0  0
   -1.1902   -1.5037   -0.3674 C   0  0  0  0  0  0  0  0  0  0  0  0
    0.2802   -1.6230   -0.0550 C   0  0  0  0  0  0  0  0  0  0  0  0
    0.6296   -0.3222   -0.0447 C   0  0  0  0  0  0  0  0  0  0  0  0
    1.9138    0.3511    0.1748 C   0  0  0  0  0  0  0  0  0  0  0  0
    2.9389   -0.5359    0.4132 O   0  0  0  0  0  0  0  0  0  0  0  0
   -1.1438   -0.5144   -1.3776 O   0  0  0  0  0  0  0  0  0  0  0  0
   -1.7595    2.1336   -0.1270 H   0  0  0  0  0  0  0  0  0  0  0  0
   -0.6670    2.0514   -1.5452 H   0  0  0  0  0  0  0  0  0  0  0  0
    0.0046    2.2737    0.0940 H   0  0  0  0  0  0  0  0  0  0  0  0
   -1.4391   -0.4996    1.5928 H   0  0  0  0  0  0  0  0  0  0  0  0
   -2.7054   -0.0872    0.2703 H   0  0  0  0  0  0  0  0  0  0  0  0
   -1.7439   -2.3818   -0.5460 H   0  0  0  0  0  0  0  0  0  0  0  0
    0.8618   -2.5112    0.1090 H   0  0  0  0  0  0  0  0  0  0  0  0
    2.2308    0.9775   -0.7062 H   0  0  0  0  0  0  0  0  0  0  0  0
    1.8027    1.0665    1.0199 H   0  0  0  0  0  0  0  0  0  0  0  0
    3.1480   -0.5205    1.3705 H   0  0  0  0  0  0  0  0  0  0  0  0
  1  2  1  0
  2  3  1  0
  3  4  1  0
  4  5  1  0
  5  6  2  0
  6  7  1  0
  7  8  1  0
  4  9  1  0
  6  2  1  0
  9  2  1  0
  1 10  1  0
  1 11  1  0
  1 12  1  0
  3 13  1  0
  3 14  1  0
  4 15  1  0
  5 16  1  0
  7 17  1  0
  7 18  1  0
  8 19  1  0
M  END
