
     RDKit          3D

 19 20  0  0  0  0  0  0  0  0999 V2000
   -2.0780   -0.4455   -0.2464 C   0  0  0  0  0  0  0  0  0  0  0  0
   -0.6673   -0.0598   -0.0569 C   0  0  0  0  0  0  0  0  0  0  0  0
    0.2860   -0.3814   -1.2048 C   0  0  0  0  0  0  0  0  0  0  0  0
    1.3438   -0.5900   -0.1234 C   0  0  0  0  0  0  0  0  0  0  0  0
    1.8993    0.7145    0.2543 C   0  0  0  0  0  0  0  0  0  0  0  0
    1.0105    1.6528    0.6120 C   0  0  0  0  0  0  0  0  0  0  0  0
   -0.3897    1.2889    0.4858 C   0  0  0  0  0  0  0  0  0  0  0  0
   -1.3355    2.0290    0.8004 O   0  0  0  0  0  0  0  0  0  0  0  0
    0.1883   -1.0101    0.7807 C   0  0  0  0  0  0  0  0  0  0  0  0
   -2.2011   -0.8416   -1.2945 H   0  0  0  0  0  0  0  0  0  0  0  0
   -2.3936   -1.2565    0.4355 H   0  0  0  0  0  0  0  0  0  0  0  0
   -2.7495    0.4287   -0.1635 H   0  0  0  0  0  0  0  0  0  0  0  0
    0.4874    0.4598   -1.8838 H   0  0  0  0  0  0  0  0  0  0  0  0
    0.0081   -1.3405   -1.6596 H   0  0  0  0  0  0  0  0  0  0  0  0
    2.0528   -1.3880   -0.3668 H   0  0  0  0  0  0  0  0  0  0  0  0
    2.9629    0.8631    0.2305 H   0  0  0  0  0  0  0  0  0  0  0  0
    1.3528    2.6088    0.9674 H   0  0  0  0  0  0  0  0  0  0  0  0
   -0.1072   -2.0477    0.6091 H   0  0  0  0  0  0  0  0  0  0  0  0
    0.3299   -0.6843    1.8242 H   0  0  0  0  0  0  0  0  0  0  0  0
  1  2  1  0
  2  3  1  0
  3  4  1  0
  4  5  1  0
  5  6  2  0
  6  7  1  0
  7  8  2  0
  4  9  1  0
  7  2  1  0
  9  2  1  0
  1 10  1  0
  1 11  1  0
  1 12  1  0
  3 13  1  0
  3 14  1  0
  4 15  1  0
  5 16  1  0
  6 17  1  0
  9 18  1  0
  9 19  1  0
M  END
