
     RDKit          3D

 19 20  0  0  0  0  0  0  0  0999 V2000
   -0.8066    1.8881    0.2170 C   0  0  0  0  0  0  0  0  0  0  0  0
   -0.5667    0.5312   -0.3993 C   0  0  0  0  0  0  0  0  0  0  0  0
   -1.2115    0.2638   -1.5864 O   0  0  0  0  0  0  0  0  0  0  0  0
   -1.7357   -0.3774   -0.4327 C   0  0  0  0  0  0  0  0  0  0  0  0
   -1.2394   -1.7748   -0.2786 C   0  0  0  0  0  0  0  0  0  0  0  0
    0.1745   -1.5744    0.1465 C   0  0  0  0  0  0  0  0  0  0  0  0
    0.5449   -0.3068    0.0803 C   0  0  0  0  0  0  0  0  0  0  0  0
    1.9272    0.1540    0.4572 C   0  0  0  0  0  0  0  0  0  0  0  0
    2.5586    0.7640   -0.6259 O   0  0  0  0  0  0  0  0  0  0  0  0
   -1.6942    2.3239   -0.2408 H   0  0  0  0  0  0  0  0  0  0  0  0
    0.0321    2.5790    0.0989 H   0  0  0  0  0  0  0  0  0  0  0  0
   -1.0650    1.6984    1.2933 H   0  0  0  0  0  0  0  0  0  0  0  0
   -2.7279   -0.0671   -0.0736 H   0  0  0  0  0  0  0  0  0  0  0  0
   -1.7905   -2.3403    0.5088 H   0  0  0  0  0  0  0  0  0  0  0  0
   -1.2375   -2.2919   -1.2573 H   0  0  0  0  0  0  0  0  0  0  0  0
    0.8545   -2.3895    0.4840 H   0  0  0  0  0  0  0  0  0  0  0  0
    1.8813    0.8892    1.2836 H   0  0  0  0  0  0  0  0  0  0  0  0
    2.5745   -0.6832    0.7831 H   0  0  0  0  0  0  0  0  0  0  0  0
    3.5275    0.7139   -0.4579 H   0  0  0  0  0  0  0  0  0  0  0  0
  1  2  1  0
  2  3  1  0
  3  4  1  0
  4  5  1  0
  5  6  1  0
  6  7  2  0
  7  8  1  0
  8  9  1  0
  4  2  1  0
  7  2  1  0
  1 10  1  0
  1 11  1  0
  1 12  1  0
  4 13  1  0
  5 14  1  0
  5 15  1  0
  6 16  1  0
  8 17  1  0
  8 18  1  0
  9 19  1  0
M  END
