
     RDKit          3D

 18 19  0  0  0  0  0  0  0  0999 V2000
   -1.6554   -1.1325   -0.2979 C   0  0  0  0  0  0  0  0  0  0  0  0
   -0.8168    0.1045   -0.3751 C   0  0  0  0  0  0  0  0  0  0  0  0
   -1.0365    1.2435    0.5823 C   0  0  0  0  0  0  0  0  0  0  0  0
    0.4697    1.5202    0.4836 C   0  0  0  0  0  0  0  0  0  0  0  0
    0.5564    0.2395   -0.3076 C   0  0  0  0  0  0  0  0  0  0  0  0
    1.4728   -0.8577    0.0947 C   0  0  0  0  0  0  0  0  0  0  0  0
    2.5706   -1.0267   -0.7269 O   0  0  0  0  0  0  0  0  0  0  0  0
   -0.0807    0.2668   -1.5199 O   0  0  0  0  0  0  0  0  0  0  0  0
   -2.5838   -1.0626   -0.9038 H   0  0  0  0  0  0  0  0  0  0  0  0
   -1.0587   -1.9602   -0.7703 H   0  0  0  0  0  0  0  0  0  0  0  0
   -1.8686   -1.4609    0.7347 H   0  0  0  0  0  0  0  0  0  0  0  0
   -1.6782    2.0450    0.2231 H   0  0  0  0  0  0  0  0  0  0  0  0
   -1.2426    0.8937    1.6219 H   0  0  0  0  0  0  0  0  0  0  0  0
    0.9979    1.5594    1.4307 H   0  0  0  0  0  0  0  0  0  0  0  0
    0.6019    2.4017   -0.1953 H   0  0  0  0  0  0  0  0  0  0  0  0
    1.7469   -0.7127    1.1580 H   0  0  0  0  0  0  0  0  0  0  0  0
    0.8723   -1.8154    0.0809 H   0  0  0  0  0  0  0  0  0  0  0  0
    2.7328   -0.2457   -1.3131 H   0  0  0  0  0  0  0  0  0  0  0  0
  1  2  1  0
  2  3  1  0
  3  4  1  0
  4  5  1  0
  5  6  1  0
  6  7  1  0
  5  8  1  0
  5  2  1  0
  8  2  1  0
  1  9  1  0
  1 10  1  0
  1 11  1  0
  3 12  1  0
  3 13  1  0
  4 14  1  0
  4 15  1  0
  6 16  1  0
  6 17  1  0
  7 18  1  0
M  END
