
     RDKit          3D

 21 22  0  0  0  0  0  0  0  0999 V2000
    2.2294   -0.3089    0.3388 C   0  0  0  0  0  0  0  0  0  0  0  0
    0.8043    0.0496    0.0799 C   0  0  0  0  0  0  0  0  0  0  0  0
    0.0011   -1.1877   -0.2037 C   0  0  0  0  0  0  0  0  0  0  0  0
   -1.4198   -1.0940    0.2925 C   0  0  0  0  0  0  0  0  0  0  0  0
   -1.9884    0.2941    0.1962 C   0  0  0  0  0  0  0  0  0  0  0  0
   -0.8920    1.3290    0.4495 C   0  0  0  0  0  0  0  0  0  0  0  0
   -0.4230    1.7237   -0.7921 O   0  0  0  0  0  0  0  0  0  0  0  0
    0.7534    1.0574   -1.0426 C   0  0  0  0  0  0  0  0  0  0  0  0
    0.1990    0.7301    1.1145 O   0  0  0  0  0  0  0  0  0  0  0  0
    2.6031   -0.8670   -0.5487 H   0  0  0  0  0  0  0  0  0  0  0  0
    2.8763    0.5607    0.5030 H   0  0  0  0  0  0  0  0  0  0  0  0
    2.3300   -0.9721    1.2114 H   0  0  0  0  0  0  0  0  0  0  0  0
    0.4801   -2.0179    0.3888 H   0  0  0  0  0  0  0  0  0  0  0  0
    0.0294   -1.5118   -1.2501 H   0  0  0  0  0  0  0  0  0  0  0  0
   -2.0505   -1.8001   -0.3040 H   0  0  0  0  0  0  0  0  0  0  0  0
   -1.4979   -1.4138    1.3437 H   0  0  0  0  0  0  0  0  0  0  0  0
   -2.7969    0.4457    0.9484 H   0  0  0  0  0  0  0  0  0  0  0  0
   -2.4111    0.4038   -0.8358 H   0  0  0  0  0  0  0  0  0  0  0  0
   -1.2899    2.1716    1.0208 H   0  0  0  0  0  0  0  0  0  0  0  0
    0.8561    0.6333   -2.0366 H   0  0  0  0  0  0  0  0  0  0  0  0
    1.6074    1.7742   -0.8739 H   0  0  0  0  0  0  0  0  0  0  0  0
  1  2  1  0
  2  3  1  0
  3  4  1  0
  4  5  1  0
  5  6  1  0
  6  7  1  0
  7  8  1  0
  6  9  1  0
  8  2  1  0
  9  2  1  0
  1 10  1  0
  1 11  1  0
  1 12  1  0
  3 13  1  0
  3 14  1  0
  4 15  1  0
  4 16  1  0
  5 17  1  0
  5 18  1  0
  6 19  1  0
  8 20  1  0
  8 21  1  0
M  END
