
     RDKit          3D

 21 23  0  0  0  0  0  0  0  0999 V2000
    0.0535    1.9599   -0.7269 C   0  0  0  0  0  0  0  0  0  0  0  0
   -0.1471    0.4854   -0.5375 C   0  0  0  0  0  0  0  0  0  0  0  0
   -1.3207    0.0457   -1.1130 O   0  0  0  0  0  0  0  0  0  0  0  0
   -1.6505   -1.1073   -0.4077 C   0  0  0  0  0  0  0  0  0  0  0  0
   -1.5061   -0.6042    1.0352 C   0  0  0  0  0  0  0  0  0  0  0  0
   -0.1817    0.1345    0.9216 C   0  0  0  0  0  0  0  0  0  0  0  0
    1.0038   -0.7519    0.7104 C   0  0  0  0  0  0  0  0  0  0  0  0
    2.2441   -0.1521    0.1063 C   0  0  0  0  0  0  0  0  0  0  0  0
    1.0518   -0.3869   -0.7460 C   0  0  0  0  0  0  0  0  0  0  0  0
    1.0586    2.2949   -0.4213 H   0  0  0  0  0  0  0  0  0  0  0  0
   -0.0604    2.2201   -1.8049 H   0  0  0  0  0  0  0  0  0  0  0  0
   -0.7588    2.4777   -0.1674 H   0  0  0  0  0  0  0  0  0  0  0  0
   -2.6532   -1.4845   -0.6075 H   0  0  0  0  0  0  0  0  0  0  0  0
   -0.8839   -1.8895   -0.6201 H   0  0  0  0  0  0  0  0  0  0  0  0
   -2.3149    0.1338    1.1714 H   0  0  0  0  0  0  0  0  0  0  0  0
   -1.4910   -1.4158    1.7584 H   0  0  0  0  0  0  0  0  0  0  0  0
   -0.0397    0.9663    1.6204 H   0  0  0  0  0  0  0  0  0  0  0  0
    1.0056   -1.8034    1.0204 H   0  0  0  0  0  0  0  0  0  0  0  0
    2.4830    0.9227    0.2820 H   0  0  0  0  0  0  0  0  0  0  0  0
    3.0897   -0.8693    0.0367 H   0  0  0  0  0  0  0  0  0  0  0  0
    1.0179   -1.1763   -1.5105 H   0  0  0  0  0  0  0  0  0  0  0  0
  1  2  1  0
  2  3  1  0
  3  4  1  0
  4  5  1  0
  5  6  1  0
  6  7  1  0
  7  8  1  0
  8  9  1  0
  6  2  1  0
  9  7  1  0
  9  2  1  0
  1 10  1  0
  1 11  1  0
  1 12  1  0
  4 13  1  0
  4 14  1  0
  5 15  1  0
  5 16  1  0
  6 17  1  0
  7 18  1  0
  8 19  1  0
  8 20  1  0
  9 21  1  0
M  END
