
     RDKit          3D

 16 17  0  0  0  0  0  0  0  0999 V2000
   -1.7112   -0.4490    0.0088 C   0  0  0  0  0  0  0  0  0  0  0  0
   -0.3794    0.0623   -0.0809 C   0  0  0  0  0  0  0  0  0  0  0  0
    0.7496   -0.8596   -0.5695 C   0  0  0  0  0  0  0  0  0  0  0  0
    1.6055    0.1580    0.1518 C   0  0  0  0  0  0  0  0  0  0  0  0
    0.4756    0.2278    1.1586 C   0  0  0  0  0  0  0  0  0  0  0  0
    1.3640    1.3342   -0.6150 O   0  0  0  0  0  0  0  0  0  0  0  0
   -0.0377    1.2804   -0.8103 C   0  0  0  0  0  0  0  0  0  0  0  0
   -0.7805    2.0639   -1.4373 O   0  0  0  0  0  0  0  0  0  0  0  0
   -1.7120   -1.5579    0.0243 H   0  0  0  0  0  0  0  0  0  0  0  0
   -2.2100   -0.1273    0.9465 H   0  0  0  0  0  0  0  0  0  0  0  0
   -2.3334   -0.1167   -0.8418 H   0  0  0  0  0  0  0  0  0  0  0  0
    0.8660   -0.7595   -1.6653 H   0  0  0  0  0  0  0  0  0  0  0  0
    0.7249   -1.8640   -0.1533 H   0  0  0  0  0  0  0  0  0  0  0  0
    2.5793   -0.0837    0.4604 H   0  0  0  0  0  0  0  0  0  0  0  0
    0.4251   -0.5763    1.8917 H   0  0  0  0  0  0  0  0  0  0  0  0
    0.3742    1.2673    1.5312 H   0  0  0  0  0  0  0  0  0  0  0  0
  1  2  1  0
  2  3  1  0
  3  4  1  0
  4  5  1  0
  4  6  1  0
  6  7  1  0
  7  8  2  0
  5  2  1  0
  7  2  1  0
  1  9  1  0
  1 10  1  0
  1 11  1  0
  3 12  1  0
  3 13  1  0
  4 14  1  0
  5 15  1  0
  5 16  1  0
M  END
