
     RDKit          3D

 19 20  0  0  0  0  0  0  0  0999 V2000
   -1.0786   -1.5905    0.2708 C   0  0  0  0  0  0  0  0  0  0  0  0
   -0.3918   -0.4039   -0.3339 C   0  0  0  0  0  0  0  0  0  0  0  0
    0.9577   -0.5401   -0.9635 C   0  0  0  0  0  0  0  0  0  0  0  0
    1.4429    0.6413   -0.1615 C   0  0  0  0  0  0  0  0  0  0  0  0
    2.5403    0.3485    0.6307 O   0  0  0  0  0  0  0  0  0  0  0  0
    0.1148    0.6832    0.5230 C   0  0  0  0  0  0  0  0  0  0  0  0
   -0.0066    0.5814    1.8813 O   0  0  0  0  0  0  0  0  0  0  0  0
   -1.0609    0.9208   -0.3672 C   0  0  0  0  0  0  0  0  0  0  0  0
   -2.3164    1.0398    0.2111 O   0  0  0  0  0  0  0  0  0  0  0  0
   -1.6156   -2.1233   -0.5256 H   0  0  0  0  0  0  0  0  0  0  0  0
   -0.4074   -2.2904    0.7886 H   0  0  0  0  0  0  0  0  0  0  0  0
   -1.8225   -1.2301    1.0092 H   0  0  0  0  0  0  0  0  0  0  0  0
    0.9160   -0.4003   -2.0576 H   0  0  0  0  0  0  0  0  0  0  0  0
    1.4897   -1.4706   -0.7042 H   0  0  0  0  0  0  0  0  0  0  0  0
    1.5519    1.5197   -0.8357 H   0  0  0  0  0  0  0  0  0  0  0  0
    3.3073    0.2004    0.0043 H   0  0  0  0  0  0  0  0  0  0  0  0
    0.2502    1.4365    2.3352 H   0  0  0  0  0  0  0  0  0  0  0  0
   -0.8805    1.6516   -1.1768 H   0  0  0  0  0  0  0  0  0  0  0  0
   -2.9906    1.0259   -0.5283 H   0  0  0  0  0  0  0  0  0  0  0  0
  1  2  1  0
  2  3  1  0
  3  4  1  0
  4  5  1  0
  4  6  1  0
  6  7  1  0
  6  8  1  0
  8  9  1  0
  6  2  1  0
  8  2  1  0
  1 10  1  0
  1 11  1  0
  1 12  1  0
  3 13  1  0
  3 14  1  0
  4 15  1  0
  5 16  1  0
  7 17  1  0
  8 18  1  0
  9 19  1  0
M  END
