
     RDKit          3D

 21 23  0  0  0  0  0  0  0  0999 V2000
    2.3162    0.5206   -0.0754 C   0  0  0  0  0  0  0  0  0  0  0  0
    0.8496    0.1229   -0.0237 C   0  0  0  0  0  0  0  0  0  0  0  0
   -0.1026    1.2548   -0.0505 C   0  0  0  0  0  0  0  0  0  0  0  0
   -1.4177    0.9597    0.6659 C   0  0  0  0  0  0  0  0  0  0  0  0
   -1.6261   -0.5478    0.4652 C   0  0  0  0  0  0  0  0  0  0  0  0
   -1.1543   -0.9309   -0.9205 C   0  0  0  0  0  0  0  0  0  0  0  0
    0.3351   -1.0274   -0.7689 C   0  0  0  0  0  0  0  0  0  0  0  0
    0.5146   -1.0608    0.7248 C   0  0  0  0  0  0  0  0  0  0  0  0
   -0.7143   -1.1695    1.2923 O   0  0  0  0  0  0  0  0  0  0  0  0
    2.9561   -0.2410   -0.5208 H   0  0  0  0  0  0  0  0  0  0  0  0
    2.6355    0.6212    0.9958 H   0  0  0  0  0  0  0  0  0  0  0  0
    2.4512    1.5379   -0.5188 H   0  0  0  0  0  0  0  0  0  0  0  0
    0.3314    2.2192    0.3078 H   0  0  0  0  0  0  0  0  0  0  0  0
   -0.4027    1.4667   -1.1188 H   0  0  0  0  0  0  0  0  0  0  0  0
   -2.2610    1.4601    0.1853 H   0  0  0  0  0  0  0  0  0  0  0  0
   -1.2781    1.2052    1.7337 H   0  0  0  0  0  0  0  0  0  0  0  0
   -2.6639   -0.8336    0.6560 H   0  0  0  0  0  0  0  0  0  0  0  0
   -1.5598   -1.9303   -1.1683 H   0  0  0  0  0  0  0  0  0  0  0  0
   -1.4656   -0.2134   -1.6982 H   0  0  0  0  0  0  0  0  0  0  0  0
    0.9315   -1.7470   -1.3179 H   0  0  0  0  0  0  0  0  0  0  0  0
    1.3251   -1.6664    1.1550 H   0  0  0  0  0  0  0  0  0  0  0  0
  1  2  1  0
  2  3  1  0
  3  4  1  0
  4  5  1  0
  5  6  1  0
  6  7  1  0
  7  8  1  0
  8  9  1  0
  7  2  1  0
  8  2  1  0
  9  5  1  0
  1 10  1  0
  1 11  1  0
  1 12  1  0
  3 13  1  0
  3 14  1  0
  4 15  1  0
  4 16  1  0
  5 17  1  0
  6 18  1  0
  6 19  1  0
  7 20  1  0
  8 21  1  0
M  END
