
     RDKit          3D

 21 23  0  0  0  0  0  0  0  0999 V2000
   -1.2162   -1.5817    0.0332 C   0  0  0  0  0  0  0  0  0  0  0  0
   -0.3108   -0.4099   -0.0501 C   0  0  0  0  0  0  0  0  0  0  0  0
   -0.7082    0.5459   -1.1319 C   0  0  0  0  0  0  0  0  0  0  0  0
   -1.4805    1.3305   -0.0590 C   0  0  0  0  0  0  0  0  0  0  0  0
   -0.5290    0.6955    0.9527 C   0  0  0  0  0  0  0  0  0  0  0  0
    0.6703    1.3609    0.9398 O   0  0  0  0  0  0  0  0  0  0  0  0
    1.6913    0.4604    0.8056 C   0  0  0  0  0  0  0  0  0  0  0  0
    2.2157    0.0426   -0.5141 C   0  0  0  0  0  0  0  0  0  0  0  0
    1.1345   -0.7184    0.0975 C   0  0  0  0  0  0  0  0  0  0  0  0
   -0.6419   -2.4635    0.4375 H   0  0  0  0  0  0  0  0  0  0  0  0
   -1.4630   -1.8918   -1.0244 H   0  0  0  0  0  0  0  0  0  0  0  0
   -2.0996   -1.4541    0.6550 H   0  0  0  0  0  0  0  0  0  0  0  0
    0.0624    1.1936   -1.5484 H   0  0  0  0  0  0  0  0  0  0  0  0
   -1.4472    0.1129   -1.8274 H   0  0  0  0  0  0  0  0  0  0  0  0
   -2.5208    0.9932    0.0816 H   0  0  0  0  0  0  0  0  0  0  0  0
   -1.3480    2.4161   -0.1071 H   0  0  0  0  0  0  0  0  0  0  0  0
   -0.9676    0.4233    1.9072 H   0  0  0  0  0  0  0  0  0  0  0  0
    2.3694    0.3821    1.6580 H   0  0  0  0  0  0  0  0  0  0  0  0
    3.2153   -0.4346   -0.5335 H   0  0  0  0  0  0  0  0  0  0  0  0
    2.0334    0.6952   -1.3807 H   0  0  0  0  0  0  0  0  0  0  0  0
    1.3406   -1.6980    0.6086 H   0  0  0  0  0  0  0  0  0  0  0  0
  1  2  1  0
  2  3  1  0
  3  4  1  0
  4  5  1  0
  5  6  1  0
  6  7  1  0
  7  8  1  0
  8  9  1  0
  5  2  1  0
  9  7  1  0
  9  2  1  0
  1 10  1  0
  1 11  1  0
  1 12  1  0
  3 13  1  0
  3 14  1  0
  4 15  1  0
  4 16  1  0
  5 17  1  0
  7 18  1  0
  8 19  1  0
  8 20  1  0
  9 21  1  0
M  END
