
     RDKit          3D

 19 21  0  0  0  0  0  0  0  0999 V2000
    2.1035   -0.6729    0.5243 C   0  0  0  0  0  0  0  0  0  0  0  0
    0.8063   -0.0527    0.2128 C   0  0  0  0  0  0  0  0  0  0  0  0
    0.7170    1.2484    0.7151 O   0  0  0  0  0  0  0  0  0  0  0  0
   -0.2081    1.9204   -0.0897 C   0  0  0  0  0  0  0  0  0  0  0  0
   -0.6427    0.8190   -1.0529 C   0  0  0  0  0  0  0  0  0  0  0  0
    0.5735    0.1108   -1.1722 O   0  0  0  0  0  0  0  0  0  0  0  0
   -1.4801   -0.1390   -0.2867 C   0  0  0  0  0  0  0  0  0  0  0  0
   -1.2437   -1.5858   -0.2791 C   0  0  0  0  0  0  0  0  0  0  0  0
   -0.4038   -0.7961    0.6434 C   0  0  0  0  0  0  0  0  0  0  0  0
    2.8852   -0.2312   -0.1378 H   0  0  0  0  0  0  0  0  0  0  0  0
    2.4055   -0.3576    1.5633 H   0  0  0  0  0  0  0  0  0  0  0  0
    2.1302   -1.7563    0.4667 H   0  0  0  0  0  0  0  0  0  0  0  0
   -1.1095    2.2289    0.4532 H   0  0  0  0  0  0  0  0  0  0  0  0
    0.2439    2.7729   -0.6135 H   0  0  0  0  0  0  0  0  0  0  0  0
   -1.0312    1.1785   -1.9864 H   0  0  0  0  0  0  0  0  0  0  0  0
   -2.3198    0.3358    0.2788 H   0  0  0  0  0  0  0  0  0  0  0  0
   -2.0227   -2.2096    0.2006 H   0  0  0  0  0  0  0  0  0  0  0  0
   -0.7836   -2.0515   -1.1652 H   0  0  0  0  0  0  0  0  0  0  0  0
   -0.6198   -0.7620    1.7254 H   0  0  0  0  0  0  0  0  0  0  0  0
  1  2  1  0
  2  3  1  0
  3  4  1  0
  4  5  1  0
  5  6  1  0
  5  7  1  0
  7  8  1  0
  8  9  1  0
  6  2  1  0
  9  7  1  0
  9  2  1  0
  1 10  1  0
  1 11  1  0
  1 12  1  0
  4 13  1  0
  4 14  1  0
  5 15  1  0
  7 16  1  0
  8 17  1  0
  8 18  1  0
  9 19  1  0
M  END
