
     RDKit          3D

 21 22  0  0  0  0  0  0  0  0999 V2000
   -1.3721    0.3814    1.4216 C   0  0  0  0  0  0  0  0  0  0  0  0
   -0.7558    0.1608    0.0878 C   0  0  0  0  0  0  0  0  0  0  0  0
   -1.3515   -0.9449   -0.7329 C   0  0  0  0  0  0  0  0  0  0  0  0
   -0.3997   -1.9442   -0.6306 O   0  0  0  0  0  0  0  0  0  0  0  0
    0.8144   -1.3062   -0.8284 C   0  0  0  0  0  0  0  0  0  0  0  0
    0.7051   -0.0096   -0.0558 C   0  0  0  0  0  0  0  0  0  0  0  0
    1.6504    0.2263    1.0875 C   0  0  0  0  0  0  0  0  0  0  0  0
    0.0367    1.1742   -0.6247 C   0  0  0  0  0  0  0  0  0  0  0  0
   -0.0826    1.2151   -2.0275 O   0  0  0  0  0  0  0  0  0  0  0  0
   -2.4143    0.7570    1.2584 H   0  0  0  0  0  0  0  0  0  0  0  0
   -0.8467    1.0926    2.0681 H   0  0  0  0  0  0  0  0  0  0  0  0
   -1.5118   -0.6249    1.9066 H   0  0  0  0  0  0  0  0  0  0  0  0
   -2.3445   -1.2406   -0.3977 H   0  0  0  0  0  0  0  0  0  0  0  0
   -1.4202   -0.5915   -1.7941 H   0  0  0  0  0  0  0  0  0  0  0  0
    1.6047   -1.9238   -0.3310 H   0  0  0  0  0  0  0  0  0  0  0  0
    1.0870   -1.1669   -1.8727 H   0  0  0  0  0  0  0  0  0  0  0  0
    2.4591    0.9213    0.7454 H   0  0  0  0  0  0  0  0  0  0  0  0
    1.1460    0.6209    1.9793 H   0  0  0  0  0  0  0  0  0  0  0  0
    2.1060   -0.7551    1.3800 H   0  0  0  0  0  0  0  0  0  0  0  0
    0.2948    2.1573   -0.2027 H   0  0  0  0  0  0  0  0  0  0  0  0
    0.5950    1.8009   -2.4366 H   0  0  0  0  0  0  0  0  0  0  0  0
  1  2  1  0
  2  3  1  0
  3  4  1  0
  4  5  1  0
  5  6  1  0
  6  7  1  0
  6  8  1  0
  8  9  1  0
  6  2  1  0
  8  2  1  0
  1 10  1  0
  1 11  1  0
  1 12  1  0
  3 13  1  0
  3 14  1  0
  5 15  1  0
  5 16  1  0
  7 17  1  0
  7 18  1  0
  7 19  1  0
  8 20  1  0
  9 21  1  0
M  END
