
     RDKit          3D

 16 18  0  0  0  0  0  0  0  0999 V2000
    1.8391   -0.2958   -0.3788 C   0  0  0  0  0  0  0  0  0  0  0  0
    0.4399   -0.0072   -0.1200 C   0  0  0  0  0  0  0  0  0  0  0  0
   -0.6749   -1.0111   -0.4403 C   0  0  0  0  0  0  0  0  0  0  0  0
   -1.8102   -0.1682    0.1469 C   0  0  0  0  0  0  0  0  0  0  0  0
   -1.6014    1.0391   -0.4960 O   0  0  0  0  0  0  0  0  0  0  0  0
   -0.2422    1.2740   -0.1908 C   0  0  0  0  0  0  0  0  0  0  0  0
   -0.0461    0.6163    1.1141 C   0  0  0  0  0  0  0  0  0  0  0  0
   -1.3190    0.0862    1.4131 O   0  0  0  0  0  0  0  0  0  0  0  0
    2.0245   -0.9701   -1.2275 H   0  0  0  0  0  0  0  0  0  0  0  0
    2.3906    0.6525   -0.5928 H   0  0  0  0  0  0  0  0  0  0  0  0
    2.2994   -0.7770    0.5327 H   0  0  0  0  0  0  0  0  0  0  0  0
   -0.5206   -1.9348    0.1248 H   0  0  0  0  0  0  0  0  0  0  0  0
   -0.7780   -1.1572   -1.5154 H   0  0  0  0  0  0  0  0  0  0  0  0
   -2.7755   -0.6027    0.0712 H   0  0  0  0  0  0  0  0  0  0  0  0
    0.1965    2.2440   -0.3502 H   0  0  0  0  0  0  0  0  0  0  0  0
    0.5779    1.0118    1.9089 H   0  0  0  0  0  0  0  0  0  0  0  0
  1  2  1  0
  2  3  1  0
  3  4  1  0
  4  5  1  0
  5  6  1  0
  6  7  1  0
  7  8  1  0
  6  2  1  0
  7  2  1  0
  8  4  1  0
  1  9  1  0
  1 10  1  0
  1 11  1  0
  3 12  1  0
  3 13  1  0
  4 14  1  0
  6 15  1  0
  7 16  1  0
M  END
