
     RDKit          3D

 25 26  0  0  0  0  0  0  0  0999 V2000
   -1.4017   -1.3341    0.9596 C   0  0  0  0  0  0  0  0  0  0  0  0
   -0.8040   -0.3685   -0.0001 C   0  0  0  0  0  0  0  0  0  0  0  0
    0.1454   -0.9708   -0.9829 C   0  0  0  0  0  0  0  0  0  0  0  0
    1.5527   -1.0283   -0.4914 C   0  0  0  0  0  0  0  0  0  0  0  0
    2.0460    0.2798    0.0589 C   0  0  0  0  0  0  0  0  0  0  0  0
    1.1023    0.9317    1.0026 C   0  0  0  0  0  0  0  0  0  0  0  0
   -0.3226    0.8911    0.6411 C   0  0  0  0  0  0  0  0  0  0  0  0
   -0.7787    1.6367   -0.5642 C   0  0  0  0  0  0  0  0  0  0  0  0
   -1.8135    0.5143   -0.7490 C   0  0  0  0  0  0  0  0  0  0  0  0
   -0.8229   -1.3334    1.9231 H   0  0  0  0  0  0  0  0  0  0  0  0
   -2.4300   -1.0522    1.1874 H   0  0  0  0  0  0  0  0  0  0  0  0
   -1.3595   -2.3516    0.4920 H   0  0  0  0  0  0  0  0  0  0  0  0
    0.1478   -0.4101   -1.9467 H   0  0  0  0  0  0  0  0  0  0  0  0
   -0.1867   -2.0151   -1.1849 H   0  0  0  0  0  0  0  0  0  0  0  0
    2.2083   -1.2666   -1.3759 H   0  0  0  0  0  0  0  0  0  0  0  0
    1.7214   -1.8396    0.2481 H   0  0  0  0  0  0  0  0  0  0  0  0
    2.4027    0.9792   -0.7459 H   0  0  0  0  0  0  0  0  0  0  0  0
    2.9854    0.0401    0.6395 H   0  0  0  0  0  0  0  0  0  0  0  0
    1.2284    0.4438    2.0023 H   0  0  0  0  0  0  0  0  0  0  0  0
    1.4124    1.9862    1.1515 H   0  0  0  0  0  0  0  0  0  0  0  0
   -0.9703    1.1420    1.5150 H   0  0  0  0  0  0  0  0  0  0  0  0
   -1.2829    2.5932   -0.4252 H   0  0  0  0  0  0  0  0  0  0  0  0
   -0.1042    1.6121   -1.4426 H   0  0  0  0  0  0  0  0  0  0  0  0
   -2.7058    0.7179   -0.1311 H   0  0  0  0  0  0  0  0  0  0  0  0
   -1.9697    0.2022   -1.7811 H   0  0  0  0  0  0  0  0  0  0  0  0
  1  2  1  0
  2  3  1  0
  3  4  1  0
  4  5  1  0
  5  6  1  0
  6  7  1  0
  7  8  1  0
  8  9  1  0
  7  2  1  0
  9  2  1  0
  1 10  1  0
  1 11  1  0
  1 12  1  0
  3 13  1  0
  3 14  1  0
  4 15  1  0
  4 16  1  0
  5 17  1  0
  5 18  1  0
  6 19  1  0
  6 20  1  0
  7 21  1  0
  8 22  1  0
  8 23  1  0
  9 24  1  0
  9 25  1  0
M  END
