
     RDKit          3D

 19 22  0  0  0  0  0  0  0  0999 V2000
    2.1236    0.1769    0.0731 C   0  0  0  0  0  0  0  0  0  0  0  0
    0.6841    0.0339    0.1963 C   0  0  0  0  0  0  0  0  0  0  0  0
   -0.0341   -0.9829    0.9919 C   0  0  0  0  0  0  0  0  0  0  0  0
   -1.3562   -1.1190    0.4052 C   0  0  0  0  0  0  0  0  0  0  0  0
   -1.1749   -0.6735   -1.0340 C   0  0  0  0  0  0  0  0  0  0  0  0
   -0.2007    0.4592   -0.8866 C   0  0  0  0  0  0  0  0  0  0  0  0
    0.1409    1.2680   -1.9177 O   0  0  0  0  0  0  0  0  0  0  0  0
   -0.3194    1.0270    0.4546 C   0  0  0  0  0  0  0  0  0  0  0  0
   -1.1574    0.0820    1.2219 C   0  0  0  0  0  0  0  0  0  0  0  0
    2.6580    0.7276    0.8490 H   0  0  0  0  0  0  0  0  0  0  0  0
    2.6120   -0.8394    0.0165 H   0  0  0  0  0  0  0  0  0  0  0  0
    2.3707    0.6417   -0.9260 H   0  0  0  0  0  0  0  0  0  0  0  0
    0.3485   -1.4708    1.8703 H   0  0  0  0  0  0  0  0  0  0  0  0
   -2.0363   -1.9215    0.6612 H   0  0  0  0  0  0  0  0  0  0  0  0
   -2.0916   -0.3446   -1.5121 H   0  0  0  0  0  0  0  0  0  0  0  0
   -0.6895   -1.5200   -1.5833 H   0  0  0  0  0  0  0  0  0  0  0  0
   -0.2580    2.1798   -1.8513 H   0  0  0  0  0  0  0  0  0  0  0  0
   -0.1721    2.0698    0.7191 H   0  0  0  0  0  0  0  0  0  0  0  0
   -1.4477    0.2058    2.2519 H   0  0  0  0  0  0  0  0  0  0  0  0
  1  2  1  0
  2  3  1  0
  3  4  1  0
  4  5  1  0
  5  6  1  0
  6  7  1  0
  6  8  1  0
  8  9  1  0
  6  2  1  0
  8  2  1  0
  9  3  1  0
  9  4  1  0
  1 10  1  0
  1 11  1  0
  1 12  1  0
  3 13  1  0
  4 14  1  0
  5 15  1  0
  5 16  1  0
  7 17  1  0
  8 18  1  0
  9 19  1  0
M  END
