
     RDKit          3D

 21 22  0  0  0  0  0  0  0  0999 V2000
    1.1000   -1.6719    0.0630 C   0  0  0  0  0  0  0  0  0  0  0  0
    0.7097   -0.3101   -0.0774 C   0  0  0  0  0  0  0  0  0  0  0  0
    1.5929    0.8048    0.3740 C   0  0  0  0  0  0  0  0  0  0  0  0
    0.8598    1.8848    0.0945 C   0  0  0  0  0  0  0  0  0  0  0  0
   -0.3739    1.3213   -0.4747 C   0  0  0  0  0  0  0  0  0  0  0  0
    0.2073    0.2350   -1.3971 C   0  0  0  0  0  0  0  0  0  0  0  0
   -0.6341    0.1645    0.4872 C   0  0  0  0  0  0  0  0  0  0  0  0
   -1.8087   -0.6516    0.0903 C   0  0  0  0  0  0  0  0  0  0  0  0
   -0.4776    0.4699    1.8168 O   0  0  0  0  0  0  0  0  0  0  0  0
    0.7652   -2.1044    1.0455 H   0  0  0  0  0  0  0  0  0  0  0  0
    0.6931   -2.3161   -0.7468 H   0  0  0  0  0  0  0  0  0  0  0  0
    2.2150   -1.7677    0.0841 H   0  0  0  0  0  0  0  0  0  0  0  0
    2.5747    0.6932    0.8116 H   0  0  0  0  0  0  0  0  0  0  0  0
    1.0719    2.9353    0.2320 H   0  0  0  0  0  0  0  0  0  0  0  0
   -1.1675    1.9058   -0.8182 H   0  0  0  0  0  0  0  0  0  0  0  0
   -0.5426   -0.3658   -1.9117 H   0  0  0  0  0  0  0  0  0  0  0  0
    1.0080    0.6922   -2.0082 H   0  0  0  0  0  0  0  0  0  0  0  0
   -1.5855   -1.4973   -0.5720 H   0  0  0  0  0  0  0  0  0  0  0  0
   -2.5506    0.0115   -0.4307 H   0  0  0  0  0  0  0  0  0  0  0  0
   -2.3298   -0.9981    1.0191 H   0  0  0  0  0  0  0  0  0  0  0  0
   -1.3273    0.5648    2.3188 H   0  0  0  0  0  0  0  0  0  0  0  0
  1  2  1  0
  2  3  1  0
  3  4  2  0
  4  5  1  0
  5  6  1  0
  5  7  1  0
  7  8  1  0
  7  9  1  0
  6  2  1  0
  7  2  1  0
  1 10  1  0
  1 11  1  0
  1 12  1  0
  3 13  1  0
  4 14  1  0
  5 15  1  0
  6 16  1  0
  6 17  1  0
  8 18  1  0
  8 19  1  0
  8 20  1  0
  9 21  1  0
M  END
