
     RDKit          3D

 21 22  0  0  0  0  0  0  0  0999 V2000
   -1.9750   -1.2968    0.3028 C   0  0  0  0  0  0  0  0  0  0  0  0
   -0.9550   -0.2576   -0.1020 C   0  0  0  0  0  0  0  0  0  0  0  0
    0.3420   -0.8228   -0.5742 C   0  0  0  0  0  0  0  0  0  0  0  0
    1.4002    0.2300   -0.4182 C   0  0  0  0  0  0  0  0  0  0  0  0
    2.6411   -0.3265    0.2123 C   0  0  0  0  0  0  0  0  0  0  0  0
    3.0748   -1.4278   -0.0841 O   0  0  0  0  0  0  0  0  0  0  0  0
    0.8409    1.2480    0.5263 C   0  0  0  0  0  0  0  0  0  0  0  0
   -0.5994    0.8728    0.7516 C   0  0  0  0  0  0  0  0  0  0  0  0
   -1.4657    1.0569   -0.4803 C   0  0  0  0  0  0  0  0  0  0  0  0
   -1.5356   -2.1453    0.8246 H   0  0  0  0  0  0  0  0  0  0  0  0
   -2.3906   -1.7054   -0.6642 H   0  0  0  0  0  0  0  0  0  0  0  0
   -2.8509   -0.8444    0.8146 H   0  0  0  0  0  0  0  0  0  0  0  0
    0.3094   -1.2764   -1.5791 H   0  0  0  0  0  0  0  0  0  0  0  0
    0.6087   -1.6577    0.1381 H   0  0  0  0  0  0  0  0  0  0  0  0
    1.6563    0.6116   -1.4048 H   0  0  0  0  0  0  0  0  0  0  0  0
    3.2128    0.2189    0.9595 H   0  0  0  0  0  0  0  0  0  0  0  0
    0.8399    2.2299   -0.0155 H   0  0  0  0  0  0  0  0  0  0  0  0
    1.4095    1.3957    1.4419 H   0  0  0  0  0  0  0  0  0  0  0  0
   -0.9976    1.0588    1.7460 H   0  0  0  0  0  0  0  0  0  0  0  0
   -1.0441    1.5692   -1.3641 H   0  0  0  0  0  0  0  0  0  0  0  0
   -2.5218    1.2688   -0.2864 H   0  0  0  0  0  0  0  0  0  0  0  0
  1  2  1  0
  2  3  1  0
  3  4  1  0
  4  5  1  0
  5  6  2  0
  4  7  1  0
  7  8  1  0
  8  9  1  0
  8  2  1  0
  9  2  1  0
  1 10  1  0
  1 11  1  0
  1 12  1  0
  3 13  1  0
  3 14  1  0
  4 15  1  0
  5 16  1  0
  7 17  1  0
  7 18  1  0
  8 19  1  0
  9 20  1  0
  9 21  1  0
M  END
