
     RDKit          3D

 21 22  0  0  0  0  0  0  0  0999 V2000
    2.0406   -0.8361   -0.1749 C   0  0  0  0  0  0  0  0  0  0  0  0
    0.7195   -0.2454   -0.0626 C   0  0  0  0  0  0  0  0  0  0  0  0
    0.6783    1.2099    0.4028 C   0  0  0  0  0  0  0  0  0  0  0  0
   -0.8010    1.5146    0.1677 C   0  0  0  0  0  0  0  0  0  0  0  0
   -1.3293    0.4270   -0.7392 C   0  0  0  0  0  0  0  0  0  0  0  0
   -1.6579   -0.7487    0.1703 C   0  0  0  0  0  0  0  0  0  0  0  0
   -0.2850   -1.0021    0.7950 C   0  0  0  0  0  0  0  0  0  0  0  0
   -0.0648   -0.0920   -1.3083 C   0  0  0  0  0  0  0  0  0  0  0  0
    0.2548   -0.3254   -2.4207 O   0  0  0  0  0  0  0  0  0  0  0  0
    2.2663   -1.4303    0.7594 H   0  0  0  0  0  0  0  0  0  0  0  0
    2.8643   -0.0850   -0.2359 H   0  0  0  0  0  0  0  0  0  0  0  0
    2.1578   -1.5397   -1.0307 H   0  0  0  0  0  0  0  0  0  0  0  0
    0.9778    1.3340    1.4400 H   0  0  0  0  0  0  0  0  0  0  0  0
    1.2351    1.8584   -0.3136 H   0  0  0  0  0  0  0  0  0  0  0  0
   -0.9597    2.5275   -0.2204 H   0  0  0  0  0  0  0  0  0  0  0  0
   -1.2933    1.4212    1.1569 H   0  0  0  0  0  0  0  0  0  0  0  0
   -2.0919    0.7073   -1.4274 H   0  0  0  0  0  0  0  0  0  0  0  0
   -1.9095   -1.5946   -0.5151 H   0  0  0  0  0  0  0  0  0  0  0  0
   -2.4251   -0.5261    0.9070 H   0  0  0  0  0  0  0  0  0  0  0  0
   -0.0569   -2.0712    0.8585 H   0  0  0  0  0  0  0  0  0  0  0  0
   -0.3201   -0.5033    1.7912 H   0  0  0  0  0  0  0  0  0  0  0  0
  1  2  1  0
  2  3  1  0
  3  4  1  0
  4  5  1  0
  5  6  1  0
  6  7  1  0
  5  8  1  0
  8  9  2  0
  7  2  1  0
  8  2  1  0
  1 10  1  0
  1 11  1  0
  1 12  1  0
  3 13  1  0
  3 14  1  0
  4 15  1  0
  4 16  1  0
  5 17  1  0
  6 18  1  0
  6 19  1  0
  7 20  1  0
  7 21  1  0
M  END
