
     RDKit          3D

 19 21  0  0  0  0  0  0  0  0999 V2000
   -1.7177   -0.5541    0.7155 C   0  0  0  0  0  0  0  0  0  0  0  0
   -0.6185    0.3556    0.2288 C   0  0  0  0  0  0  0  0  0  0  0  0
   -0.8932    1.6564   -0.3957 C   0  0  0  0  0  0  0  0  0  0  0  0
   -0.4227    0.5552   -1.2489 C   0  0  0  0  0  0  0  0  0  0  0  0
    0.9504   -0.0268   -1.1155 C   0  0  0  0  0  0  0  0  0  0  0  0
    1.0305   -1.4016   -0.5336 C   0  0  0  0  0  0  0  0  0  0  0  0
    0.7552   -0.2233    0.3207 C   0  0  0  0  0  0  0  0  0  0  0  0
    1.7025    0.2044    1.3487 C   0  0  0  0  0  0  0  0  0  0  0  0
    2.1933    1.3225    1.3398 O   0  0  0  0  0  0  0  0  0  0  0  0
   -1.4696   -1.5897    0.3446 H   0  0  0  0  0  0  0  0  0  0  0  0
   -1.6115   -0.6089    1.8278 H   0  0  0  0  0  0  0  0  0  0  0  0
   -2.7147   -0.2781    0.3778 H   0  0  0  0  0  0  0  0  0  0  0  0
   -1.9357    1.9577   -0.4910 H   0  0  0  0  0  0  0  0  0  0  0  0
   -0.1816    2.4842   -0.1125 H   0  0  0  0  0  0  0  0  0  0  0  0
   -1.1192    0.0832   -1.9675 H   0  0  0  0  0  0  0  0  0  0  0  0
    1.8282    0.4579   -1.5575 H   0  0  0  0  0  0  0  0  0  0  0  0
    2.0349   -1.8666   -0.4159 H   0  0  0  0  0  0  0  0  0  0  0  0
    0.1894   -2.0709   -0.8184 H   0  0  0  0  0  0  0  0  0  0  0  0
    2.0001   -0.4570    2.1527 H   0  0  0  0  0  0  0  0  0  0  0  0
  1  2  1  0
  2  3  1  0
  3  4  1  0
  4  5  1  0
  5  6  1  0
  6  7  1  0
  7  8  1  0
  8  9  2  0
  4  2  1  0
  7  5  1  0
  7  2  1  0
  1 10  1  0
  1 11  1  0
  1 12  1  0
  3 13  1  0
  3 14  1  0
  4 15  1  0
  5 16  1  0
  6 17  1  0
  6 18  1  0
  8 19  1  0
M  END
