
     RDKit          3D

 17 19  0  0  0  0  0  0  0  0999 V2000
    2.2573   -0.4305   -0.0286 C   0  0  0  0  0  0  0  0  0  0  0  0
    0.8913    0.0618   -0.0634 C   0  0  0  0  0  0  0  0  0  0  0  0
   -0.1880   -1.0289   -0.0199 C   0  0  0  0  0  0  0  0  0  0  0  0
   -1.3693   -0.0699   -0.1033 C   0  0  0  0  0  0  0  0  0  0  0  0
   -2.6326   -0.4597    0.0777 O   0  0  0  0  0  0  0  0  0  0  0  0
   -0.8559    1.1317    0.5890 C   0  0  0  0  0  0  0  0  0  0  0  0
    0.4796    0.8709    0.9761 O   0  0  0  0  0  0  0  0  0  0  0  0
   -0.8596    1.0469   -0.8748 C   0  0  0  0  0  0  0  0  0  0  0  0
    0.4966    0.7713   -1.1759 O   0  0  0  0  0  0  0  0  0  0  0  0
    2.5615   -0.6584    1.0113 H   0  0  0  0  0  0  0  0  0  0  0  0
    2.3562   -1.3710   -0.5988 H   0  0  0  0  0  0  0  0  0  0  0  0
    2.9441    0.3147   -0.4730 H   0  0  0  0  0  0  0  0  0  0  0  0
   -0.1587   -1.6249   -0.9296 H   0  0  0  0  0  0  0  0  0  0  0  0
   -0.1696   -1.5878    0.9217 H   0  0  0  0  0  0  0  0  0  0  0  0
   -2.8545   -0.4612    1.0553 H   0  0  0  0  0  0  0  0  0  0  0  0
   -1.4639    1.8083    1.1736 H   0  0  0  0  0  0  0  0  0  0  0  0
   -1.4344    1.6866   -1.5375 H   0  0  0  0  0  0  0  0  0  0  0  0
  1  2  1  0
  2  3  1  0
  3  4  1  0
  4  5  1  0
  4  6  1  0
  6  7  1  0
  6  8  1  0
  8  9  1  0
  7  2  1  0
  9  2  1  0
  8  4  1  0
  1 10  1  0
  1 11  1  0
  1 12  1  0
  3 13  1  0
  3 14  1  0
  5 15  1  0
  6 16  1  0
  8 17  1  0
M  END
