
     RDKit          3D

 17 18  0  0  0  0  0  0  0  0999 V2000
    1.6906    0.9373   -0.4275 C   0  0  0  0  0  0  0  0  0  0  0  0
    0.4628    0.2677    0.1011 C   0  0  0  0  0  0  0  0  0  0  0  0
    0.7857   -1.1254    0.6363 C   0  0  0  0  0  0  0  0  0  0  0  0
    0.3991   -1.7059   -0.5875 O   0  0  0  0  0  0  0  0  0  0  0  0
   -0.3176   -0.5712   -0.8494 C   0  0  0  0  0  0  0  0  0  0  0  0
   -1.6771   -0.5915   -0.1889 C   0  0  0  0  0  0  0  0  0  0  0  0
   -2.5195   -1.4488   -0.2858 O   0  0  0  0  0  0  0  0  0  0  0  0
   -1.6848    0.6876    0.5814 C   0  0  0  0  0  0  0  0  0  0  0  0
   -0.3822    1.0090    0.8674 O   0  0  0  0  0  0  0  0  0  0  0  0
    1.4899    1.7676   -1.1123 H   0  0  0  0  0  0  0  0  0  0  0  0
    2.2484    1.3588    0.4390 H   0  0  0  0  0  0  0  0  0  0  0  0
    2.3388    0.1802   -0.9049 H   0  0  0  0  0  0  0  0  0  0  0  0
    1.8489   -1.2859    0.8046 H   0  0  0  0  0  0  0  0  0  0  0  0
    0.1044   -1.3453    1.4728 H   0  0  0  0  0  0  0  0  0  0  0  0
   -0.3897   -0.2315   -1.8830 H   0  0  0  0  0  0  0  0  0  0  0  0
   -2.3377    0.6268    1.4758 H   0  0  0  0  0  0  0  0  0  0  0  0
   -2.0599    1.4705   -0.1388 H   0  0  0  0  0  0  0  0  0  0  0  0
  1  2  1  0
  2  3  1  0
  3  4  1  0
  4  5  1  0
  5  6  1  0
  6  7  2  0
  6  8  1  0
  8  9  1  0
  5  2  1  0
  9  2  1  0
  1 10  1  0
  1 11  1  0
  1 12  1  0
  3 13  1  0
  3 14  1  0
  5 15  1  0
  8 16  1  0
  8 17  1  0
M  END
