
     RDKit          3D

 21 22  0  0  0  0  0  0  0  0999 V2000
   -0.3354   -0.8109    1.5868 C   0  0  0  0  0  0  0  0  0  0  0  0
    0.1656   -0.7991    0.1390 C   0  0  0  0  0  0  0  0  0  0  0  0
   -0.5958   -1.5594   -0.7769 C   0  0  0  0  0  0  0  0  0  0  0  0
   -0.8140   -0.1715   -0.9241 C   0  0  0  0  0  0  0  0  0  0  0  0
   -1.5098    0.8457   -0.1366 C   0  0  0  0  0  0  0  0  0  0  0  0
   -0.5164    1.5476    0.5949 O   0  0  0  0  0  0  0  0  0  0  0  0
    0.7220    1.5017   -0.0356 C   0  0  0  0  0  0  0  0  0  0  0  0
    1.3347    0.0859   -0.0122 C   0  0  0  0  0  0  0  0  0  0  0  0
    1.9276   -0.1028   -1.2512 O   0  0  0  0  0  0  0  0  0  0  0  0
   -1.4308   -0.9337    1.6423 H   0  0  0  0  0  0  0  0  0  0  0  0
    0.0790   -1.7801    2.0028 H   0  0  0  0  0  0  0  0  0  0  0  0
    0.0796   -0.0246    2.2111 H   0  0  0  0  0  0  0  0  0  0  0  0
   -1.4338   -2.1965   -0.3967 H   0  0  0  0  0  0  0  0  0  0  0  0
   -0.0565   -2.1264   -1.5794 H   0  0  0  0  0  0  0  0  0  0  0  0
   -0.3278    0.2945   -1.8353 H   0  0  0  0  0  0  0  0  0  0  0  0
   -1.9752    1.6314   -0.7923 H   0  0  0  0  0  0  0  0  0  0  0  0
   -2.3214    0.5131    0.5189 H   0  0  0  0  0  0  0  0  0  0  0  0
    0.6688    1.8955   -1.0706 H   0  0  0  0  0  0  0  0  0  0  0  0
    1.3888    2.2005    0.5146 H   0  0  0  0  0  0  0  0  0  0  0  0
    2.0427    0.0592    0.8225 H   0  0  0  0  0  0  0  0  0  0  0  0
    2.9077   -0.0700   -1.2219 H   0  0  0  0  0  0  0  0  0  0  0  0
  1  2  1  0
  2  3  1  0
  3  4  1  0
  4  5  1  0
  5  6  1  0
  6  7  1  0
  7  8  1  0
  8  9  1  0
  4  2  1  0
  8  2  1  0
  1 10  1  0
  1 11  1  0
  1 12  1  0
  3 13  1  0
  3 14  1  0
  4 15  1  0
  5 16  1  0
  5 17  1  0
  7 18  1  0
  7 19  1  0
  8 20  1  0
  9 21  1  0
M  END
