
     RDKit          3D

 21 22  0  0  0  0  0  0  0  0999 V2000
   -0.5167   -1.4565   -1.1129 C   0  0  0  0  0  0  0  0  0  0  0  0
   -0.2296   -0.4352   -0.0381 C   0  0  0  0  0  0  0  0  0  0  0  0
    0.7623   -0.9681    0.8865 C   0  0  0  0  0  0  0  0  0  0  0  0
    1.9319   -0.4147    0.6885 C   0  0  0  0  0  0  0  0  0  0  0  0
    1.8310    0.5688   -0.4181 C   0  0  0  0  0  0  0  0  0  0  0  0
    0.3472    0.8295   -0.5528 C   0  0  0  0  0  0  0  0  0  0  0  0
   -0.0026    1.7492    0.4492 O   0  0  0  0  0  0  0  0  0  0  0  0
   -1.3666    1.5131    0.6637 C   0  0  0  0  0  0  0  0  0  0  0  0
   -1.5055    0.0198    0.6239 C   0  0  0  0  0  0  0  0  0  0  0  0
    0.1397   -2.3433   -0.9894 H   0  0  0  0  0  0  0  0  0  0  0  0
   -1.5570   -1.8105   -0.9585 H   0  0  0  0  0  0  0  0  0  0  0  0
   -0.3908   -1.0540   -2.1373 H   0  0  0  0  0  0  0  0  0  0  0  0
    0.6090   -1.7343    1.6688 H   0  0  0  0  0  0  0  0  0  0  0  0
    2.8804   -0.6040    1.2232 H   0  0  0  0  0  0  0  0  0  0  0  0
    2.2833    0.2348   -1.3529 H   0  0  0  0  0  0  0  0  0  0  0  0
    2.3737    1.4879   -0.0723 H   0  0  0  0  0  0  0  0  0  0  0  0
    0.0366    1.1348   -1.5491 H   0  0  0  0  0  0  0  0  0  0  0  0
   -1.6957    1.9455    1.6202 H   0  0  0  0  0  0  0  0  0  0  0  0
   -1.9047    1.9965   -0.2042 H   0  0  0  0  0  0  0  0  0  0  0  0
   -1.6658   -0.4398    1.6091 H   0  0  0  0  0  0  0  0  0  0  0  0
   -2.3601   -0.2194   -0.0473 H   0  0  0  0  0  0  0  0  0  0  0  0
  1  2  1  0
  2  3  1  0
  3  4  2  0
  4  5  1  0
  5  6  1  0
  6  7  1  0
  7  8  1  0
  8  9  1  0
  6  2  1  0
  9  2  1  0
  1 10  1  0
  1 11  1  0
  1 12  1  0
  3 13  1  0
  4 14  1  0
  5 15  1  0
  5 16  1  0
  6 17  1  0
  8 18  1  0
  8 19  1  0
  9 20  1  0
  9 21  1  0
M  END
