
     RDKit          3D

 18 19  0  0  0  0  0  0  0  0999 V2000
    2.2002   -0.0847    0.4492 C   0  0  0  0  0  0  0  0  0  0  0  0
    0.7215   -0.0266    0.2596 C   0  0  0  0  0  0  0  0  0  0  0  0
    0.1361    1.3247    0.1053 C   0  0  0  0  0  0  0  0  0  0  0  0
   -1.1790    1.4075    0.1435 C   0  0  0  0  0  0  0  0  0  0  0  0
   -1.9125    0.1207   -0.0881 C   0  0  0  0  0  0  0  0  0  0  0  0
   -0.9863   -0.9920    0.2958 C   0  0  0  0  0  0  0  0  0  0  0  0
    0.1330   -1.0191   -0.7160 C   0  0  0  0  0  0  0  0  0  0  0  0
   -0.0408   -0.6473    1.2554 O   0  0  0  0  0  0  0  0  0  0  0  0
    2.4935   -0.0140    1.5120 H   0  0  0  0  0  0  0  0  0  0  0  0
    2.5872   -1.0010   -0.0328 H   0  0  0  0  0  0  0  0  0  0  0  0
    2.6440    0.7688   -0.1265 H   0  0  0  0  0  0  0  0  0  0  0  0
    0.7588    2.1815   -0.0296 H   0  0  0  0  0  0  0  0  0  0  0  0
   -1.7323    2.3185    0.3259 H   0  0  0  0  0  0  0  0  0  0  0  0
   -2.0925    0.0632   -1.2003 H   0  0  0  0  0  0  0  0  0  0  0  0
   -2.8879    0.0912    0.3914 H   0  0  0  0  0  0  0  0  0  0  0  0
   -1.4622   -1.9714    0.4955 H   0  0  0  0  0  0  0  0  0  0  0  0
   -0.0882   -0.5680   -1.6867 H   0  0  0  0  0  0  0  0  0  0  0  0
    0.7078   -1.9522   -0.7054 H   0  0  0  0  0  0  0  0  0  0  0  0
  1  2  1  0
  2  3  1  0
  3  4  2  0
  4  5  1  0
  5  6  1  0
  6  7  1  0
  6  8  1  0
  7  2  1  0
  8  2  1  0
  1  9  1  0
  1 10  1  0
  1 11  1  0
  3 12  1  0
  4 13  1  0
  5 14  1  0
  5 15  1  0
  6 16  1  0
  7 17  1  0
  7 18  1  0
M  END
