
     RDKit          3D

 19 21  0  0  0  0  0  0  0  0999 V2000
    2.1740    0.4693    0.2032 C   0  0  0  0  0  0  0  0  0  0  0  0
    0.6769    0.5469    0.3791 C   0  0  0  0  0  0  0  0  0  0  0  0
    0.1267    0.4254    1.6407 O   0  0  0  0  0  0  0  0  0  0  0  0
   -1.0166   -0.2172    1.1379 C   0  0  0  0  0  0  0  0  0  0  0  0
   -2.0014    0.7897    0.6594 C   0  0  0  0  0  0  0  0  0  0  0  0
   -1.5487    1.3990   -0.4270 C   0  0  0  0  0  0  0  0  0  0  0  0
   -0.1894    0.8302   -0.7673 C   0  0  0  0  0  0  0  0  0  0  0  0
   -0.2307   -0.4764   -0.1040 C   0  0  0  0  0  0  0  0  0  0  0  0
    0.0804   -1.7729   -0.6626 C   0  0  0  0  0  0  0  0  0  0  0  0
    2.6260   -0.1275    1.0327 H   0  0  0  0  0  0  0  0  0  0  0  0
    2.5885    1.5002    0.2246 H   0  0  0  0  0  0  0  0  0  0  0  0
    2.4323   -0.0348   -0.7657 H   0  0  0  0  0  0  0  0  0  0  0  0
   -1.3935   -1.0545    1.7067 H   0  0  0  0  0  0  0  0  0  0  0  0
   -2.9464    0.9881    1.1358 H   0  0  0  0  0  0  0  0  0  0  0  0
   -1.9966    2.1754   -1.0325 H   0  0  0  0  0  0  0  0  0  0  0  0
    0.1890    0.9454   -1.7742 H   0  0  0  0  0  0  0  0  0  0  0  0
   -0.7705   -2.1582   -1.2970 H   0  0  0  0  0  0  0  0  0  0  0  0
    0.9354   -1.6859   -1.3818 H   0  0  0  0  0  0  0  0  0  0  0  0
    0.2644   -2.5422    0.0920 H   0  0  0  0  0  0  0  0  0  0  0  0
  1  2  1  0
  2  3  1  0
  3  4  1  0
  4  5  1  0
  5  6  2  0
  6  7  1  0
  7  8  1  0
  8  9  1  0
  7  2  1  0
  8  2  1  0
  8  4  1  0
  1 10  1  0
  1 11  1  0
  1 12  1  0
  4 13  1  0
  5 14  1  0
  6 15  1  0
  7 16  1  0
  9 17  1  0
  9 18  1  0
  9 19  1  0
M  END
