
     RDKit          3D

 19 21  0  0  0  0  0  0  0  0999 V2000
   -1.9345   -1.4159    0.0110 C   0  0  0  0  0  0  0  0  0  0  0  0
   -0.8264   -0.3971    0.1161 C   0  0  0  0  0  0  0  0  0  0  0  0
   -1.1198    0.9130    0.7515 C   0  0  0  0  0  0  0  0  0  0  0  0
   -0.2383    1.8266    0.3647 C   0  0  0  0  0  0  0  0  0  0  0  0
    0.7302    1.1792   -0.5756 C   0  0  0  0  0  0  0  0  0  0  0  0
    1.6466    0.2141    0.1605 C   0  0  0  0  0  0  0  0  0  0  0  0
    2.8547   -0.0287   -0.4385 O   0  0  0  0  0  0  0  0  0  0  0  0
    0.5801   -0.8194    0.0207 C   0  0  0  0  0  0  0  0  0  0  0  0
   -0.0248   -0.0034   -1.0496 C   0  0  0  0  0  0  0  0  0  0  0  0
   -2.7285   -1.0980    0.7225 H   0  0  0  0  0  0  0  0  0  0  0  0
   -2.2676   -1.4536   -1.0297 H   0  0  0  0  0  0  0  0  0  0  0  0
   -1.5027   -2.3870    0.3557 H   0  0  0  0  0  0  0  0  0  0  0  0
   -1.9293    1.1690    1.4506 H   0  0  0  0  0  0  0  0  0  0  0  0
   -0.1743    2.8728    0.6424 H   0  0  0  0  0  0  0  0  0  0  0  0
    1.2058    1.8349   -1.3004 H   0  0  0  0  0  0  0  0  0  0  0  0
    1.7437    0.5201    1.2363 H   0  0  0  0  0  0  0  0  0  0  0  0
    3.3004   -0.7625    0.0092 H   0  0  0  0  0  0  0  0  0  0  0  0
    0.8534   -1.8678   -0.2366 H   0  0  0  0  0  0  0  0  0  0  0  0
   -0.1687   -0.2963   -2.0653 H   0  0  0  0  0  0  0  0  0  0  0  0
  1  2  1  0
  2  3  1  0
  3  4  2  0
  4  5  1  0
  5  6  1  0
  6  7  1  0
  6  8  1  0
  8  9  1  0
  8  2  1  0
  9  2  1  0
  9  5  1  0
  1 10  1  0
  1 11  1  0
  1 12  1  0
  3 13  1  0
  4 14  1  0
  5 15  1  0
  6 16  1  0
  7 17  1  0
  8 18  1  0
  9 19  1  0
M  END
