
     RDKit          2D

 19 21  0  0  0  0  0  0  0  0999 V2000
    1.9267   -1.0607    0.0000 C   0  0  0  0  0  0  0  0  0  0  0  0
    0.8660    0.0000    0.0000 C   0  0  0  0  0  0  0  0  0  0  0  0
    1.6160    1.2990    0.0000 C   0  0  0  0  0  0  0  0  0  0  0  0
    0.3170    2.0490    0.0000 C   0  0  0  0  0  0  0  0  0  0  0  0
   -0.9821    2.7990    0.0000 O   0  0  0  0  0  0  0  0  0  0  0  0
   -0.4330    0.7500    0.0000 C   0  0  0  0  0  0  0  0  0  0  0  0
   -0.4330   -0.7500    0.0000 C   0  0  0  0  0  0  0  0  0  0  0  0
    1.6160   -0.2010    0.0000 C   0  0  0  0  0  0  0  0  0  0  0  0
    3.1160   -0.2010    0.0000 O   0  0  0  0  0  0  0  0  0  0  0  0
    2.9873   -2.1213    0.0000 H   0  0  0  0  0  0  0  0  0  0  0  0
    2.6100   -0.6501    0.0000 H   0  0  0  0  0  0  0  0  0  0  0  0
    1.0032   -2.2427    0.0000 H   0  0  0  0  0  0  0  0  0  0  0  0
    3.0649    1.6873    0.0000 H   0  0  0  0  0  0  0  0  0  0  0  0
    1.0670    3.3481    0.0000 H   0  0  0  0  0  0  0  0  0  0  0  0
   -0.9821    4.2990    0.0000 H   0  0  0  0  0  0  0  0  0  0  0  0
   -1.8819    1.1382    0.0000 H   0  0  0  0  0  0  0  0  0  0  0  0
   -1.1830   -2.0490    0.0000 H   0  0  0  0  0  0  0  0  0  0  0  0
    1.7989   -1.6898    0.0000 H   0  0  0  0  0  0  0  0  0  0  0  0
    3.8660   -1.5000    0.0000 H   0  0  0  0  0  0  0  0  0  0  0  0
  1  2  1  0
  2  3  1  0
  3  4  1  0
  4  5  1  0
  4  6  1  0
  6  7  1  0
  7  8  1  0
  8  9  1  0
  6  2  1  0
  7  2  1  0
  8  3  1  0
  1 10  1  0
  1 11  1  0
  1 12  1  0
  3 13  1  0
  4 14  1  0
  5 15  1  0
  6 16  1  0
  7 17  1  0
  8 18  1  0
  9 19  1  0
M  END
