
     RDKit          3D

 19 20  0  0  0  0  0  0  0  0999 V2000
   -1.7326   -0.3856    0.8942 C   0  0  0  0  0  0  0  0  0  0  0  0
   -0.7576    0.3767   -0.0374 C   0  0  0  0  0  0  0  0  0  0  0  0
   -0.5123   -0.5239   -1.2017 C   0  0  0  0  0  0  0  0  0  0  0  0
    0.0506   -1.6518   -0.4849 O   0  0  0  0  0  0  0  0  0  0  0  0
    0.6423   -1.1370    0.6800 C   0  0  0  0  0  0  0  0  0  0  0  0
    0.9451   -1.7824    1.6740 O   0  0  0  0  0  0  0  0  0  0  0  0
    0.7760    0.2716    0.3772 C   0  0  0  0  0  0  0  0  0  0  0  0
    1.7784    0.4579   -0.7789 C   0  0  0  0  0  0  0  0  0  0  0  0
   -0.0457    1.3950    0.6026 C   0  0  0  0  0  0  0  0  0  0  0  0
   -2.6263   -0.5645    0.2708 H   0  0  0  0  0  0  0  0  0  0  0  0
   -2.0048    0.2072    1.7612 H   0  0  0  0  0  0  0  0  0  0  0  0
   -1.3194   -1.3934    1.1336 H   0  0  0  0  0  0  0  0  0  0  0  0
   -1.4750   -0.7995   -1.6513 H   0  0  0  0  0  0  0  0  0  0  0  0
    0.1521   -0.1487   -1.9709 H   0  0  0  0  0  0  0  0  0  0  0  0
    1.4897    1.2958   -1.4415 H   0  0  0  0  0  0  0  0  0  0  0  0
    2.0478   -0.4529   -1.2925 H   0  0  0  0  0  0  0  0  0  0  0  0
    2.7145    0.8183   -0.2574 H   0  0  0  0  0  0  0  0  0  0  0  0
    0.1331    2.3545    0.0460 H   0  0  0  0  0  0  0  0  0  0  0  0
   -0.2559    1.6628    1.6768 H   0  0  0  0  0  0  0  0  0  0  0  0
  1  2  1  0
  2  3  1  0
  3  4  1  0
  4  5  1  0
  5  6  2  0
  5  7  1  0
  7  8  1  0
  7  9  1  0
  7  2  1  0
  9  2  1  0
  1 10  1  0
  1 11  1  0
  1 12  1  0
  3 13  1  0
  3 14  1  0
  8 15  1  0
  8 16  1  0
  8 17  1  0
  9 18  1  0
  9 19  1  0
M  END
