
     RDKit          3D

 17 19  0  0  0  0  0  0  0  0999 V2000
    2.0953   -0.2839   -0.1995 C   0  0  0  0  0  0  0  0  0  0  0  0
    0.8793    0.1054    0.5432 C   0  0  0  0  0  0  0  0  0  0  0  0
    0.8667    1.3560    1.1146 O   0  0  0  0  0  0  0  0  0  0  0  0
    0.0066    1.2582    0.0481 C   0  0  0  0  0  0  0  0  0  0  0  0
   -1.3659    0.7520    0.3411 C   0  0  0  0  0  0  0  0  0  0  0  0
   -1.6867   -0.3474   -0.6396 C   0  0  0  0  0  0  0  0  0  0  0  0
   -0.8155   -1.3576   -0.2241 O   0  0  0  0  0  0  0  0  0  0  0  0
   -0.1787   -0.9082    0.9147 C   0  0  0  0  0  0  0  0  0  0  0  0
   -1.1346   -0.0356    1.4951 O   0  0  0  0  0  0  0  0  0  0  0  0
    2.3528    0.3704   -1.0595 H   0  0  0  0  0  0  0  0  0  0  0  0
    2.0374   -1.3321   -0.5888 H   0  0  0  0  0  0  0  0  0  0  0  0
    2.9645   -0.2988    0.5225 H   0  0  0  0  0  0  0  0  0  0  0  0
    0.2485    1.7078   -0.9331 H   0  0  0  0  0  0  0  0  0  0  0  0
   -2.1352    1.4913    0.4740 H   0  0  0  0  0  0  0  0  0  0  0  0
   -2.7252   -0.7353   -0.4248 H   0  0  0  0  0  0  0  0  0  0  0  0
   -1.5641   -0.0637   -1.6855 H   0  0  0  0  0  0  0  0  0  0  0  0
    0.1548   -1.6786    1.5983 H   0  0  0  0  0  0  0  0  0  0  0  0
  1  2  1  0
  2  3  1  0
  3  4  1  0
  4  5  1  0
  5  6  1  0
  6  7  1  0
  7  8  1  0
  8  9  1  0
  4  2  1  0
  9  5  1  0
  8  2  1  0
  1 10  1  0
  1 11  1  0
  1 12  1  0
  4 13  1  0
  5 14  1  0
  6 15  1  0
  6 16  1  0
  8 17  1  0
M  END
