
     RDKit          3D

 19 20  0  0  0  0  0  0  0  0999 V2000
   -2.2726   -0.5176   -0.3753 C   0  0  0  0  0  0  0  0  0  0  0  0
   -0.9205    0.0513   -0.1123 C   0  0  0  0  0  0  0  0  0  0  0  0
   -0.0232   -0.7128    0.8511 C   0  0  0  0  0  0  0  0  0  0  0  0
    1.3641   -0.5096    0.3015 C   0  0  0  0  0  0  0  0  0  0  0  0
    1.6563   -1.4488   -0.6678 O   0  0  0  0  0  0  0  0  0  0  0  0
    1.2614    0.8934   -0.2870 C   0  0  0  0  0  0  0  0  0  0  0  0
    1.4647    1.7711    0.7985 O   0  0  0  0  0  0  0  0  0  0  0  0
   -0.1701    0.9663   -0.7815 C   0  0  0  0  0  0  0  0  0  0  0  0
   -1.0444    1.4855    0.2174 O   0  0  0  0  0  0  0  0  0  0  0  0
   -2.9518   -0.1471    0.4482 H   0  0  0  0  0  0  0  0  0  0  0  0
   -2.2612   -1.6288   -0.2351 H   0  0  0  0  0  0  0  0  0  0  0  0
   -2.6878   -0.2895   -1.3690 H   0  0  0  0  0  0  0  0  0  0  0  0
   -0.2739   -1.7792    0.7268 H   0  0  0  0  0  0  0  0  0  0  0  0
   -0.1716   -0.3409    1.8608 H   0  0  0  0  0  0  0  0  0  0  0  0
    2.0983   -0.5645    1.1217 H   0  0  0  0  0  0  0  0  0  0  0  0
    2.5816   -1.3471   -0.9755 H   0  0  0  0  0  0  0  0  0  0  0  0
    1.9916    1.0743   -1.0817 H   0  0  0  0  0  0  0  0  0  0  0  0
    0.6408    1.6503    1.3688 H   0  0  0  0  0  0  0  0  0  0  0  0
   -0.2818    1.3936   -1.8098 H   0  0  0  0  0  0  0  0  0  0  0  0
  1  2  1  0
  2  3  1  0
  3  4  1  0
  4  5  1  0
  4  6  1  0
  6  7  1  0
  6  8  1  0
  8  9  1  0
  8  2  1  0
  9  2  1  0
  1 10  1  0
  1 11  1  0
  1 12  1  0
  3 13  1  0
  3 14  1  0
  4 15  1  0
  5 16  1  0
  6 17  1  0
  7 18  1  0
  8 19  1  0
M  END
