
     RDKit          3D

 21 22  0  0  0  0  0  0  0  0999 V2000
   -2.4133   -0.9322   -0.2563 C   0  0  0  0  0  0  0  0  0  0  0  0
   -1.0386   -0.4267    0.1439 C   0  0  0  0  0  0  0  0  0  0  0  0
   -0.8683    1.0551   -0.0476 C   0  0  0  0  0  0  0  0  0  0  0  0
    0.3496    1.5197    0.6859 C   0  0  0  0  0  0  0  0  0  0  0  0
    1.5594    0.8424    0.1432 C   0  0  0  0  0  0  0  0  0  0  0  0
    1.4488   -0.6071   -0.0880 C   0  0  0  0  0  0  0  0  0  0  0  0
    2.0512   -0.9064   -1.3251 O   0  0  0  0  0  0  0  0  0  0  0  0
    0.0840   -1.1797   -0.0976 C   0  0  0  0  0  0  0  0  0  0  0  0
   -0.5201   -1.0570    1.2576 O   0  0  0  0  0  0  0  0  0  0  0  0
   -3.1247   -0.6805    0.5842 H   0  0  0  0  0  0  0  0  0  0  0  0
   -2.4430   -2.0024   -0.4528 H   0  0  0  0  0  0  0  0  0  0  0  0
   -2.7659   -0.3537   -1.1292 H   0  0  0  0  0  0  0  0  0  0  0  0
   -0.6678    1.2108   -1.1424 H   0  0  0  0  0  0  0  0  0  0  0  0
   -1.7822    1.6140    0.1839 H   0  0  0  0  0  0  0  0  0  0  0  0
    0.4627    2.6223    0.4644 H   0  0  0  0  0  0  0  0  0  0  0  0
    0.2682    1.4483    1.7775 H   0  0  0  0  0  0  0  0  0  0  0  0
    1.8910    1.3926   -0.7822 H   0  0  0  0  0  0  0  0  0  0  0  0
    2.3978    1.0279    0.8766 H   0  0  0  0  0  0  0  0  0  0  0  0
    2.0561   -1.1913    0.6654 H   0  0  0  0  0  0  0  0  0  0  0  0
    3.0198   -1.1602   -1.1972 H   0  0  0  0  0  0  0  0  0  0  0  0
    0.0351   -2.2360   -0.4762 H   0  0  0  0  0  0  0  0  0  0  0  0
  1  2  1  0
  2  3  1  0
  3  4  1  0
  4  5  1  0
  5  6  1  0
  6  7  1  0
  6  8  1  0
  8  9  1  0
  8  2  1  0
  9  2  1  0
  1 10  1  0
  1 11  1  0
  1 12  1  0
  3 13  1  0
  3 14  1  0
  4 15  1  0
  4 16  1  0
  5 17  1  0
  5 18  1  0
  6 19  1  0
  7 20  1  0
  8 21  1  0
M  END
