
     RDKit          3D

 17 18  0  0  0  0  0  0  0  0999 V2000
   -1.4710   -1.2319   -0.4567 C   0  0  0  0  0  0  0  0  0  0  0  0
   -0.6319   -0.1495    0.1605 C   0  0  0  0  0  0  0  0  0  0  0  0
   -1.3274    0.9949    0.4568 O   0  0  0  0  0  0  0  0  0  0  0  0
   -0.2253    1.7377    0.0895 C   0  0  0  0  0  0  0  0  0  0  0  0
    0.2674    0.5989   -0.7885 C   0  0  0  0  0  0  0  0  0  0  0  0
    1.6379    0.1834   -0.5030 C   0  0  0  0  0  0  0  0  0  0  0  0
    1.6558   -0.5325    0.6221 C   0  0  0  0  0  0  0  0  0  0  0  0
    0.3156   -0.6472    1.1652 C   0  0  0  0  0  0  0  0  0  0  0  0
   -0.0257   -1.0878    2.2910 O   0  0  0  0  0  0  0  0  0  0  0  0
   -0.9989   -2.2320   -0.3725 H   0  0  0  0  0  0  0  0  0  0  0  0
   -1.7956   -1.0152   -1.4744 H   0  0  0  0  0  0  0  0  0  0  0  0
   -2.4111   -1.2950    0.1654 H   0  0  0  0  0  0  0  0  0  0  0  0
   -0.4097    2.6596   -0.4811 H   0  0  0  0  0  0  0  0  0  0  0  0
    0.4261    1.8930    0.9945 H   0  0  0  0  0  0  0  0  0  0  0  0
   -0.0488    0.6684   -1.8236 H   0  0  0  0  0  0  0  0  0  0  0  0
    2.4995    0.4198   -1.1092 H   0  0  0  0  0  0  0  0  0  0  0  0
    2.5434   -0.9643    1.0638 H   0  0  0  0  0  0  0  0  0  0  0  0
  1  2  1  0
  2  3  1  0
  3  4  1  0
  4  5  1  0
  5  6  1  0
  6  7  2  0
  7  8  1  0
  8  9  2  0
  5  2  1  0
  8  2  1  0
  1 10  1  0
  1 11  1  0
  1 12  1  0
  4 13  1  0
  4 14  1  0
  5 15  1  0
  6 16  1  0
  7 17  1  0
M  END
