
     RDKit          3D

 19 20  0  0  0  0  0  0  0  0999 V2000
    2.1649   -0.2713    0.8306 C   0  0  0  0  0  0  0  0  0  0  0  0
    1.0488   -0.0767   -0.1707 C   0  0  0  0  0  0  0  0  0  0  0  0
    0.5101    1.3365   -0.2265 C   0  0  0  0  0  0  0  0  0  0  0  0
   -0.8565    1.4314    0.2904 C   0  0  0  0  0  0  0  0  0  0  0  0
   -1.7184    0.4671    0.0482 C   0  0  0  0  0  0  0  0  0  0  0  0
   -1.3005   -0.7052   -0.7449 C   0  0  0  0  0  0  0  0  0  0  0  0
   -2.1524   -1.7901   -0.5097 O   0  0  0  0  0  0  0  0  0  0  0  0
    0.1008   -1.1132   -0.3388 C   0  0  0  0  0  0  0  0  0  0  0  0
    1.1074   -0.8419   -1.3099 O   0  0  0  0  0  0  0  0  0  0  0  0
    2.8882   -1.0443    0.5142 H   0  0  0  0  0  0  0  0  0  0  0  0
    2.6597    0.6945    1.0920 H   0  0  0  0  0  0  0  0  0  0  0  0
    1.6999   -0.6394    1.7676 H   0  0  0  0  0  0  0  0  0  0  0  0
    1.1761    1.9874    0.3618 H   0  0  0  0  0  0  0  0  0  0  0  0
    0.5338    1.7238   -1.2847 H   0  0  0  0  0  0  0  0  0  0  0  0
   -1.1246    2.3257    0.8768 H   0  0  0  0  0  0  0  0  0  0  0  0
   -2.7323    0.5146    0.4195 H   0  0  0  0  0  0  0  0  0  0  0  0
   -1.3083   -0.4583   -1.8323 H   0  0  0  0  0  0  0  0  0  0  0  0
   -2.9107   -1.4652    0.0239 H   0  0  0  0  0  0  0  0  0  0  0  0
    0.2145   -2.0755    0.1924 H   0  0  0  0  0  0  0  0  0  0  0  0
  1  2  1  0
  2  3  1  0
  3  4  1  0
  4  5  2  0
  5  6  1  0
  6  7  1  0
  6  8  1  0
  8  9  1  0
  8  2  1  0
  9  2  1  0
  1 10  1  0
  1 11  1  0
  1 12  1  0
  3 13  1  0
  3 14  1  0
  4 15  1  0
  5 16  1  0
  6 17  1  0
  7 18  1  0
  8 19  1  0
M  END
