
     RDKit          3D

 17 19  0  0  0  0  0  0  0  0999 V2000
    2.2259   -0.0452   -0.0658 C   0  0  0  0  0  0  0  0  0  0  0  0
    0.7422   -0.0003   -0.1517 C   0  0  0  0  0  0  0  0  0  0  0  0
    0.0976   -0.4806   -1.3147 O   0  0  0  0  0  0  0  0  0  0  0  0
   -1.2470   -0.3158   -1.0027 C   0  0  0  0  0  0  0  0  0  0  0  0
   -1.3029   -1.0021    0.3494 C   0  0  0  0  0  0  0  0  0  0  0  0
   -0.1343   -0.2329    0.9885 C   0  0  0  0  0  0  0  0  0  0  0  0
   -0.0748    1.1072    0.3530 C   0  0  0  0  0  0  0  0  0  0  0  0
   -1.2451    1.0992   -0.5566 C   0  0  0  0  0  0  0  0  0  0  0  0
   -2.0094    1.9543   -0.8804 O   0  0  0  0  0  0  0  0  0  0  0  0
    2.7116    0.2079   -1.0065 H   0  0  0  0  0  0  0  0  0  0  0  0
    2.5459    0.6892    0.7109 H   0  0  0  0  0  0  0  0  0  0  0  0
    2.5270   -1.0454    0.3321 H   0  0  0  0  0  0  0  0  0  0  0  0
   -1.9619   -0.6060   -1.7182 H   0  0  0  0  0  0  0  0  0  0  0  0
   -2.2452   -0.7991    0.8532 H   0  0  0  0  0  0  0  0  0  0  0  0
   -1.0448   -2.0574    0.2237 H   0  0  0  0  0  0  0  0  0  0  0  0
    0.1604   -0.4452    2.0004 H   0  0  0  0  0  0  0  0  0  0  0  0
    0.2550    1.9723    0.8850 H   0  0  0  0  0  0  0  0  0  0  0  0
  1  2  1  0
  2  3  1  0
  3  4  1  0
  4  5  1  0
  5  6  1  0
  6  7  1  0
  7  8  1  0
  8  9  2  0
  6  2  1  0
  7  2  1  0
  8  4  1  0
  1 10  1  0
  1 11  1  0
  1 12  1  0
  4 13  1  0
  5 14  1  0
  5 15  1  0
  6 16  1  0
  7 17  1  0
M  END
