
     RDKit          3D

 21 24  0  0  0  0  0  0  0  0999 V2000
   -1.8099    0.1811   -0.9919 C   0  0  0  0  0  0  0  0  0  0  0  0
   -0.9586   -0.0151    0.0627 C   0  0  0  0  0  0  0  0  0  0  0  0
   -1.3238   -0.3720    1.4800 C   0  0  0  0  0  0  0  0  0  0  0  0
    0.1806   -0.3088    1.4901 C   0  0  0  0  0  0  0  0  0  0  0  0
    0.1173   -1.0533    0.1962 C   0  0  0  0  0  0  0  0  0  0  0  0
    1.3122   -0.5930   -0.5737 C   0  0  0  0  0  0  0  0  0  0  0  0
    2.3885    0.2115    0.0365 C   0  0  0  0  0  0  0  0  0  0  0  0
    1.1591    0.9499   -0.3415 C   0  0  0  0  0  0  0  0  0  0  0  0
    0.0379    0.9263    0.6484 C   0  0  0  0  0  0  0  0  0  0  0  0
   -2.0914    1.2568   -1.1441 H   0  0  0  0  0  0  0  0  0  0  0  0
   -2.7979   -0.3438   -0.8699 H   0  0  0  0  0  0  0  0  0  0  0  0
   -1.4192   -0.1567   -1.9727 H   0  0  0  0  0  0  0  0  0  0  0  0
   -1.8508    0.3826    2.0620 H   0  0  0  0  0  0  0  0  0  0  0  0
   -1.6702   -1.4150    1.5532 H   0  0  0  0  0  0  0  0  0  0  0  0
    0.7902   -0.4556    2.2671 H   0  0  0  0  0  0  0  0  0  0  0  0
   -0.1537   -2.0913    0.1924 H   0  0  0  0  0  0  0  0  0  0  0  0
    1.4027   -0.9275   -1.6041 H   0  0  0  0  0  0  0  0  0  0  0  0
    3.3242    0.2900   -0.5528 H   0  0  0  0  0  0  0  0  0  0  0  0
    2.5924    0.1841    1.1346 H   0  0  0  0  0  0  0  0  0  0  0  0
    1.0589    1.5119   -1.2687 H   0  0  0  0  0  0  0  0  0  0  0  0
   -0.2883    1.8380    1.1068 H   0  0  0  0  0  0  0  0  0  0  0  0
  1  2  1  0
  2  3  1  0
  3  4  1  0
  4  5  1  0
  5  6  1  0
  6  7  1  0
  7  8  1  0
  8  9  1  0
  5  2  1  0
  8  6  1  0
  9  2  1  0
  9  4  1  0
  1 10  1  0
  1 11  1  0
  1 12  1  0
  3 13  1  0
  3 14  1  0
  4 15  1  0
  5 16  1  0
  6 17  1  0
  7 18  1  0
  7 19  1  0
  8 20  1  0
  9 21  1  0
M  END
