
     RDKit          3D

 17 19  0  0  0  0  0  0  0  0999 V2000
    2.1531   -0.5310    0.1215 C   0  0  0  0  0  0  0  0  0  0  0  0
    0.6778   -0.3513    0.0147 C   0  0  0  0  0  0  0  0  0  0  0  0
   -0.2097   -0.6013    1.1694 C   0  0  0  0  0  0  0  0  0  0  0  0
   -0.2089   -1.3817    2.0774 O   0  0  0  0  0  0  0  0  0  0  0  0
   -1.0769    0.4995    0.7313 C   0  0  0  0  0  0  0  0  0  0  0  0
   -2.0583    0.0421   -0.3566 C   0  0  0  0  0  0  0  0  0  0  0  0
   -1.2914   -0.4123   -1.4023 O   0  0  0  0  0  0  0  0  0  0  0  0
    0.0127    0.0317   -1.2560 C   0  0  0  0  0  0  0  0  0  0  0  0
    0.0460    0.9668   -0.1519 C   0  0  0  0  0  0  0  0  0  0  0  0
    2.4020   -0.9760    1.1030 H   0  0  0  0  0  0  0  0  0  0  0  0
    2.7295    0.4213    0.0112 H   0  0  0  0  0  0  0  0  0  0  0  0
    2.4870   -1.1726   -0.7259 H   0  0  0  0  0  0  0  0  0  0  0  0
   -1.4714    1.1834    1.4640 H   0  0  0  0  0  0  0  0  0  0  0  0
   -2.7569   -0.6951    0.0429 H   0  0  0  0  0  0  0  0  0  0  0  0
   -2.5738    0.9871   -0.6840 H   0  0  0  0  0  0  0  0  0  0  0  0
    0.6229    0.0710   -2.1546 H   0  0  0  0  0  0  0  0  0  0  0  0
    0.5164    1.9184   -0.0765 H   0  0  0  0  0  0  0  0  0  0  0  0
  1  2  1  0
  2  3  1  0
  3  4  2  0
  3  5  1  0
  5  6  1  0
  6  7  1  0
  7  8  1  0
  8  9  1  0
  8  2  1  0
  9  2  1  0
  9  5  1  0
  1 10  1  0
  1 11  1  0
  1 12  1  0
  5 13  1  0
  6 14  1  0
  6 15  1  0
  8 16  1  0
  9 17  1  0
M  END
