
     RDKit          3D

 17 18  0  0  0  0  0  0  0  0999 V2000
    1.7569   -0.4243    0.1426 C   0  0  0  0  0  0  0  0  0  0  0  0
    0.5367    0.2528   -0.4078 C   0  0  0  0  0  0  0  0  0  0  0  0
    0.0245    1.5192    0.1383 C   0  0  0  0  0  0  0  0  0  0  0  0
   -0.7467    0.2545    0.3249 C   0  0  0  0  0  0  0  0  0  0  0  0
   -0.9092   -0.3531    1.6467 C   0  0  0  0  0  0  0  0  0  0  0  0
   -1.5751    0.2367    2.4832 O   0  0  0  0  0  0  0  0  0  0  0  0
   -1.3507   -0.4100   -0.9015 C   0  0  0  0  0  0  0  0  0  0  0  0
   -0.0791   -0.2547   -1.6481 C   0  0  0  0  0  0  0  0  0  0  0  0
    0.3114   -0.4485   -2.7727 O   0  0  0  0  0  0  0  0  0  0  0  0
    2.5552    0.3106    0.2317 H   0  0  0  0  0  0  0  0  0  0  0  0
    2.0974   -1.1643   -0.6372 H   0  0  0  0  0  0  0  0  0  0  0  0
    1.5715   -1.0127    1.0525 H   0  0  0  0  0  0  0  0  0  0  0  0
   -0.4308    2.2912   -0.5323 H   0  0  0  0  0  0  0  0  0  0  0  0
    0.5013    1.9104    1.0465 H   0  0  0  0  0  0  0  0  0  0  0  0
   -0.4675   -1.3041    1.9238 H   0  0  0  0  0  0  0  0  0  0  0  0
   -1.5689   -1.4912   -0.7658 H   0  0  0  0  0  0  0  0  0  0  0  0
   -2.2271    0.0875   -1.3248 H   0  0  0  0  0  0  0  0  0  0  0  0
  1  2  1  0
  2  3  1  0
  3  4  1  0
  4  5  1  0
  5  6  2  0
  4  7  1  0
  7  8  1  0
  8  9  2  0
  4  2  1  0
  8  2  1  0
  1 10  1  0
  1 11  1  0
  1 12  1  0
  3 13  1  0
  3 14  1  0
  5 15  1  0
  7 16  1  0
  7 17  1  0
M  END
