
     RDKit          3D

 16 17  0  0  0  0  0  0  0  0999 V2000
    1.9722    0.3015    0.1093 C   0  0  0  0  0  0  0  0  0  0  0  0
    0.5431    0.1509   -0.3101 C   0  0  0  0  0  0  0  0  0  0  0  0
    0.3212   -0.2288   -1.6215 O   0  0  0  0  0  0  0  0  0  0  0  0
    0.0247   -1.2234   -0.7092 C   0  0  0  0  0  0  0  0  0  0  0  0
   -1.3744   -1.2865   -0.2860 C   0  0  0  0  0  0  0  0  0  0  0  0
   -1.7108   -0.2225    0.4259 C   0  0  0  0  0  0  0  0  0  0  0  0
   -0.5365    0.6834    0.5530 C   0  0  0  0  0  0  0  0  0  0  0  0
   -0.8644    2.0031    0.3384 O   0  0  0  0  0  0  0  0  0  0  0  0
    2.6518   -0.2701   -0.5441 H   0  0  0  0  0  0  0  0  0  0  0  0
    2.0862    0.0540    1.1833 H   0  0  0  0  0  0  0  0  0  0  0  0
    2.2429    1.3825   -0.0505 H   0  0  0  0  0  0  0  0  0  0  0  0
    0.7375   -2.0284   -0.4883 H   0  0  0  0  0  0  0  0  0  0  0  0
   -2.0553   -2.0837   -0.5135 H   0  0  0  0  0  0  0  0  0  0  0  0
   -2.6688    0.0118    0.8726 H   0  0  0  0  0  0  0  0  0  0  0  0
   -0.1940    0.5911    1.6231 H   0  0  0  0  0  0  0  0  0  0  0  0
   -1.1753    2.1651   -0.5825 H   0  0  0  0  0  0  0  0  0  0  0  0
  1  2  1  0
  2  3  1  0
  3  4  1  0
  4  5  1  0
  5  6  2  0
  6  7  1  0
  7  8  1  0
  4  2  1  0
  7  2  1  0
  1  9  1  0
  1 10  1  0
  1 11  1  0
  4 12  1  0
  5 13  1  0
  6 14  1  0
  7 15  1  0
  8 16  1  0
M  END
