
     RDKit          3D

 19 21  0  0  0  0  0  0  0  0999 V2000
   -1.2856   -0.9867    0.4126 C   0  0  0  0  0  0  0  0  0  0  0  0
   -0.6314   -0.3833   -0.7712 C   0  0  0  0  0  0  0  0  0  0  0  0
   -1.2093    1.0894   -0.7758 C   0  0  0  0  0  0  0  0  0  0  0  0
   -0.5553    1.5268    0.5177 C   0  0  0  0  0  0  0  0  0  0  0  0
    0.5018    0.7858    0.7093 C   0  0  0  0  0  0  0  0  0  0  0  0
    1.6971    0.0723    1.0987 C   0  0  0  0  0  0  0  0  0  0  0  0
    1.8244   -0.9826    0.2472 C   0  0  0  0  0  0  0  0  0  0  0  0
    0.6746   -0.9500   -0.7517 C   0  0  0  0  0  0  0  0  0  0  0  0
    0.6643    0.4074   -0.8309 C   0  0  0  0  0  0  0  0  0  0  0  0
   -0.7762   -0.8889    1.3681 H   0  0  0  0  0  0  0  0  0  0  0  0
   -1.3710   -2.1013    0.2151 H   0  0  0  0  0  0  0  0  0  0  0  0
   -2.3451   -0.7036    0.5900 H   0  0  0  0  0  0  0  0  0  0  0  0
   -0.9185    1.6407   -1.6450 H   0  0  0  0  0  0  0  0  0  0  0  0
   -2.2772    1.0053   -0.7265 H   0  0  0  0  0  0  0  0  0  0  0  0
   -0.7937    2.2759    1.2424 H   0  0  0  0  0  0  0  0  0  0  0  0
    2.2823    0.4046    1.9252 H   0  0  0  0  0  0  0  0  0  0  0  0
    2.6189   -1.6866    0.3171 H   0  0  0  0  0  0  0  0  0  0  0  0
    0.9258   -1.6221   -1.6333 H   0  0  0  0  0  0  0  0  0  0  0  0
    0.9741    1.0968   -1.5090 H   0  0  0  0  0  0  0  0  0  0  0  0
  1  2  1  0
  2  3  1  0
  3  4  1  0
  4  5  2  0
  5  6  1  0
  6  7  2  0
  7  8  1  0
  8  9  1  0
  8  2  1  0
  9  2  1  0
  9  5  1  0
  1 10  1  0
  1 11  1  0
  1 12  1  0
  3 13  1  0
  3 14  1  0
  4 15  1  0
  6 16  1  0
  7 17  1  0
  8 18  1  0
  9 19  1  0
M  END
