
     RDKit          3D

 21 22  0  0  0  0  0  0  0  0999 V2000
   -0.9816    1.6927   -0.4347 C   0  0  0  0  0  0  0  0  0  0  0  0
   -0.3825    0.4450    0.1533 C   0  0  0  0  0  0  0  0  0  0  0  0
    0.9226    0.8402    0.8026 C   0  0  0  0  0  0  0  0  0  0  0  0
    1.9237   -0.2045    0.4374 C   0  0  0  0  0  0  0  0  0  0  0  0
    1.1877   -1.2413   -0.3685 C   0  0  0  0  0  0  0  0  0  0  0  0
   -0.0870   -0.6175   -0.8531 C   0  0  0  0  0  0  0  0  0  0  0  0
   -1.1710   -1.4919   -0.7863 O   0  0  0  0  0  0  0  0  0  0  0  0
   -1.9495   -1.1194    0.2779 C   0  0  0  0  0  0  0  0  0  0  0  0
   -1.2350   -0.2035    1.0404 O   0  0  0  0  0  0  0  0  0  0  0  0
   -2.0595    1.6445   -0.5987 H   0  0  0  0  0  0  0  0  0  0  0  0
   -0.7124    2.5709    0.2165 H   0  0  0  0  0  0  0  0  0  0  0  0
   -0.4315    1.8871   -1.3940 H   0  0  0  0  0  0  0  0  0  0  0  0
    1.2818    1.8438    0.4367 H   0  0  0  0  0  0  0  0  0  0  0  0
    0.7571    0.9643    1.8831 H   0  0  0  0  0  0  0  0  0  0  0  0
    2.7521    0.2449   -0.1697 H   0  0  0  0  0  0  0  0  0  0  0  0
    2.3911   -0.6241    1.3592 H   0  0  0  0  0  0  0  0  0  0  0  0
    1.8519   -1.5476   -1.2116 H   0  0  0  0  0  0  0  0  0  0  0  0
    0.9911   -2.1295    0.2549 H   0  0  0  0  0  0  0  0  0  0  0  0
    0.0388   -0.2681   -1.8791 H   0  0  0  0  0  0  0  0  0  0  0  0
   -2.9126   -0.6366   -0.0334 H   0  0  0  0  0  0  0  0  0  0  0  0
   -2.1755   -2.0492    0.8670 H   0  0  0  0  0  0  0  0  0  0  0  0
  1  2  1  0
  2  3  1  0
  3  4  1  0
  4  5  1  0
  5  6  1  0
  6  7  1  0
  7  8  1  0
  8  9  1  0
  6  2  1  0
  9  2  1  0
  1 10  1  0
  1 11  1  0
  1 12  1  0
  3 13  1  0
  3 14  1  0
  4 15  1  0
  4 16  1  0
  5 17  1  0
  5 18  1  0
  6 19  1  0
  8 20  1  0
  8 21  1  0
M  END
