
     RDKit          3D

 17 18  0  0  0  0  0  0  0  0999 V2000
   -1.8560   -0.5448   -0.4316 C   0  0  0  0  0  0  0  0  0  0  0  0
   -0.5665    0.0163    0.1236 C   0  0  0  0  0  0  0  0  0  0  0  0
   -0.5052    1.4718    0.2782 C   0  0  0  0  0  0  0  0  0  0  0  0
    0.3651    0.7291   -0.7555 C   0  0  0  0  0  0  0  0  0  0  0  0
    1.6833    0.7084   -0.4484 O   0  0  0  0  0  0  0  0  0  0  0  0
    2.2080   -0.4675   -0.0021 C   0  0  0  0  0  0  0  0  0  0  0  0
    1.4280   -1.0943    0.9991 O   0  0  0  0  0  0  0  0  0  0  0  0
    0.0707   -0.8464    1.1415 C   0  0  0  0  0  0  0  0  0  0  0  0
   -0.6292   -1.3108    2.0758 O   0  0  0  0  0  0  0  0  0  0  0  0
   -2.3918    0.1539   -1.0867 H   0  0  0  0  0  0  0  0  0  0  0  0
   -1.6857   -1.4707   -1.0387 H   0  0  0  0  0  0  0  0  0  0  0  0
   -2.5375   -0.8312    0.3810 H   0  0  0  0  0  0  0  0  0  0  0  0
   -0.0120    1.8886    1.1675 H   0  0  0  0  0  0  0  0  0  0  0  0
   -1.2446    2.1585   -0.1730 H   0  0  0  0  0  0  0  0  0  0  0  0
    0.0572    0.8220   -1.8239 H   0  0  0  0  0  0  0  0  0  0  0  0
    2.4144   -1.1322   -0.8652 H   0  0  0  0  0  0  0  0  0  0  0  0
    3.2016   -0.2506    0.4582 H   0  0  0  0  0  0  0  0  0  0  0  0
  1  2  1  0
  2  3  1  0
  3  4  1  0
  4  5  1  0
  5  6  1  0
  6  7  1  0
  7  8  1  0
  8  9  2  0
  4  2  1  0
  8  2  1  0
  1 10  1  0
  1 11  1  0
  1 12  1  0
  3 13  1  0
  3 14  1  0
  4 15  1  0
  6 16  1  0
  6 17  1  0
M  END
