
     RDKit          3D

 20 21  0  0  0  0  0  0  0  0999 V2000
   -0.9545    1.4502    0.5128 C   0  0  0  0  0  0  0  0  0  0  0  0
   -0.7624    0.1784   -0.2329 C   0  0  0  0  0  0  0  0  0  0  0  0
   -1.9399   -0.7005   -0.3734 C   0  0  0  0  0  0  0  0  0  0  0  0
   -0.7782   -1.1551    0.3928 C   0  0  0  0  0  0  0  0  0  0  0  0
    0.3649   -1.6209   -0.5099 C   0  0  0  0  0  0  0  0  0  0  0  0
    0.5922   -0.1277   -0.7440 C   0  0  0  0  0  0  0  0  0  0  0  0
    1.7629    0.3036    0.1020 C   0  0  0  0  0  0  0  0  0  0  0  0
    1.8353    1.6429    0.3305 O   0  0  0  0  0  0  0  0  0  0  0  0
   -0.7249    1.4152    1.5787 H   0  0  0  0  0  0  0  0  0  0  0  0
   -0.3913    2.2550   -0.0332 H   0  0  0  0  0  0  0  0  0  0  0  0
   -2.0370    1.7492    0.3881 H   0  0  0  0  0  0  0  0  0  0  0  0
   -2.1647   -1.1437   -1.3712 H   0  0  0  0  0  0  0  0  0  0  0  0
   -2.8344   -0.4404    0.1941 H   0  0  0  0  0  0  0  0  0  0  0  0
   -0.7297   -1.2981    1.4586 H   0  0  0  0  0  0  0  0  0  0  0  0
    0.0050   -2.0813   -1.4708 H   0  0  0  0  0  0  0  0  0  0  0  0
    1.1729   -2.1486   -0.0116 H   0  0  0  0  0  0  0  0  0  0  0  0
    0.6882    0.1397   -1.8214 H   0  0  0  0  0  0  0  0  0  0  0  0
    2.6899   -0.0100   -0.4447 H   0  0  0  0  0  0  0  0  0  0  0  0
    1.6920   -0.2396    1.0639 H   0  0  0  0  0  0  0  0  0  0  0  0
    2.5136    1.8319    0.9915 H   0  0  0  0  0  0  0  0  0  0  0  0
  1  2  1  0
  2  3  1  0
  3  4  1  0
  4  5  1  0
  5  6  1  0
  6  7  1  0
  7  8  1  0
  4  2  1  0
  6  2  1  0
  1  9  1  0
  1 10  1  0
  1 11  1  0
  3 12  1  0
  3 13  1  0
  4 14  1  0
  5 15  1  0
  5 16  1  0
  6 17  1  0
  7 18  1  0
  7 19  1  0
  8 20  1  0
M  END
