
     RDKit          3D

 21 22  0  0  0  0  0  0  0  0999 V2000
   -0.8029    0.2129    1.7802 C   0  0  0  0  0  0  0  0  0  0  0  0
   -0.1456   -0.1593    0.4786 C   0  0  0  0  0  0  0  0  0  0  0  0
    0.9594   -1.1559    0.5467 C   0  0  0  0  0  0  0  0  0  0  0  0
    1.7518   -0.2619   -0.4113 C   0  0  0  0  0  0  0  0  0  0  0  0
    0.8665    0.8786    0.0296 C   0  0  0  0  0  0  0  0  0  0  0  0
    0.1776    1.5884   -1.0521 C   0  0  0  0  0  0  0  0  0  0  0  0
   -0.9221    0.9592   -1.4533 C   0  0  0  0  0  0  0  0  0  0  0  0
   -1.1132   -0.2932   -0.6633 C   0  0  0  0  0  0  0  0  0  0  0  0
   -0.9505   -1.4342   -1.4084 O   0  0  0  0  0  0  0  0  0  0  0  0
   -0.3070   -0.2678    2.6416 H   0  0  0  0  0  0  0  0  0  0  0  0
   -0.8355    1.3280    1.8662 H   0  0  0  0  0  0  0  0  0  0  0  0
   -1.8415   -0.1827    1.7430 H   0  0  0  0  0  0  0  0  0  0  0  0
    1.4147   -1.1473    1.5728 H   0  0  0  0  0  0  0  0  0  0  0  0
    0.8139   -2.1308    0.0931 H   0  0  0  0  0  0  0  0  0  0  0  0
    2.7908   -0.2351   -0.0941 H   0  0  0  0  0  0  0  0  0  0  0  0
    1.6470   -0.5257   -1.4601 H   0  0  0  0  0  0  0  0  0  0  0  0
    1.3159    1.4842    0.8269 H   0  0  0  0  0  0  0  0  0  0  0  0
    0.5074    2.5219   -1.4920 H   0  0  0  0  0  0  0  0  0  0  0  0
   -1.6170    1.2594   -2.2317 H   0  0  0  0  0  0  0  0  0  0  0  0
   -2.1493   -0.2809   -0.2560 H   0  0  0  0  0  0  0  0  0  0  0  0
   -1.5604   -2.1576   -1.0565 H   0  0  0  0  0  0  0  0  0  0  0  0
  1  2  1  0
  2  3  1  0
  3  4  1  0
  4  5  1  0
  5  6  1  0
  6  7  2  0
  7  8  1  0
  8  9  1  0
  5  2  1  0
  8  2  1  0
  1 10  1  0
  1 11  1  0
  1 12  1  0
  3 13  1  0
  3 14  1  0
  4 15  1  0
  4 16  1  0
  5 17  1  0
  6 18  1  0
  7 19  1  0
  8 20  1  0
  9 21  1  0
M  END
