
     RDKit          3D

 19 21  0  0  0  0  0  0  0  0999 V2000
   -2.0101   -0.5527   -0.1058 C   0  0  0  0  0  0  0  0  0  0  0  0
   -0.5774   -0.2346    0.0717 C   0  0  0  0  0  0  0  0  0  0  0  0
    0.1671   -0.9628    1.1170 C   0  0  0  0  0  0  0  0  0  0  0  0
    1.4524   -1.0589    0.7930 C   0  0  0  0  0  0  0  0  0  0  0  0
    1.6663   -0.3810   -0.5334 C   0  0  0  0  0  0  0  0  0  0  0  0
    0.9886    0.9332   -0.6857 C   0  0  0  0  0  0  0  0  0  0  0  0
   -0.2842    1.2552    0.0275 C   0  0  0  0  0  0  0  0  0  0  0  0
   -0.1741    1.7839    1.2911 O   0  0  0  0  0  0  0  0  0  0  0  0
    0.3290   -0.3745   -1.1125 C   0  0  0  0  0  0  0  0  0  0  0  0
   -2.2132   -1.6253   -0.1101 H   0  0  0  0  0  0  0  0  0  0  0  0
   -2.5713   -0.1044    0.7636 H   0  0  0  0  0  0  0  0  0  0  0  0
   -2.3769   -0.0313   -1.0138 H   0  0  0  0  0  0  0  0  0  0  0  0
   -0.2766   -1.3601    2.0180 H   0  0  0  0  0  0  0  0  0  0  0  0
    2.2509   -1.5319    1.3495 H   0  0  0  0  0  0  0  0  0  0  0  0
    2.5081   -0.6334   -1.1538 H   0  0  0  0  0  0  0  0  0  0  0  0
    1.3574    1.6229   -1.4723 H   0  0  0  0  0  0  0  0  0  0  0  0
   -1.0012    1.7527   -0.6620 H   0  0  0  0  0  0  0  0  0  0  0  0
    0.7446    2.0549    1.5321 H   0  0  0  0  0  0  0  0  0  0  0  0
    0.0202   -0.5519   -2.1142 H   0  0  0  0  0  0  0  0  0  0  0  0
  1  2  1  0
  2  3  1  0
  3  4  2  0
  4  5  1  0
  5  6  1  0
  6  7  1  0
  7  8  1  0
  6  9  1  0
  7  2  1  0
  9  2  1  0
  9  5  1  0
  1 10  1  0
  1 11  1  0
  1 12  1  0
  3 13  1  0
  4 14  1  0
  5 15  1  0
  6 16  1  0
  7 17  1  0
  8 18  1  0
  9 19  1  0
M  END
