
     RDKit          3D

 21 23  0  0  0  0  0  0  0  0999 V2000
    2.2956   -0.1366    0.5847 C   0  0  0  0  0  0  0  0  0  0  0  0
    0.9648   -0.3818   -0.0608 C   0  0  0  0  0  0  0  0  0  0  0  0
    0.8505   -0.3221   -1.5782 C   0  0  0  0  0  0  0  0  0  0  0  0
    0.3322    0.7546   -0.7436 C   0  0  0  0  0  0  0  0  0  0  0  0
   -1.1030    0.8708   -0.3244 C   0  0  0  0  0  0  0  0  0  0  0  0
   -1.8633   -0.4209   -0.4458 C   0  0  0  0  0  0  0  0  0  0  0  0
   -1.1276   -0.8590    0.8163 C   0  0  0  0  0  0  0  0  0  0  0  0
   -1.1133    0.6317    1.1927 C   0  0  0  0  0  0  0  0  0  0  0  0
    0.1372   -1.2945    0.5248 O   0  0  0  0  0  0  0  0  0  0  0  0
    2.7920    0.7353    0.1342 H   0  0  0  0  0  0  0  0  0  0  0  0
    2.9236   -1.0643    0.5497 H   0  0  0  0  0  0  0  0  0  0  0  0
    2.1450    0.0829    1.6533 H   0  0  0  0  0  0  0  0  0  0  0  0
    0.2421   -1.0758   -2.0941 H   0  0  0  0  0  0  0  0  0  0  0  0
    1.8152   -0.1211   -2.1068 H   0  0  0  0  0  0  0  0  0  0  0  0
    0.8734    1.7244   -0.7361 H   0  0  0  0  0  0  0  0  0  0  0  0
   -1.6669    1.7300   -0.6626 H   0  0  0  0  0  0  0  0  0  0  0  0
   -2.9365   -0.2403   -0.2084 H   0  0  0  0  0  0  0  0  0  0  0  0
   -1.6517   -0.9870   -1.3453 H   0  0  0  0  0  0  0  0  0  0  0  0
   -1.6804   -1.5003    1.4933 H   0  0  0  0  0  0  0  0  0  0  0  0
   -2.0417    0.9734    1.6529 H   0  0  0  0  0  0  0  0  0  0  0  0
   -0.1872    0.9005    1.7041 H   0  0  0  0  0  0  0  0  0  0  0  0
  1  2  1  0
  2  3  1  0
  3  4  1  0
  4  5  1  0
  5  6  1  0
  6  7  1  0
  7  8  1  0
  7  9  1  0
  4  2  1  0
  8  5  1  0
  9  2  1  0
  1 10  1  0
  1 11  1  0
  1 12  1  0
  3 13  1  0
  3 14  1  0
  4 15  1  0
  5 16  1  0
  6 17  1  0
  6 18  1  0
  7 19  1  0
  8 20  1  0
  8 21  1  0
M  END
