
     RDKit          3D

 21 23  0  0  0  0  0  0  0  0999 V2000
    2.2827   -0.4457    0.1397 C   0  0  0  0  0  0  0  0  0  0  0  0
    0.8391   -0.1195    0.2559 C   0  0  0  0  0  0  0  0  0  0  0  0
    0.6152    1.3984    0.1677 C   0  0  0  0  0  0  0  0  0  0  0  0
   -0.6947    1.0313   -0.5256 C   0  0  0  0  0  0  0  0  0  0  0  0
   -1.6784    0.5794    0.5466 C   0  0  0  0  0  0  0  0  0  0  0  0
   -1.1896   -0.8264    0.8098 C   0  0  0  0  0  0  0  0  0  0  0  0
   -0.9685   -1.2923   -0.6396 C   0  0  0  0  0  0  0  0  0  0  0  0
    0.0144   -0.2090   -1.0035 C   0  0  0  0  0  0  0  0  0  0  0  0
    0.1191   -0.7427    1.2546 O   0  0  0  0  0  0  0  0  0  0  0  0
    2.8284    0.0702    0.9818 H   0  0  0  0  0  0  0  0  0  0  0  0
    2.4218   -1.5242    0.2849 H   0  0  0  0  0  0  0  0  0  0  0  0
    2.6634   -0.0533   -0.8126 H   0  0  0  0  0  0  0  0  0  0  0  0
    0.5194    1.9054    1.1236 H   0  0  0  0  0  0  0  0  0  0  0  0
    1.3192    1.8011   -0.5741 H   0  0  0  0  0  0  0  0  0  0  0  0
   -1.0614    1.7251   -1.2630 H   0  0  0  0  0  0  0  0  0  0  0  0
   -2.7141    0.5959    0.2165 H   0  0  0  0  0  0  0  0  0  0  0  0
   -1.4849    1.1786    1.4731 H   0  0  0  0  0  0  0  0  0  0  0  0
   -1.8442   -1.4549    1.3707 H   0  0  0  0  0  0  0  0  0  0  0  0
   -0.5721   -2.3008   -0.6933 H   0  0  0  0  0  0  0  0  0  0  0  0
   -1.9021   -1.1017   -1.1637 H   0  0  0  0  0  0  0  0  0  0  0  0
    0.4873   -0.2148   -1.9495 H   0  0  0  0  0  0  0  0  0  0  0  0
  1  2  1  0
  2  3  1  0
  3  4  1  0
  4  5  1  0
  5  6  1  0
  6  7  1  0
  7  8  1  0
  6  9  1  0
  8  2  1  0
  9  2  1  0
  8  4  1  0
  1 10  1  0
  1 11  1  0
  1 12  1  0
  3 13  1  0
  3 14  1  0
  4 15  1  0
  5 16  1  0
  5 17  1  0
  6 18  1  0
  7 19  1  0
  7 20  1  0
  8 21  1  0
M  END
