
     RDKit          3D

 16 18  0  0  0  0  0  0  0  0999 V2000
    1.9463   -0.1895    0.2606 C   0  0  0  0  0  0  0  0  0  0  0  0
    0.4994   -0.1027    0.1910 C   0  0  0  0  0  0  0  0  0  0  0  0
   -0.2752   -0.8808   -0.8013 C   0  0  0  0  0  0  0  0  0  0  0  0
   -1.3169   -0.6828    0.2884 C   0  0  0  0  0  0  0  0  0  0  0  0
   -0.2625   -0.7329    1.1927 O   0  0  0  0  0  0  0  0  0  0  0  0
   -1.6050    0.7989    0.2260 C   0  0  0  0  0  0  0  0  0  0  0  0
   -1.0232    1.6471    1.1397 O   0  0  0  0  0  0  0  0  0  0  0  0
   -0.1425    1.2838    0.1557 C   0  0  0  0  0  0  0  0  0  0  0  0
    2.2625   -1.1401    0.7326 H   0  0  0  0  0  0  0  0  0  0  0  0
    2.3471    0.6667    0.8547 H   0  0  0  0  0  0  0  0  0  0  0  0
    2.3948   -0.0893   -0.7469 H   0  0  0  0  0  0  0  0  0  0  0  0
    0.0827   -1.9222   -0.8963 H   0  0  0  0  0  0  0  0  0  0  0  0
   -0.5558   -0.4019   -1.7434 H   0  0  0  0  0  0  0  0  0  0  0  0
   -2.1165   -1.3736    0.3643 H   0  0  0  0  0  0  0  0  0  0  0  0
   -2.3041    1.1932   -0.5147 H   0  0  0  0  0  0  0  0  0  0  0  0
    0.0690    1.9261   -0.7032 H   0  0  0  0  0  0  0  0  0  0  0  0
  1  2  1  0
  2  3  1  0
  3  4  1  0
  4  5  1  0
  4  6  1  0
  6  7  1  0
  7  8  1  0
  5  2  1  0
  8  6  1  0
  8  2  1  0
  1  9  1  0
  1 10  1  0
  1 11  1  0
  3 12  1  0
  3 13  1  0
  4 14  1  0
  6 15  1  0
  8 16  1  0
M  END
