
     RDKit          3D

 23 24  0  0  0  0  0  0  0  0999 V2000
   -1.9576    1.3323    0.7289 C   0  0  0  0  0  0  0  0  0  0  0  0
   -0.6458    0.9433    0.1156 C   0  0  0  0  0  0  0  0  0  0  0  0
    0.6011    0.9594    0.9448 C   0  0  0  0  0  0  0  0  0  0  0  0
    1.0226   -0.3740    0.4021 C   0  0  0  0  0  0  0  0  0  0  0  0
    2.1840   -0.3181   -0.5456 C   0  0  0  0  0  0  0  0  0  0  0  0
    2.4911   -1.6028   -0.9870 O   0  0  0  0  0  0  0  0  0  0  0  0
   -0.3456   -0.4653   -0.2574 C   0  0  0  0  0  0  0  0  0  0  0  0
   -1.2516   -1.5810    0.1111 C   0  0  0  0  0  0  0  0  0  0  0  0
   -0.6394    0.5200   -1.2976 C   0  0  0  0  0  0  0  0  0  0  0  0
   -2.1338    2.4100    0.4440 H   0  0  0  0  0  0  0  0  0  0  0  0
   -2.7937    0.7718    0.2791 H   0  0  0  0  0  0  0  0  0  0  0  0
   -1.9619    1.3200    1.8304 H   0  0  0  0  0  0  0  0  0  0  0  0
    1.2850    1.7969    0.8195 H   0  0  0  0  0  0  0  0  0  0  0  0
    0.3261    0.8716    2.0286 H   0  0  0  0  0  0  0  0  0  0  0  0
    1.1415   -1.1941    1.1137 H   0  0  0  0  0  0  0  0  0  0  0  0
    2.0134    0.3385   -1.4225 H   0  0  0  0  0  0  0  0  0  0  0  0
    3.0465    0.1223    0.0074 H   0  0  0  0  0  0  0  0  0  0  0  0
    3.4843   -1.5904   -1.1662 H   0  0  0  0  0  0  0  0  0  0  0  0
   -2.2397   -1.2599    0.5107 H   0  0  0  0  0  0  0  0  0  0  0  0
   -0.7102   -2.2154    0.8730 H   0  0  0  0  0  0  0  0  0  0  0  0
   -1.4412   -2.1974   -0.7894 H   0  0  0  0  0  0  0  0  0  0  0  0
    0.1441    0.9581   -1.9536 H   0  0  0  0  0  0  0  0  0  0  0  0
   -1.6194    0.4540   -1.7896 H   0  0  0  0  0  0  0  0  0  0  0  0
  1  2  1  0
  2  3  1  0
  3  4  1  0
  4  5  1  0
  5  6  1  0
  4  7  1  0
  7  8  1  0
  7  9  1  0
  7  2  1  0
  9  2  1  0
  1 10  1  0
  1 11  1  0
  1 12  1  0
  3 13  1  0
  3 14  1  0
  4 15  1  0
  5 16  1  0
  5 17  1  0
  6 18  1  0
  8 19  1  0
  8 20  1  0
  8 21  1  0
  9 22  1  0
  9 23  1  0
M  END
