
     RDKit          3D

 21 22  0  0  0  0  0  0  0  0999 V2000
    1.3395   -0.9246    1.2901 C   0  0  0  0  0  0  0  0  0  0  0  0
    0.7169   -0.1142    0.2883 C   0  0  0  0  0  0  0  0  0  0  0  0
    0.2543    1.2603    0.5689 C   0  0  0  0  0  0  0  0  0  0  0  0
   -0.2303    1.6544   -0.6364 C   0  0  0  0  0  0  0  0  0  0  0  0
    0.0189    0.4895   -1.4871 C   0  0  0  0  0  0  0  0  0  0  0  0
    1.4287    0.0878   -1.0606 C   0  0  0  0  0  0  0  0  0  0  0  0
   -0.4105   -0.6595   -0.5616 C   0  0  0  0  0  0  0  0  0  0  0  0
   -1.7956   -0.3802   -0.0374 C   0  0  0  0  0  0  0  0  0  0  0  0
   -2.0332   -0.9034    1.2089 O   0  0  0  0  0  0  0  0  0  0  0  0
    2.3318   -1.3217    0.9267 H   0  0  0  0  0  0  0  0  0  0  0  0
    1.5913   -0.3354    2.2057 H   0  0  0  0  0  0  0  0  0  0  0  0
    0.7877   -1.8340    1.6349 H   0  0  0  0  0  0  0  0  0  0  0  0
    0.2885    1.8195    1.4954 H   0  0  0  0  0  0  0  0  0  0  0  0
   -0.6868    2.6020   -0.8913 H   0  0  0  0  0  0  0  0  0  0  0  0
   -0.2474    0.4472   -2.4984 H   0  0  0  0  0  0  0  0  0  0  0  0
    1.7622   -0.8878   -1.4199 H   0  0  0  0  0  0  0  0  0  0  0  0
    2.1333    0.9206   -1.0653 H   0  0  0  0  0  0  0  0  0  0  0  0
   -0.2495   -1.6549   -0.9962 H   0  0  0  0  0  0  0  0  0  0  0  0
   -2.5296   -0.7327   -0.7914 H   0  0  0  0  0  0  0  0  0  0  0  0
   -1.9402    0.7373    0.0113 H   0  0  0  0  0  0  0  0  0  0  0  0
   -2.5301   -0.2702    1.8156 H   0  0  0  0  0  0  0  0  0  0  0  0
  1  2  1  0
  2  3  1  0
  3  4  2  0
  4  5  1  0
  5  6  1  0
  5  7  1  0
  7  8  1  0
  8  9  1  0
  6  2  1  0
  7  2  1  0
  1 10  1  0
  1 11  1  0
  1 12  1  0
  3 13  1  0
  4 14  1  0
  5 15  1  0
  6 16  1  0
  6 17  1  0
  7 18  1  0
  8 19  1  0
  8 20  1  0
  9 21  1  0
M  END
