
     RDKit          3D

 19 21  0  0  0  0  0  0  0  0999 V2000
    2.0957    0.0241    0.8618 C   0  0  0  0  0  0  0  0  0  0  0  0
    0.7559    0.0894    0.2928 C   0  0  0  0  0  0  0  0  0  0  0  0
    0.2912    1.0964   -0.7015 C   0  0  0  0  0  0  0  0  0  0  0  0
   -1.2255    1.0517   -0.5817 C   0  0  0  0  0  0  0  0  0  0  0  0
   -1.5610   -0.0833    0.3595 C   0  0  0  0  0  0  0  0  0  0  0  0
   -2.6336   -0.8126   -0.1113 O   0  0  0  0  0  0  0  0  0  0  0  0
   -0.2870   -0.9157    0.3135 C   0  0  0  0  0  0  0  0  0  0  0  0
    0.5390   -0.8724   -0.9059 C   0  0  0  0  0  0  0  0  0  0  0  0
    0.6713    0.2174   -1.7142 O   0  0  0  0  0  0  0  0  0  0  0  0
    2.2329   -0.9264    1.4088 H   0  0  0  0  0  0  0  0  0  0  0  0
    2.4063    0.8740    1.4921 H   0  0  0  0  0  0  0  0  0  0  0  0
    2.8526   -0.0109    0.0227 H   0  0  0  0  0  0  0  0  0  0  0  0
    0.7456    2.0813   -0.7029 H   0  0  0  0  0  0  0  0  0  0  0  0
   -1.6841    0.7894   -1.5797 H   0  0  0  0  0  0  0  0  0  0  0  0
   -1.6535    2.0117   -0.2861 H   0  0  0  0  0  0  0  0  0  0  0  0
   -1.7274    0.3356    1.3717 H   0  0  0  0  0  0  0  0  0  0  0  0
   -2.8936   -1.4839    0.5693 H   0  0  0  0  0  0  0  0  0  0  0  0
   -0.1968   -1.7956    0.9467 H   0  0  0  0  0  0  0  0  0  0  0  0
    1.2719   -1.6703   -1.0555 H   0  0  0  0  0  0  0  0  0  0  0  0
  1  2  1  0
  2  3  1  0
  3  4  1  0
  4  5  1  0
  5  6  1  0
  5  7  1  0
  7  8  1  0
  8  9  1  0
  7  2  1  0
  8  2  1  0
  9  3  1  0
  1 10  1  0
  1 11  1  0
  1 12  1  0
  3 13  1  0
  4 14  1  0
  4 15  1  0
  5 16  1  0
  6 17  1  0
  7 18  1  0
  8 19  1  0
M  END
