
     RDKit          3D

 17 18  0  0  0  0  0  0  0  0999 V2000
   -1.5445    0.4050    0.6813 C   0  0  0  0  0  0  0  0  0  0  0  0
   -0.8097   -0.1055   -0.5139 C   0  0  0  0  0  0  0  0  0  0  0  0
   -1.1679   -1.3580   -1.0770 O   0  0  0  0  0  0  0  0  0  0  0  0
    0.0839   -1.8134   -0.6889 C   0  0  0  0  0  0  0  0  0  0  0  0
    0.5528   -2.9737   -0.5905 O   0  0  0  0  0  0  0  0  0  0  0  0
    0.6241   -0.4768   -0.4485 C   0  0  0  0  0  0  0  0  0  0  0  0
    1.4637   -0.1807    0.7622 C   0  0  0  0  0  0  0  0  0  0  0  0
    0.1747    0.6760   -1.2604 C   0  0  0  0  0  0  0  0  0  0  0  0
    0.4524    1.9611   -0.8115 O   0  0  0  0  0  0  0  0  0  0  0  0
   -1.9996   -0.4576    1.2433 H   0  0  0  0  0  0  0  0  0  0  0  0
   -2.3964    1.0750    0.3708 H   0  0  0  0  0  0  0  0  0  0  0  0
   -0.8948    0.9309    1.4132 H   0  0  0  0  0  0  0  0  0  0  0  0
    1.9407    0.8010    0.6407 H   0  0  0  0  0  0  0  0  0  0  0  0
    0.8586   -0.2329    1.7108 H   0  0  0  0  0  0  0  0  0  0  0  0
    2.3021   -0.9324    0.7897 H   0  0  0  0  0  0  0  0  0  0  0  0
    0.1580    0.5902   -2.3583 H   0  0  0  0  0  0  0  0  0  0  0  0
    0.2019    2.0918    0.1370 H   0  0  0  0  0  0  0  0  0  0  0  0
  1  2  1  0
  2  3  1  0
  3  4  1  0
  4  5  2  0
  4  6  1  0
  6  7  1  0
  6  8  1  0
  8  9  1  0
  6  2  1  0
  8  2  1  0
  1 10  1  0
  1 11  1  0
  1 12  1  0
  7 13  1  0
  7 14  1  0
  7 15  1  0
  8 16  1  0
  9 17  1  0
M  END
