
     RDKit          3D

 19 20  0  0  0  0  0  0  0  0999 V2000
    0.3474    1.7912   -0.7748 C   0  0  0  0  0  0  0  0  0  0  0  0
   -0.1008    0.5751   -0.0285 C   0  0  0  0  0  0  0  0  0  0  0  0
   -1.5451    0.5153    0.2676 C   0  0  0  0  0  0  0  0  0  0  0  0
   -2.0283   -0.7001    0.1539 C   0  0  0  0  0  0  0  0  0  0  0  0
   -0.9602   -1.6751   -0.2467 C   0  0  0  0  0  0  0  0  0  0  0  0
    0.2198   -0.7962   -0.4715 C   0  0  0  0  0  0  0  0  0  0  0  0
    0.8059   -0.2122    0.8226 C   0  0  0  0  0  0  0  0  0  0  0  0
    2.2609   -0.1090    0.7810 C   0  0  0  0  0  0  0  0  0  0  0  0
    2.9190    0.2392   -0.1844 O   0  0  0  0  0  0  0  0  0  0  0  0
    1.3787    1.7725   -1.1170 H   0  0  0  0  0  0  0  0  0  0  0  0
   -0.3610    1.9761   -1.6357 H   0  0  0  0  0  0  0  0  0  0  0  0
    0.2159    2.6671   -0.1023 H   0  0  0  0  0  0  0  0  0  0  0  0
   -2.1330    1.3826    0.5470 H   0  0  0  0  0  0  0  0  0  0  0  0
   -3.0508   -1.0236    0.3135 H   0  0  0  0  0  0  0  0  0  0  0  0
   -1.2578   -2.2937   -1.0982 H   0  0  0  0  0  0  0  0  0  0  0  0
   -0.7575   -2.3029    0.6650 H   0  0  0  0  0  0  0  0  0  0  0  0
    0.8532   -0.9030   -1.3474 H   0  0  0  0  0  0  0  0  0  0  0  0
    0.3723   -0.5452    1.7841 H   0  0  0  0  0  0  0  0  0  0  0  0
    2.8213   -0.3580    1.6718 H   0  0  0  0  0  0  0  0  0  0  0  0
  1  2  1  0
  2  3  1  0
  3  4  2  0
  4  5  1  0
  5  6  1  0
  6  7  1  0
  7  8  1  0
  8  9  2  0
  6  2  1  0
  7  2  1  0
  1 10  1  0
  1 11  1  0
  1 12  1  0
  3 13  1  0
  4 14  1  0
  5 15  1  0
  5 16  1  0
  6 17  1  0
  7 18  1  0
  8 19  1  0
M  END
