
     RDKit          3D

 17 18  0  0  0  0  0  0  0  0999 V2000
    1.5050   -0.1531   -0.9870 C   0  0  0  0  0  0  0  0  0  0  0  0
    0.5458   -0.4459    0.1056 C   0  0  0  0  0  0  0  0  0  0  0  0
    0.5313   -1.6482    0.7698 O   0  0  0  0  0  0  0  0  0  0  0  0
   -0.8269   -1.8722    0.4981 C   0  0  0  0  0  0  0  0  0  0  0  0
   -0.9056   -0.4846   -0.0615 C   0  0  0  0  0  0  0  0  0  0  0  0
   -0.2896    0.6757    0.5923 C   0  0  0  0  0  0  0  0  0  0  0  0
   -0.2813    0.8546    1.9647 O   0  0  0  0  0  0  0  0  0  0  0  0
   -0.2699    1.9310   -0.1930 C   0  0  0  0  0  0  0  0  0  0  0  0
   -0.2748    1.8550   -1.4077 O   0  0  0  0  0  0  0  0  0  0  0  0
    0.9141   -0.0846   -1.9452 H   0  0  0  0  0  0  0  0  0  0  0  0
    2.2856   -0.9462   -1.1261 H   0  0  0  0  0  0  0  0  0  0  0  0
    2.0226    0.8160   -0.7720 H   0  0  0  0  0  0  0  0  0  0  0  0
   -1.0041   -2.6770   -0.2317 H   0  0  0  0  0  0  0  0  0  0  0  0
   -1.4521   -1.9679    1.4239 H   0  0  0  0  0  0  0  0  0  0  0  0
   -1.3833   -0.3922   -1.0462 H   0  0  0  0  0  0  0  0  0  0  0  0
   -0.8652    1.6566    2.1421 H   0  0  0  0  0  0  0  0  0  0  0  0
   -0.2518    2.8832    0.2738 H   0  0  0  0  0  0  0  0  0  0  0  0
  1  2  1  0
  2  3  1  0
  3  4  1  0
  4  5  1  0
  5  6  1  0
  6  7  1  0
  6  8  1  0
  8  9  2  0
  5  2  1  0
  6  2  1  0
  1 10  1  0
  1 11  1  0
  1 12  1  0
  4 13  1  0
  4 14  1  0
  5 15  1  0
  7 16  1  0
  8 17  1  0
M  END
