
     RDKit          3D

 21 23  0  0  0  0  0  0  0  0999 V2000
   -2.3726    0.3495   -0.6477 C   0  0  0  0  0  0  0  0  0  0  0  0
   -1.1311    0.2324    0.1680 C   0  0  0  0  0  0  0  0  0  0  0  0
   -0.0452    1.2751    0.0647 C   0  0  0  0  0  0  0  0  0  0  0  0
    0.9516    0.2264   -0.0998 C   0  0  0  0  0  0  0  0  0  0  0  0
    1.9908    0.0938    1.0006 C   0  0  0  0  0  0  0  0  0  0  0  0
    2.3108    0.2473   -0.4576 C   0  0  0  0  0  0  0  0  0  0  0  0
   -0.0755   -0.8099   -0.2300 C   0  0  0  0  0  0  0  0  0  0  0  0
   -0.3120   -1.5291   -1.3637 O   0  0  0  0  0  0  0  0  0  0  0  0
   -0.9582   -0.9793    0.9952 C   0  0  0  0  0  0  0  0  0  0  0  0
   -3.1423    0.8651   -0.0025 H   0  0  0  0  0  0  0  0  0  0  0  0
   -2.7749   -0.6390   -0.8753 H   0  0  0  0  0  0  0  0  0  0  0  0
   -2.2196    1.0072   -1.5105 H   0  0  0  0  0  0  0  0  0  0  0  0
   -0.2687    1.9300   -0.8253 H   0  0  0  0  0  0  0  0  0  0  0  0
    0.0044    1.9256    0.9568 H   0  0  0  0  0  0  0  0  0  0  0  0
    2.0984    0.9484    1.6925 H   0  0  0  0  0  0  0  0  0  0  0  0
    1.9918   -0.8803    1.4892 H   0  0  0  0  0  0  0  0  0  0  0  0
    2.8160    1.2064   -0.7155 H   0  0  0  0  0  0  0  0  0  0  0  0
    2.7881   -0.6198   -0.9532 H   0  0  0  0  0  0  0  0  0  0  0  0
    0.4304   -2.1364   -1.5326 H   0  0  0  0  0  0  0  0  0  0  0  0
   -1.7202   -1.7495    0.9048 H   0  0  0  0  0  0  0  0  0  0  0  0
   -0.3620   -0.9640    1.9419 H   0  0  0  0  0  0  0  0  0  0  0  0
  1  2  1  0
  2  3  1  0
  3  4  1  0
  4  5  1  0
  5  6  1  0
  4  7  1  0
  7  8  1  0
  7  9  1  0
  7  2  1  0
  9  2  1  0
  6  4  1  0
  1 10  1  0
  1 11  1  0
  1 12  1  0
  3 13  1  0
  3 14  1  0
  5 15  1  0
  5 16  1  0
  6 17  1  0
  6 18  1  0
  8 19  1  0
  9 20  1  0
  9 21  1  0
M  END
