
     RDKit          3D

 21 22  0  0  0  0  0  0  0  0999 V2000
    2.2302   -0.2419   -0.0901 C   0  0  0  0  0  0  0  0  0  0  0  0
    0.7610    0.0124   -0.0285 C   0  0  0  0  0  0  0  0  0  0  0  0
    0.4279    1.3838    0.4563 C   0  0  0  0  0  0  0  0  0  0  0  0
   -1.0507    1.6007    0.4191 C   0  0  0  0  0  0  0  0  0  0  0  0
   -1.8259    0.5957    0.0267 C   0  0  0  0  0  0  0  0  0  0  0  0
   -1.1745   -0.6953   -0.2663 C   0  0  0  0  0  0  0  0  0  0  0  0
   -1.9698   -1.7533   -0.5862 O   0  0  0  0  0  0  0  0  0  0  0  0
   -0.0369   -0.3974   -1.2489 C   0  0  0  0  0  0  0  0  0  0  0  0
   -0.0584   -0.9885    0.7467 C   0  0  0  0  0  0  0  0  0  0  0  0
    2.6963    0.6062   -0.6326 H   0  0  0  0  0  0  0  0  0  0  0  0
    2.6455   -0.2137    0.9370 H   0  0  0  0  0  0  0  0  0  0  0  0
    2.5032   -1.1878   -0.5757 H   0  0  0  0  0  0  0  0  0  0  0  0
    0.8947    2.1604   -0.2142 H   0  0  0  0  0  0  0  0  0  0  0  0
    0.7828    1.4836    1.5038 H   0  0  0  0  0  0  0  0  0  0  0  0
   -1.4183    2.5744    0.7164 H   0  0  0  0  0  0  0  0  0  0  0  0
   -2.8979    0.6590   -0.0923 H   0  0  0  0  0  0  0  0  0  0  0  0
   -2.4296   -2.0674    0.2245 H   0  0  0  0  0  0  0  0  0  0  0  0
    0.3686   -1.2696   -1.7542 H   0  0  0  0  0  0  0  0  0  0  0  0
   -0.3309    0.4067   -1.9248 H   0  0  0  0  0  0  0  0  0  0  0  0
   -0.3519   -0.6328    1.7323 H   0  0  0  0  0  0  0  0  0  0  0  0
    0.2345   -2.0354    0.6512 H   0  0  0  0  0  0  0  0  0  0  0  0
  1  2  1  0
  2  3  1  0
  3  4  1  0
  4  5  2  0
  5  6  1  0
  6  7  1  0
  6  8  1  0
  6  9  1  0
  8  2  1  0
  9  2  1  0
  1 10  1  0
  1 11  1  0
  1 12  1  0
  3 13  1  0
  3 14  1  0
  4 15  1  0
  5 16  1  0
  7 17  1  0
  8 18  1  0
  8 19  1  0
  9 20  1  0
  9 21  1  0
M  END
