
     RDKit          3D

 21 23  0  0  0  0  0  0  0  0999 V2000
    2.0074   -0.5984   -0.2237 C   0  0  0  0  0  0  0  0  0  0  0  0
    0.7035    0.0045   -0.1366 C   0  0  0  0  0  0  0  0  0  0  0  0
    0.5635    1.4574    0.2811 C   0  0  0  0  0  0  0  0  0  0  0  0
   -0.8533    1.0194    0.6571 C   0  0  0  0  0  0  0  0  0  0  0  0
   -1.4235    0.7199   -0.6951 C   0  0  0  0  0  0  0  0  0  0  0  0
   -0.3350   -0.2438   -1.2031 C   0  0  0  0  0  0  0  0  0  0  0  0
   -0.7827   -1.5121   -0.8624 O   0  0  0  0  0  0  0  0  0  0  0  0
   -1.0087   -1.4404    0.5214 C   0  0  0  0  0  0  0  0  0  0  0  0
   -0.1926   -0.2994    1.0518 C   0  0  0  0  0  0  0  0  0  0  0  0
    2.7857    0.0635    0.2494 H   0  0  0  0  0  0  0  0  0  0  0  0
    2.3314   -0.6896   -1.2926 H   0  0  0  0  0  0  0  0  0  0  0  0
    2.1109   -1.6336    0.1905 H   0  0  0  0  0  0  0  0  0  0  0  0
    1.2235    1.6492    1.1417 H   0  0  0  0  0  0  0  0  0  0  0  0
    0.6220    2.1588   -0.5539 H   0  0  0  0  0  0  0  0  0  0  0  0
   -1.3825    1.5675    1.3793 H   0  0  0  0  0  0  0  0  0  0  0  0
   -1.3291    1.6208   -1.3329 H   0  0  0  0  0  0  0  0  0  0  0  0
   -2.4087    0.2620   -0.6934 H   0  0  0  0  0  0  0  0  0  0  0  0
   -0.0393   -0.0877   -2.2110 H   0  0  0  0  0  0  0  0  0  0  0  0
   -2.0920   -1.2656    0.6777 H   0  0  0  0  0  0  0  0  0  0  0  0
   -0.7541   -2.3900    1.0353 H   0  0  0  0  0  0  0  0  0  0  0  0
    0.2534   -0.3625    2.0192 H   0  0  0  0  0  0  0  0  0  0  0  0
  1  2  1  0
  2  3  1  0
  3  4  1  0
  4  5  1  0
  5  6  1  0
  6  7  1  0
  7  8  1  0
  8  9  1  0
  6  2  1  0
  9  2  1  0
  9  4  1  0
  1 10  1  0
  1 11  1  0
  1 12  1  0
  3 13  1  0
  3 14  1  0
  4 15  1  0
  5 16  1  0
  5 17  1  0
  6 18  1  0
  8 19  1  0
  8 20  1  0
  9 21  1  0
M  END
