
     RDKit          3D

 21 22  0  0  0  0  0  0  0  0999 V2000
   -1.0078   -0.2537    1.2599 C   0  0  0  0  0  0  0  0  0  0  0  0
   -0.9485   -0.0318   -0.2265 C   0  0  0  0  0  0  0  0  0  0  0  0
   -0.3810   -1.1507   -0.9953 C   0  0  0  0  0  0  0  0  0  0  0  0
    0.9861   -1.5175   -0.4731 C   0  0  0  0  0  0  0  0  0  0  0  0
    1.8676   -0.8238    0.2467 C   0  0  0  0  0  0  0  0  0  0  0  0
    1.6693    0.5414    0.7116 C   0  0  0  0  0  0  0  0  0  0  0  0
    0.7961    1.4528    0.3073 C   0  0  0  0  0  0  0  0  0  0  0  0
   -0.1851    1.2363   -0.7440 C   0  0  0  0  0  0  0  0  0  0  0  0
   -1.6054    1.1602   -0.7128 C   0  0  0  0  0  0  0  0  0  0  0  0
   -1.9814   -0.6915    1.5664 H   0  0  0  0  0  0  0  0  0  0  0  0
   -0.2163   -0.9483    1.5451 H   0  0  0  0  0  0  0  0  0  0  0  0
   -0.8776    0.6667    1.8518 H   0  0  0  0  0  0  0  0  0  0  0  0
   -1.0098   -2.0526   -0.8466 H   0  0  0  0  0  0  0  0  0  0  0  0
   -0.3111   -0.9737   -2.0881 H   0  0  0  0  0  0  0  0  0  0  0  0
    1.2644   -2.5319   -0.7542 H   0  0  0  0  0  0  0  0  0  0  0  0
    2.7882   -1.3500    0.4839 H   0  0  0  0  0  0  0  0  0  0  0  0
    2.3416    0.8363    1.4989 H   0  0  0  0  0  0  0  0  0  0  0  0
    0.8231    2.4184    0.7980 H   0  0  0  0  0  0  0  0  0  0  0  0
    0.3078    1.1410   -1.7544 H   0  0  0  0  0  0  0  0  0  0  0  0
   -2.1543    1.0781   -1.6765 H   0  0  0  0  0  0  0  0  0  0  0  0
   -2.1657    1.7943    0.0018 H   0  0  0  0  0  0  0  0  0  0  0  0
  1  2  1  0
  2  3  1  0
  3  4  1  0
  4  5  2  0
  5  6  1  0
  6  7  2  0
  7  8  1  0
  8  9  1  0
  8  2  1  0
  9  2  1  0
  1 10  1  0
  1 11  1  0
  1 12  1  0
  3 13  1  0
  3 14  1  0
  4 15  1  0
  5 16  1  0
  6 17  1  0
  7 18  1  0
  8 19  1  0
  9 20  1  0
  9 21  1  0
M  END
