
     RDKit          3D

 20 22  0  0  0  0  0  0  0  0999 V2000
    2.1022    0.0899    0.0919 C   0  0  0  0  0  0  0  0  0  0  0  0
    0.6655    0.0288    0.0419 C   0  0  0  0  0  0  0  0  0  0  0  0
   -0.0813    1.3178   -0.2291 C   0  0  0  0  0  0  0  0  0  0  0  0
   -1.5037    0.7554   -0.2605 C   0  0  0  0  0  0  0  0  0  0  0  0
   -1.4180   -0.6628   -0.6610 C   0  0  0  0  0  0  0  0  0  0  0  0
    0.0497   -0.8575   -1.0335 C   0  0  0  0  0  0  0  0  0  0  0  0
   -1.5030   -0.3025    0.7537 C   0  0  0  0  0  0  0  0  0  0  0  0
   -0.0641   -0.4710    1.2632 C   0  0  0  0  0  0  0  0  0  0  0  0
    2.5493    0.0085   -0.9197 H   0  0  0  0  0  0  0  0  0  0  0  0
    2.5151   -0.6749    0.7882 H   0  0  0  0  0  0  0  0  0  0  0  0
    2.4443    1.0712    0.4954 H   0  0  0  0  0  0  0  0  0  0  0  0
    0.0600    2.0665    0.5442 H   0  0  0  0  0  0  0  0  0  0  0  0
    0.2155    1.7403   -1.1985 H   0  0  0  0  0  0  0  0  0  0  0  0
   -2.3341    1.4126   -0.4728 H   0  0  0  0  0  0  0  0  0  0  0  0
   -2.1941   -1.1872   -1.2034 H   0  0  0  0  0  0  0  0  0  0  0  0
    0.3789   -1.9004   -0.9023 H   0  0  0  0  0  0  0  0  0  0  0  0
    0.1895   -0.4556   -2.0438 H   0  0  0  0  0  0  0  0  0  0  0  0
   -2.3271   -0.5549    1.4077 H   0  0  0  0  0  0  0  0  0  0  0  0
    0.1374   -1.5518    1.3811 H   0  0  0  0  0  0  0  0  0  0  0  0
    0.1179    0.1278    2.1573 H   0  0  0  0  0  0  0  0  0  0  0  0
  1  2  1  0
  2  3  1  0
  3  4  1  0
  4  5  1  0
  5  6  1  0
  5  7  1  0
  7  8  1  0
  6  2  1  0
  8  2  1  0
  7  4  1  0
  1  9  1  0
  1 10  1  0
  1 11  1  0
  3 12  1  0
  3 13  1  0
  4 14  1  0
  5 15  1  0
  6 16  1  0
  6 17  1  0
  7 18  1  0
  8 19  1  0
  8 20  1  0
M  END
