
     RDKit          3D

 19 21  0  0  0  0  0  0  0  0999 V2000
   -1.0528    1.5602   -1.0802 C   0  0  0  0  0  0  0  0  0  0  0  0
   -0.4426    0.2349   -0.5878 C   0  0  0  0  0  0  0  0  0  0  0  0
   -1.5720   -0.5412   -0.0417 C   0  0  0  0  0  0  0  0  0  0  0  0
   -1.5929   -1.8873   -0.4958 O   0  0  0  0  0  0  0  0  0  0  0  0
   -0.5384   -0.2102    0.8879 C   0  0  0  0  0  0  0  0  0  0  0  0
    0.8159   -0.8827    0.5832 C   0  0  0  0  0  0  0  0  0  0  0  0
    2.0555   -0.2081    0.2138 C   0  0  0  0  0  0  0  0  0  0  0  0
    2.8239   -0.5299   -0.9312 O   0  0  0  0  0  0  0  0  0  0  0  0
    0.8952    0.5571   -0.0334 C   0  0  0  0  0  0  0  0  0  0  0  0
   -1.8134    1.2551   -1.8589 H   0  0  0  0  0  0  0  0  0  0  0  0
   -1.5544    2.0600   -0.2528 H   0  0  0  0  0  0  0  0  0  0  0  0
   -0.3138    2.1676   -1.6236 H   0  0  0  0  0  0  0  0  0  0  0  0
   -2.5833   -0.1979    0.1652 H   0  0  0  0  0  0  0  0  0  0  0  0
   -2.3553   -2.3817   -0.1016 H   0  0  0  0  0  0  0  0  0  0  0  0
   -0.5431    0.6524    1.5651 H   0  0  0  0  0  0  0  0  0  0  0  0
    0.7015   -1.7542   -0.0932 H   0  0  0  0  0  0  0  0  0  0  0  0
    2.7501   -0.0757    1.0877 H   0  0  0  0  0  0  0  0  0  0  0  0
    3.5376   -1.1736   -0.6694 H   0  0  0  0  0  0  0  0  0  0  0  0
    0.7821    1.3552    0.7850 H   0  0  0  0  0  0  0  0  0  0  0  0
  1  2  1  0
  2  3  1  0
  3  4  1  0
  3  5  1  0
  5  6  1  0
  6  7  1  0
  7  8  1  0
  7  9  1  0
  5  2  1  0
  9  6  1  0
  9  2  1  0
  1 10  1  0
  1 11  1  0
  1 12  1  0
  3 13  1  0
  4 14  1  0
  5 15  1  0
  6 16  1  0
  7 17  1  0
  8 18  1  0
  9 19  1  0
M  END
