
     RDKit          3D

 20 22  0  0  0  0  0  0  0  0999 V2000
    1.6269   -1.0645   -0.7926 C   0  0  0  0  0  0  0  0  0  0  0  0
    0.8124    0.1699   -0.5279 C   0  0  0  0  0  0  0  0  0  0  0  0
   -0.4257    0.3887   -1.3648 C   0  0  0  0  0  0  0  0  0  0  0  0
   -1.5905    0.2630   -0.4414 C   0  0  0  0  0  0  0  0  0  0  0  0
   -1.7479   -0.9034    0.4517 C   0  0  0  0  0  0  0  0  0  0  0  0
   -1.0511    0.3875    0.9219 C   0  0  0  0  0  0  0  0  0  0  0  0
    0.4238    0.3528    0.9079 C   0  0  0  0  0  0  0  0  0  0  0  0
    1.2946    1.3052    0.2444 C   0  0  0  0  0  0  0  0  0  0  0  0
    0.9073   -1.8379   -1.1872 H   0  0  0  0  0  0  0  0  0  0  0  0
    2.0516   -1.4788    0.1407 H   0  0  0  0  0  0  0  0  0  0  0  0
    2.3920   -0.9355   -1.5771 H   0  0  0  0  0  0  0  0  0  0  0  0
   -0.4484   -0.2980   -2.2261 H   0  0  0  0  0  0  0  0  0  0  0  0
   -0.3840    1.4302   -1.7794 H   0  0  0  0  0  0  0  0  0  0  0  0
   -2.4993    0.8267   -0.7517 H   0  0  0  0  0  0  0  0  0  0  0  0
   -2.7747   -1.0935    0.8138 H   0  0  0  0  0  0  0  0  0  0  0  0
   -1.1159   -1.8008    0.3123 H   0  0  0  0  0  0  0  0  0  0  0  0
   -1.6284    0.9416    1.6770 H   0  0  0  0  0  0  0  0  0  0  0  0
    0.8849   -0.3065    1.6954 H   0  0  0  0  0  0  0  0  0  0  0  0
    0.9142    2.3230   -0.0268 H   0  0  0  0  0  0  0  0  0  0  0  0
    2.3582    1.3303    0.5401 H   0  0  0  0  0  0  0  0  0  0  0  0
  1  2  1  0
  2  3  1  0
  3  4  1  0
  4  5  1  0
  5  6  1  0
  6  7  1  0
  7  8  1  0
  7  2  1  0
  8  2  1  0
  6  4  1  0
  1  9  1  0
  1 10  1  0
  1 11  1  0
  3 12  1  0
  3 13  1  0
  4 14  1  0
  5 15  1  0
  5 16  1  0
  6 17  1  0
  7 18  1  0
  8 19  1  0
  8 20  1  0
M  END
