
     RDKit          3D

 17 19  0  0  0  0  0  0  0  0999 V2000
   -1.7700   -0.4262    0.5946 C   0  0  0  0  0  0  0  0  0  0  0  0
   -0.8226    0.1773   -0.3913 C   0  0  0  0  0  0  0  0  0  0  0  0
   -0.6611    1.6179   -0.5812 C   0  0  0  0  0  0  0  0  0  0  0  0
    0.3831    0.9582    0.2187 C   0  0  0  0  0  0  0  0  0  0  0  0
    1.2596   -0.0991   -0.3529 C   0  0  0  0  0  0  0  0  0  0  0  0
    2.2571   -0.7534    0.4923 C   0  0  0  0  0  0  0  0  0  0  0  0
    3.1379   -1.4735    0.0669 O   0  0  0  0  0  0  0  0  0  0  0  0
    1.2557   -0.2633   -1.7221 O   0  0  0  0  0  0  0  0  0  0  0  0
    0.2067   -0.7600   -0.9823 C   0  0  0  0  0  0  0  0  0  0  0  0
   -2.2054   -1.3723    0.1641 H   0  0  0  0  0  0  0  0  0  0  0  0
   -2.5623    0.2719    0.8711 H   0  0  0  0  0  0  0  0  0  0  0  0
   -1.2134   -0.7811    1.5110 H   0  0  0  0  0  0  0  0  0  0  0  0
   -1.3715    2.2697   -0.0166 H   0  0  0  0  0  0  0  0  0  0  0  0
   -0.4676    1.9522   -1.6346 H   0  0  0  0  0  0  0  0  0  0  0  0
    0.3686    1.0922    1.3176 H   0  0  0  0  0  0  0  0  0  0  0  0
    2.2163   -0.5920    1.5637 H   0  0  0  0  0  0  0  0  0  0  0  0
   -0.0112   -1.8184   -1.1190 H   0  0  0  0  0  0  0  0  0  0  0  0
  1  2  1  0
  2  3  1  0
  3  4  1  0
  4  5  1  0
  5  6  1  0
  6  7  2  0
  5  8  1  0
  8  9  1  0
  4  2  1  0
  9  5  1  0
  9  2  1  0
  1 10  1  0
  1 11  1  0
  1 12  1  0
  3 13  1  0
  3 14  1  0
  4 15  1  0
  6 16  1  0
  9 17  1  0
M  END
