
     RDKit          3D

 21 24  0  0  0  0  0  0  0  0999 V2000
    2.5354   -0.3902    0.0829 C   0  0  0  0  0  0  0  0  0  0  0  0
    1.1270    0.0268   -0.1715 C   0  0  0  0  0  0  0  0  0  0  0  0
    0.6881    1.4506    0.0444 C   0  0  0  0  0  0  0  0  0  0  0  0
   -0.5639    0.8884    0.7285 C   0  0  0  0  0  0  0  0  0  0  0  0
   -1.6212    0.6461   -0.3218 C   0  0  0  0  0  0  0  0  0  0  0  0
   -2.3743   -0.6716   -0.1454 C   0  0  0  0  0  0  0  0  0  0  0  0
   -1.2199   -0.5728   -1.0780 C   0  0  0  0  0  0  0  0  0  0  0  0
    0.1084   -0.9931   -0.5102 C   0  0  0  0  0  0  0  0  0  0  0  0
    0.1257   -0.4138    0.8318 C   0  0  0  0  0  0  0  0  0  0  0  0
    2.9974   -0.9186   -0.7514 H   0  0  0  0  0  0  0  0  0  0  0  0
    2.6117   -1.0341    1.0063 H   0  0  0  0  0  0  0  0  0  0  0  0
    3.1348    0.5259    0.3488 H   0  0  0  0  0  0  0  0  0  0  0  0
    1.3208    2.0591    0.7138 H   0  0  0  0  0  0  0  0  0  0  0  0
    0.4664    1.9674   -0.9189 H   0  0  0  0  0  0  0  0  0  0  0  0
   -0.8697    1.3983    1.6348 H   0  0  0  0  0  0  0  0  0  0  0  0
   -2.1395    1.4882   -0.7899 H   0  0  0  0  0  0  0  0  0  0  0  0
   -2.2901   -1.1722    0.8381 H   0  0  0  0  0  0  0  0  0  0  0  0
   -3.4231   -0.6476   -0.5156 H   0  0  0  0  0  0  0  0  0  0  0  0
   -1.3919   -0.6833   -2.1538 H   0  0  0  0  0  0  0  0  0  0  0  0
    0.4115   -2.0334   -0.6219 H   0  0  0  0  0  0  0  0  0  0  0  0
    0.3663   -0.9201    1.7490 H   0  0  0  0  0  0  0  0  0  0  0  0
  1  2  1  0
  2  3  1  0
  3  4  1  0
  4  5  1  0
  5  6  1  0
  6  7  1  0
  7  8  1  0
  8  9  1  0
  8  2  1  0
  9  2  1  0
  9  4  1  0
  7  5  1  0
  1 10  1  0
  1 11  1  0
  1 12  1  0
  3 13  1  0
  3 14  1  0
  4 15  1  0
  5 16  1  0
  6 17  1  0
  6 18  1  0
  7 19  1  0
  8 20  1  0
  9 21  1  0
M  END
