
     RDKit          3D

 17 19  0  0  0  0  0  0  0  0999 V2000
    1.8013    0.7524   -0.1601 C   0  0  0  0  0  0  0  0  0  0  0  0
    0.5348    0.0547   -0.0119 C   0  0  0  0  0  0  0  0  0  0  0  0
   -0.7443    0.5408   -0.7097 C   0  0  0  0  0  0  0  0  0  0  0  0
   -1.0741    1.7467   -0.1438 O   0  0  0  0  0  0  0  0  0  0  0  0
   -1.6375   -0.5968   -0.2188 C   0  0  0  0  0  0  0  0  0  0  0  0
   -0.9007   -1.6970   -0.5951 O   0  0  0  0  0  0  0  0  0  0  0  0
    0.3394   -1.4033    0.0199 C   0  0  0  0  0  0  0  0  0  0  0  0
    0.0068   -0.5874    1.1859 C   0  0  0  0  0  0  0  0  0  0  0  0
   -1.4086   -0.5336    1.1447 O   0  0  0  0  0  0  0  0  0  0  0  0
    1.9611    1.6461    0.4667 H   0  0  0  0  0  0  0  0  0  0  0  0
    2.6503    0.0188   -0.0325 H   0  0  0  0  0  0  0  0  0  0  0  0
    1.9129    1.1070   -1.2204 H   0  0  0  0  0  0  0  0  0  0  0  0
   -0.6012    0.5391   -1.7834 H   0  0  0  0  0  0  0  0  0  0  0  0
   -1.8392    1.7225    0.4771 H   0  0  0  0  0  0  0  0  0  0  0  0
   -2.6509   -0.5444   -0.5439 H   0  0  0  0  0  0  0  0  0  0  0  0
    1.1451   -2.1312   -0.0257 H   0  0  0  0  0  0  0  0  0  0  0  0
    0.5046   -0.6343    2.1511 H   0  0  0  0  0  0  0  0  0  0  0  0
  1  2  1  0
  2  3  1  0
  3  4  1  0
  3  5  1  0
  5  6  1  0
  6  7  1  0
  7  8  1  0
  8  9  1  0
  7  2  1  0
  8  2  1  0
  9  5  1  0
  1 10  1  0
  1 11  1  0
  1 12  1  0
  3 13  1  0
  4 14  1  0
  5 15  1  0
  7 16  1  0
  8 17  1  0
M  END
