
     RDKit          3D

 19 21  0  0  0  0  0  0  0  0999 V2000
   -2.2009    0.6392   -0.0366 C   0  0  0  0  0  0  0  0  0  0  0  0
   -1.1321   -0.3599    0.1344 C   0  0  0  0  0  0  0  0  0  0  0  0
   -1.5688   -1.7038    0.1265 O   0  0  0  0  0  0  0  0  0  0  0  0
   -0.5334   -1.2658   -0.6744 C   0  0  0  0  0  0  0  0  0  0  0  0
    0.7871   -1.1792    0.1078 C   0  0  0  0  0  0  0  0  0  0  0  0
    1.8653   -0.5523   -0.6613 C   0  0  0  0  0  0  0  0  0  0  0  0
    1.9463    0.7454   -0.4570 C   0  0  0  0  0  0  0  0  0  0  0  0
    0.8961    1.1410    0.5028 C   0  0  0  0  0  0  0  0  0  0  0  0
    0.1332   -0.0611    0.8993 C   0  0  0  0  0  0  0  0  0  0  0  0
   -2.9631    0.4742    0.7810 H   0  0  0  0  0  0  0  0  0  0  0  0
   -2.7679    0.4558   -0.9801 H   0  0  0  0  0  0  0  0  0  0  0  0
   -1.8751    1.6747    0.0363 H   0  0  0  0  0  0  0  0  0  0  0  0
   -0.5014   -1.4823   -1.7407 H   0  0  0  0  0  0  0  0  0  0  0  0
    1.0301   -2.0823    0.6779 H   0  0  0  0  0  0  0  0  0  0  0  0
    2.5276   -1.0892   -1.3267 H   0  0  0  0  0  0  0  0  0  0  0  0
    2.6511    1.4161   -0.9050 H   0  0  0  0  0  0  0  0  0  0  0  0
    1.4381    1.5167    1.4210 H   0  0  0  0  0  0  0  0  0  0  0  0
    0.2731    1.9768    0.1198 H   0  0  0  0  0  0  0  0  0  0  0  0
   -0.0052   -0.2638    1.9751 H   0  0  0  0  0  0  0  0  0  0  0  0
  1  2  1  0
  2  3  1  0
  3  4  1  0
  4  5  1  0
  5  6  1  0
  6  7  2  0
  7  8  1  0
  8  9  1  0
  4  2  1  0
  9  5  1  0
  9  2  1  0
  1 10  1  0
  1 11  1  0
  1 12  1  0
  4 13  1  0
  5 14  1  0
  6 15  1  0
  7 16  1  0
  8 17  1  0
  8 18  1  0
  9 19  1  0
M  END
