
     RDKit          3D

 18 19  0  0  0  0  0  0  0  0999 V2000
   -0.6493    1.6799   -0.6081 C   0  0  0  0  0  0  0  0  0  0  0  0
   -0.6333    0.1815   -0.6576 C   0  0  0  0  0  0  0  0  0  0  0  0
   -1.7575   -0.4973   -1.0849 O   0  0  0  0  0  0  0  0  0  0  0  0
   -1.8226   -1.3836    0.0133 C   0  0  0  0  0  0  0  0  0  0  0  0
   -0.6920   -0.6004    0.6252 C   0  0  0  0  0  0  0  0  0  0  0  0
    0.5647   -0.5751   -0.1671 C   0  0  0  0  0  0  0  0  0  0  0  0
    1.7298    0.2688    0.2731 C   0  0  0  0  0  0  0  0  0  0  0  0
    2.7372   -0.5956    0.6908 O   0  0  0  0  0  0  0  0  0  0  0  0
   -1.4524    2.0004    0.0660 H   0  0  0  0  0  0  0  0  0  0  0  0
   -0.7604    2.0604   -1.6430 H   0  0  0  0  0  0  0  0  0  0  0  0
    0.3056    2.0518   -0.2167 H   0  0  0  0  0  0  0  0  0  0  0  0
   -2.7808   -1.3617    0.5330 H   0  0  0  0  0  0  0  0  0  0  0  0
   -1.4550   -2.3924   -0.3041 H   0  0  0  0  0  0  0  0  0  0  0  0
   -0.8318    0.0007    1.5215 H   0  0  0  0  0  0  0  0  0  0  0  0
    0.8264   -1.5472   -0.6459 H   0  0  0  0  0  0  0  0  0  0  0  0
    2.0897    0.8316   -0.6120 H   0  0  0  0  0  0  0  0  0  0  0  0
    1.4741    0.9458    1.1150 H   0  0  0  0  0  0  0  0  0  0  0  0
    3.1077   -1.0676   -0.0970 H   0  0  0  0  0  0  0  0  0  0  0  0
  1  2  1  0
  2  3  1  0
  3  4  1  0
  4  5  1  0
  5  6  1  0
  6  7  1  0
  7  8  1  0
  5  2  1  0
  6  2  1  0
  1  9  1  0
  1 10  1  0
  1 11  1  0
  4 12  1  0
  4 13  1  0
  5 14  1  0
  6 15  1  0
  7 16  1  0
  7 17  1  0
  8 18  1  0
M  END
