
     RDKit          3D

 23 24  0  0  0  0  0  0  0  0999 V2000
    2.3842   -0.0375   -0.3388 C   0  0  0  0  0  0  0  0  0  0  0  0
    0.9029   -0.0169   -0.0676 C   0  0  0  0  0  0  0  0  0  0  0  0
    0.1642   -1.0623   -0.9133 C   0  0  0  0  0  0  0  0  0  0  0  0
   -1.3171   -0.8737   -0.6806 C   0  0  0  0  0  0  0  0  0  0  0  0
   -1.5045   -0.0164    0.5604 C   0  0  0  0  0  0  0  0  0  0  0  0
   -1.0277    1.4104    0.3238 C   0  0  0  0  0  0  0  0  0  0  0  0
    0.2732    1.3184   -0.4675 C   0  0  0  0  0  0  0  0  0  0  0  0
   -0.5708   -0.6060    1.6196 C   0  0  0  0  0  0  0  0  0  0  0  0
    0.7128   -0.2364    1.2805 O   0  0  0  0  0  0  0  0  0  0  0  0
    2.9788   -0.1362    0.6110 H   0  0  0  0  0  0  0  0  0  0  0  0
    2.6996   -0.9085   -0.9600 H   0  0  0  0  0  0  0  0  0  0  0  0
    2.7225    0.9027   -0.8160 H   0  0  0  0  0  0  0  0  0  0  0  0
    0.3499   -0.7433   -1.9758 H   0  0  0  0  0  0  0  0  0  0  0  0
    0.5240   -2.0678   -0.6937 H   0  0  0  0  0  0  0  0  0  0  0  0
   -1.7589   -1.8573   -0.4498 H   0  0  0  0  0  0  0  0  0  0  0  0
   -1.8392   -0.4070   -1.5213 H   0  0  0  0  0  0  0  0  0  0  0  0
   -2.5211   -0.0557    0.9616 H   0  0  0  0  0  0  0  0  0  0  0  0
   -0.7667    1.8397    1.3150 H   0  0  0  0  0  0  0  0  0  0  0  0
   -1.7826    1.9973   -0.2252 H   0  0  0  0  0  0  0  0  0  0  0  0
    0.0055    1.3234   -1.5566 H   0  0  0  0  0  0  0  0  0  0  0  0
    0.9363    2.1676   -0.2797 H   0  0  0  0  0  0  0  0  0  0  0  0
   -0.6991   -1.7147    1.6569 H   0  0  0  0  0  0  0  0  0  0  0  0
   -0.8660   -0.2199    2.6172 H   0  0  0  0  0  0  0  0  0  0  0  0
  1  2  1  0
  2  3  1  0
  3  4  1  0
  4  5  1  0
  5  6  1  0
  6  7  1  0
  5  8  1  0
  8  9  1  0
  7  2  1  0
  9  2  1  0
  1 10  1  0
  1 11  1  0
  1 12  1  0
  3 13  1  0
  3 14  1  0
  4 15  1  0
  4 16  1  0
  5 17  1  0
  6 18  1  0
  6 19  1  0
  7 20  1  0
  7 21  1  0
  8 22  1  0
  8 23  1  0
M  END
