
     RDKit          3D

 19 21  0  0  0  0  0  0  0  0999 V2000
    2.0464   -0.1650    0.4095 C   0  0  0  0  0  0  0  0  0  0  0  0
    0.6070   -0.1954    0.3997 C   0  0  0  0  0  0  0  0  0  0  0  0
   -0.1146   -1.5302    0.2487 C   0  0  0  0  0  0  0  0  0  0  0  0
   -1.2191   -0.6233   -0.2682 C   0  0  0  0  0  0  0  0  0  0  0  0
   -1.4527    0.3256    0.8691 C   0  0  0  0  0  0  0  0  0  0  0  0
   -1.6377    1.5379    0.1839 O   0  0  0  0  0  0  0  0  0  0  0  0
   -0.6315    1.5757   -0.7790 C   0  0  0  0  0  0  0  0  0  0  0  0
   -0.1036    0.1824   -0.9111 C   0  0  0  0  0  0  0  0  0  0  0  0
   -0.1379    0.4046    1.3908 O   0  0  0  0  0  0  0  0  0  0  0  0
    2.4240    0.6700   -0.2515 H   0  0  0  0  0  0  0  0  0  0  0  0
    2.4792    0.0123    1.3930 H   0  0  0  0  0  0  0  0  0  0  0  0
    2.4601   -1.0935   -0.0824 H   0  0  0  0  0  0  0  0  0  0  0  0
    0.3188   -2.2081   -0.5015 H   0  0  0  0  0  0  0  0  0  0  0  0
   -0.4110   -1.9950    1.1992 H   0  0  0  0  0  0  0  0  0  0  0  0
   -1.9967   -1.0090   -0.8483 H   0  0  0  0  0  0  0  0  0  0  0  0
   -2.2056    0.0783    1.5734 H   0  0  0  0  0  0  0  0  0  0  0  0
   -0.9762    1.9703   -1.7460 H   0  0  0  0  0  0  0  0  0  0  0  0
    0.2266    2.2242   -0.4633 H   0  0  0  0  0  0  0  0  0  0  0  0
    0.3245   -0.1618   -1.8162 H   0  0  0  0  0  0  0  0  0  0  0  0
  1  2  1  0
  2  3  1  0
  3  4  1  0
  4  5  1  0
  5  6  1  0
  6  7  1  0
  7  8  1  0
  5  9  1  0
  8  2  1  0
  9  2  1  0
  8  4  1  0
  1 10  1  0
  1 11  1  0
  1 12  1  0
  3 13  1  0
  3 14  1  0
  4 15  1  0
  5 16  1  0
  7 17  1  0
  7 18  1  0
  8 19  1  0
M  END
