
     RDKit          3D

 20 21  0  0  0  0  0  0  0  0999 V2000
    2.1744   -0.5911   -0.2576 C   0  0  0  0  0  0  0  0  0  0  0  0
    0.9034    0.0119   -0.0257 C   0  0  0  0  0  0  0  0  0  0  0  0
    0.7379    1.4169    0.4446 C   0  0  0  0  0  0  0  0  0  0  0  0
   -0.6782    1.5235    0.4390 O   0  0  0  0  0  0  0  0  0  0  0  0
   -1.0730    0.2540    0.1130 C   0  0  0  0  0  0  0  0  0  0  0  0
   -2.4759   -0.1077    0.0396 C   0  0  0  0  0  0  0  0  0  0  0  0
   -0.1287   -0.7023    0.8600 C   0  0  0  0  0  0  0  0  0  0  0  0
   -0.1890   -0.0719   -1.1008 C   0  0  0  0  0  0  0  0  0  0  0  0
    2.4334   -0.7196   -1.3475 H   0  0  0  0  0  0  0  0  0  0  0  0
    2.3420   -1.6024    0.2081 H   0  0  0  0  0  0  0  0  0  0  0  0
    3.0110    0.0390    0.1465 H   0  0  0  0  0  0  0  0  0  0  0  0
    1.1363    2.1667   -0.2664 H   0  0  0  0  0  0  0  0  0  0  0  0
    1.0775    1.5840    1.4752 H   0  0  0  0  0  0  0  0  0  0  0  0
   -3.0634    0.5295    0.7395 H   0  0  0  0  0  0  0  0  0  0  0  0
   -2.6276   -1.1549    0.3726 H   0  0  0  0  0  0  0  0  0  0  0  0
   -2.8723    0.0729   -0.9825 H   0  0  0  0  0  0  0  0  0  0  0  0
   -0.0326   -0.5066    1.9269 H   0  0  0  0  0  0  0  0  0  0  0  0
   -0.2261   -1.7324    0.5154 H   0  0  0  0  0  0  0  0  0  0  0  0
   -0.3010   -1.1174   -1.4390 H   0  0  0  0  0  0  0  0  0  0  0  0
   -0.1481    0.7077   -1.8610 H   0  0  0  0  0  0  0  0  0  0  0  0
  1  2  1  0
  2  3  1  0
  3  4  1  0
  4  5  1  0
  5  6  1  0
  5  7  1  0
  5  8  1  0
  7  2  1  0
  8  2  1  0
  1  9  1  0
  1 10  1  0
  1 11  1  0
  3 12  1  0
  3 13  1  0
  6 14  1  0
  6 15  1  0
  6 16  1  0
  7 17  1  0
  7 18  1  0
  8 19  1  0
  8 20  1  0
M  END
