
     RDKit          3D

 17 18  0  0  0  0  0  0  0  0999 V2000
    2.3606   -0.1545    0.0112 C   0  0  0  0  0  0  0  0  0  0  0  0
    0.9388    0.0849   -0.0137 C   0  0  0  0  0  0  0  0  0  0  0  0
    0.4394    1.4760   -0.3077 C   0  0  0  0  0  0  0  0  0  0  0  0
   -0.8875    1.2558   -0.3528 C   0  0  0  0  0  0  0  0  0  0  0  0
   -0.9161   -0.2261   -0.0592 C   0  0  0  0  0  0  0  0  0  0  0  0
   -2.1689   -0.9239   -0.1128 C   0  0  0  0  0  0  0  0  0  0  0  0
    0.1355   -0.6339   -0.9207 O   0  0  0  0  0  0  0  0  0  0  0  0
    0.0428   -0.3998    1.0193 C   0  0  0  0  0  0  0  0  0  0  0  0
    0.0809   -0.7534    2.1553 O   0  0  0  0  0  0  0  0  0  0  0  0
    2.5862   -1.2060   -0.2675 H   0  0  0  0  0  0  0  0  0  0  0  0
    2.8804    0.5218   -0.6986 H   0  0  0  0  0  0  0  0  0  0  0  0
    2.7688    0.0101    1.0374 H   0  0  0  0  0  0  0  0  0  0  0  0
    0.9984    2.3938   -0.4437 H   0  0  0  0  0  0  0  0  0  0  0  0
   -1.7047    1.9368   -0.5435 H   0  0  0  0  0  0  0  0  0  0  0  0
   -2.1862   -1.7955    0.5710 H   0  0  0  0  0  0  0  0  0  0  0  0
   -2.3410   -1.3526   -1.1430 H   0  0  0  0  0  0  0  0  0  0  0  0
   -3.0273   -0.2335    0.0690 H   0  0  0  0  0  0  0  0  0  0  0  0
  1  2  1  0
  2  3  1  0
  3  4  2  0
  4  5  1  0
  5  6  1  0
  5  7  1  0
  5  8  1  0
  8  9  2  0
  7  2  1  0
  8  2  1  0
  1 10  1  0
  1 11  1  0
  1 12  1  0
  3 13  1  0
  4 14  1  0
  6 15  1  0
  6 16  1  0
  6 17  1  0
M  END
