
     RDKit          3D

 23 24  0  0  0  0  0  0  0  0999 V2000
    2.0737    1.1739   -0.1444 C   0  0  0  0  0  0  0  0  0  0  0  0
    0.7579    0.5171    0.1414 C   0  0  0  0  0  0  0  0  0  0  0  0
    0.9993   -0.7884    0.9112 C   0  0  0  0  0  0  0  0  0  0  0  0
   -0.0221   -1.7263    0.3529 C   0  0  0  0  0  0  0  0  0  0  0  0
   -0.8408   -0.9513   -0.6600 C   0  0  0  0  0  0  0  0  0  0  0  0
   -1.9225   -0.1184    0.0189 C   0  0  0  0  0  0  0  0  0  0  0  0
   -1.4299    1.1927    0.5125 C   0  0  0  0  0  0  0  0  0  0  0  0
   -0.1200    1.2571    0.8643 O   0  0  0  0  0  0  0  0  0  0  0  0
    0.1615    0.0876   -1.1838 C   0  0  0  0  0  0  0  0  0  0  0  0
    2.9029    0.4506    0.0759 H   0  0  0  0  0  0  0  0  0  0  0  0
    2.1554    2.1141    0.3977 H   0  0  0  0  0  0  0  0  0  0  0  0
    2.1989    1.4060   -1.2421 H   0  0  0  0  0  0  0  0  0  0  0  0
    0.7669   -0.6427    2.0050 H   0  0  0  0  0  0  0  0  0  0  0  0
    2.0312   -1.1295    0.8386 H   0  0  0  0  0  0  0  0  0  0  0  0
    0.5349   -2.5092   -0.2272 H   0  0  0  0  0  0  0  0  0  0  0  0
   -0.6616   -2.2087    1.1077 H   0  0  0  0  0  0  0  0  0  0  0  0
   -1.2206   -1.5858   -1.4548 H   0  0  0  0  0  0  0  0  0  0  0  0
   -2.4857   -0.7052    0.7725 H   0  0  0  0  0  0  0  0  0  0  0  0
   -2.6740    0.0937   -0.7978 H   0  0  0  0  0  0  0  0  0  0  0  0
   -1.6274    2.0200   -0.2306 H   0  0  0  0  0  0  0  0  0  0  0  0
   -2.0375    1.4527    1.4293 H   0  0  0  0  0  0  0  0  0  0  0  0
   -0.4200    0.9364   -1.6097 H   0  0  0  0  0  0  0  0  0  0  0  0
    0.8794   -0.3364   -1.8775 H   0  0  0  0  0  0  0  0  0  0  0  0
  1  2  1  0
  2  3  1  0
  3  4  1  0
  4  5  1  0
  5  6  1  0
  6  7  1  0
  7  8  1  0
  5  9  1  0
  8  2  1  0
  9  2  1  0
  1 10  1  0
  1 11  1  0
  1 12  1  0
  3 13  1  0
  3 14  1  0
  4 15  1  0
  4 16  1  0
  5 17  1  0
  6 18  1  0
  6 19  1  0
  7 20  1  0
  7 21  1  0
  9 22  1  0
  9 23  1  0
M  END
