
     RDKit          3D

 16 18  0  0  0  0  0  0  0  0999 V2000
    2.0766    0.3534   -0.1977 C   0  0  0  0  0  0  0  0  0  0  0  0
    0.7352   -0.2538   -0.1495 C   0  0  0  0  0  0  0  0  0  0  0  0
    0.7527   -1.6695   -0.0843 O   0  0  0  0  0  0  0  0  0  0  0  0
   -0.0236   -0.9933   -0.9851 C   0  0  0  0  0  0  0  0  0  0  0  0
   -1.3347   -0.4957   -0.3857 C   0  0  0  0  0  0  0  0  0  0  0  0
   -1.4551   -0.3925    1.0978 C   0  0  0  0  0  0  0  0  0  0  0  0
   -0.4449    0.4528    0.4667 C   0  0  0  0  0  0  0  0  0  0  0  0
   -0.6121    1.7704    0.1503 O   0  0  0  0  0  0  0  0  0  0  0  0
    2.9118   -0.3747    0.0194 H   0  0  0  0  0  0  0  0  0  0  0  0
    2.3490    0.8830   -1.1087 H   0  0  0  0  0  0  0  0  0  0  0  0
    2.1551    1.1044    0.6416 H   0  0  0  0  0  0  0  0  0  0  0  0
   -0.0353   -1.2381   -2.0482 H   0  0  0  0  0  0  0  0  0  0  0  0
   -2.0910   -0.0465   -1.0269 H   0  0  0  0  0  0  0  0  0  0  0  0
   -1.0664   -1.2215    1.7423 H   0  0  0  0  0  0  0  0  0  0  0  0
   -2.4177   -0.0030    1.4570 H   0  0  0  0  0  0  0  0  0  0  0  0
   -1.4997    2.1248    0.4112 H   0  0  0  0  0  0  0  0  0  0  0  0
  1  2  1  0
  2  3  1  0
  3  4  1  0
  4  5  1  0
  5  6  1  0
  6  7  1  0
  7  8  1  0
  4  2  1  0
  7  5  1  0
  7  2  1  0
  1  9  1  0
  1 10  1  0
  1 11  1  0
  4 12  1  0
  5 13  1  0
  6 14  1  0
  6 15  1  0
  8 16  1  0
M  END
