
     RDKit          3D

 17 19  0  0  0  0  0  0  0  0999 V2000
    2.0719    0.1641    0.2907 C   0  0  0  0  0  0  0  0  0  0  0  0
    0.6477    0.0314   -0.1268 C   0  0  0  0  0  0  0  0  0  0  0  0
    0.2783   -0.7693   -1.3147 C   0  0  0  0  0  0  0  0  0  0  0  0
    0.8224   -1.0731   -2.3392 O   0  0  0  0  0  0  0  0  0  0  0  0
   -1.0356   -1.0181   -0.6785 C   0  0  0  0  0  0  0  0  0  0  0  0
   -1.8963    0.0444   -0.9005 O   0  0  0  0  0  0  0  0  0  0  0  0
   -1.6901    1.0304    0.0147 C   0  0  0  0  0  0  0  0  0  0  0  0
   -0.3720    0.7085    0.6973 C   0  0  0  0  0  0  0  0  0  0  0  0
   -0.3481   -0.7438    0.6283 C   0  0  0  0  0  0  0  0  0  0  0  0
    2.1907    1.1705    0.7766 H   0  0  0  0  0  0  0  0  0  0  0  0
    2.7184    0.2166   -0.6266 H   0  0  0  0  0  0  0  0  0  0  0  0
    2.4139   -0.6094    0.9807 H   0  0  0  0  0  0  0  0  0  0  0  0
   -1.4763   -2.0022   -0.8202 H   0  0  0  0  0  0  0  0  0  0  0  0
   -1.6235    2.0511   -0.3821 H   0  0  0  0  0  0  0  0  0  0  0  0
   -2.4762    1.0300    0.8239 H   0  0  0  0  0  0  0  0  0  0  0  0
   -0.0516    1.2262    1.5882 H   0  0  0  0  0  0  0  0  0  0  0  0
   -0.1737   -1.4573    1.3884 H   0  0  0  0  0  0  0  0  0  0  0  0
  1  2  1  0
  2  3  1  0
  3  4  2  0
  3  5  1  0
  5  6  1  0
  6  7  1  0
  7  8  1  0
  8  9  1  0
  8  2  1  0
  9  2  1  0
  9  5  1  0
  1 10  1  0
  1 11  1  0
  1 12  1  0
  5 13  1  0
  7 14  1  0
  7 15  1  0
  8 16  1  0
  9 17  1  0
M  END
