
     RDKit          3D

 17 18  0  0  0  0  0  0  0  0999 V2000
   -1.7408   -0.6754    0.5862 C   0  0  0  0  0  0  0  0  0  0  0  0
   -0.3590   -0.3901    0.2938 C   0  0  0  0  0  0  0  0  0  0  0  0
    0.1887   -0.7604   -1.0932 C   0  0  0  0  0  0  0  0  0  0  0  0
    1.2505    0.2688   -0.7045 C   0  0  0  0  0  0  0  0  0  0  0  0
    1.8304   -0.3527    0.4876 C   0  0  0  0  0  0  0  0  0  0  0  0
    3.0284   -0.4605    0.8385 O   0  0  0  0  0  0  0  0  0  0  0  0
    0.6702   -0.8124    1.1602 O   0  0  0  0  0  0  0  0  0  0  0  0
    0.0563    1.0170   -0.0904 C   0  0  0  0  0  0  0  0  0  0  0  0
    0.3886    1.8458    0.9574 O   0  0  0  0  0  0  0  0  0  0  0  0
   -2.2237    0.2140    1.0825 H   0  0  0  0  0  0  0  0  0  0  0  0
   -2.3124   -0.8892   -0.3390 H   0  0  0  0  0  0  0  0  0  0  0  0
   -1.8321   -1.5718    1.2293 H   0  0  0  0  0  0  0  0  0  0  0  0
    0.5592   -1.7883   -1.1760 H   0  0  0  0  0  0  0  0  0  0  0  0
   -0.4741   -0.3867   -1.8748 H   0  0  0  0  0  0  0  0  0  0  0  0
    1.8157    0.7366   -1.4450 H   0  0  0  0  0  0  0  0  0  0  0  0
   -0.5370    1.4410   -0.9029 H   0  0  0  0  0  0  0  0  0  0  0  0
   -0.3088    2.5642    0.9904 H   0  0  0  0  0  0  0  0  0  0  0  0
  1  2  1  0
  2  3  1  0
  3  4  1  0
  4  5  1  0
  5  6  2  0
  5  7  1  0
  4  8  1  0
  8  9  1  0
  7  2  1  0
  8  2  1  0
  1 10  1  0
  1 11  1  0
  1 12  1  0
  3 13  1  0
  3 14  1  0
  4 15  1  0
  8 16  1  0
  9 17  1  0
M  END
