
     RDKit          3D

 19 21  0  0  0  0  0  0  0  0999 V2000
    0.0817    2.0214    0.1283 C   0  0  0  0  0  0  0  0  0  0  0  0
   -0.1927    0.5929    0.1595 C   0  0  0  0  0  0  0  0  0  0  0  0
   -1.4913    0.1038   -0.4963 C   0  0  0  0  0  0  0  0  0  0  0  0
   -1.3737   -1.3683   -0.0521 C   0  0  0  0  0  0  0  0  0  0  0  0
   -0.0698   -1.2211    0.7250 C   0  0  0  0  0  0  0  0  0  0  0  0
   -0.3418   -0.0204    1.4272 O   0  0  0  0  0  0  0  0  0  0  0  0
    0.8383   -0.4091   -0.1193 C   0  0  0  0  0  0  0  0  0  0  0  0
    2.1816   -0.4194   -0.2279 C   0  0  0  0  0  0  0  0  0  0  0  0
    1.2674   -0.7782   -1.3496 O   0  0  0  0  0  0  0  0  0  0  0  0
   -0.2489    2.4471   -0.8450 H   0  0  0  0  0  0  0  0  0  0  0  0
    1.1627    2.2165    0.2107 H   0  0  0  0  0  0  0  0  0  0  0  0
   -0.4783    2.5715    0.9199 H   0  0  0  0  0  0  0  0  0  0  0  0
   -1.4590    0.2028   -1.5819 H   0  0  0  0  0  0  0  0  0  0  0  0
   -2.3213    0.5900    0.0108 H   0  0  0  0  0  0  0  0  0  0  0  0
   -2.1948   -1.6397    0.6230 H   0  0  0  0  0  0  0  0  0  0  0  0
   -1.2737   -2.0284   -0.9236 H   0  0  0  0  0  0  0  0  0  0  0  0
    0.2785   -2.0509    1.2900 H   0  0  0  0  0  0  0  0  0  0  0  0
    2.8254   -1.2908    0.0138 H   0  0  0  0  0  0  0  0  0  0  0  0
    2.8096    0.4803   -0.4902 H   0  0  0  0  0  0  0  0  0  0  0  0
  1  2  1  0
  2  3  1  0
  3  4  1  0
  4  5  1  0
  5  6  1  0
  5  7  1  0
  7  8  1  0
  8  9  1  0
  6  2  1  0
  9  7  1  0
  7  2  1  0
  1 10  1  0
  1 11  1  0
  1 12  1  0
  3 13  1  0
  3 14  1  0
  4 15  1  0
  4 16  1  0
  5 17  1  0
  8 18  1  0
  8 19  1  0
M  END
