
     RDKit          3D

 18 21  0  0  0  0  0  0  0  0999 V2000
   -1.3067    1.5106   -0.4576 C   0  0  0  0  0  0  0  0  0  0  0  0
   -0.6706    0.2891   -0.0535 C   0  0  0  0  0  0  0  0  0  0  0  0
   -0.9451   -0.6341    1.0031 C   0  0  0  0  0  0  0  0  0  0  0  0
   -1.1130   -1.0887   -0.3587 C   0  0  0  0  0  0  0  0  0  0  0  0
    0.3122   -1.5068   -0.3975 C   0  0  0  0  0  0  0  0  0  0  0  0
    0.4272   -1.1539    0.9796 C   0  0  0  0  0  0  0  0  0  0  0  0
    0.7079   -0.1511   -0.1917 C   0  0  0  0  0  0  0  0  0  0  0  0
    1.9465    0.5344   -0.1227 C   0  0  0  0  0  0  0  0  0  0  0  0
   -2.1448    1.7915    0.2454 H   0  0  0  0  0  0  0  0  0  0  0  0
   -1.8315    1.3746   -1.4489 H   0  0  0  0  0  0  0  0  0  0  0  0
   -0.6697    2.3834   -0.5703 H   0  0  0  0  0  0  0  0  0  0  0  0
   -1.6288   -0.6113    1.8088 H   0  0  0  0  0  0  0  0  0  0  0  0
   -1.9242   -1.4190   -0.9165 H   0  0  0  0  0  0  0  0  0  0  0  0
    0.7240   -2.2926   -0.9723 H   0  0  0  0  0  0  0  0  0  0  0  0
    1.1279   -1.2883    1.7362 H   0  0  0  0  0  0  0  0  0  0  0  0
    2.1120    1.0941    0.8450 H   0  0  0  0  0  0  0  0  0  0  0  0
    2.0628    1.3065   -0.9128 H   0  0  0  0  0  0  0  0  0  0  0  0
    2.8141   -0.1385   -0.2156 H   0  0  0  0  0  0  0  0  0  0  0  0
  1  2  1  0
  2  3  1  0
  3  4  1  0
  4  5  1  0
  5  6  1  0
  6  7  1  0
  7  8  1  0
  4  2  1  0
  7  5  1  0
  7  2  1  0
  6  3  1  0
  1  9  1  0
  1 10  1  0
  1 11  1  0
  3 12  1  0
  4 13  1  0
  5 14  1  0
  6 15  1  0
  8 16  1  0
  8 17  1  0
  8 18  1  0
M  END
