
     RDKit          3D

 21 22  0  0  0  0  0  0  0  0999 V2000
   -0.7298   -1.4526   -1.0106 C   0  0  0  0  0  0  0  0  0  0  0  0
   -0.3122   -0.4711    0.0380 C   0  0  0  0  0  0  0  0  0  0  0  0
   -1.4622    0.1704    0.7400 C   0  0  0  0  0  0  0  0  0  0  0  0
   -1.6838    1.3488    0.0107 O   0  0  0  0  0  0  0  0  0  0  0  0
   -0.3708    1.8662   -0.0300 C   0  0  0  0  0  0  0  0  0  0  0  0
    0.3967    0.7090   -0.5976 C   0  0  0  0  0  0  0  0  0  0  0  0
    1.7840    0.5787   -0.0607 C   0  0  0  0  0  0  0  0  0  0  0  0
    1.6532   -0.0372    1.1869 O   0  0  0  0  0  0  0  0  0  0  0  0
    0.7254   -1.0431    0.9548 C   0  0  0  0  0  0  0  0  0  0  0  0
    0.1496   -2.0224   -1.3572 H   0  0  0  0  0  0  0  0  0  0  0  0
   -1.4987   -2.1433   -0.5881 H   0  0  0  0  0  0  0  0  0  0  0  0
   -1.2167   -0.8722   -1.8318 H   0  0  0  0  0  0  0  0  0  0  0  0
   -1.2687    0.4134    1.8026 H   0  0  0  0  0  0  0  0  0  0  0  0
   -2.3508   -0.4870    0.6018 H   0  0  0  0  0  0  0  0  0  0  0  0
   -0.3269    2.7339   -0.6979 H   0  0  0  0  0  0  0  0  0  0  0  0
   -0.0731    2.0552    1.0062 H   0  0  0  0  0  0  0  0  0  0  0  0
    0.3801    0.6844   -1.6945 H   0  0  0  0  0  0  0  0  0  0  0  0
    2.3227   -0.1611   -0.7060 H   0  0  0  0  0  0  0  0  0  0  0  0
    2.3659    1.4982   -0.0385 H   0  0  0  0  0  0  0  0  0  0  0  0
    1.2160   -1.8906    0.4051 H   0  0  0  0  0  0  0  0  0  0  0  0
    0.3002   -1.4776    1.8667 H   0  0  0  0  0  0  0  0  0  0  0  0
  1  2  1  0
  2  3  1  0
  3  4  1  0
  4  5  1  0
  5  6  1  0
  6  7  1  0
  7  8  1  0
  8  9  1  0
  6  2  1  0
  9  2  1  0
  1 10  1  0
  1 11  1  0
  1 12  1  0
  3 13  1  0
  3 14  1  0
  5 15  1  0
  5 16  1  0
  6 17  1  0
  7 18  1  0
  7 19  1  0
  9 20  1  0
  9 21  1  0
M  END
