
     RDKit          3D

 19 20  0  0  0  0  0  0  0  0999 V2000
    1.8893    0.4443   -0.2568 C   0  0  0  0  0  0  0  0  0  0  0  0
    0.4369    0.2942   -0.1675 C   0  0  0  0  0  0  0  0  0  0  0  0
   -0.2899    1.5340    0.3613 C   0  0  0  0  0  0  0  0  0  0  0  0
   -1.6125    1.2065    0.0192 O   0  0  0  0  0  0  0  0  0  0  0  0
   -1.5301    0.1606   -0.8968 C   0  0  0  0  0  0  0  0  0  0  0  0
   -1.3879   -1.1731   -0.1497 C   0  0  0  0  0  0  0  0  0  0  0  0
   -0.0753   -0.8776    0.5927 C   0  0  0  0  0  0  0  0  0  0  0  0
    0.7547   -1.9601    0.6420 O   0  0  0  0  0  0  0  0  0  0  0  0
   -0.2146    0.2242   -1.4244 O   0  0  0  0  0  0  0  0  0  0  0  0
    2.2134    1.2643    0.4417 H   0  0  0  0  0  0  0  0  0  0  0  0
    2.4799   -0.4627   -0.0091 H   0  0  0  0  0  0  0  0  0  0  0  0
    2.2308    0.7626   -1.2651 H   0  0  0  0  0  0  0  0  0  0  0  0
   -0.0363    2.4248   -0.2550 H   0  0  0  0  0  0  0  0  0  0  0  0
   -0.1468    1.6750    1.4280 H   0  0  0  0  0  0  0  0  0  0  0  0
   -2.2921    0.1486   -1.6520 H   0  0  0  0  0  0  0  0  0  0  0  0
   -2.2145   -1.3653    0.5242 H   0  0  0  0  0  0  0  0  0  0  0  0
   -1.2034   -1.9419   -0.9161 H   0  0  0  0  0  0  0  0  0  0  0  0
   -0.4079   -0.5344    1.6127 H   0  0  0  0  0  0  0  0  0  0  0  0
    1.4063   -1.8241    1.3707 H   0  0  0  0  0  0  0  0  0  0  0  0
  1  2  1  0
  2  3  1  0
  3  4  1  0
  4  5  1  0
  5  6  1  0
  6  7  1  0
  7  8  1  0
  5  9  1  0
  7  2  1  0
  9  2  1  0
  1 10  1  0
  1 11  1  0
  1 12  1  0
  3 13  1  0
  3 14  1  0
  5 15  1  0
  6 16  1  0
  6 17  1  0
  7 18  1  0
  8 19  1  0
M  END
