
     RDKit          3D

 17 19  0  0  0  0  0  0  0  0999 V2000
    1.7964   -0.0706    0.6950 C   0  0  0  0  0  0  0  0  0  0  0  0
    0.5087    0.1154   -0.0062 C   0  0  0  0  0  0  0  0  0  0  0  0
    0.0210   -0.9991   -0.8866 C   0  0  0  0  0  0  0  0  0  0  0  0
   -1.3844   -0.7076   -0.3964 C   0  0  0  0  0  0  0  0  0  0  0  0
   -1.7647    0.6572    0.0316 C   0  0  0  0  0  0  0  0  0  0  0  0
   -1.0740    1.7887   -0.5003 O   0  0  0  0  0  0  0  0  0  0  0  0
    0.2778    1.4579   -0.6301 C   0  0  0  0  0  0  0  0  0  0  0  0
    1.1170    2.1880   -1.1806 O   0  0  0  0  0  0  0  0  0  0  0  0
   -0.7540   -0.0528    0.7860 C   0  0  0  0  0  0  0  0  0  0  0  0
    2.5658    0.5904    0.2235 H   0  0  0  0  0  0  0  0  0  0  0  0
    1.6852    0.1580    1.7690 H   0  0  0  0  0  0  0  0  0  0  0  0
    2.1604   -1.1225    0.6111 H   0  0  0  0  0  0  0  0  0  0  0  0
    0.3679   -1.9756   -0.4708 H   0  0  0  0  0  0  0  0  0  0  0  0
    0.1407   -0.8707   -1.9629 H   0  0  0  0  0  0  0  0  0  0  0  0
   -2.1122   -1.5133   -0.3089 H   0  0  0  0  0  0  0  0  0  0  0  0
   -2.7591    0.7845    0.4431 H   0  0  0  0  0  0  0  0  0  0  0  0
   -0.7926   -0.4279    1.7834 H   0  0  0  0  0  0  0  0  0  0  0  0
  1  2  1  0
  2  3  1  0
  3  4  1  0
  4  5  1  0
  5  6  1  0
  6  7  1  0
  7  8  2  0
  5  9  1  0
  7  2  1  0
  9  2  1  0
  9  4  1  0
  1 10  1  0
  1 11  1  0
  1 12  1  0
  3 13  1  0
  3 14  1  0
  4 15  1  0
  5 16  1  0
  9 17  1  0
M  END
