
     RDKit          3D

 19 21  0  0  0  0  0  0  0  0999 V2000
    2.4765   -0.9431    0.3696 C   0  0  0  0  0  0  0  0  0  0  0  0
    1.5756    0.2363    0.0976 C   0  0  0  0  0  0  0  0  0  0  0  0
    0.7067    0.7967    1.1668 C   0  0  0  0  0  0  0  0  0  0  0  0
   -0.4793    0.7909    0.2340 C   0  0  0  0  0  0  0  0  0  0  0  0
   -1.6810    0.0516    0.7023 C   0  0  0  0  0  0  0  0  0  0  0  0
   -2.8488    0.0664   -0.2549 C   0  0  0  0  0  0  0  0  0  0  0  0
   -2.0063   -1.0930    0.0219 O   0  0  0  0  0  0  0  0  0  0  0  0
    0.3267    0.0128   -0.7438 C   0  0  0  0  0  0  0  0  0  0  0  0
    1.4536    0.6317   -1.2207 O   0  0  0  0  0  0  0  0  0  0  0  0
    2.6733   -0.9643    1.4638 H   0  0  0  0  0  0  0  0  0  0  0  0
    1.9833   -1.8826    0.0167 H   0  0  0  0  0  0  0  0  0  0  0  0
    3.4226   -0.8625   -0.1859 H   0  0  0  0  0  0  0  0  0  0  0  0
    0.5674    0.0398    1.9850 H   0  0  0  0  0  0  0  0  0  0  0  0
    0.9418    1.8139    1.5225 H   0  0  0  0  0  0  0  0  0  0  0  0
   -0.6760    1.8224   -0.1744 H   0  0  0  0  0  0  0  0  0  0  0  0
   -1.9912    0.1661    1.7708 H   0  0  0  0  0  0  0  0  0  0  0  0
   -2.6970    0.5058   -1.2625 H   0  0  0  0  0  0  0  0  0  0  0  0
   -3.8655   -0.1370    0.1074 H   0  0  0  0  0  0  0  0  0  0  0  0
    0.1178   -1.0518   -0.9486 H   0  0  0  0  0  0  0  0  0  0  0  0
  1  2  1  0
  2  3  1  0
  3  4  1  0
  4  5  1  0
  5  6  1  0
  6  7  1  0
  4  8  1  0
  8  9  1  0
  8  2  1  0
  9  2  1  0
  7  5  1  0
  1 10  1  0
  1 11  1  0
  1 12  1  0
  3 13  1  0
  3 14  1  0
  4 15  1  0
  5 16  1  0
  6 17  1  0
  6 18  1  0
  8 19  1  0
M  END
