
     RDKit          2D

 21 23  0  0  0  0  0  0  0  0999 V2000
    1.7308    1.8945    0.0000 C   0  0  0  0  0  0  0  0  0  0  0  0
    0.3943    1.2135    0.0000 C   0  0  0  0  0  0  0  0  0  0  0  0
    1.2760    0.0000    0.0000 C   0  0  0  0  0  0  0  0  0  0  0  0
    0.3943   -1.2135    0.0000 O   0  0  0  0  0  0  0  0  0  0  0  0
   -1.0323   -0.7500    0.0000 C   0  0  0  0  0  0  0  0  0  0  0  0
   -1.0323    0.7500    0.0000 C   0  0  0  0  0  0  0  0  0  0  0  0
   -1.4958    2.1766    0.0000 C   0  0  0  0  0  0  0  0  0  0  0  0
   -0.0692    2.6401    0.0000 C   0  0  0  0  0  0  0  0  0  0  0  0
   -0.8721    1.8588    0.0000 C   0  0  0  0  0  0  0  0  0  0  0  0
    3.0673    2.5755    0.0000 H   0  0  0  0  0  0  0  0  0  0  0  0
    2.1766    1.2336    0.0000 H   0  0  0  0  0  0  0  0  0  0  0  0
    1.2178    3.3041    0.0000 H   0  0  0  0  0  0  0  0  0  0  0  0
    1.9290    0.4572    0.0000 H   0  0  0  0  0  0  0  0  0  0  0  0
    2.3907   -1.0037    0.0000 H   0  0  0  0  0  0  0  0  0  0  0  0
   -1.3442   -2.2172    0.0000 H   0  0  0  0  0  0  0  0  0  0  0  0
   -2.5241   -0.5932    0.0000 H   0  0  0  0  0  0  0  0  0  0  0  0
   -2.1298    3.5360    0.0000 H   0  0  0  0  0  0  0  0  0  0  0  0
   -2.9683    1.8904    0.0000 H   0  0  0  0  0  0  0  0  0  0  0  0
    0.4438    4.0497    0.0000 H   0  0  0  0  0  0  0  0  0  0  0  0
   -2.8553    1.5426    0.0000 H   0  0  0  0  0  0  0  0  0  0  0  0
   -1.7820    3.6490    0.0000 H   0  0  0  0  0  0  0  0  0  0  0  0
  1  2  1  0
  2  3  1  0
  3  4  1  0
  4  5  1  0
  5  6  1  0
  6  7  1  0
  7  8  1  0
  8  9  1  0
  6  2  1  0
  8  2  1  0
  9  6  1  0
  1 10  1  0
  1 11  1  0
  1 12  1  0
  3 13  1  0
  3 14  1  0
  5 15  1  0
  5 16  1  0
  7 17  1  0
  7 18  1  0
  8 19  1  0
  9 20  1  0
  9 21  1  0
M  END
