
     RDKit          3D

 17 19  0  0  0  0  0  0  0  0999 V2000
    2.1352    0.4388    0.3471 C   0  0  0  0  0  0  0  0  0  0  0  0
    0.8501    0.0840   -0.2659 C   0  0  0  0  0  0  0  0  0  0  0  0
    0.8730   -1.3030   -0.7722 O   0  0  0  0  0  0  0  0  0  0  0  0
   -0.0147   -1.0501    0.2252 C   0  0  0  0  0  0  0  0  0  0  0  0
   -1.4217   -0.5107   -0.1010 C   0  0  0  0  0  0  0  0  0  0  0  0
   -2.3681   -1.0554    0.7331 O   0  0  0  0  0  0  0  0  0  0  0  0
   -1.1531    0.9299    0.2126 C   0  0  0  0  0  0  0  0  0  0  0  0
   -0.8552    1.9760   -0.4980 O   0  0  0  0  0  0  0  0  0  0  0  0
   -0.0718    1.0157   -0.9173 C   0  0  0  0  0  0  0  0  0  0  0  0
    2.9582    0.1854   -0.3853 H   0  0  0  0  0  0  0  0  0  0  0  0
    2.3858   -0.0097    1.3001 H   0  0  0  0  0  0  0  0  0  0  0  0
    2.2194    1.5494    0.4747 H   0  0  0  0  0  0  0  0  0  0  0  0
    0.0708   -1.4401    1.2329 H   0  0  0  0  0  0  0  0  0  0  0  0
   -1.5830   -0.6989   -1.1603 H   0  0  0  0  0  0  0  0  0  0  0  0
   -2.8704   -1.7532    0.2402 H   0  0  0  0  0  0  0  0  0  0  0  0
   -0.7410    0.9998    1.2689 H   0  0  0  0  0  0  0  0  0  0  0  0
   -0.4136    0.6425   -1.9348 H   0  0  0  0  0  0  0  0  0  0  0  0
  1  2  1  0
  2  3  1  0
  3  4  1  0
  4  5  1  0
  5  6  1  0
  5  7  1  0
  7  8  1  0
  8  9  1  0
  4  2  1  0
  9  7  1  0
  9  2  1  0
  1 10  1  0
  1 11  1  0
  1 12  1  0
  4 13  1  0
  5 14  1  0
  6 15  1  0
  7 16  1  0
  9 17  1  0
M  END
