
     RDKit          3D

 23 25  0  0  0  0  0  0  0  0999 V2000
    2.1013    0.6761    0.5937 C   0  0  0  0  0  0  0  0  0  0  0  0
    0.7995    0.2568   -0.0435 C   0  0  0  0  0  0  0  0  0  0  0  0
   -0.1634    1.4015   -0.1930 C   0  0  0  0  0  0  0  0  0  0  0  0
   -1.4057    1.0700    0.5819 C   0  0  0  0  0  0  0  0  0  0  0  0
   -2.0080   -0.2125    0.0057 C   0  0  0  0  0  0  0  0  0  0  0  0
   -1.0878   -1.3804    0.1222 C   0  0  0  0  0  0  0  0  0  0  0  0
    0.0464   -1.6072   -0.7773 C   0  0  0  0  0  0  0  0  0  0  0  0
    0.9070   -0.5199   -1.3172 C   0  0  0  0  0  0  0  0  0  0  0  0
    0.2346   -0.9407    0.6267 C   0  0  0  0  0  0  0  0  0  0  0  0
    2.5607    1.5530    0.1459 H   0  0  0  0  0  0  0  0  0  0  0  0
    1.8532    0.9072    1.6704 H   0  0  0  0  0  0  0  0  0  0  0  0
    2.7866   -0.1982    0.6474 H   0  0  0  0  0  0  0  0  0  0  0  0
    0.2811    2.3287    0.2090 H   0  0  0  0  0  0  0  0  0  0  0  0
   -0.4681    1.5877   -1.2422 H   0  0  0  0  0  0  0  0  0  0  0  0
   -2.1263    1.8802    0.4610 H   0  0  0  0  0  0  0  0  0  0  0  0
   -1.1270    0.9047    1.6357 H   0  0  0  0  0  0  0  0  0  0  0  0
   -2.3338   -0.0024   -1.0431 H   0  0  0  0  0  0  0  0  0  0  0  0
   -2.9272   -0.3979    0.6314 H   0  0  0  0  0  0  0  0  0  0  0  0
   -1.4927   -2.2852    0.6308 H   0  0  0  0  0  0  0  0  0  0  0  0
    0.4483   -2.6277   -0.8849 H   0  0  0  0  0  0  0  0  0  0  0  0
    0.4037   -0.0517   -2.2128 H   0  0  0  0  0  0  0  0  0  0  0  0
    1.9286   -0.8280   -1.6189 H   0  0  0  0  0  0  0  0  0  0  0  0
    0.7889   -1.5142    1.3712 H   0  0  0  0  0  0  0  0  0  0  0  0
  1  2  1  0
  2  3  1  0
  3  4  1  0
  4  5  1  0
  5  6  1  0
  6  7  1  0
  7  8  1  0
  7  9  1  0
  8  2  1  0
  9  2  1  0
  9  6  1  0
  1 10  1  0
  1 11  1  0
  1 12  1  0
  3 13  1  0
  3 14  1  0
  4 15  1  0
  4 16  1  0
  5 17  1  0
  5 18  1  0
  6 19  1  0
  7 20  1  0
  8 21  1  0
  8 22  1  0
  9 23  1  0
M  END
