
     RDKit          3D

 19 21  0  0  0  0  0  0  0  0999 V2000
   -0.7268   -1.8404   -0.1575 C   0  0  0  0  0  0  0  0  0  0  0  0
   -0.5211   -0.3929    0.1168 C   0  0  0  0  0  0  0  0  0  0  0  0
   -1.6946    0.4367    0.5940 C   0  0  0  0  0  0  0  0  0  0  0  0
   -1.4277    1.7167    0.3714 C   0  0  0  0  0  0  0  0  0  0  0  0
   -0.0875    1.8630   -0.2583 C   0  0  0  0  0  0  0  0  0  0  0  0
    0.9217    1.5205    0.6522 O   0  0  0  0  0  0  0  0  0  0  0  0
    0.7956    0.1670    0.4659 C   0  0  0  0  0  0  0  0  0  0  0  0
    2.0627   -0.6261    0.2682 C   0  0  0  0  0  0  0  0  0  0  0  0
    0.0985    0.5060   -0.8588 C   0  0  0  0  0  0  0  0  0  0  0  0
   -1.8106   -2.0813    0.0495 H   0  0  0  0  0  0  0  0  0  0  0  0
   -0.1474   -2.5269    0.4716 H   0  0  0  0  0  0  0  0  0  0  0  0
   -0.5946   -2.0709   -1.2401 H   0  0  0  0  0  0  0  0  0  0  0  0
   -2.6113    0.0743    1.0452 H   0  0  0  0  0  0  0  0  0  0  0  0
   -2.0899    2.5296    0.6139 H   0  0  0  0  0  0  0  0  0  0  0  0
    0.0826    2.7338   -0.8741 H   0  0  0  0  0  0  0  0  0  0  0  0
    2.6296   -0.6380    1.2009 H   0  0  0  0  0  0  0  0  0  0  0  0
    2.6780   -0.0464   -0.4776 H   0  0  0  0  0  0  0  0  0  0  0  0
    1.8941   -1.6102   -0.1899 H   0  0  0  0  0  0  0  0  0  0  0  0
    0.5487    0.2855   -1.7932 H   0  0  0  0  0  0  0  0  0  0  0  0
  1  2  1  0
  2  3  1  0
  3  4  2  0
  4  5  1  0
  5  6  1  0
  6  7  1  0
  7  8  1  0
  7  9  1  0
  7  2  1  0
  9  2  1  0
  9  5  1  0
  1 10  1  0
  1 11  1  0
  1 12  1  0
  3 13  1  0
  4 14  1  0
  5 15  1  0
  8 16  1  0
  8 17  1  0
  8 18  1  0
  9 19  1  0
M  END
