
     RDKit          3D

 21 23  0  0  0  0  0  0  0  0999 V2000
   -2.3442   -0.6600   -0.0096 C   0  0  0  0  0  0  0  0  0  0  0  0
   -1.0751    0.1286    0.0729 C   0  0  0  0  0  0  0  0  0  0  0  0
   -0.5311    0.6829   -1.1803 C   0  0  0  0  0  0  0  0  0  0  0  0
    0.7778    0.9425   -1.3986 C   0  0  0  0  0  0  0  0  0  0  0  0
    1.6605    0.6370   -0.2955 C   0  0  0  0  0  0  0  0  0  0  0  0
    2.4951   -0.4619    0.0285 C   0  0  0  0  0  0  0  0  0  0  0  0
    1.1242   -0.7865    0.0985 C   0  0  0  0  0  0  0  0  0  0  0  0
    0.0212   -0.4792    0.9864 C   0  0  0  0  0  0  0  0  0  0  0  0
   -0.6220    0.7524    1.3356 C   0  0  0  0  0  0  0  0  0  0  0  0
   -3.2512   -0.0375   -0.0692 H   0  0  0  0  0  0  0  0  0  0  0  0
   -2.4045   -1.4173    0.8264 H   0  0  0  0  0  0  0  0  0  0  0  0
   -2.2639   -1.3006   -0.9362 H   0  0  0  0  0  0  0  0  0  0  0  0
   -1.2453    0.8885   -1.9665 H   0  0  0  0  0  0  0  0  0  0  0  0
    1.0391    1.3482   -2.3627 H   0  0  0  0  0  0  0  0  0  0  0  0
    1.5920    1.4296    0.4922 H   0  0  0  0  0  0  0  0  0  0  0  0
    3.0968   -0.4448    0.9609 H   0  0  0  0  0  0  0  0  0  0  0  0
    3.1351   -0.8890   -0.7991 H   0  0  0  0  0  0  0  0  0  0  0  0
    0.7517   -1.4381   -0.7542 H   0  0  0  0  0  0  0  0  0  0  0  0
   -0.3047   -1.3963    1.5761 H   0  0  0  0  0  0  0  0  0  0  0  0
   -1.4040    0.7194    2.1536 H   0  0  0  0  0  0  0  0  0  0  0  0
   -0.2474    1.7821    1.2410 H   0  0  0  0  0  0  0  0  0  0  0  0
  1  2  1  0
  2  3  1  0
  3  4  2  0
  4  5  1  0
  5  6  1  0
  6  7  1  0
  7  8  1  0
  8  9  1  0
  8  2  1  0
  9  2  1  0
  7  5  1  0
  1 10  1  0
  1 11  1  0
  1 12  1  0
  3 13  1  0
  4 14  1  0
  5 15  1  0
  6 16  1  0
  6 17  1  0
  7 18  1  0
  8 19  1  0
  9 20  1  0
  9 21  1  0
M  END
