
     RDKit          3D

 21 23  0  0  0  0  0  0  0  0999 V2000
   -1.1537    1.6443   -0.2985 C   0  0  0  0  0  0  0  0  0  0  0  0
   -0.2601    0.5553    0.0869 C   0  0  0  0  0  0  0  0  0  0  0  0
    1.1417    0.8945    0.4520 C   0  0  0  0  0  0  0  0  0  0  0  0
    1.9725   -0.3213    0.0382 C   0  0  0  0  0  0  0  0  0  0  0  0
    0.8940   -1.3729   -0.0999 C   0  0  0  0  0  0  0  0  0  0  0  0
    0.2468   -1.4114    1.1615 O   0  0  0  0  0  0  0  0  0  0  0  0
   -0.8040   -0.5315    0.9832 C   0  0  0  0  0  0  0  0  0  0  0  0
   -1.4286   -1.1126   -0.2937 C   0  0  0  0  0  0  0  0  0  0  0  0
   -0.1356   -0.6249   -0.8877 C   0  0  0  0  0  0  0  0  0  0  0  0
   -1.6752    2.0320    0.6251 H   0  0  0  0  0  0  0  0  0  0  0  0
   -0.5837    2.4844   -0.7117 H   0  0  0  0  0  0  0  0  0  0  0  0
   -1.9291    1.3781   -1.0366 H   0  0  0  0  0  0  0  0  0  0  0  0
    1.4446    1.8065   -0.0764 H   0  0  0  0  0  0  0  0  0  0  0  0
    1.2310    1.0227    1.5683 H   0  0  0  0  0  0  0  0  0  0  0  0
    2.6916   -0.5687    0.8318 H   0  0  0  0  0  0  0  0  0  0  0  0
    2.4512   -0.0546   -0.9104 H   0  0  0  0  0  0  0  0  0  0  0  0
    1.2042   -2.3243   -0.4694 H   0  0  0  0  0  0  0  0  0  0  0  0
   -1.4529   -0.2838    1.7799 H   0  0  0  0  0  0  0  0  0  0  0  0
   -1.5071   -2.1933   -0.1798 H   0  0  0  0  0  0  0  0  0  0  0  0
   -2.3124   -0.5886   -0.6540 H   0  0  0  0  0  0  0  0  0  0  0  0
   -0.0351   -0.4297   -1.9088 H   0  0  0  0  0  0  0  0  0  0  0  0
  1  2  1  0
  2  3  1  0
  3  4  1  0
  4  5  1  0
  5  6  1  0
  6  7  1  0
  7  8  1  0
  8  9  1  0
  7  2  1  0
  9  2  1  0
  9  5  1  0
  1 10  1  0
  1 11  1  0
  1 12  1  0
  3 13  1  0
  3 14  1  0
  4 15  1  0
  4 16  1  0
  5 17  1  0
  7 18  1  0
  8 19  1  0
  8 20  1  0
  9 21  1  0
M  END
