
     RDKit          3D

 21 22  0  0  0  0  0  0  0  0999 V2000
    2.1855    0.6830    0.2354 C   0  0  0  0  0  0  0  0  0  0  0  0
    0.8586    0.1962   -0.3290 C   0  0  0  0  0  0  0  0  0  0  0  0
    0.8932   -1.2187   -0.9318 C   0  0  0  0  0  0  0  0  0  0  0  0
    0.1415   -0.8798    0.3466 C   0  0  0  0  0  0  0  0  0  0  0  0
    0.6878   -1.4843    1.4717 O   0  0  0  0  0  0  0  0  0  0  0  0
   -1.3507   -0.7660    0.3032 C   0  0  0  0  0  0  0  0  0  0  0  0
   -1.8661    0.6221    0.1933 C   0  0  0  0  0  0  0  0  0  0  0  0
   -0.9935    1.5738   -0.5435 C   0  0  0  0  0  0  0  0  0  0  0  0
    0.1500    1.0822   -1.0624 O   0  0  0  0  0  0  0  0  0  0  0  0
    2.9490    0.6020   -0.5780 H   0  0  0  0  0  0  0  0  0  0  0  0
    2.5112    0.0467    1.0930 H   0  0  0  0  0  0  0  0  0  0  0  0
    2.1146    1.7369    0.5004 H   0  0  0  0  0  0  0  0  0  0  0  0
    1.8480   -1.7396   -0.8879 H   0  0  0  0  0  0  0  0  0  0  0  0
    0.2202   -1.4419   -1.7736 H   0  0  0  0  0  0  0  0  0  0  0  0
    0.4750   -2.4623    1.3837 H   0  0  0  0  0  0  0  0  0  0  0  0
   -1.7397   -1.4013   -0.5315 H   0  0  0  0  0  0  0  0  0  0  0  0
   -1.7991   -1.2204    1.2304 H   0  0  0  0  0  0  0  0  0  0  0  0
   -2.0242    1.0330    1.2244 H   0  0  0  0  0  0  0  0  0  0  0  0
   -2.9107    0.5564   -0.2338 H   0  0  0  0  0  0  0  0  0  0  0  0
   -1.6130    1.9888   -1.3940 H   0  0  0  0  0  0  0  0  0  0  0  0
   -0.7378    2.4934    0.0610 H   0  0  0  0  0  0  0  0  0  0  0  0
  1  2  1  0
  2  3  1  0
  3  4  1  0
  4  5  1  0
  4  6  1  0
  6  7  1  0
  7  8  1  0
  8  9  1  0
  4  2  1  0
  9  2  1  0
  1 10  1  0
  1 11  1  0
  1 12  1  0
  3 13  1  0
  3 14  1  0
  5 15  1  0
  6 16  1  0
  6 17  1  0
  7 18  1  0
  7 19  1  0
  8 20  1  0
  8 21  1  0
M  END
