
     RDKit          3D

 16 17  0  0  0  0  0  0  0  0999 V2000
    2.1114   -0.5168   -0.1046 C   0  0  0  0  0  0  0  0  0  0  0  0
    0.6594   -0.1628   -0.0988 C   0  0  0  0  0  0  0  0  0  0  0  0
    0.2984    0.4393   -1.4357 O   0  0  0  0  0  0  0  0  0  0  0  0
   -0.3838   -0.6962   -0.7945 C   0  0  0  0  0  0  0  0  0  0  0  0
   -1.6830   -0.2281   -0.1864 C   0  0  0  0  0  0  0  0  0  0  0  0
   -1.2575    0.9893    0.6031 C   0  0  0  0  0  0  0  0  0  0  0  0
    0.0998    0.6143    1.0186 C   0  0  0  0  0  0  0  0  0  0  0  0
    0.6499    0.8727    2.0371 O   0  0  0  0  0  0  0  0  0  0  0  0
    2.5119   -0.6964   -1.1226 H   0  0  0  0  0  0  0  0  0  0  0  0
    2.7320    0.3238    0.3102 H   0  0  0  0  0  0  0  0  0  0  0  0
    2.3398   -1.4539    0.4732 H   0  0  0  0  0  0  0  0  0  0  0  0
   -0.3777   -1.5720   -1.4667 H   0  0  0  0  0  0  0  0  0  0  0  0
   -2.3934    0.0175   -0.9958 H   0  0  0  0  0  0  0  0  0  0  0  0
   -2.1595   -0.9828    0.4466 H   0  0  0  0  0  0  0  0  0  0  0  0
   -1.2108    1.8456   -0.1267 H   0  0  0  0  0  0  0  0  0  0  0  0
   -1.9371    1.2065    1.4431 H   0  0  0  0  0  0  0  0  0  0  0  0
  1  2  1  0
  2  3  1  0
  3  4  1  0
  4  5  1  0
  5  6  1  0
  6  7  1  0
  7  8  2  0
  4  2  1  0
  7  2  1  0
  1  9  1  0
  1 10  1  0
  1 11  1  0
  4 12  1  0
  5 13  1  0
  5 14  1  0
  6 15  1  0
  6 16  1  0
M  END
