
     RDKit          3D

 19 21  0  0  0  0  0  0  0  0999 V2000
   -2.4743    0.3728   -0.4628 C   0  0  0  0  0  0  0  0  0  0  0  0
   -1.1539   -0.2469   -0.1335 C   0  0  0  0  0  0  0  0  0  0  0  0
    0.0258    0.1724   -0.9623 C   0  0  0  0  0  0  0  0  0  0  0  0
    1.2468   -0.2033   -0.1752 C   0  0  0  0  0  0  0  0  0  0  0  0
    2.5564    0.4300   -0.3951 C   0  0  0  0  0  0  0  0  0  0  0  0
    2.2355   -0.9618   -0.7707 O   0  0  0  0  0  0  0  0  0  0  0  0
    0.8273   -0.4581    1.2382 C   0  0  0  0  0  0  0  0  0  0  0  0
   -0.6634   -0.3258    1.2150 C   0  0  0  0  0  0  0  0  0  0  0  0
   -1.2126   -1.4876    0.4508 O   0  0  0  0  0  0  0  0  0  0  0  0
   -3.2889   -0.1233    0.1376 H   0  0  0  0  0  0  0  0  0  0  0  0
   -2.7033    0.1569   -1.5385 H   0  0  0  0  0  0  0  0  0  0  0  0
   -2.5402    1.4465   -0.2882 H   0  0  0  0  0  0  0  0  0  0  0  0
    0.0339   -0.2431   -1.9794 H   0  0  0  0  0  0  0  0  0  0  0  0
    0.0043    1.3023   -0.9888 H   0  0  0  0  0  0  0  0  0  0  0  0
    2.6407    1.0753   -1.2899 H   0  0  0  0  0  0  0  0  0  0  0  0
    3.2853    0.4978    0.4241 H   0  0  0  0  0  0  0  0  0  0  0  0
    1.3201    0.1873    1.9663 H   0  0  0  0  0  0  0  0  0  0  0  0
    1.1076   -1.5287    1.4676 H   0  0  0  0  0  0  0  0  0  0  0  0
   -1.2473   -0.0626    2.0847 H   0  0  0  0  0  0  0  0  0  0  0  0
  1  2  1  0
  2  3  1  0
  3  4  1  0
  4  5  1  0
  5  6  1  0
  4  7  1  0
  7  8  1  0
  8  9  1  0
  8  2  1  0
  9  2  1  0
  6  4  1  0
  1 10  1  0
  1 11  1  0
  1 12  1  0
  3 13  1  0
  3 14  1  0
  5 15  1  0
  5 16  1  0
  7 17  1  0
  7 18  1  0
  8 19  1  0
M  END
