
     RDKit          3D

 21 22  0  0  0  0  0  0  0  0999 V2000
   -2.2240   -0.0994   -0.8149 C   0  0  0  0  0  0  0  0  0  0  0  0
   -0.9383   -0.0648   -0.0982 C   0  0  0  0  0  0  0  0  0  0  0  0
   -0.4410    1.2799    0.3027 C   0  0  0  0  0  0  0  0  0  0  0  0
    1.0746    1.0793    0.4597 C   0  0  0  0  0  0  0  0  0  0  0  0
    1.2594   -0.3773    0.1716 C   0  0  0  0  0  0  0  0  0  0  0  0
    2.4892   -0.8098   -0.1058 O   0  0  0  0  0  0  0  0  0  0  0  0
    0.5019   -1.1452    1.2443 C   0  0  0  0  0  0  0  0  0  0  0  0
   -0.8520   -0.9315    0.9862 O   0  0  0  0  0  0  0  0  0  0  0  0
    0.2333   -0.5703   -0.9607 C   0  0  0  0  0  0  0  0  0  0  0  0
   -2.6131   -1.1330   -0.8200 H   0  0  0  0  0  0  0  0  0  0  0  0
   -2.0837    0.1918   -1.8743 H   0  0  0  0  0  0  0  0  0  0  0  0
   -2.9521    0.5466   -0.2945 H   0  0  0  0  0  0  0  0  0  0  0  0
   -0.8874    1.6780    1.2230 H   0  0  0  0  0  0  0  0  0  0  0  0
   -0.5860    2.0230   -0.5050 H   0  0  0  0  0  0  0  0  0  0  0  0
    1.6324    1.7452   -0.2075 H   0  0  0  0  0  0  0  0  0  0  0  0
    1.3289    1.3345    1.5094 H   0  0  0  0  0  0  0  0  0  0  0  0
    3.0436   -0.1039   -0.4858 H   0  0  0  0  0  0  0  0  0  0  0  0
    0.7948   -0.8569    2.2590 H   0  0  0  0  0  0  0  0  0  0  0  0
    0.6824   -2.2311    1.0254 H   0  0  0  0  0  0  0  0  0  0  0  0
    0.1096   -1.6370   -1.2094 H   0  0  0  0  0  0  0  0  0  0  0  0
    0.4276    0.0821   -1.8054 H   0  0  0  0  0  0  0  0  0  0  0  0
  1  2  1  0
  2  3  1  0
  3  4  1  0
  4  5  1  0
  5  6  1  0
  5  7  1  0
  7  8  1  0
  5  9  1  0
  8  2  1  0
  9  2  1  0
  1 10  1  0
  1 11  1  0
  1 12  1  0
  3 13  1  0
  3 14  1  0
  4 15  1  0
  4 16  1  0
  6 17  1  0
  7 18  1  0
  7 19  1  0
  9 20  1  0
  9 21  1  0
M  END
