
     RDKit          3D

 19 20  0  0  0  0  0  0  0  0999 V2000
    1.9580   -0.1153   -0.8478 C   0  0  0  0  0  0  0  0  0  0  0  0
    0.8418   -0.0223    0.1459 C   0  0  0  0  0  0  0  0  0  0  0  0
    0.6758   -0.9645    1.2501 C   0  0  0  0  0  0  0  0  0  0  0  0
   -0.2118   -1.0489    0.0520 C   0  0  0  0  0  0  0  0  0  0  0  0
   -1.6257   -0.6093    0.1348 C   0  0  0  0  0  0  0  0  0  0  0  0
   -1.8631    0.7329   -0.4151 C   0  0  0  0  0  0  0  0  0  0  0  0
   -0.9519    1.6691   -0.3244 C   0  0  0  0  0  0  0  0  0  0  0  0
    0.3049    1.3491    0.3329 C   0  0  0  0  0  0  0  0  0  0  0  0
    0.9249    2.1636    1.0252 O   0  0  0  0  0  0  0  0  0  0  0  0
    2.9589   -0.0001   -0.4303 H   0  0  0  0  0  0  0  0  0  0  0  0
    1.7357    0.6259   -1.6587 H   0  0  0  0  0  0  0  0  0  0  0  0
    1.9347   -1.1118   -1.3688 H   0  0  0  0  0  0  0  0  0  0  0  0
    0.1575   -0.6255    2.1772 H   0  0  0  0  0  0  0  0  0  0  0  0
    1.4094   -1.7608    1.4458 H   0  0  0  0  0  0  0  0  0  0  0  0
   -0.0050   -1.9386   -0.5953 H   0  0  0  0  0  0  0  0  0  0  0  0
   -2.0403   -0.7077    1.1803 H   0  0  0  0  0  0  0  0  0  0  0  0
   -2.2886   -1.2993   -0.4662 H   0  0  0  0  0  0  0  0  0  0  0  0
   -2.8143    0.9938   -0.9203 H   0  0  0  0  0  0  0  0  0  0  0  0
   -1.1009    2.6697   -0.7173 H   0  0  0  0  0  0  0  0  0  0  0  0
  1  2  1  0
  2  3  1  0
  3  4  1  0
  4  5  1  0
  5  6  1  0
  6  7  2  0
  7  8  1  0
  8  9  2  0
  4  2  1  0
  8  2  1  0
  1 10  1  0
  1 11  1  0
  1 12  1  0
  3 13  1  0
  3 14  1  0
  4 15  1  0
  5 16  1  0
  5 17  1  0
  6 18  1  0
  7 19  1  0
M  END
