
     RDKit          3D

 14 15  0  0  0  0  0  0  0  0999 V2000
   -1.3505   -1.0478   -0.3085 C   0  0  0  0  0  0  0  0  0  0  0  0
   -0.0921   -0.5089    0.2856 C   0  0  0  0  0  0  0  0  0  0  0  0
    1.0419   -1.3437    0.4543 O   0  0  0  0  0  0  0  0  0  0  0  0
    1.9348   -0.5074   -0.1720 C   0  0  0  0  0  0  0  0  0  0  0  0
    3.1433   -0.4887   -0.3952 O   0  0  0  0  0  0  0  0  0  0  0  0
    0.8133    0.3946   -0.4807 C   0  0  0  0  0  0  0  0  0  0  0  0
    0.0619    0.9182    0.6712 C   0  0  0  0  0  0  0  0  0  0  0  0
   -0.9946    1.7795    0.4637 O   0  0  0  0  0  0  0  0  0  0  0  0
   -1.4351   -2.1335   -0.0193 H   0  0  0  0  0  0  0  0  0  0  0  0
   -1.4142   -0.9570   -1.4043 H   0  0  0  0  0  0  0  0  0  0  0  0
   -2.2088   -0.5477    0.1775 H   0  0  0  0  0  0  0  0  0  0  0  0
    0.5824    0.6662   -1.5231 H   0  0  0  0  0  0  0  0  0  0  0  0
    0.5864    1.0824    1.6366 H   0  0  0  0  0  0  0  0  0  0  0  0
   -0.6687    2.6937    0.6143 H   0  0  0  0  0  0  0  0  0  0  0  0
  1  2  1  0
  2  3  1  0
  3  4  1  0
  4  5  2  0
  4  6  1  0
  6  7  1  0
  7  8  1  0
  6  2  1  0
  7  2  1  0
  1  9  1  0
  1 10  1  0
  1 11  1  0
  6 12  1  0
  7 13  1  0
  8 14  1  0
M  END
