
     RDKit          3D

 19 21  0  0  0  0  0  0  0  0999 V2000
    1.2432   -0.6530   -1.2059 C   0  0  0  0  0  0  0  0  0  0  0  0
    0.5682    0.0195   -0.1288 C   0  0  0  0  0  0  0  0  0  0  0  0
    1.2609    0.9816    0.7687 C   0  0  0  0  0  0  0  0  0  0  0  0
    0.2098    1.3285    1.6560 O   0  0  0  0  0  0  0  0  0  0  0  0
   -0.8291    0.5740    1.1842 C   0  0  0  0  0  0  0  0  0  0  0  0
   -0.7708    0.6754   -0.3485 C   0  0  0  0  0  0  0  0  0  0  0  0
   -1.6375   -0.4620   -0.7426 C   0  0  0  0  0  0  0  0  0  0  0  0
   -1.1776   -1.4764    0.1379 O   0  0  0  0  0  0  0  0  0  0  0  0
   -0.2377   -0.8122    0.8758 C   0  0  0  0  0  0  0  0  0  0  0  0
    1.6108   -1.6869   -0.9870 H   0  0  0  0  0  0  0  0  0  0  0  0
    2.1080   -0.0745   -1.5672 H   0  0  0  0  0  0  0  0  0  0  0  0
    0.5461   -0.7867   -2.0843 H   0  0  0  0  0  0  0  0  0  0  0  0
    1.5420    1.8693    0.1986 H   0  0  0  0  0  0  0  0  0  0  0  0
    2.1240    0.5661    1.3191 H   0  0  0  0  0  0  0  0  0  0  0  0
   -1.7907    0.5993    1.6354 H   0  0  0  0  0  0  0  0  0  0  0  0
   -0.8382    1.6297   -0.7859 H   0  0  0  0  0  0  0  0  0  0  0  0
   -1.5467   -0.7759   -1.7973 H   0  0  0  0  0  0  0  0  0  0  0  0
   -2.6860   -0.2251   -0.4536 H   0  0  0  0  0  0  0  0  0  0  0  0
    0.3014   -1.2908    1.6574 H   0  0  0  0  0  0  0  0  0  0  0  0
  1  2  1  0
  2  3  1  0
  3  4  1  0
  4  5  1  0
  5  6  1  0
  6  7  1  0
  7  8  1  0
  8  9  1  0
  6  2  1  0
  9  2  1  0
  9  5  1  0
  1 10  1  0
  1 11  1  0
  1 12  1  0
  3 13  1  0
  3 14  1  0
  5 15  1  0
  6 16  1  0
  7 17  1  0
  7 18  1  0
  9 19  1  0
M  END
