
     RDKit          2D

 21 23  0  0  0  0  0  0  0  0999 V2000
    0.8578   -2.6401    0.0000 C   0  0  0  0  0  0  0  0  0  0  0  0
    0.3943   -1.2135    0.0000 C   0  0  0  0  0  0  0  0  0  0  0  0
   -1.0323   -0.7500    0.0000 C   0  0  0  0  0  0  0  0  0  0  0  0
   -1.0323    0.7500    0.0000 C   0  0  0  0  0  0  0  0  0  0  0  0
   -2.5138    0.5153    0.0000 C   0  0  0  0  0  0  0  0  0  0  0  0
    0.3943    1.2135    0.0000 C   0  0  0  0  0  0  0  0  0  0  0  0
   -0.0692    2.6401    0.0000 C   0  0  0  0  0  0  0  0  0  0  0  0
   -1.4958    2.1766    0.0000 C   0  0  0  0  0  0  0  0  0  0  0  0
    1.2760    0.0000    0.0000 O   0  0  0  0  0  0  0  0  0  0  0  0
    1.3213   -4.0667    0.0000 H   0  0  0  0  0  0  0  0  0  0  0  0
   -0.5688   -3.1036    0.0000 H   0  0  0  0  0  0  0  0  0  0  0  0
    2.2844   -2.1766    0.0000 H   0  0  0  0  0  0  0  0  0  0  0  0
   -1.3442   -2.2172    0.0000 H   0  0  0  0  0  0  0  0  0  0  0  0
   -1.8293   -0.7639    0.0000 H   0  0  0  0  0  0  0  0  0  0  0  0
   -3.9954    0.2807    0.0000 H   0  0  0  0  0  0  0  0  0  0  0  0
   -2.9273    1.9572    0.0000 H   0  0  0  0  0  0  0  0  0  0  0  0
   -2.4860   -0.2813    0.0000 H   0  0  0  0  0  0  0  0  0  0  0  0
    1.7308    1.8945    0.0000 H   0  0  0  0  0  0  0  0  0  0  0  0
   -0.5328    4.0667    0.0000 H   0  0  0  0  0  0  0  0  0  0  0  0
    1.3574    3.1036    0.0000 H   0  0  0  0  0  0  0  0  0  0  0  0
   -2.7393    3.0154    0.0000 H   0  0  0  0  0  0  0  0  0  0  0  0
  1  2  1  0
  2  3  1  0
  3  4  1  0
  4  5  1  0
  4  6  1  0
  6  7  1  0
  7  8  1  0
  6  9  1  0
  8  2  1  0
  9  2  1  0
  8  4  1  0
  1 10  1  0
  1 11  1  0
  1 12  1  0
  3 13  1  0
  3 14  1  0
  5 15  1  0
  5 16  1  0
  5 17  1  0
  6 18  1  0
  7 19  1  0
  7 20  1  0
  8 21  1  0
M  END
