
     RDKit          3D

 21 22  0  0  0  0  0  0  0  0999 V2000
   -2.2487   -0.1528    0.9361 C   0  0  0  0  0  0  0  0  0  0  0  0
   -1.1202    0.0639   -0.0274 C   0  0  0  0  0  0  0  0  0  0  0  0
   -0.7282    1.3954   -0.4913 C   0  0  0  0  0  0  0  0  0  0  0  0
    0.0866    0.7448    0.5756 C   0  0  0  0  0  0  0  0  0  0  0  0
    0.8541   -0.5185    0.3043 C   0  0  0  0  0  0  0  0  0  0  0  0
    2.1132   -0.2138   -0.4819 C   0  0  0  0  0  0  0  0  0  0  0  0
    2.8635    0.6700    0.3301 O   0  0  0  0  0  0  0  0  0  0  0  0
   -0.2807   -1.0942   -0.4929 C   0  0  0  0  0  0  0  0  0  0  0  0
   -0.0509   -1.1834   -1.8455 O   0  0  0  0  0  0  0  0  0  0  0  0
   -2.0184    0.2223    1.9645 H   0  0  0  0  0  0  0  0  0  0  0  0
   -3.1072    0.4813    0.5655 H   0  0  0  0  0  0  0  0  0  0  0  0
   -2.6133   -1.1911    0.9446 H   0  0  0  0  0  0  0  0  0  0  0  0
   -0.2432    1.4925   -1.4841 H   0  0  0  0  0  0  0  0  0  0  0  0
   -1.3107    2.2667   -0.1642 H   0  0  0  0  0  0  0  0  0  0  0  0
    0.0569    1.1373    1.5886 H   0  0  0  0  0  0  0  0  0  0  0  0
    1.0128   -1.0845    1.2198 H   0  0  0  0  0  0  0  0  0  0  0  0
    2.6829   -1.1120   -0.7380 H   0  0  0  0  0  0  0  0  0  0  0  0
    1.8781    0.3586   -1.3967 H   0  0  0  0  0  0  0  0  0  0  0  0
    3.0765    0.1617    1.1634 H   0  0  0  0  0  0  0  0  0  0  0  0
   -0.6777   -2.0739   -0.1135 H   0  0  0  0  0  0  0  0  0  0  0  0
   -0.2255   -0.3702   -2.3571 H   0  0  0  0  0  0  0  0  0  0  0  0
  1  2  1  0
  2  3  1  0
  3  4  1  0
  4  5  1  0
  5  6  1  0
  6  7  1  0
  5  8  1  0
  8  9  1  0
  4  2  1  0
  8  2  1  0
  1 10  1  0
  1 11  1  0
  1 12  1  0
  3 13  1  0
  3 14  1  0
  4 15  1  0
  5 16  1  0
  6 17  1  0
  6 18  1  0
  7 19  1  0
  8 20  1  0
  9 21  1  0
M  END
