
     RDKit          3D

 21 23  0  0  0  0  0  0  0  0999 V2000
    2.3692   -0.1736    0.0145 C   0  0  0  0  0  0  0  0  0  0  0  0
    0.9150   -0.0891    0.1292 C   0  0  0  0  0  0  0  0  0  0  0  0
    0.2456    0.8198    1.1534 C   0  0  0  0  0  0  0  0  0  0  0  0
   -1.1651    0.7379    0.6389 C   0  0  0  0  0  0  0  0  0  0  0  0
   -0.9239    1.0248   -0.8502 C   0  0  0  0  0  0  0  0  0  0  0  0
    0.1238   -0.0565   -1.1123 C   0  0  0  0  0  0  0  0  0  0  0  0
   -0.0571   -1.1356   -0.1437 C   0  0  0  0  0  0  0  0  0  0  0  0
   -1.3589   -0.7502    0.5746 C   0  0  0  0  0  0  0  0  0  0  0  0
   -2.3841   -1.0205   -0.3188 O   0  0  0  0  0  0  0  0  0  0  0  0
    2.6706   -1.0520   -0.5510 H   0  0  0  0  0  0  0  0  0  0  0  0
    2.7446    0.7193   -0.5694 H   0  0  0  0  0  0  0  0  0  0  0  0
    2.8878   -0.1212    0.9935 H   0  0  0  0  0  0  0  0  0  0  0  0
    0.3269    0.3135    2.1373 H   0  0  0  0  0  0  0  0  0  0  0  0
    0.6551    1.8264    1.1692 H   0  0  0  0  0  0  0  0  0  0  0  0
   -1.9049    1.3238    1.1052 H   0  0  0  0  0  0  0  0  0  0  0  0
   -0.4450    2.0010   -1.0004 H   0  0  0  0  0  0  0  0  0  0  0  0
   -1.8380    0.8678   -1.4346 H   0  0  0  0  0  0  0  0  0  0  0  0
    0.5410   -0.1725   -2.1057 H   0  0  0  0  0  0  0  0  0  0  0  0
    0.1511   -2.1792   -0.3367 H   0  0  0  0  0  0  0  0  0  0  0  0
   -1.4523   -1.2413    1.5383 H   0  0  0  0  0  0  0  0  0  0  0  0
   -2.1015   -1.6425   -1.0314 H   0  0  0  0  0  0  0  0  0  0  0  0
  1  2  1  0
  2  3  1  0
  3  4  1  0
  4  5  1  0
  5  6  1  0
  6  7  1  0
  7  8  1  0
  8  9  1  0
  6  2  1  0
  7  2  1  0
  8  4  1  0
  1 10  1  0
  1 11  1  0
  1 12  1  0
  3 13  1  0
  3 14  1  0
  4 15  1  0
  5 16  1  0
  5 17  1  0
  6 18  1  0
  7 19  1  0
  8 20  1  0
  9 21  1  0
M  END
