
     RDKit          3D

 19 20  0  0  0  0  0  0  0  0999 V2000
   -1.2948   -1.1437   -0.0619 C   0  0  0  0  0  0  0  0  0  0  0  0
   -0.1746   -0.2486    0.3588 C   0  0  0  0  0  0  0  0  0  0  0  0
    0.6152   -0.7900    1.3584 O   0  0  0  0  0  0  0  0  0  0  0  0
    1.6870   -1.3013    0.6185 C   0  0  0  0  0  0  0  0  0  0  0  0
    2.0338   -0.2005   -0.1757 O   0  0  0  0  0  0  0  0  0  0  0  0
    0.7976    0.1643   -0.6910 C   0  0  0  0  0  0  0  0  0  0  0  0
    0.4265    1.6007   -0.4540 C   0  0  0  0  0  0  0  0  0  0  0  0
   -0.6174    1.1665    0.5432 C   0  0  0  0  0  0  0  0  0  0  0  0
   -1.9143    1.3869    0.0563 O   0  0  0  0  0  0  0  0  0  0  0  0
   -2.0561   -0.5812   -0.6599 H   0  0  0  0  0  0  0  0  0  0  0  0
   -0.9935   -2.0736   -0.5412 H   0  0  0  0  0  0  0  0  0  0  0  0
   -1.8439   -1.4391    0.8777 H   0  0  0  0  0  0  0  0  0  0  0  0
    2.5562   -1.5523    1.2221 H   0  0  0  0  0  0  0  0  0  0  0  0
    1.3279   -2.0805   -0.0571 H   0  0  0  0  0  0  0  0  0  0  0  0
    0.6465   -0.2253   -1.7086 H   0  0  0  0  0  0  0  0  0  0  0  0
   -0.0177    2.0621   -1.3714 H   0  0  0  0  0  0  0  0  0  0  0  0
    1.2281    2.2021    0.0283 H   0  0  0  0  0  0  0  0  0  0  0  0
   -0.4854    1.5257    1.5755 H   0  0  0  0  0  0  0  0  0  0  0  0
   -1.9210    1.5279   -0.9177 H   0  0  0  0  0  0  0  0  0  0  0  0
  1  2  1  0
  2  3  1  0
  3  4  1  0
  4  5  1  0
  5  6  1  0
  6  7  1  0
  7  8  1  0
  8  9  1  0
  6  2  1  0
  8  2  1  0
  1 10  1  0
  1 11  1  0
  1 12  1  0
  4 13  1  0
  4 14  1  0
  6 15  1  0
  7 16  1  0
  7 17  1  0
  8 18  1  0
  9 19  1  0
M  END
