
     RDKit          3D

 23 25  0  0  0  0  0  0  0  0999 V2000
   -1.0441    1.6754   -0.9741 C   0  0  0  0  0  0  0  0  0  0  0  0
   -0.4484    0.5784   -0.1633 C   0  0  0  0  0  0  0  0  0  0  0  0
   -1.4648   -0.2193    0.6206 C   0  0  0  0  0  0  0  0  0  0  0  0
   -0.7443   -1.5393    0.7913 C   0  0  0  0  0  0  0  0  0  0  0  0
    0.2271   -1.6678   -0.3374 C   0  0  0  0  0  0  0  0  0  0  0  0
    1.4404   -0.8816   -0.4627 C   0  0  0  0  0  0  0  0  0  0  0  0
    1.8373    0.2130    0.4765 C   0  0  0  0  0  0  0  0  0  0  0  0
    0.6175    1.0229    0.7930 C   0  0  0  0  0  0  0  0  0  0  0  0
    0.2075   -0.4079   -1.0928 C   0  0  0  0  0  0  0  0  0  0  0  0
   -1.8394    2.2463   -0.4763 H   0  0  0  0  0  0  0  0  0  0  0  0
   -1.3879    1.2201   -1.9482 H   0  0  0  0  0  0  0  0  0  0  0  0
   -0.2291    2.3951   -1.2395 H   0  0  0  0  0  0  0  0  0  0  0  0
   -2.4281   -0.3100    0.1043 H   0  0  0  0  0  0  0  0  0  0  0  0
   -1.5604    0.2353    1.6383 H   0  0  0  0  0  0  0  0  0  0  0  0
   -1.5207   -2.3315    0.7235 H   0  0  0  0  0  0  0  0  0  0  0  0
   -0.2583   -1.6499    1.7652 H   0  0  0  0  0  0  0  0  0  0  0  0
    0.2250   -2.6694   -0.8464 H   0  0  0  0  0  0  0  0  0  0  0  0
    2.2647   -1.2672   -1.0871 H   0  0  0  0  0  0  0  0  0  0  0  0
    2.5975    0.8879    0.0006 H   0  0  0  0  0  0  0  0  0  0  0  0
    2.3442   -0.1713    1.3992 H   0  0  0  0  0  0  0  0  0  0  0  0
    0.3012    0.8850    1.8625 H   0  0  0  0  0  0  0  0  0  0  0  0
    0.7921    2.0966    0.6311 H   0  0  0  0  0  0  0  0  0  0  0  0
    0.0711   -0.3409   -2.1783 H   0  0  0  0  0  0  0  0  0  0  0  0
  1  2  1  0
  2  3  1  0
  3  4  1  0
  4  5  1  0
  5  6  1  0
  6  7  1  0
  7  8  1  0
  6  9  1  0
  8  2  1  0
  9  2  1  0
  9  5  1  0
  1 10  1  0
  1 11  1  0
  1 12  1  0
  3 13  1  0
  3 14  1  0
  4 15  1  0
  4 16  1  0
  5 17  1  0
  6 18  1  0
  7 19  1  0
  7 20  1  0
  8 21  1  0
  8 22  1  0
  9 23  1  0
M  END
