
     RDKit          3D

 20 21  0  0  0  0  0  0  0  0999 V2000
    1.8560   -0.7547   -0.3520 C   0  0  0  0  0  0  0  0  0  0  0  0
    0.5850   -0.1760   -0.0022 C   0  0  0  0  0  0  0  0  0  0  0  0
    0.1417   -0.0810    1.4307 C   0  0  0  0  0  0  0  0  0  0  0  0
   -1.2203    0.6129    1.2175 C   0  0  0  0  0  0  0  0  0  0  0  0
   -1.2071    0.7380   -0.2630 C   0  0  0  0  0  0  0  0  0  0  0  0
    0.2272    1.2128   -0.5277 C   0  0  0  0  0  0  0  0  0  0  0  0
   -0.6786   -0.6345   -0.6934 C   0  0  0  0  0  0  0  0  0  0  0  0
   -0.5592   -0.7867   -2.0608 O   0  0  0  0  0  0  0  0  0  0  0  0
    1.7684   -1.8454   -0.5367 H   0  0  0  0  0  0  0  0  0  0  0  0
    2.5709   -0.6639    0.5121 H   0  0  0  0  0  0  0  0  0  0  0  0
    2.3313   -0.2107   -1.1957 H   0  0  0  0  0  0  0  0  0  0  0  0
    0.0079   -1.0768    1.8724 H   0  0  0  0  0  0  0  0  0  0  0  0
    0.8332    0.5777    1.9665 H   0  0  0  0  0  0  0  0  0  0  0  0
   -1.2279    1.5553    1.7709 H   0  0  0  0  0  0  0  0  0  0  0  0
   -2.0145   -0.0985    1.5219 H   0  0  0  0  0  0  0  0  0  0  0  0
   -1.9910    1.1725   -0.8104 H   0  0  0  0  0  0  0  0  0  0  0  0
    0.5484    1.9629    0.2108 H   0  0  0  0  0  0  0  0  0  0  0  0
    0.4674    1.3918   -1.5769 H   0  0  0  0  0  0  0  0  0  0  0  0
   -1.2135   -1.4291   -0.1479 H   0  0  0  0  0  0  0  0  0  0  0  0
   -1.2252   -1.4666   -2.3360 H   0  0  0  0  0  0  0  0  0  0  0  0
  1  2  1  0
  2  3  1  0
  3  4  1  0
  4  5  1  0
  5  6  1  0
  5  7  1  0
  7  8  1  0
  6  2  1  0
  7  2  1  0
  1  9  1  0
  1 10  1  0
  1 11  1  0
  3 12  1  0
  3 13  1  0
  4 14  1  0
  4 15  1  0
  5 16  1  0
  6 17  1  0
  6 18  1  0
  7 19  1  0
  8 20  1  0
M  END
