
     RDKit          3D

 23 25  0  0  0  0  0  0  0  0999 V2000
   -2.2325    0.0286   -0.8945 C   0  0  0  0  0  0  0  0  0  0  0  0
   -1.0880   -0.0867    0.0625 C   0  0  0  0  0  0  0  0  0  0  0  0
   -1.2061   -0.9505    1.2539 C   0  0  0  0  0  0  0  0  0  0  0  0
   -0.2940   -1.3596    0.1606 C   0  0  0  0  0  0  0  0  0  0  0  0
    0.9436   -0.5871   -0.1587 C   0  0  0  0  0  0  0  0  0  0  0  0
    2.1714   -0.6855    0.6761 C   0  0  0  0  0  0  0  0  0  0  0  0
    0.9492    0.1967   -1.4480 C   0  0  0  0  0  0  0  0  0  0  0  0
    0.1514    0.6426   -0.2965 C   0  0  0  0  0  0  0  0  0  0  0  0
    0.4362    1.8930    0.4628 C   0  0  0  0  0  0  0  0  0  0  0  0
   -2.6170   -0.9502   -1.2258 H   0  0  0  0  0  0  0  0  0  0  0  0
   -3.0650    0.6620   -0.4849 H   0  0  0  0  0  0  0  0  0  0  0  0
   -1.9101    0.5632   -1.8255 H   0  0  0  0  0  0  0  0  0  0  0  0
   -2.1480   -1.5386    1.3215 H   0  0  0  0  0  0  0  0  0  0  0  0
   -0.8231   -0.5561    2.2218 H   0  0  0  0  0  0  0  0  0  0  0  0
   -0.5768   -2.2215   -0.4838 H   0  0  0  0  0  0  0  0  0  0  0  0
    3.0698   -0.5549    0.0184 H   0  0  0  0  0  0  0  0  0  0  0  0
    2.1846    0.1182    1.4531 H   0  0  0  0  0  0  0  0  0  0  0  0
    2.3108   -1.6804    1.1599 H   0  0  0  0  0  0  0  0  0  0  0  0
    1.8989    0.6858   -1.7039 H   0  0  0  0  0  0  0  0  0  0  0  0
    0.4384   -0.3549   -2.2820 H   0  0  0  0  0  0  0  0  0  0  0  0
    1.3008    2.4606    0.0685 H   0  0  0  0  0  0  0  0  0  0  0  0
   -0.4668    2.5532    0.3837 H   0  0  0  0  0  0  0  0  0  0  0  0
    0.5724    1.7220    1.5605 H   0  0  0  0  0  0  0  0  0  0  0  0
  1  2  1  0
  2  3  1  0
  3  4  1  0
  4  5  1  0
  5  6  1  0
  5  7  1  0
  7  8  1  0
  8  9  1  0
  4  2  1  0
  8  5  1  0
  8  2  1  0
  1 10  1  0
  1 11  1  0
  1 12  1  0
  3 13  1  0
  3 14  1  0
  4 15  1  0
  6 16  1  0
  6 17  1  0
  6 18  1  0
  7 19  1  0
  7 20  1  0
  9 21  1  0
  9 22  1  0
  9 23  1  0
M  END
