
     RDKit          3D

 21 23  0  0  0  0  0  0  0  0999 V2000
   -0.6657    1.8931   -0.0143 C   0  0  0  0  0  0  0  0  0  0  0  0
   -0.4333    0.4593    0.0510 C   0  0  0  0  0  0  0  0  0  0  0  0
   -1.5864   -0.4673    0.3453 C   0  0  0  0  0  0  0  0  0  0  0  0
   -0.7984   -1.7911    0.4123 C   0  0  0  0  0  0  0  0  0  0  0  0
    0.5385   -1.3007   -0.0177 C   0  0  0  0  0  0  0  0  0  0  0  0
    0.7539   -0.0533    0.8415 C   0  0  0  0  0  0  0  0  0  0  0  0
    1.9108    0.5484    0.1718 C   0  0  0  0  0  0  0  0  0  0  0  0
    1.6112    0.4237   -1.1390 C   0  0  0  0  0  0  0  0  0  0  0  0
    0.2757   -0.2287   -1.0853 C   0  0  0  0  0  0  0  0  0  0  0  0
   -0.4827    2.3465    1.0045 H   0  0  0  0  0  0  0  0  0  0  0  0
   -1.7016    2.1165   -0.2877 H   0  0  0  0  0  0  0  0  0  0  0  0
    0.0816    2.3774   -0.6755 H   0  0  0  0  0  0  0  0  0  0  0  0
   -2.2281   -0.5042   -0.5481 H   0  0  0  0  0  0  0  0  0  0  0  0
   -2.0960   -0.2484    1.2810 H   0  0  0  0  0  0  0  0  0  0  0  0
   -0.7240   -2.1232    1.4804 H   0  0  0  0  0  0  0  0  0  0  0  0
   -1.2403   -2.5467   -0.2406 H   0  0  0  0  0  0  0  0  0  0  0  0
    1.3570   -1.9537   -0.1653 H   0  0  0  0  0  0  0  0  0  0  0  0
    0.6900   -0.1430    1.8877 H   0  0  0  0  0  0  0  0  0  0  0  0
    2.7741    0.9767    0.6558 H   0  0  0  0  0  0  0  0  0  0  0  0
    2.1958    0.7230   -1.9957 H   0  0  0  0  0  0  0  0  0  0  0  0
   -0.2320   -0.5042   -1.9621 H   0  0  0  0  0  0  0  0  0  0  0  0
  1  2  1  0
  2  3  1  0
  3  4  1  0
  4  5  1  0
  5  6  1  0
  6  7  1  0
  7  8  2  0
  8  9  1  0
  6  2  1  0
  9  2  1  0
  9  5  1  0
  1 10  1  0
  1 11  1  0
  1 12  1  0
  3 13  1  0
  3 14  1  0
  4 15  1  0
  4 16  1  0
  5 17  1  0
  6 18  1  0
  7 19  1  0
  8 20  1  0
  9 21  1  0
M  END
