
     RDKit          3D

 19 21  0  0  0  0  0  0  0  0999 V2000
    1.6640   -0.5336    0.3474 C   0  0  0  0  0  0  0  0  0  0  0  0
    0.3683   -0.2818   -0.2031 C   0  0  0  0  0  0  0  0  0  0  0  0
   -0.5818    0.6933    0.6153 C   0  0  0  0  0  0  0  0  0  0  0  0
   -1.6497   -0.0366    0.7183 C   0  0  0  0  0  0  0  0  0  0  0  0
   -1.4153   -1.3504   -0.0324 C   0  0  0  0  0  0  0  0  0  0  0  0
   -0.4452   -0.7833   -1.1634 C   0  0  0  0  0  0  0  0  0  0  0  0
    0.0153    0.5736   -1.3965 C   0  0  0  0  0  0  0  0  0  0  0  0
    0.8652    1.5362   -0.8407 O   0  0  0  0  0  0  0  0  0  0  0  0
    0.4948    1.6968    0.5828 C   0  0  0  0  0  0  0  0  0  0  0  0
    1.6372   -0.5273    1.4787 H   0  0  0  0  0  0  0  0  0  0  0  0
    2.0300   -1.5638    0.0602 H   0  0  0  0  0  0  0  0  0  0  0  0
    2.4602    0.2248    0.0868 H   0  0  0  0  0  0  0  0  0  0  0  0
   -2.5112    0.3020    1.2590 H   0  0  0  0  0  0  0  0  0  0  0  0
   -2.3708   -1.6023   -0.5084 H   0  0  0  0  0  0  0  0  0  0  0  0
   -0.9218   -2.0978    0.5483 H   0  0  0  0  0  0  0  0  0  0  0  0
   -0.2217   -1.5672   -1.8803 H   0  0  0  0  0  0  0  0  0  0  0  0
   -0.8930    1.1567   -1.5893 H   0  0  0  0  0  0  0  0  0  0  0  0
    1.3187    1.4273    1.2057 H   0  0  0  0  0  0  0  0  0  0  0  0
    0.1567    2.7331    0.7115 H   0  0  0  0  0  0  0  0  0  0  0  0
  1  2  1  0
  2  3  1  0
  3  4  2  0
  4  5  1  0
  5  6  1  0
  6  7  1  0
  7  8  1  0
  8  9  1  0
  6  2  1  0
  7  2  1  0
  9  3  1  0
  1 10  1  0
  1 11  1  0
  1 12  1  0
  4 13  1  0
  5 14  1  0
  5 15  1  0
  6 16  1  0
  7 17  1  0
  9 18  1  0
  9 19  1  0
M  END
