
     RDKit          3D

 17 18  0  0  0  0  0  0  0  0999 V2000
   -1.5717    0.2230   -1.0187 C   0  0  0  0  0  0  0  0  0  0  0  0
   -0.5144    0.2126    0.0538 C   0  0  0  0  0  0  0  0  0  0  0  0
    0.5807    1.2199   -0.0327 C   0  0  0  0  0  0  0  0  0  0  0  0
    1.8125    0.3878   -0.1035 C   0  0  0  0  0  0  0  0  0  0  0  0
    1.5342   -0.8864    0.0645 C   0  0  0  0  0  0  0  0  0  0  0  0
    0.1062   -1.1404    0.2732 C   0  0  0  0  0  0  0  0  0  0  0  0
   -0.6817   -0.4959    1.3263 C   0  0  0  0  0  0  0  0  0  0  0  0
   -2.0428    1.2051   -1.0887 H   0  0  0  0  0  0  0  0  0  0  0  0
   -1.0274    0.0228   -1.9877 H   0  0  0  0  0  0  0  0  0  0  0  0
   -2.2645   -0.6214   -0.8870 H   0  0  0  0  0  0  0  0  0  0  0  0
    0.4633    1.9024   -0.8749 H   0  0  0  0  0  0  0  0  0  0  0  0
    0.6687    1.8061    0.9288 H   0  0  0  0  0  0  0  0  0  0  0  0
    2.7940    0.8270   -0.2744 H   0  0  0  0  0  0  0  0  0  0  0  0
    2.2962   -1.6591    0.0476 H   0  0  0  0  0  0  0  0  0  0  0  0
   -0.3644   -2.0408   -0.2117 H   0  0  0  0  0  0  0  0  0  0  0  0
   -1.6640   -0.8868    1.5692 H   0  0  0  0  0  0  0  0  0  0  0  0
   -0.1249   -0.0761    2.2157 H   0  0  0  0  0  0  0  0  0  0  0  0
  1  2  1  0
  2  3  1  0
  3  4  1  0
  4  5  2  0
  5  6  1  0
  6  7  1  0
  6  2  1  0
  7  2  1  0
  1  8  1  0
  1  9  1  0
  1 10  1  0
  3 11  1  0
  3 12  1  0
  4 13  1  0
  5 14  1  0
  6 15  1  0
  7 16  1  0
  7 17  1  0
M  END
