
     RDKit          3D

 21 22  0  0  0  0  0  0  0  0999 V2000
    0.3066   -1.9842   -0.0521 C   0  0  0  0  0  0  0  0  0  0  0  0
    0.2502   -0.5871    0.4786 C   0  0  0  0  0  0  0  0  0  0  0  0
   -0.7959   -0.4188    1.3801 O   0  0  0  0  0  0  0  0  0  0  0  0
   -1.9572   -0.2601    0.6361 C   0  0  0  0  0  0  0  0  0  0  0  0
   -1.5190    0.8298   -0.3493 C   0  0  0  0  0  0  0  0  0  0  0  0
   -0.0932    0.4357   -0.5928 C   0  0  0  0  0  0  0  0  0  0  0  0
    0.8823    1.5556   -0.2013 C   0  0  0  0  0  0  0  0  0  0  0  0
    2.0801    0.6452    0.1143 C   0  0  0  0  0  0  0  0  0  0  0  0
    1.4681   -0.2511    0.9983 O   0  0  0  0  0  0  0  0  0  0  0  0
    1.3707   -2.3323   -0.1899 H   0  0  0  0  0  0  0  0  0  0  0  0
   -0.2318   -2.1467   -0.9816 H   0  0  0  0  0  0  0  0  0  0  0  0
   -0.1073   -2.6970    0.7171 H   0  0  0  0  0  0  0  0  0  0  0  0
   -2.7595    0.1003    1.2765 H   0  0  0  0  0  0  0  0  0  0  0  0
   -2.2019   -1.1404    0.0305 H   0  0  0  0  0  0  0  0  0  0  0  0
   -2.1426    0.8241   -1.2590 H   0  0  0  0  0  0  0  0  0  0  0  0
   -1.5145    1.8119    0.1615 H   0  0  0  0  0  0  0  0  0  0  0  0
    0.1177    0.0528   -1.5885 H   0  0  0  0  0  0  0  0  0  0  0  0
    0.5510    2.0034    0.7327 H   0  0  0  0  0  0  0  0  0  0  0  0
    1.0828    2.2335   -1.0257 H   0  0  0  0  0  0  0  0  0  0  0  0
    2.8999    1.1861    0.5625 H   0  0  0  0  0  0  0  0  0  0  0  0
    2.3135    0.1390   -0.8481 H   0  0  0  0  0  0  0  0  0  0  0  0
  1  2  1  0
  2  3  1  0
  3  4  1  0
  4  5  1  0
  5  6  1  0
  6  7  1  0
  7  8  1  0
  8  9  1  0
  6  2  1  0
  9  2  1  0
  1 10  1  0
  1 11  1  0
  1 12  1  0
  4 13  1  0
  4 14  1  0
  5 15  1  0
  5 16  1  0
  6 17  1  0
  7 18  1  0
  7 19  1  0
  8 20  1  0
  8 21  1  0
M  END
