
     RDKit          3D

 19 21  0  0  0  0  0  0  0  0999 V2000
    1.7823   -1.0173   -0.3085 C   0  0  0  0  0  0  0  0  0  0  0  0
    0.6751   -0.1766    0.2120 C   0  0  0  0  0  0  0  0  0  0  0  0
    0.9858    0.9053    0.9846 O   0  0  0  0  0  0  0  0  0  0  0  0
    0.2328    1.9972    0.6170 C   0  0  0  0  0  0  0  0  0  0  0  0
   -0.9912    1.3908   -0.0883 C   0  0  0  0  0  0  0  0  0  0  0  0
   -1.4024    0.0555    0.3821 C   0  0  0  0  0  0  0  0  0  0  0  0
   -0.4519   -0.9731    0.8844 C   0  0  0  0  0  0  0  0  0  0  0  0
   -0.6300   -2.1772    0.1703 O   0  0  0  0  0  0  0  0  0  0  0  0
   -0.3686    0.2749   -0.7661 C   0  0  0  0  0  0  0  0  0  0  0  0
    2.4970   -0.3864   -0.8405 H   0  0  0  0  0  0  0  0  0  0  0  0
    1.3304   -1.8048   -0.9652 H   0  0  0  0  0  0  0  0  0  0  0  0
    2.2932   -1.4934    0.5748 H   0  0  0  0  0  0  0  0  0  0  0  0
   -0.0614    2.6462    1.4504 H   0  0  0  0  0  0  0  0  0  0  0  0
    0.7917    2.5380   -0.1790 H   0  0  0  0  0  0  0  0  0  0  0  0
   -1.7665    2.0452   -0.4683 H   0  0  0  0  0  0  0  0  0  0  0  0
   -2.3934   -0.2967    0.1026 H   0  0  0  0  0  0  0  0  0  0  0  0
   -0.3480   -1.1039    1.9577 H   0  0  0  0  0  0  0  0  0  0  0  0
   -1.5391   -2.1901   -0.2609 H   0  0  0  0  0  0  0  0  0  0  0  0
   -0.6359   -0.2336   -1.6544 H   0  0  0  0  0  0  0  0  0  0  0  0
  1  2  1  0
  2  3  1  0
  3  4  1  0
  4  5  1  0
  5  6  1  0
  6  7  1  0
  7  8  1  0
  6  9  1  0
  7  2  1  0
  9  2  1  0
  9  5  1  0
  1 10  1  0
  1 11  1  0
  1 12  1  0
  4 13  1  0
  4 14  1  0
  5 15  1  0
  6 16  1  0
  7 17  1  0
  8 18  1  0
  9 19  1  0
M  END
