
     RDKit          3D

 17 19  0  0  0  0  0  0  0  0999 V2000
    1.9866   -0.3743    0.5100 C   0  0  0  0  0  0  0  0  0  0  0  0
    0.6002   -0.0476    0.1411 C   0  0  0  0  0  0  0  0  0  0  0  0
    0.3635    1.3351   -0.3008 C   0  0  0  0  0  0  0  0  0  0  0  0
   -0.9476    1.5524   -0.0685 C   0  0  0  0  0  0  0  0  0  0  0  0
   -1.4442    0.2987    0.5559 C   0  0  0  0  0  0  0  0  0  0  0  0
   -0.2819   -0.1204    1.2488 O   0  0  0  0  0  0  0  0  0  0  0  0
   -1.5436   -0.7725   -0.4885 C   0  0  0  0  0  0  0  0  0  0  0  0
   -0.9768   -0.5757   -1.7298 O   0  0  0  0  0  0  0  0  0  0  0  0
   -0.0601   -1.0345   -0.7905 C   0  0  0  0  0  0  0  0  0  0  0  0
    2.6952    0.0149   -0.2374 H   0  0  0  0  0  0  0  0  0  0  0  0
    2.2009    0.0010    1.5307 H   0  0  0  0  0  0  0  0  0  0  0  0
    2.1104   -1.4748    0.5243 H   0  0  0  0  0  0  0  0  0  0  0  0
    1.0046    2.0891   -0.7241 H   0  0  0  0  0  0  0  0  0  0  0  0
   -1.5347    2.4335   -0.2792 H   0  0  0  0  0  0  0  0  0  0  0  0
   -2.3027    0.4153    1.1949 H   0  0  0  0  0  0  0  0  0  0  0  0
   -2.1580   -1.6700   -0.2879 H   0  0  0  0  0  0  0  0  0  0  0  0
    0.2881   -2.0702   -0.7991 H   0  0  0  0  0  0  0  0  0  0  0  0
  1  2  1  0
  2  3  1  0
  3  4  2  0
  4  5  1  0
  5  6  1  0
  5  7  1  0
  7  8  1  0
  8  9  1  0
  6  2  1  0
  9  7  1  0
  9  2  1  0
  1 10  1  0
  1 11  1  0
  1 12  1  0
  3 13  1  0
  4 14  1  0
  5 15  1  0
  7 16  1  0
  9 17  1  0
M  END
