
     RDKit          3D

 19 21  0  0  0  0  0  0  0  0999 V2000
   -0.9827    1.5199   -0.3737 C   0  0  0  0  0  0  0  0  0  0  0  0
   -0.4858    0.2276    0.1567 C   0  0  0  0  0  0  0  0  0  0  0  0
   -1.5242   -0.8311    0.1732 C   0  0  0  0  0  0  0  0  0  0  0  0
   -0.7982   -1.6730   -0.6672 O   0  0  0  0  0  0  0  0  0  0  0  0
    0.1555   -0.7044   -0.8654 C   0  0  0  0  0  0  0  0  0  0  0  0
    1.5120   -0.9779   -0.2334 C   0  0  0  0  0  0  0  0  0  0  0  0
    1.7373    0.3725    0.3676 C   0  0  0  0  0  0  0  0  0  0  0  0
    1.5641    0.8896    1.5465 O   0  0  0  0  0  0  0  0  0  0  0  0
    0.4707    0.2270    1.2764 C   0  0  0  0  0  0  0  0  0  0  0  0
   -1.3596    1.4205   -1.4035 H   0  0  0  0  0  0  0  0  0  0  0  0
   -0.2506    2.3370   -0.3275 H   0  0  0  0  0  0  0  0  0  0  0  0
   -1.8680    1.8351    0.2440 H   0  0  0  0  0  0  0  0  0  0  0  0
   -1.5961   -1.3151    1.1808 H   0  0  0  0  0  0  0  0  0  0  0  0
   -2.5212   -0.5439   -0.1765 H   0  0  0  0  0  0  0  0  0  0  0  0
    0.2300   -0.2446   -1.8517 H   0  0  0  0  0  0  0  0  0  0  0  0
    2.2714   -1.1838   -0.9920 H   0  0  0  0  0  0  0  0  0  0  0  0
    1.3945   -1.7766    0.5174 H   0  0  0  0  0  0  0  0  0  0  0  0
    1.6339    1.1571   -0.4482 H   0  0  0  0  0  0  0  0  0  0  0  0
    0.4170   -0.7357    1.8764 H   0  0  0  0  0  0  0  0  0  0  0  0
  1  2  1  0
  2  3  1  0
  3  4  1  0
  4  5  1  0
  5  6  1  0
  6  7  1  0
  7  8  1  0
  8  9  1  0
  5  2  1  0
  9  7  1  0
  9  2  1  0
  1 10  1  0
  1 11  1  0
  1 12  1  0
  3 13  1  0
  3 14  1  0
  5 15  1  0
  6 16  1  0
  6 17  1  0
  7 18  1  0
  9 19  1  0
M  END
