
     RDKit          3D

 17 18  0  0  0  0  0  0  0  0999 V2000
   -1.1934    1.4660    0.0354 C   0  0  0  0  0  0  0  0  0  0  0  0
   -0.5061    0.2522   -0.6237 C   0  0  0  0  0  0  0  0  0  0  0  0
   -1.6302   -0.7003   -1.0594 C   0  0  0  0  0  0  0  0  0  0  0  0
   -1.7993   -0.7580    0.3544 O   0  0  0  0  0  0  0  0  0  0  0  0
   -0.4329   -1.0257    0.3081 C   0  0  0  0  0  0  0  0  0  0  0  0
    0.6745   -0.1410    0.1082 C   0  0  0  0  0  0  0  0  0  0  0  0
    1.7849   -0.5187   -0.6894 O   0  0  0  0  0  0  0  0  0  0  0  0
    3.1013   -0.2533   -0.3482 C   0  0  0  0  0  0  0  0  0  0  0  0
    3.2894    0.3614    0.7412 O   0  0  0  0  0  0  0  0  0  0  0  0
   -1.6968    2.0126   -0.7823 H   0  0  0  0  0  0  0  0  0  0  0  0
   -0.4731    2.1222    0.5250 H   0  0  0  0  0  0  0  0  0  0  0  0
   -1.9862    1.1372    0.7332 H   0  0  0  0  0  0  0  0  0  0  0  0
   -1.3150   -1.6177   -1.5366 H   0  0  0  0  0  0  0  0  0  0  0  0
   -2.4834   -0.1957   -1.4942 H   0  0  0  0  0  0  0  0  0  0  0  0
   -0.3231   -2.0050   -0.2547 H   0  0  0  0  0  0  0  0  0  0  0  0
    1.0348    0.3963    1.0397 H   0  0  0  0  0  0  0  0  0  0  0  0
    3.9548   -0.5327   -0.9416 H   0  0  0  0  0  0  0  0  0  0  0  0
  1  2  1  0
  2  3  1  0
  3  4  1  0
  4  5  1  0
  5  6  1  0
  6  7  1  0
  7  8  1  0
  8  9  2  0
  5  2  1  0
  6  2  1  0
  1 10  1  0
  1 11  1  0
  1 12  1  0
  3 13  1  0
  3 14  1  0
  5 15  1  0
  6 16  1  0
  8 17  1  0
M  END
