
     RDKit          3D

 23 24  0  0  0  0  0  0  0  0999 V2000
    2.3893    0.2699    0.3236 C   0  0  0  0  0  0  0  0  0  0  0  0
    0.9169    0.1650    0.1456 C   0  0  0  0  0  0  0  0  0  0  0  0
    0.2283    1.4886    0.0218 C   0  0  0  0  0  0  0  0  0  0  0  0
   -0.8352    1.4315   -0.8620 O   0  0  0  0  0  0  0  0  0  0  0  0
   -1.8865    0.7952   -0.2157 C   0  0  0  0  0  0  0  0  0  0  0  0
   -1.8281   -0.6793   -0.4300 C   0  0  0  0  0  0  0  0  0  0  0  0
   -0.5456   -1.3245   -0.0646 C   0  0  0  0  0  0  0  0  0  0  0  0
    0.5651   -0.8031   -0.9513 C   0  0  0  0  0  0  0  0  0  0  0  0
    0.1597   -0.6878    1.1071 C   0  0  0  0  0  0  0  0  0  0  0  0
    2.6124    0.9162    1.1974 H   0  0  0  0  0  0  0  0  0  0  0  0
    2.8783   -0.7028    0.4465 H   0  0  0  0  0  0  0  0  0  0  0  0
    2.8033    0.7468   -0.6139 H   0  0  0  0  0  0  0  0  0  0  0  0
   -0.1881    1.7291    1.0438 H   0  0  0  0  0  0  0  0  0  0  0  0
    0.9371    2.2473   -0.3311 H   0  0  0  0  0  0  0  0  0  0  0  0
   -1.9790    1.0852    0.8521 H   0  0  0  0  0  0  0  0  0  0  0  0
   -2.8230    1.1652   -0.7162 H   0  0  0  0  0  0  0  0  0  0  0  0
   -2.7000   -1.1556    0.0682 H   0  0  0  0  0  0  0  0  0  0  0  0
   -1.9973   -0.8573   -1.5315 H   0  0  0  0  0  0  0  0  0  0  0  0
   -0.6029   -2.4116   -0.0602 H   0  0  0  0  0  0  0  0  0  0  0  0
    1.3924   -1.5429   -1.1273 H   0  0  0  0  0  0  0  0  0  0  0  0
    0.2234   -0.3457   -1.9054 H   0  0  0  0  0  0  0  0  0  0  0  0
    0.7988   -1.4270    1.6441 H   0  0  0  0  0  0  0  0  0  0  0  0
   -0.5192   -0.1024    1.7819 H   0  0  0  0  0  0  0  0  0  0  0  0
  1  2  1  0
  2  3  1  0
  3  4  1  0
  4  5  1  0
  5  6  1  0
  6  7  1  0
  7  8  1  0
  7  9  1  0
  8  2  1  0
  9  2  1  0
  1 10  1  0
  1 11  1  0
  1 12  1  0
  3 13  1  0
  3 14  1  0
  5 15  1  0
  5 16  1  0
  6 17  1  0
  6 18  1  0
  7 19  1  0
  8 20  1  0
  8 21  1  0
  9 22  1  0
  9 23  1  0
M  END
