
     RDKit          3D

 19 20  0  0  0  0  0  0  0  0999 V2000
   -0.8181    1.4245    0.3756 C   0  0  0  0  0  0  0  0  0  0  0  0
   -0.1795    0.2761   -0.3759 C   0  0  0  0  0  0  0  0  0  0  0  0
   -1.0963   -0.5817   -1.1569 C   0  0  0  0  0  0  0  0  0  0  0  0
   -1.4613   -1.1838    0.2342 C   0  0  0  0  0  0  0  0  0  0  0  0
    0.0070   -0.9388    0.5356 C   0  0  0  0  0  0  0  0  0  0  0  0
    1.2579   -0.9096    0.9135 C   0  0  0  0  0  0  0  0  0  0  0  0
    2.0498    0.2222    0.3662 C   0  0  0  0  0  0  0  0  0  0  0  0
    1.1945    0.5393   -0.8529 C   0  0  0  0  0  0  0  0  0  0  0  0
    1.5803    0.9069   -1.9125 O   0  0  0  0  0  0  0  0  0  0  0  0
   -0.0981    2.2707    0.3986 H   0  0  0  0  0  0  0  0  0  0  0  0
   -1.0636    1.1250    1.4100 H   0  0  0  0  0  0  0  0  0  0  0  0
   -1.7526    1.7338   -0.1586 H   0  0  0  0  0  0  0  0  0  0  0  0
   -1.9803   -0.0550   -1.5658 H   0  0  0  0  0  0  0  0  0  0  0  0
   -0.6149   -1.3136   -1.8035 H   0  0  0  0  0  0  0  0  0  0  0  0
   -1.7050   -2.2585    0.1626 H   0  0  0  0  0  0  0  0  0  0  0  0
   -2.0941   -0.5385    0.8342 H   0  0  0  0  0  0  0  0  0  0  0  0
    1.6546   -1.6916    1.5923 H   0  0  0  0  0  0  0  0  0  0  0  0
    3.0151   -0.1110   -0.0322 H   0  0  0  0  0  0  0  0  0  0  0  0
    2.1047    1.0835    1.0356 H   0  0  0  0  0  0  0  0  0  0  0  0
  1  2  1  0
  2  3  1  0
  3  4  1  0
  4  5  1  0
  5  6  2  0
  6  7  1  0
  7  8  1  0
  8  9  2  0
  5  2  1  0
  8  2  1  0
  1 10  1  0
  1 11  1  0
  1 12  1  0
  3 13  1  0
  3 14  1  0
  4 15  1  0
  4 16  1  0
  6 17  1  0
  7 18  1  0
  7 19  1  0
M  END
