
     RDKit          3D

 19 21  0  0  0  0  0  0  0  0999 V2000
    2.0290   -0.4186   -0.3083 C   0  0  0  0  0  0  0  0  0  0  0  0
    0.6720    0.0719   -0.0255 C   0  0  0  0  0  0  0  0  0  0  0  0
    0.3804    1.4712    0.4209 C   0  0  0  0  0  0  0  0  0  0  0  0
   -1.0042    1.3180   -0.2267 C   0  0  0  0  0  0  0  0  0  0  0  0
   -1.9632    0.7783    0.6116 O   0  0  0  0  0  0  0  0  0  0  0  0
   -1.5542   -0.4646    1.0137 C   0  0  0  0  0  0  0  0  0  0  0  0
   -0.4656   -0.9269    0.0691 C   0  0  0  0  0  0  0  0  0  0  0  0
   -0.2252   -2.2464   -0.1545 O   0  0  0  0  0  0  0  0  0  0  0  0
   -0.4414    0.1250   -0.9460 C   0  0  0  0  0  0  0  0  0  0  0  0
    2.2890   -1.2004    0.4643 H   0  0  0  0  0  0  0  0  0  0  0  0
    2.1321   -0.8990   -1.3213 H   0  0  0  0  0  0  0  0  0  0  0  0
    2.7735    0.3876   -0.1935 H   0  0  0  0  0  0  0  0  0  0  0  0
    0.2822    1.6083    1.5095 H   0  0  0  0  0  0  0  0  0  0  0  0
    0.9383    2.2797   -0.0582 H   0  0  0  0  0  0  0  0  0  0  0  0
   -1.3316    2.1631   -0.8176 H   0  0  0  0  0  0  0  0  0  0  0  0
   -2.4402   -1.1458    0.9973 H   0  0  0  0  0  0  0  0  0  0  0  0
   -1.1685   -0.3955    2.0569 H   0  0  0  0  0  0  0  0  0  0  0  0
   -0.4559   -2.5159   -1.0833 H   0  0  0  0  0  0  0  0  0  0  0  0
   -0.4466    0.0102   -2.0084 H   0  0  0  0  0  0  0  0  0  0  0  0
  1  2  1  0
  2  3  1  0
  3  4  1  0
  4  5  1  0
  5  6  1  0
  6  7  1  0
  7  8  1  0
  7  9  1  0
  7  2  1  0
  9  2  1  0
  9  4  1  0
  1 10  1  0
  1 11  1  0
  1 12  1  0
  3 13  1  0
  3 14  1  0
  4 15  1  0
  6 16  1  0
  6 17  1  0
  8 18  1  0
  9 19  1  0
M  END
