
     RDKit          3D

 19 20  0  0  0  0  0  0  0  0999 V2000
    2.3294    0.0705    0.3350 C   0  0  0  0  0  0  0  0  0  0  0  0
    0.8204   -0.0201    0.4742 C   0  0  0  0  0  0  0  0  0  0  0  0
    0.2970   -0.6178    1.5965 O   0  0  0  0  0  0  0  0  0  0  0  0
    0.2102   -1.3139    0.3902 C   0  0  0  0  0  0  0  0  0  0  0  0
   -1.1692   -1.2127   -0.2364 C   0  0  0  0  0  0  0  0  0  0  0  0
   -1.2589    0.1923   -0.7468 C   0  0  0  0  0  0  0  0  0  0  0  0
   -2.3185    0.8953   -0.1632 O   0  0  0  0  0  0  0  0  0  0  0  0
    0.0216    0.8931   -0.3847 C   0  0  0  0  0  0  0  0  0  0  0  0
   -0.1860    2.1205    0.2094 O   0  0  0  0  0  0  0  0  0  0  0  0
    2.6235   -0.5256   -0.5625 H   0  0  0  0  0  0  0  0  0  0  0  0
    2.5987    1.1347    0.2540 H   0  0  0  0  0  0  0  0  0  0  0  0
    2.8256   -0.3858    1.2282 H   0  0  0  0  0  0  0  0  0  0  0  0
    0.8322   -2.1970    0.2108 H   0  0  0  0  0  0  0  0  0  0  0  0
   -1.9129   -1.3690    0.5970 H   0  0  0  0  0  0  0  0  0  0  0  0
   -1.2392   -1.9870   -1.0080 H   0  0  0  0  0  0  0  0  0  0  0  0
   -1.4430    0.2349   -1.8491 H   0  0  0  0  0  0  0  0  0  0  0  0
   -3.0890    0.2964   -0.0395 H   0  0  0  0  0  0  0  0  0  0  0  0
    0.5905    1.0601   -1.3315 H   0  0  0  0  0  0  0  0  0  0  0  0
   -0.5323    2.7310   -0.4868 H   0  0  0  0  0  0  0  0  0  0  0  0
  1  2  1  0
  2  3  1  0
  3  4  1  0
  4  5  1  0
  5  6  1  0
  6  7  1  0
  6  8  1  0
  8  9  1  0
  4  2  1  0
  8  2  1  0
  1 10  1  0
  1 11  1  0
  1 12  1  0
  4 13  1  0
  5 14  1  0
  5 15  1  0
  6 16  1  0
  7 17  1  0
  8 18  1  0
  9 19  1  0
M  END
