
     RDKit          3D

 23 24  0  0  0  0  0  0  0  0999 V2000
    2.5166   -0.0332    0.2893 C   0  0  0  0  0  0  0  0  0  0  0  0
    1.0165    0.0094   -0.0865 C   0  0  0  0  0  0  0  0  0  0  0  0
    0.5042    1.3545   -0.2759 C   0  0  0  0  0  0  0  0  0  0  0  0
   -0.7607    1.7483    0.3390 C   0  0  0  0  0  0  0  0  0  0  0  0
   -1.8770    1.0603    0.4360 C   0  0  0  0  0  0  0  0  0  0  0  0
   -2.1353   -0.3102   -0.0622 C   0  0  0  0  0  0  0  0  0  0  0  0
   -1.1359   -1.1919    0.5989 C   0  0  0  0  0  0  0  0  0  0  0  0
    0.2536   -1.1572    0.1498 C   0  0  0  0  0  0  0  0  0  0  0  0
    0.6568   -0.9624   -1.2650 C   0  0  0  0  0  0  0  0  0  0  0  0
    3.0059    0.9217    0.0996 H   0  0  0  0  0  0  0  0  0  0  0  0
    2.5007   -0.1726    1.4093 H   0  0  0  0  0  0  0  0  0  0  0  0
    3.0009   -0.9169   -0.1185 H   0  0  0  0  0  0  0  0  0  0  0  0
    1.2641    2.1441    0.0142 H   0  0  0  0  0  0  0  0  0  0  0  0
    0.3762    1.5679   -1.3833 H   0  0  0  0  0  0  0  0  0  0  0  0
   -0.8249    2.7324    0.7844 H   0  0  0  0  0  0  0  0  0  0  0  0
   -2.6932    1.5436    0.9310 H   0  0  0  0  0  0  0  0  0  0  0  0
   -3.1499   -0.6686    0.2237 H   0  0  0  0  0  0  0  0  0  0  0  0
   -2.0629   -0.2859   -1.1631 H   0  0  0  0  0  0  0  0  0  0  0  0
   -1.1789   -0.9913    1.6969 H   0  0  0  0  0  0  0  0  0  0  0  0
   -1.5267   -2.2480    0.4968 H   0  0  0  0  0  0  0  0  0  0  0  0
    0.8209   -2.0371    0.6101 H   0  0  0  0  0  0  0  0  0  0  0  0
    1.5038   -1.5029   -1.7183 H   0  0  0  0  0  0  0  0  0  0  0  0
   -0.0748   -0.6038   -2.0063 H   0  0  0  0  0  0  0  0  0  0  0  0
  1  2  1  0
  2  3  1  0
  3  4  1  0
  4  5  2  0
  5  6  1  0
  6  7  1  0
  7  8  1  0
  8  9  1  0
  8  2  1  0
  9  2  1  0
  1 10  1  0
  1 11  1  0
  1 12  1  0
  3 13  1  0
  3 14  1  0
  4 15  1  0
  5 16  1  0
  6 17  1  0
  6 18  1  0
  7 19  1  0
  7 20  1  0
  8 21  1  0
  9 22  1  0
  9 23  1  0
M  END
