
     RDKit          3D

 21 23  0  0  0  0  0  0  0  0999 V2000
    2.3174   -0.5877    0.8415 C   0  0  0  0  0  0  0  0  0  0  0  0
    1.0786   -0.2836    0.1468 C   0  0  0  0  0  0  0  0  0  0  0  0
    0.9755    0.9776   -0.6694 C   0  0  0  0  0  0  0  0  0  0  0  0
   -0.0378    0.1089   -1.3519 C   0  0  0  0  0  0  0  0  0  0  0  0
    0.7956   -0.9863   -1.0454 O   0  0  0  0  0  0  0  0  0  0  0  0
   -1.1491   -0.0666   -0.3485 C   0  0  0  0  0  0  0  0  0  0  0  0
   -2.1202    1.0611   -0.1442 C   0  0  0  0  0  0  0  0  0  0  0  0
   -1.2883   -1.3663    0.3092 C   0  0  0  0  0  0  0  0  0  0  0  0
   -0.2346   -0.4212    0.8803 C   0  0  0  0  0  0  0  0  0  0  0  0
    2.7959    0.3587    1.2176 H   0  0  0  0  0  0  0  0  0  0  0  0
    2.1754   -1.3285    1.6226 H   0  0  0  0  0  0  0  0  0  0  0  0
    3.0642   -1.0107    0.1066 H   0  0  0  0  0  0  0  0  0  0  0  0
    0.5692    1.8527   -0.1194 H   0  0  0  0  0  0  0  0  0  0  0  0
    1.8897    1.1510   -1.2387 H   0  0  0  0  0  0  0  0  0  0  0  0
   -0.2796    0.2757   -2.3775 H   0  0  0  0  0  0  0  0  0  0  0  0
   -1.7206    1.9728   -0.6177 H   0  0  0  0  0  0  0  0  0  0  0  0
   -3.0663    0.7814   -0.6591 H   0  0  0  0  0  0  0  0  0  0  0  0
   -2.3693    1.1982    0.9286 H   0  0  0  0  0  0  0  0  0  0  0  0
   -2.1170   -1.5901    0.9809 H   0  0  0  0  0  0  0  0  0  0  0  0
   -0.8387   -2.2383   -0.2491 H   0  0  0  0  0  0  0  0  0  0  0  0
   -0.4401    0.1411    1.7869 H   0  0  0  0  0  0  0  0  0  0  0  0
  1  2  1  0
  2  3  1  0
  3  4  1  0
  4  5  1  0
  4  6  1  0
  6  7  1  0
  6  8  1  0
  8  9  1  0
  5  2  1  0
  9  6  1  0
  9  2  1  0
  1 10  1  0
  1 11  1  0
  1 12  1  0
  3 13  1  0
  3 14  1  0
  4 15  1  0
  7 16  1  0
  7 17  1  0
  7 18  1  0
  8 19  1  0
  8 20  1  0
  9 21  1  0
M  END
