
     RDKit          3D

 17 19  0  0  0  0  0  0  0  0999 V2000
    2.1068    0.0087    0.3005 C   0  0  0  0  0  0  0  0  0  0  0  0
    0.7227    0.0126   -0.2149 C   0  0  0  0  0  0  0  0  0  0  0  0
    0.4788    0.7817   -1.3624 O   0  0  0  0  0  0  0  0  0  0  0  0
   -0.7233    1.2346   -0.8558 C   0  0  0  0  0  0  0  0  0  0  0  0
   -1.5800    0.3751    0.0111 C   0  0  0  0  0  0  0  0  0  0  0  0
   -1.4082   -1.1375   -0.0142 C   0  0  0  0  0  0  0  0  0  0  0  0
    0.0330   -1.2887   -0.3462 C   0  0  0  0  0  0  0  0  0  0  0  0
    0.5717   -2.3239   -0.6771 O   0  0  0  0  0  0  0  0  0  0  0  0
   -0.2914    0.8544    0.4859 C   0  0  0  0  0  0  0  0  0  0  0  0
    2.1243   -0.2200    1.3821 H   0  0  0  0  0  0  0  0  0  0  0  0
    2.7061   -0.7256   -0.2433 H   0  0  0  0  0  0  0  0  0  0  0  0
    2.5602    0.9996    0.1331 H   0  0  0  0  0  0  0  0  0  0  0  0
   -1.0850    2.2290   -1.1128 H   0  0  0  0  0  0  0  0  0  0  0  0
   -2.5127    0.8152    0.3513 H   0  0  0  0  0  0  0  0  0  0  0  0
   -1.5464   -1.4884    1.0232 H   0  0  0  0  0  0  0  0  0  0  0  0
   -2.0722   -1.6232   -0.7427 H   0  0  0  0  0  0  0  0  0  0  0  0
   -0.0844    1.4965    1.3123 H   0  0  0  0  0  0  0  0  0  0  0  0
  1  2  1  0
  2  3  1  0
  3  4  1  0
  4  5  1  0
  5  6  1  0
  6  7  1  0
  7  8  2  0
  5  9  1  0
  7  2  1  0
  9  2  1  0
  9  4  1  0
  1 10  1  0
  1 11  1  0
  1 12  1  0
  4 13  1  0
  5 14  1  0
  6 15  1  0
  6 16  1  0
  9 17  1  0
M  END
