
     RDKit          3D

 19 20  0  0  0  0  0  0  0  0999 V2000
   -2.5098    0.6015   -0.0293 C   0  0  0  0  0  0  0  0  0  0  0  0
   -1.1734    0.2383   -0.0478 C   0  0  0  0  0  0  0  0  0  0  0  0
   -0.5956   -0.9797   -0.7081 C   0  0  0  0  0  0  0  0  0  0  0  0
    0.5242   -0.2098   -0.1073 C   0  0  0  0  0  0  0  0  0  0  0  0
    1.8824   -0.4419   -0.2153 C   0  0  0  0  0  0  0  0  0  0  0  0
    2.6817    0.5532    0.5359 C   0  0  0  0  0  0  0  0  0  0  0  0
    2.9219    1.6504    0.0878 O   0  0  0  0  0  0  0  0  0  0  0  0
   -0.2863   -0.0254    1.1165 C   0  0  0  0  0  0  0  0  0  0  0  0
   -0.1187    0.9422   -0.6091 O   0  0  0  0  0  0  0  0  0  0  0  0
   -2.7902    1.2270   -0.9307 H   0  0  0  0  0  0  0  0  0  0  0  0
   -2.7682    1.2535    0.8418 H   0  0  0  0  0  0  0  0  0  0  0  0
   -3.2057   -0.2725   -0.0864 H   0  0  0  0  0  0  0  0  0  0  0  0
   -0.8474   -1.9508   -0.2792 H   0  0  0  0  0  0  0  0  0  0  0  0
   -0.6365   -0.9507   -1.8152 H   0  0  0  0  0  0  0  0  0  0  0  0
    2.1783   -1.4493    0.1628 H   0  0  0  0  0  0  0  0  0  0  0  0
    2.2296   -0.3968   -1.2869 H   0  0  0  0  0  0  0  0  0  0  0  0
    3.0546    0.2872    1.5041 H   0  0  0  0  0  0  0  0  0  0  0  0
   -0.5017   -0.9129    1.7311 H   0  0  0  0  0  0  0  0  0  0  0  0
   -0.0394    0.8365    1.7567 H   0  0  0  0  0  0  0  0  0  0  0  0
  1  2  1  0
  2  3  1  0
  3  4  1  0
  4  5  1  0
  5  6  1  0
  6  7  2  0
  4  8  1  0
  4  9  1  0
  8  2  1  0
  9  2  1  0
  1 10  1  0
  1 11  1  0
  1 12  1  0
  3 13  1  0
  3 14  1  0
  5 15  1  0
  5 16  1  0
  6 17  1  0
  8 18  1  0
  8 19  1  0
M  END
