
     RDKit          3D

 19 20  0  0  0  0  0  0  0  0999 V2000
    0.1591   -1.6914   -0.6705 C   0  0  0  0  0  0  0  0  0  0  0  0
   -0.2000   -0.4711    0.1133 C   0  0  0  0  0  0  0  0  0  0  0  0
   -1.6429   -0.2956    0.4827 C   0  0  0  0  0  0  0  0  0  0  0  0
   -1.8113    1.0509    0.8160 O   0  0  0  0  0  0  0  0  0  0  0  0
   -1.0442    1.7752   -0.0765 C   0  0  0  0  0  0  0  0  0  0  0  0
    0.1450    0.9039   -0.4392 C   0  0  0  0  0  0  0  0  0  0  0  0
    0.8717    0.3312    0.7292 C   0  0  0  0  0  0  0  0  0  0  0  0
    2.2644   -0.1281    0.4128 C   0  0  0  0  0  0  0  0  0  0  0  0
    3.1797    0.0645    1.2141 O   0  0  0  0  0  0  0  0  0  0  0  0
    0.1819   -1.4797   -1.7604 H   0  0  0  0  0  0  0  0  0  0  0  0
   -0.6127   -2.4758   -0.4225 H   0  0  0  0  0  0  0  0  0  0  0  0
    1.1310   -2.1424   -0.3900 H   0  0  0  0  0  0  0  0  0  0  0  0
   -1.9927   -0.9464    1.2877 H   0  0  0  0  0  0  0  0  0  0  0  0
   -2.2478   -0.4786   -0.4456 H   0  0  0  0  0  0  0  0  0  0  0  0
   -0.6277    2.7081    0.3682 H   0  0  0  0  0  0  0  0  0  0  0  0
   -1.6184    2.0928   -0.9805 H   0  0  0  0  0  0  0  0  0  0  0  0
    0.6035    0.9863   -1.4224 H   0  0  0  0  0  0  0  0  0  0  0  0
    0.7609    0.8318    1.7017 H   0  0  0  0  0  0  0  0  0  0  0  0
    2.5003   -0.6356   -0.5181 H   0  0  0  0  0  0  0  0  0  0  0  0
  1  2  1  0
  2  3  1  0
  3  4  1  0
  4  5  1  0
  5  6  1  0
  6  7  1  0
  7  8  1  0
  8  9  2  0
  6  2  1  0
  7  2  1  0
  1 10  1  0
  1 11  1  0
  1 12  1  0
  3 13  1  0
  3 14  1  0
  5 15  1  0
  5 16  1  0
  6 17  1  0
  7 18  1  0
  8 19  1  0
M  END
