
     RDKit          3D

 16 17  0  0  0  0  0  0  0  0999 V2000
    2.0052    0.0297    0.4809 C   0  0  0  0  0  0  0  0  0  0  0  0
    0.6159   -0.0477   -0.0626 C   0  0  0  0  0  0  0  0  0  0  0  0
   -0.3079    1.1302   -0.0057 C   0  0  0  0  0  0  0  0  0  0  0  0
   -1.6765    0.4979    0.1020 C   0  0  0  0  0  0  0  0  0  0  0  0
   -1.5139   -0.9019   -0.3568 C   0  0  0  0  0  0  0  0  0  0  0  0
   -2.3751   -1.6827   -0.6935 O   0  0  0  0  0  0  0  0  0  0  0  0
   -0.0634   -1.1952   -0.3327 C   0  0  0  0  0  0  0  0  0  0  0  0
    0.6525   -0.5739   -1.4411 O   0  0  0  0  0  0  0  0  0  0  0  0
    2.0096    0.3548    1.5264 H   0  0  0  0  0  0  0  0  0  0  0  0
    2.7107    0.6006   -0.1543 H   0  0  0  0  0  0  0  0  0  0  0  0
    2.3986   -1.0300    0.4910 H   0  0  0  0  0  0  0  0  0  0  0  0
   -0.1318    1.7974    0.8510 H   0  0  0  0  0  0  0  0  0  0  0  0
   -0.2510    1.7371   -0.9574 H   0  0  0  0  0  0  0  0  0  0  0  0
   -2.4500    1.0553   -0.4655 H   0  0  0  0  0  0  0  0  0  0  0  0
   -1.9169    0.4493    1.1910 H   0  0  0  0  0  0  0  0  0  0  0  0
    0.2941   -2.2210   -0.1729 H   0  0  0  0  0  0  0  0  0  0  0  0
  1  2  1  0
  2  3  1  0
  3  4  1  0
  4  5  1  0
  5  6  2  0
  5  7  1  0
  7  8  1  0
  7  2  1  0
  8  2  1  0
  1  9  1  0
  1 10  1  0
  1 11  1  0
  3 12  1  0
  3 13  1  0
  4 14  1  0
  4 15  1  0
  7 16  1  0
M  END
