
     RDKit          3D

 21 22  0  0  0  0  0  0  0  0999 V2000
   -1.1236    1.4702    1.0504 C   0  0  0  0  0  0  0  0  0  0  0  0
   -0.3653    1.0705   -0.1722 C   0  0  0  0  0  0  0  0  0  0  0  0
   -1.1312    0.8252   -1.3940 C   0  0  0  0  0  0  0  0  0  0  0  0
   -0.3400   -0.2560   -0.7502 C   0  0  0  0  0  0  0  0  0  0  0  0
   -1.0734   -1.4422   -0.2497 C   0  0  0  0  0  0  0  0  0  0  0  0
    1.1508   -0.1469   -0.6281 C   0  0  0  0  0  0  0  0  0  0  0  0
    1.7854   -0.9600    0.4658 C   0  0  0  0  0  0  0  0  0  0  0  0
    3.0445   -0.4605    0.7962 O   0  0  0  0  0  0  0  0  0  0  0  0
    0.9972    1.1800   -0.2317 O   0  0  0  0  0  0  0  0  0  0  0  0
   -2.0751    0.9513    1.1618 H   0  0  0  0  0  0  0  0  0  0  0  0
   -0.4817    1.3388    1.9569 H   0  0  0  0  0  0  0  0  0  0  0  0
   -1.3344    2.5774    0.9804 H   0  0  0  0  0  0  0  0  0  0  0  0
   -0.7217    1.2566   -2.3403 H   0  0  0  0  0  0  0  0  0  0  0  0
   -2.2241    0.7363   -1.3263 H   0  0  0  0  0  0  0  0  0  0  0  0
   -0.4283   -2.3154   -0.0109 H   0  0  0  0  0  0  0  0  0  0  0  0
   -1.6834   -1.2443    0.6648 H   0  0  0  0  0  0  0  0  0  0  0  0
   -1.7632   -1.7911   -1.0522 H   0  0  0  0  0  0  0  0  0  0  0  0
    1.6462   -0.2062   -1.5948 H   0  0  0  0  0  0  0  0  0  0  0  0
    1.9596   -1.9921    0.0746 H   0  0  0  0  0  0  0  0  0  0  0  0
    1.1971   -1.0374    1.3718 H   0  0  0  0  0  0  0  0  0  0  0  0
    2.9647    0.4459    1.2277 H   0  0  0  0  0  0  0  0  0  0  0  0
  1  2  1  0
  2  3  1  0
  3  4  1  0
  4  5  1  0
  4  6  1  0
  6  7  1  0
  7  8  1  0
  6  9  1  0
  4  2  1  0
  9  2  1  0
  1 10  1  0
  1 11  1  0
  1 12  1  0
  3 13  1  0
  3 14  1  0
  5 15  1  0
  5 16  1  0
  5 17  1  0
  6 18  1  0
  7 19  1  0
  7 20  1  0
  8 21  1  0
M  END
