
     RDKit          3D

 18 21  0  0  0  0  0  0  0  0999 V2000
   -2.1482   -0.1605    0.2344 C   0  0  0  0  0  0  0  0  0  0  0  0
   -0.6941   -0.0696    0.1217 C   0  0  0  0  0  0  0  0  0  0  0  0
    0.0731   -0.7339   -0.9302 C   0  0  0  0  0  0  0  0  0  0  0  0
    1.1618    0.2333   -1.3135 C   0  0  0  0  0  0  0  0  0  0  0  0
    1.4555    0.9316    0.0016 C   0  0  0  0  0  0  0  0  0  0  0  0
    1.2040   -0.0841    1.0200 C   0  0  0  0  0  0  0  0  0  0  0  0
    0.1495    1.0128    0.6539 C   0  0  0  0  0  0  0  0  0  0  0  0
    0.2735   -1.1012    0.4675 C   0  0  0  0  0  0  0  0  0  0  0  0
   -2.5152   -1.1939    0.4277 H   0  0  0  0  0  0  0  0  0  0  0  0
   -2.6082    0.1193   -0.7586 H   0  0  0  0  0  0  0  0  0  0  0  0
   -2.5783    0.5698    0.9550 H   0  0  0  0  0  0  0  0  0  0  0  0
   -0.3419   -1.4382   -1.6612 H   0  0  0  0  0  0  0  0  0  0  0  0
    0.7239    0.9351   -2.0592 H   0  0  0  0  0  0  0  0  0  0  0  0
    2.0879   -0.2406   -1.6484 H   0  0  0  0  0  0  0  0  0  0  0  0
    2.2557    1.6565    0.0841 H   0  0  0  0  0  0  0  0  0  0  0  0
    1.5572   -0.0737    2.0399 H   0  0  0  0  0  0  0  0  0  0  0  0
   -0.1301    1.6935    1.4443 H   0  0  0  0  0  0  0  0  0  0  0  0
    0.0741   -2.0562    0.9210 H   0  0  0  0  0  0  0  0  0  0  0  0
  1  2  1  0
  2  3  1  0
  3  4  1  0
  4  5  1  0
  5  6  1  0
  6  7  1  0
  6  8  1  0
  7  2  1  0
  8  2  1  0
  8  3  1  0
  7  5  1  0
  1  9  1  0
  1 10  1  0
  1 11  1  0
  3 12  1  0
  4 13  1  0
  4 14  1  0
  5 15  1  0
  6 16  1  0
  7 17  1  0
  8 18  1  0
M  END
