
     RDKit          3D

 18 19  0  0  0  0  0  0  0  0999 V2000
   -1.7949    1.1719    0.0835 C   0  0  0  0  0  0  0  0  0  0  0  0
   -0.9260   -0.0744   -0.1689 C   0  0  0  0  0  0  0  0  0  0  0  0
   -0.8513   -0.9404    1.0622 C   0  0  0  0  0  0  0  0  0  0  0  0
    0.1050    0.0611    1.3027 O   0  0  0  0  0  0  0  0  0  0  0  0
    0.5058    0.1805   -0.0554 C   0  0  0  0  0  0  0  0  0  0  0  0
    1.7929   -0.4769   -0.0783 C   0  0  0  0  0  0  0  0  0  0  0  0
    2.6680    0.1932    0.8118 O   0  0  0  0  0  0  0  0  0  0  0  0
   -0.1855   -0.1611   -1.2974 C   0  0  0  0  0  0  0  0  0  0  0  0
   -2.4736    1.0419    0.9215 H   0  0  0  0  0  0  0  0  0  0  0  0
   -1.1949    2.0900    0.1241 H   0  0  0  0  0  0  0  0  0  0  0  0
   -2.4146    1.2606   -0.8566 H   0  0  0  0  0  0  0  0  0  0  0  0
   -0.4593   -1.9340    0.8613 H   0  0  0  0  0  0  0  0  0  0  0  0
   -1.7513   -0.8805    1.7120 H   0  0  0  0  0  0  0  0  0  0  0  0
    1.8146   -1.5552    0.2285 H   0  0  0  0  0  0  0  0  0  0  0  0
    2.3513   -0.4621   -1.0593 H   0  0  0  0  0  0  0  0  0  0  0  0
    3.0691    0.9620    0.3262 H   0  0  0  0  0  0  0  0  0  0  0  0
   -0.1847    0.6673   -2.0697 H   0  0  0  0  0  0  0  0  0  0  0  0
   -0.0708   -1.1437   -1.8481 H   0  0  0  0  0  0  0  0  0  0  0  0
  1  2  1  0
  2  3  1  0
  3  4  1  0
  4  5  1  0
  5  6  1  0
  6  7  1  0
  5  8  1  0
  5  2  1  0
  8  2  1  0
  1  9  1  0
  1 10  1  0
  1 11  1  0
  3 12  1  0
  3 13  1  0
  6 14  1  0
  6 15  1  0
  7 16  1  0
  8 17  1  0
  8 18  1  0
M  END
