
     RDKit          3D

 18 19  0  0  0  0  0  0  0  0999 V2000
   -2.0574   -0.0950    0.5264 C   0  0  0  0  0  0  0  0  0  0  0  0
   -0.5748   -0.0107    0.3327 C   0  0  0  0  0  0  0  0  0  0  0  0
   -0.1365    1.3407   -0.1751 C   0  0  0  0  0  0  0  0  0  0  0  0
    1.1787    1.2881   -0.6415 O   0  0  0  0  0  0  0  0  0  0  0  0
    1.9502    0.3512    0.0064 C   0  0  0  0  0  0  0  0  0  0  0  0
    1.1616   -0.8529    0.4191 C   0  0  0  0  0  0  0  0  0  0  0  0
   -0.0049   -1.1261   -0.5037 C   0  0  0  0  0  0  0  0  0  0  0  0
    0.2109   -0.4442    1.3836 O   0  0  0  0  0  0  0  0  0  0  0  0
   -2.3666   -1.1352    0.7726 H   0  0  0  0  0  0  0  0  0  0  0  0
   -2.5324    0.1794   -0.4449 H   0  0  0  0  0  0  0  0  0  0  0  0
   -2.4021    0.6473    1.2597 H   0  0  0  0  0  0  0  0  0  0  0  0
   -0.1629    2.0946    0.6454 H   0  0  0  0  0  0  0  0  0  0  0  0
   -0.8372    1.6075   -1.0090 H   0  0  0  0  0  0  0  0  0  0  0  0
    2.7473   -0.0003   -0.6984 H   0  0  0  0  0  0  0  0  0  0  0  0
    2.4431    0.7832    0.9147 H   0  0  0  0  0  0  0  0  0  0  0  0
    1.7541   -1.7155    0.7229 H   0  0  0  0  0  0  0  0  0  0  0  0
   -0.4902   -2.0807   -0.2845 H   0  0  0  0  0  0  0  0  0  0  0  0
    0.1191   -0.8315   -1.5477 H   0  0  0  0  0  0  0  0  0  0  0  0
  1  2  1  0
  2  3  1  0
  3  4  1  0
  4  5  1  0
  5  6  1  0
  6  7  1  0
  6  8  1  0
  7  2  1  0
  8  2  1  0
  1  9  1  0
  1 10  1  0
  1 11  1  0
  3 12  1  0
  3 13  1  0
  5 14  1  0
  5 15  1  0
  6 16  1  0
  7 17  1  0
  7 18  1  0
M  END
