
     RDKit          3D

 23 25  0  0  0  0  0  0  0  0999 V2000
   -1.2733   -1.4129   -0.8234 C   0  0  0  0  0  0  0  0  0  0  0  0
   -0.9929   -0.2466    0.0781 C   0  0  0  0  0  0  0  0  0  0  0  0
   -2.0962    0.1838    0.9540 C   0  0  0  0  0  0  0  0  0  0  0  0
   -1.7692    1.0660   -0.1798 C   0  0  0  0  0  0  0  0  0  0  0  0
   -0.4663    1.8350    0.0060 C   0  0  0  0  0  0  0  0  0  0  0  0
    0.2227    0.5284   -0.2102 C   0  0  0  0  0  0  0  0  0  0  0  0
    1.4424    0.2670    0.6342 C   0  0  0  0  0  0  0  0  0  0  0  0
    1.9293   -1.1944    0.5426 C   0  0  0  0  0  0  0  0  0  0  0  0
    2.7375   -0.0394   -0.0204 C   0  0  0  0  0  0  0  0  0  0  0  0
   -0.7770   -1.2240   -1.7976 H   0  0  0  0  0  0  0  0  0  0  0  0
   -2.3689   -1.5481   -0.9825 H   0  0  0  0  0  0  0  0  0  0  0  0
   -0.8624   -2.3146   -0.3420 H   0  0  0  0  0  0  0  0  0  0  0  0
   -3.0564   -0.3519    0.8811 H   0  0  0  0  0  0  0  0  0  0  0  0
   -1.9223    0.6156    1.9648 H   0  0  0  0  0  0  0  0  0  0  0  0
   -2.2753    1.0623   -1.1372 H   0  0  0  0  0  0  0  0  0  0  0  0
   -0.4331    2.2256    1.0574 H   0  0  0  0  0  0  0  0  0  0  0  0
   -0.2928    2.6259   -0.7323 H   0  0  0  0  0  0  0  0  0  0  0  0
    0.5049    0.4546   -1.3007 H   0  0  0  0  0  0  0  0  0  0  0  0
    1.5113    0.7443    1.6227 H   0  0  0  0  0  0  0  0  0  0  0  0
    1.4987   -1.8365   -0.2369 H   0  0  0  0  0  0  0  0  0  0  0  0
    2.2572   -1.6688    1.4900 H   0  0  0  0  0  0  0  0  0  0  0  0
    2.8036    0.0935   -1.1089 H   0  0  0  0  0  0  0  0  0  0  0  0
    3.6786    0.1353    0.5370 H   0  0  0  0  0  0  0  0  0  0  0  0
  1  2  1  0
  2  3  1  0
  3  4  1  0
  4  5  1  0
  5  6  1  0
  6  7  1  0
  7  8  1  0
  8  9  1  0
  4  2  1  0
  9  7  1  0
  6  2  1  0
  1 10  1  0
  1 11  1  0
  1 12  1  0
  3 13  1  0
  3 14  1  0
  4 15  1  0
  5 16  1  0
  5 17  1  0
  6 18  1  0
  7 19  1  0
  8 20  1  0
  8 21  1  0
  9 22  1  0
  9 23  1  0
M  END
