
     RDKit          3D

 19 21  0  0  0  0  0  0  0  0999 V2000
   -0.0220    1.3992   -0.6569 C   0  0  0  0  0  0  0  0  0  0  0  0
    0.0680    0.3719    0.4521 C   0  0  0  0  0  0  0  0  0  0  0  0
    1.1291    0.5834    1.2641 O   0  0  0  0  0  0  0  0  0  0  0  0
    2.1813    0.2987    0.3132 C   0  0  0  0  0  0  0  0  0  0  0  0
    1.6572   -1.0573   -0.1277 C   0  0  0  0  0  0  0  0  0  0  0  0
    0.3430   -1.0334   -0.0411 C   0  0  0  0  0  0  0  0  0  0  0  0
   -1.0850   -1.3466   -0.0446 C   0  0  0  0  0  0  0  0  0  0  0  0
   -2.1600   -0.3972   -0.2657 C   0  0  0  0  0  0  0  0  0  0  0  0
   -1.2435   -0.1498    0.8818 C   0  0  0  0  0  0  0  0  0  0  0  0
    0.5880    2.2761   -0.3175 H   0  0  0  0  0  0  0  0  0  0  0  0
   -1.0462    1.8110   -0.7836 H   0  0  0  0  0  0  0  0  0  0  0  0
    0.3029    1.0215   -1.6313 H   0  0  0  0  0  0  0  0  0  0  0  0
    3.1379    0.2386    0.8207 H   0  0  0  0  0  0  0  0  0  0  0  0
    2.1399    0.9971   -0.5348 H   0  0  0  0  0  0  0  0  0  0  0  0
    2.3214   -1.8587   -0.4463 H   0  0  0  0  0  0  0  0  0  0  0  0
   -1.4121   -2.3644    0.3245 H   0  0  0  0  0  0  0  0  0  0  0  0
   -3.1963   -0.6857    0.0711 H   0  0  0  0  0  0  0  0  0  0  0  0
   -2.1470    0.1782   -1.1908 H   0  0  0  0  0  0  0  0  0  0  0  0
   -1.5564   -0.2826    1.9127 H   0  0  0  0  0  0  0  0  0  0  0  0
  1  2  1  0
  2  3  1  0
  3  4  1  0
  4  5  1  0
  5  6  2  0
  6  7  1  0
  7  8  1  0
  8  9  1  0
  6  2  1  0
  9  7  1  0
  9  2  1  0
  1 10  1  0
  1 11  1  0
  1 12  1  0
  4 13  1  0
  4 14  1  0
  5 15  1  0
  7 16  1  0
  8 17  1  0
  8 18  1  0
  9 19  1  0
M  END
