
     RDKit          3D

 19 20  0  0  0  0  0  0  0  0999 V2000
   -0.9406    1.9150   -0.2245 C   0  0  0  0  0  0  0  0  0  0  0  0
   -0.4190    0.5065   -0.3646 C   0  0  0  0  0  0  0  0  0  0  0  0
   -1.3846   -0.4664   -0.9386 C   0  0  0  0  0  0  0  0  0  0  0  0
   -1.0366   -1.5344    0.0871 C   0  0  0  0  0  0  0  0  0  0  0  0
   -0.4435   -0.3873    0.8985 C   0  0  0  0  0  0  0  0  0  0  0  0
    0.8093    0.1578    0.3472 C   0  0  0  0  0  0  0  0  0  0  0  0
    1.7200   -0.8186   -0.1555 O   0  0  0  0  0  0  0  0  0  0  0  0
    3.0807   -0.7580    0.0847 C   0  0  0  0  0  0  0  0  0  0  0  0
    3.4801    0.2252    0.7850 O   0  0  0  0  0  0  0  0  0  0  0  0
   -1.5247    1.9508    0.7224 H   0  0  0  0  0  0  0  0  0  0  0  0
   -0.0706    2.5898   -0.0724 H   0  0  0  0  0  0  0  0  0  0  0  0
   -1.5137    2.2491   -1.1029 H   0  0  0  0  0  0  0  0  0  0  0  0
   -1.2802   -0.7540   -1.9804 H   0  0  0  0  0  0  0  0  0  0  0  0
   -2.4534   -0.1540   -0.7430 H   0  0  0  0  0  0  0  0  0  0  0  0
   -0.2134   -2.2134   -0.2668 H   0  0  0  0  0  0  0  0  0  0  0  0
   -1.8846   -2.0459    0.5466 H   0  0  0  0  0  0  0  0  0  0  0  0
   -1.0057    0.0548    1.7150 H   0  0  0  0  0  0  0  0  0  0  0  0
    1.2829    0.9646    0.9437 H   0  0  0  0  0  0  0  0  0  0  0  0
    3.7976   -1.4816   -0.2817 H   0  0  0  0  0  0  0  0  0  0  0  0
  1  2  1  0
  2  3  1  0
  3  4  1  0
  4  5  1  0
  5  6  1  0
  6  7  1  0
  7  8  1  0
  8  9  2  0
  5  2  1  0
  6  2  1  0
  1 10  1  0
  1 11  1  0
  1 12  1  0
  3 13  1  0
  3 14  1  0
  4 15  1  0
  4 16  1  0
  5 17  1  0
  6 18  1  0
  8 19  1  0
M  END
