
     RDKit          3D

 19 20  0  0  0  0  0  0  0  0999 V2000
    2.4245   -0.0030    0.0455 C   0  0  0  0  0  0  0  0  0  0  0  0
    1.0551   -0.1697   -0.0662 C   0  0  0  0  0  0  0  0  0  0  0  0
    0.3295   -0.9019   -1.1574 C   0  0  0  0  0  0  0  0  0  0  0  0
   -0.6865   -0.4017   -0.1842 C   0  0  0  0  0  0  0  0  0  0  0  0
   -2.0390   -0.6655   -0.1841 C   0  0  0  0  0  0  0  0  0  0  0  0
   -2.6957   -0.1411   -1.2967 O   0  0  0  0  0  0  0  0  0  0  0  0
    0.2126   -0.8149    0.8208 O   0  0  0  0  0  0  0  0  0  0  0  0
    0.0159    0.8938   -0.1677 C   0  0  0  0  0  0  0  0  0  0  0  0
    0.0149    1.6464   -1.3180 O   0  0  0  0  0  0  0  0  0  0  0  0
    2.7110    0.9559    0.5396 H   0  0  0  0  0  0  0  0  0  0  0  0
    2.9000   -0.7998    0.6872 H   0  0  0  0  0  0  0  0  0  0  0  0
    2.9539   -0.0278   -0.9343 H   0  0  0  0  0  0  0  0  0  0  0  0
    0.5037   -1.9762   -1.0898 H   0  0  0  0  0  0  0  0  0  0  0  0
    0.3468   -0.4411   -2.1466 H   0  0  0  0  0  0  0  0  0  0  0  0
   -2.5763   -0.2926    0.7120 H   0  0  0  0  0  0  0  0  0  0  0  0
   -2.2519   -1.7746   -0.1995 H   0  0  0  0  0  0  0  0  0  0  0  0
   -2.9023    0.8366   -1.1839 H   0  0  0  0  0  0  0  0  0  0  0  0
   -0.1107    1.4837    0.7653 H   0  0  0  0  0  0  0  0  0  0  0  0
   -0.2054    2.5935   -1.1230 H   0  0  0  0  0  0  0  0  0  0  0  0
  1  2  1  0
  2  3  1  0
  3  4  1  0
  4  5  1  0
  5  6  1  0
  4  7  1  0
  4  8  1  0
  8  9  1  0
  7  2  1  0
  8  2  1  0
  1 10  1  0
  1 11  1  0
  1 12  1  0
  3 13  1  0
  3 14  1  0
  5 15  1  0
  5 16  1  0
  6 17  1  0
  8 18  1  0
  9 19  1  0
M  END
