
     RDKit          3D

 21 23  0  0  0  0  0  0  0  0999 V2000
   -0.6748    1.5299   -0.7982 C   0  0  0  0  0  0  0  0  0  0  0  0
   -0.5030    0.2481   -0.1813 C   0  0  0  0  0  0  0  0  0  0  0  0
   -0.5305   -1.0122   -1.0663 C   0  0  0  0  0  0  0  0  0  0  0  0
   -0.8073   -1.6655    0.2979 C   0  0  0  0  0  0  0  0  0  0  0  0
   -1.6794   -0.4183    0.5269 C   0  0  0  0  0  0  0  0  0  0  0  0
    0.3121   -1.4215    1.0591 O   0  0  0  0  0  0  0  0  0  0  0  0
    0.6274   -0.1081    0.6853 C   0  0  0  0  0  0  0  0  0  0  0  0
    2.0073    0.0315    0.0116 C   0  0  0  0  0  0  0  0  0  0  0  0
    1.6232    0.7097    1.2778 C   0  0  0  0  0  0  0  0  0  0  0  0
   -0.2471    1.5383   -1.8398 H   0  0  0  0  0  0  0  0  0  0  0  0
   -1.7673    1.8175   -0.8283 H   0  0  0  0  0  0  0  0  0  0  0  0
   -0.1728    2.3309   -0.2265 H   0  0  0  0  0  0  0  0  0  0  0  0
    0.4534   -1.3212   -1.4300 H   0  0  0  0  0  0  0  0  0  0  0  0
   -1.3733   -1.0759   -1.7440 H   0  0  0  0  0  0  0  0  0  0  0  0
   -1.2906   -2.6064    0.3019 H   0  0  0  0  0  0  0  0  0  0  0  0
   -1.8137   -0.1432    1.5722 H   0  0  0  0  0  0  0  0  0  0  0  0
   -2.5622   -0.3960   -0.1325 H   0  0  0  0  0  0  0  0  0  0  0  0
    2.0632    0.6495   -0.9062 H   0  0  0  0  0  0  0  0  0  0  0  0
    2.6613   -0.8509   -0.0097 H   0  0  0  0  0  0  0  0  0  0  0  0
    2.1621    0.3520    2.1792 H   0  0  0  0  0  0  0  0  0  0  0  0
    1.5122    1.8116    1.2505 H   0  0  0  0  0  0  0  0  0  0  0  0
  1  2  1  0
  2  3  1  0
  3  4  1  0
  4  5  1  0
  4  6  1  0
  6  7  1  0
  7  8  1  0
  8  9  1  0
  5  2  1  0
  9  7  1  0
  7  2  1  0
  1 10  1  0
  1 11  1  0
  1 12  1  0
  3 13  1  0
  3 14  1  0
  4 15  1  0
  5 16  1  0
  5 17  1  0
  8 18  1  0
  8 19  1  0
  9 20  1  0
  9 21  1  0
M  END
