
     RDKit          3D

 19 20  0  0  0  0  0  0  0  0999 V2000
   -2.1291    0.0002   -0.6894 C   0  0  0  0  0  0  0  0  0  0  0  0
   -0.7528   -0.0183   -0.1176 C   0  0  0  0  0  0  0  0  0  0  0  0
    0.0632    1.1712   -0.5082 C   0  0  0  0  0  0  0  0  0  0  0  0
    1.3777    1.1342   -0.4559 C   0  0  0  0  0  0  0  0  0  0  0  0
    2.0594   -0.1784   -0.2806 C   0  0  0  0  0  0  0  0  0  0  0  0
    1.0432   -1.0944    0.4106 C   0  0  0  0  0  0  0  0  0  0  0  0
    0.5908   -0.5717    1.5970 O   0  0  0  0  0  0  0  0  0  0  0  0
   -0.7419   -0.1740    1.3982 C   0  0  0  0  0  0  0  0  0  0  0  0
   -0.0393   -1.1894   -0.4603 O   0  0  0  0  0  0  0  0  0  0  0  0
   -2.9016    0.4059   -0.0297 H   0  0  0  0  0  0  0  0  0  0  0  0
   -2.1317    0.6057   -1.6347 H   0  0  0  0  0  0  0  0  0  0  0  0
   -2.4473   -1.0388   -0.9751 H   0  0  0  0  0  0  0  0  0  0  0  0
   -0.4106    2.0839   -0.8408 H   0  0  0  0  0  0  0  0  0  0  0  0
    2.0157    2.0103   -0.5331 H   0  0  0  0  0  0  0  0  0  0  0  0
    3.0023   -0.1182    0.2613 H   0  0  0  0  0  0  0  0  0  0  0  0
    2.2367   -0.6206   -1.2831 H   0  0  0  0  0  0  0  0  0  0  0  0
    1.5331   -2.0901    0.5667 H   0  0  0  0  0  0  0  0  0  0  0  0
   -1.3615   -1.0551    1.6520 H   0  0  0  0  0  0  0  0  0  0  0  0
   -1.0065    0.7376    1.9226 H   0  0  0  0  0  0  0  0  0  0  0  0
  1  2  1  0
  2  3  1  0
  3  4  2  0
  4  5  1  0
  5  6  1  0
  6  7  1  0
  7  8  1  0
  6  9  1  0
  8  2  1  0
  9  2  1  0
  1 10  1  0
  1 11  1  0
  1 12  1  0
  3 13  1  0
  4 14  1  0
  5 15  1  0
  5 16  1  0
  6 17  1  0
  8 18  1  0
  8 19  1  0
M  END
