
     RDKit          3D

 17 18  0  0  0  0  0  0  0  0999 V2000
   -0.2296    1.6640    0.6462 C   0  0  0  0  0  0  0  0  0  0  0  0
    0.2504    0.2760    0.2986 C   0  0  0  0  0  0  0  0  0  0  0  0
    1.4962   -0.0419    0.7948 O   0  0  0  0  0  0  0  0  0  0  0  0
    2.0284   -0.9689   -0.0875 C   0  0  0  0  0  0  0  0  0  0  0  0
    1.4013   -0.8151   -1.3001 O   0  0  0  0  0  0  0  0  0  0  0  0
    0.1830   -0.2101   -1.0795 C   0  0  0  0  0  0  0  0  0  0  0  0
   -0.7222   -0.7901   -0.0537 C   0  0  0  0  0  0  0  0  0  0  0  0
   -2.1376   -0.4219    0.0228 C   0  0  0  0  0  0  0  0  0  0  0  0
   -2.5746    0.6802   -0.2624 O   0  0  0  0  0  0  0  0  0  0  0  0
   -1.1258    1.5970    1.3257 H   0  0  0  0  0  0  0  0  0  0  0  0
   -0.5014    2.1578   -0.3237 H   0  0  0  0  0  0  0  0  0  0  0  0
    0.5750    2.2620    1.1073 H   0  0  0  0  0  0  0  0  0  0  0  0
    3.1237   -0.7834   -0.1276 H   0  0  0  0  0  0  0  0  0  0  0  0
    1.8637   -1.9818    0.3545 H   0  0  0  0  0  0  0  0  0  0  0  0
   -0.2899    0.3581   -1.9024 H   0  0  0  0  0  0  0  0  0  0  0  0
   -0.4717   -1.8307    0.2372 H   0  0  0  0  0  0  0  0  0  0  0  0
   -2.8690   -1.1513    0.3497 H   0  0  0  0  0  0  0  0  0  0  0  0
  1  2  1  0
  2  3  1  0
  3  4  1  0
  4  5  1  0
  5  6  1  0
  6  7  1  0
  7  8  1  0
  8  9  2  0
  6  2  1  0
  7  2  1  0
  1 10  1  0
  1 11  1  0
  1 12  1  0
  4 13  1  0
  4 14  1  0
  6 15  1  0
  7 16  1  0
  8 17  1  0
M  END
