
     RDKit          3D

 17 18  0  0  0  0  0  0  0  0999 V2000
    1.7170   -0.6846   -0.9374 C   0  0  0  0  0  0  0  0  0  0  0  0
    0.8179   -0.4773    0.2411 C   0  0  0  0  0  0  0  0  0  0  0  0
    0.1553   -1.5185    0.8278 O   0  0  0  0  0  0  0  0  0  0  0  0
   -0.5400   -0.4299    0.3356 C   0  0  0  0  0  0  0  0  0  0  0  0
   -1.6307   -0.7134   -0.6309 C   0  0  0  0  0  0  0  0  0  0  0  0
   -0.4571    0.9025    1.0545 C   0  0  0  0  0  0  0  0  0  0  0  0
   -0.7886    1.9236    0.1350 O   0  0  0  0  0  0  0  0  0  0  0  0
    1.0046    0.7119    1.0982 C   0  0  0  0  0  0  0  0  0  0  0  0
    1.9580    1.2399    1.5844 O   0  0  0  0  0  0  0  0  0  0  0  0
    1.2552   -1.2029   -1.7802 H   0  0  0  0  0  0  0  0  0  0  0  0
    1.9979    0.3362   -1.3118 H   0  0  0  0  0  0  0  0  0  0  0  0
    2.6344   -1.1819   -0.5932 H   0  0  0  0  0  0  0  0  0  0  0  0
   -2.4818   -1.2212   -0.1013 H   0  0  0  0  0  0  0  0  0  0  0  0
   -1.2674   -1.4478   -1.3857 H   0  0  0  0  0  0  0  0  0  0  0  0
   -2.0467    0.1899   -1.1120 H   0  0  0  0  0  0  0  0  0  0  0  0
   -0.9852    0.9695    2.0082 H   0  0  0  0  0  0  0  0  0  0  0  0
   -1.3428    2.6042    0.5678 H   0  0  0  0  0  0  0  0  0  0  0  0
  1  2  1  0
  2  3  1  0
  3  4  1  0
  4  5  1  0
  4  6  1  0
  6  7  1  0
  6  8  1  0
  8  9  2  0
  4  2  1  0
  8  2  1  0
  1 10  1  0
  1 11  1  0
  1 12  1  0
  5 13  1  0
  5 14  1  0
  5 15  1  0
  6 16  1  0
  7 17  1  0
M  END
