
     RDKit          3D

 19 20  0  0  0  0  0  0  0  0999 V2000
    0.4978    1.7031    0.3599 C   0  0  0  0  0  0  0  0  0  0  0  0
    0.1680    0.3871    0.1842 C   0  0  0  0  0  0  0  0  0  0  0  0
    1.0446   -0.7539   -0.2092 C   0  0  0  0  0  0  0  0  0  0  0  0
    1.5736   -0.7358   -1.4759 O   0  0  0  0  0  0  0  0  0  0  0  0
   -0.3119   -1.3836   -0.0541 C   0  0  0  0  0  0  0  0  0  0  0  0
   -0.8626   -0.1816   -0.7568 C   0  0  0  0  0  0  0  0  0  0  0  0
   -0.5790   -0.0581   -2.0984 O   0  0  0  0  0  0  0  0  0  0  0  0
   -0.4320   -0.5496    1.2000 C   0  0  0  0  0  0  0  0  0  0  0  0
   -1.7282   -0.2529    1.5905 O   0  0  0  0  0  0  0  0  0  0  0  0
    1.3740    2.0382   -0.2329 H   0  0  0  0  0  0  0  0  0  0  0  0
   -0.3317    2.4083    0.0671 H   0  0  0  0  0  0  0  0  0  0  0  0
    0.7329    1.9826    1.4171 H   0  0  0  0  0  0  0  0  0  0  0  0
    1.7224   -1.1079    0.5974 H   0  0  0  0  0  0  0  0  0  0  0  0
    2.4259   -1.2663   -1.4591 H   0  0  0  0  0  0  0  0  0  0  0  0
   -0.5618   -2.3416   -0.1658 H   0  0  0  0  0  0  0  0  0  0  0  0
   -1.9220   -0.0241   -0.4645 H   0  0  0  0  0  0  0  0  0  0  0  0
   -1.3982    0.2834   -2.5419 H   0  0  0  0  0  0  0  0  0  0  0  0
    0.2802   -0.7810    2.0049 H   0  0  0  0  0  0  0  0  0  0  0  0
   -1.6920    0.6339    2.0374 H   0  0  0  0  0  0  0  0  0  0  0  0
  1  2  1  0
  2  3  1  0
  3  4  1  0
  3  5  1  0
  5  6  1  0
  6  7  1  0
  5  8  1  0
  8  9  1  0
  6  2  1  0
  8  2  1  0
  1 10  1  0
  1 11  1  0
  1 12  1  0
  3 13  1  0
  4 14  1  0
  5 15  1  0
  6 16  1  0
  7 17  1  0
  8 18  1  0
  9 19  1  0
M  END
