
     RDKit          3D

 18 19  0  0  0  0  0  0  0  0999 V2000
   -1.0374   -1.5494    0.2729 C   0  0  0  0  0  0  0  0  0  0  0  0
   -0.6300   -0.2489   -0.3236 C   0  0  0  0  0  0  0  0  0  0  0  0
    0.2544   -0.2113   -1.5084 C   0  0  0  0  0  0  0  0  0  0  0  0
    0.6132    0.4374   -0.1488 C   0  0  0  0  0  0  0  0  0  0  0  0
    1.8202   -0.0384    0.5586 C   0  0  0  0  0  0  0  0  0  0  0  0
    0.3207    1.8013   -0.0506 O   0  0  0  0  0  0  0  0  0  0  0  0
   -0.9917    1.7571    0.3961 C   0  0  0  0  0  0  0  0  0  0  0  0
   -1.6273    0.7327   -0.3041 O   0  0  0  0  0  0  0  0  0  0  0  0
   -1.9749   -1.8754   -0.2684 H   0  0  0  0  0  0  0  0  0  0  0  0
   -1.3327   -1.4909    1.3422 H   0  0  0  0  0  0  0  0  0  0  0  0
   -0.3295   -2.3658    0.1696 H   0  0  0  0  0  0  0  0  0  0  0  0
    0.1366    0.5093   -2.3269 H   0  0  0  0  0  0  0  0  0  0  0  0
    0.7512   -1.1679   -1.7472 H   0  0  0  0  0  0  0  0  0  0  0  0
    1.6110   -0.6819    1.4404 H   0  0  0  0  0  0  0  0  0  0  0  0
    2.5350   -0.6012   -0.0967 H   0  0  0  0  0  0  0  0  0  0  0  0
    2.4188    0.8348    0.9358 H   0  0  0  0  0  0  0  0  0  0  0  0
   -1.0124    1.4675    1.4718 H   0  0  0  0  0  0  0  0  0  0  0  0
   -1.5252    2.6909    0.1874 H   0  0  0  0  0  0  0  0  0  0  0  0
  1  2  1  0
  2  3  1  0
  3  4  1  0
  4  5  1  0
  4  6  1  0
  6  7  1  0
  7  8  1  0
  4  2  1  0
  8  2  1  0
  1  9  1  0
  1 10  1  0
  1 11  1  0
  3 12  1  0
  3 13  1  0
  5 14  1  0
  5 15  1  0
  5 16  1  0
  7 17  1  0
  7 18  1  0
M  END
