
     RDKit          3D

 21 23  0  0  0  0  0  0  0  0999 V2000
    2.2852    0.5709   -0.0478 C   0  0  0  0  0  0  0  0  0  0  0  0
    0.8166    0.2350    0.2524 C   0  0  0  0  0  0  0  0  0  0  0  0
    0.5668   -0.7860    1.3319 C   0  0  0  0  0  0  0  0  0  0  0  0
    0.3810   -1.0888   -0.1273 C   0  0  0  0  0  0  0  0  0  0  0  0
   -0.9845   -1.2327   -0.7064 C   0  0  0  0  0  0  0  0  0  0  0  0
   -1.9376   -0.1946   -0.1833 C   0  0  0  0  0  0  0  0  0  0  0  0
   -1.4151    1.1996   -0.3606 C   0  0  0  0  0  0  0  0  0  0  0  0
   -0.5110    1.4867   -1.3559 O   0  0  0  0  0  0  0  0  0  0  0  0
   -0.1019    1.3720    0.0632 C   0  0  0  0  0  0  0  0  0  0  0  0
    2.4641    1.6721    0.0567 H   0  0  0  0  0  0  0  0  0  0  0  0
    2.9627    0.0430    0.6252 H   0  0  0  0  0  0  0  0  0  0  0  0
    2.4444    0.2265   -1.0981 H   0  0  0  0  0  0  0  0  0  0  0  0
   -0.3402   -0.7281    1.9381 H   0  0  0  0  0  0  0  0  0  0  0  0
    1.4521   -1.1414    1.8499 H   0  0  0  0  0  0  0  0  0  0  0  0
    1.1214   -1.8323   -0.5207 H   0  0  0  0  0  0  0  0  0  0  0  0
   -0.8986   -1.2339   -1.8070 H   0  0  0  0  0  0  0  0  0  0  0  0
   -1.4245   -2.2343   -0.4293 H   0  0  0  0  0  0  0  0  0  0  0  0
   -2.8924   -0.2871   -0.7385 H   0  0  0  0  0  0  0  0  0  0  0  0
   -2.0627   -0.3743    0.9043 H   0  0  0  0  0  0  0  0  0  0  0  0
   -2.1838    1.9840   -0.1276 H   0  0  0  0  0  0  0  0  0  0  0  0
    0.2580    2.3438    0.4808 H   0  0  0  0  0  0  0  0  0  0  0  0
  1  2  1  0
  2  3  1  0
  3  4  1  0
  4  5  1  0
  5  6  1  0
  6  7  1  0
  7  8  1  0
  8  9  1  0
  4  2  1  0
  9  7  1  0
  9  2  1  0
  1 10  1  0
  1 11  1  0
  1 12  1  0
  3 13  1  0
  3 14  1  0
  4 15  1  0
  5 16  1  0
  5 17  1  0
  6 18  1  0
  6 19  1  0
  7 20  1  0
  9 21  1  0
M  END
