
     RDKit          3D

 19 20  0  0  0  0  0  0  0  0999 V2000
   -0.7888    1.8165    0.3493 C   0  0  0  0  0  0  0  0  0  0  0  0
   -0.6318    0.3943    0.2291 C   0  0  0  0  0  0  0  0  0  0  0  0
   -1.7206   -0.4288   -0.3980 C   0  0  0  0  0  0  0  0  0  0  0  0
   -1.2355   -1.6536   -0.2327 C   0  0  0  0  0  0  0  0  0  0  0  0
    0.0588   -1.3572    0.4654 C   0  0  0  0  0  0  0  0  0  0  0  0
   -0.3813   -0.3794    1.3866 O   0  0  0  0  0  0  0  0  0  0  0  0
    0.6284   -0.2103   -0.3200 C   0  0  0  0  0  0  0  0  0  0  0  0
    1.8984    0.3008    0.2655 C   0  0  0  0  0  0  0  0  0  0  0  0
    0.6583   -0.3700   -1.6946 O   0  0  0  0  0  0  0  0  0  0  0  0
   -0.2613    2.4469   -0.4096 H   0  0  0  0  0  0  0  0  0  0  0  0
   -0.4653    2.1715    1.3697 H   0  0  0  0  0  0  0  0  0  0  0  0
   -1.8795    2.1005    0.2975 H   0  0  0  0  0  0  0  0  0  0  0  0
   -2.6189   -0.0298   -0.8382 H   0  0  0  0  0  0  0  0  0  0  0  0
   -1.5902   -2.6382   -0.4892 H   0  0  0  0  0  0  0  0  0  0  0  0
    0.6626   -2.1458    0.8055 H   0  0  0  0  0  0  0  0  0  0  0  0
    2.0400   -0.0687    1.2804 H   0  0  0  0  0  0  0  0  0  0  0  0
    1.9335    1.4258    0.2469 H   0  0  0  0  0  0  0  0  0  0  0  0
    2.7468   -0.0933   -0.3447 H   0  0  0  0  0  0  0  0  0  0  0  0
    0.9464   -1.2813   -1.9689 H   0  0  0  0  0  0  0  0  0  0  0  0
  1  2  1  0
  2  3  1  0
  3  4  2  0
  4  5  1  0
  5  6  1  0
  5  7  1  0
  7  8  1  0
  7  9  1  0
  6  2  1  0
  7  2  1  0
  1 10  1  0
  1 11  1  0
  1 12  1  0
  3 13  1  0
  4 14  1  0
  5 15  1  0
  8 16  1  0
  8 17  1  0
  8 18  1  0
  9 19  1  0
M  END
