
     RDKit          3D

 17 19  0  0  0  0  0  0  0  0999 V2000
   -2.0192    0.5338   -0.2638 C   0  0  0  0  0  0  0  0  0  0  0  0
   -0.6796   -0.0165   -0.1790 C   0  0  0  0  0  0  0  0  0  0  0  0
    0.0443   -0.2036   -1.3792 O   0  0  0  0  0  0  0  0  0  0  0  0
    0.7717   -1.1633   -0.6582 C   0  0  0  0  0  0  0  0  0  0  0  0
   -0.4949   -1.4692    0.0535 C   0  0  0  0  0  0  0  0  0  0  0  0
   -1.0395   -2.4160    0.5427 O   0  0  0  0  0  0  0  0  0  0  0  0
    1.5343   -0.3208    0.3323 C   0  0  0  0  0  0  0  0  0  0  0  0
    1.5303    1.1813    0.1191 C   0  0  0  0  0  0  0  0  0  0  0  0
    0.3313    0.6049    0.7462 C   0  0  0  0  0  0  0  0  0  0  0  0
   -2.3764    0.5067   -1.3283 H   0  0  0  0  0  0  0  0  0  0  0  0
   -2.0745    1.5860    0.0494 H   0  0  0  0  0  0  0  0  0  0  0  0
   -2.7163   -0.0295    0.3941 H   0  0  0  0  0  0  0  0  0  0  0  0
    1.2718   -1.9332   -1.1943 H   0  0  0  0  0  0  0  0  0  0  0  0
    2.0653   -0.7643    1.1707 H   0  0  0  0  0  0  0  0  0  0  0  0
    1.4352    1.5384   -0.9285 H   0  0  0  0  0  0  0  0  0  0  0  0
    2.3037    1.7051    0.7134 H   0  0  0  0  0  0  0  0  0  0  0  0
    0.1124    0.6601    1.8097 H   0  0  0  0  0  0  0  0  0  0  0  0
  1  2  1  0
  2  3  1  0
  3  4  1  0
  4  5  1  0
  5  6  2  0
  4  7  1  0
  7  8  1  0
  8  9  1  0
  5  2  1  0
  9  7  1  0
  9  2  1  0
  1 10  1  0
  1 11  1  0
  1 12  1  0
  4 13  1  0
  7 14  1  0
  8 15  1  0
  8 16  1  0
  9 17  1  0
M  END
