
     RDKit          3D

 21 23  0  0  0  0  0  0  0  0999 V2000
    2.4389   -0.0161   -0.2822 C   0  0  0  0  0  0  0  0  0  0  0  0
    0.9729   -0.3392   -0.1511 C   0  0  0  0  0  0  0  0  0  0  0  0
    0.7150   -1.7403    0.2705 O   0  0  0  0  0  0  0  0  0  0  0  0
    0.4794   -0.7168    1.1411 C   0  0  0  0  0  0  0  0  0  0  0  0
   -0.8793   -0.1837    1.4196 C   0  0  0  0  0  0  0  0  0  0  0  0
   -1.6511    0.2073    0.2011 C   0  0  0  0  0  0  0  0  0  0  0  0
   -0.8663    1.3387   -0.4777 C   0  0  0  0  0  0  0  0  0  0  0  0
   -0.0259    0.2305   -1.0914 C   0  0  0  0  0  0  0  0  0  0  0  0
   -1.2979   -0.6292   -1.0178 C   0  0  0  0  0  0  0  0  0  0  0  0
    3.0368   -0.8008    0.2628 H   0  0  0  0  0  0  0  0  0  0  0  0
    2.6903    0.9372    0.2497 H   0  0  0  0  0  0  0  0  0  0  0  0
    2.7460   -0.0286   -1.3275 H   0  0  0  0  0  0  0  0  0  0  0  0
    1.1624   -0.7001    2.0375 H   0  0  0  0  0  0  0  0  0  0  0  0
   -0.7442    0.7576    2.0307 H   0  0  0  0  0  0  0  0  0  0  0  0
   -1.4388   -0.8711    2.0942 H   0  0  0  0  0  0  0  0  0  0  0  0
   -2.7006    0.4031    0.3697 H   0  0  0  0  0  0  0  0  0  0  0  0
   -1.5185    1.7955   -1.2431 H   0  0  0  0  0  0  0  0  0  0  0  0
   -0.3636    1.9940    0.2255 H   0  0  0  0  0  0  0  0  0  0  0  0
    0.2970    0.4820   -2.0979 H   0  0  0  0  0  0  0  0  0  0  0  0
   -1.9704   -0.4362   -1.8512 H   0  0  0  0  0  0  0  0  0  0  0  0
   -1.0822   -1.6836   -0.7624 H   0  0  0  0  0  0  0  0  0  0  0  0
  1  2  1  0
  2  3  1  0
  3  4  1  0
  4  5  1  0
  5  6  1  0
  6  7  1  0
  7  8  1  0
  8  9  1  0
  4  2  1  0
  9  6  1  0
  8  2  1  0
  1 10  1  0
  1 11  1  0
  1 12  1  0
  4 13  1  0
  5 14  1  0
  5 15  1  0
  6 16  1  0
  7 17  1  0
  7 18  1  0
  8 19  1  0
  9 20  1  0
  9 21  1  0
M  END
