
     RDKit          3D

 19 21  0  0  0  0  0  0  0  0999 V2000
    1.5187   -0.8384    0.8131 C   0  0  0  0  0  0  0  0  0  0  0  0
    0.5787    0.0867    0.2384 C   0  0  0  0  0  0  0  0  0  0  0  0
    1.0091    1.4234   -0.2364 C   0  0  0  0  0  0  0  0  0  0  0  0
   -0.1287    1.9656   -0.6753 C   0  0  0  0  0  0  0  0  0  0  0  0
   -1.1240    0.9007   -0.4636 C   0  0  0  0  0  0  0  0  0  0  0  0
   -0.7459    0.3566    0.8788 C   0  0  0  0  0  0  0  0  0  0  0  0
   -1.1659   -0.9925    0.3609 C   0  0  0  0  0  0  0  0  0  0  0  0
   -0.4171   -0.3722   -0.7973 C   0  0  0  0  0  0  0  0  0  0  0  0
   -0.1826   -0.8806   -1.9163 O   0  0  0  0  0  0  0  0  0  0  0  0
    1.4272   -1.8512    0.3258 H   0  0  0  0  0  0  0  0  0  0  0  0
    1.2735   -1.0351    1.8939 H   0  0  0  0  0  0  0  0  0  0  0  0
    2.5928   -0.5665    0.7766 H   0  0  0  0  0  0  0  0  0  0  0  0
    2.0071    1.8420   -0.2230 H   0  0  0  0  0  0  0  0  0  0  0  0
   -0.3404    2.9396   -1.0949 H   0  0  0  0  0  0  0  0  0  0  0  0
   -2.1418    1.0452   -0.7223 H   0  0  0  0  0  0  0  0  0  0  0  0
   -0.9316    0.7472    1.7796 H   0  0  0  0  0  0  0  0  0  0  0  0
   -0.6901   -1.8509    0.8387 H   0  0  0  0  0  0  0  0  0  0  0  0
   -2.2547   -1.0381    0.1927 H   0  0  0  0  0  0  0  0  0  0  0  0
   -0.2843   -1.8815   -1.9692 H   0  0  0  0  0  0  0  0  0  0  0  0
  1  2  1  0
  2  3  1  0
  3  4  2  0
  4  5  1  0
  5  6  1  0
  6  7  1  0
  7  8  1  0
  8  9  1  0
  6  2  1  0
  8  2  1  0
  8  5  1  0
  1 10  1  0
  1 11  1  0
  1 12  1  0
  3 13  1  0
  4 14  1  0
  5 15  1  0
  6 16  1  0
  7 17  1  0
  7 18  1  0
  9 19  1  0
M  END
