
     RDKit          3D

 19 21  0  0  0  0  0  0  0  0999 V2000
    2.1064    0.5429   -0.4053 C   0  0  0  0  0  0  0  0  0  0  0  0
    1.0753   -0.0898    0.4785 C   0  0  0  0  0  0  0  0  0  0  0  0
    1.0986   -1.5318    0.6286 C   0  0  0  0  0  0  0  0  0  0  0  0
   -0.0360   -0.9359   -0.2441 C   0  0  0  0  0  0  0  0  0  0  0  0
   -1.2377   -0.4008    0.4182 C   0  0  0  0  0  0  0  0  0  0  0  0
   -2.0432    0.7369    0.2308 C   0  0  0  0  0  0  0  0  0  0  0  0
   -2.6598    0.8643   -1.0395 O   0  0  0  0  0  0  0  0  0  0  0  0
   -0.6989    1.0889    0.4138 C   0  0  0  0  0  0  0  0  0  0  0  0
    0.3032    0.7674    1.2930 O   0  0  0  0  0  0  0  0  0  0  0  0
    1.8339    1.5194   -0.8073 H   0  0  0  0  0  0  0  0  0  0  0  0
    3.0203    0.7033    0.2314 H   0  0  0  0  0  0  0  0  0  0  0  0
    2.3966   -0.1407   -1.2156 H   0  0  0  0  0  0  0  0  0  0  0  0
    0.7122   -1.9347    1.6074 H   0  0  0  0  0  0  0  0  0  0  0  0
    1.8717   -2.0861    0.1114 H   0  0  0  0  0  0  0  0  0  0  0  0
    0.0654   -1.0504   -1.3193 H   0  0  0  0  0  0  0  0  0  0  0  0
   -1.3405   -0.8646    1.4511 H   0  0  0  0  0  0  0  0  0  0  0  0
   -2.7886    1.0432    1.0063 H   0  0  0  0  0  0  0  0  0  0  0  0
   -3.4886    0.3520   -1.0833 H   0  0  0  0  0  0  0  0  0  0  0  0
   -0.1903    1.4164   -0.5490 H   0  0  0  0  0  0  0  0  0  0  0  0
  1  2  1  0
  2  3  1  0
  3  4  1  0
  4  5  1  0
  5  6  1  0
  6  7  1  0
  6  8  1  0
  8  9  1  0
  4  2  1  0
  8  5  1  0
  9  2  1  0
  1 10  1  0
  1 11  1  0
  1 12  1  0
  3 13  1  0
  3 14  1  0
  4 15  1  0
  5 16  1  0
  6 17  1  0
  7 18  1  0
  8 19  1  0
M  END
