
     RDKit          3D

 17 20  0  0  0  0  0  0  0  0999 V2000
    1.6377   -0.9123   -0.6410 C   0  0  0  0  0  0  0  0  0  0  0  0
    0.3651   -0.4153   -0.2775 C   0  0  0  0  0  0  0  0  0  0  0  0
   -0.9908   -0.7896   -0.7587 C   0  0  0  0  0  0  0  0  0  0  0  0
   -1.3959    0.5653   -0.5883 C   0  0  0  0  0  0  0  0  0  0  0  0
   -1.5253   -0.4873    0.5359 C   0  0  0  0  0  0  0  0  0  0  0  0
   -0.2087   -0.0597    1.0136 C   0  0  0  0  0  0  0  0  0  0  0  0
    0.3140   -0.1594    2.2216 O   0  0  0  0  0  0  0  0  0  0  0  0
   -0.1082    0.9374   -0.0036 C   0  0  0  0  0  0  0  0  0  0  0  0
    0.5534    2.0781   -0.0673 O   0  0  0  0  0  0  0  0  0  0  0  0
    2.3671   -0.0841   -0.8833 H   0  0  0  0  0  0  0  0  0  0  0  0
    1.6641   -1.5803   -1.5255 H   0  0  0  0  0  0  0  0  0  0  0  0
    2.1582   -1.4864    0.1795 H   0  0  0  0  0  0  0  0  0  0  0  0
   -1.2277   -1.5356   -1.4669 H   0  0  0  0  0  0  0  0  0  0  0  0
   -2.2078    1.1435   -0.9004 H   0  0  0  0  0  0  0  0  0  0  0  0
   -2.4200   -0.6669    1.0329 H   0  0  0  0  0  0  0  0  0  0  0  0
    0.9685    0.5727    2.4124 H   0  0  0  0  0  0  0  0  0  0  0  0
    0.0564    2.8801   -0.2832 H   0  0  0  0  0  0  0  0  0  0  0  0
  1  2  1  0
  2  3  1  0
  3  4  1  0
  4  5  1  0
  5  6  1  0
  6  7  1  0
  6  8  1  0
  8  9  1  0
  6  2  1  0
  8  2  1  0
  5  3  1  0
  8  4  1  0
  1 10  1  0
  1 11  1  0
  1 12  1  0
  3 13  1  0
  4 14  1  0
  5 15  1  0
  7 16  1  0
  9 17  1  0
M  END
