
     RDKit          3D

 17 18  0  0  0  0  0  0  0  0999 V2000
   -1.6428   -0.8085   -0.2879 C   0  0  0  0  0  0  0  0  0  0  0  0
   -0.4053   -0.0932    0.1982 C   0  0  0  0  0  0  0  0  0  0  0  0
    0.6921   -0.9858    0.7154 C   0  0  0  0  0  0  0  0  0  0  0  0
    1.7738   -0.7879   -0.2667 C   0  0  0  0  0  0  0  0  0  0  0  0
    2.7449   -1.5614   -0.4086 O   0  0  0  0  0  0  0  0  0  0  0  0
    1.5637    0.3621   -1.0005 O   0  0  0  0  0  0  0  0  0  0  0  0
    0.2359    0.8357   -0.7869 C   0  0  0  0  0  0  0  0  0  0  0  0
    0.0786    1.8301    0.3173 C   0  0  0  0  0  0  0  0  0  0  0  0
   -0.6735    0.9199    1.0923 O   0  0  0  0  0  0  0  0  0  0  0  0
   -1.8496   -0.5767   -1.3711 H   0  0  0  0  0  0  0  0  0  0  0  0
   -2.5149   -0.4794    0.3258 H   0  0  0  0  0  0  0  0  0  0  0  0
   -1.4729   -1.8950   -0.1693 H   0  0  0  0  0  0  0  0  0  0  0  0
    1.0815   -0.6745    1.7046 H   0  0  0  0  0  0  0  0  0  0  0  0
    0.3099   -2.0110    0.7682 H   0  0  0  0  0  0  0  0  0  0  0  0
   -0.3202    1.0430   -1.7071 H   0  0  0  0  0  0  0  0  0  0  0  0
    0.9970    2.1940    0.8047 H   0  0  0  0  0  0  0  0  0  0  0  0
   -0.5982    2.6885    0.0715 H   0  0  0  0  0  0  0  0  0  0  0  0
  1  2  1  0
  2  3  1  0
  3  4  1  0
  4  5  2  0
  4  6  1  0
  6  7  1  0
  7  8  1  0
  8  9  1  0
  7  2  1  0
  9  2  1  0
  1 10  1  0
  1 11  1  0
  1 12  1  0
  3 13  1  0
  3 14  1  0
  7 15  1  0
  8 16  1  0
  8 17  1  0
M  END
