
     RDKit          3D

 21 22  0  0  0  0  0  0  0  0999 V2000
   -1.7045   -1.1330    0.6375 C   0  0  0  0  0  0  0  0  0  0  0  0
   -0.8559   -0.1547   -0.1341 C   0  0  0  0  0  0  0  0  0  0  0  0
   -1.3996    1.1991   -0.3445 C   0  0  0  0  0  0  0  0  0  0  0  0
   -0.2928    1.0545    0.6394 C   0  0  0  0  0  0  0  0  0  0  0  0
    1.1287    1.1842    0.1477 C   0  0  0  0  0  0  0  0  0  0  0  0
    1.9653    1.7921    1.0453 O   0  0  0  0  0  0  0  0  0  0  0  0
    1.4863   -0.2916   -0.0787 C   0  0  0  0  0  0  0  0  0  0  0  0
    0.2791   -0.7081   -0.9263 C   0  0  0  0  0  0  0  0  0  0  0  0
    0.1924   -2.0732   -1.0691 O   0  0  0  0  0  0  0  0  0  0  0  0
   -2.6267   -1.3046    0.0234 H   0  0  0  0  0  0  0  0  0  0  0  0
   -1.9717   -0.6922    1.6143 H   0  0  0  0  0  0  0  0  0  0  0  0
   -1.2110   -2.1223    0.7316 H   0  0  0  0  0  0  0  0  0  0  0  0
   -2.3893    1.4106    0.0953 H   0  0  0  0  0  0  0  0  0  0  0  0
   -1.2105    1.7092   -1.3035 H   0  0  0  0  0  0  0  0  0  0  0  0
   -0.5033    1.0549    1.7254 H   0  0  0  0  0  0  0  0  0  0  0  0
    1.0901    1.6449   -0.8479 H   0  0  0  0  0  0  0  0  0  0  0  0
    2.7833    1.2958    1.2269 H   0  0  0  0  0  0  0  0  0  0  0  0
    2.4307   -0.4145   -0.6049 H   0  0  0  0  0  0  0  0  0  0  0  0
    1.4129   -0.8148    0.8897 H   0  0  0  0  0  0  0  0  0  0  0  0
    0.4194   -0.2176   -1.9182 H   0  0  0  0  0  0  0  0  0  0  0  0
    0.9768   -2.4187   -1.5495 H   0  0  0  0  0  0  0  0  0  0  0  0
  1  2  1  0
  2  3  1  0
  3  4  1  0
  4  5  1  0
  5  6  1  0
  5  7  1  0
  7  8  1  0
  8  9  1  0
  4  2  1  0
  8  2  1  0
  1 10  1  0
  1 11  1  0
  1 12  1  0
  3 13  1  0
  3 14  1  0
  4 15  1  0
  5 16  1  0
  6 17  1  0
  7 18  1  0
  7 19  1  0
  8 20  1  0
  9 21  1  0
M  END
