
     RDKit          3D

 19 20  0  0  0  0  0  0  0  0999 V2000
   -2.0172   -0.0352    0.1739 C   0  0  0  0  0  0  0  0  0  0  0  0
   -0.5786    0.1222    0.1019 C   0  0  0  0  0  0  0  0  0  0  0  0
   -0.0620    1.4894   -0.2792 C   0  0  0  0  0  0  0  0  0  0  0  0
    1.2809    1.2480   -0.5922 O   0  0  0  0  0  0  0  0  0  0  0  0
    1.4899   -0.1075   -0.6474 C   0  0  0  0  0  0  0  0  0  0  0  0
    1.5374   -0.7022    0.7709 C   0  0  0  0  0  0  0  0  0  0  0  0
    0.2112   -0.2991    1.2775 C   0  0  0  0  0  0  0  0  0  0  0  0
   -0.1734   -0.3025    2.4055 O   0  0  0  0  0  0  0  0  0  0  0  0
    0.1027   -0.6655   -1.0328 C   0  0  0  0  0  0  0  0  0  0  0  0
   -2.2798   -0.8855    0.8469 H   0  0  0  0  0  0  0  0  0  0  0  0
   -2.4858    0.8605    0.6263 H   0  0  0  0  0  0  0  0  0  0  0  0
   -2.4411   -0.2546   -0.8248 H   0  0  0  0  0  0  0  0  0  0  0  0
   -0.1195    2.2239    0.5383 H   0  0  0  0  0  0  0  0  0  0  0  0
   -0.5491    1.8829   -1.1912 H   0  0  0  0  0  0  0  0  0  0  0  0
    2.2752   -0.4527   -1.2914 H   0  0  0  0  0  0  0  0  0  0  0  0
    2.3823   -0.2979    1.3386 H   0  0  0  0  0  0  0  0  0  0  0  0
    1.5365   -1.8071    0.6795 H   0  0  0  0  0  0  0  0  0  0  0  0
   -0.1489   -0.2792   -2.0131 H   0  0  0  0  0  0  0  0  0  0  0  0
    0.0395   -1.7378   -0.8873 H   0  0  0  0  0  0  0  0  0  0  0  0
  1  2  1  0
  2  3  1  0
  3  4  1  0
  4  5  1  0
  5  6  1  0
  6  7  1  0
  7  8  2  0
  5  9  1  0
  7  2  1  0
  9  2  1  0
  1 10  1  0
  1 11  1  0
  1 12  1  0
  3 13  1  0
  3 14  1  0
  5 15  1  0
  6 16  1  0
  6 17  1  0
  9 18  1  0
  9 19  1  0
M  END
