
     RDKit          3D

 18 19  0  0  0  0  0  0  0  0999 V2000
   -1.5774    0.0876   -0.6875 C   0  0  0  0  0  0  0  0  0  0  0  0
   -0.8871   -0.0840    0.6662 C   0  0  0  0  0  0  0  0  0  0  0  0
   -1.2355   -1.2074    1.2291 O   0  0  0  0  0  0  0  0  0  0  0  0
   -0.0108   -1.3687    0.8155 C   0  0  0  0  0  0  0  0  0  0  0  0
    0.7151   -1.1513   -0.4485 C   0  0  0  0  0  0  0  0  0  0  0  0
    1.2257    0.2776   -0.2171 C   0  0  0  0  0  0  0  0  0  0  0  0
    0.2530    0.8479    0.8324 C   0  0  0  0  0  0  0  0  0  0  0  0
   -0.1284    2.1093    0.3643 O   0  0  0  0  0  0  0  0  0  0  0  0
   -1.8095   -0.8691   -1.1763 H   0  0  0  0  0  0  0  0  0  0  0  0
   -1.1039    0.8279   -1.3341 H   0  0  0  0  0  0  0  0  0  0  0  0
   -2.5867    0.5252   -0.4164 H   0  0  0  0  0  0  0  0  0  0  0  0
    0.7277   -1.3330    1.6798 H   0  0  0  0  0  0  0  0  0  0  0  0
    1.6243   -1.8112   -0.4757 H   0  0  0  0  0  0  0  0  0  0  0  0
    0.1791   -1.2697   -1.3731 H   0  0  0  0  0  0  0  0  0  0  0  0
    1.2100    0.8626   -1.1343 H   0  0  0  0  0  0  0  0  0  0  0  0
    2.2436    0.2445    0.2174 H   0  0  0  0  0  0  0  0  0  0  0  0
    0.7029    0.8804    1.8238 H   0  0  0  0  0  0  0  0  0  0  0  0
    0.4579    2.4314   -0.3655 H   0  0  0  0  0  0  0  0  0  0  0  0
  1  2  1  0
  2  3  1  0
  3  4  1  0
  4  5  1  0
  5  6  1  0
  6  7  1  0
  7  8  1  0
  4  2  1  0
  7  2  1  0
  1  9  1  0
  1 10  1  0
  1 11  1  0
  4 12  1  0
  5 13  1  0
  5 14  1  0
  6 15  1  0
  6 16  1  0
  7 17  1  0
  8 18  1  0
M  END
