
     RDKit          3D

 19 21  0  0  0  0  0  0  0  0999 V2000
   -0.7383    1.8688   -0.4388 C   0  0  0  0  0  0  0  0  0  0  0  0
   -0.5062    0.5116    0.0643 C   0  0  0  0  0  0  0  0  0  0  0  0
   -1.5944   -0.2803    0.3523 O   0  0  0  0  0  0  0  0  0  0  0  0
   -1.2204   -1.6185    0.2687 C   0  0  0  0  0  0  0  0  0  0  0  0
    0.2818   -1.5705    0.1694 C   0  0  0  0  0  0  0  0  0  0  0  0
    0.7174   -0.9684    1.3763 O   0  0  0  0  0  0  0  0  0  0  0  0
    0.6679    0.3646    1.0437 C   0  0  0  0  0  0  0  0  0  0  0  0
    1.5524    0.3589   -0.2101 C   0  0  0  0  0  0  0  0  0  0  0  0
    0.4093   -0.3888   -0.7738 C   0  0  0  0  0  0  0  0  0  0  0  0
   -0.8872    1.9052   -1.5349 H   0  0  0  0  0  0  0  0  0  0  0  0
    0.0695    2.5614   -0.1354 H   0  0  0  0  0  0  0  0  0  0  0  0
   -1.6736    2.2673    0.0117 H   0  0  0  0  0  0  0  0  0  0  0  0
   -1.6578   -2.1241   -0.6185 H   0  0  0  0  0  0  0  0  0  0  0  0
   -1.4763   -2.1507    1.1945 H   0  0  0  0  0  0  0  0  0  0  0  0
    0.7871   -2.4588   -0.1075 H   0  0  0  0  0  0  0  0  0  0  0  0
    0.8193    1.1269    1.7545 H   0  0  0  0  0  0  0  0  0  0  0  0
    2.4402   -0.2556   -0.0136 H   0  0  0  0  0  0  0  0  0  0  0  0
    1.7891    1.3469   -0.6083 H   0  0  0  0  0  0  0  0  0  0  0  0
    0.2203   -0.4961   -1.7945 H   0  0  0  0  0  0  0  0  0  0  0  0
  1  2  1  0
  2  3  1  0
  3  4  1  0
  4  5  1  0
  5  6  1  0
  6  7  1  0
  7  8  1  0
  8  9  1  0
  7  2  1  0
  9  2  1  0
  9  5  1  0
  1 10  1  0
  1 11  1  0
  1 12  1  0
  4 13  1  0
  4 14  1  0
  5 15  1  0
  7 16  1  0
  8 17  1  0
  8 18  1  0
  9 19  1  0
M  END
