
     RDKit          2D

 21 23  0  0  0  0  0  0  0  0999 V2000
    1.6612    2.0787    0.0000 C   0  0  0  0  0  0  0  0  0  0  0  0
    1.4266    0.5971    0.0000 C   0  0  0  0  0  0  0  0  0  0  0  0
    2.9266    0.5971    0.0000 C   0  0  0  0  0  0  0  0  0  0  0  0
    2.9266   -0.9029    0.0000 C   0  0  0  0  0  0  0  0  0  0  0  0
    1.4266   -0.9029    0.0000 C   0  0  0  0  0  0  0  0  0  0  0  0
   -0.0000   -1.0607    0.0000 C   0  0  0  0  0  0  0  0  0  0  0  0
    1.0607    0.0000    0.0000 C   0  0  0  0  0  0  0  0  0  0  0  0
    0.0000    1.0607    0.0000 C   0  0  0  0  0  0  0  0  0  0  0  0
   -1.0607    0.0000    0.0000 O   0  0  0  0  0  0  0  0  0  0  0  0
    1.8959    3.5602    0.0000 H   0  0  0  0  0  0  0  0  0  0  0  0
    0.2194    2.4922    0.0000 H   0  0  0  0  0  0  0  0  0  0  0  0
    2.4579    2.0509    0.0000 H   0  0  0  0  0  0  0  0  0  0  0  0
    4.4266    0.5971    0.0000 H   0  0  0  0  0  0  0  0  0  0  0  0
    3.0238    1.3884    0.0000 H   0  0  0  0  0  0  0  0  0  0  0  0
    2.9266   -2.4029    0.0000 H   0  0  0  0  0  0  0  0  0  0  0  0
    4.4266   -0.9029    0.0000 H   0  0  0  0  0  0  0  0  0  0  0  0
    1.6612   -2.3844    0.0000 H   0  0  0  0  0  0  0  0  0  0  0  0
   -0.0000   -2.5607    0.0000 H   0  0  0  0  0  0  0  0  0  0  0  0
    2.1213    1.0607    0.0000 H   0  0  0  0  0  0  0  0  0  0  0  0
    2.3465   -0.7725    0.0000 H   0  0  0  0  0  0  0  0  0  0  0  0
   -0.1828    2.5495    0.0000 H   0  0  0  0  0  0  0  0  0  0  0  0
  1  2  1  0
  2  3  1  0
  3  4  1  0
  4  5  1  0
  5  6  1  0
  6  7  1  0
  7  8  1  0
  8  9  1  0
  5  2  1  0
  9  6  1  0
  8  2  1  0
  1 10  1  0
  1 11  1  0
  1 12  1  0
  3 13  1  0
  3 14  1  0
  4 15  1  0
  4 16  1  0
  5 17  1  0
  6 18  1  0
  7 19  1  0
  7 20  1  0
  8 21  1  0
M  END
