
     RDKit          3D

 21 23  0  0  0  0  0  0  0  0999 V2000
    2.0596   -0.2514    0.4603 C   0  0  0  0  0  0  0  0  0  0  0  0
    0.6186   -0.1146    0.0386 C   0  0  0  0  0  0  0  0  0  0  0  0
   -0.0617   -1.3701   -0.4075 C   0  0  0  0  0  0  0  0  0  0  0  0
   -1.5442   -1.3765   -0.1719 C   0  0  0  0  0  0  0  0  0  0  0  0
   -2.1430   -0.1524   -0.2604 O   0  0  0  0  0  0  0  0  0  0  0  0
   -1.6134    0.8334    0.5216 C   0  0  0  0  0  0  0  0  0  0  0  0
   -0.5434    1.6704   -0.1804 C   0  0  0  0  0  0  0  0  0  0  0  0
    0.4902    0.9766   -0.9996 C   0  0  0  0  0  0  0  0  0  0  0  0
   -0.2320    0.6764    0.9620 C   0  0  0  0  0  0  0  0  0  0  0  0
    2.3087    0.6546    1.0639 H   0  0  0  0  0  0  0  0  0  0  0  0
    2.2573   -1.1684    1.0381 H   0  0  0  0  0  0  0  0  0  0  0  0
    2.6765   -0.1701   -0.4627 H   0  0  0  0  0  0  0  0  0  0  0  0
    0.2141   -1.5823   -1.4688 H   0  0  0  0  0  0  0  0  0  0  0  0
    0.3631   -2.2259    0.1774 H   0  0  0  0  0  0  0  0  0  0  0  0
   -1.9817   -2.0095   -1.0017 H   0  0  0  0  0  0  0  0  0  0  0  0
   -1.8228   -1.9408    0.7617 H   0  0  0  0  0  0  0  0  0  0  0  0
   -2.2934    1.4620    1.1301 H   0  0  0  0  0  0  0  0  0  0  0  0
   -0.4640    2.7341    0.0268 H   0  0  0  0  0  0  0  0  0  0  0  0
    0.1861    0.5868   -1.9834 H   0  0  0  0  0  0  0  0  0  0  0  0
    1.3893    1.6204   -1.1132 H   0  0  0  0  0  0  0  0  0  0  0  0
    0.1362    1.1472    1.8693 H   0  0  0  0  0  0  0  0  0  0  0  0
  1  2  1  0
  2  3  1  0
  3  4  1  0
  4  5  1  0
  5  6  1  0
  6  7  1  0
  7  8  1  0
  7  9  1  0
  8  2  1  0
  9  2  1  0
  9  6  1  0
  1 10  1  0
  1 11  1  0
  1 12  1  0
  3 13  1  0
  3 14  1  0
  4 15  1  0
  4 16  1  0
  6 17  1  0
  7 18  1  0
  8 19  1  0
  8 20  1  0
  9 21  1  0
M  END
