
     RDKit          3D

 19 21  0  0  0  0  0  0  0  0999 V2000
    2.1343    0.2207   -0.1135 C   0  0  0  0  0  0  0  0  0  0  0  0
    0.7142   -0.2300    0.0582 C   0  0  0  0  0  0  0  0  0  0  0  0
    0.0913   -0.9328   -1.1193 C   0  0  0  0  0  0  0  0  0  0  0  0
   -1.1912   -0.1746   -0.8988 C   0  0  0  0  0  0  0  0  0  0  0  0
   -1.5217    0.1881    0.5400 C   0  0  0  0  0  0  0  0  0  0  0  0
   -0.8917   -0.8096    1.5222 C   0  0  0  0  0  0  0  0  0  0  0  0
    0.4563   -0.8042    1.2937 O   0  0  0  0  0  0  0  0  0  0  0  0
   -0.3478    0.8076   -0.0525 C   0  0  0  0  0  0  0  0  0  0  0  0
   -0.2067    2.0278   -0.5680 O   0  0  0  0  0  0  0  0  0  0  0  0
    2.4994    0.5331    0.8968 H   0  0  0  0  0  0  0  0  0  0  0  0
    2.2274    1.0673   -0.8312 H   0  0  0  0  0  0  0  0  0  0  0  0
    2.7638   -0.6446   -0.4071 H   0  0  0  0  0  0  0  0  0  0  0  0
    0.5904   -0.6139   -2.0620 H   0  0  0  0  0  0  0  0  0  0  0  0
   -0.0597   -2.0056   -1.0376 H   0  0  0  0  0  0  0  0  0  0  0  0
   -1.7686    0.2344   -1.7236 H   0  0  0  0  0  0  0  0  0  0  0  0
   -2.4614    0.6642    0.7798 H   0  0  0  0  0  0  0  0  0  0  0  0
   -1.3140   -1.8000    1.2551 H   0  0  0  0  0  0  0  0  0  0  0  0
   -1.1135   -0.5193    2.5722 H   0  0  0  0  0  0  0  0  0  0  0  0
   -0.6005    2.7917   -0.1045 H   0  0  0  0  0  0  0  0  0  0  0  0
  1  2  1  0
  2  3  1  0
  3  4  1  0
  4  5  1  0
  5  6  1  0
  6  7  1  0
  5  8  1  0
  8  9  1  0
  7  2  1  0
  8  2  1  0
  8  4  1  0
  1 10  1  0
  1 11  1  0
  1 12  1  0
  3 13  1  0
  3 14  1  0
  4 15  1  0
  5 16  1  0
  6 17  1  0
  6 18  1  0
  9 19  1  0
M  END
