
     RDKit          3D

 21 23  0  0  0  0  0  0  0  0999 V2000
   -1.3298   -1.4154   -0.1205 C   0  0  0  0  0  0  0  0  0  0  0  0
   -0.5456   -0.1590   -0.0124 C   0  0  0  0  0  0  0  0  0  0  0  0
   -1.2741    1.1701    0.2006 C   0  0  0  0  0  0  0  0  0  0  0  0
   -2.6309    1.0088    0.3611 O   0  0  0  0  0  0  0  0  0  0  0  0
   -0.5799    0.8946   -1.0689 C   0  0  0  0  0  0  0  0  0  0  0  0
    0.9399    0.9515   -0.9999 C   0  0  0  0  0  0  0  0  0  0  0  0
    0.9117   -0.0928    0.0363 C   0  0  0  0  0  0  0  0  0  0  0  0
    1.6574   -0.0645    1.2912 C   0  0  0  0  0  0  0  0  0  0  0  0
    1.8598   -1.1526    0.2359 C   0  0  0  0  0  0  0  0  0  0  0  0
   -0.8273   -2.2360    0.4288 H   0  0  0  0  0  0  0  0  0  0  0  0
   -1.5795   -1.6623   -1.1633 H   0  0  0  0  0  0  0  0  0  0  0  0
   -2.3074   -1.2515    0.4083 H   0  0  0  0  0  0  0  0  0  0  0  0
   -0.7613    1.7952    0.9676 H   0  0  0  0  0  0  0  0  0  0  0  0
   -3.0676    1.8582    0.1781 H   0  0  0  0  0  0  0  0  0  0  0  0
   -1.0779    0.7547   -2.0262 H   0  0  0  0  0  0  0  0  0  0  0  0
    1.3763    0.7036   -1.9885 H   0  0  0  0  0  0  0  0  0  0  0  0
    1.3248    1.9284   -0.6213 H   0  0  0  0  0  0  0  0  0  0  0  0
    2.4304    0.7116    1.4013 H   0  0  0  0  0  0  0  0  0  0  0  0
    1.0924   -0.4029    2.2033 H   0  0  0  0  0  0  0  0  0  0  0  0
    2.8492   -1.1463   -0.2367 H   0  0  0  0  0  0  0  0  0  0  0  0
    1.5395   -2.1934    0.5254 H   0  0  0  0  0  0  0  0  0  0  0  0
  1  2  1  0
  2  3  1  0
  3  4  1  0
  3  5  1  0
  5  6  1  0
  6  7  1  0
  7  8  1  0
  8  9  1  0
  5  2  1  0
  9  7  1  0
  7  2  1  0
  1 10  1  0
  1 11  1  0
  1 12  1  0
  3 13  1  0
  4 14  1  0
  5 15  1  0
  6 16  1  0
  6 17  1  0
  8 18  1  0
  8 19  1  0
  9 20  1  0
  9 21  1  0
M  END
