
     RDKit          3D

 19 21  0  0  0  0  0  0  0  0999 V2000
    2.4333    0.2137    0.7268 C   0  0  0  0  0  0  0  0  0  0  0  0
    0.9697    0.1521    0.4792 C   0  0  0  0  0  0  0  0  0  0  0  0
    0.1532    1.2159    0.7908 O   0  0  0  0  0  0  0  0  0  0  0  0
   -0.5450    1.0971   -0.4173 C   0  0  0  0  0  0  0  0  0  0  0  0
   -1.7223    0.1449   -0.1881 C   0  0  0  0  0  0  0  0  0  0  0  0
   -2.2895    0.5050    1.0512 O   0  0  0  0  0  0  0  0  0  0  0  0
   -1.1313   -1.2367   -0.0978 C   0  0  0  0  0  0  0  0  0  0  0  0
    0.3552   -1.0512   -0.1555 C   0  0  0  0  0  0  0  0  0  0  0  0
    0.5129    0.1962   -0.9119 C   0  0  0  0  0  0  0  0  0  0  0  0
    2.8409   -0.6115    1.3104 H   0  0  0  0  0  0  0  0  0  0  0  0
    2.6511    1.2203    1.1902 H   0  0  0  0  0  0  0  0  0  0  0  0
    3.0110    0.2366   -0.2442 H   0  0  0  0  0  0  0  0  0  0  0  0
   -0.7743    2.0131   -0.9428 H   0  0  0  0  0  0  0  0  0  0  0  0
   -2.4213    0.2554   -1.0155 H   0  0  0  0  0  0  0  0  0  0  0  0
   -3.2123    0.8102    0.9321 H   0  0  0  0  0  0  0  0  0  0  0  0
   -1.4233   -1.7842   -1.0390 H   0  0  0  0  0  0  0  0  0  0  0  0
   -1.4908   -1.8199    0.7477 H   0  0  0  0  0  0  0  0  0  0  0  0
    0.9667   -1.9029   -0.4330 H   0  0  0  0  0  0  0  0  0  0  0  0
    1.1160    0.3459   -1.7831 H   0  0  0  0  0  0  0  0  0  0  0  0
  1  2  1  0
  2  3  1  0
  3  4  1  0
  4  5  1  0
  5  6  1  0
  5  7  1  0
  7  8  1  0
  8  9  1  0
  8  2  1  0
  9  2  1  0
  9  4  1  0
  1 10  1  0
  1 11  1  0
  1 12  1  0
  4 13  1  0
  5 14  1  0
  6 15  1  0
  7 16  1  0
  7 17  1  0
  8 18  1  0
  9 19  1  0
M  END
