
     RDKit          3D

 19 20  0  0  0  0  0  0  0  0999 V2000
   -1.8759   -0.7945   -0.1967 C   0  0  0  0  0  0  0  0  0  0  0  0
   -0.9146    0.2791    0.2105 C   0  0  0  0  0  0  0  0  0  0  0  0
   -0.8021    0.6247    1.5611 O   0  0  0  0  0  0  0  0  0  0  0  0
    0.5564    0.2988    1.6168 C   0  0  0  0  0  0  0  0  0  0  0  0
    0.5396    0.1154    0.1364 C   0  0  0  0  0  0  0  0  0  0  0  0
    1.1962   -1.0909   -0.4645 C   0  0  0  0  0  0  0  0  0  0  0  0
    2.5776   -0.9192   -0.3710 O   0  0  0  0  0  0  0  0  0  0  0  0
   -0.1540    1.0858   -0.7376 C   0  0  0  0  0  0  0  0  0  0  0  0
   -0.0800    2.4587   -0.4878 O   0  0  0  0  0  0  0  0  0  0  0  0
   -1.6563   -1.7686    0.2677 H   0  0  0  0  0  0  0  0  0  0  0  0
   -2.9072   -0.4217    0.0479 H   0  0  0  0  0  0  0  0  0  0  0  0
   -1.8401   -0.8830   -1.2952 H   0  0  0  0  0  0  0  0  0  0  0  0
    1.2106    1.1358    1.9643 H   0  0  0  0  0  0  0  0  0  0  0  0
    0.6851   -0.6118    2.2200 H   0  0  0  0  0  0  0  0  0  0  0  0
    0.9637   -1.9799    0.1913 H   0  0  0  0  0  0  0  0  0  0  0  0
    0.8665   -1.3276   -1.4738 H   0  0  0  0  0  0  0  0  0  0  0  0
    2.7500    0.0529   -0.4332 H   0  0  0  0  0  0  0  0  0  0  0  0
   -0.2547    0.8473   -1.8041 H   0  0  0  0  0  0  0  0  0  0  0  0
   -0.8609    2.8987   -0.9519 H   0  0  0  0  0  0  0  0  0  0  0  0
  1  2  1  0
  2  3  1  0
  3  4  1  0
  4  5  1  0
  5  6  1  0
  6  7  1  0
  5  8  1  0
  8  9  1  0
  5  2  1  0
  8  2  1  0
  1 10  1  0
  1 11  1  0
  1 12  1  0
  4 13  1  0
  4 14  1  0
  6 15  1  0
  6 16  1  0
  7 17  1  0
  8 18  1  0
  9 19  1  0
M  END
