
     RDKit          3D

 21 23  0  0  0  0  0  0  0  0999 V2000
    2.0652    0.0726    0.3422 C   0  0  0  0  0  0  0  0  0  0  0  0
    0.6213    0.0574    0.1793 C   0  0  0  0  0  0  0  0  0  0  0  0
    0.0191   -0.3769   -1.1124 C   0  0  0  0  0  0  0  0  0  0  0  0
   -0.8243   -1.5471   -0.7084 C   0  0  0  0  0  0  0  0  0  0  0  0
   -0.7676   -1.6856    0.6514 O   0  0  0  0  0  0  0  0  0  0  0  0
   -0.2450   -0.5644    1.2168 C   0  0  0  0  0  0  0  0  0  0  0  0
   -1.1147    0.6726    1.2149 C   0  0  0  0  0  0  0  0  0  0  0  0
   -0.1942    1.2646    0.1837 C   0  0  0  0  0  0  0  0  0  0  0  0
   -0.6875    0.9520   -1.1995 C   0  0  0  0  0  0  0  0  0  0  0  0
    2.5825    1.0374    0.2306 H   0  0  0  0  0  0  0  0  0  0  0  0
    2.5354   -0.6228   -0.4148 H   0  0  0  0  0  0  0  0  0  0  0  0
    2.3401   -0.3859    1.3309 H   0  0  0  0  0  0  0  0  0  0  0  0
    0.6836   -0.5068   -1.9739 H   0  0  0  0  0  0  0  0  0  0  0  0
   -1.8320   -1.5144   -1.1240 H   0  0  0  0  0  0  0  0  0  0  0  0
   -0.3300   -2.4623   -1.1506 H   0  0  0  0  0  0  0  0  0  0  0  0
    0.3091   -0.7011    2.1631 H   0  0  0  0  0  0  0  0  0  0  0  0
   -1.2094    1.2079    2.1583 H   0  0  0  0  0  0  0  0  0  0  0  0
   -2.1327    0.3761    0.8244 H   0  0  0  0  0  0  0  0  0  0  0  0
    0.2288    2.2358    0.3724 H   0  0  0  0  0  0  0  0  0  0  0  0
   -0.2608    1.6644   -1.9408 H   0  0  0  0  0  0  0  0  0  0  0  0
   -1.7869    0.8265   -1.2437 H   0  0  0  0  0  0  0  0  0  0  0  0
  1  2  1  0
  2  3  1  0
  3  4  1  0
  4  5  1  0
  5  6  1  0
  6  7  1  0
  7  8  1  0
  8  9  1  0
  6  2  1  0
  8  2  1  0
  9  3  1  0
  1 10  1  0
  1 11  1  0
  1 12  1  0
  3 13  1  0
  4 14  1  0
  4 15  1  0
  6 16  1  0
  7 17  1  0
  7 18  1  0
  8 19  1  0
  9 20  1  0
  9 21  1  0
M  END
