
     RDKit          3D

 21 23  0  0  0  0  0  0  0  0999 V2000
   -1.8127   -0.9836    1.0084 C   0  0  0  0  0  0  0  0  0  0  0  0
   -0.8558   -0.3276    0.0944 C   0  0  0  0  0  0  0  0  0  0  0  0
   -1.4111    0.6743   -0.8851 C   0  0  0  0  0  0  0  0  0  0  0  0
   -0.1723    1.2978   -1.4643 C   0  0  0  0  0  0  0  0  0  0  0  0
    0.9515    1.0497   -0.4572 C   0  0  0  0  0  0  0  0  0  0  0  0
    0.2669    0.4519    0.6847 C   0  0  0  0  0  0  0  0  0  0  0  0
    1.1243   -0.3855   -0.1450 C   0  0  0  0  0  0  0  0  0  0  0  0
    2.3489   -0.9367    0.4936 C   0  0  0  0  0  0  0  0  0  0  0  0
    0.0596   -1.2187   -0.4521 O   0  0  0  0  0  0  0  0  0  0  0  0
   -1.2693   -1.6338    1.7014 H   0  0  0  0  0  0  0  0  0  0  0  0
   -2.4550   -0.2824    1.5672 H   0  0  0  0  0  0  0  0  0  0  0  0
   -2.5078   -1.6093    0.3945 H   0  0  0  0  0  0  0  0  0  0  0  0
   -2.0844    0.2383   -1.6212 H   0  0  0  0  0  0  0  0  0  0  0  0
   -1.9594    1.4396   -0.2723 H   0  0  0  0  0  0  0  0  0  0  0  0
    0.0899    0.7026   -2.3757 H   0  0  0  0  0  0  0  0  0  0  0  0
   -0.2742    2.3562   -1.7189 H   0  0  0  0  0  0  0  0  0  0  0  0
    1.7255    1.7939   -0.3125 H   0  0  0  0  0  0  0  0  0  0  0  0
    0.3780    0.6881    1.7178 H   0  0  0  0  0  0  0  0  0  0  0  0
    2.0195   -1.4965    1.4172 H   0  0  0  0  0  0  0  0  0  0  0  0
    3.0163   -0.1413    0.8166 H   0  0  0  0  0  0  0  0  0  0  0  0
    2.8217   -1.6769   -0.1915 H   0  0  0  0  0  0  0  0  0  0  0  0
  1  2  1  0
  2  3  1  0
  3  4  1  0
  4  5  1  0
  5  6  1  0
  6  7  1  0
  7  8  1  0
  7  9  1  0
  6  2  1  0
  9  2  1  0
  7  5  1  0
  1 10  1  0
  1 11  1  0
  1 12  1  0
  3 13  1  0
  3 14  1  0
  4 15  1  0
  4 16  1  0
  5 17  1  0
  6 18  1  0
  8 19  1  0
  8 20  1  0
  8 21  1  0
M  END
