
     RDKit          3D

 21 23  0  0  0  0  0  0  0  0999 V2000
    1.7840    0.6376    0.6961 C   0  0  0  0  0  0  0  0  0  0  0  0
    0.7669   -0.2802    0.1273 C   0  0  0  0  0  0  0  0  0  0  0  0
    1.1066   -1.4770   -0.6714 C   0  0  0  0  0  0  0  0  0  0  0  0
    0.7189   -0.2789   -1.4247 C   0  0  0  0  0  0  0  0  0  0  0  0
   -0.6135    0.3717   -1.3183 C   0  0  0  0  0  0  0  0  0  0  0  0
   -0.6654    0.0798    0.1170 C   0  0  0  0  0  0  0  0  0  0  0  0
   -1.6549   -0.8960    0.6383 C   0  0  0  0  0  0  0  0  0  0  0  0
   -1.8601   -0.0373    1.7326 O   0  0  0  0  0  0  0  0  0  0  0  0
   -1.2196    1.0373    1.0695 C   0  0  0  0  0  0  0  0  0  0  0  0
    1.4031    1.0809    1.6542 H   0  0  0  0  0  0  0  0  0  0  0  0
    2.7424    0.1721    0.9263 H   0  0  0  0  0  0  0  0  0  0  0  0
    1.9568    1.5297    0.0284 H   0  0  0  0  0  0  0  0  0  0  0  0
    2.1319   -1.8252   -0.7689 H   0  0  0  0  0  0  0  0  0  0  0  0
    0.3318   -2.2969   -0.6493 H   0  0  0  0  0  0  0  0  0  0  0  0
    1.5047    0.2691   -1.9530 H   0  0  0  0  0  0  0  0  0  0  0  0
   -1.4195   -0.0182   -1.9746 H   0  0  0  0  0  0  0  0  0  0  0  0
   -0.5399    1.4818   -1.5040 H   0  0  0  0  0  0  0  0  0  0  0  0
   -2.6191   -0.9566    0.0556 H   0  0  0  0  0  0  0  0  0  0  0  0
   -1.2515   -1.8916    0.9029 H   0  0  0  0  0  0  0  0  0  0  0  0
   -0.5679    1.6370    1.7050 H   0  0  0  0  0  0  0  0  0  0  0  0
   -2.0357    1.6609    0.6111 H   0  0  0  0  0  0  0  0  0  0  0  0
  1  2  1  0
  2  3  1  0
  3  4  1  0
  4  5  1  0
  5  6  1  0
  6  7  1  0
  7  8  1  0
  8  9  1  0
  4  2  1  0
  9  6  1  0
  6  2  1  0
  1 10  1  0
  1 11  1  0
  1 12  1  0
  3 13  1  0
  3 14  1  0
  4 15  1  0
  5 16  1  0
  5 17  1  0
  7 18  1  0
  7 19  1  0
  9 20  1  0
  9 21  1  0
M  END
