
     RDKit          3D

 19 21  0  0  0  0  0  0  0  0999 V2000
    2.3141    0.5333    0.2207 C   0  0  0  0  0  0  0  0  0  0  0  0
    0.9666   -0.0046    0.1025 C   0  0  0  0  0  0  0  0  0  0  0  0
    0.7307   -1.4693    0.1074 C   0  0  0  0  0  0  0  0  0  0  0  0
   -0.5886   -0.9730    0.6290 C   0  0  0  0  0  0  0  0  0  0  0  0
    0.1543    0.0530    1.2592 O   0  0  0  0  0  0  0  0  0  0  0  0
   -1.2317   -0.1866   -0.4992 C   0  0  0  0  0  0  0  0  0  0  0  0
   -2.3852    0.6909   -0.1538 C   0  0  0  0  0  0  0  0  0  0  0  0
   -0.6934   -0.2207   -1.7573 O   0  0  0  0  0  0  0  0  0  0  0  0
    0.0312    0.5951   -0.9216 C   0  0  0  0  0  0  0  0  0  0  0  0
    2.2562    1.6371    0.3968 H   0  0  0  0  0  0  0  0  0  0  0  0
    2.8444    0.0574    1.0510 H   0  0  0  0  0  0  0  0  0  0  0  0
    2.8797    0.3834   -0.6888 H   0  0  0  0  0  0  0  0  0  0  0  0
    1.2917   -1.9725    0.8991 H   0  0  0  0  0  0  0  0  0  0  0  0
    0.7338   -1.9467   -0.8747 H   0  0  0  0  0  0  0  0  0  0  0  0
   -1.1947   -1.5957    1.2405 H   0  0  0  0  0  0  0  0  0  0  0  0
   -3.2507    0.5614   -0.8210 H   0  0  0  0  0  0  0  0  0  0  0  0
   -2.0993    1.7639   -0.0883 H   0  0  0  0  0  0  0  0  0  0  0  0
   -2.7373    0.4141    0.8701 H   0  0  0  0  0  0  0  0  0  0  0  0
   -0.0219    1.6793   -0.9716 H   0  0  0  0  0  0  0  0  0  0  0  0
  1  2  1  0
  2  3  1  0
  3  4  1  0
  4  5  1  0
  4  6  1  0
  6  7  1  0
  6  8  1  0
  8  9  1  0
  5  2  1  0
  9  6  1  0
  9  2  1  0
  1 10  1  0
  1 11  1  0
  1 12  1  0
  3 13  1  0
  3 14  1  0
  4 15  1  0
  7 16  1  0
  7 17  1  0
  7 18  1  0
  9 19  1  0
M  END
