
     RDKit          3D

 21 23  0  0  0  0  0  0  0  0999 V2000
   -2.5245   -0.1977    0.1258 C   0  0  0  0  0  0  0  0  0  0  0  0
   -1.0966    0.2206    0.0201 C   0  0  0  0  0  0  0  0  0  0  0  0
   -0.5739    0.5951   -1.3322 C   0  0  0  0  0  0  0  0  0  0  0  0
    0.6986   -0.1879   -0.9929 C   0  0  0  0  0  0  0  0  0  0  0  0
    1.6643    0.6284   -0.1773 C   0  0  0  0  0  0  0  0  0  0  0  0
    2.9142    0.0258   -0.1994 O   0  0  0  0  0  0  0  0  0  0  0  0
    1.1556    0.6290    1.2453 C   0  0  0  0  0  0  0  0  0  0  0  0
   -0.2125   -0.0391    1.1676 C   0  0  0  0  0  0  0  0  0  0  0  0
   -0.0909   -0.9240    0.0141 C   0  0  0  0  0  0  0  0  0  0  0  0
   -3.1910    0.7028    0.1088 H   0  0  0  0  0  0  0  0  0  0  0  0
   -2.7837   -0.8347   -0.7543 H   0  0  0  0  0  0  0  0  0  0  0  0
   -2.6737   -0.8086    1.0350 H   0  0  0  0  0  0  0  0  0  0  0  0
   -1.0987    0.0250   -2.1494 H   0  0  0  0  0  0  0  0  0  0  0  0
   -0.4202    1.6569   -1.5262 H   0  0  0  0  0  0  0  0  0  0  0  0
    1.1091   -0.7813   -1.8048 H   0  0  0  0  0  0  0  0  0  0  0  0
    1.7431    1.6475   -0.5870 H   0  0  0  0  0  0  0  0  0  0  0  0
    3.5463    0.6547    0.2178 H   0  0  0  0  0  0  0  0  0  0  0  0
    1.7805   -0.0701    1.8751 H   0  0  0  0  0  0  0  0  0  0  0  0
    1.1253    1.6153    1.7073 H   0  0  0  0  0  0  0  0  0  0  0  0
   -0.6642   -0.4454    2.0683 H   0  0  0  0  0  0  0  0  0  0  0  0
   -0.4072   -1.9447   -0.0618 H   0  0  0  0  0  0  0  0  0  0  0  0
  1  2  1  0
  2  3  1  0
  3  4  1  0
  4  5  1  0
  5  6  1  0
  5  7  1  0
  7  8  1  0
  8  9  1  0
  8  2  1  0
  9  2  1  0
  9  4  1  0
  1 10  1  0
  1 11  1  0
  1 12  1  0
  3 13  1  0
  3 14  1  0
  4 15  1  0
  5 16  1  0
  6 17  1  0
  7 18  1  0
  7 19  1  0
  8 20  1  0
  9 21  1  0
M  END
