
     RDKit          3D

 21 22  0  0  0  0  0  0  0  0999 V2000
    1.7821    0.1636    0.9644 C   0  0  0  0  0  0  0  0  0  0  0  0
    0.6226   -0.0916    0.0509 C   0  0  0  0  0  0  0  0  0  0  0  0
    1.0075   -0.9635   -1.0929 C   0  0  0  0  0  0  0  0  0  0  0  0
    0.0936   -1.9602   -0.7425 O   0  0  0  0  0  0  0  0  0  0  0  0
   -0.2730   -1.2340    0.3829 C   0  0  0  0  0  0  0  0  0  0  0  0
   -1.6944   -0.7388    0.2257 C   0  0  0  0  0  0  0  0  0  0  0  0
   -1.6264    0.7558    0.3259 C   0  0  0  0  0  0  0  0  0  0  0  0
   -0.2422    1.0754   -0.2053 C   0  0  0  0  0  0  0  0  0  0  0  0
   -0.3623    1.4389   -1.5372 O   0  0  0  0  0  0  0  0  0  0  0  0
    1.6457    1.1025    1.5611 H   0  0  0  0  0  0  0  0  0  0  0  0
    2.6818    0.3068    0.2953 H   0  0  0  0  0  0  0  0  0  0  0  0
    2.0258   -0.7098    1.5902 H   0  0  0  0  0  0  0  0  0  0  0  0
    2.0424   -1.4075   -0.9973 H   0  0  0  0  0  0  0  0  0  0  0  0
    0.9088   -0.5486   -2.1001 H   0  0  0  0  0  0  0  0  0  0  0  0
   -0.0178   -1.6710    1.3559 H   0  0  0  0  0  0  0  0  0  0  0  0
   -2.3249   -1.1901    1.0016 H   0  0  0  0  0  0  0  0  0  0  0  0
   -2.1173   -0.9792   -0.7797 H   0  0  0  0  0  0  0  0  0  0  0  0
   -2.3844    1.2146   -0.3315 H   0  0  0  0  0  0  0  0  0  0  0  0
   -1.8006    1.1312    1.3396 H   0  0  0  0  0  0  0  0  0  0  0  0
    0.1200    1.9459    0.4122 H   0  0  0  0  0  0  0  0  0  0  0  0
   -0.0872    2.3596   -1.7193 H   0  0  0  0  0  0  0  0  0  0  0  0
  1  2  1  0
  2  3  1  0
  3  4  1  0
  4  5  1  0
  5  6  1  0
  6  7  1  0
  7  8  1  0
  8  9  1  0
  5  2  1  0
  8  2  1  0
  1 10  1  0
  1 11  1  0
  1 12  1  0
  3 13  1  0
  3 14  1  0
  5 15  1  0
  6 16  1  0
  6 17  1  0
  7 18  1  0
  7 19  1  0
  8 20  1  0
  9 21  1  0
M  END
