
     RDKit          3D

 19 21  0  0  0  0  0  0  0  0999 V2000
    2.6423    0.3183    0.2754 C   0  0  0  0  0  0  0  0  0  0  0  0
    1.3475    0.6505   -0.4624 C   0  0  0  0  0  0  0  0  0  0  0  0
    1.4389    0.6014   -1.8160 O   0  0  0  0  0  0  0  0  0  0  0  0
    0.7068   -0.4726   -1.3130 C   0  0  0  0  0  0  0  0  0  0  0  0
   -0.6329   -0.0340   -0.8979 C   0  0  0  0  0  0  0  0  0  0  0  0
   -1.6545   -0.9086   -0.2736 C   0  0  0  0  0  0  0  0  0  0  0  0
   -2.1559    0.0485    0.8469 C   0  0  0  0  0  0  0  0  0  0  0  0
   -0.8296    0.6486    1.2241 C   0  0  0  0  0  0  0  0  0  0  0  0
    0.0861    0.5672    0.3187 C   0  0  0  0  0  0  0  0  0  0  0  0
    3.4662    0.6938   -0.3494 H   0  0  0  0  0  0  0  0  0  0  0  0
    2.6693    0.8821    1.2309 H   0  0  0  0  0  0  0  0  0  0  0  0
    2.7349   -0.7764    0.4142 H   0  0  0  0  0  0  0  0  0  0  0  0
    1.1029   -1.4693   -1.2503 H   0  0  0  0  0  0  0  0  0  0  0  0
   -1.0444    0.7998   -1.5365 H   0  0  0  0  0  0  0  0  0  0  0  0
   -2.5509   -1.0825   -0.8990 H   0  0  0  0  0  0  0  0  0  0  0  0
   -1.1911   -1.7967    0.1450 H   0  0  0  0  0  0  0  0  0  0  0  0
   -2.5726   -0.5548    1.6652 H   0  0  0  0  0  0  0  0  0  0  0  0
   -2.8680    0.7743    0.4723 H   0  0  0  0  0  0  0  0  0  0  0  0
   -0.6949    1.1105    2.2055 H   0  0  0  0  0  0  0  0  0  0  0  0
  1  2  1  0
  2  3  1  0
  3  4  1  0
  4  5  1  0
  5  6  1  0
  6  7  1  0
  7  8  1  0
  8  9  2  0
  4  2  1  0
  9  5  1  0
  9  2  1  0
  1 10  1  0
  1 11  1  0
  1 12  1  0
  4 13  1  0
  5 14  1  0
  6 15  1  0
  6 16  1  0
  7 17  1  0
  7 18  1  0
  8 19  1  0
M  END
