
     RDKit          3D

 19 21  0  0  0  0  0  0  0  0999 V2000
    2.2738    0.8284    0.2769 C   0  0  0  0  0  0  0  0  0  0  0  0
    0.7965    0.5194    0.2014 C   0  0  0  0  0  0  0  0  0  0  0  0
    0.0292    1.4636   -0.4215 O   0  0  0  0  0  0  0  0  0  0  0  0
   -0.7253    0.5583   -1.1721 C   0  0  0  0  0  0  0  0  0  0  0  0
   -1.9995    0.2337   -0.4377 C   0  0  0  0  0  0  0  0  0  0  0  0
   -1.9664   -1.0766    0.0467 O   0  0  0  0  0  0  0  0  0  0  0  0
   -1.0220   -1.1131    1.0775 C   0  0  0  0  0  0  0  0  0  0  0  0
    0.3484   -0.8388    0.5096 C   0  0  0  0  0  0  0  0  0  0  0  0
    0.3489   -0.4669   -0.8999 C   0  0  0  0  0  0  0  0  0  0  0  0
    2.4314    1.4192    1.1956 H   0  0  0  0  0  0  0  0  0  0  0  0
    2.8196   -0.1436    0.4509 H   0  0  0  0  0  0  0  0  0  0  0  0
    2.6711    1.3123   -0.6176 H   0  0  0  0  0  0  0  0  0  0  0  0
   -0.8116    0.7645   -2.2388 H   0  0  0  0  0  0  0  0  0  0  0  0
   -2.9121    0.4256   -1.0545 H   0  0  0  0  0  0  0  0  0  0  0  0
   -2.1408    0.8804    0.4746 H   0  0  0  0  0  0  0  0  0  0  0  0
   -1.3038   -0.3889    1.8776 H   0  0  0  0  0  0  0  0  0  0  0  0
   -1.0808   -2.1358    1.5082 H   0  0  0  0  0  0  0  0  0  0  0  0
    1.1195   -1.5529    0.8448 H   0  0  0  0  0  0  0  0  0  0  0  0
    1.1238   -0.6888   -1.6217 H   0  0  0  0  0  0  0  0  0  0  0  0
  1  2  1  0
  2  3  1  0
  3  4  1  0
  4  5  1  0
  5  6  1  0
  6  7  1  0
  7  8  1  0
  8  9  1  0
  8  2  1  0
  9  2  1  0
  9  4  1  0
  1 10  1  0
  1 11  1  0
  1 12  1  0
  4 13  1  0
  5 14  1  0
  5 15  1  0
  7 16  1  0
  7 17  1  0
  8 18  1  0
  9 19  1  0
M  END
