
     RDKit          3D

 19 21  0  0  0  0  0  0  0  0999 V2000
   -0.4499    1.8204   -0.7557 C   0  0  0  0  0  0  0  0  0  0  0  0
   -0.4307    0.3920   -0.4857 C   0  0  0  0  0  0  0  0  0  0  0  0
   -1.4543   -0.2255    0.4069 C   0  0  0  0  0  0  0  0  0  0  0  0
   -1.0758   -1.4096   -0.4392 C   0  0  0  0  0  0  0  0  0  0  0  0
   -0.9091   -0.4797   -1.4917 O   0  0  0  0  0  0  0  0  0  0  0  0
    0.3669   -1.7284   -0.1142 C   0  0  0  0  0  0  0  0  0  0  0  0
    1.3655   -1.2837   -0.9800 O   0  0  0  0  0  0  0  0  0  0  0  0
    0.8835   -0.2769   -0.1454 C   0  0  0  0  0  0  0  0  0  0  0  0
    1.7188    0.2171    0.9771 C   0  0  0  0  0  0  0  0  0  0  0  0
   -0.1451    2.0100   -1.8256 H   0  0  0  0  0  0  0  0  0  0  0  0
   -1.3860    2.3183   -0.5009 H   0  0  0  0  0  0  0  0  0  0  0  0
    0.3554    2.3270   -0.1557 H   0  0  0  0  0  0  0  0  0  0  0  0
   -2.4740    0.0908    0.1872 H   0  0  0  0  0  0  0  0  0  0  0  0
   -1.1884   -0.3017    1.4816 H   0  0  0  0  0  0  0  0  0  0  0  0
   -1.7666   -2.2039   -0.5853 H   0  0  0  0  0  0  0  0  0  0  0  0
    0.6106   -2.3349    0.7569 H   0  0  0  0  0  0  0  0  0  0  0  0
    2.4859   -0.5598    1.2071 H   0  0  0  0  0  0  0  0  0  0  0  0
    2.3152    1.0956    0.5925 H   0  0  0  0  0  0  0  0  0  0  0  0
    1.1781    0.5329    1.8701 H   0  0  0  0  0  0  0  0  0  0  0  0
  1  2  1  0
  2  3  1  0
  3  4  1  0
  4  5  1  0
  4  6  1  0
  6  7  1  0
  7  8  1  0
  8  9  1  0
  5  2  1  0
  8  6  1  0
  8  2  1  0
  1 10  1  0
  1 11  1  0
  1 12  1  0
  3 13  1  0
  3 14  1  0
  4 15  1  0
  6 16  1  0
  9 17  1  0
  9 18  1  0
  9 19  1  0
M  END
