
     RDKit          3D

 16 17  0  0  0  0  0  0  0  0999 V2000
    0.7257   -1.5116   -0.1171 C   0  0  0  0  0  0  0  0  0  0  0  0
    0.2206   -0.2120    0.3970 C   0  0  0  0  0  0  0  0  0  0  0  0
    1.1286    1.0123    0.3779 C   0  0  0  0  0  0  0  0  0  0  0  0
    0.1876    1.5922   -0.6159 C   0  0  0  0  0  0  0  0  0  0  0  0
    0.2611    2.5684   -1.3341 O   0  0  0  0  0  0  0  0  0  0  0  0
   -0.8168    0.5585   -0.3893 C   0  0  0  0  0  0  0  0  0  0  0  0
   -1.4513   -0.0304   -1.4619 O   0  0  0  0  0  0  0  0  0  0  0  0
   -1.1060    0.0088    0.9483 C   0  0  0  0  0  0  0  0  0  0  0  0
    0.5830   -2.3693    0.5477 H   0  0  0  0  0  0  0  0  0  0  0  0
    1.8357   -1.4083   -0.2663 H   0  0  0  0  0  0  0  0  0  0  0  0
    0.2715   -1.7038   -1.1334 H   0  0  0  0  0  0  0  0  0  0  0  0
    1.0748    1.5992    1.3356 H   0  0  0  0  0  0  0  0  0  0  0  0
    2.1313    0.7732    0.0257 H   0  0  0  0  0  0  0  0  0  0  0  0
   -2.0876   -0.6993   -1.1732 H   0  0  0  0  0  0  0  0  0  0  0  0
   -1.1685    0.6688    1.8506 H   0  0  0  0  0  0  0  0  0  0  0  0
   -1.7895   -0.8467    1.0085 H   0  0  0  0  0  0  0  0  0  0  0  0
  1  2  1  0
  2  3  1  0
  3  4  1  0
  4  5  2  0
  4  6  1  0
  6  7  1  0
  6  8  1  0
  6  2  1  0
  8  2  1  0
  1  9  1  0
  1 10  1  0
  1 11  1  0
  3 12  1  0
  3 13  1  0
  7 14  1  0
  8 15  1  0
  8 16  1  0
M  END
