
     RDKit          3D

 17 18  0  0  0  0  0  0  0  0999 V2000
    1.3420   -1.2425    0.2743 C   0  0  0  0  0  0  0  0  0  0  0  0
    0.3453   -0.2091   -0.0681 C   0  0  0  0  0  0  0  0  0  0  0  0
   -0.9192   -0.5224   -0.8054 C   0  0  0  0  0  0  0  0  0  0  0  0
   -1.6891    0.1120    0.3497 C   0  0  0  0  0  0  0  0  0  0  0  0
   -0.3903    0.5943    0.9243 C   0  0  0  0  0  0  0  0  0  0  0  0
    0.6324    1.2603    0.0925 C   0  0  0  0  0  0  0  0  0  0  0  0
    0.2594    2.0202   -1.0292 O   0  0  0  0  0  0  0  0  0  0  0  0
    1.3815   -2.0594   -0.4898 H   0  0  0  0  0  0  0  0  0  0  0  0
    2.3543   -0.7619    0.2966 H   0  0  0  0  0  0  0  0  0  0  0  0
    1.2126   -1.7359    1.2446 H   0  0  0  0  0  0  0  0  0  0  0  0
   -0.9887    0.1022   -1.7393 H   0  0  0  0  0  0  0  0  0  0  0  0
   -1.1822   -1.5754   -0.9301 H   0  0  0  0  0  0  0  0  0  0  0  0
   -2.3211    0.9615    0.0597 H   0  0  0  0  0  0  0  0  0  0  0  0
   -2.1532   -0.6225    1.0443 H   0  0  0  0  0  0  0  0  0  0  0  0
   -0.2188    0.5425    2.0034 H   0  0  0  0  0  0  0  0  0  0  0  0
    1.5858    1.4835    0.5746 H   0  0  0  0  0  0  0  0  0  0  0  0
    0.7492    1.6526   -1.8021 H   0  0  0  0  0  0  0  0  0  0  0  0
  1  2  1  0
  2  3  1  0
  3  4  1  0
  4  5  1  0
  5  6  1  0
  6  7  1  0
  5  2  1  0
  6  2  1  0
  1  8  1  0
  1  9  1  0
  1 10  1  0
  3 11  1  0
  3 12  1  0
  4 13  1  0
  4 14  1  0
  5 15  1  0
  6 16  1  0
  7 17  1  0
M  END
