
     RDKit          3D

 18 20  0  0  0  0  0  0  0  0999 V2000
   -1.8336   -0.8617   -0.0595 C   0  0  0  0  0  0  0  0  0  0  0  0
   -0.4920   -0.3002   -0.0210 C   0  0  0  0  0  0  0  0  0  0  0  0
   -0.0119    0.6831    0.9990 C   0  0  0  0  0  0  0  0  0  0  0  0
    0.1870    1.6685   -0.1608 C   0  0  0  0  0  0  0  0  0  0  0  0
    0.1629    0.4686   -1.0869 C   0  0  0  0  0  0  0  0  0  0  0  0
    0.7354   -0.8483   -0.5727 C   0  0  0  0  0  0  0  0  0  0  0  0
    1.7514   -0.6255    0.5353 C   0  0  0  0  0  0  0  0  0  0  0  0
    1.1493    0.1440    1.4852 O   0  0  0  0  0  0  0  0  0  0  0  0
   -2.1505   -1.1836    0.9552 H   0  0  0  0  0  0  0  0  0  0  0  0
   -1.9086   -1.6668   -0.7877 H   0  0  0  0  0  0  0  0  0  0  0  0
   -2.5676   -0.0529   -0.3443 H   0  0  0  0  0  0  0  0  0  0  0  0
   -0.7765    0.9585    1.7188 H   0  0  0  0  0  0  0  0  0  0  0  0
   -0.7220    2.2765   -0.2644 H   0  0  0  0  0  0  0  0  0  0  0  0
    1.1414    2.1890   -0.0942 H   0  0  0  0  0  0  0  0  0  0  0  0
   -0.2098    0.5481   -2.1043 H   0  0  0  0  0  0  0  0  0  0  0  0
    0.8422   -1.6395   -1.2921 H   0  0  0  0  0  0  0  0  0  0  0  0
    2.6554   -0.1621    0.1057 H   0  0  0  0  0  0  0  0  0  0  0  0
    2.0474   -1.5956    0.9884 H   0  0  0  0  0  0  0  0  0  0  0  0
  1  2  1  0
  2  3  1  0
  3  4  1  0
  4  5  1  0
  5  6  1  0
  6  7  1  0
  7  8  1  0
  5  2  1  0
  6  2  1  0
  8  3  1  0
  1  9  1  0
  1 10  1  0
  1 11  1  0
  3 12  1  0
  4 13  1  0
  4 14  1  0
  5 15  1  0
  6 16  1  0
  7 17  1  0
  7 18  1  0
M  END
