
     RDKit          3D

 21 22  0  0  0  0  0  0  0  0999 V2000
   -0.6640    2.0261   -0.1766 C   0  0  0  0  0  0  0  0  0  0  0  0
   -0.0921    0.7256    0.2666 C   0  0  0  0  0  0  0  0  0  0  0  0
   -1.0301    0.1378    1.2850 C   0  0  0  0  0  0  0  0  0  0  0  0
   -1.5665   -0.9776    0.8437 C   0  0  0  0  0  0  0  0  0  0  0  0
   -1.0951   -1.3301   -0.5194 C   0  0  0  0  0  0  0  0  0  0  0  0
   -0.0204   -0.3290   -0.7659 C   0  0  0  0  0  0  0  0  0  0  0  0
    1.3189   -0.9994   -0.4923 C   0  0  0  0  0  0  0  0  0  0  0  0
    2.0627    0.1229    0.1966 C   0  0  0  0  0  0  0  0  0  0  0  0
    1.1440    0.9269    0.8128 O   0  0  0  0  0  0  0  0  0  0  0  0
   -1.5652    1.9578   -0.7945 H   0  0  0  0  0  0  0  0  0  0  0  0
   -0.9652    2.6011    0.7477 H   0  0  0  0  0  0  0  0  0  0  0  0
    0.0954    2.6957   -0.6696 H   0  0  0  0  0  0  0  0  0  0  0  0
   -1.2401    0.5720    2.2564 H   0  0  0  0  0  0  0  0  0  0  0  0
   -2.2766   -1.5769    1.4119 H   0  0  0  0  0  0  0  0  0  0  0  0
   -0.7048   -2.3878   -0.4941 H   0  0  0  0  0  0  0  0  0  0  0  0
   -1.9090   -1.3293   -1.2573 H   0  0  0  0  0  0  0  0  0  0  0  0
    0.0258    0.0373   -1.8063 H   0  0  0  0  0  0  0  0  0  0  0  0
    1.2235   -1.8566    0.1970 H   0  0  0  0  0  0  0  0  0  0  0  0
    1.8037   -1.3231   -1.4273 H   0  0  0  0  0  0  0  0  0  0  0  0
    2.7495   -0.3496    0.9258 H   0  0  0  0  0  0  0  0  0  0  0  0
    2.7054    0.6562   -0.5402 H   0  0  0  0  0  0  0  0  0  0  0  0
  1  2  1  0
  2  3  1  0
  3  4  2  0
  4  5  1  0
  5  6  1  0
  6  7  1  0
  7  8  1  0
  8  9  1  0
  6  2  1  0
  9  2  1  0
  1 10  1  0
  1 11  1  0
  1 12  1  0
  3 13  1  0
  4 14  1  0
  5 15  1  0
  5 16  1  0
  6 17  1  0
  7 18  1  0
  7 19  1  0
  8 20  1  0
  8 21  1  0
M  END
