
     RDKit          3D

 18 19  0  0  0  0  0  0  0  0999 V2000
    1.8609   -0.1716    0.2910 C   0  0  0  0  0  0  0  0  0  0  0  0
    0.5460    0.0172   -0.0001 C   0  0  0  0  0  0  0  0  0  0  0  0
   -0.1040   -0.0179   -1.3749 C   0  0  0  0  0  0  0  0  0  0  0  0
   -1.2495    0.2278   -0.4384 C   0  0  0  0  0  0  0  0  0  0  0  0
   -0.3403    1.1857    0.2844 C   0  0  0  0  0  0  0  0  0  0  0  0
   -0.6903    1.3475    1.6168 O   0  0  0  0  0  0  0  0  0  0  0  0
   -0.6288   -0.8377    0.4255 C   0  0  0  0  0  0  0  0  0  0  0  0
   -0.5421   -2.0748   -0.1960 O   0  0  0  0  0  0  0  0  0  0  0  0
    2.4441    0.7609    0.5423 H   0  0  0  0  0  0  0  0  0  0  0  0
    2.0717   -0.8482    1.1726 H   0  0  0  0  0  0  0  0  0  0  0  0
    2.4740   -0.6396   -0.5363 H   0  0  0  0  0  0  0  0  0  0  0  0
   -0.0584   -0.9960   -1.8632 H   0  0  0  0  0  0  0  0  0  0  0  0
    0.0841    0.8687   -1.9940 H   0  0  0  0  0  0  0  0  0  0  0  0
   -2.2143    0.3494   -0.6578 H   0  0  0  0  0  0  0  0  0  0  0  0
   -0.0705    2.0883   -0.2620 H   0  0  0  0  0  0  0  0  0  0  0  0
   -1.3142    2.1036    1.6994 H   0  0  0  0  0  0  0  0  0  0  0  0
   -0.8783   -0.8239    1.4820 H   0  0  0  0  0  0  0  0  0  0  0  0
   -1.3902   -2.5395   -0.1912 H   0  0  0  0  0  0  0  0  0  0  0  0
  1  2  1  0
  2  3  1  0
  3  4  1  0
  4  5  1  0
  5  6  1  0
  4  7  1  0
  7  8  1  0
  5  2  1  0
  7  2  1  0
  1  9  1  0
  1 10  1  0
  1 11  1  0
  3 12  1  0
  3 13  1  0
  4 14  1  0
  5 15  1  0
  6 16  1  0
  7 17  1  0
  8 18  1  0
M  END
