
     RDKit          3D

 21 22  0  0  0  0  0  0  0  0999 V2000
   -0.9193    1.7148   -0.3597 C   0  0  0  0  0  0  0  0  0  0  0  0
   -0.2328    0.4953    0.1868 C   0  0  0  0  0  0  0  0  0  0  0  0
   -1.2392   -0.4279    0.8426 C   0  0  0  0  0  0  0  0  0  0  0  0
   -1.5034   -1.4198   -0.2696 C   0  0  0  0  0  0  0  0  0  0  0  0
   -0.3065   -1.5547   -0.9237 O   0  0  0  0  0  0  0  0  0  0  0  0
    0.3898   -0.3747   -0.8438 C   0  0  0  0  0  0  0  0  0  0  0  0
    1.7534   -0.6838   -0.2543 C   0  0  0  0  0  0  0  0  0  0  0  0
    1.9473    0.4742    0.6876 C   0  0  0  0  0  0  0  0  0  0  0  0
    0.7056    0.8673    1.1059 O   0  0  0  0  0  0  0  0  0  0  0  0
   -0.2583    2.6123   -0.2400 H   0  0  0  0  0  0  0  0  0  0  0  0
   -1.2660    1.6135   -1.3939 H   0  0  0  0  0  0  0  0  0  0  0  0
   -1.8025    1.9067    0.3159 H   0  0  0  0  0  0  0  0  0  0  0  0
   -0.7219   -0.9656    1.6524 H   0  0  0  0  0  0  0  0  0  0  0  0
   -2.1689    0.0628    1.1245 H   0  0  0  0  0  0  0  0  0  0  0  0
   -1.8127   -2.4019    0.1348 H   0  0  0  0  0  0  0  0  0  0  0  0
   -2.3064   -1.0627   -0.9613 H   0  0  0  0  0  0  0  0  0  0  0  0
    0.4682    0.0616   -1.8471 H   0  0  0  0  0  0  0  0  0  0  0  0
    1.7215   -1.6076    0.3404 H   0  0  0  0  0  0  0  0  0  0  0  0
    2.5176   -0.6811   -1.0362 H   0  0  0  0  0  0  0  0  0  0  0  0
    2.5226    1.2496    0.1536 H   0  0  0  0  0  0  0  0  0  0  0  0
    2.5117    0.1217    1.5850 H   0  0  0  0  0  0  0  0  0  0  0  0
  1  2  1  0
  2  3  1  0
  3  4  1  0
  4  5  1  0
  5  6  1  0
  6  7  1  0
  7  8  1  0
  8  9  1  0
  6  2  1  0
  9  2  1  0
  1 10  1  0
  1 11  1  0
  1 12  1  0
  3 13  1  0
  3 14  1  0
  4 15  1  0
  4 16  1  0
  6 17  1  0
  7 18  1  0
  7 19  1  0
  8 20  1  0
  8 21  1  0
M  END
