
     RDKit          3D

 21 23  0  0  0  0  0  0  0  0999 V2000
   -1.8329    0.9172    0.5597 C   0  0  0  0  0  0  0  0  0  0  0  0
   -0.9939    0.0093   -0.2737 C   0  0  0  0  0  0  0  0  0  0  0  0
   -1.5284   -1.3252   -0.5680 C   0  0  0  0  0  0  0  0  0  0  0  0
   -0.2942   -1.1708    0.2766 C   0  0  0  0  0  0  0  0  0  0  0  0
    0.9466   -0.8476   -0.5028 C   0  0  0  0  0  0  0  0  0  0  0  0
    2.1666   -0.4987    0.2550 C   0  0  0  0  0  0  0  0  0  0  0  0
    2.2855    0.9018    0.2639 O   0  0  0  0  0  0  0  0  0  0  0  0
    0.9989    1.3907    0.1961 C   0  0  0  0  0  0  0  0  0  0  0  0
    0.3130    0.5010   -0.8145 C   0  0  0  0  0  0  0  0  0  0  0  0
   -2.9041    0.5964    0.4610 H   0  0  0  0  0  0  0  0  0  0  0  0
   -1.8087    1.9313    0.0645 H   0  0  0  0  0  0  0  0  0  0  0  0
   -1.5073    1.0511    1.5891 H   0  0  0  0  0  0  0  0  0  0  0  0
   -1.4249   -1.6764   -1.6216 H   0  0  0  0  0  0  0  0  0  0  0  0
   -2.4294   -1.6341   -0.0421 H   0  0  0  0  0  0  0  0  0  0  0  0
   -0.2720   -1.4392    1.3259 H   0  0  0  0  0  0  0  0  0  0  0  0
    1.0907   -1.4991   -1.3693 H   0  0  0  0  0  0  0  0  0  0  0  0
    3.0556   -0.8525   -0.3456 H   0  0  0  0  0  0  0  0  0  0  0  0
    2.2460   -0.8907    1.2652 H   0  0  0  0  0  0  0  0  0  0  0  0
    0.9990    2.4475   -0.0661 H   0  0  0  0  0  0  0  0  0  0  0  0
    0.5455    1.2705    1.2017 H   0  0  0  0  0  0  0  0  0  0  0  0
    0.3485    0.8174   -1.8549 H   0  0  0  0  0  0  0  0  0  0  0  0
  1  2  1  0
  2  3  1  0
  3  4  1  0
  4  5  1  0
  5  6  1  0
  6  7  1  0
  7  8  1  0
  8  9  1  0
  4  2  1  0
  9  5  1  0
  9  2  1  0
  1 10  1  0
  1 11  1  0
  1 12  1  0
  3 13  1  0
  3 14  1  0
  4 15  1  0
  5 16  1  0
  6 17  1  0
  6 18  1  0
  8 19  1  0
  8 20  1  0
  9 21  1  0
M  END
