
     RDKit          3D

 21 22  0  0  0  0  0  0  0  0999 V2000
    2.3128   -0.8217    0.5499 C   0  0  0  0  0  0  0  0  0  0  0  0
    0.8718   -0.3652    0.2862 C   0  0  0  0  0  0  0  0  0  0  0  0
    0.7060    0.9656   -0.3763 C   0  0  0  0  0  0  0  0  0  0  0  0
   -0.4456    1.7694    0.1391 C   0  0  0  0  0  0  0  0  0  0  0  0
   -1.6689    1.4052   -0.3923 O   0  0  0  0  0  0  0  0  0  0  0  0
   -2.0825    0.1515    0.0059 C   0  0  0  0  0  0  0  0  0  0  0  0
   -1.2829   -0.8587   -0.8184 C   0  0  0  0  0  0  0  0  0  0  0  0
   -0.1444   -1.3423    0.0135 C   0  0  0  0  0  0  0  0  0  0  0  0
    0.0187   -0.7459    1.3211 O   0  0  0  0  0  0  0  0  0  0  0  0
    2.7710   -0.9694   -0.4271 H   0  0  0  0  0  0  0  0  0  0  0  0
    2.2686   -1.8168    1.0706 H   0  0  0  0  0  0  0  0  0  0  0  0
    2.8254   -0.0738    1.1927 H   0  0  0  0  0  0  0  0  0  0  0  0
    0.6478    0.9179   -1.4771 H   0  0  0  0  0  0  0  0  0  0  0  0
    1.6436    1.5549   -0.1569 H   0  0  0  0  0  0  0  0  0  0  0  0
   -0.4861    1.8133    1.2376 H   0  0  0  0  0  0  0  0  0  0  0  0
   -0.2684    2.8348   -0.1941 H   0  0  0  0  0  0  0  0  0  0  0  0
   -3.1579   -0.0009   -0.0668 H   0  0  0  0  0  0  0  0  0  0  0  0
   -1.8225    0.0450    1.1000 H   0  0  0  0  0  0  0  0  0  0  0  0
   -0.9099   -0.3679   -1.7644 H   0  0  0  0  0  0  0  0  0  0  0  0
   -1.9408   -1.6873   -1.1837 H   0  0  0  0  0  0  0  0  0  0  0  0
    0.1440   -2.4076   -0.0595 H   0  0  0  0  0  0  0  0  0  0  0  0
  1  2  1  0
  2  3  1  0
  3  4  1  0
  4  5  1  0
  5  6  1  0
  6  7  1  0
  7  8  1  0
  8  9  1  0
  8  2  1  0
  9  2  1  0
  1 10  1  0
  1 11  1  0
  1 12  1  0
  3 13  1  0
  3 14  1  0
  4 15  1  0
  4 16  1  0
  6 17  1  0
  6 18  1  0
  7 19  1  0
  7 20  1  0
  8 21  1  0
M  END
