
     RDKit          3D

 23 24  0  0  0  0  0  0  0  0999 V2000
   -2.3491   -0.0133   -0.5745 C   0  0  0  0  0  0  0  0  0  0  0  0
   -0.9041   -0.0109   -0.0961 C   0  0  0  0  0  0  0  0  0  0  0  0
   -0.1870    1.1860   -0.5939 C   0  0  0  0  0  0  0  0  0  0  0  0
    1.1570    1.3321    0.0473 C   0  0  0  0  0  0  0  0  0  0  0  0
    2.0011    0.1222   -0.1026 C   0  0  0  0  0  0  0  0  0  0  0  0
    1.3219   -1.1142   -0.5326 C   0  0  0  0  0  0  0  0  0  0  0  0
   -0.1265   -1.2326   -0.3391 C   0  0  0  0  0  0  0  0  0  0  0  0
   -0.5419   -1.7197    0.9116 O   0  0  0  0  0  0  0  0  0  0  0  0
   -0.7614   -0.3887    1.3316 C   0  0  0  0  0  0  0  0  0  0  0  0
   -2.6607   -0.9968   -0.9483 H   0  0  0  0  0  0  0  0  0  0  0  0
   -2.9923    0.3695    0.2410 H   0  0  0  0  0  0  0  0  0  0  0  0
   -2.4698    0.7013   -1.4257 H   0  0  0  0  0  0  0  0  0  0  0  0
   -0.7819    2.1053   -0.4762 H   0  0  0  0  0  0  0  0  0  0  0  0
   -0.0101    1.0572   -1.6962 H   0  0  0  0  0  0  0  0  0  0  0  0
    1.6567    2.2048   -0.4582 H   0  0  0  0  0  0  0  0  0  0  0  0
    1.0637    1.6728    1.1190 H   0  0  0  0  0  0  0  0  0  0  0  0
    2.8490    0.3264   -0.8240 H   0  0  0  0  0  0  0  0  0  0  0  0
    2.5405   -0.0311    0.8801 H   0  0  0  0  0  0  0  0  0  0  0  0
    1.8055   -1.9791    0.0149 H   0  0  0  0  0  0  0  0  0  0  0  0
    1.5571   -1.3437   -1.6150 H   0  0  0  0  0  0  0  0  0  0  0  0
   -0.6259   -1.8747   -1.1231 H   0  0  0  0  0  0  0  0  0  0  0  0
    0.1295    0.0002    1.8198 H   0  0  0  0  0  0  0  0  0  0  0  0
   -1.6715   -0.3734    1.9604 H   0  0  0  0  0  0  0  0  0  0  0  0
  1  2  1  0
  2  3  1  0
  3  4  1  0
  4  5  1  0
  5  6  1  0
  6  7  1  0
  7  8  1  0
  8  9  1  0
  7  2  1  0
  9  2  1  0
  1 10  1  0
  1 11  1  0
  1 12  1  0
  3 13  1  0
  3 14  1  0
  4 15  1  0
  4 16  1  0
  5 17  1  0
  5 18  1  0
  6 19  1  0
  6 20  1  0
  7 21  1  0
  9 22  1  0
  9 23  1  0
M  END
