
     RDKit          3D

 17 18  0  0  0  0  0  0  0  0999 V2000
    2.2175   -0.1968   -0.2569 C   0  0  0  0  0  0  0  0  0  0  0  0
    0.7400   -0.0547   -0.1684 C   0  0  0  0  0  0  0  0  0  0  0  0
   -0.0242   -1.2275    0.3291 C   0  0  0  0  0  0  0  0  0  0  0  0
   -1.3297   -1.1078    0.3273 C   0  0  0  0  0  0  0  0  0  0  0  0
   -1.9303    0.1615   -0.1582 C   0  0  0  0  0  0  0  0  0  0  0  0
   -0.7907    1.1384   -0.3895 C   0  0  0  0  0  0  0  0  0  0  0  0
    0.0987    0.5397   -1.2590 O   0  0  0  0  0  0  0  0  0  0  0  0
    0.2418    1.1036    0.6517 C   0  0  0  0  0  0  0  0  0  0  0  0
    0.6230    1.6370    1.6688 O   0  0  0  0  0  0  0  0  0  0  0  0
    2.7228    0.3890    0.5421 H   0  0  0  0  0  0  0  0  0  0  0  0
    2.6040    0.1173   -1.2611 H   0  0  0  0  0  0  0  0  0  0  0  0
    2.5330   -1.2655   -0.0837 H   0  0  0  0  0  0  0  0  0  0  0  0
    0.5024   -2.0909    0.6569 H   0  0  0  0  0  0  0  0  0  0  0  0
   -1.9760   -1.8924    0.6631 H   0  0  0  0  0  0  0  0  0  0  0  0
   -2.6715    0.5731    0.5548 H   0  0  0  0  0  0  0  0  0  0  0  0
   -2.4328    0.0086   -1.1350 H   0  0  0  0  0  0  0  0  0  0  0  0
   -1.1281    2.1673   -0.6822 H   0  0  0  0  0  0  0  0  0  0  0  0
  1  2  1  0
  2  3  1  0
  3  4  2  0
  4  5  1  0
  5  6  1  0
  6  7  1  0
  6  8  1  0
  8  9  2  0
  7  2  1  0
  8  2  1  0
  1 10  1  0
  1 11  1  0
  1 12  1  0
  3 13  1  0
  4 14  1  0
  5 15  1  0
  5 16  1  0
  6 17  1  0
M  END
