
     RDKit          3D

 21 23  0  0  0  0  0  0  0  0999 V2000
   -1.4781    1.1216   -0.9993 C   0  0  0  0  0  0  0  0  0  0  0  0
   -0.4686    0.3090   -0.3336 C   0  0  0  0  0  0  0  0  0  0  0  0
    0.9127    0.2362   -0.8514 C   0  0  0  0  0  0  0  0  0  0  0  0
    1.7266    0.8221    0.2371 C   0  0  0  0  0  0  0  0  0  0  0  0
    1.0105    0.8857    1.3470 C   0  0  0  0  0  0  0  0  0  0  0  0
   -0.3509    0.3634    1.1598 C   0  0  0  0  0  0  0  0  0  0  0  0
   -0.5236   -1.1226    1.2102 C   0  0  0  0  0  0  0  0  0  0  0  0
   -0.5558   -1.1556   -0.2850 C   0  0  0  0  0  0  0  0  0  0  0  0
    0.8438   -1.2864   -0.8370 C   0  0  0  0  0  0  0  0  0  0  0  0
   -1.1570    1.4876   -1.9987 H   0  0  0  0  0  0  0  0  0  0  0  0
   -1.6626    2.0601   -0.3977 H   0  0  0  0  0  0  0  0  0  0  0  0
   -2.4619    0.6092   -1.1127 H   0  0  0  0  0  0  0  0  0  0  0  0
    1.1055    0.6255   -1.8648 H   0  0  0  0  0  0  0  0  0  0  0  0
    2.7697    1.1358    0.0715 H   0  0  0  0  0  0  0  0  0  0  0  0
    1.3890    1.2785    2.2833 H   0  0  0  0  0  0  0  0  0  0  0  0
   -1.1383    0.9388    1.6826 H   0  0  0  0  0  0  0  0  0  0  0  0
   -1.4702   -1.4536    1.6826 H   0  0  0  0  0  0  0  0  0  0  0  0
    0.3167   -1.6722    1.6917 H   0  0  0  0  0  0  0  0  0  0  0  0
   -1.3453   -1.6890   -0.7800 H   0  0  0  0  0  0  0  0  0  0  0  0
    0.9514   -1.7775   -1.8002 H   0  0  0  0  0  0  0  0  0  0  0  0
    1.5864   -1.7164   -0.1054 H   0  0  0  0  0  0  0  0  0  0  0  0
  1  2  1  0
  2  3  1  0
  3  4  1  0
  4  5  2  0
  5  6  1  0
  6  7  1  0
  7  8  1  0
  8  9  1  0
  6  2  1  0
  8  2  1  0
  9  3  1  0
  1 10  1  0
  1 11  1  0
  1 12  1  0
  3 13  1  0
  4 14  1  0
  5 15  1  0
  6 16  1  0
  7 17  1  0
  7 18  1  0
  8 19  1  0
  9 20  1  0
  9 21  1  0
M  END
