
     RDKit          3D

 17 19  0  0  0  0  0  0  0  0999 V2000
    2.4917   -0.0817    0.6015 C   0  0  0  0  0  0  0  0  0  0  0  0
    1.2574   -0.0939   -0.2047 C   0  0  0  0  0  0  0  0  0  0  0  0
    1.1716   -0.9632   -1.2635 O   0  0  0  0  0  0  0  0  0  0  0  0
    0.1917   -0.9293   -0.3075 C   0  0  0  0  0  0  0  0  0  0  0  0
   -0.7505    0.2700   -0.4907 C   0  0  0  0  0  0  0  0  0  0  0  0
   -2.1357    0.2152   -0.0194 C   0  0  0  0  0  0  0  0  0  0  0  0
   -2.4415   -0.8114    0.8409 O   0  0  0  0  0  0  0  0  0  0  0  0
   -0.3998    1.2731   -1.3475 O   0  0  0  0  0  0  0  0  0  0  0  0
    0.3133    1.1074   -0.1928 C   0  0  0  0  0  0  0  0  0  0  0  0
    2.3678   -0.0954    1.6868 H   0  0  0  0  0  0  0  0  0  0  0  0
    3.0522    0.8701    0.3631 H   0  0  0  0  0  0  0  0  0  0  0  0
    3.1532   -0.8965    0.2732 H   0  0  0  0  0  0  0  0  0  0  0  0
   -0.1872   -1.8069    0.1907 H   0  0  0  0  0  0  0  0  0  0  0  0
   -2.4278    1.1940    0.4396 H   0  0  0  0  0  0  0  0  0  0  0  0
   -2.8208    0.1107   -0.9108 H   0  0  0  0  0  0  0  0  0  0  0  0
   -3.3052   -1.2604    0.6047 H   0  0  0  0  0  0  0  0  0  0  0  0
    0.4696    1.8981    0.5277 H   0  0  0  0  0  0  0  0  0  0  0  0
  1  2  1  0
  2  3  1  0
  3  4  1  0
  4  5  1  0
  5  6  1  0
  6  7  1  0
  5  8  1  0
  8  9  1  0
  4  2  1  0
  9  5  1  0
  9  2  1  0
  1 10  1  0
  1 11  1  0
  1 12  1  0
  4 13  1  0
  6 14  1  0
  6 15  1  0
  7 16  1  0
  9 17  1  0
M  END
