
     RDKit          3D

 19 21  0  0  0  0  0  0  0  0999 V2000
    2.1963   -0.4738   -0.3121 C   0  0  0  0  0  0  0  0  0  0  0  0
    0.8565   -0.7678    0.2675 C   0  0  0  0  0  0  0  0  0  0  0  0
    0.2266   -1.9698    0.0855 O   0  0  0  0  0  0  0  0  0  0  0  0
   -0.2319   -1.0041   -0.8004 C   0  0  0  0  0  0  0  0  0  0  0  0
   -1.2344    0.0167   -0.3658 C   0  0  0  0  0  0  0  0  0  0  0  0
   -2.3765    0.1927   -1.0137 O   0  0  0  0  0  0  0  0  0  0  0  0
   -0.3520    1.2156   -0.0560 C   0  0  0  0  0  0  0  0  0  0  0  0
    0.1747    0.3024    1.0615 C   0  0  0  0  0  0  0  0  0  0  0  0
   -1.2632   -0.1709    1.1515 C   0  0  0  0  0  0  0  0  0  0  0  0
    2.1301   -0.1961   -1.4045 H   0  0  0  0  0  0  0  0  0  0  0  0
    2.9275   -1.2995   -0.2214 H   0  0  0  0  0  0  0  0  0  0  0  0
    2.5988    0.4387    0.1819 H   0  0  0  0  0  0  0  0  0  0  0  0
    0.0758   -1.0819   -1.8478 H   0  0  0  0  0  0  0  0  0  0  0  0
   -2.5621    1.1003   -1.3550 H   0  0  0  0  0  0  0  0  0  0  0  0
   -0.9131    2.0334    0.4062 H   0  0  0  0  0  0  0  0  0  0  0  0
    0.4130    1.4519   -0.7926 H   0  0  0  0  0  0  0  0  0  0  0  0
    0.6329    0.7527    1.8967 H   0  0  0  0  0  0  0  0  0  0  0  0
   -1.8725    0.6409    1.6182 H   0  0  0  0  0  0  0  0  0  0  0  0
   -1.4265   -1.1813    1.5005 H   0  0  0  0  0  0  0  0  0  0  0  0
  1  2  1  0
  2  3  1  0
  3  4  1  0
  4  5  1  0
  5  6  1  0
  5  7  1  0
  7  8  1  0
  8  9  1  0
  4  2  1  0
  9  5  1  0
  8  2  1  0
  1 10  1  0
  1 11  1  0
  1 12  1  0
  4 13  1  0
  6 14  1  0
  7 15  1  0
  7 16  1  0
  8 17  1  0
  9 18  1  0
  9 19  1  0
M  END
