
     RDKit          3D

 18 20  0  0  0  0  0  0  0  0999 V2000
    1.5119   -0.4634    0.8814 C   0  0  0  0  0  0  0  0  0  0  0  0
    0.7299    0.0706   -0.2712 C   0  0  0  0  0  0  0  0  0  0  0  0
    0.1614   -0.8904   -1.2307 C   0  0  0  0  0  0  0  0  0  0  0  0
   -0.7426   -0.1014   -0.3770 C   0  0  0  0  0  0  0  0  0  0  0  0
   -1.5008   -0.6966    0.7565 C   0  0  0  0  0  0  0  0  0  0  0  0
   -0.8569    1.3983   -0.5832 C   0  0  0  0  0  0  0  0  0  0  0  0
   -0.3496    2.2319    0.3797 O   0  0  0  0  0  0  0  0  0  0  0  0
    0.5451    1.5507   -0.4314 C   0  0  0  0  0  0  0  0  0  0  0  0
    1.4026    0.0867    1.8181 H   0  0  0  0  0  0  0  0  0  0  0  0
    1.2983   -1.5609    0.9790 H   0  0  0  0  0  0  0  0  0  0  0  0
    2.5994   -0.4203    0.5903 H   0  0  0  0  0  0  0  0  0  0  0  0
    0.3162   -0.6691   -2.3020 H   0  0  0  0  0  0  0  0  0  0  0  0
    0.2677   -1.9535   -0.9829 H   0  0  0  0  0  0  0  0  0  0  0  0
   -2.5441   -0.2804    0.7497 H   0  0  0  0  0  0  0  0  0  0  0  0
   -1.0156   -0.4370    1.7262 H   0  0  0  0  0  0  0  0  0  0  0  0
   -1.5831   -1.7775    0.7100 H   0  0  0  0  0  0  0  0  0  0  0  0
   -1.4945    1.7940   -1.3834 H   0  0  0  0  0  0  0  0  0  0  0  0
    1.2546    2.1183   -1.0292 H   0  0  0  0  0  0  0  0  0  0  0  0
  1  2  1  0
  2  3  1  0
  3  4  1  0
  4  5  1  0
  4  6  1  0
  6  7  1  0
  7  8  1  0
  4  2  1  0
  8  6  1  0
  8  2  1  0
  1  9  1  0
  1 10  1  0
  1 11  1  0
  3 12  1  0
  3 13  1  0
  5 14  1  0
  5 15  1  0
  5 16  1  0
  6 17  1  0
  8 18  1  0
M  END
