
     RDKit          3D

 19 21  0  0  0  0  0  0  0  0999 V2000
   -1.1010   -0.6186   -1.2909 C   0  0  0  0  0  0  0  0  0  0  0  0
   -0.3826   -0.6471    0.0800 C   0  0  0  0  0  0  0  0  0  0  0  0
   -1.2714   -0.6742    1.1606 C   0  0  0  0  0  0  0  0  0  0  0  0
   -0.6760    0.5819    1.0064 C   0  0  0  0  0  0  0  0  0  0  0  0
   -0.4436    1.5629   -0.0180 C   0  0  0  0  0  0  0  0  0  0  0  0
    0.5891    1.1529   -0.7429 C   0  0  0  0  0  0  0  0  0  0  0  0
    1.0201   -0.1733   -0.1321 C   0  0  0  0  0  0  0  0  0  0  0  0
    2.1965   -0.4084    0.5058 C   0  0  0  0  0  0  0  0  0  0  0  0
    1.9698   -0.8717   -0.8135 O   0  0  0  0  0  0  0  0  0  0  0  0
   -1.5581    0.3715   -1.4416 H   0  0  0  0  0  0  0  0  0  0  0  0
   -1.9083   -1.4003   -1.2179 H   0  0  0  0  0  0  0  0  0  0  0  0
   -0.4497   -0.9183   -2.1004 H   0  0  0  0  0  0  0  0  0  0  0  0
   -2.3833   -0.7402    1.0130 H   0  0  0  0  0  0  0  0  0  0  0  0
   -1.0111   -1.3426    2.0291 H   0  0  0  0  0  0  0  0  0  0  0  0
    0.0959    0.7943    1.8289 H   0  0  0  0  0  0  0  0  0  0  0  0
   -1.0234    2.4845   -0.1659 H   0  0  0  0  0  0  0  0  0  0  0  0
    1.0123    1.6688   -1.5808 H   0  0  0  0  0  0  0  0  0  0  0  0
    2.9857    0.3904    0.6293 H   0  0  0  0  0  0  0  0  0  0  0  0
    2.3391   -1.2126    1.2508 H   0  0  0  0  0  0  0  0  0  0  0  0
  1  2  1  0
  2  3  1  0
  3  4  1  0
  4  5  1  0
  5  6  2  0
  6  7  1  0
  7  8  1  0
  8  9  1  0
  4  2  1  0
  9  7  1  0
  7  2  1  0
  1 10  1  0
  1 11  1  0
  1 12  1  0
  3 13  1  0
  3 14  1  0
  4 15  1  0
  5 16  1  0
  6 17  1  0
  8 18  1  0
  8 19  1  0
M  END
