
     RDKit          3D

 19 21  0  0  0  0  0  0  0  0999 V2000
    1.6268   -1.0755   -0.8708 C   0  0  0  0  0  0  0  0  0  0  0  0
    0.4974   -0.4306   -0.1632 C   0  0  0  0  0  0  0  0  0  0  0  0
   -0.3304    0.6374   -0.7794 C   0  0  0  0  0  0  0  0  0  0  0  0
    0.1103    1.5745    0.3236 C   0  0  0  0  0  0  0  0  0  0  0  0
    0.6644    0.3970    1.0531 C   0  0  0  0  0  0  0  0  0  0  0  0
   -0.0324   -0.8929    1.1333 C   0  0  0  0  0  0  0  0  0  0  0  0
   -1.3841   -1.0518    1.1052 O   0  0  0  0  0  0  0  0  0  0  0  0
   -2.1091   -0.0641    0.5192 C   0  0  0  0  0  0  0  0  0  0  0  0
   -1.6776    0.3038   -0.7456 O   0  0  0  0  0  0  0  0  0  0  0  0
    2.5673   -0.5499   -0.6763 H   0  0  0  0  0  0  0  0  0  0  0  0
    1.6642   -2.1602   -0.5611 H   0  0  0  0  0  0  0  0  0  0  0  0
    1.4427   -1.1263   -1.9835 H   0  0  0  0  0  0  0  0  0  0  0  0
   -0.0157    0.8992   -1.7947 H   0  0  0  0  0  0  0  0  0  0  0  0
    0.8858    2.2709   -0.0986 H   0  0  0  0  0  0  0  0  0  0  0  0
   -0.6734    2.1167    0.8486 H   0  0  0  0  0  0  0  0  0  0  0  0
    1.6691    0.4995    1.4607 H   0  0  0  0  0  0  0  0  0  0  0  0
    0.5074   -1.6973    1.6726 H   0  0  0  0  0  0  0  0  0  0  0  0
   -3.1547   -0.4697    0.3683 H   0  0  0  0  0  0  0  0  0  0  0  0
   -2.2580    0.8193    1.1934 H   0  0  0  0  0  0  0  0  0  0  0  0
  1  2  1  0
  2  3  1  0
  3  4  1  0
  4  5  1  0
  5  6  1  0
  6  7  1  0
  7  8  1  0
  8  9  1  0
  5  2  1  0
  6  2  1  0
  9  3  1  0
  1 10  1  0
  1 11  1  0
  1 12  1  0
  3 13  1  0
  4 14  1  0
  4 15  1  0
  5 16  1  0
  6 17  1  0
  8 18  1  0
  8 19  1  0
M  END
