
     RDKit          3D

 21 23  0  0  0  0  0  0  0  0999 V2000
    2.4758   -0.1913    0.8102 C   0  0  0  0  0  0  0  0  0  0  0  0
    1.3819    0.0301   -0.2216 C   0  0  0  0  0  0  0  0  0  0  0  0
    1.0923    1.4093   -0.6422 C   0  0  0  0  0  0  0  0  0  0  0  0
    0.1329    0.7570    0.2544 C   0  0  0  0  0  0  0  0  0  0  0  0
   -0.9514   -0.1426   -0.1773 C   0  0  0  0  0  0  0  0  0  0  0  0
   -2.2274    0.2589   -0.7424 C   0  0  0  0  0  0  0  0  0  0  0  0
   -2.1848   -0.1578    0.6851 C   0  0  0  0  0  0  0  0  0  0  0  0
   -0.2816   -1.4268   -0.5561 C   0  0  0  0  0  0  0  0  0  0  0  0
    0.9697   -1.0581   -0.9486 O   0  0  0  0  0  0  0  0  0  0  0  0
    2.1787    0.3468    1.7518 H   0  0  0  0  0  0  0  0  0  0  0  0
    3.4228    0.2203    0.4422 H   0  0  0  0  0  0  0  0  0  0  0  0
    2.6009   -1.2711    1.0366 H   0  0  0  0  0  0  0  0  0  0  0  0
    1.7271    2.1992   -0.1871 H   0  0  0  0  0  0  0  0  0  0  0  0
    0.7089    1.6577   -1.6626 H   0  0  0  0  0  0  0  0  0  0  0  0
    0.1420    1.0361    1.3370 H   0  0  0  0  0  0  0  0  0  0  0  0
   -2.7200   -0.4838   -1.4322 H   0  0  0  0  0  0  0  0  0  0  0  0
   -2.5172    1.2955   -0.9864 H   0  0  0  0  0  0  0  0  0  0  0  0
   -2.3006    0.6748    1.4201 H   0  0  0  0  0  0  0  0  0  0  0  0
   -2.4799   -1.1818    1.0000 H   0  0  0  0  0  0  0  0  0  0  0  0
   -0.3380   -2.1433    0.2693 H   0  0  0  0  0  0  0  0  0  0  0  0
   -0.8320   -1.8289   -1.4502 H   0  0  0  0  0  0  0  0  0  0  0  0
  1  2  1  0
  2  3  1  0
  3  4  1  0
  4  5  1  0
  5  6  1  0
  6  7  1  0
  5  8  1  0
  8  9  1  0
  4  2  1  0
  7  5  1  0
  9  2  1  0
  1 10  1  0
  1 11  1  0
  1 12  1  0
  3 13  1  0
  3 14  1  0
  4 15  1  0
  6 16  1  0
  6 17  1  0
  7 18  1  0
  7 19  1  0
  8 20  1  0
  8 21  1  0
M  END
