
     RDKit          3D

 21 22  0  0  0  0  0  0  0  0999 V2000
   -1.8199   -0.4449   -1.0945 C   0  0  0  0  0  0  0  0  0  0  0  0
   -0.7842   -0.1522   -0.0475 C   0  0  0  0  0  0  0  0  0  0  0  0
   -0.0092   -1.3098    0.4738 C   0  0  0  0  0  0  0  0  0  0  0  0
    1.2009   -1.5137   -0.1564 O   0  0  0  0  0  0  0  0  0  0  0  0
    2.0984   -0.4919   -0.0182 C   0  0  0  0  0  0  0  0  0  0  0  0
    1.5087    0.8713    0.0641 C   0  0  0  0  0  0  0  0  0  0  0  0
    0.1060    0.9728   -0.4510 C   0  0  0  0  0  0  0  0  0  0  0  0
   -0.6452    1.8818    0.3099 O   0  0  0  0  0  0  0  0  0  0  0  0
   -1.2274    0.8249    1.0041 C   0  0  0  0  0  0  0  0  0  0  0  0
   -1.3457   -0.8892   -1.9924 H   0  0  0  0  0  0  0  0  0  0  0  0
   -2.6029   -1.1541   -0.7556 H   0  0  0  0  0  0  0  0  0  0  0  0
   -2.2985    0.5257   -1.3611 H   0  0  0  0  0  0  0  0  0  0  0  0
    0.0821   -1.2111    1.5842 H   0  0  0  0  0  0  0  0  0  0  0  0
   -0.6147   -2.2363    0.3155 H   0  0  0  0  0  0  0  0  0  0  0  0
    2.7291   -0.6907    0.8924 H   0  0  0  0  0  0  0  0  0  0  0  0
    2.8306   -0.5793   -0.8744 H   0  0  0  0  0  0  0  0  0  0  0  0
    1.6060    1.2544    1.0942 H   0  0  0  0  0  0  0  0  0  0  0  0
    2.1359    1.5473   -0.5894 H   0  0  0  0  0  0  0  0  0  0  0  0
    0.0430    1.2504   -1.5239 H   0  0  0  0  0  0  0  0  0  0  0  0
   -0.6822    0.6371    1.9495 H   0  0  0  0  0  0  0  0  0  0  0  0
   -2.3108    0.9075    1.1766 H   0  0  0  0  0  0  0  0  0  0  0  0
  1  2  1  0
  2  3  1  0
  3  4  1  0
  4  5  1  0
  5  6  1  0
  6  7  1  0
  7  8  1  0
  8  9  1  0
  7  2  1  0
  9  2  1  0
  1 10  1  0
  1 11  1  0
  1 12  1  0
  3 13  1  0
  3 14  1  0
  5 15  1  0
  5 16  1  0
  6 17  1  0
  6 18  1  0
  7 19  1  0
  9 20  1  0
  9 21  1  0
M  END
