
     RDKit          3D

 21 22  0  0  0  0  0  0  0  0999 V2000
    2.6522    0.4246   -0.2482 C   0  0  0  0  0  0  0  0  0  0  0  0
    1.2731   -0.0342   -0.6212 C   0  0  0  0  0  0  0  0  0  0  0  0
    0.8431   -1.3133    0.0728 C   0  0  0  0  0  0  0  0  0  0  0  0
   -0.3852   -0.8140    0.8451 C   0  0  0  0  0  0  0  0  0  0  0  0
   -1.0383    0.0415   -0.2219 C   0  0  0  0  0  0  0  0  0  0  0  0
   -2.1408    0.9013    0.3359 C   0  0  0  0  0  0  0  0  0  0  0  0
   -3.0930    0.0153    0.8883 O   0  0  0  0  0  0  0  0  0  0  0  0
    0.1247    0.8366   -0.7423 C   0  0  0  0  0  0  0  0  0  0  0  0
    0.7662    0.2592   -1.8781 O   0  0  0  0  0  0  0  0  0  0  0  0
    2.8274    1.4965   -0.3800 H   0  0  0  0  0  0  0  0  0  0  0  0
    3.3729   -0.1634   -0.8862 H   0  0  0  0  0  0  0  0  0  0  0  0
    2.8234    0.1752    0.8187 H   0  0  0  0  0  0  0  0  0  0  0  0
    1.6033   -1.7323    0.7290 H   0  0  0  0  0  0  0  0  0  0  0  0
    0.4569   -2.0047   -0.6943 H   0  0  0  0  0  0  0  0  0  0  0  0
    0.0284   -0.1850    1.6752 H   0  0  0  0  0  0  0  0  0  0  0  0
   -1.0169   -1.6267    1.1956 H   0  0  0  0  0  0  0  0  0  0  0  0
   -1.4073   -0.6482   -1.0009 H   0  0  0  0  0  0  0  0  0  0  0  0
   -1.7403    1.5308    1.1424 H   0  0  0  0  0  0  0  0  0  0  0  0
   -2.6140    1.4422   -0.4849 H   0  0  0  0  0  0  0  0  0  0  0  0
   -3.4816   -0.5309    0.1334 H   0  0  0  0  0  0  0  0  0  0  0  0
    0.1458    1.9295   -0.6783 H   0  0  0  0  0  0  0  0  0  0  0  0
  1  2  1  0
  2  3  1  0
  3  4  1  0
  4  5  1  0
  5  6  1  0
  6  7  1  0
  5  8  1  0
  8  9  1  0
  8  2  1  0
  9  2  1  0
  1 10  1  0
  1 11  1  0
  1 12  1  0
  3 13  1  0
  3 14  1  0
  4 15  1  0
  4 16  1  0
  5 17  1  0
  6 18  1  0
  6 19  1  0
  7 20  1  0
  8 21  1  0
M  END
