
     RDKit          3D

 19 20  0  0  0  0  0  0  0  0999 V2000
    2.1068   -0.7457    0.3195 C   0  0  0  0  0  0  0  0  0  0  0  0
    0.9639   -0.0385   -0.3788 C   0  0  0  0  0  0  0  0  0  0  0  0
    1.0329    1.3988   -0.6644 C   0  0  0  0  0  0  0  0  0  0  0  0
    0.0617    0.8717    0.3739 C   0  0  0  0  0  0  0  0  0  0  0  0
   -1.3724    0.8349   -0.1023 C   0  0  0  0  0  0  0  0  0  0  0  0
   -1.9766   -0.5399   -0.0270 C   0  0  0  0  0  0  0  0  0  0  0  0
   -1.0099   -1.4762   -0.6867 C   0  0  0  0  0  0  0  0  0  0  0  0
   -1.2919   -2.7040   -0.7894 O   0  0  0  0  0  0  0  0  0  0  0  0
    0.1623   -0.9171   -1.1533 O   0  0  0  0  0  0  0  0  0  0  0  0
    2.5969   -1.3799   -0.4683 H   0  0  0  0  0  0  0  0  0  0  0  0
    1.6587   -1.4585    1.0348 H   0  0  0  0  0  0  0  0  0  0  0  0
    2.8409   -0.0619    0.7496 H   0  0  0  0  0  0  0  0  0  0  0  0
    0.6223    1.8581   -1.5876 H   0  0  0  0  0  0  0  0  0  0  0  0
    1.9006    1.9417   -0.2437 H   0  0  0  0  0  0  0  0  0  0  0  0
    0.2414    1.0466    1.4392 H   0  0  0  0  0  0  0  0  0  0  0  0
   -1.9377    1.5652    0.5032 H   0  0  0  0  0  0  0  0  0  0  0  0
   -1.4754    1.1730   -1.1638 H   0  0  0  0  0  0  0  0  0  0  0  0
   -2.2020   -0.8415    1.0044 H   0  0  0  0  0  0  0  0  0  0  0  0
   -2.9226   -0.5270   -0.5942 H   0  0  0  0  0  0  0  0  0  0  0  0
  1  2  1  0
  2  3  1  0
  3  4  1  0
  4  5  1  0
  5  6  1  0
  6  7  1  0
  7  8  2  0
  7  9  1  0
  4  2  1  0
  9  2  1  0
  1 10  1  0
  1 11  1  0
  1 12  1  0
  3 13  1  0
  3 14  1  0
  4 15  1  0
  5 16  1  0
  5 17  1  0
  6 18  1  0
  6 19  1  0
M  END
