
     RDKit          3D

 21 23  0  0  0  0  0  0  0  0999 V2000
   -1.9588    1.0997   -0.4580 C   0  0  0  0  0  0  0  0  0  0  0  0
   -0.8555    0.2354   -0.0607 C   0  0  0  0  0  0  0  0  0  0  0  0
    0.4780    0.7306    0.3968 C   0  0  0  0  0  0  0  0  0  0  0  0
    0.3401   -0.1625    1.6237 C   0  0  0  0  0  0  0  0  0  0  0  0
   -0.8487   -0.8045    0.9430 C   0  0  0  0  0  0  0  0  0  0  0  0
   -0.6238   -1.1396   -0.4977 C   0  0  0  0  0  0  0  0  0  0  0  0
    0.8530   -1.2106   -0.8742 C   0  0  0  0  0  0  0  0  0  0  0  0
    1.3968    0.1918   -0.6702 C   0  0  0  0  0  0  0  0  0  0  0  0
    2.7237    0.1995   -0.3053 O   0  0  0  0  0  0  0  0  0  0  0  0
   -1.7332    2.1647   -0.2063 H   0  0  0  0  0  0  0  0  0  0  0  0
   -2.0851    1.0735   -1.5733 H   0  0  0  0  0  0  0  0  0  0  0  0
   -2.9467    0.8782   -0.0266 H   0  0  0  0  0  0  0  0  0  0  0  0
    0.5172    1.8020    0.5913 H   0  0  0  0  0  0  0  0  0  0  0  0
    0.1420    0.3857    2.5418 H   0  0  0  0  0  0  0  0  0  0  0  0
    1.1945   -0.8806    1.6474 H   0  0  0  0  0  0  0  0  0  0  0  0
   -1.6975   -1.1675    1.5078 H   0  0  0  0  0  0  0  0  0  0  0  0
   -1.3592   -1.6978   -1.0859 H   0  0  0  0  0  0  0  0  0  0  0  0
    1.3169   -1.9382   -0.1780 H   0  0  0  0  0  0  0  0  0  0  0  0
    1.0051   -1.5141   -1.9174 H   0  0  0  0  0  0  0  0  0  0  0  0
    1.1809    0.7472   -1.6057 H   0  0  0  0  0  0  0  0  0  0  0  0
    2.9603    1.0072    0.2077 H   0  0  0  0  0  0  0  0  0  0  0  0
  1  2  1  0
  2  3  1  0
  3  4  1  0
  4  5  1  0
  5  6  1  0
  6  7  1  0
  7  8  1  0
  8  9  1  0
  5  2  1  0
  6  2  1  0
  8  3  1  0
  1 10  1  0
  1 11  1  0
  1 12  1  0
  3 13  1  0
  4 14  1  0
  4 15  1  0
  5 16  1  0
  6 17  1  0
  7 18  1  0
  7 19  1  0
  8 20  1  0
  9 21  1  0
M  END
