
     RDKit          3D

 17 18  0  0  0  0  0  0  0  0999 V2000
    1.7370    0.4724   -0.2492 C   0  0  0  0  0  0  0  0  0  0  0  0
    0.3633    0.1009   -0.0672 C   0  0  0  0  0  0  0  0  0  0  0  0
   -0.6933    1.1747   -0.2547 C   0  0  0  0  0  0  0  0  0  0  0  0
   -1.7961    0.7441    0.5008 O   0  0  0  0  0  0  0  0  0  0  0  0
   -1.4967   -0.5872    0.8889 C   0  0  0  0  0  0  0  0  0  0  0  0
   -1.3607   -1.3803   -0.2476 O   0  0  0  0  0  0  0  0  0  0  0  0
   -0.1622   -1.0779   -0.8712 C   0  0  0  0  0  0  0  0  0  0  0  0
   -0.0697   -0.3919    1.2605 C   0  0  0  0  0  0  0  0  0  0  0  0
    0.4175   -0.6047    2.3159 O   0  0  0  0  0  0  0  0  0  0  0  0
    2.3597   -0.3735   -0.5754 H   0  0  0  0  0  0  0  0  0  0  0  0
    2.1825    0.8642    0.7009 H   0  0  0  0  0  0  0  0  0  0  0  0
    1.8362    1.2920   -1.0047 H   0  0  0  0  0  0  0  0  0  0  0  0
   -0.3439    2.1758    0.0468 H   0  0  0  0  0  0  0  0  0  0  0  0
   -1.0286    1.1460   -1.3152 H   0  0  0  0  0  0  0  0  0  0  0  0
   -2.1318   -0.9676    1.6551 H   0  0  0  0  0  0  0  0  0  0  0  0
   -0.3714   -0.6895   -1.9023 H   0  0  0  0  0  0  0  0  0  0  0  0
    0.5582   -1.8975   -0.8814 H   0  0  0  0  0  0  0  0  0  0  0  0
  1  2  1  0
  2  3  1  0
  3  4  1  0
  4  5  1  0
  5  6  1  0
  6  7  1  0
  5  8  1  0
  8  9  2  0
  7  2  1  0
  8  2  1  0
  1 10  1  0
  1 11  1  0
  1 12  1  0
  3 13  1  0
  3 14  1  0
  5 15  1  0
  7 16  1  0
  7 17  1  0
M  END
