
     RDKit          3D

 21 23  0  0  0  0  0  0  0  0999 V2000
    2.5554    0.5222   -0.0457 C   0  0  0  0  0  0  0  0  0  0  0  0
    1.0912    0.4568   -0.3629 C   0  0  0  0  0  0  0  0  0  0  0  0
    0.7070    0.9242   -1.5848 O   0  0  0  0  0  0  0  0  0  0  0  0
    0.6322   -0.4441   -1.5183 C   0  0  0  0  0  0  0  0  0  0  0  0
   -0.5080   -0.9475   -0.6676 C   0  0  0  0  0  0  0  0  0  0  0  0
   -1.7369   -0.0608   -0.7471 C   0  0  0  0  0  0  0  0  0  0  0  0
   -2.0396    0.2479    0.7070 C   0  0  0  0  0  0  0  0  0  0  0  0
   -0.7192    0.2644    1.4235 C   0  0  0  0  0  0  0  0  0  0  0  0
    0.2470   -0.3742    0.5173 C   0  0  0  0  0  0  0  0  0  0  0  0
    2.9672   -0.4865   -0.0168 H   0  0  0  0  0  0  0  0  0  0  0  0
    3.1140    1.2383   -0.6734 H   0  0  0  0  0  0  0  0  0  0  0  0
    2.6331    0.9286    1.0053 H   0  0  0  0  0  0  0  0  0  0  0  0
    1.3835   -1.1081   -1.9208 H   0  0  0  0  0  0  0  0  0  0  0  0
   -0.6837   -2.0208   -0.6579 H   0  0  0  0  0  0  0  0  0  0  0  0
   -1.5155    0.8910   -1.3064 H   0  0  0  0  0  0  0  0  0  0  0  0
   -2.5931   -0.5745   -1.2357 H   0  0  0  0  0  0  0  0  0  0  0  0
   -2.4968    1.2450    0.8304 H   0  0  0  0  0  0  0  0  0  0  0  0
   -2.6647   -0.5758    1.1228 H   0  0  0  0  0  0  0  0  0  0  0  0
   -0.4064    1.2918    1.6768 H   0  0  0  0  0  0  0  0  0  0  0  0
   -0.8328   -0.2684    2.4062 H   0  0  0  0  0  0  0  0  0  0  0  0
    0.8662   -1.1495    1.0481 H   0  0  0  0  0  0  0  0  0  0  0  0
  1  2  1  0
  2  3  1  0
  3  4  1  0
  4  5  1  0
  5  6  1  0
  6  7  1  0
  7  8  1  0
  8  9  1  0
  4  2  1  0
  9  5  1  0
  9  2  1  0
  1 10  1  0
  1 11  1  0
  1 12  1  0
  4 13  1  0
  5 14  1  0
  6 15  1  0
  6 16  1  0
  7 17  1  0
  7 18  1  0
  8 19  1  0
  8 20  1  0
  9 21  1  0
M  END
