
     RDKit          3D

 21 23  0  0  0  0  0  0  0  0999 V2000
    2.9347    0.1506    0.3101 C   0  0  0  0  0  0  0  0  0  0  0  0
    1.5710   -0.0666    0.2261 C   0  0  0  0  0  0  0  0  0  0  0  0
    0.7511   -0.9536    1.1172 C   0  0  0  0  0  0  0  0  0  0  0  0
   -0.1542   -0.3766    0.0801 C   0  0  0  0  0  0  0  0  0  0  0  0
   -1.5006   -0.6370   -0.0686 C   0  0  0  0  0  0  0  0  0  0  0  0
   -2.3449   -0.0017   -1.1613 C   0  0  0  0  0  0  0  0  0  0  0  0
   -2.5305    0.4356    0.2441 C   0  0  0  0  0  0  0  0  0  0  0  0
    0.4858    0.9531    0.3489 C   0  0  0  0  0  0  0  0  0  0  0  0
    0.8670   -0.6028   -0.8339 O   0  0  0  0  0  0  0  0  0  0  0  0
    3.2484    1.1799    0.0504 H   0  0  0  0  0  0  0  0  0  0  0  0
    3.5231   -0.5778   -0.3173 H   0  0  0  0  0  0  0  0  0  0  0  0
    3.3319   -0.0183    1.3524 H   0  0  0  0  0  0  0  0  0  0  0  0
    0.9986   -2.0100    0.9349 H   0  0  0  0  0  0  0  0  0  0  0  0
    0.6138   -0.6390    2.1487 H   0  0  0  0  0  0  0  0  0  0  0  0
   -1.8926   -1.6632    0.2087 H   0  0  0  0  0  0  0  0  0  0  0  0
   -3.1086   -0.5955   -1.6787 H   0  0  0  0  0  0  0  0  0  0  0  0
   -1.8595    0.7488   -1.8271 H   0  0  0  0  0  0  0  0  0  0  0  0
   -2.1627    1.4407    0.5450 H   0  0  0  0  0  0  0  0  0  0  0  0
   -3.4974    0.1610    0.7049 H   0  0  0  0  0  0  0  0  0  0  0  0
    0.3171    1.3555    1.3564 H   0  0  0  0  0  0  0  0  0  0  0  0
    0.4083    1.7171   -0.4237 H   0  0  0  0  0  0  0  0  0  0  0  0
  1  2  1  0
  2  3  1  0
  3  4  1  0
  4  5  1  0
  5  6  1  0
  6  7  1  0
  4  8  1  0
  4  9  1  0
  8  2  1  0
  9  2  1  0
  7  5  1  0
  1 10  1  0
  1 11  1  0
  1 12  1  0
  3 13  1  0
  3 14  1  0
  5 15  1  0
  6 16  1  0
  6 17  1  0
  7 18  1  0
  7 19  1  0
  8 20  1  0
  8 21  1  0
M  END
