
     RDKit          3D

 19 20  0  0  0  0  0  0  0  0999 V2000
   -2.0560   -1.0144   -0.1487 C   0  0  0  0  0  0  0  0  0  0  0  0
   -0.8784   -0.1030   -0.0816 C   0  0  0  0  0  0  0  0  0  0  0  0
   -0.9118    1.0549   -0.8360 O   0  0  0  0  0  0  0  0  0  0  0  0
   -0.8705    1.7737    0.3703 C   0  0  0  0  0  0  0  0  0  0  0  0
   -0.4053    0.5560    1.1486 C   0  0  0  0  0  0  0  0  0  0  0  0
    0.4133   -0.4834    0.4936 C   0  0  0  0  0  0  0  0  0  0  0  0
    1.6047   -0.0890   -0.3600 C   0  0  0  0  0  0  0  0  0  0  0  0
    2.8787   -0.4766    0.2421 C   0  0  0  0  0  0  0  0  0  0  0  0
    3.0734   -1.6106    0.5979 O   0  0  0  0  0  0  0  0  0  0  0  0
   -1.9532   -1.8951    0.4870 H   0  0  0  0  0  0  0  0  0  0  0  0
   -2.1777   -1.3140   -1.2283 H   0  0  0  0  0  0  0  0  0  0  0  0
   -2.9823   -0.4865    0.1475 H   0  0  0  0  0  0  0  0  0  0  0  0
   -0.1205    2.6077    0.3608 H   0  0  0  0  0  0  0  0  0  0  0  0
   -1.9052    2.0799    0.6507 H   0  0  0  0  0  0  0  0  0  0  0  0
   -0.9555    0.2685    2.0795 H   0  0  0  0  0  0  0  0  0  0  0  0
    0.5582   -1.4157    1.0508 H   0  0  0  0  0  0  0  0  0  0  0  0
    1.5342    0.9722   -0.6274 H   0  0  0  0  0  0  0  0  0  0  0  0
    1.4774   -0.6615   -1.3190 H   0  0  0  0  0  0  0  0  0  0  0  0
    3.6765    0.2366    0.3898 H   0  0  0  0  0  0  0  0  0  0  0  0
  1  2  1  0
  2  3  1  0
  3  4  1  0
  4  5  1  0
  5  6  1  0
  6  7  1  0
  7  8  1  0
  8  9  2  0
  5  2  1  0
  6  2  1  0
  1 10  1  0
  1 11  1  0
  1 12  1  0
  4 13  1  0
  4 14  1  0
  5 15  1  0
  6 16  1  0
  7 17  1  0
  7 18  1  0
  8 19  1  0
M  END
