
     RDKit          3D

 21 22  0  0  0  0  0  0  0  0999 V2000
   -2.2820    1.1527    0.3181 C   0  0  0  0  0  0  0  0  0  0  0  0
   -0.8733    0.6158    0.4858 C   0  0  0  0  0  0  0  0  0  0  0  0
   -0.9263   -0.8450    0.7686 C   0  0  0  0  0  0  0  0  0  0  0  0
   -1.1652   -0.9229   -0.7432 C   0  0  0  0  0  0  0  0  0  0  0  0
   -0.1024    0.1255   -0.7403 C   0  0  0  0  0  0  0  0  0  0  0  0
    1.2683   -0.4899   -0.6163 C   0  0  0  0  0  0  0  0  0  0  0  0
    2.3074    0.4135    0.0060 C   0  0  0  0  0  0  0  0  0  0  0  0
    3.5428   -0.1874    0.1005 O   0  0  0  0  0  0  0  0  0  0  0  0
   -0.0875    1.3522   -0.2754 O   0  0  0  0  0  0  0  0  0  0  0  0
   -2.2501    2.1745    0.7969 H   0  0  0  0  0  0  0  0  0  0  0  0
   -2.5876    1.3022   -0.7109 H   0  0  0  0  0  0  0  0  0  0  0  0
   -3.0440    0.5967    0.8558 H   0  0  0  0  0  0  0  0  0  0  0  0
   -0.0565   -1.3672    1.1269 H   0  0  0  0  0  0  0  0  0  0  0  0
   -1.8018   -1.1343    1.3750 H   0  0  0  0  0  0  0  0  0  0  0  0
   -2.1606   -0.6580   -1.0738 H   0  0  0  0  0  0  0  0  0  0  0  0
   -0.8457   -1.8800   -1.1408 H   0  0  0  0  0  0  0  0  0  0  0  0
    1.3158   -1.5224   -0.2799 H   0  0  0  0  0  0  0  0  0  0  0  0
    1.6084   -0.5720   -1.7073 H   0  0  0  0  0  0  0  0  0  0  0  0
    2.4153    1.3442   -0.6090 H   0  0  0  0  0  0  0  0  0  0  0  0
    1.9527    0.7714    1.0016 H   0  0  0  0  0  0  0  0  0  0  0  0
    3.7724   -0.2695    1.0617 H   0  0  0  0  0  0  0  0  0  0  0  0
  1  2  1  0
  2  3  1  0
  3  4  1  0
  4  5  1  0
  5  6  1  0
  6  7  1  0
  7  8  1  0
  5  9  1  0
  5  2  1  0
  9  2  1  0
  1 10  1  0
  1 11  1  0
  1 12  1  0
  3 13  1  0
  3 14  1  0
  4 15  1  0
  4 16  1  0
  6 17  1  0
  6 18  1  0
  7 19  1  0
  7 20  1  0
  8 21  1  0
M  END
