
     RDKit          3D

 19 21  0  0  0  0  0  0  0  0999 V2000
    2.1559   -0.3651   -0.5627 C   0  0  0  0  0  0  0  0  0  0  0  0
    0.7257   -0.1681   -0.1721 C   0  0  0  0  0  0  0  0  0  0  0  0
    0.3939   -0.2343    1.2734 C   0  0  0  0  0  0  0  0  0  0  0  0
   -0.7769   -0.9896    0.7320 C   0  0  0  0  0  0  0  0  0  0  0  0
   -1.8613   -0.1147    0.1708 C   0  0  0  0  0  0  0  0  0  0  0  0
   -1.3212    1.0876   -0.5648 C   0  0  0  0  0  0  0  0  0  0  0  0
   -0.5101    1.9933    0.0999 O   0  0  0  0  0  0  0  0  0  0  0  0
    0.0582    0.9847   -0.8430 C   0  0  0  0  0  0  0  0  0  0  0  0
    0.0296   -1.3802   -0.3532 O   0  0  0  0  0  0  0  0  0  0  0  0
    2.8505    0.3820   -0.1953 H   0  0  0  0  0  0  0  0  0  0  0  0
    2.1920   -0.3080   -1.6890 H   0  0  0  0  0  0  0  0  0  0  0  0
    2.4651   -1.3912   -0.2861 H   0  0  0  0  0  0  0  0  0  0  0  0
    0.1563    0.7197    1.7887 H   0  0  0  0  0  0  0  0  0  0  0  0
    1.0610   -0.9069    1.8399 H   0  0  0  0  0  0  0  0  0  0  0  0
   -1.1846   -1.7996    1.3338 H   0  0  0  0  0  0  0  0  0  0  0  0
   -2.6273    0.1538    0.9080 H   0  0  0  0  0  0  0  0  0  0  0  0
   -2.3946   -0.7369   -0.6067 H   0  0  0  0  0  0  0  0  0  0  0  0
   -2.0515    1.5420   -1.2706 H   0  0  0  0  0  0  0  0  0  0  0  0
    0.6391    1.5315   -1.6028 H   0  0  0  0  0  0  0  0  0  0  0  0
  1  2  1  0
  2  3  1  0
  3  4  1  0
  4  5  1  0
  5  6  1  0
  6  7  1  0
  7  8  1  0
  4  9  1  0
  8  2  1  0
  9  2  1  0
  8  6  1  0
  1 10  1  0
  1 11  1  0
  1 12  1  0
  3 13  1  0
  3 14  1  0
  4 15  1  0
  5 16  1  0
  5 17  1  0
  6 18  1  0
  8 19  1  0
M  END
