
     RDKit          3D

 23 24  0  0  0  0  0  0  0  0999 V2000
   -1.7311    0.2851    0.7117 C   0  0  0  0  0  0  0  0  0  0  0  0
   -0.9237    0.0131   -0.5420 C   0  0  0  0  0  0  0  0  0  0  0  0
   -0.1038    1.1638   -0.9339 C   0  0  0  0  0  0  0  0  0  0  0  0
    0.8302    1.4675    0.2284 C   0  0  0  0  0  0  0  0  0  0  0  0
    1.4100    0.3243    0.9397 C   0  0  0  0  0  0  0  0  0  0  0  0
    0.5886   -0.9748    0.9111 C   0  0  0  0  0  0  0  0  0  0  0  0
    0.1587   -1.1220   -0.4808 C   0  0  0  0  0  0  0  0  0  0  0  0
    1.2661   -0.9832   -1.3583 O   0  0  0  0  0  0  0  0  0  0  0  0
   -1.0936   -1.2830   -1.1095 C   0  0  0  0  0  0  0  0  0  0  0  0
   -1.2229    0.9200    1.4351 H   0  0  0  0  0  0  0  0  0  0  0  0
   -2.6397    0.8268    0.3711 H   0  0  0  0  0  0  0  0  0  0  0  0
   -2.1273   -0.6729    1.1601 H   0  0  0  0  0  0  0  0  0  0  0  0
    0.5174    0.9533   -1.8443 H   0  0  0  0  0  0  0  0  0  0  0  0
   -0.6622    2.1049   -1.1428 H   0  0  0  0  0  0  0  0  0  0  0  0
    1.6646    2.0803   -0.2226 H   0  0  0  0  0  0  0  0  0  0  0  0
    0.3101    2.1883    0.9161 H   0  0  0  0  0  0  0  0  0  0  0  0
    2.3874    0.0541    0.4550 H   0  0  0  0  0  0  0  0  0  0  0  0
    1.6079    0.6119    1.9984 H   0  0  0  0  0  0  0  0  0  0  0  0
   -0.1769   -0.9532    1.6837 H   0  0  0  0  0  0  0  0  0  0  0  0
    1.2966   -1.7926    1.1708 H   0  0  0  0  0  0  0  0  0  0  0  0
    1.6306   -1.8891   -1.4477 H   0  0  0  0  0  0  0  0  0  0  0  0
   -1.1497   -1.3402   -2.2269 H   0  0  0  0  0  0  0  0  0  0  0  0
   -1.8374   -1.9823   -0.6723 H   0  0  0  0  0  0  0  0  0  0  0  0
  1  2  1  0
  2  3  1  0
  3  4  1  0
  4  5  1  0
  5  6  1  0
  6  7  1  0
  7  8  1  0
  7  9  1  0
  7  2  1  0
  9  2  1  0
  1 10  1  0
  1 11  1  0
  1 12  1  0
  3 13  1  0
  3 14  1  0
  4 15  1  0
  4 16  1  0
  5 17  1  0
  5 18  1  0
  6 19  1  0
  6 20  1  0
  8 21  1  0
  9 22  1  0
  9 23  1  0
M  END
