
     RDKit          3D

 19 20  0  0  0  0  0  0  0  0999 V2000
   -1.5802   -1.2581   -0.4557 C   0  0  0  0  0  0  0  0  0  0  0  0
   -0.4265   -0.6659    0.2953 C   0  0  0  0  0  0  0  0  0  0  0  0
   -0.8277    0.4354    1.2659 C   0  0  0  0  0  0  0  0  0  0  0  0
    0.0313    0.7064    0.0932 C   0  0  0  0  0  0  0  0  0  0  0  0
   -0.3776    1.5606   -1.0141 C   0  0  0  0  0  0  0  0  0  0  0  0
   -0.5618    2.7346   -0.8078 O   0  0  0  0  0  0  0  0  0  0  0  0
    1.5488    0.6196    0.2882 C   0  0  0  0  0  0  0  0  0  0  0  0
    1.7629   -0.8541   -0.0559 C   0  0  0  0  0  0  0  0  0  0  0  0
    0.6709   -1.4340    0.6161 O   0  0  0  0  0  0  0  0  0  0  0  0
   -2.1115   -1.9507    0.2307 H   0  0  0  0  0  0  0  0  0  0  0  0
   -2.2768   -0.4446   -0.7056 H   0  0  0  0  0  0  0  0  0  0  0  0
   -1.2899   -1.7351   -1.4149 H   0  0  0  0  0  0  0  0  0  0  0  0
   -0.4404    0.3466    2.2856 H   0  0  0  0  0  0  0  0  0  0  0  0
   -1.8538    0.8347    1.2104 H   0  0  0  0  0  0  0  0  0  0  0  0
   -0.5155    1.1640   -1.9989 H   0  0  0  0  0  0  0  0  0  0  0  0
    2.0885    1.2843   -0.3975 H   0  0  0  0  0  0  0  0  0  0  0  0
    1.7811    0.7990    1.3595 H   0  0  0  0  0  0  0  0  0  0  0  0
    2.7202   -1.1698    0.3541 H   0  0  0  0  0  0  0  0  0  0  0  0
    1.6580   -0.9728   -1.1487 H   0  0  0  0  0  0  0  0  0  0  0  0
  1  2  1  0
  2  3  1  0
  3  4  1  0
  4  5  1  0
  5  6  2  0
  4  7  1  0
  7  8  1  0
  8  9  1  0
  4  2  1  0
  9  2  1  0
  1 10  1  0
  1 11  1  0
  1 12  1  0
  3 13  1  0
  3 14  1  0
  5 15  1  0
  7 16  1  0
  7 17  1  0
  8 18  1  0
  8 19  1  0
M  END
