
     RDKit          3D

 21 22  0  0  0  0  0  0  0  0999 V2000
    0.2553    1.9893   -0.7830 C   0  0  0  0  0  0  0  0  0  0  0  0
    0.0718    0.6899    0.0152 C   0  0  0  0  0  0  0  0  0  0  0  0
   -1.2985    0.7543    0.6858 C   0  0  0  0  0  0  0  0  0  0  0  0
   -1.6083   -0.5865    0.0750 C   0  0  0  0  0  0  0  0  0  0  0  0
   -0.3530   -0.4780   -0.7709 C   0  0  0  0  0  0  0  0  0  0  0  0
    0.4853   -1.7113   -0.5990 C   0  0  0  0  0  0  0  0  0  0  0  0
    0.8763   -1.7721    0.7333 O   0  0  0  0  0  0  0  0  0  0  0  0
    1.6906   -0.6748    0.9742 C   0  0  0  0  0  0  0  0  0  0  0  0
    1.0676    0.5299    0.9096 O   0  0  0  0  0  0  0  0  0  0  0  0
   -0.6443    2.1663   -1.4062 H   0  0  0  0  0  0  0  0  0  0  0  0
    0.2454    2.7985   -0.0092 H   0  0  0  0  0  0  0  0  0  0  0  0
    1.1993    2.0194   -1.3187 H   0  0  0  0  0  0  0  0  0  0  0  0
   -1.2244    0.7928    1.7803 H   0  0  0  0  0  0  0  0  0  0  0  0
   -1.9762    1.5167    0.2993 H   0  0  0  0  0  0  0  0  0  0  0  0
   -1.5723   -1.3712    0.8628 H   0  0  0  0  0  0  0  0  0  0  0  0
   -2.5087   -0.6296   -0.5689 H   0  0  0  0  0  0  0  0  0  0  0  0
   -0.5231   -0.2843   -1.8457 H   0  0  0  0  0  0  0  0  0  0  0  0
   -0.1640   -2.5950   -0.8233 H   0  0  0  0  0  0  0  0  0  0  0  0
    1.3375   -1.7017   -1.3004 H   0  0  0  0  0  0  0  0  0  0  0  0
    2.0702   -0.8075    2.0306 H   0  0  0  0  0  0  0  0  0  0  0  0
    2.5735   -0.6450    0.2733 H   0  0  0  0  0  0  0  0  0  0  0  0
  1  2  1  0
  2  3  1  0
  3  4  1  0
  4  5  1  0
  5  6  1  0
  6  7  1  0
  7  8  1  0
  8  9  1  0
  5  2  1  0
  9  2  1  0
  1 10  1  0
  1 11  1  0
  1 12  1  0
  3 13  1  0
  3 14  1  0
  4 15  1  0
  4 16  1  0
  5 17  1  0
  6 18  1  0
  6 19  1  0
  8 20  1  0
  8 21  1  0
M  END
