
     RDKit          3D

 19 21  0  0  0  0  0  0  0  0999 V2000
   -1.0811    1.8565    0.2778 C   0  0  0  0  0  0  0  0  0  0  0  0
   -0.5852    0.5037    0.0676 C   0  0  0  0  0  0  0  0  0  0  0  0
   -1.5348   -0.6561    0.1674 C   0  0  0  0  0  0  0  0  0  0  0  0
   -0.4772   -1.2239   -0.7334 C   0  0  0  0  0  0  0  0  0  0  0  0
   -0.3312    0.0847   -1.2504 O   0  0  0  0  0  0  0  0  0  0  0  0
    0.7821   -1.3410    0.0925 C   0  0  0  0  0  0  0  0  0  0  0  0
    1.8235   -0.2909   -0.0117 C   0  0  0  0  0  0  0  0  0  0  0  0
    1.9289    0.4722   -1.1921 O   0  0  0  0  0  0  0  0  0  0  0  0
    0.6414    0.0455    0.8183 C   0  0  0  0  0  0  0  0  0  0  0  0
   -0.5251    2.5619   -0.4048 H   0  0  0  0  0  0  0  0  0  0  0  0
   -2.1468    1.9294    0.0191 H   0  0  0  0  0  0  0  0  0  0  0  0
   -0.8505    2.2026    1.2993 H   0  0  0  0  0  0  0  0  0  0  0  0
   -2.4846   -0.5541   -0.3546 H   0  0  0  0  0  0  0  0  0  0  0  0
   -1.5488   -1.0924    1.1774 H   0  0  0  0  0  0  0  0  0  0  0  0
   -0.7225   -1.9977   -1.4206 H   0  0  0  0  0  0  0  0  0  0  0  0
    0.9586   -2.2066    0.7256 H   0  0  0  0  0  0  0  0  0  0  0  0
    2.7759   -0.5018    0.5113 H   0  0  0  0  0  0  0  0  0  0  0  0
    2.7442    0.2485   -1.6901 H   0  0  0  0  0  0  0  0  0  0  0  0
    0.6332   -0.0405    1.9013 H   0  0  0  0  0  0  0  0  0  0  0  0
  1  2  1  0
  2  3  1  0
  3  4  1  0
  4  5  1  0
  4  6  1  0
  6  7  1  0
  7  8  1  0
  7  9  1  0
  5  2  1  0
  9  6  1  0
  9  2  1  0
  1 10  1  0
  1 11  1  0
  1 12  1  0
  3 13  1  0
  3 14  1  0
  4 15  1  0
  6 16  1  0
  7 17  1  0
  8 18  1  0
  9 19  1  0
M  END
