
     RDKit          3D

 17 18  0  0  0  0  0  0  0  0999 V2000
   -1.5464   -0.2572    0.6983 C   0  0  0  0  0  0  0  0  0  0  0  0
   -0.7239   -0.3181   -0.5802 C   0  0  0  0  0  0  0  0  0  0  0  0
    0.4790   -1.1609   -0.4520 C   0  0  0  0  0  0  0  0  0  0  0  0
    1.4578   -0.4171    0.4663 C   0  0  0  0  0  0  0  0  0  0  0  0
    0.8548    0.7703    1.0116 O   0  0  0  0  0  0  0  0  0  0  0  0
    0.2154    1.6391    0.1391 C   0  0  0  0  0  0  0  0  0  0  0  0
   -0.0015    2.8237    0.4510 O   0  0  0  0  0  0  0  0  0  0  0  0
   -0.1471    1.0232   -1.1126 C   0  0  0  0  0  0  0  0  0  0  0  0
   -1.2120    0.4104   -1.5646 O   0  0  0  0  0  0  0  0  0  0  0  0
   -2.4027   -0.9719    0.5257 H   0  0  0  0  0  0  0  0  0  0  0  0
   -1.9924    0.7288    0.8634 H   0  0  0  0  0  0  0  0  0  0  0  0
   -0.9814   -0.5569    1.5863 H   0  0  0  0  0  0  0  0  0  0  0  0
    0.2065   -2.1306    0.0139 H   0  0  0  0  0  0  0  0  0  0  0  0
    0.9192   -1.3499   -1.4457 H   0  0  0  0  0  0  0  0  0  0  0  0
    2.3613   -0.1497   -0.1098 H   0  0  0  0  0  0  0  0  0  0  0  0
    1.7675   -1.0277    1.3111 H   0  0  0  0  0  0  0  0  0  0  0  0
    0.7458    0.9444   -1.8020 H   0  0  0  0  0  0  0  0  0  0  0  0
  1  2  1  0
  2  3  1  0
  3  4  1  0
  4  5  1  0
  5  6  1  0
  6  7  2  0
  6  8  1  0
  8  9  1  0
  8  2  1  0
  9  2  1  0
  1 10  1  0
  1 11  1  0
  1 12  1  0
  3 13  1  0
  3 14  1  0
  4 15  1  0
  4 16  1  0
  8 17  1  0
M  END
