
     RDKit          3D

 19 21  0  0  0  0  0  0  0  0999 V2000
    2.2152   -0.2332   -0.2067 C   0  0  0  0  0  0  0  0  0  0  0  0
    0.7272   -0.1008    0.1332 C   0  0  0  0  0  0  0  0  0  0  0  0
   -0.0067   -1.3922    0.1714 C   0  0  0  0  0  0  0  0  0  0  0  0
   -1.4786   -1.2330    0.1765 C   0  0  0  0  0  0  0  0  0  0  0  0
   -2.1374   -0.1170    0.0003 C   0  0  0  0  0  0  0  0  0  0  0  0
   -1.4035    1.1393   -0.2303 C   0  0  0  0  0  0  0  0  0  0  0  0
   -0.9207    1.6030    0.9951 O   0  0  0  0  0  0  0  0  0  0  0  0
    0.3560    1.0941    0.8748 C   0  0  0  0  0  0  0  0  0  0  0  0
    0.0265    0.9176   -0.6408 C   0  0  0  0  0  0  0  0  0  0  0  0
    2.6829    0.7603   -0.1573 H   0  0  0  0  0  0  0  0  0  0  0  0
    2.6658   -0.9849    0.4420 H   0  0  0  0  0  0  0  0  0  0  0  0
    2.2427   -0.5265   -1.2961 H   0  0  0  0  0  0  0  0  0  0  0  0
    0.2794   -1.9131    1.1268 H   0  0  0  0  0  0  0  0  0  0  0  0
    0.2286   -2.0511   -0.7076 H   0  0  0  0  0  0  0  0  0  0  0  0
   -2.0510   -2.1618    0.3478 H   0  0  0  0  0  0  0  0  0  0  0  0
   -3.2029   -0.1119    0.0227 H   0  0  0  0  0  0  0  0  0  0  0  0
   -1.9116    1.8854   -0.8542 H   0  0  0  0  0  0  0  0  0  0  0  0
    1.1494    1.8286    1.1234 H   0  0  0  0  0  0  0  0  0  0  0  0
    0.5385    1.5972   -1.3210 H   0  0  0  0  0  0  0  0  0  0  0  0
  1  2  1  0
  2  3  1  0
  3  4  1  0
  4  5  2  0
  5  6  1  0
  6  7  1  0
  7  8  1  0
  8  9  1  0
  8  2  1  0
  9  2  1  0
  9  6  1  0
  1 10  1  0
  1 11  1  0
  1 12  1  0
  3 13  1  0
  3 14  1  0
  4 15  1  0
  5 16  1  0
  6 17  1  0
  8 18  1  0
  9 19  1  0
M  END
