
     RDKit          3D

 21 22  0  0  0  0  0  0  0  0999 V2000
   -1.8861   -1.1453   -0.1669 C   0  0  0  0  0  0  0  0  0  0  0  0
   -0.7056   -0.3178    0.3343 C   0  0  0  0  0  0  0  0  0  0  0  0
    0.5923   -1.0031    0.5016 C   0  0  0  0  0  0  0  0  0  0  0  0
    1.6007   -0.2899   -0.4076 C   0  0  0  0  0  0  0  0  0  0  0  0
    2.8950   -0.4871   -0.0054 O   0  0  0  0  0  0  0  0  0  0  0  0
    1.1386    1.1525   -0.2336 C   0  0  0  0  0  0  0  0  0  0  0  0
   -0.3715    0.9720   -0.3220 C   0  0  0  0  0  0  0  0  0  0  0  0
   -1.0180    1.2356   -1.5044 O   0  0  0  0  0  0  0  0  0  0  0  0
   -1.0563    0.9485    0.9859 C   0  0  0  0  0  0  0  0  0  0  0  0
   -2.6422   -1.1587    0.6713 H   0  0  0  0  0  0  0  0  0  0  0  0
   -2.3468   -0.6700   -1.0312 H   0  0  0  0  0  0  0  0  0  0  0  0
   -1.6060   -2.2084   -0.3148 H   0  0  0  0  0  0  0  0  0  0  0  0
    0.5099   -2.0390    0.0657 H   0  0  0  0  0  0  0  0  0  0  0  0
    0.9647   -1.1110    1.5164 H   0  0  0  0  0  0  0  0  0  0  0  0
    1.4003   -0.5530   -1.4577 H   0  0  0  0  0  0  0  0  0  0  0  0
    2.9618   -1.2235    0.6239 H   0  0  0  0  0  0  0  0  0  0  0  0
    1.5493    1.7585   -1.0357 H   0  0  0  0  0  0  0  0  0  0  0  0
    1.4491    1.4864    0.7782 H   0  0  0  0  0  0  0  0  0  0  0  0
   -0.8323    2.1071   -1.8919 H   0  0  0  0  0  0  0  0  0  0  0  0
   -2.1011    1.2689    0.9963 H   0  0  0  0  0  0  0  0  0  0  0  0
   -0.4956    1.2774    1.8978 H   0  0  0  0  0  0  0  0  0  0  0  0
  1  2  1  0
  2  3  1  0
  3  4  1  0
  4  5  1  0
  4  6  1  0
  6  7  1  0
  7  8  1  0
  7  9  1  0
  7  2  1  0
  9  2  1  0
  1 10  1  0
  1 11  1  0
  1 12  1  0
  3 13  1  0
  3 14  1  0
  4 15  1  0
  5 16  1  0
  6 17  1  0
  6 18  1  0
  8 19  1  0
  9 20  1  0
  9 21  1  0
M  END
