
     RDKit          3D

 21 22  0  0  0  0  0  0  0  0999 V2000
   -1.3732   -0.2930    1.0941 C   0  0  0  0  0  0  0  0  0  0  0  0
   -1.0978   -0.2358   -0.3918 C   0  0  0  0  0  0  0  0  0  0  0  0
   -0.3413   -1.4001   -0.8268 C   0  0  0  0  0  0  0  0  0  0  0  0
    0.9700   -1.3356   -0.4929 C   0  0  0  0  0  0  0  0  0  0  0  0
    1.6069   -0.2333    0.2289 C   0  0  0  0  0  0  0  0  0  0  0  0
    2.0238   -0.5439    1.5134 O   0  0  0  0  0  0  0  0  0  0  0  0
    0.7694    1.0577    0.2265 C   0  0  0  0  0  0  0  0  0  0  0  0
   -0.1617    0.9181   -0.9046 C   0  0  0  0  0  0  0  0  0  0  0  0
   -1.5588    0.9213   -1.0598 C   0  0  0  0  0  0  0  0  0  0  0  0
   -0.6871   -0.9337    1.6578 H   0  0  0  0  0  0  0  0  0  0  0  0
   -1.5731    0.6920    1.5431 H   0  0  0  0  0  0  0  0  0  0  0  0
   -2.3710   -0.8315    1.1646 H   0  0  0  0  0  0  0  0  0  0  0  0
   -0.7274   -2.2606   -1.3649 H   0  0  0  0  0  0  0  0  0  0  0  0
    1.6236   -2.1734   -0.7817 H   0  0  0  0  0  0  0  0  0  0  0  0
    2.5586    0.0023   -0.3374 H   0  0  0  0  0  0  0  0  0  0  0  0
    2.2640    0.2994    1.9534 H   0  0  0  0  0  0  0  0  0  0  0  0
    1.4505    1.9288   -0.0007 H   0  0  0  0  0  0  0  0  0  0  0  0
    0.3566    1.2445    1.2092 H   0  0  0  0  0  0  0  0  0  0  0  0
    0.4356    0.7031   -1.8441 H   0  0  0  0  0  0  0  0  0  0  0  0
   -2.1676    1.6730   -0.5020 H   0  0  0  0  0  0  0  0  0  0  0  0
   -1.9999    0.8006   -2.0844 H   0  0  0  0  0  0  0  0  0  0  0  0
  1  2  1  0
  2  3  1  0
  3  4  2  0
  4  5  1  0
  5  6  1  0
  5  7  1  0
  7  8  1  0
  8  9  1  0
  8  2  1  0
  9  2  1  0
  1 10  1  0
  1 11  1  0
  1 12  1  0
  3 13  1  0
  4 14  1  0
  5 15  1  0
  6 16  1  0
  7 17  1  0
  7 18  1  0
  8 19  1  0
  9 20  1  0
  9 21  1  0
M  END
