
     RDKit          3D

 19 21  0  0  0  0  0  0  0  0999 V2000
    2.2338    0.4029   -0.1800 C   0  0  0  0  0  0  0  0  0  0  0  0
    0.7680    0.2111   -0.3009 C   0  0  0  0  0  0  0  0  0  0  0  0
    0.1547   -1.0793   -0.7694 C   0  0  0  0  0  0  0  0  0  0  0  0
   -0.9897   -0.8498    0.1596 C   0  0  0  0  0  0  0  0  0  0  0  0
   -1.5264   -1.9346    0.7927 O   0  0  0  0  0  0  0  0  0  0  0  0
   -1.9696    0.1296   -0.3987 C   0  0  0  0  0  0  0  0  0  0  0  0
   -1.4769    1.3599   -0.3579 C   0  0  0  0  0  0  0  0  0  0  0  0
   -0.0988    1.2962    0.2424 C   0  0  0  0  0  0  0  0  0  0  0  0
   -0.0872    0.0428    0.9530 C   0  0  0  0  0  0  0  0  0  0  0  0
    2.4855    1.4864   -0.3776 H   0  0  0  0  0  0  0  0  0  0  0  0
    2.6853    0.0510    0.7505 H   0  0  0  0  0  0  0  0  0  0  0  0
    2.7197   -0.1415   -1.0392 H   0  0  0  0  0  0  0  0  0  0  0  0
   -0.1044   -1.1376   -1.8335 H   0  0  0  0  0  0  0  0  0  0  0  0
    0.7788   -1.9359   -0.3896 H   0  0  0  0  0  0  0  0  0  0  0  0
   -1.4228   -1.9736    1.7551 H   0  0  0  0  0  0  0  0  0  0  0  0
   -2.9421   -0.1939   -0.7724 H   0  0  0  0  0  0  0  0  0  0  0  0
   -1.9347    2.2640   -0.6798 H   0  0  0  0  0  0  0  0  0  0  0  0
    0.3840    2.2153    0.5528 H   0  0  0  0  0  0  0  0  0  0  0  0
    0.3429   -0.2129    1.8929 H   0  0  0  0  0  0  0  0  0  0  0  0
  1  2  1  0
  2  3  1  0
  3  4  1  0
  4  5  1  0
  4  6  1  0
  6  7  2  0
  7  8  1  0
  8  9  1  0
  8  2  1  0
  9  2  1  0
  9  4  1  0
  1 10  1  0
  1 11  1  0
  1 12  1  0
  3 13  1  0
  3 14  1  0
  5 15  1  0
  6 16  1  0
  7 17  1  0
  8 18  1  0
  9 19  1  0
M  END
