
     RDKit          3D

 20 21  0  0  0  0  0  0  0  0999 V2000
   -2.1024   -0.0207   -0.2682 C   0  0  0  0  0  0  0  0  0  0  0  0
   -0.6263   -0.0240   -0.1451 C   0  0  0  0  0  0  0  0  0  0  0  0
    0.0536    1.2175   -0.6623 C   0  0  0  0  0  0  0  0  0  0  0  0
    1.4616    1.2637   -0.2148 C   0  0  0  0  0  0  0  0  0  0  0  0
    2.0234    0.0874    0.1218 C   0  0  0  0  0  0  0  0  0  0  0  0
    1.0803   -0.9762    0.5619 C   0  0  0  0  0  0  0  0  0  0  0  0
    0.0912   -1.2906   -0.5513 C   0  0  0  0  0  0  0  0  0  0  0  0
   -0.0826   -0.2681    1.2693 C   0  0  0  0  0  0  0  0  0  0  0  0
   -2.5597   -0.5030    0.6033 H   0  0  0  0  0  0  0  0  0  0  0  0
   -2.3974   -0.4540   -1.2401 H   0  0  0  0  0  0  0  0  0  0  0  0
   -2.4430    1.0540   -0.2471 H   0  0  0  0  0  0  0  0  0  0  0  0
   -0.4850    2.0845   -0.2286 H   0  0  0  0  0  0  0  0  0  0  0  0
   -0.0422    1.3030   -1.7714 H   0  0  0  0  0  0  0  0  0  0  0  0
    2.0034    2.2019   -0.1644 H   0  0  0  0  0  0  0  0  0  0  0  0
    3.0991   -0.0453    0.0652 H   0  0  0  0  0  0  0  0  0  0  0  0
    1.5003   -1.8241    1.0888 H   0  0  0  0  0  0  0  0  0  0  0  0
   -0.5125   -2.1686   -0.2465 H   0  0  0  0  0  0  0  0  0  0  0  0
    0.5086   -1.3157   -1.5576 H   0  0  0  0  0  0  0  0  0  0  0  0
    0.1909    0.6473    1.7976 H   0  0  0  0  0  0  0  0  0  0  0  0
   -0.7614   -0.9690    1.7895 H   0  0  0  0  0  0  0  0  0  0  0  0
  1  2  1  0
  2  3  1  0
  3  4  1  0
  4  5  2  0
  5  6  1  0
  6  7  1  0
  6  8  1  0
  7  2  1  0
  8  2  1  0
  1  9  1  0
  1 10  1  0
  1 11  1  0
  3 12  1  0
  3 13  1  0
  4 14  1  0
  5 15  1  0
  6 16  1  0
  7 17  1  0
  7 18  1  0
  8 19  1  0
  8 20  1  0
M  END
