
     RDKit          3D

 19 20  0  0  0  0  0  0  0  0999 V2000
   -0.8196    1.5139   -0.2399 C   0  0  0  0  0  0  0  0  0  0  0  0
   -0.5406    0.1272   -0.3143 C   0  0  0  0  0  0  0  0  0  0  0  0
   -1.8037   -0.6884   -0.3282 C   0  0  0  0  0  0  0  0  0  0  0  0
   -1.3028   -1.5854    0.7292 C   0  0  0  0  0  0  0  0  0  0  0  0
   -1.7615   -2.2821    1.5760 O   0  0  0  0  0  0  0  0  0  0  0  0
   -0.0577   -1.1226    0.1385 C   0  0  0  0  0  0  0  0  0  0  0  0
    0.7318   -0.0519    0.4300 C   0  0  0  0  0  0  0  0  0  0  0  0
    1.9818    0.2460   -0.3862 C   0  0  0  0  0  0  0  0  0  0  0  0
    3.1196    0.0612    0.3594 O   0  0  0  0  0  0  0  0  0  0  0  0
   -1.1997    1.8211    0.7718 H   0  0  0  0  0  0  0  0  0  0  0  0
   -0.0014    2.2420   -0.5048 H   0  0  0  0  0  0  0  0  0  0  0  0
   -1.6579    1.8071   -0.9400 H   0  0  0  0  0  0  0  0  0  0  0  0
   -2.7388   -0.2237   -0.0153 H   0  0  0  0  0  0  0  0  0  0  0  0
   -1.9525   -1.1782   -1.3152 H   0  0  0  0  0  0  0  0  0  0  0  0
    0.2988   -1.8405   -0.6737 H   0  0  0  0  0  0  0  0  0  0  0  0
    0.8466    0.3190    1.4905 H   0  0  0  0  0  0  0  0  0  0  0  0
    1.9146    1.2755   -0.8379 H   0  0  0  0  0  0  0  0  0  0  0  0
    2.0277   -0.4500   -1.2651 H   0  0  0  0  0  0  0  0  0  0  0  0
    2.9154    0.0099    1.3253 H   0  0  0  0  0  0  0  0  0  0  0  0
  1  2  1  0
  2  3  1  0
  3  4  1  0
  4  5  2  0
  4  6  1  0
  6  7  1  0
  7  8  1  0
  8  9  1  0
  6  2  1  0
  7  2  1  0
  1 10  1  0
  1 11  1  0
  1 12  1  0
  3 13  1  0
  3 14  1  0
  6 15  1  0
  7 16  1  0
  8 17  1  0
  8 18  1  0
  9 19  1  0
M  END
