
     RDKit          3D

 21 22  0  0  0  0  0  0  0  0999 V2000
   -1.1586   -1.0407   -1.2308 C   0  0  0  0  0  0  0  0  0  0  0  0
   -0.5462   -0.3096   -0.0687 C   0  0  0  0  0  0  0  0  0  0  0  0
    0.1606   -1.2593    0.7862 C   0  0  0  0  0  0  0  0  0  0  0  0
    1.4606   -1.2000    0.6397 C   0  0  0  0  0  0  0  0  0  0  0  0
    1.8039   -0.1673   -0.3670 C   0  0  0  0  0  0  0  0  0  0  0  0
    0.5548    0.6313   -0.5021 C   0  0  0  0  0  0  0  0  0  0  0  0
    0.5236    1.7469    0.4864 C   0  0  0  0  0  0  0  0  0  0  0  0
   -0.6307    1.7140    1.1267 C   0  0  0  0  0  0  0  0  0  0  0  0
   -1.4743    0.5985    0.6446 C   0  0  0  0  0  0  0  0  0  0  0  0
   -0.3491   -1.5577   -1.7799 H   0  0  0  0  0  0  0  0  0  0  0  0
   -1.8411   -1.8092   -0.8560 H   0  0  0  0  0  0  0  0  0  0  0  0
   -1.6411   -0.3479   -1.9495 H   0  0  0  0  0  0  0  0  0  0  0  0
   -0.3529   -1.9488    1.4780 H   0  0  0  0  0  0  0  0  0  0  0  0
    2.2108   -1.8322    1.1896 H   0  0  0  0  0  0  0  0  0  0  0  0
    2.6098    0.4977    0.0554 H   0  0  0  0  0  0  0  0  0  0  0  0
    2.1645   -0.6000   -1.3203 H   0  0  0  0  0  0  0  0  0  0  0  0
    0.3204    0.9589   -1.5289 H   0  0  0  0  0  0  0  0  0  0  0  0
    1.3518    2.4371    0.6069 H   0  0  0  0  0  0  0  0  0  0  0  0
   -0.9287    2.4096    1.9047 H   0  0  0  0  0  0  0  0  0  0  0  0
   -2.0091    0.0972    1.4993 H   0  0  0  0  0  0  0  0  0  0  0  0
   -2.2289    0.9814   -0.0982 H   0  0  0  0  0  0  0  0  0  0  0  0
  1  2  1  0
  2  3  1  0
  3  4  2  0
  4  5  1  0
  5  6  1  0
  6  7  1  0
  7  8  2  0
  8  9  1  0
  6  2  1  0
  9  2  1  0
  1 10  1  0
  1 11  1  0
  1 12  1  0
  3 13  1  0
  4 14  1  0
  5 15  1  0
  5 16  1  0
  6 17  1  0
  7 18  1  0
  8 19  1  0
  9 20  1  0
  9 21  1  0
M  END
