
     RDKit          3D

 17 19  0  0  0  0  0  0  0  0999 V2000
    2.0244   -0.0828    0.4393 C   0  0  0  0  0  0  0  0  0  0  0  0
    0.7026    0.2038   -0.1445 C   0  0  0  0  0  0  0  0  0  0  0  0
    0.8574    1.1821   -1.2523 O   0  0  0  0  0  0  0  0  0  0  0  0
   -0.0530    1.3566   -0.2445 C   0  0  0  0  0  0  0  0  0  0  0  0
   -1.4535    0.8134   -0.5873 C   0  0  0  0  0  0  0  0  0  0  0  0
   -2.0087    0.1679    0.4964 O   0  0  0  0  0  0  0  0  0  0  0  0
   -1.2510   -0.9849    0.7150 C   0  0  0  0  0  0  0  0  0  0  0  0
   -0.2618   -0.9188   -0.4315 C   0  0  0  0  0  0  0  0  0  0  0  0
   -1.0933   -0.2953   -1.3962 O   0  0  0  0  0  0  0  0  0  0  0  0
    2.4675    0.7665    0.9747 H   0  0  0  0  0  0  0  0  0  0  0  0
    2.0409   -0.9679    1.0907 H   0  0  0  0  0  0  0  0  0  0  0  0
    2.7353   -0.3195   -0.4050 H   0  0  0  0  0  0  0  0  0  0  0  0
   -0.1111    2.2667    0.3562 H   0  0  0  0  0  0  0  0  0  0  0  0
   -2.0796    1.5248   -1.0854 H   0  0  0  0  0  0  0  0  0  0  0  0
   -0.7662   -1.0158    1.6907 H   0  0  0  0  0  0  0  0  0  0  0  0
   -1.9088   -1.8511    0.5258 H   0  0  0  0  0  0  0  0  0  0  0  0
    0.1590   -1.8457   -0.7421 H   0  0  0  0  0  0  0  0  0  0  0  0
  1  2  1  0
  2  3  1  0
  3  4  1  0
  4  5  1  0
  5  6  1  0
  6  7  1  0
  7  8  1  0
  8  9  1  0
  4  2  1  0
  9  5  1  0
  8  2  1  0
  1 10  1  0
  1 11  1  0
  1 12  1  0
  4 13  1  0
  5 14  1  0
  7 15  1  0
  7 16  1  0
  8 17  1  0
M  END
