
     RDKit          3D

 17 18  0  0  0  0  0  0  0  0999 V2000
   -1.9317   -0.3506    0.3266 C   0  0  0  0  0  0  0  0  0  0  0  0
   -0.4589   -0.0660    0.1908 C   0  0  0  0  0  0  0  0  0  0  0  0
   -0.1965    1.3974    0.1079 C   0  0  0  0  0  0  0  0  0  0  0  0
    1.2076    1.6700    0.0280 O   0  0  0  0  0  0  0  0  0  0  0  0
    2.0258    0.5408   -0.0561 C   0  0  0  0  0  0  0  0  0  0  0  0
    3.2246    0.5963   -0.3503 O   0  0  0  0  0  0  0  0  0  0  0  0
    1.3633   -0.7593    0.2334 C   0  0  0  0  0  0  0  0  0  0  0  0
    0.2607   -0.8964   -0.8117 C   0  0  0  0  0  0  0  0  0  0  0  0
    0.3439   -0.6036    1.1824 O   0  0  0  0  0  0  0  0  0  0  0  0
   -2.5362    0.5720    0.1609 H   0  0  0  0  0  0  0  0  0  0  0  0
   -2.2731   -1.0592   -0.4830 H   0  0  0  0  0  0  0  0  0  0  0  0
   -2.1298   -0.8026    1.2979 H   0  0  0  0  0  0  0  0  0  0  0  0
   -0.5255    1.8522    1.0846 H   0  0  0  0  0  0  0  0  0  0  0  0
   -0.7589    1.9211   -0.6815 H   0  0  0  0  0  0  0  0  0  0  0  0
    2.0113   -1.6220    0.3574 H   0  0  0  0  0  0  0  0  0  0  0  0
   -0.1032   -1.9354   -0.8064 H   0  0  0  0  0  0  0  0  0  0  0  0
    0.4768   -0.4548   -1.7807 H   0  0  0  0  0  0  0  0  0  0  0  0
  1  2  1  0
  2  3  1  0
  3  4  1  0
  4  5  1  0
  5  6  2  0
  5  7  1  0
  7  8  1  0
  7  9  1  0
  8  2  1  0
  9  2  1  0
  1 10  1  0
  1 11  1  0
  1 12  1  0
  3 13  1  0
  3 14  1  0
  7 15  1  0
  8 16  1  0
  8 17  1  0
M  END
