
     RDKit          3D

 19 21  0  0  0  0  0  0  0  0999 V2000
    2.0649    0.1573    0.3698 C   0  0  0  0  0  0  0  0  0  0  0  0
    0.6697    0.1757   -0.1688 C   0  0  0  0  0  0  0  0  0  0  0  0
    0.2691   -1.0832   -0.8719 C   0  0  0  0  0  0  0  0  0  0  0  0
   -1.1873   -1.3251   -0.5576 C   0  0  0  0  0  0  0  0  0  0  0  0
   -2.1189   -0.3367   -0.8360 O   0  0  0  0  0  0  0  0  0  0  0  0
   -1.5458   -0.5257    0.5077 C   0  0  0  0  0  0  0  0  0  0  0  0
   -0.4339    0.4474    0.7842 C   0  0  0  0  0  0  0  0  0  0  0  0
   -0.6375    1.7422    0.0363 C   0  0  0  0  0  0  0  0  0  0  0  0
    0.3786    1.3651   -0.8191 O   0  0  0  0  0  0  0  0  0  0  0  0
    2.1351    0.0685    1.4585 H   0  0  0  0  0  0  0  0  0  0  0  0
    2.6044   -0.7335   -0.0504 H   0  0  0  0  0  0  0  0  0  0  0  0
    2.6379    1.0415   -0.0151 H   0  0  0  0  0  0  0  0  0  0  0  0
    0.4884   -1.0344   -1.9452 H   0  0  0  0  0  0  0  0  0  0  0  0
    0.8374   -1.9222   -0.4002 H   0  0  0  0  0  0  0  0  0  0  0  0
   -1.5394   -2.3725   -0.6801 H   0  0  0  0  0  0  0  0  0  0  0  0
   -2.3507   -0.5896    1.2357 H   0  0  0  0  0  0  0  0  0  0  0  0
   -0.1899    0.5359    1.8419 H   0  0  0  0  0  0  0  0  0  0  0  0
   -1.6044    1.7674   -0.5469 H   0  0  0  0  0  0  0  0  0  0  0  0
   -0.4777    2.6219    0.6572 H   0  0  0  0  0  0  0  0  0  0  0  0
  1  2  1  0
  2  3  1  0
  3  4  1  0
  4  5  1  0
  5  6  1  0
  6  7  1  0
  7  8  1  0
  8  9  1  0
  7  2  1  0
  9  2  1  0
  6  4  1  0
  1 10  1  0
  1 11  1  0
  1 12  1  0
  3 13  1  0
  3 14  1  0
  4 15  1  0
  6 16  1  0
  7 17  1  0
  8 18  1  0
  8 19  1  0
M  END
