
     RDKit          3D

 23 24  0  0  0  0  0  0  0  0999 V2000
   -1.4490    1.2930    0.7393 C   0  0  0  0  0  0  0  0  0  0  0  0
   -0.3956    0.6086   -0.0939 C   0  0  0  0  0  0  0  0  0  0  0  0
    0.9014    1.3055   -0.2509 C   0  0  0  0  0  0  0  0  0  0  0  0
    2.0099    0.3484    0.0876 C   0  0  0  0  0  0  0  0  0  0  0  0
    1.3455   -1.0084   -0.1488 C   0  0  0  0  0  0  0  0  0  0  0  0
   -0.0167   -0.7648    0.4420 C   0  0  0  0  0  0  0  0  0  0  0  0
   -0.1481   -0.9296    1.7939 O   0  0  0  0  0  0  0  0  0  0  0  0
   -1.0848   -1.3465   -0.4335 C   0  0  0  0  0  0  0  0  0  0  0  0
   -0.9548   -0.0896   -1.3064 C   0  0  0  0  0  0  0  0  0  0  0  0
   -2.3605    0.6335    0.6855 H   0  0  0  0  0  0  0  0  0  0  0  0
   -1.7323    2.2398    0.2444 H   0  0  0  0  0  0  0  0  0  0  0  0
   -1.1209    1.4461    1.7943 H   0  0  0  0  0  0  0  0  0  0  0  0
    0.9409    2.1272    0.5226 H   0  0  0  0  0  0  0  0  0  0  0  0
    1.0295    1.7973   -1.2338 H   0  0  0  0  0  0  0  0  0  0  0  0
    2.2800    0.3571    1.1686 H   0  0  0  0  0  0  0  0  0  0  0  0
    2.9204    0.4803   -0.4975 H   0  0  0  0  0  0  0  0  0  0  0  0
    1.2615   -1.1927   -1.2342 H   0  0  0  0  0  0  0  0  0  0  0  0
    1.8917   -1.8286    0.3429 H   0  0  0  0  0  0  0  0  0  0  0  0
   -0.2641   -1.8898    2.0167 H   0  0  0  0  0  0  0  0  0  0  0  0
   -2.0297   -1.4336    0.1064 H   0  0  0  0  0  0  0  0  0  0  0  0
   -0.8261   -2.2598   -0.9809 H   0  0  0  0  0  0  0  0  0  0  0  0
   -0.2680   -0.2087   -2.1582 H   0  0  0  0  0  0  0  0  0  0  0  0
   -1.9302    0.3152   -1.6061 H   0  0  0  0  0  0  0  0  0  0  0  0
  1  2  1  0
  2  3  1  0
  3  4  1  0
  4  5  1  0
  5  6  1  0
  6  7  1  0
  6  8  1  0
  8  9  1  0
  6  2  1  0
  9  2  1  0
  1 10  1  0
  1 11  1  0
  1 12  1  0
  3 13  1  0
  3 14  1  0
  4 15  1  0
  4 16  1  0
  5 17  1  0
  5 18  1  0
  7 19  1  0
  8 20  1  0
  8 21  1  0
  9 22  1  0
  9 23  1  0
M  END
