
     RDKit          3D

 20 21  0  0  0  0  0  0  0  0999 V2000
   -2.0371    0.7063   -0.7141 C   0  0  0  0  0  0  0  0  0  0  0  0
   -0.8508    0.1904    0.0938 C   0  0  0  0  0  0  0  0  0  0  0  0
   -0.0469    1.1863    0.8065 C   0  0  0  0  0  0  0  0  0  0  0  0
    1.2600    1.2207    0.6344 C   0  0  0  0  0  0  0  0  0  0  0  0
    1.9701    0.2888   -0.2571 C   0  0  0  0  0  0  0  0  0  0  0  0
    1.2986   -1.0545   -0.3609 C   0  0  0  0  0  0  0  0  0  0  0  0
   -0.1800   -1.0004   -0.4060 C   0  0  0  0  0  0  0  0  0  0  0  0
   -1.0195   -1.1142    0.8351 C   0  0  0  0  0  0  0  0  0  0  0  0
   -2.0618    0.1962   -1.6986 H   0  0  0  0  0  0  0  0  0  0  0  0
   -1.9030    1.7934   -0.8685 H   0  0  0  0  0  0  0  0  0  0  0  0
   -2.9474    0.4321   -0.1742 H   0  0  0  0  0  0  0  0  0  0  0  0
   -0.5190    1.9030    1.4811 H   0  0  0  0  0  0  0  0  0  0  0  0
    1.8477    1.9648    1.1680 H   0  0  0  0  0  0  0  0  0  0  0  0
    2.9809    0.1110    0.1657 H   0  0  0  0  0  0  0  0  0  0  0  0
    2.0779    0.7339   -1.2694 H   0  0  0  0  0  0  0  0  0  0  0  0
    1.6480   -1.6884    0.5059 H   0  0  0  0  0  0  0  0  0  0  0  0
    1.7164   -1.5564   -1.2601 H   0  0  0  0  0  0  0  0  0  0  0  0
   -0.6541   -1.5209   -1.2871 H   0  0  0  0  0  0  0  0  0  0  0  0
   -0.5445   -1.2518    1.8244 H   0  0  0  0  0  0  0  0  0  0  0  0
   -2.0354   -1.5404    0.7812 H   0  0  0  0  0  0  0  0  0  0  0  0
  1  2  1  0
  2  3  1  0
  3  4  2  0
  4  5  1  0
  5  6  1  0
  6  7  1  0
  7  8  1  0
  7  2  1  0
  8  2  1  0
  1  9  1  0
  1 10  1  0
  1 11  1  0
  3 12  1  0
  4 13  1  0
  5 14  1  0
  5 15  1  0
  6 16  1  0
  6 17  1  0
  7 18  1  0
  8 19  1  0
  8 20  1  0
M  END
