
     RDKit          3D

 21 22  0  0  0  0  0  0  0  0999 V2000
   -1.0713   -1.8735    0.5452 C   0  0  0  0  0  0  0  0  0  0  0  0
   -0.3803   -0.5704    0.1597 C   0  0  0  0  0  0  0  0  0  0  0  0
    0.7739   -0.7240   -0.7546 C   0  0  0  0  0  0  0  0  0  0  0  0
    1.8874    0.2512   -0.5473 C   0  0  0  0  0  0  0  0  0  0  0  0
    1.9107    0.7998    0.7304 O   0  0  0  0  0  0  0  0  0  0  0  0
    0.7348    1.5331    0.8769 C   0  0  0  0  0  0  0  0  0  0  0  0
   -0.3892    0.5666    1.0628 C   0  0  0  0  0  0  0  0  0  0  0  0
   -1.3844    0.5525   -0.0902 C   0  0  0  0  0  0  0  0  0  0  0  0
   -1.1831    1.4097   -1.1518 O   0  0  0  0  0  0  0  0  0  0  0  0
   -1.5705   -2.2248   -0.4059 H   0  0  0  0  0  0  0  0  0  0  0  0
   -1.8735   -1.6809    1.2596 H   0  0  0  0  0  0  0  0  0  0  0  0
   -0.3635   -2.6575    0.8268 H   0  0  0  0  0  0  0  0  0  0  0  0
    0.3818   -0.7083   -1.8119 H   0  0  0  0  0  0  0  0  0  0  0  0
    1.2038   -1.7486   -0.6373 H   0  0  0  0  0  0  0  0  0  0  0  0
    2.9029   -0.2178   -0.6942 H   0  0  0  0  0  0  0  0  0  0  0  0
    1.8139    1.0198   -1.3466 H   0  0  0  0  0  0  0  0  0  0  0  0
    0.7674    2.2560    1.6978 H   0  0  0  0  0  0  0  0  0  0  0  0
    0.6325    2.1409   -0.0659 H   0  0  0  0  0  0  0  0  0  0  0  0
   -0.7845    0.3791    2.0974 H   0  0  0  0  0  0  0  0  0  0  0  0
   -2.4244    0.4278    0.2292 H   0  0  0  0  0  0  0  0  0  0  0  0
   -1.5846    1.0691   -1.9800 H   0  0  0  0  0  0  0  0  0  0  0  0
  1  2  1  0
  2  3  1  0
  3  4  1  0
  4  5  1  0
  5  6  1  0
  6  7  1  0
  7  8  1  0
  8  9  1  0
  7  2  1  0
  8  2  1  0
  1 10  1  0
  1 11  1  0
  1 12  1  0
  3 13  1  0
  3 14  1  0
  4 15  1  0
  4 16  1  0
  6 17  1  0
  6 18  1  0
  7 19  1  0
  8 20  1  0
  9 21  1  0
M  END
