
     RDKit          3D

 18 20  0  0  0  0  0  0  0  0999 V2000
    1.6904   -0.7619   -0.5692 C   0  0  0  0  0  0  0  0  0  0  0  0
    0.4651   -0.1727   -0.0010 C   0  0  0  0  0  0  0  0  0  0  0  0
    0.6258    0.9299    1.0233 C   0  0  0  0  0  0  0  0  0  0  0  0
   -0.2739    1.9317    0.7149 O   0  0  0  0  0  0  0  0  0  0  0  0
   -1.2650    1.3614   -0.1080 C   0  0  0  0  0  0  0  0  0  0  0  0
   -1.6309   -0.0609    0.0611 C   0  0  0  0  0  0  0  0  0  0  0  0
   -0.6308   -1.1076    0.4413 C   0  0  0  0  0  0  0  0  0  0  0  0
   -0.5349    0.4355   -0.9402 C   0  0  0  0  0  0  0  0  0  0  0  0
    2.5987   -0.1846   -0.2649 H   0  0  0  0  0  0  0  0  0  0  0  0
    1.8349   -1.7826   -0.1579 H   0  0  0  0  0  0  0  0  0  0  0  0
    1.7015   -0.8354   -1.6721 H   0  0  0  0  0  0  0  0  0  0  0  0
    1.6636    1.3165    1.0779 H   0  0  0  0  0  0  0  0  0  0  0  0
    0.3424    0.5523    2.0489 H   0  0  0  0  0  0  0  0  0  0  0  0
   -1.9842    2.0410   -0.5395 H   0  0  0  0  0  0  0  0  0  0  0  0
   -2.5839   -0.3756   -0.3637 H   0  0  0  0  0  0  0  0  0  0  0  0
   -0.6093   -1.4307    1.4856 H   0  0  0  0  0  0  0  0  0  0  0  0
   -0.6908   -1.9563   -0.3020 H   0  0  0  0  0  0  0  0  0  0  0  0
   -0.7185    0.1000   -1.9346 H   0  0  0  0  0  0  0  0  0  0  0  0
  1  2  1  0
  2  3  1  0
  3  4  1  0
  4  5  1  0
  5  6  1  0
  6  7  1  0
  6  8  1  0
  7  2  1  0
  8  2  1  0
  8  5  1  0
  1  9  1  0
  1 10  1  0
  1 11  1  0
  3 12  1  0
  3 13  1  0
  5 14  1  0
  6 15  1  0
  7 16  1  0
  7 17  1  0
  8 18  1  0
M  END
