
     RDKit          3D

 19 21  0  0  0  0  0  0  0  0999 V2000
   -1.5816    1.5242   -0.0882 C   0  0  0  0  0  0  0  0  0  0  0  0
   -0.6128    0.3739   -0.1598 C   0  0  0  0  0  0  0  0  0  0  0  0
   -1.2708   -0.9338   -0.6867 C   0  0  0  0  0  0  0  0  0  0  0  0
   -0.0922   -1.7142   -0.7911 O   0  0  0  0  0  0  0  0  0  0  0  0
    0.6608   -1.5045    0.3522 C   0  0  0  0  0  0  0  0  0  0  0  0
    2.0063   -1.1833    0.0863 O   0  0  0  0  0  0  0  0  0  0  0  0
    2.1170    0.2160    0.2282 C   0  0  0  0  0  0  0  0  0  0  0  0
    0.7971    0.6598   -0.3568 C   0  0  0  0  0  0  0  0  0  0  0  0
    0.1662   -0.1626    0.8082 C   0  0  0  0  0  0  0  0  0  0  0  0
   -2.0877    1.4708    0.9034 H   0  0  0  0  0  0  0  0  0  0  0  0
   -2.3861    1.4703   -0.8434 H   0  0  0  0  0  0  0  0  0  0  0  0
   -1.0982    2.5131   -0.1951 H   0  0  0  0  0  0  0  0  0  0  0  0
   -1.9791   -1.3346    0.0269 H   0  0  0  0  0  0  0  0  0  0  0  0
   -1.6247   -0.7622   -1.6991 H   0  0  0  0  0  0  0  0  0  0  0  0
    0.5459   -2.3071    1.0741 H   0  0  0  0  0  0  0  0  0  0  0  0
    2.9242    0.6594   -0.3352 H   0  0  0  0  0  0  0  0  0  0  0  0
    2.2737    0.5180    1.2871 H   0  0  0  0  0  0  0  0  0  0  0  0
    0.9095    0.2724   -1.4057 H   0  0  0  0  0  0  0  0  0  0  0  0
    0.3325    0.2244    1.7946 H   0  0  0  0  0  0  0  0  0  0  0  0
  1  2  1  0
  2  3  1  0
  3  4  1  0
  4  5  1  0
  5  6  1  0
  6  7  1  0
  7  8  1  0
  8  9  1  0
  8  2  1  0
  9  2  1  0
  9  5  1  0
  1 10  1  0
  1 11  1  0
  1 12  1  0
  3 13  1  0
  3 14  1  0
  5 15  1  0
  7 16  1  0
  7 17  1  0
  8 18  1  0
  9 19  1  0
M  END
