
     RDKit          3D

 23 24  0  0  0  0  0  0  0  0999 V2000
    2.0094    1.0189   -0.0613 C   0  0  0  0  0  0  0  0  0  0  0  0
    0.6531    0.4221   -0.0764 C   0  0  0  0  0  0  0  0  0  0  0  0
   -0.4890    1.3473   -0.3280 C   0  0  0  0  0  0  0  0  0  0  0  0
   -1.7305    0.8018    0.2970 C   0  0  0  0  0  0  0  0  0  0  0  0
   -1.7967   -0.6945    0.1603 C   0  0  0  0  0  0  0  0  0  0  0  0
   -0.4280   -1.3307    0.2019 C   0  0  0  0  0  0  0  0  0  0  0  0
    0.4187   -0.4734    1.1467 C   0  0  0  0  0  0  0  0  0  0  0  0
    0.4593   -0.8184   -0.9135 C   0  0  0  0  0  0  0  0  0  0  0  0
    1.6453   -1.5642   -0.9548 O   0  0  0  0  0  0  0  0  0  0  0  0
    2.7892    0.3880   -0.4817 H   0  0  0  0  0  0  0  0  0  0  0  0
    2.2493    1.2870    1.0090 H   0  0  0  0  0  0  0  0  0  0  0  0
    1.9537    2.0067   -0.5981 H   0  0  0  0  0  0  0  0  0  0  0  0
   -0.2015    2.3510    0.0718 H   0  0  0  0  0  0  0  0  0  0  0  0
   -0.6372    1.4396   -1.4327 H   0  0  0  0  0  0  0  0  0  0  0  0
   -2.6594    1.2404   -0.1541 H   0  0  0  0  0  0  0  0  0  0  0  0
   -1.7195    1.1218    1.3775 H   0  0  0  0  0  0  0  0  0  0  0  0
   -2.3987   -1.0123   -0.7108 H   0  0  0  0  0  0  0  0  0  0  0  0
   -2.3343   -1.0657    1.0765 H   0  0  0  0  0  0  0  0  0  0  0  0
   -0.4153   -2.3954    0.3930 H   0  0  0  0  0  0  0  0  0  0  0  0
    1.3615   -0.9937    1.3793 H   0  0  0  0  0  0  0  0  0  0  0  0
   -0.1252   -0.0073    1.9652 H   0  0  0  0  0  0  0  0  0  0  0  0
   -0.0406   -0.6825   -1.8810 H   0  0  0  0  0  0  0  0  0  0  0  0
    1.4361   -2.3866   -1.4858 H   0  0  0  0  0  0  0  0  0  0  0  0
  1  2  1  0
  2  3  1  0
  3  4  1  0
  4  5  1  0
  5  6  1  0
  6  7  1  0
  6  8  1  0
  8  9  1  0
  7  2  1  0
  8  2  1  0
  1 10  1  0
  1 11  1  0
  1 12  1  0
  3 13  1  0
  3 14  1  0
  4 15  1  0
  4 16  1  0
  5 17  1  0
  5 18  1  0
  6 19  1  0
  7 20  1  0
  7 21  1  0
  8 22  1  0
  9 23  1  0
M  END
