
     RDKit          3D

 19 21  0  0  0  0  0  0  0  0999 V2000
    1.9046   -0.1962    0.6433 C   0  0  0  0  0  0  0  0  0  0  0  0
    1.0417   -0.0215   -0.6340 C   0  0  0  0  0  0  0  0  0  0  0  0
    1.6217    0.7589   -1.4783 O   0  0  0  0  0  0  0  0  0  0  0  0
    0.6359    1.4404   -0.7801 C   0  0  0  0  0  0  0  0  0  0  0  0
   -0.3249    0.9273    0.2524 C   0  0  0  0  0  0  0  0  0  0  0  0
   -1.5707    0.3590   -0.2584 C   0  0  0  0  0  0  0  0  0  0  0  0
   -2.1148    1.0750   -1.3522 O   0  0  0  0  0  0  0  0  0  0  0  0
   -0.3552   -0.4396   -0.4419 C   0  0  0  0  0  0  0  0  0  0  0  0
   -0.4362   -1.7233    0.3994 C   0  0  0  0  0  0  0  0  0  0  0  0
    2.4634    0.7349    0.8743 H   0  0  0  0  0  0  0  0  0  0  0  0
    2.6507   -1.0073    0.4222 H   0  0  0  0  0  0  0  0  0  0  0  0
    1.3015   -0.4395    1.5126 H   0  0  0  0  0  0  0  0  0  0  0  0
    0.0717    1.8784   -1.6286 H   0  0  0  0  0  0  0  0  0  0  0  0
   -0.1408    0.9896    1.3139 H   0  0  0  0  0  0  0  0  0  0  0  0
   -2.3489    0.1450    0.5018 H   0  0  0  0  0  0  0  0  0  0  0  0
   -2.8295    1.6731   -1.0325 H   0  0  0  0  0  0  0  0  0  0  0  0
   -1.4460   -2.1710    0.1696 H   0  0  0  0  0  0  0  0  0  0  0  0
   -0.4280   -1.5204    1.4657 H   0  0  0  0  0  0  0  0  0  0  0  0
    0.3039   -2.4628    0.0509 H   0  0  0  0  0  0  0  0  0  0  0  0
  1  2  1  0
  2  3  1  0
  3  4  1  0
  4  5  1  0
  5  6  1  0
  6  7  1  0
  6  8  1  0
  8  9  1  0
  4  2  1  0
  8  5  1  0
  8  2  1  0
  1 10  1  0
  1 11  1  0
  1 12  1  0
  4 13  1  0
  5 14  1  0
  6 15  1  0
  7 16  1  0
  9 17  1  0
  9 18  1  0
  9 19  1  0
M  END
