
     RDKit          3D

 19 20  0  0  0  0  0  0  0  0999 V2000
   -2.7796    0.1920   -0.1040 C   0  0  0  0  0  0  0  0  0  0  0  0
   -1.3028    0.0117   -0.3531 C   0  0  0  0  0  0  0  0  0  0  0  0
   -0.4315   -0.2756    0.8108 C   0  0  0  0  0  0  0  0  0  0  0  0
    0.8222   -0.1994    0.4045 C   0  0  0  0  0  0  0  0  0  0  0  0
    2.0024   -0.4350    1.3285 C   0  0  0  0  0  0  0  0  0  0  0  0
    2.6877   -1.5276    0.7512 O   0  0  0  0  0  0  0  0  0  0  0  0
    0.9078    0.1369   -1.0335 C   0  0  0  0  0  0  0  0  0  0  0  0
   -0.5413    0.3169   -1.4227 C   0  0  0  0  0  0  0  0  0  0  0  0
   -1.1713   -1.0336   -1.4244 O   0  0  0  0  0  0  0  0  0  0  0  0
   -3.1242   -0.6575    0.5273 H   0  0  0  0  0  0  0  0  0  0  0  0
   -3.3207    0.1945   -1.0479 H   0  0  0  0  0  0  0  0  0  0  0  0
   -2.9998    1.1176    0.4535 H   0  0  0  0  0  0  0  0  0  0  0  0
   -0.7753   -0.5131    1.8430 H   0  0  0  0  0  0  0  0  0  0  0  0
    1.6591   -0.7229    2.3410 H   0  0  0  0  0  0  0  0  0  0  0  0
    2.6366    0.4470    1.4086 H   0  0  0  0  0  0  0  0  0  0  0  0
    3.6470   -1.2354    0.6425 H   0  0  0  0  0  0  0  0  0  0  0  0
    1.3401   -0.7457   -1.5472 H   0  0  0  0  0  0  0  0  0  0  0  0
    1.5021    1.0540   -1.1945 H   0  0  0  0  0  0  0  0  0  0  0  0
   -0.7584    0.8476   -2.3833 H   0  0  0  0  0  0  0  0  0  0  0  0
  1  2  1  0
  2  3  1  0
  3  4  2  0
  4  5  1  0
  5  6  1  0
  4  7  1  0
  7  8  1  0
  8  9  1  0
  8  2  1  0
  9  2  1  0
  1 10  1  0
  1 11  1  0
  1 12  1  0
  3 13  1  0
  5 14  1  0
  5 15  1  0
  6 16  1  0
  7 17  1  0
  7 18  1  0
  8 19  1  0
M  END
