
     RDKit          3D

 19 21  0  0  0  0  0  0  0  0999 V2000
   -1.9725    0.3363    0.6467 C   0  0  0  0  0  0  0  0  0  0  0  0
   -0.5977   -0.0516    0.2372 C   0  0  0  0  0  0  0  0  0  0  0  0
    0.4947    1.0085    0.2427 C   0  0  0  0  0  0  0  0  0  0  0  0
    0.7418    1.5078    1.4949 O   0  0  0  0  0  0  0  0  0  0  0  0
    1.6377    0.2644   -0.3725 C   0  0  0  0  0  0  0  0  0  0  0  0
    1.0722   -0.9048   -1.1515 C   0  0  0  0  0  0  0  0  0  0  0  0
    0.9149   -1.9847   -0.2930 O   0  0  0  0  0  0  0  0  0  0  0  0
   -0.2233   -1.4710    0.2594 C   0  0  0  0  0  0  0  0  0  0  0  0
   -0.4018   -0.6774   -1.0620 C   0  0  0  0  0  0  0  0  0  0  0  0
   -2.6023    0.5128   -0.2687 H   0  0  0  0  0  0  0  0  0  0  0  0
   -2.4808   -0.3970    1.2887 H   0  0  0  0  0  0  0  0  0  0  0  0
   -1.9200    1.3314    1.1515 H   0  0  0  0  0  0  0  0  0  0  0  0
    0.1417    1.7939   -0.4859 H   0  0  0  0  0  0  0  0  0  0  0  0
    1.3089    2.2952    1.4170 H   0  0  0  0  0  0  0  0  0  0  0  0
    2.2782   -0.1031    0.4816 H   0  0  0  0  0  0  0  0  0  0  0  0
    2.2217    0.9525   -1.0150 H   0  0  0  0  0  0  0  0  0  0  0  0
    1.5087   -1.1004   -2.1242 H   0  0  0  0  0  0  0  0  0  0  0  0
   -0.9944   -2.1979    0.5249 H   0  0  0  0  0  0  0  0  0  0  0  0
   -1.1277   -1.1149   -1.7087 H   0  0  0  0  0  0  0  0  0  0  0  0
  1  2  1  0
  2  3  1  0
  3  4  1  0
  3  5  1  0
  5  6  1  0
  6  7  1  0
  7  8  1  0
  8  9  1  0
  8  2  1  0
  9  2  1  0
  9  6  1  0
  1 10  1  0
  1 11  1  0
  1 12  1  0
  3 13  1  0
  4 14  1  0
  5 15  1  0
  5 16  1  0
  6 17  1  0
  8 18  1  0
  9 19  1  0
M  END
