
     RDKit          3D

 18 19  0  0  0  0  0  0  0  0999 V2000
    0.0910    2.0207    0.3069 C   0  0  0  0  0  0  0  0  0  0  0  0
    0.1472    0.5765   -0.0275 C   0  0  0  0  0  0  0  0  0  0  0  0
   -0.4511   -0.3655    1.0242 C   0  0  0  0  0  0  0  0  0  0  0  0
   -0.8232   -1.2536   -0.1669 C   0  0  0  0  0  0  0  0  0  0  0  0
   -0.9771    0.0665   -0.9358 C   0  0  0  0  0  0  0  0  0  0  0  0
    0.2600   -1.9173   -0.6851 O   0  0  0  0  0  0  0  0  0  0  0  0
    1.4570   -1.2808   -0.4039 C   0  0  0  0  0  0  0  0  0  0  0  0
    1.3439    0.0943   -0.5257 O   0  0  0  0  0  0  0  0  0  0  0  0
   -0.6827    2.6011   -0.2008 H   0  0  0  0  0  0  0  0  0  0  0  0
   -0.0715    2.1144    1.4156 H   0  0  0  0  0  0  0  0  0  0  0  0
    1.1273    2.4428    0.1529 H   0  0  0  0  0  0  0  0  0  0  0  0
    0.2584   -0.7939    1.7240 H   0  0  0  0  0  0  0  0  0  0  0  0
   -1.3569    0.0893    1.4553 H   0  0  0  0  0  0  0  0  0  0  0  0
   -1.7407   -1.8041    0.0004 H   0  0  0  0  0  0  0  0  0  0  0  0
   -0.7273    0.0131   -1.9954 H   0  0  0  0  0  0  0  0  0  0  0  0
   -1.9337    0.5610   -0.6883 H   0  0  0  0  0  0  0  0  0  0  0  0
    2.2513   -1.6586   -1.0820 H   0  0  0  0  0  0  0  0  0  0  0  0
    1.8281   -1.5058    0.6321 H   0  0  0  0  0  0  0  0  0  0  0  0
  1  2  1  0
  2  3  1  0
  3  4  1  0
  4  5  1  0
  4  6  1  0
  6  7  1  0
  7  8  1  0
  5  2  1  0
  8  2  1  0
  1  9  1  0
  1 10  1  0
  1 11  1  0
  3 12  1  0
  3 13  1  0
  4 14  1  0
  5 15  1  0
  5 16  1  0
  7 17  1  0
  7 18  1  0
M  END
