
     RDKit          3D

 21 23  0  0  0  0  0  0  0  0999 V2000
    2.6627   -0.2294    0.1037 C   0  0  0  0  0  0  0  0  0  0  0  0
    1.1845   -0.0359    0.1911 C   0  0  0  0  0  0  0  0  0  0  0  0
    0.7742    1.4164    0.4843 C   0  0  0  0  0  0  0  0  0  0  0  0
    0.4093    0.7509   -0.7682 C   0  0  0  0  0  0  0  0  0  0  0  0
   -0.8981    0.0275   -0.9169 C   0  0  0  0  0  0  0  0  0  0  0  0
   -1.9991    0.4208   -0.0012 C   0  0  0  0  0  0  0  0  0  0  0  0
   -2.0282   -0.9833    0.5418 C   0  0  0  0  0  0  0  0  0  0  0  0
   -0.6775   -1.2291   -0.1310 C   0  0  0  0  0  0  0  0  0  0  0  0
    0.3947   -1.0397    0.7019 O   0  0  0  0  0  0  0  0  0  0  0  0
    3.0857   -0.1261   -0.9004 H   0  0  0  0  0  0  0  0  0  0  0  0
    2.9133   -1.2251    0.5403 H   0  0  0  0  0  0  0  0  0  0  0  0
    3.1612    0.5131    0.7912 H   0  0  0  0  0  0  0  0  0  0  0  0
    1.5498    2.1966    0.4304 H   0  0  0  0  0  0  0  0  0  0  0  0
    0.1148    1.5051    1.3545 H   0  0  0  0  0  0  0  0  0  0  0  0
    0.8620    1.0871   -1.7126 H   0  0  0  0  0  0  0  0  0  0  0  0
   -1.2659   -0.0926   -1.9526 H   0  0  0  0  0  0  0  0  0  0  0  0
   -2.9860    0.6412   -0.4956 H   0  0  0  0  0  0  0  0  0  0  0  0
   -1.8092    1.1854    0.7522 H   0  0  0  0  0  0  0  0  0  0  0  0
   -2.8023   -1.6417    0.1180 H   0  0  0  0  0  0  0  0  0  0  0  0
   -1.9841   -1.0279    1.6579 H   0  0  0  0  0  0  0  0  0  0  0  0
   -0.6618   -2.1135   -0.7888 H   0  0  0  0  0  0  0  0  0  0  0  0
  1  2  1  0
  2  3  1  0
  3  4  1  0
  4  5  1  0
  5  6  1  0
  6  7  1  0
  7  8  1  0
  8  9  1  0
  4  2  1  0
  8  5  1  0
  9  2  1  0
  1 10  1  0
  1 11  1  0
  1 12  1  0
  3 13  1  0
  3 14  1  0
  4 15  1  0
  5 16  1  0
  6 17  1  0
  6 18  1  0
  7 19  1  0
  7 20  1  0
  8 21  1  0
M  END
