
     RDKit          3D

 19 20  0  0  0  0  0  0  0  0999 V2000
   -0.4234   -0.9739    1.5877 C   0  0  0  0  0  0  0  0  0  0  0  0
   -0.1819   -0.0676    0.5073 C   0  0  0  0  0  0  0  0  0  0  0  0
   -0.8255    1.2760    0.4248 C   0  0  0  0  0  0  0  0  0  0  0  0
   -0.2829    1.7516   -0.7990 O   0  0  0  0  0  0  0  0  0  0  0  0
    0.4882    0.6971   -1.2065 C   0  0  0  0  0  0  0  0  0  0  0  0
   -0.3458   -0.5638   -0.9382 C   0  0  0  0  0  0  0  0  0  0  0  0
   -1.6261   -0.5292   -1.4013 O   0  0  0  0  0  0  0  0  0  0  0  0
    1.2373    0.2453    0.0615 C   0  0  0  0  0  0  0  0  0  0  0  0
    1.9341   -0.9067   -0.2052 O   0  0  0  0  0  0  0  0  0  0  0  0
   -0.7575   -0.4614    2.5016 H   0  0  0  0  0  0  0  0  0  0  0  0
   -1.2502   -1.7026    1.3374 H   0  0  0  0  0  0  0  0  0  0  0  0
    0.4911   -1.5642    1.8414 H   0  0  0  0  0  0  0  0  0  0  0  0
   -1.9068    1.1426    0.2960 H   0  0  0  0  0  0  0  0  0  0  0  0
   -0.6091    1.9543    1.2471 H   0  0  0  0  0  0  0  0  0  0  0  0
    1.0479    0.7281   -2.1099 H   0  0  0  0  0  0  0  0  0  0  0  0
    0.2557   -1.4623   -1.1313 H   0  0  0  0  0  0  0  0  0  0  0  0
   -1.8236    0.1473   -2.0790 H   0  0  0  0  0  0  0  0  0  0  0  0
    1.7408    1.0472    0.5973 H   0  0  0  0  0  0  0  0  0  0  0  0
    2.8378   -0.7577   -0.5317 H   0  0  0  0  0  0  0  0  0  0  0  0
  1  2  1  0
  2  3  1  0
  3  4  1  0
  4  5  1  0
  5  6  1  0
  6  7  1  0
  5  8  1  0
  8  9  1  0
  6  2  1  0
  8  2  1  0
  1 10  1  0
  1 11  1  0
  1 12  1  0
  3 13  1  0
  3 14  1  0
  5 15  1  0
  6 16  1  0
  7 17  1  0
  8 18  1  0
  9 19  1  0
M  END
