
     RDKit          3D

 18 20  0  0  0  0  0  0  0  0999 V2000
    2.0049   -0.3627   -0.4291 C   0  0  0  0  0  0  0  0  0  0  0  0
    0.6948   -0.0025    0.0781 C   0  0  0  0  0  0  0  0  0  0  0  0
   -0.1573   -0.8964    0.9422 C   0  0  0  0  0  0  0  0  0  0  0  0
   -1.4406   -0.0540    0.8825 C   0  0  0  0  0  0  0  0  0  0  0  0
   -1.6022    0.0291   -0.6158 C   0  0  0  0  0  0  0  0  0  0  0  0
   -0.2473    0.6745   -0.9152 C   0  0  0  0  0  0  0  0  0  0  0  0
    0.1542    1.3351    0.3040 C   0  0  0  0  0  0  0  0  0  0  0  0
   -0.9411    1.1928    1.1832 O   0  0  0  0  0  0  0  0  0  0  0  0
    1.8908   -0.9977   -1.3567 H   0  0  0  0  0  0  0  0  0  0  0  0
    2.5830   -1.0170    0.2741 H   0  0  0  0  0  0  0  0  0  0  0  0
    2.5746    0.5267   -0.7317 H   0  0  0  0  0  0  0  0  0  0  0  0
    0.2051   -0.8539    1.9799 H   0  0  0  0  0  0  0  0  0  0  0  0
   -0.3075   -1.8987    0.5408 H   0  0  0  0  0  0  0  0  0  0  0  0
   -2.2524   -0.4273    1.4413 H   0  0  0  0  0  0  0  0  0  0  0  0
   -2.4401    0.6294   -0.9467 H   0  0  0  0  0  0  0  0  0  0  0  0
   -1.5628   -0.9724   -1.1027 H   0  0  0  0  0  0  0  0  0  0  0  0
    0.0624    0.8703   -1.9221 H   0  0  0  0  0  0  0  0  0  0  0  0
    0.7816    2.2246    0.3940 H   0  0  0  0  0  0  0  0  0  0  0  0
  1  2  1  0
  2  3  1  0
  3  4  1  0
  4  5  1  0
  5  6  1  0
  6  7  1  0
  7  8  1  0
  6  2  1  0
  7  2  1  0
  8  4  1  0
  1  9  1  0
  1 10  1  0
  1 11  1  0
  3 12  1  0
  3 13  1  0
  4 14  1  0
  5 15  1  0
  5 16  1  0
  6 17  1  0
  7 18  1  0
M  END
