
     RDKit          3D

 21 22  0  0  0  0  0  0  0  0999 V2000
    2.5424   -0.0075    0.0421 C   0  0  0  0  0  0  0  0  0  0  0  0
    0.9933    0.0507    0.1060 C   0  0  0  0  0  0  0  0  0  0  0  0
    0.4128   -1.2464    0.3689 C   0  0  0  0  0  0  0  0  0  0  0  0
   -0.9666   -1.4017    0.8908 C   0  0  0  0  0  0  0  0  0  0  0  0
   -1.9893   -0.6168    0.1995 C   0  0  0  0  0  0  0  0  0  0  0  0
   -2.0112    0.6730   -0.0276 C   0  0  0  0  0  0  0  0  0  0  0  0
   -0.9603    1.6497    0.3855 C   0  0  0  0  0  0  0  0  0  0  0  0
    0.4077    1.2589   -0.0566 C   0  0  0  0  0  0  0  0  0  0  0  0
    0.4938    0.5315   -1.2401 O   0  0  0  0  0  0  0  0  0  0  0  0
    2.8924   -0.1353   -0.9823 H   0  0  0  0  0  0  0  0  0  0  0  0
    2.8924    0.9373    0.4939 H   0  0  0  0  0  0  0  0  0  0  0  0
    2.9233   -0.8228    0.6874 H   0  0  0  0  0  0  0  0  0  0  0  0
    0.4754   -1.8784   -0.5695 H   0  0  0  0  0  0  0  0  0  0  0  0
    1.0776   -1.8221    1.0866 H   0  0  0  0  0  0  0  0  0  0  0  0
   -1.2263   -2.4801    0.8134 H   0  0  0  0  0  0  0  0  0  0  0  0
   -1.0144   -1.1939    2.0021 H   0  0  0  0  0  0  0  0  0  0  0  0
   -2.8412   -1.1704   -0.1747 H   0  0  0  0  0  0  0  0  0  0  0  0
   -2.8830    1.0296   -0.5648 H   0  0  0  0  0  0  0  0  0  0  0  0
   -1.0130    1.8310    1.4997 H   0  0  0  0  0  0  0  0  0  0  0  0
   -1.2668    2.6278   -0.0616 H   0  0  0  0  0  0  0  0  0  0  0  0
    1.0608    2.1861   -0.1328 H   0  0  0  0  0  0  0  0  0  0  0  0
  1  2  1  0
  2  3  1  0
  3  4  1  0
  4  5  1  0
  5  6  2  0
  6  7  1  0
  7  8  1  0
  8  9  1  0
  8  2  1  0
  9  2  1  0
  1 10  1  0
  1 11  1  0
  1 12  1  0
  3 13  1  0
  3 14  1  0
  4 15  1  0
  4 16  1  0
  5 17  1  0
  6 18  1  0
  7 19  1  0
  7 20  1  0
  8 21  1  0
M  END
