
     RDKit          3D

 19 22  0  0  0  0  0  0  0  0999 V2000
    1.5348    0.0083    1.2779 C   0  0  0  0  0  0  0  0  0  0  0  0
    0.5663   -0.0899    0.2337 C   0  0  0  0  0  0  0  0  0  0  0  0
    0.0209    1.1424   -0.4500 C   0  0  0  0  0  0  0  0  0  0  0  0
   -1.2484    1.3276    0.3125 C   0  0  0  0  0  0  0  0  0  0  0  0
   -1.6536    0.1479    0.8016 C   0  0  0  0  0  0  0  0  0  0  0  0
   -0.6906   -0.9144    0.4060 C   0  0  0  0  0  0  0  0  0  0  0  0
   -0.6474   -1.0716   -1.1223 C   0  0  0  0  0  0  0  0  0  0  0  0
   -0.1749    0.2186   -1.6673 C   0  0  0  0  0  0  0  0  0  0  0  0
    0.7745   -0.6973   -1.0648 C   0  0  0  0  0  0  0  0  0  0  0  0
    1.5029   -0.8727    1.9490 H   0  0  0  0  0  0  0  0  0  0  0  0
    2.5743    0.0649    0.8831 H   0  0  0  0  0  0  0  0  0  0  0  0
    1.3308    0.9020    1.9381 H   0  0  0  0  0  0  0  0  0  0  0  0
    0.6612    1.9833   -0.5838 H   0  0  0  0  0  0  0  0  0  0  0  0
   -1.7821    2.2603    0.4636 H   0  0  0  0  0  0  0  0  0  0  0  0
   -2.5411   -0.0386    1.3974 H   0  0  0  0  0  0  0  0  0  0  0  0
   -0.6421   -1.8072    0.9866 H   0  0  0  0  0  0  0  0  0  0  0  0
   -0.9409   -1.9470   -1.6289 H   0  0  0  0  0  0  0  0  0  0  0  0
   -0.2452    0.5822   -2.6561 H   0  0  0  0  0  0  0  0  0  0  0  0
    1.6006   -1.1988   -1.4762 H   0  0  0  0  0  0  0  0  0  0  0  0
  1  2  1  0
  2  3  1  0
  3  4  1  0
  4  5  2  0
  5  6  1  0
  6  7  1  0
  7  8  1  0
  8  9  1  0
  6  2  1  0
  9  7  1  0
  9  2  1  0
  8  3  1  0
  1 10  1  0
  1 11  1  0
  1 12  1  0
  3 13  1  0
  4 14  1  0
  5 15  1  0
  6 16  1  0
  7 17  1  0
  8 18  1  0
  9 19  1  0
M  END
