
     RDKit          3D

 21 22  0  0  0  0  0  0  0  0999 V2000
   -2.2168    0.6000    0.3704 C   0  0  0  0  0  0  0  0  0  0  0  0
   -0.8684    0.2242    0.0454 C   0  0  0  0  0  0  0  0  0  0  0  0
    0.3072    1.0041    0.5482 C   0  0  0  0  0  0  0  0  0  0  0  0
    1.4366    0.2523   -0.1866 C   0  0  0  0  0  0  0  0  0  0  0  0
    2.4848   -0.1918    0.7496 C   0  0  0  0  0  0  0  0  0  0  0  0
    2.7712   -1.3442    0.9864 O   0  0  0  0  0  0  0  0  0  0  0  0
    0.6358   -0.8461   -0.7860 C   0  0  0  0  0  0  0  0  0  0  0  0
   -0.4124   -1.2095    0.2754 C   0  0  0  0  0  0  0  0  0  0  0  0
   -0.5144   -0.0510   -1.4235 C   0  0  0  0  0  0  0  0  0  0  0  0
   -2.3287    1.3207    1.1819 H   0  0  0  0  0  0  0  0  0  0  0  0
   -2.8204   -0.3077    0.6604 H   0  0  0  0  0  0  0  0  0  0  0  0
   -2.7482    1.0397   -0.5221 H   0  0  0  0  0  0  0  0  0  0  0  0
    0.3390    2.0457    0.2367 H   0  0  0  0  0  0  0  0  0  0  0  0
    0.5013    0.8467    1.6362 H   0  0  0  0  0  0  0  0  0  0  0  0
    1.8514    0.8848   -1.0003 H   0  0  0  0  0  0  0  0  0  0  0  0
    3.0423    0.5820    1.2661 H   0  0  0  0  0  0  0  0  0  0  0  0
    1.0683   -1.6265   -1.3468 H   0  0  0  0  0  0  0  0  0  0  0  0
    0.0354   -1.3998    1.2595 H   0  0  0  0  0  0  0  0  0  0  0  0
   -1.1077   -1.9698   -0.1038 H   0  0  0  0  0  0  0  0  0  0  0  0
   -0.1618    0.8159   -1.9783 H   0  0  0  0  0  0  0  0  0  0  0  0
   -1.2944   -0.6697   -1.8685 H   0  0  0  0  0  0  0  0  0  0  0  0
  1  2  1  0
  2  3  1  0
  3  4  1  0
  4  5  1  0
  5  6  2  0
  4  7  1  0
  7  8  1  0
  7  9  1  0
  8  2  1  0
  9  2  1  0
  1 10  1  0
  1 11  1  0
  1 12  1  0
  3 13  1  0
  3 14  1  0
  4 15  1  0
  5 16  1  0
  7 17  1  0
  8 18  1  0
  8 19  1  0
  9 20  1  0
  9 21  1  0
M  END
