
     RDKit          3D

 21 22  0  0  0  0  0  0  0  0999 V2000
    2.0378    0.3410   -0.3711 C   0  0  0  0  0  0  0  0  0  0  0  0
    0.6166    0.0826   -0.0631 C   0  0  0  0  0  0  0  0  0  0  0  0
   -0.3552    1.0568   -0.6702 C   0  0  0  0  0  0  0  0  0  0  0  0
   -1.7384    0.7717   -0.2173 C   0  0  0  0  0  0  0  0  0  0  0  0
   -2.0778   -0.5343   -0.0769 O   0  0  0  0  0  0  0  0  0  0  0  0
   -1.1132   -1.3854    0.3632 C   0  0  0  0  0  0  0  0  0  0  0  0
    0.1423   -1.3056   -0.5200 C   0  0  0  0  0  0  0  0  0  0  0  0
   -0.5727   -1.0487    1.5985 O   0  0  0  0  0  0  0  0  0  0  0  0
    0.2993    0.0039    1.4148 C   0  0  0  0  0  0  0  0  0  0  0  0
    2.5017    1.0055    0.4041 H   0  0  0  0  0  0  0  0  0  0  0  0
    2.6417   -0.5970   -0.3407 H   0  0  0  0  0  0  0  0  0  0  0  0
    2.1687    0.8366   -1.3470 H   0  0  0  0  0  0  0  0  0  0  0  0
   -0.3144    0.9120   -1.7751 H   0  0  0  0  0  0  0  0  0  0  0  0
   -0.0834    2.1079   -0.3996 H   0  0  0  0  0  0  0  0  0  0  0  0
   -2.4403    1.2256   -0.9781 H   0  0  0  0  0  0  0  0  0  0  0  0
   -1.9368    1.3777    0.7133 H   0  0  0  0  0  0  0  0  0  0  0  0
   -1.4598   -2.4151    0.3175 H   0  0  0  0  0  0  0  0  0  0  0  0
    0.8490   -2.0892   -0.2640 H   0  0  0  0  0  0  0  0  0  0  0  0
   -0.1315   -1.2249   -1.5749 H   0  0  0  0  0  0  0  0  0  0  0  0
   -0.2475    0.9280    1.7648 H   0  0  0  0  0  0  0  0  0  0  0  0
    1.2140   -0.0492    2.0218 H   0  0  0  0  0  0  0  0  0  0  0  0
  1  2  1  0
  2  3  1  0
  3  4  1  0
  4  5  1  0
  5  6  1  0
  6  7  1  0
  6  8  1  0
  8  9  1  0
  7  2  1  0
  9  2  1  0
  1 10  1  0
  1 11  1  0
  1 12  1  0
  3 13  1  0
  3 14  1  0
  4 15  1  0
  4 16  1  0
  6 17  1  0
  7 18  1  0
  7 19  1  0
  9 20  1  0
  9 21  1  0
M  END
