
     RDKit          3D

 19 20  0  0  0  0  0  0  0  0999 V2000
   -2.1666   -0.0809    0.6126 C   0  0  0  0  0  0  0  0  0  0  0  0
   -0.7096   -0.0294    0.2598 C   0  0  0  0  0  0  0  0  0  0  0  0
   -0.1516    1.3475    0.0130 C   0  0  0  0  0  0  0  0  0  0  0  0
    1.3229    1.2431   -0.0901 C   0  0  0  0  0  0  0  0  0  0  0  0
    2.0494    2.1893   -0.2522 O   0  0  0  0  0  0  0  0  0  0  0  0
    1.9438   -0.1024    0.0116 C   0  0  0  0  0  0  0  0  0  0  0  0
    0.8974   -1.1542    0.1679 C   0  0  0  0  0  0  0  0  0  0  0  0
   -0.2610   -1.0098   -0.7794 C   0  0  0  0  0  0  0  0  0  0  0  0
    0.0357   -0.7398    1.1984 O   0  0  0  0  0  0  0  0  0  0  0  0
   -2.7205   -0.8606    0.0452 H   0  0  0  0  0  0  0  0  0  0  0  0
   -2.3250   -0.3085    1.7013 H   0  0  0  0  0  0  0  0  0  0  0  0
   -2.6031    0.9092    0.3621 H   0  0  0  0  0  0  0  0  0  0  0  0
   -0.5112    1.7368   -0.9594 H   0  0  0  0  0  0  0  0  0  0  0  0
   -0.3965    1.9740    0.8682 H   0  0  0  0  0  0  0  0  0  0  0  0
    2.5570   -0.0814    0.9576 H   0  0  0  0  0  0  0  0  0  0  0  0
    2.6620   -0.3045   -0.8021 H   0  0  0  0  0  0  0  0  0  0  0  0
    1.3203   -2.1595    0.2861 H   0  0  0  0  0  0  0  0  0  0  0  0
   -0.0494   -0.6336   -1.7789 H   0  0  0  0  0  0  0  0  0  0  0  0
   -0.8941   -1.9353   -0.7272 H   0  0  0  0  0  0  0  0  0  0  0  0
  1  2  1  0
  2  3  1  0
  3  4  1  0
  4  5  2  0
  4  6  1  0
  6  7  1  0
  7  8  1  0
  7  9  1  0
  8  2  1  0
  9  2  1  0
  1 10  1  0
  1 11  1  0
  1 12  1  0
  3 13  1  0
  3 14  1  0
  6 15  1  0
  6 16  1  0
  7 17  1  0
  8 18  1  0
  8 19  1  0
M  END
