
     RDKit          3D

 19 20  0  0  0  0  0  0  0  0999 V2000
   -2.1907    0.5709    0.5046 C   0  0  0  0  0  0  0  0  0  0  0  0
   -0.8814    0.0512    0.1777 C   0  0  0  0  0  0  0  0  0  0  0  0
    0.2672    1.0298   -0.0373 C   0  0  0  0  0  0  0  0  0  0  0  0
    1.3188   -0.0172   -0.4428 C   0  0  0  0  0  0  0  0  0  0  0  0
    2.5732    0.1326    0.2624 C   0  0  0  0  0  0  0  0  0  0  0  0
    3.0670    1.2148    0.4868 O   0  0  0  0  0  0  0  0  0  0  0  0
    0.5121   -1.2293   -0.0661 C   0  0  0  0  0  0  0  0  0  0  0  0
   -0.7311   -1.0077   -0.8809 C   0  0  0  0  0  0  0  0  0  0  0  0
   -0.2588   -0.8468    1.0563 O   0  0  0  0  0  0  0  0  0  0  0  0
   -2.8642    0.5194   -0.4012 H   0  0  0  0  0  0  0  0  0  0  0  0
   -2.7426    0.0136    1.2958 H   0  0  0  0  0  0  0  0  0  0  0  0
   -2.1905    1.6558    0.7807 H   0  0  0  0  0  0  0  0  0  0  0  0
    0.0769    1.7516   -0.8187 H   0  0  0  0  0  0  0  0  0  0  0  0
    0.5941    1.4790    0.9384 H   0  0  0  0  0  0  0  0  0  0  0  0
    1.3798    0.0130   -1.5473 H   0  0  0  0  0  0  0  0  0  0  0  0
    3.0936   -0.7453    0.6040 H   0  0  0  0  0  0  0  0  0  0  0  0
    0.9702   -2.1881   -0.0467 H   0  0  0  0  0  0  0  0  0  0  0  0
   -0.4841   -0.6413   -1.8902 H   0  0  0  0  0  0  0  0  0  0  0  0
   -1.5096   -1.7561   -0.7960 H   0  0  0  0  0  0  0  0  0  0  0  0
  1  2  1  0
  2  3  1  0
  3  4  1  0
  4  5  1  0
  5  6  2  0
  4  7  1  0
  7  8  1  0
  7  9  1  0
  8  2  1  0
  9  2  1  0
  1 10  1  0
  1 11  1  0
  1 12  1  0
  3 13  1  0
  3 14  1  0
  4 15  1  0
  5 16  1  0
  7 17  1  0
  8 18  1  0
  8 19  1  0
M  END
