
     RDKit          3D

 21 23  0  0  0  0  0  0  0  0999 V2000
    1.3723    1.6881   -0.4212 C   0  0  0  0  0  0  0  0  0  0  0  0
    0.6128    0.4885   -0.0183 C   0  0  0  0  0  0  0  0  0  0  0  0
   -0.5423    0.6644    0.9166 C   0  0  0  0  0  0  0  0  0  0  0  0
   -1.6293   -0.2087    0.3287 C   0  0  0  0  0  0  0  0  0  0  0  0
   -2.4162   -0.8062    1.2840 O   0  0  0  0  0  0  0  0  0  0  0  0
   -0.9281   -1.1816   -0.5729 C   0  0  0  0  0  0  0  0  0  0  0  0
    0.4837   -1.5667   -0.3687 C   0  0  0  0  0  0  0  0  0  0  0  0
    1.4335   -0.7163    0.4254 C   0  0  0  0  0  0  0  0  0  0  0  0
    0.1364   -0.3703   -1.1496 C   0  0  0  0  0  0  0  0  0  0  0  0
    1.3472    1.7868   -1.5412 H   0  0  0  0  0  0  0  0  0  0  0  0
    2.4186    1.5880   -0.0713 H   0  0  0  0  0  0  0  0  0  0  0  0
    0.9020    2.6272   -0.0452 H   0  0  0  0  0  0  0  0  0  0  0  0
   -0.8340    1.7293    0.9692 H   0  0  0  0  0  0  0  0  0  0  0  0
   -0.2908    0.3573    1.9555 H   0  0  0  0  0  0  0  0  0  0  0  0
   -2.2298    0.4695   -0.3446 H   0  0  0  0  0  0  0  0  0  0  0  0
   -3.3271   -0.4078    1.2602 H   0  0  0  0  0  0  0  0  0  0  0  0
   -1.5532   -1.8815   -1.1198 H   0  0  0  0  0  0  0  0  0  0  0  0
    0.8416   -2.4967   -0.8058 H   0  0  0  0  0  0  0  0  0  0  0  0
    2.4548   -0.6249    0.0100 H   0  0  0  0  0  0  0  0  0  0  0  0
    1.3999   -0.9452    1.4868 H   0  0  0  0  0  0  0  0  0  0  0  0
    0.3478   -0.1933   -2.1778 H   0  0  0  0  0  0  0  0  0  0  0  0
  1  2  1  0
  2  3  1  0
  3  4  1  0
  4  5  1  0
  4  6  1  0
  6  7  1  0
  7  8  1  0
  7  9  1  0
  8  2  1  0
  9  2  1  0
  9  6  1  0
  1 10  1  0
  1 11  1  0
  1 12  1  0
  3 13  1  0
  3 14  1  0
  4 15  1  0
  5 16  1  0
  6 17  1  0
  7 18  1  0
  8 19  1  0
  8 20  1  0
  9 21  1  0
M  END
