
     RDKit          3D

 17 20  0  0  0  0  0  0  0  0999 V2000
    2.0735    0.4962   -0.0890 C   0  0  0  0  0  0  0  0  0  0  0  0
    0.6276    0.3617   -0.0024 C   0  0  0  0  0  0  0  0  0  0  0  0
   -0.1809    1.4491    0.0758 O   0  0  0  0  0  0  0  0  0  0  0  0
   -1.4865    0.9174    0.1255 C   0  0  0  0  0  0  0  0  0  0  0  0
   -1.4058   -0.3404    0.8484 C   0  0  0  0  0  0  0  0  0  0  0  0
   -1.4995   -0.2543   -0.7143 C   0  0  0  0  0  0  0  0  0  0  0  0
   -0.0549   -0.5854   -0.9889 C   0  0  0  0  0  0  0  0  0  0  0  0
    0.3561   -1.6063   -0.1216 O   0  0  0  0  0  0  0  0  0  0  0  0
    0.0539   -0.7015    0.9137 C   0  0  0  0  0  0  0  0  0  0  0  0
    2.4575    0.5339   -1.1494 H   0  0  0  0  0  0  0  0  0  0  0  0
    2.4012    1.4525    0.3647 H   0  0  0  0  0  0  0  0  0  0  0  0
    2.6582   -0.3001    0.4459 H   0  0  0  0  0  0  0  0  0  0  0  0
   -2.3262    1.6305    0.2447 H   0  0  0  0  0  0  0  0  0  0  0  0
   -2.1727   -0.8613    1.3733 H   0  0  0  0  0  0  0  0  0  0  0  0
   -2.3187   -0.7409   -1.1974 H   0  0  0  0  0  0  0  0  0  0  0  0
    0.3013   -0.5937   -1.9927 H   0  0  0  0  0  0  0  0  0  0  0  0
    0.5160   -0.8573    1.8636 H   0  0  0  0  0  0  0  0  0  0  0  0
  1  2  1  0
  2  3  1  0
  3  4  1  0
  4  5  1  0
  5  6  1  0
  6  7  1  0
  7  8  1  0
  8  9  1  0
  7  2  1  0
  9  2  1  0
  6  4  1  0
  9  5  1  0
  1 10  1  0
  1 11  1  0
  1 12  1  0
  4 13  1  0
  5 14  1  0
  6 15  1  0
  7 16  1  0
  9 17  1  0
M  END
