
     RDKit          3D

 23 24  0  0  0  0  0  0  0  0999 V2000
   -1.9188    1.3916   -0.4515 C   0  0  0  0  0  0  0  0  0  0  0  0
   -1.2246    0.2190   -0.3009 C   0  0  0  0  0  0  0  0  0  0  0  0
   -1.2816   -0.7118    0.8882 C   0  0  0  0  0  0  0  0  0  0  0  0
   -0.3855   -1.4111   -0.0494 C   0  0  0  0  0  0  0  0  0  0  0  0
   -1.4183   -1.0456   -1.1080 C   0  0  0  0  0  0  0  0  0  0  0  0
    0.2088   -0.0737   -0.3878 C   0  0  0  0  0  0  0  0  0  0  0  0
    1.1803    0.5212    0.5575 C   0  0  0  0  0  0  0  0  0  0  0  0
    2.5691   -0.0068    0.1564 C   0  0  0  0  0  0  0  0  0  0  0  0
    2.8510    0.3744   -1.1414 O   0  0  0  0  0  0  0  0  0  0  0  0
   -1.3298    2.3037   -0.2220 H   0  0  0  0  0  0  0  0  0  0  0  0
   -2.3419    1.5555   -1.4637 H   0  0  0  0  0  0  0  0  0  0  0  0
   -2.8133    1.4578    0.2377 H   0  0  0  0  0  0  0  0  0  0  0  0
   -2.2868   -1.1901    0.9271 H   0  0  0  0  0  0  0  0  0  0  0  0
   -0.9092   -0.3141    1.8333 H   0  0  0  0  0  0  0  0  0  0  0  0
    0.0839   -2.2870    0.0206 H   0  0  0  0  0  0  0  0  0  0  0  0
   -2.4248   -1.4595   -0.9422 H   0  0  0  0  0  0  0  0  0  0  0  0
   -1.0411   -1.0157   -2.1323 H   0  0  0  0  0  0  0  0  0  0  0  0
    0.5566   -0.0566   -1.4650 H   0  0  0  0  0  0  0  0  0  0  0  0
    1.2562    1.6182    0.5100 H   0  0  0  0  0  0  0  0  0  0  0  0
    1.0301    0.1350    1.5740 H   0  0  0  0  0  0  0  0  0  0  0  0
    3.3056    0.3574    0.8938 H   0  0  0  0  0  0  0  0  0  0  0  0
    2.5746   -1.1151    0.1988 H   0  0  0  0  0  0  0  0  0  0  0  0
    3.7595    0.7532   -1.1795 H   0  0  0  0  0  0  0  0  0  0  0  0
  1  2  1  0
  2  3  1  0
  3  4  1  0
  4  5  1  0
  4  6  1  0
  6  7  1  0
  7  8  1  0
  8  9  1  0
  5  2  1  0
  6  2  1  0
  1 10  1  0
  1 11  1  0
  1 12  1  0
  3 13  1  0
  3 14  1  0
  4 15  1  0
  5 16  1  0
  5 17  1  0
  6 18  1  0
  7 19  1  0
  7 20  1  0
  8 21  1  0
  8 22  1  0
  9 23  1  0
M  END
