
     RDKit          3D

 19 21  0  0  0  0  0  0  0  0999 V2000
   -2.3409    1.0990    0.3300 C   0  0  0  0  0  0  0  0  0  0  0  0
   -1.2163    0.1596   -0.0095 C   0  0  0  0  0  0  0  0  0  0  0  0
    0.1384    0.7263   -0.2765 C   0  0  0  0  0  0  0  0  0  0  0  0
    1.1528   -0.3655   -0.0345 C   0  0  0  0  0  0  0  0  0  0  0  0
    2.5814    0.0485    0.1975 C   0  0  0  0  0  0  0  0  0  0  0  0
    1.0406   -1.5524   -0.7798 O   0  0  0  0  0  0  0  0  0  0  0  0
    0.4739   -1.4498    0.5351 C   0  0  0  0  0  0  0  0  0  0  0  0
   -1.0146   -1.1313    0.5753 C   0  0  0  0  0  0  0  0  0  0  0  0
   -1.6362   -1.0037   -0.6540 O   0  0  0  0  0  0  0  0  0  0  0  0
   -3.1481    0.9883   -0.4456 H   0  0  0  0  0  0  0  0  0  0  0  0
   -2.0592    2.1517    0.3641 H   0  0  0  0  0  0  0  0  0  0  0  0
   -2.8412    0.8201    1.2919 H   0  0  0  0  0  0  0  0  0  0  0  0
    0.2282    1.2018   -1.2560 H   0  0  0  0  0  0  0  0  0  0  0  0
    0.3305    1.5057    0.5070 H   0  0  0  0  0  0  0  0  0  0  0  0
    3.3065   -0.5513   -0.4198 H   0  0  0  0  0  0  0  0  0  0  0  0
    2.7876    1.0992   -0.0380 H   0  0  0  0  0  0  0  0  0  0  0  0
    2.9052   -0.1168    1.2504 H   0  0  0  0  0  0  0  0  0  0  0  0
    0.8742   -2.2044    1.2507 H   0  0  0  0  0  0  0  0  0  0  0  0
   -1.5627   -1.4250    1.4716 H   0  0  0  0  0  0  0  0  0  0  0  0
  1  2  1  0
  2  3  1  0
  3  4  1  0
  4  5  1  0
  4  6  1  0
  6  7  1  0
  7  8  1  0
  8  9  1  0
  8  2  1  0
  9  2  1  0
  7  4  1  0
  1 10  1  0
  1 11  1  0
  1 12  1  0
  3 13  1  0
  3 14  1  0
  5 15  1  0
  5 16  1  0
  5 17  1  0
  7 18  1  0
  8 19  1  0
M  END
