
     RDKit          3D

 19 20  0  0  0  0  0  0  0  0999 V2000
   -1.3452   -1.2877   -0.1961 C   0  0  0  0  0  0  0  0  0  0  0  0
   -1.0066   -0.0225    0.6092 C   0  0  0  0  0  0  0  0  0  0  0  0
   -0.7545   -0.2818    1.8597 O   0  0  0  0  0  0  0  0  0  0  0  0
    0.3967   -0.0468    1.2963 C   0  0  0  0  0  0  0  0  0  0  0  0
    1.0829   -0.5568    0.0785 C   0  0  0  0  0  0  0  0  0  0  0  0
    2.4695   -0.3906    0.2646 O   0  0  0  0  0  0  0  0  0  0  0  0
    0.6151    0.5065   -0.9349 C   0  0  0  0  0  0  0  0  0  0  0  0
   -0.6484    1.1031   -0.2965 C   0  0  0  0  0  0  0  0  0  0  0  0
   -0.2847    2.2607    0.3389 O   0  0  0  0  0  0  0  0  0  0  0  0
   -1.0315   -2.2048    0.2933 H   0  0  0  0  0  0  0  0  0  0  0  0
   -2.4751   -1.2944   -0.2260 H   0  0  0  0  0  0  0  0  0  0  0  0
   -1.0175   -1.2462   -1.2317 H   0  0  0  0  0  0  0  0  0  0  0  0
    0.8199    0.9672    1.5782 H   0  0  0  0  0  0  0  0  0  0  0  0
    0.8320   -1.5616   -0.2322 H   0  0  0  0  0  0  0  0  0  0  0  0
    2.9786   -1.1959    0.0417 H   0  0  0  0  0  0  0  0  0  0  0  0
    0.4012    0.0471   -1.9143 H   0  0  0  0  0  0  0  0  0  0  0  0
    1.3807    1.2973   -1.0362 H   0  0  0  0  0  0  0  0  0  0  0  0
   -1.3883    1.2131   -1.0942 H   0  0  0  0  0  0  0  0  0  0  0  0
   -1.0247    2.6941    0.8016 H   0  0  0  0  0  0  0  0  0  0  0  0
  1  2  1  0
  2  3  1  0
  3  4  1  0
  4  5  1  0
  5  6  1  0
  5  7  1  0
  7  8  1  0
  8  9  1  0
  4  2  1  0
  8  2  1  0
  1 10  1  0
  1 11  1  0
  1 12  1  0
  4 13  1  0
  5 14  1  0
  6 15  1  0
  7 16  1  0
  7 17  1  0
  8 18  1  0
  9 19  1  0
M  END
