
     RDKit          3D

 19 21  0  0  0  0  0  0  0  0999 V2000
   -1.7803    0.9572    0.1498 C   0  0  0  0  0  0  0  0  0  0  0  0
   -0.5352    0.1983   -0.0861 C   0  0  0  0  0  0  0  0  0  0  0  0
    0.3414    0.6366   -1.2322 C   0  0  0  0  0  0  0  0  0  0  0  0
    1.7280    0.4868   -0.7518 C   0  0  0  0  0  0  0  0  0  0  0  0
    2.7202    0.9369   -1.2460 O   0  0  0  0  0  0  0  0  0  0  0  0
    1.6921   -0.3360    0.4788 C   0  0  0  0  0  0  0  0  0  0  0  0
    0.6329   -1.3372    0.7028 C   0  0  0  0  0  0  0  0  0  0  0  0
   -0.6509   -1.3089   -0.0964 C   0  0  0  0  0  0  0  0  0  0  0  0
    0.4017    0.0546    1.0728 C   0  0  0  0  0  0  0  0  0  0  0  0
   -2.0317    0.8655    1.2467 H   0  0  0  0  0  0  0  0  0  0  0  0
   -2.6413    0.6354   -0.4773 H   0  0  0  0  0  0  0  0  0  0  0  0
   -1.5952    2.0272   -0.0636 H   0  0  0  0  0  0  0  0  0  0  0  0
    0.0922    1.6468   -1.5810 H   0  0  0  0  0  0  0  0  0  0  0  0
    0.1916   -0.0399   -2.1221 H   0  0  0  0  0  0  0  0  0  0  0  0
    2.5538   -0.3756    1.1430 H   0  0  0  0  0  0  0  0  0  0  0  0
    0.7819   -2.1028    1.4482 H   0  0  0  0  0  0  0  0  0  0  0  0
   -1.5610   -1.6355    0.4756 H   0  0  0  0  0  0  0  0  0  0  0  0
   -0.5770   -1.7691   -1.1076 H   0  0  0  0  0  0  0  0  0  0  0  0
    0.2367    0.4595    2.0465 H   0  0  0  0  0  0  0  0  0  0  0  0
  1  2  1  0
  2  3  1  0
  3  4  1  0
  4  5  2  0
  4  6  1  0
  6  7  1  0
  7  8  1  0
  7  9  1  0
  8  2  1  0
  9  2  1  0
  9  6  1  0
  1 10  1  0
  1 11  1  0
  1 12  1  0
  3 13  1  0
  3 14  1  0
  6 15  1  0
  7 16  1  0
  8 17  1  0
  8 18  1  0
  9 19  1  0
M  END
