
     RDKit          3D

 21 23  0  0  0  0  0  0  0  0999 V2000
    1.9838    0.1299    0.8716 C   0  0  0  0  0  0  0  0  0  0  0  0
    0.7862   -0.3440    0.0399 C   0  0  0  0  0  0  0  0  0  0  0  0
    0.8704   -1.7218   -0.4412 C   0  0  0  0  0  0  0  0  0  0  0  0
   -0.1162   -1.2759    0.6696 C   0  0  0  0  0  0  0  0  0  0  0  0
   -1.4011   -1.3448    0.3284 O   0  0  0  0  0  0  0  0  0  0  0  0
   -2.0586   -0.2633   -0.1249 C   0  0  0  0  0  0  0  0  0  0  0  0
   -1.2916    0.8442   -0.7120 C   0  0  0  0  0  0  0  0  0  0  0  0
   -0.5213    1.8155    0.1704 C   0  0  0  0  0  0  0  0  0  0  0  0
    0.1531    0.7678   -0.7267 C   0  0  0  0  0  0  0  0  0  0  0  0
    1.6619    1.0777    1.3591 H   0  0  0  0  0  0  0  0  0  0  0  0
    2.7695    0.4289    0.1264 H   0  0  0  0  0  0  0  0  0  0  0  0
    2.3232   -0.6109    1.5844 H   0  0  0  0  0  0  0  0  0  0  0  0
    0.4459   -2.0569   -1.3929 H   0  0  0  0  0  0  0  0  0  0  0  0
    1.7190   -2.3637   -0.0983 H   0  0  0  0  0  0  0  0  0  0  0  0
    0.1468   -1.6577    1.6938 H   0  0  0  0  0  0  0  0  0  0  0  0
   -2.8273   -0.6131   -0.8693 H   0  0  0  0  0  0  0  0  0  0  0  0
   -2.6829    0.1524    0.7211 H   0  0  0  0  0  0  0  0  0  0  0  0
   -1.7728    1.3837   -1.5788 H   0  0  0  0  0  0  0  0  0  0  0  0
   -0.5786    1.6330    1.2467 H   0  0  0  0  0  0  0  0  0  0  0  0
   -0.3823    2.8523   -0.1359 H   0  0  0  0  0  0  0  0  0  0  0  0
    0.7728    1.1668   -1.5527 H   0  0  0  0  0  0  0  0  0  0  0  0
  1  2  1  0
  2  3  1  0
  3  4  1  0
  4  5  1  0
  5  6  1  0
  6  7  1  0
  7  8  1  0
  8  9  1  0
  4  2  1  0
  9  7  1  0
  9  2  1  0
  1 10  1  0
  1 11  1  0
  1 12  1  0
  3 13  1  0
  3 14  1  0
  4 15  1  0
  6 16  1  0
  6 17  1  0
  7 18  1  0
  8 19  1  0
  8 20  1  0
  9 21  1  0
M  END
