
     RDKit          3D

 17 19  0  0  0  0  0  0  0  0999 V2000
   -1.9712    0.4274   -0.1645 C   0  0  0  0  0  0  0  0  0  0  0  0
   -0.5483    0.1807    0.1391 C   0  0  0  0  0  0  0  0  0  0  0  0
    0.3453    1.3828    0.2101 C   0  0  0  0  0  0  0  0  0  0  0  0
    1.5657    1.0717   -0.1780 C   0  0  0  0  0  0  0  0  0  0  0  0
    1.6112   -0.3667   -0.5469 C   0  0  0  0  0  0  0  0  0  0  0  0
    0.9351   -1.2587    0.4431 C   0  0  0  0  0  0  0  0  0  0  0  0
   -0.2250   -0.7666    1.2291 C   0  0  0  0  0  0  0  0  0  0  0  0
   -0.6598   -1.0714    2.3146 O   0  0  0  0  0  0  0  0  0  0  0  0
    0.2137   -0.6942   -0.8018 C   0  0  0  0  0  0  0  0  0  0  0  0
   -2.6806   -0.2529    0.3215 H   0  0  0  0  0  0  0  0  0  0  0  0
   -2.1395    0.3477   -1.2772 H   0  0  0  0  0  0  0  0  0  0  0  0
   -2.2691    1.4870    0.0760 H   0  0  0  0  0  0  0  0  0  0  0  0
   -0.0403    2.3350    0.5449 H   0  0  0  0  0  0  0  0  0  0  0  0
    2.4107    1.7303   -0.2296 H   0  0  0  0  0  0  0  0  0  0  0  0
    2.4414   -0.7837   -1.0941 H   0  0  0  0  0  0  0  0  0  0  0  0
    1.2138   -2.3110    0.4352 H   0  0  0  0  0  0  0  0  0  0  0  0
   -0.2031   -1.4575   -1.4215 H   0  0  0  0  0  0  0  0  0  0  0  0
  1  2  1  0
  2  3  1  0
  3  4  2  0
  4  5  1  0
  5  6  1  0
  6  7  1  0
  7  8  2  0
  6  9  1  0
  7  2  1  0
  9  2  1  0
  9  5  1  0
  1 10  1  0
  1 11  1  0
  1 12  1  0
  3 13  1  0
  4 14  1  0
  5 15  1  0
  6 16  1  0
  9 17  1  0
M  END
