
     RDKit          3D

 17 19  0  0  0  0  0  0  0  0999 V2000
    2.4112   -0.4998   -0.2716 C   0  0  0  0  0  0  0  0  0  0  0  0
    0.9968   -0.1862    0.0584 C   0  0  0  0  0  0  0  0  0  0  0  0
    0.6401    1.1561    0.5851 C   0  0  0  0  0  0  0  0  0  0  0  0
   -0.6466    1.4261    0.4019 C   0  0  0  0  0  0  0  0  0  0  0  0
   -1.2505    0.2858   -0.2613 C   0  0  0  0  0  0  0  0  0  0  0  0
   -2.5372   -0.3213    0.2992 C   0  0  0  0  0  0  0  0  0  0  0  0
   -2.4137    0.3198   -0.9543 O   0  0  0  0  0  0  0  0  0  0  0  0
   -0.1743   -0.7173   -0.5060 C   0  0  0  0  0  0  0  0  0  0  0  0
    0.3228   -1.3077    0.6669 O   0  0  0  0  0  0  0  0  0  0  0  0
    2.8993   -1.0428    0.5876 H   0  0  0  0  0  0  0  0  0  0  0  0
    2.4226   -1.1480   -1.1821 H   0  0  0  0  0  0  0  0  0  0  0  0
    3.0182    0.3927   -0.4617 H   0  0  0  0  0  0  0  0  0  0  0  0
    1.3450    1.8150    1.0531 H   0  0  0  0  0  0  0  0  0  0  0  0
   -1.1294    2.3451    0.7057 H   0  0  0  0  0  0  0  0  0  0  0  0
   -2.9320    0.2430    1.1497 H   0  0  0  0  0  0  0  0  0  0  0  0
   -2.6626   -1.4147    0.2764 H   0  0  0  0  0  0  0  0  0  0  0  0
   -0.3097   -1.3458   -1.3959 H   0  0  0  0  0  0  0  0  0  0  0  0
  1  2  1  0
  2  3  1  0
  3  4  2  0
  4  5  1  0
  5  6  1  0
  6  7  1  0
  5  8  1  0
  8  9  1  0
  8  2  1  0
  9  2  1  0
  7  5  1  0
  1 10  1  0
  1 11  1  0
  1 12  1  0
  3 13  1  0
  4 14  1  0
  6 15  1  0
  6 16  1  0
  8 17  1  0
M  END
