
     RDKit          3D

 21 22  0  0  0  0  0  0  0  0999 V2000
   -2.2045    0.0679    0.4792 C   0  0  0  0  0  0  0  0  0  0  0  0
   -0.7905    0.0602    0.0182 C   0  0  0  0  0  0  0  0  0  0  0  0
   -0.2109    1.3783   -0.2438 C   0  0  0  0  0  0  0  0  0  0  0  0
    1.0966    1.5013   -0.3382 C   0  0  0  0  0  0  0  0  0  0  0  0
    2.0540    0.3961   -0.0620 C   0  0  0  0  0  0  0  0  0  0  0  0
    1.3052   -0.9359    0.0682 C   0  0  0  0  0  0  0  0  0  0  0  0
    0.1406   -0.6345    1.0244 C   0  0  0  0  0  0  0  0  0  0  0  0
    0.7501   -1.2175   -1.1514 O   0  0  0  0  0  0  0  0  0  0  0  0
   -0.5819   -0.9028   -1.1522 C   0  0  0  0  0  0  0  0  0  0  0  0
   -2.4979   -1.0093    0.6430 H   0  0  0  0  0  0  0  0  0  0  0  0
   -2.8279    0.5169   -0.2901 H   0  0  0  0  0  0  0  0  0  0  0  0
   -2.3071    0.6418    1.3982 H   0  0  0  0  0  0  0  0  0  0  0  0
   -0.8232    2.2596   -0.3631 H   0  0  0  0  0  0  0  0  0  0  0  0
    1.5153    2.4546   -0.6323 H   0  0  0  0  0  0  0  0  0  0  0  0
    2.6453    0.6213    0.8313 H   0  0  0  0  0  0  0  0  0  0  0  0
    2.7603    0.2940   -0.9137 H   0  0  0  0  0  0  0  0  0  0  0  0
    1.9787   -1.6972    0.4691 H   0  0  0  0  0  0  0  0  0  0  0  0
    0.4109    0.0888    1.7914 H   0  0  0  0  0  0  0  0  0  0  0  0
   -0.3114   -1.5701    1.3982 H   0  0  0  0  0  0  0  0  0  0  0  0
   -0.9563   -0.4811   -2.0938 H   0  0  0  0  0  0  0  0  0  0  0  0
   -1.1453   -1.8325   -0.8807 H   0  0  0  0  0  0  0  0  0  0  0  0
  1  2  1  0
  2  3  1  0
  3  4  2  0
  4  5  1  0
  5  6  1  0
  6  7  1  0
  6  8  1  0
  8  9  1  0
  7  2  1  0
  9  2  1  0
  1 10  1  0
  1 11  1  0
  1 12  1  0
  3 13  1  0
  4 14  1  0
  5 15  1  0
  5 16  1  0
  6 17  1  0
  7 18  1  0
  7 19  1  0
  9 20  1  0
  9 21  1  0
M  END
