
     RDKit          3D

 19 21  0  0  0  0  0  0  0  0999 V2000
    2.3451   -0.4433   -0.2817 C   0  0  0  0  0  0  0  0  0  0  0  0
    0.8508   -0.2126   -0.3519 C   0  0  0  0  0  0  0  0  0  0  0  0
    0.1369   -1.2226   -0.9080 O   0  0  0  0  0  0  0  0  0  0  0  0
   -1.0329   -1.4370   -0.1979 C   0  0  0  0  0  0  0  0  0  0  0  0
   -1.2078   -0.2646    0.7329 C   0  0  0  0  0  0  0  0  0  0  0  0
   -1.8830    0.8053   -0.0185 C   0  0  0  0  0  0  0  0  0  0  0  0
   -0.9797    1.6111   -0.5532 C   0  0  0  0  0  0  0  0  0  0  0  0
    0.3807    1.1729   -0.2210 C   0  0  0  0  0  0  0  0  0  0  0  0
    0.1874    0.2285    0.8986 C   0  0  0  0  0  0  0  0  0  0  0  0
    2.9173    0.4895   -0.5348 H   0  0  0  0  0  0  0  0  0  0  0  0
    2.5674   -0.7593    0.7638 H   0  0  0  0  0  0  0  0  0  0  0  0
    2.6895   -1.2327   -0.9652 H   0  0  0  0  0  0  0  0  0  0  0  0
   -1.0668   -2.3763    0.3520 H   0  0  0  0  0  0  0  0  0  0  0  0
   -1.8554   -1.4532   -0.9570 H   0  0  0  0  0  0  0  0  0  0  0  0
   -1.6851   -0.5172    1.6839 H   0  0  0  0  0  0  0  0  0  0  0  0
   -2.9788    0.8783   -0.0930 H   0  0  0  0  0  0  0  0  0  0  0  0
   -1.2420    2.4697   -1.1504 H   0  0  0  0  0  0  0  0  0  0  0  0
    1.1704    1.9587   -0.0551 H   0  0  0  0  0  0  0  0  0  0  0  0
    0.6860    0.3048    1.8566 H   0  0  0  0  0  0  0  0  0  0  0  0
  1  2  1  0
  2  3  1  0
  3  4  1  0
  4  5  1  0
  5  6  1  0
  6  7  2  0
  7  8  1  0
  8  9  1  0
  8  2  1  0
  9  2  1  0
  9  5  1  0
  1 10  1  0
  1 11  1  0
  1 12  1  0
  4 13  1  0
  4 14  1  0
  5 15  1  0
  6 16  1  0
  7 17  1  0
  8 18  1  0
  9 19  1  0
M  END
