
     RDKit          3D

 21 23  0  0  0  0  0  0  0  0999 V2000
    0.0338    1.9191   -0.5931 C   0  0  0  0  0  0  0  0  0  0  0  0
   -0.2662    0.6493    0.1157 C   0  0  0  0  0  0  0  0  0  0  0  0
    0.7269    0.1923    1.1498 C   0  0  0  0  0  0  0  0  0  0  0  0
    1.6164   -0.8108    0.4617 C   0  0  0  0  0  0  0  0  0  0  0  0
    0.7951   -1.3321   -0.6867 C   0  0  0  0  0  0  0  0  0  0  0  0
   -0.4731   -0.5726   -0.7320 C   0  0  0  0  0  0  0  0  0  0  0  0
   -1.6155   -0.9963    0.0882 C   0  0  0  0  0  0  0  0  0  0  0  0
   -1.8230   -0.6678    1.3905 O   0  0  0  0  0  0  0  0  0  0  0  0
   -1.6719    0.4515    0.6042 C   0  0  0  0  0  0  0  0  0  0  0  0
   -0.3506    1.8946   -1.6345 H   0  0  0  0  0  0  0  0  0  0  0  0
    1.1436    2.0053   -0.6882 H   0  0  0  0  0  0  0  0  0  0  0  0
   -0.3163    2.7944   -0.0165 H   0  0  0  0  0  0  0  0  0  0  0  0
    0.2155   -0.3688    1.9834 H   0  0  0  0  0  0  0  0  0  0  0  0
    1.3090    0.9947    1.6028 H   0  0  0  0  0  0  0  0  0  0  0  0
    1.8701   -1.6549    1.1398 H   0  0  0  0  0  0  0  0  0  0  0  0
    2.5680   -0.3371    0.1414 H   0  0  0  0  0  0  0  0  0  0  0  0
    1.3744   -1.0772   -1.6227 H   0  0  0  0  0  0  0  0  0  0  0  0
    0.6926   -2.4278   -0.7004 H   0  0  0  0  0  0  0  0  0  0  0  0
   -0.8030   -0.2903   -1.7689 H   0  0  0  0  0  0  0  0  0  0  0  0
   -2.5199   -1.3822   -0.4434 H   0  0  0  0  0  0  0  0  0  0  0  0
   -2.5058    1.0168    0.2090 H   0  0  0  0  0  0  0  0  0  0  0  0
  1  2  1  0
  2  3  1  0
  3  4  1  0
  4  5  1  0
  5  6  1  0
  6  7  1  0
  7  8  1  0
  8  9  1  0
  6  2  1  0
  9  7  1  0
  9  2  1  0
  1 10  1  0
  1 11  1  0
  1 12  1  0
  3 13  1  0
  3 14  1  0
  4 15  1  0
  4 16  1  0
  5 17  1  0
  5 18  1  0
  6 19  1  0
  7 20  1  0
  9 21  1  0
M  END
