
     RDKit          3D

 20 21  0  0  0  0  0  0  0  0999 V2000
    1.4554   -1.0886   -0.5904 C   0  0  0  0  0  0  0  0  0  0  0  0
    0.4526   -0.2466    0.1250 C   0  0  0  0  0  0  0  0  0  0  0  0
    0.9693    1.0661    0.6197 C   0  0  0  0  0  0  0  0  0  0  0  0
   -0.2897    1.7314    0.0888 C   0  0  0  0  0  0  0  0  0  0  0  0
   -0.5260    0.5094   -0.7474 C   0  0  0  0  0  0  0  0  0  0  0  0
   -1.8138   -0.2342   -0.4746 C   0  0  0  0  0  0  0  0  0  0  0  0
   -1.7340   -0.4911    0.8892 O   0  0  0  0  0  0  0  0  0  0  0  0
   -0.4409   -1.0190    1.0307 C   0  0  0  0  0  0  0  0  0  0  0  0
    1.5356   -0.8619   -1.6604 H   0  0  0  0  0  0  0  0  0  0  0  0
    1.2687   -2.1747   -0.3819 H   0  0  0  0  0  0  0  0  0  0  0  0
    2.4568   -0.8798   -0.1133 H   0  0  0  0  0  0  0  0  0  0  0  0
    1.8629    1.3636   -0.0029 H   0  0  0  0  0  0  0  0  0  0  0  0
    1.1226    1.1279    1.7010 H   0  0  0  0  0  0  0  0  0  0  0  0
   -0.9915    1.9317    0.9012 H   0  0  0  0  0  0  0  0  0  0  0  0
   -0.0345    2.6535   -0.4879 H   0  0  0  0  0  0  0  0  0  0  0  0
   -0.2318    0.5872   -1.8081 H   0  0  0  0  0  0  0  0  0  0  0  0
   -2.7075    0.3101   -0.7758 H   0  0  0  0  0  0  0  0  0  0  0  0
   -1.7621   -1.1965   -0.9982 H   0  0  0  0  0  0  0  0  0  0  0  0
   -0.5033   -2.0676    0.6194 H   0  0  0  0  0  0  0  0  0  0  0  0
   -0.0890   -1.0211    2.0658 H   0  0  0  0  0  0  0  0  0  0  0  0
  1  2  1  0
  2  3  1  0
  3  4  1  0
  4  5  1  0
  5  6  1  0
  6  7  1  0
  7  8  1  0
  5  2  1  0
  8  2  1  0
  1  9  1  0
  1 10  1  0
  1 11  1  0
  3 12  1  0
  3 13  1  0
  4 14  1  0
  4 15  1  0
  5 16  1  0
  6 17  1  0
  6 18  1  0
  8 19  1  0
  8 20  1  0
M  END
