
     RDKit          3D

 21 23  0  0  0  0  0  0  0  0999 V2000
   -2.4426    0.1491    0.7619 C   0  0  0  0  0  0  0  0  0  0  0  0
   -0.9810   -0.2744    0.5530 C   0  0  0  0  0  0  0  0  0  0  0  0
   -0.0030    0.8256    0.9991 C   0  0  0  0  0  0  0  0  0  0  0  0
    0.8432    1.0496   -0.1759 C   0  0  0  0  0  0  0  0  0  0  0  0
    2.2292    0.9276   -0.4228 C   0  0  0  0  0  0  0  0  0  0  0  0
    1.5851   -0.3259   -0.2988 C   0  0  0  0  0  0  0  0  0  0  0  0
    0.6943   -1.0944   -1.1732 C   0  0  0  0  0  0  0  0  0  0  0  0
   -0.6847   -1.0919   -0.5140 C   0  0  0  0  0  0  0  0  0  0  0  0
   -0.6544   -1.5892    0.7811 O   0  0  0  0  0  0  0  0  0  0  0  0
   -2.5324    1.0485    1.3705 H   0  0  0  0  0  0  0  0  0  0  0  0
   -2.8449    0.3789   -0.2665 H   0  0  0  0  0  0  0  0  0  0  0  0
   -3.0415   -0.6449    1.2134 H   0  0  0  0  0  0  0  0  0  0  0  0
    0.5578    0.3523    1.8586 H   0  0  0  0  0  0  0  0  0  0  0  0
   -0.5090    1.6942    1.4204 H   0  0  0  0  0  0  0  0  0  0  0  0
    0.2047    1.3497   -1.0631 H   0  0  0  0  0  0  0  0  0  0  0  0
    2.9501    1.2503    0.3732 H   0  0  0  0  0  0  0  0  0  0  0  0
    2.6332    1.2338   -1.4212 H   0  0  0  0  0  0  0  0  0  0  0  0
    1.7718   -0.8866    0.6664 H   0  0  0  0  0  0  0  0  0  0  0  0
    0.6220   -0.7541   -2.2210 H   0  0  0  0  0  0  0  0  0  0  0  0
    1.0715   -2.1578   -1.2150 H   0  0  0  0  0  0  0  0  0  0  0  0
   -1.4694   -1.4403   -1.2261 H   0  0  0  0  0  0  0  0  0  0  0  0
  1  2  1  0
  2  3  1  0
  3  4  1  0
  4  5  1  0
  5  6  1  0
  6  7  1  0
  7  8  1  0
  8  9  1  0
  8  2  1  0
  9  2  1  0
  6  4  1  0
  1 10  1  0
  1 11  1  0
  1 12  1  0
  3 13  1  0
  3 14  1  0
  4 15  1  0
  5 16  1  0
  5 17  1  0
  6 18  1  0
  7 19  1  0
  7 20  1  0
  8 21  1  0
M  END
