
     RDKit          3D

 19 21  0  0  0  0  0  0  0  0999 V2000
    2.0508   -0.1194    0.2241 C   0  0  0  0  0  0  0  0  0  0  0  0
    0.6115    0.0680    0.0833 C   0  0  0  0  0  0  0  0  0  0  0  0
   -0.1389   -0.7159   -0.9525 C   0  0  0  0  0  0  0  0  0  0  0  0
   -0.1522   -2.0880   -0.6869 O   0  0  0  0  0  0  0  0  0  0  0  0
   -1.5454   -0.1209   -0.7535 C   0  0  0  0  0  0  0  0  0  0  0  0
   -1.2733    0.8079    0.3969 C   0  0  0  0  0  0  0  0  0  0  0  0
    0.0387    1.4512    0.1259 C   0  0  0  0  0  0  0  0  0  0  0  0
    0.2662    1.4280    1.4919 O   0  0  0  0  0  0  0  0  0  0  0  0
   -0.2571    0.1610    1.2830 C   0  0  0  0  0  0  0  0  0  0  0  0
    2.5820    0.7920   -0.1781 H   0  0  0  0  0  0  0  0  0  0  0  0
    2.4024   -0.9490   -0.4545 H   0  0  0  0  0  0  0  0  0  0  0  0
    2.4126   -0.3742    1.2378 H   0  0  0  0  0  0  0  0  0  0  0  0
    0.2356   -0.5533   -1.9624 H   0  0  0  0  0  0  0  0  0  0  0  0
   -0.8809   -2.3293   -0.0667 H   0  0  0  0  0  0  0  0  0  0  0  0
   -1.8285    0.3943   -1.6814 H   0  0  0  0  0  0  0  0  0  0  0  0
   -2.2593   -0.8833   -0.4115 H   0  0  0  0  0  0  0  0  0  0  0  0
   -2.0788    1.3656    0.8262 H   0  0  0  0  0  0  0  0  0  0  0  0
    0.2412    2.2083   -0.5083 H   0  0  0  0  0  0  0  0  0  0  0  0
   -0.4267   -0.5429    1.9867 H   0  0  0  0  0  0  0  0  0  0  0  0
  1  2  1  0
  2  3  1  0
  3  4  1  0
  3  5  1  0
  5  6  1  0
  6  7  1  0
  7  8  1  0
  8  9  1  0
  7  2  1  0
  9  2  1  0
  9  6  1  0
  1 10  1  0
  1 11  1  0
  1 12  1  0
  3 13  1  0
  4 14  1  0
  5 15  1  0
  5 16  1  0
  6 17  1  0
  7 18  1  0
  9 19  1  0
M  END
