
     RDKit          3D

 21 22  0  0  0  0  0  0  0  0999 V2000
   -0.1714   -1.7469   -0.4603 C   0  0  0  0  0  0  0  0  0  0  0  0
    0.1842   -0.5312    0.3360 C   0  0  0  0  0  0  0  0  0  0  0  0
   -0.8757   -0.0929    1.2995 C   0  0  0  0  0  0  0  0  0  0  0  0
   -1.6212    1.0633    0.6872 C   0  0  0  0  0  0  0  0  0  0  0  0
   -1.1235    1.0487   -0.7600 C   0  0  0  0  0  0  0  0  0  0  0  0
    0.2707    0.6859   -0.5625 C   0  0  0  0  0  0  0  0  0  0  0  0
    1.5362    0.8947   -0.7647 C   0  0  0  0  0  0  0  0  0  0  0  0
    2.3413   -0.1371   -0.0339 C   0  0  0  0  0  0  0  0  0  0  0  0
    1.4381   -0.6313    0.9125 O   0  0  0  0  0  0  0  0  0  0  0  0
   -1.2713   -1.9005   -0.4401 H   0  0  0  0  0  0  0  0  0  0  0  0
    0.3954   -2.6238   -0.0815 H   0  0  0  0  0  0  0  0  0  0  0  0
    0.0965   -1.6427   -1.5436 H   0  0  0  0  0  0  0  0  0  0  0  0
   -0.4370    0.2115    2.2757 H   0  0  0  0  0  0  0  0  0  0  0  0
   -1.6272   -0.9104    1.4510 H   0  0  0  0  0  0  0  0  0  0  0  0
   -1.2480    2.0386    1.1052 H   0  0  0  0  0  0  0  0  0  0  0  0
   -2.7149    0.9689    0.7494 H   0  0  0  0  0  0  0  0  0  0  0  0
   -1.6910    0.2337   -1.2663 H   0  0  0  0  0  0  0  0  0  0  0  0
   -1.2836    2.0276   -1.2467 H   0  0  0  0  0  0  0  0  0  0  0  0
    2.0147    1.6783   -1.3611 H   0  0  0  0  0  0  0  0  0  0  0  0
    2.5630   -0.9401   -0.7454 H   0  0  0  0  0  0  0  0  0  0  0  0
    3.2248    0.3057    0.4496 H   0  0  0  0  0  0  0  0  0  0  0  0
  1  2  1  0
  2  3  1  0
  3  4  1  0
  4  5  1  0
  5  6  1  0
  6  7  2  0
  7  8  1  0
  8  9  1  0
  6  2  1  0
  9  2  1  0
  1 10  1  0
  1 11  1  0
  1 12  1  0
  3 13  1  0
  3 14  1  0
  4 15  1  0
  4 16  1  0
  5 17  1  0
  5 18  1  0
  7 19  1  0
  8 20  1  0
  8 21  1  0
M  END
