
     RDKit          2D

 17 20  0  0  0  0  0  0  0  0999 V2000
   -3.3078    3.5767    0.0000 C   0  0  0  0  0  0  0  0  0  0  0  0
   -3.0731    2.0952    0.0000 C   0  0  0  0  0  0  0  0  0  0  0  0
   -3.9548    0.8817    0.0000 O   0  0  0  0  0  0  0  0  0  0  0  0
   -2.7413    0.0000    0.0000 C   0  0  0  0  0  0  0  0  0  0  0  0
   -1.8596    1.2135    0.0000 C   0  0  0  0  0  0  0  0  0  0  0  0
   -0.4330    0.7500    0.0000 C   0  0  0  0  0  0  0  0  0  0  0  0
    0.8660    0.0000    0.0000 O   0  0  0  0  0  0  0  0  0  0  0  0
   -0.4330   -0.7500    0.0000 C   0  0  0  0  0  0  0  0  0  0  0  0
   -1.8596   -1.2135    0.0000 C   0  0  0  0  0  0  0  0  0  0  0  0
   -3.5424    5.0583    0.0000 H   0  0  0  0  0  0  0  0  0  0  0  0
   -1.8262    3.8114    0.0000 H   0  0  0  0  0  0  0  0  0  0  0  0
   -4.7893    3.3421    0.0000 H   0  0  0  0  0  0  0  0  0  0  0  0
   -3.8019   -1.0607    0.0000 H   0  0  0  0  0  0  0  0  0  0  0  0
   -1.1786    2.5500    0.0000 H   0  0  0  0  0  0  0  0  0  0  0  0
    0.1771    2.1203    0.0000 H   0  0  0  0  0  0  0  0  0  0  0  0
    0.1771   -2.1203    0.0000 H   0  0  0  0  0  0  0  0  0  0  0  0
   -2.3231   -2.6401    0.0000 H   0  0  0  0  0  0  0  0  0  0  0  0
  1  2  1  0
  2  3  1  0
  3  4  1  0
  4  5  1  0
  5  6  1  0
  6  7  1  0
  7  8  1  0
  8  9  1  0
  5  2  1  0
  8  6  1  0
  9  2  1  0
  9  4  1  0
  1 10  1  0
  1 11  1  0
  1 12  1  0
  4 13  1  0
  5 14  1  0
  6 15  1  0
  8 16  1  0
  9 17  1  0
M  END
