
     RDKit          3D

 19 21  0  0  0  0  0  0  0  0999 V2000
    2.0779   -0.5593   -0.2890 C   0  0  0  0  0  0  0  0  0  0  0  0
    0.7430    0.0217   -0.0587 C   0  0  0  0  0  0  0  0  0  0  0  0
    0.6874    1.5066   -0.1471 C   0  0  0  0  0  0  0  0  0  0  0  0
   -0.3758    1.8554    0.5716 C   0  0  0  0  0  0  0  0  0  0  0  0
   -0.9304    0.5766    1.1157 C   0  0  0  0  0  0  0  0  0  0  0  0
    0.2664   -0.1654    1.2620 O   0  0  0  0  0  0  0  0  0  0  0  0
   -1.6025   -0.1608    0.0069 C   0  0  0  0  0  0  0  0  0  0  0  0
   -1.2570   -1.6133   -0.1396 C   0  0  0  0  0  0  0  0  0  0  0  0
   -0.3736   -0.6169   -0.8444 C   0  0  0  0  0  0  0  0  0  0  0  0
    2.8487    0.2050    0.0215 H   0  0  0  0  0  0  0  0  0  0  0  0
    2.1915   -0.7536   -1.3889 H   0  0  0  0  0  0  0  0  0  0  0  0
    2.2718   -1.4937    0.2517 H   0  0  0  0  0  0  0  0  0  0  0  0
    1.3283    2.2139   -0.6591 H   0  0  0  0  0  0  0  0  0  0  0  0
   -0.7715    2.8507    0.7387 H   0  0  0  0  0  0  0  0  0  0  0  0
   -1.4836    0.6843    2.0303 H   0  0  0  0  0  0  0  0  0  0  0  0
   -2.4467    0.2680   -0.5442 H   0  0  0  0  0  0  0  0  0  0  0  0
   -0.8242   -2.0873    0.7680 H   0  0  0  0  0  0  0  0  0  0  0  0
   -1.8916   -2.2608   -0.7714 H   0  0  0  0  0  0  0  0  0  0  0  0
   -0.4580   -0.4711   -1.9239 H   0  0  0  0  0  0  0  0  0  0  0  0
  1  2  1  0
  2  3  1  0
  3  4  2  0
  4  5  1  0
  5  6  1  0
  5  7  1  0
  7  8  1  0
  8  9  1  0
  6  2  1  0
  9  7  1  0
  9  2  1  0
  1 10  1  0
  1 11  1  0
  1 12  1  0
  3 13  1  0
  4 14  1  0
  5 15  1  0
  7 16  1  0
  8 17  1  0
  8 18  1  0
  9 19  1  0
M  END
