
     RDKit          3D

 19 20  0  0  0  0  0  0  0  0999 V2000
    2.0048    0.0270   -0.1193 C   0  0  0  0  0  0  0  0  0  0  0  0
    0.6598   -0.1837   -0.0745 C   0  0  0  0  0  0  0  0  0  0  0  0
   -0.1524   -1.2120   -0.8143 C   0  0  0  0  0  0  0  0  0  0  0  0
   -1.1831   -0.4605    0.0161 C   0  0  0  0  0  0  0  0  0  0  0  0
   -2.4150   -0.6664    0.0478 O   0  0  0  0  0  0  0  0  0  0  0  0
   -0.1791   -0.5635    1.1278 C   0  0  0  0  0  0  0  0  0  0  0  0
   -0.4486    0.7729   -0.4374 C   0  0  0  0  0  0  0  0  0  0  0  0
   -0.5882    1.9663    0.3943 C   0  0  0  0  0  0  0  0  0  0  0  0
   -1.5130    2.1699    1.1707 O   0  0  0  0  0  0  0  0  0  0  0  0
    2.6176   -0.8236   -0.5428 H   0  0  0  0  0  0  0  0  0  0  0  0
    2.3393    0.9135   -0.7361 H   0  0  0  0  0  0  0  0  0  0  0  0
    2.4933    0.2168    0.8836 H   0  0  0  0  0  0  0  0  0  0  0  0
   -0.2636   -1.0509   -1.8945 H   0  0  0  0  0  0  0  0  0  0  0  0
    0.0706   -2.2281   -0.4818 H   0  0  0  0  0  0  0  0  0  0  0  0
   -2.8270   -1.1265   -0.7121 H   0  0  0  0  0  0  0  0  0  0  0  0
   -0.2050    0.2026    1.8951 H   0  0  0  0  0  0  0  0  0  0  0  0
    0.0120   -1.6024    1.4860 H   0  0  0  0  0  0  0  0  0  0  0  0
   -0.6019    0.9119   -1.5358 H   0  0  0  0  0  0  0  0  0  0  0  0
    0.1795    2.7367    0.3272 H   0  0  0  0  0  0  0  0  0  0  0  0
  1  2  1  0
  2  3  1  0
  3  4  1  0
  4  5  1  0
  4  6  1  0
  4  7  1  0
  7  8  1  0
  8  9  2  0
  6  2  1  0
  7  2  1  0
  1 10  1  0
  1 11  1  0
  1 12  1  0
  3 13  1  0
  3 14  1  0
  5 15  1  0
  6 16  1  0
  6 17  1  0
  7 18  1  0
  8 19  1  0
M  END
