
     RDKit          3D

 19 20  0  0  0  0  0  0  0  0999 V2000
   -1.5234   -1.2036    0.6268 C   0  0  0  0  0  0  0  0  0  0  0  0
   -0.5330   -0.2365    0.0208 C   0  0  0  0  0  0  0  0  0  0  0  0
    0.4510   -0.8644   -0.8699 C   0  0  0  0  0  0  0  0  0  0  0  0
    1.6895   -0.6956   -0.4370 C   0  0  0  0  0  0  0  0  0  0  0  0
    1.6910    0.0943    0.8428 C   0  0  0  0  0  0  0  0  0  0  0  0
    0.2785    0.5674    0.9746 C   0  0  0  0  0  0  0  0  0  0  0  0
    0.0267    1.7693    0.0969 C   0  0  0  0  0  0  0  0  0  0  0  0
    0.6091    2.8291   -0.0237 O   0  0  0  0  0  0  0  0  0  0  0  0
   -1.1417    1.0517   -0.4501 C   0  0  0  0  0  0  0  0  0  0  0  0
   -1.6305   -2.0398   -0.1093 H   0  0  0  0  0  0  0  0  0  0  0  0
   -1.1860   -1.6559    1.5624 H   0  0  0  0  0  0  0  0  0  0  0  0
   -2.5059   -0.7095    0.7303 H   0  0  0  0  0  0  0  0  0  0  0  0
    0.1957   -1.4034   -1.7760 H   0  0  0  0  0  0  0  0  0  0  0  0
    2.5873   -1.0788   -0.9422 H   0  0  0  0  0  0  0  0  0  0  0  0
    2.3319    1.0177    0.7353 H   0  0  0  0  0  0  0  0  0  0  0  0
    2.0564   -0.4870    1.6921 H   0  0  0  0  0  0  0  0  0  0  0  0
   -0.1120    0.6914    2.0001 H   0  0  0  0  0  0  0  0  0  0  0  0
   -1.1901    1.0728   -1.5507 H   0  0  0  0  0  0  0  0  0  0  0  0
   -2.0944    1.2808    0.0821 H   0  0  0  0  0  0  0  0  0  0  0  0
  1  2  1  0
  2  3  1  0
  3  4  2  0
  4  5  1  0
  5  6  1  0
  6  7  1  0
  7  8  2  0
  7  9  1  0
  6  2  1  0
  9  2  1  0
  1 10  1  0
  1 11  1  0
  1 12  1  0
  3 13  1  0
  4 14  1  0
  5 15  1  0
  5 16  1  0
  6 17  1  0
  9 18  1  0
  9 19  1  0
M  END
