
     RDKit          3D

 19 22  0  0  0  0  0  0  0  0999 V2000
   -2.2956   -0.3889   -0.0417 C   0  0  0  0  0  0  0  0  0  0  0  0
   -0.8704   -0.2509   -0.0830 C   0  0  0  0  0  0  0  0  0  0  0  0
   -0.0038    0.1790   -1.2007 C   0  0  0  0  0  0  0  0  0  0  0  0
    0.2830    1.5079   -0.8141 O   0  0  0  0  0  0  0  0  0  0  0  0
    0.8304    1.2586    0.4664 C   0  0  0  0  0  0  0  0  0  0  0  0
    1.9938    0.3598    0.0082 C   0  0  0  0  0  0  0  0  0  0  0  0
    1.0855   -0.6871   -0.6500 C   0  0  0  0  0  0  0  0  0  0  0  0
    0.1823   -1.0232    0.4985 C   0  0  0  0  0  0  0  0  0  0  0  0
   -0.0703    0.2841    1.1280 C   0  0  0  0  0  0  0  0  0  0  0  0
   -2.8063    0.4804   -0.5399 H   0  0  0  0  0  0  0  0  0  0  0  0
   -2.7249   -1.3090   -0.4757 H   0  0  0  0  0  0  0  0  0  0  0  0
   -2.6645   -0.3505    1.0186 H   0  0  0  0  0  0  0  0  0  0  0  0
   -0.3173    0.0370   -2.2215 H   0  0  0  0  0  0  0  0  0  0  0  0
    1.1324    2.1243    1.0015 H   0  0  0  0  0  0  0  0  0  0  0  0
    2.6124    0.8524   -0.7467 H   0  0  0  0  0  0  0  0  0  0  0  0
    2.5147   -0.0977    0.8390 H   0  0  0  0  0  0  0  0  0  0  0  0
    1.5343   -1.4448   -1.2324 H   0  0  0  0  0  0  0  0  0  0  0  0
    0.1616   -1.9769    0.9844 H   0  0  0  0  0  0  0  0  0  0  0  0
   -0.5774    0.4456    2.0612 H   0  0  0  0  0  0  0  0  0  0  0  0
  1  2  1  0
  2  3  1  0
  3  4  1  0
  4  5  1  0
  5  6  1  0
  6  7  1  0
  7  8  1  0
  8  9  1  0
  8  2  1  0
  9  2  1  0
  7  3  1  0
  9  5  1  0
  1 10  1  0
  1 11  1  0
  1 12  1  0
  3 13  1  0
  5 14  1  0
  6 15  1  0
  6 16  1  0
  7 17  1  0
  8 18  1  0
  9 19  1  0
M  END
