
     RDKit          3D

 17 19  0  0  0  0  0  0  0  0999 V2000
    1.9980    0.2770    0.0753 C   0  0  0  0  0  0  0  0  0  0  0  0
    0.5107    0.2824    0.0828 C   0  0  0  0  0  0  0  0  0  0  0  0
   -0.2527    0.7035   -1.1817 C   0  0  0  0  0  0  0  0  0  0  0  0
   -1.6386    0.2863   -0.8750 C   0  0  0  0  0  0  0  0  0  0  0  0
   -2.6418    0.6626   -1.4218 O   0  0  0  0  0  0  0  0  0  0  0  0
   -1.6094   -0.6930    0.2387 C   0  0  0  0  0  0  0  0  0  0  0  0
   -1.5669    0.0287    1.4532 O   0  0  0  0  0  0  0  0  0  0  0  0
   -0.2029    0.1420    1.3653 C   0  0  0  0  0  0  0  0  0  0  0  0
   -0.1570   -0.9680    0.4286 C   0  0  0  0  0  0  0  0  0  0  0  0
    2.3225   -0.2923   -0.8452 H   0  0  0  0  0  0  0  0  0  0  0  0
    2.4574    1.2820    0.0819 H   0  0  0  0  0  0  0  0  0  0  0  0
    2.3418   -0.3556    0.9255 H   0  0  0  0  0  0  0  0  0  0  0  0
    0.1886    0.0913   -2.0016 H   0  0  0  0  0  0  0  0  0  0  0  0
   -0.1378    1.7759   -1.3660 H   0  0  0  0  0  0  0  0  0  0  0  0
   -2.2995   -1.5200    0.2019 H   0  0  0  0  0  0  0  0  0  0  0  0
    0.4119    0.2310    2.2751 H   0  0  0  0  0  0  0  0  0  0  0  0
    0.2758   -1.9338    0.5629 H   0  0  0  0  0  0  0  0  0  0  0  0
  1  2  1  0
  2  3  1  0
  3  4  1  0
  4  5  2  0
  4  6  1  0
  6  7  1  0
  7  8  1  0
  8  9  1  0
  8  2  1  0
  9  2  1  0
  9  6  1  0
  1 10  1  0
  1 11  1  0
  1 12  1  0
  3 13  1  0
  3 14  1  0
  6 15  1  0
  8 16  1  0
  9 17  1  0
M  END
