
     RDKit          3D

 23 24  0  0  0  0  0  0  0  0999 V2000
    0.5245   -2.0016    0.6419 C   0  0  0  0  0  0  0  0  0  0  0  0
    0.1651   -0.6551    0.1995 C   0  0  0  0  0  0  0  0  0  0  0  0
   -1.1449   -0.5754   -0.5885 C   0  0  0  0  0  0  0  0  0  0  0  0
   -1.7195    0.7992   -0.3006 C   0  0  0  0  0  0  0  0  0  0  0  0
   -0.5631    1.4695    0.4223 C   0  0  0  0  0  0  0  0  0  0  0  0
    0.5752    1.5186   -0.5499 C   0  0  0  0  0  0  0  0  0  0  0  0
    1.2390    0.1411   -0.4697 C   0  0  0  0  0  0  0  0  0  0  0  0
    1.6135   -0.3352   -1.6948 O   0  0  0  0  0  0  0  0  0  0  0  0
   -0.1839    0.3048    1.3534 C   0  0  0  0  0  0  0  0  0  0  0  0
   -0.3969   -2.5909    0.8285 H   0  0  0  0  0  0  0  0  0  0  0  0
    1.1527   -1.9342    1.5639 H   0  0  0  0  0  0  0  0  0  0  0  0
    1.1077   -2.5186   -0.1282 H   0  0  0  0  0  0  0  0  0  0  0  0
   -0.9417   -0.6699   -1.6810 H   0  0  0  0  0  0  0  0  0  0  0  0
   -1.7940   -1.3743   -0.2021 H   0  0  0  0  0  0  0  0  0  0  0  0
   -2.5483    0.6931    0.4261 H   0  0  0  0  0  0  0  0  0  0  0  0
   -1.9891    1.3517   -1.2053 H   0  0  0  0  0  0  0  0  0  0  0  0
   -0.8052    2.3724    0.9350 H   0  0  0  0  0  0  0  0  0  0  0  0
    0.1716    1.5896   -1.6021 H   0  0  0  0  0  0  0  0  0  0  0  0
    1.2758    2.3342   -0.4061 H   0  0  0  0  0  0  0  0  0  0  0  0
    2.0879    0.2401    0.2561 H   0  0  0  0  0  0  0  0  0  0  0  0
    2.5647   -0.6677   -1.6470 H   0  0  0  0  0  0  0  0  0  0  0  0
    0.6874    0.5295    1.9619 H   0  0  0  0  0  0  0  0  0  0  0  0
   -1.0783   -0.0208    1.8866 H   0  0  0  0  0  0  0  0  0  0  0  0
  1  2  1  0
  2  3  1  0
  3  4  1  0
  4  5  1  0
  5  6  1  0
  6  7  1  0
  7  8  1  0
  5  9  1  0
  7  2  1  0
  9  2  1  0
  1 10  1  0
  1 11  1  0
  1 12  1  0
  3 13  1  0
  3 14  1  0
  4 15  1  0
  4 16  1  0
  5 17  1  0
  6 18  1  0
  6 19  1  0
  7 20  1  0
  8 21  1  0
  9 22  1  0
  9 23  1  0
M  END
