
     RDKit          3D

 16 17  0  0  0  0  0  0  0  0999 V2000
    1.9899   -0.3369    0.5508 C   0  0  0  0  0  0  0  0  0  0  0  0
    0.5861   -0.1587    0.0762 C   0  0  0  0  0  0  0  0  0  0  0  0
   -0.2020    1.0300    0.6331 C   0  0  0  0  0  0  0  0  0  0  0  0
   -1.4078    0.9914   -0.2178 C   0  0  0  0  0  0  0  0  0  0  0  0
   -2.0557    1.9350   -0.5787 O   0  0  0  0  0  0  0  0  0  0  0  0
   -1.6594   -0.4267   -0.5360 C   0  0  0  0  0  0  0  0  0  0  0  0
   -0.2485   -0.9966   -0.5788 C   0  0  0  0  0  0  0  0  0  0  0  0
    0.5844   -0.1322   -1.4094 O   0  0  0  0  0  0  0  0  0  0  0  0
    2.0918   -0.3586    1.6311 H   0  0  0  0  0  0  0  0  0  0  0  0
    2.5884    0.5523    0.1948 H   0  0  0  0  0  0  0  0  0  0  0  0
    2.4011   -1.2488    0.0837 H   0  0  0  0  0  0  0  0  0  0  0  0
    0.3679    1.9642    0.5629 H   0  0  0  0  0  0  0  0  0  0  0  0
   -0.4353    0.7577    1.7026 H   0  0  0  0  0  0  0  0  0  0  0  0
   -2.2883   -0.9392    0.2059 H   0  0  0  0  0  0  0  0  0  0  0  0
   -2.1584   -0.5645   -1.5210 H   0  0  0  0  0  0  0  0  0  0  0  0
   -0.1542   -2.0685   -0.7995 H   0  0  0  0  0  0  0  0  0  0  0  0
  1  2  1  0
  2  3  1  0
  3  4  1  0
  4  5  2  0
  4  6  1  0
  6  7  1  0
  7  8  1  0
  7  2  1  0
  8  2  1  0
  1  9  1  0
  1 10  1  0
  1 11  1  0
  3 12  1  0
  3 13  1  0
  6 14  1  0
  6 15  1  0
  7 16  1  0
M  END
