
     RDKit          3D

 19 20  0  0  0  0  0  0  0  0999 V2000
    2.0716   -0.0959    0.2360 C   0  0  0  0  0  0  0  0  0  0  0  0
    0.7161   -0.0724   -0.4020 C   0  0  0  0  0  0  0  0  0  0  0  0
    0.2935    1.2248   -0.9744 C   0  0  0  0  0  0  0  0  0  0  0  0
   -0.8158    1.6503   -0.4017 C   0  0  0  0  0  0  0  0  0  0  0  0
   -1.2943    0.7049    0.6319 C   0  0  0  0  0  0  0  0  0  0  0  0
   -0.4351   -0.5047    0.4337 C   0  0  0  0  0  0  0  0  0  0  0  0
   -0.0855   -1.2004    1.5803 O   0  0  0  0  0  0  0  0  0  0  0  0
   -0.7897   -1.3648   -0.7571 C   0  0  0  0  0  0  0  0  0  0  0  0
    0.5068   -1.1675   -1.2569 O   0  0  0  0  0  0  0  0  0  0  0  0
    2.8058    0.2352   -0.5294 H   0  0  0  0  0  0  0  0  0  0  0  0
    2.1155    0.5801    1.1082 H   0  0  0  0  0  0  0  0  0  0  0  0
    2.2890   -1.1609    0.5015 H   0  0  0  0  0  0  0  0  0  0  0  0
    0.8085    1.8004   -1.7789 H   0  0  0  0  0  0  0  0  0  0  0  0
   -1.3220    2.6111   -0.6745 H   0  0  0  0  0  0  0  0  0  0  0  0
   -1.0532    1.1179    1.6403 H   0  0  0  0  0  0  0  0  0  0  0  0
   -2.3766    0.4943    0.5193 H   0  0  0  0  0  0  0  0  0  0  0  0
   -0.8888   -1.5335    2.0481 H   0  0  0  0  0  0  0  0  0  0  0  0
   -1.0153   -2.4232   -0.4901 H   0  0  0  0  0  0  0  0  0  0  0  0
   -1.5305   -0.8957   -1.4343 H   0  0  0  0  0  0  0  0  0  0  0  0
  1  2  1  0
  2  3  1  0
  3  4  2  0
  4  5  1  0
  5  6  1  0
  6  7  1  0
  6  8  1  0
  8  9  1  0
  6  2  1  0
  9  2  1  0
  1 10  1  0
  1 11  1  0
  1 12  1  0
  3 13  1  0
  4 14  1  0
  5 15  1  0
  5 16  1  0
  7 17  1  0
  8 18  1  0
  8 19  1  0
M  END
