
     RDKit          3D

 19 20  0  0  0  0  0  0  0  0999 V2000
   -2.1620   -0.5032   -0.2221 C   0  0  0  0  0  0  0  0  0  0  0  0
   -0.7925   -0.3291   -0.2158 C   0  0  0  0  0  0  0  0  0  0  0  0
    0.0869   -0.6561   -1.2420 O   0  0  0  0  0  0  0  0  0  0  0  0
    0.9522   -0.1697   -0.2733 C   0  0  0  0  0  0  0  0  0  0  0  0
    2.3233   -0.0187   -0.3990 C   0  0  0  0  0  0  0  0  0  0  0  0
    0.1955   -0.9721    0.7140 C   0  0  0  0  0  0  0  0  0  0  0  0
    0.1677   -0.4460    2.0151 O   0  0  0  0  0  0  0  0  0  0  0  0
   -0.0381    0.9412   -0.0628 C   0  0  0  0  0  0  0  0  0  0  0  0
   -0.1167    1.8423   -1.1181 O   0  0  0  0  0  0  0  0  0  0  0  0
   -2.7452    0.4448   -0.0564 H   0  0  0  0  0  0  0  0  0  0  0  0
   -2.5241   -1.2795    0.5099 H   0  0  0  0  0  0  0  0  0  0  0  0
   -2.5476   -0.8800   -1.2162 H   0  0  0  0  0  0  0  0  0  0  0  0
    2.6342    0.0530   -1.4839 H   0  0  0  0  0  0  0  0  0  0  0  0
    2.8882   -0.9131   -0.0209 H   0  0  0  0  0  0  0  0  0  0  0  0
    2.7169    0.9072    0.0657 H   0  0  0  0  0  0  0  0  0  0  0  0
    0.2788   -2.0581    0.6728 H   0  0  0  0  0  0  0  0  0  0  0  0
   -0.7077   -0.0192    2.2233 H   0  0  0  0  0  0  0  0  0  0  0  0
   -0.0301    1.4066    0.9218 H   0  0  0  0  0  0  0  0  0  0  0  0
   -0.5797    2.6498   -0.8123 H   0  0  0  0  0  0  0  0  0  0  0  0
  1  2  1  0
  2  3  1  0
  3  4  1  0
  4  5  1  0
  4  6  1  0
  6  7  1  0
  4  8  1  0
  8  9  1  0
  6  2  1  0
  8  2  1  0
  1 10  1  0
  1 11  1  0
  1 12  1  0
  5 13  1  0
  5 14  1  0
  5 15  1  0
  6 16  1  0
  7 17  1  0
  8 18  1  0
  9 19  1  0
M  END
