
     RDKit          3D

 23 24  0  0  0  0  0  0  0  0999 V2000
    2.3800   -0.8446    0.0100 C   0  0  0  0  0  0  0  0  0  0  0  0
    1.0621   -0.1247   -0.2052 C   0  0  0  0  0  0  0  0  0  0  0  0
   -0.0531   -0.9879   -0.6706 C   0  0  0  0  0  0  0  0  0  0  0  0
   -1.1450   -1.2014    0.3359 C   0  0  0  0  0  0  0  0  0  0  0  0
   -2.1926   -0.1106    0.0721 C   0  0  0  0  0  0  0  0  0  0  0  0
   -1.5629    1.2076    0.4976 C   0  0  0  0  0  0  0  0  0  0  0  0
   -0.4771    1.0011    1.2725 O   0  0  0  0  0  0  0  0  0  0  0  0
    0.7448    0.9623    0.7054 C   0  0  0  0  0  0  0  0  0  0  0  0
    1.0422    1.2721   -0.7062 C   0  0  0  0  0  0  0  0  0  0  0  0
    2.5983   -0.8031    1.1181 H   0  0  0  0  0  0  0  0  0  0  0  0
    2.2875   -1.9435   -0.2027 H   0  0  0  0  0  0  0  0  0  0  0  0
    3.1976   -0.3974   -0.5756 H   0  0  0  0  0  0  0  0  0  0  0  0
    0.3230   -1.9965   -1.0012 H   0  0  0  0  0  0  0  0  0  0  0  0
   -0.5128   -0.5591   -1.6101 H   0  0  0  0  0  0  0  0  0  0  0  0
   -0.7954   -1.0423    1.3874 H   0  0  0  0  0  0  0  0  0  0  0  0
   -1.5685   -2.2023    0.2458 H   0  0  0  0  0  0  0  0  0  0  0  0
   -2.2885   -0.0696   -1.0368 H   0  0  0  0  0  0  0  0  0  0  0  0
   -3.1290   -0.3314    0.5845 H   0  0  0  0  0  0  0  0  0  0  0  0
   -1.4282    1.9014   -0.3598 H   0  0  0  0  0  0  0  0  0  0  0  0
   -2.3503    1.7095    1.1364 H   0  0  0  0  0  0  0  0  0  0  0  0
    1.5625    1.2866    1.4217 H   0  0  0  0  0  0  0  0  0  0  0  0
    2.0403    1.7070   -0.9789 H   0  0  0  0  0  0  0  0  0  0  0  0
    0.2650    1.5669   -1.4406 H   0  0  0  0  0  0  0  0  0  0  0  0
  1  2  1  0
  2  3  1  0
  3  4  1  0
  4  5  1  0
  5  6  1  0
  6  7  1  0
  7  8  1  0
  8  9  1  0
  8  2  1  0
  9  2  1  0
  1 10  1  0
  1 11  1  0
  1 12  1  0
  3 13  1  0
  3 14  1  0
  4 15  1  0
  4 16  1  0
  5 17  1  0
  5 18  1  0
  6 19  1  0
  6 20  1  0
  8 21  1  0
  9 22  1  0
  9 23  1  0
M  END
