
     RDKit          3D

 19 21  0  0  0  0  0  0  0  0999 V2000
   -1.8622   -0.9762    0.3324 C   0  0  0  0  0  0  0  0  0  0  0  0
   -0.6932   -0.0362    0.3609 C   0  0  0  0  0  0  0  0  0  0  0  0
   -0.9556    1.4201    0.0454 C   0  0  0  0  0  0  0  0  0  0  0  0
   -0.1095    0.5705   -0.8212 C   0  0  0  0  0  0  0  0  0  0  0  0
   -0.4571    0.2517   -2.1143 O   0  0  0  0  0  0  0  0  0  0  0  0
    1.2745    0.2823   -0.3075 C   0  0  0  0  0  0  0  0  0  0  0  0
    2.0570    1.3392    0.0881 O   0  0  0  0  0  0  0  0  0  0  0  0
    1.6476   -1.1142   -0.0119 C   0  0  0  0  0  0  0  0  0  0  0  0
    0.6312   -0.4776    0.8708 C   0  0  0  0  0  0  0  0  0  0  0  0
   -2.2118   -1.2102   -0.6935 H   0  0  0  0  0  0  0  0  0  0  0  0
   -2.7030   -0.5316    0.9113 H   0  0  0  0  0  0  0  0  0  0  0  0
   -1.5673   -1.8952    0.8815 H   0  0  0  0  0  0  0  0  0  0  0  0
   -0.4106    2.1121    0.7132 H   0  0  0  0  0  0  0  0  0  0  0  0
   -1.9730    1.6380   -0.2930 H   0  0  0  0  0  0  0  0  0  0  0  0
    0.1834    0.7116   -2.7319 H   0  0  0  0  0  0  0  0  0  0  0  0
    2.2833    1.2896    1.0517 H   0  0  0  0  0  0  0  0  0  0  0  0
    2.6532   -1.2415    0.4529 H   0  0  0  0  0  0  0  0  0  0  0  0
    1.2973   -1.9420   -0.6241 H   0  0  0  0  0  0  0  0  0  0  0  0
    0.9159   -0.1903    1.8892 H   0  0  0  0  0  0  0  0  0  0  0  0
  1  2  1  0
  2  3  1  0
  3  4  1  0
  4  5  1  0
  4  6  1  0
  6  7  1  0
  6  8  1  0
  8  9  1  0
  4  2  1  0
  9  6  1  0
  9  2  1  0
  1 10  1  0
  1 11  1  0
  1 12  1  0
  3 13  1  0
  3 14  1  0
  5 15  1  0
  7 16  1  0
  8 17  1  0
  8 18  1  0
  9 19  1  0
M  END
