
     RDKit          3D

 15 16  0  0  0  0  0  0  0  0999 V2000
   -1.7955   -0.2188   -0.7342 C   0  0  0  0  0  0  0  0  0  0  0  0
   -0.4448   -0.2390   -0.0777 C   0  0  0  0  0  0  0  0  0  0  0  0
   -0.0769   -1.3902    0.6324 O   0  0  0  0  0  0  0  0  0  0  0  0
    1.3273   -1.3942    0.6235 C   0  0  0  0  0  0  0  0  0  0  0  0
    2.0880   -1.9324    1.4981 O   0  0  0  0  0  0  0  0  0  0  0  0
    1.7325   -0.7007   -0.5185 O   0  0  0  0  0  0  0  0  0  0  0  0
    0.7600    0.2963   -0.7436 C   0  0  0  0  0  0  0  0  0  0  0  0
    0.1869    1.0923    0.3341 C   0  0  0  0  0  0  0  0  0  0  0  0
    0.6539    1.0849    1.6339 O   0  0  0  0  0  0  0  0  0  0  0  0
   -1.8970    0.7441   -1.2936 H   0  0  0  0  0  0  0  0  0  0  0  0
   -1.8984   -1.0642   -1.4484 H   0  0  0  0  0  0  0  0  0  0  0  0
   -2.5548   -0.2390    0.0738 H   0  0  0  0  0  0  0  0  0  0  0  0
    0.6900    0.6877   -1.7788 H   0  0  0  0  0  0  0  0  0  0  0  0
   -0.3705    1.9964    0.0591 H   0  0  0  0  0  0  0  0  0  0  0  0
    1.5992    1.2768    1.7398 H   0  0  0  0  0  0  0  0  0  0  0  0
  1  2  1  0
  2  3  1  0
  3  4  1  0
  4  5  2  0
  4  6  1  0
  6  7  1  0
  7  8  1  0
  8  9  1  0
  7  2  1  0
  8  2  1  0
  1 10  1  0
  1 11  1  0
  1 12  1  0
  7 13  1  0
  8 14  1  0
  9 15  1  0
M  END
