
     RDKit          3D

 17 18  0  0  0  0  0  0  0  0999 V2000
   -1.6673    1.0890   -0.2179 C   0  0  0  0  0  0  0  0  0  0  0  0
   -0.3302    0.4533   -0.0950 C   0  0  0  0  0  0  0  0  0  0  0  0
   -0.0922   -0.3566    1.1729 C   0  0  0  0  0  0  0  0  0  0  0  0
    0.7665   -1.2797    0.3001 C   0  0  0  0  0  0  0  0  0  0  0  0
   -0.1575   -0.8569   -0.8516 C   0  0  0  0  0  0  0  0  0  0  0  0
    2.0407   -0.6865    0.1469 O   0  0  0  0  0  0  0  0  0  0  0  0
    2.0426    0.6628   -0.2427 C   0  0  0  0  0  0  0  0  0  0  0  0
    3.1154    1.2802   -0.4674 O   0  0  0  0  0  0  0  0  0  0  0  0
    0.7843    1.2507   -0.3579 O   0  0  0  0  0  0  0  0  0  0  0  0
   -1.7279    1.9314    0.4811 H   0  0  0  0  0  0  0  0  0  0  0  0
   -2.4413    0.3577    0.0888 H   0  0  0  0  0  0  0  0  0  0  0  0
   -1.7997    1.4507   -1.2424 H   0  0  0  0  0  0  0  0  0  0  0  0
   -1.0245   -0.8892    1.4544 H   0  0  0  0  0  0  0  0  0  0  0  0
    0.4459    0.1624    1.9661 H   0  0  0  0  0  0  0  0  0  0  0  0
    0.7340   -2.3321    0.5593 H   0  0  0  0  0  0  0  0  0  0  0  0
    0.3770   -0.7576   -1.8128 H   0  0  0  0  0  0  0  0  0  0  0  0
   -1.0659   -1.4795   -0.8820 H   0  0  0  0  0  0  0  0  0  0  0  0
  1  2  1  0
  2  3  1  0
  3  4  1  0
  4  5  1  0
  4  6  1  0
  6  7  1  0
  7  8  2  0
  7  9  1  0
  5  2  1  0
  9  2  1  0
  1 10  1  0
  1 11  1  0
  1 12  1  0
  3 13  1  0
  3 14  1  0
  4 15  1  0
  5 16  1  0
  5 17  1  0
M  END
