
     RDKit          3D

 21 23  0  0  0  0  0  0  0  0999 V2000
    2.1909   -0.5982    0.5196 C   0  0  0  0  0  0  0  0  0  0  0  0
    0.9376    0.0638    0.2702 C   0  0  0  0  0  0  0  0  0  0  0  0
    0.9317    1.2844   -0.6649 C   0  0  0  0  0  0  0  0  0  0  0  0
   -0.5015    0.8962   -0.8326 C   0  0  0  0  0  0  0  0  0  0  0  0
   -1.0295    0.9621    0.5755 C   0  0  0  0  0  0  0  0  0  0  0  0
   -2.0389   -0.1687    0.5128 C   0  0  0  0  0  0  0  0  0  0  0  0
   -1.1408   -1.2756   -0.0481 C   0  0  0  0  0  0  0  0  0  0  0  0
   -0.0305   -0.5644   -0.7436 C   0  0  0  0  0  0  0  0  0  0  0  0
    0.1135    0.4987    1.2769 O   0  0  0  0  0  0  0  0  0  0  0  0
    2.6023   -0.4213    1.5068 H   0  0  0  0  0  0  0  0  0  0  0  0
    2.9690   -0.3008   -0.2378 H   0  0  0  0  0  0  0  0  0  0  0  0
    2.0704   -1.7169    0.4213 H   0  0  0  0  0  0  0  0  0  0  0  0
    1.6135    1.1189   -1.4929 H   0  0  0  0  0  0  0  0  0  0  0  0
    1.0369    2.2485   -0.1058 H   0  0  0  0  0  0  0  0  0  0  0  0
   -1.0774    1.1907   -1.6550 H   0  0  0  0  0  0  0  0  0  0  0  0
   -1.4018    1.9032    0.9068 H   0  0  0  0  0  0  0  0  0  0  0  0
   -2.7970    0.0336   -0.2709 H   0  0  0  0  0  0  0  0  0  0  0  0
   -2.4604   -0.4245    1.4844 H   0  0  0  0  0  0  0  0  0  0  0  0
   -1.6969   -1.9853   -0.6625 H   0  0  0  0  0  0  0  0  0  0  0  0
   -0.6960   -1.7663    0.8658 H   0  0  0  0  0  0  0  0  0  0  0  0
    0.4049   -0.9781   -1.6258 H   0  0  0  0  0  0  0  0  0  0  0  0
  1  2  1  0
  2  3  1  0
  3  4  1  0
  4  5  1  0
  5  6  1  0
  6  7  1  0
  7  8  1  0
  5  9  1  0
  8  2  1  0
  9  2  1  0
  8  4  1  0
  1 10  1  0
  1 11  1  0
  1 12  1  0
  3 13  1  0
  3 14  1  0
  4 15  1  0
  5 16  1  0
  6 17  1  0
  6 18  1  0
  7 19  1  0
  7 20  1  0
  8 21  1  0
M  END
