
     RDKit          3D

 21 23  0  0  0  0  0  0  0  0999 V2000
    2.3401   -0.0427    0.2100 C   0  0  0  0  0  0  0  0  0  0  0  0
    0.8378   -0.0150    0.1454 C   0  0  0  0  0  0  0  0  0  0  0  0
    0.1751    1.1977    0.6757 C   0  0  0  0  0  0  0  0  0  0  0  0
   -1.2927    0.9545    0.3007 C   0  0  0  0  0  0  0  0  0  0  0  0
   -1.1478    0.5218   -1.1412 C   0  0  0  0  0  0  0  0  0  0  0  0
    0.1115   -0.3060   -1.1179 C   0  0  0  0  0  0  0  0  0  0  0  0
    0.0596   -1.2272    0.0318 C   0  0  0  0  0  0  0  0  0  0  0  0
   -1.2747   -1.2707    0.6794 C   0  0  0  0  0  0  0  0  0  0  0  0
   -1.7388   -0.0473    1.1308 O   0  0  0  0  0  0  0  0  0  0  0  0
    2.6346    0.3371    1.2247 H   0  0  0  0  0  0  0  0  0  0  0  0
    2.7477    0.5979   -0.5935 H   0  0  0  0  0  0  0  0  0  0  0  0
    2.7080   -1.0831    0.1662 H   0  0  0  0  0  0  0  0  0  0  0  0
    0.2933    1.3880    1.7374 H   0  0  0  0  0  0  0  0  0  0  0  0
    0.4853    2.0677    0.0280 H   0  0  0  0  0  0  0  0  0  0  0  0
   -1.8962    1.8583    0.3753 H   0  0  0  0  0  0  0  0  0  0  0  0
   -2.0224   -0.0303   -1.5194 H   0  0  0  0  0  0  0  0  0  0  0  0
   -0.9968    1.4246   -1.7598 H   0  0  0  0  0  0  0  0  0  0  0  0
    0.7170   -0.4539   -2.0039 H   0  0  0  0  0  0  0  0  0  0  0  0
    0.5772   -2.1832   -0.0765 H   0  0  0  0  0  0  0  0  0  0  0  0
   -2.0866   -1.6648   -0.0016 H   0  0  0  0  0  0  0  0  0  0  0  0
   -1.2311   -2.0233    1.5082 H   0  0  0  0  0  0  0  0  0  0  0  0
  1  2  1  0
  2  3  1  0
  3  4  1  0
  4  5  1  0
  5  6  1  0
  6  7  1  0
  7  8  1  0
  8  9  1  0
  6  2  1  0
  7  2  1  0
  9  4  1  0
  1 10  1  0
  1 11  1  0
  1 12  1  0
  3 13  1  0
  3 14  1  0
  4 15  1  0
  5 16  1  0
  5 17  1  0
  6 18  1  0
  7 19  1  0
  8 20  1  0
  8 21  1  0
M  END
