
     RDKit          3D

 19 20  0  0  0  0  0  0  0  0999 V2000
    2.1306    0.3281   -0.5272 C   0  0  0  0  0  0  0  0  0  0  0  0
    0.6978    0.1453   -0.1229 C   0  0  0  0  0  0  0  0  0  0  0  0
    0.3395    0.9207    1.0887 C   0  0  0  0  0  0  0  0  0  0  0  0
   -0.9118    1.2893    0.9264 C   0  0  0  0  0  0  0  0  0  0  0  0
   -1.3430    0.8574   -0.4346 C   0  0  0  0  0  0  0  0  0  0  0  0
   -1.9374   -0.5028   -0.4204 C   0  0  0  0  0  0  0  0  0  0  0  0
   -1.1311   -1.5113   -0.1398 C   0  0  0  0  0  0  0  0  0  0  0  0
    0.3363   -1.2952    0.1483 C   0  0  0  0  0  0  0  0  0  0  0  0
   -0.1039    0.7106   -1.1092 O   0  0  0  0  0  0  0  0  0  0  0  0
    2.7974   -0.4815   -0.1416 H   0  0  0  0  0  0  0  0  0  0  0  0
    2.2526    0.3541   -1.6383 H   0  0  0  0  0  0  0  0  0  0  0  0
    2.5318    1.3176   -0.1630 H   0  0  0  0  0  0  0  0  0  0  0  0
    1.0018    1.1119    1.9004 H   0  0  0  0  0  0  0  0  0  0  0  0
   -1.5027    1.8092    1.6571 H   0  0  0  0  0  0  0  0  0  0  0  0
   -1.9770    1.5965   -0.9391 H   0  0  0  0  0  0  0  0  0  0  0  0
   -2.9876   -0.6062   -0.6370 H   0  0  0  0  0  0  0  0  0  0  0  0
   -1.5461   -2.5003   -0.1206 H   0  0  0  0  0  0  0  0  0  0  0  0
    0.4690   -1.5842    1.2056 H   0  0  0  0  0  0  0  0  0  0  0  0
    0.8838   -1.9592   -0.5325 H   0  0  0  0  0  0  0  0  0  0  0  0
  1  2  1  0
  2  3  1  0
  3  4  2  0
  4  5  1  0
  5  6  1  0
  6  7  2  0
  7  8  1  0
  5  9  1  0
  8  2  1  0
  9  2  1  0
  1 10  1  0
  1 11  1  0
  1 12  1  0
  3 13  1  0
  4 14  1  0
  5 15  1  0
  6 16  1  0
  7 17  1  0
  8 18  1  0
  8 19  1  0
M  END
