
     RDKit          3D

 19 20  0  0  0  0  0  0  0  0999 V2000
   -0.8722    1.4118   -0.3549 C   0  0  0  0  0  0  0  0  0  0  0  0
   -0.9528   -0.0733   -0.2558 C   0  0  0  0  0  0  0  0  0  0  0  0
   -1.4803   -0.7255    0.9960 C   0  0  0  0  0  0  0  0  0  0  0  0
   -0.2787   -1.4055    1.1171 O   0  0  0  0  0  0  0  0  0  0  0  0
    0.2344   -0.9056   -0.0595 C   0  0  0  0  0  0  0  0  0  0  0  0
    1.6307   -0.3503   -0.1373 C   0  0  0  0  0  0  0  0  0  0  0  0
    1.9200    0.6958    0.8563 C   0  0  0  0  0  0  0  0  0  0  0  0
    1.6836    0.5122    2.0233 O   0  0  0  0  0  0  0  0  0  0  0  0
   -0.5586   -0.9916   -1.3414 C   0  0  0  0  0  0  0  0  0  0  0  0
   -1.8817    1.8653   -0.3874 H   0  0  0  0  0  0  0  0  0  0  0  0
   -0.3803    1.8697    0.5500 H   0  0  0  0  0  0  0  0  0  0  0  0
   -0.2407    1.6777   -1.2067 H   0  0  0  0  0  0  0  0  0  0  0  0
   -1.7376   -0.0154    1.8053 H   0  0  0  0  0  0  0  0  0  0  0  0
   -2.3644   -1.3454    0.7496 H   0  0  0  0  0  0  0  0  0  0  0  0
    1.8398   -0.0602   -1.1748 H   0  0  0  0  0  0  0  0  0  0  0  0
    2.3050   -1.2374    0.0862 H   0  0  0  0  0  0  0  0  0  0  0  0
    2.3427    1.6248    0.5318 H   0  0  0  0  0  0  0  0  0  0  0  0
   -1.1697   -1.9026   -1.5494 H   0  0  0  0  0  0  0  0  0  0  0  0
   -0.0392   -0.6443   -2.2484 H   0  0  0  0  0  0  0  0  0  0  0  0
  1  2  1  0
  2  3  1  0
  3  4  1  0
  4  5  1  0
  5  6  1  0
  6  7  1  0
  7  8  2  0
  5  9  1  0
  5  2  1  0
  9  2  1  0
  1 10  1  0
  1 11  1  0
  1 12  1  0
  3 13  1  0
  3 14  1  0
  6 15  1  0
  6 16  1  0
  7 17  1  0
  9 18  1  0
  9 19  1  0
M  END
