
     RDKit          3D

 21 22  0  0  0  0  0  0  0  0999 V2000
   -2.7037    0.9356   -0.1406 C   0  0  0  0  0  0  0  0  0  0  0  0
   -1.5975   -0.0019   -0.5022 C   0  0  0  0  0  0  0  0  0  0  0  0
   -1.5883   -1.3144    0.1752 C   0  0  0  0  0  0  0  0  0  0  0  0
   -0.5151   -0.3603    0.4397 C   0  0  0  0  0  0  0  0  0  0  0  0
    0.4288   -0.1769   -0.7147 C   0  0  0  0  0  0  0  0  0  0  0  0
    1.5994    0.7216   -0.4620 C   0  0  0  0  0  0  0  0  0  0  0  0
    2.3896    0.0990    0.6984 C   0  0  0  0  0  0  0  0  0  0  0  0
    2.8254   -1.1754    0.3700 O   0  0  0  0  0  0  0  0  0  0  0  0
   -0.6335    0.3635   -1.4153 O   0  0  0  0  0  0  0  0  0  0  0  0
   -3.6069    0.3215    0.0727 H   0  0  0  0  0  0  0  0  0  0  0  0
   -2.9691    1.5970   -0.9793 H   0  0  0  0  0  0  0  0  0  0  0  0
   -2.5065    1.5206    0.7821 H   0  0  0  0  0  0  0  0  0  0  0  0
   -2.3296   -1.4970    0.9408 H   0  0  0  0  0  0  0  0  0  0  0  0
   -1.3869   -2.1916   -0.4948 H   0  0  0  0  0  0  0  0  0  0  0  0
   -0.3541    0.1574    1.3932 H   0  0  0  0  0  0  0  0  0  0  0  0
    0.7771   -1.1323   -1.1676 H   0  0  0  0  0  0  0  0  0  0  0  0
    1.3391    1.7508   -0.2228 H   0  0  0  0  0  0  0  0  0  0  0  0
    2.2634    0.6545   -1.3532 H   0  0  0  0  0  0  0  0  0  0  0  0
    3.2249    0.7731    0.9516 H   0  0  0  0  0  0  0  0  0  0  0  0
    1.7609    0.0141    1.6069 H   0  0  0  0  0  0  0  0  0  0  0  0
    3.5825   -1.0592   -0.2688 H   0  0  0  0  0  0  0  0  0  0  0  0
  1  2  1  0
  2  3  1  0
  3  4  1  0
  4  5  1  0
  5  6  1  0
  6  7  1  0
  7  8  1  0
  5  9  1  0
  4  2  1  0
  9  2  1  0
  1 10  1  0
  1 11  1  0
  1 12  1  0
  3 13  1  0
  3 14  1  0
  4 15  1  0
  5 16  1  0
  6 17  1  0
  6 18  1  0
  7 19  1  0
  7 20  1  0
  8 21  1  0
M  END
