
     RDKit          3D

 19 21  0  0  0  0  0  0  0  0999 V2000
    2.3603    0.6807    0.3565 C   0  0  0  0  0  0  0  0  0  0  0  0
    1.0645    0.3993   -0.3253 C   0  0  0  0  0  0  0  0  0  0  0  0
    0.9762   -0.7607   -1.2048 C   0  0  0  0  0  0  0  0  0  0  0  0
    0.2377   -0.8207    0.1422 C   0  0  0  0  0  0  0  0  0  0  0  0
   -0.8524    0.1512    0.2123 C   0  0  0  0  0  0  0  0  0  0  0  0
   -1.9800    0.0537   -0.7666 C   0  0  0  0  0  0  0  0  0  0  0  0
   -2.8273    0.4977    0.2697 O   0  0  0  0  0  0  0  0  0  0  0  0
   -1.8682    0.1254    1.2446 C   0  0  0  0  0  0  0  0  0  0  0  0
    0.0051    1.1816    0.0513 O   0  0  0  0  0  0  0  0  0  0  0  0
    2.3758    0.3637    1.4089 H   0  0  0  0  0  0  0  0  0  0  0  0
    3.1974    0.2032   -0.2246 H   0  0  0  0  0  0  0  0  0  0  0  0
    2.5533    1.7855    0.2543 H   0  0  0  0  0  0  0  0  0  0  0  0
    1.8215   -1.4452   -1.2452 H   0  0  0  0  0  0  0  0  0  0  0  0
    0.2634   -0.8460   -2.0527 H   0  0  0  0  0  0  0  0  0  0  0  0
    0.6917   -1.3337    0.9785 H   0  0  0  0  0  0  0  0  0  0  0  0
   -1.8384    0.8077   -1.5780 H   0  0  0  0  0  0  0  0  0  0  0  0
   -2.2148   -0.9196   -1.1849 H   0  0  0  0  0  0  0  0  0  0  0  0
   -2.1358   -0.9232    1.5624 H   0  0  0  0  0  0  0  0  0  0  0  0
   -1.8299    0.7993    2.1014 H   0  0  0  0  0  0  0  0  0  0  0  0
  1  2  1  0
  2  3  1  0
  3  4  1  0
  4  5  1  0
  5  6  1  0
  6  7  1  0
  7  8  1  0
  5  9  1  0
  4  2  1  0
  8  5  1  0
  9  2  1  0
  1 10  1  0
  1 11  1  0
  1 12  1  0
  3 13  1  0
  3 14  1  0
  4 15  1  0
  6 16  1  0
  6 17  1  0
  8 18  1  0
  8 19  1  0
M  END
