
     RDKit          3D

 17 18  0  0  0  0  0  0  0  0999 V2000
    1.8911    0.4362    0.1292 C   0  0  0  0  0  0  0  0  0  0  0  0
    0.4669    0.2757   -0.0681 C   0  0  0  0  0  0  0  0  0  0  0  0
   -0.4879    1.1854    0.6991 C   0  0  0  0  0  0  0  0  0  0  0  0
   -1.3498    0.7086   -0.4405 C   0  0  0  0  0  0  0  0  0  0  0  0
   -0.1543    0.7279   -1.2067 O   0  0  0  0  0  0  0  0  0  0  0  0
   -1.5355   -0.7088   -0.0703 C   0  0  0  0  0  0  0  0  0  0  0  0
   -2.5458   -1.2885    0.0722 O   0  0  0  0  0  0  0  0  0  0  0  0
   -0.1262   -1.1384    0.0557 C   0  0  0  0  0  0  0  0  0  0  0  0
    0.3237   -1.8609   -1.0283 O   0  0  0  0  0  0  0  0  0  0  0  0
    2.4214   -0.5226   -0.0953 H   0  0  0  0  0  0  0  0  0  0  0  0
    2.1021    0.6739    1.2131 H   0  0  0  0  0  0  0  0  0  0  0  0
    2.2920    1.2912   -0.4417 H   0  0  0  0  0  0  0  0  0  0  0  0
   -0.7617    0.8510    1.6963 H   0  0  0  0  0  0  0  0  0  0  0  0
   -0.1817    2.2189    0.5663 H   0  0  0  0  0  0  0  0  0  0  0  0
   -2.1606    1.2936   -0.7767 H   0  0  0  0  0  0  0  0  0  0  0  0
    0.1179   -1.5866    1.0260 H   0  0  0  0  0  0  0  0  0  0  0  0
   -0.3118   -2.5567   -1.3301 H   0  0  0  0  0  0  0  0  0  0  0  0
  1  2  1  0
  2  3  1  0
  3  4  1  0
  4  5  1  0
  4  6  1  0
  6  7  2  0
  6  8  1  0
  8  9  1  0
  5  2  1  0
  8  2  1  0
  1 10  1  0
  1 11  1  0
  1 12  1  0
  3 13  1  0
  3 14  1  0
  4 15  1  0
  8 16  1  0
  9 17  1  0
M  END
