
     RDKit          3D

 19 21  0  0  0  0  0  0  0  0999 V2000
   -1.7363   -0.6243   -1.0446 C   0  0  0  0  0  0  0  0  0  0  0  0
   -0.7146   -0.0935   -0.1470 C   0  0  0  0  0  0  0  0  0  0  0  0
   -1.0975    0.9162    0.7554 O   0  0  0  0  0  0  0  0  0  0  0  0
    0.1340    1.0621    1.4397 C   0  0  0  0  0  0  0  0  0  0  0  0
    1.0346    1.4146    0.2471 C   0  0  0  0  0  0  0  0  0  0  0  0
    0.6140    0.3140   -0.7140 C   0  0  0  0  0  0  0  0  0  0  0  0
    1.1609   -1.0174   -0.2433 C   0  0  0  0  0  0  0  0  0  0  0  0
    0.0150   -1.0259    0.7715 C   0  0  0  0  0  0  0  0  0  0  0  0
    0.3535   -0.2249    1.8696 O   0  0  0  0  0  0  0  0  0  0  0  0
   -1.7351   -1.7037   -1.2352 H   0  0  0  0  0  0  0  0  0  0  0  0
   -2.7533   -0.3085   -0.6848 H   0  0  0  0  0  0  0  0  0  0  0  0
   -1.6389   -0.1172   -2.0490 H   0  0  0  0  0  0  0  0  0  0  0  0
    0.1134    1.8268    2.1982 H   0  0  0  0  0  0  0  0  0  0  0  0
    0.6677    2.3648   -0.1802 H   0  0  0  0  0  0  0  0  0  0  0  0
    2.0909    1.3936    0.5007 H   0  0  0  0  0  0  0  0  0  0  0  0
    0.6784    0.5336   -1.7692 H   0  0  0  0  0  0  0  0  0  0  0  0
    2.1280   -0.8770    0.2631 H   0  0  0  0  0  0  0  0  0  0  0  0
    1.1078   -1.8431   -0.9622 H   0  0  0  0  0  0  0  0  0  0  0  0
   -0.4226   -1.9901    0.9841 H   0  0  0  0  0  0  0  0  0  0  0  0
  1  2  1  0
  2  3  1  0
  3  4  1  0
  4  5  1  0
  5  6  1  0
  6  7  1  0
  7  8  1  0
  8  9  1  0
  6  2  1  0
  8  2  1  0
  9  4  1  0
  1 10  1  0
  1 11  1  0
  1 12  1  0
  4 13  1  0
  5 14  1  0
  5 15  1  0
  6 16  1  0
  7 17  1  0
  7 18  1  0
  8 19  1  0
M  END
