
     RDKit          3D

 19 20  0  0  0  0  0  0  0  0999 V2000
    0.0326    1.8389   -0.5521 C   0  0  0  0  0  0  0  0  0  0  0  0
   -0.1024    0.5471    0.1723 C   0  0  0  0  0  0  0  0  0  0  0  0
   -1.4933    0.1418    0.5927 C   0  0  0  0  0  0  0  0  0  0  0  0
   -1.1972   -1.2309   -0.0180 C   0  0  0  0  0  0  0  0  0  0  0  0
   -0.0464   -0.6358   -0.7932 C   0  0  0  0  0  0  0  0  0  0  0  0
    1.2664   -1.2302   -0.5973 C   0  0  0  0  0  0  0  0  0  0  0  0
    1.8210   -0.7533    0.4944 C   0  0  0  0  0  0  0  0  0  0  0  0
    0.9509    0.2082    1.1512 C   0  0  0  0  0  0  0  0  0  0  0  0
    1.0993    0.6497    2.3413 O   0  0  0  0  0  0  0  0  0  0  0  0
   -0.1407    1.7066   -1.6588 H   0  0  0  0  0  0  0  0  0  0  0  0
    1.0771    2.2097   -0.4608 H   0  0  0  0  0  0  0  0  0  0  0  0
   -0.7161    2.5826   -0.2249 H   0  0  0  0  0  0  0  0  0  0  0  0
   -2.2535    0.7235    0.0485 H   0  0  0  0  0  0  0  0  0  0  0  0
   -1.6224    0.0713    1.6912 H   0  0  0  0  0  0  0  0  0  0  0  0
   -2.0179   -1.4988   -0.7309 H   0  0  0  0  0  0  0  0  0  0  0  0
   -0.9452   -1.9788    0.7340 H   0  0  0  0  0  0  0  0  0  0  0  0
   -0.2582   -0.3779   -1.8472 H   0  0  0  0  0  0  0  0  0  0  0  0
    1.7281   -1.9595   -1.2493 H   0  0  0  0  0  0  0  0  0  0  0  0
    2.8180   -1.0143    0.9068 H   0  0  0  0  0  0  0  0  0  0  0  0
  1  2  1  0
  2  3  1  0
  3  4  1  0
  4  5  1  0
  5  6  1  0
  6  7  2  0
  7  8  1  0
  8  9  2  0
  5  2  1  0
  8  2  1  0
  1 10  1  0
  1 11  1  0
  1 12  1  0
  3 13  1  0
  3 14  1  0
  4 15  1  0
  4 16  1  0
  5 17  1  0
  6 18  1  0
  7 19  1  0
M  END
