
     RDKit          3D

 15 16  0  0  0  0  0  0  0  0999 V2000
   -1.3040   -0.8638   -0.3626 C   0  0  0  0  0  0  0  0  0  0  0  0
   -0.5469    0.3082    0.1709 C   0  0  0  0  0  0  0  0  0  0  0  0
    0.2624    0.2503    1.3922 C   0  0  0  0  0  0  0  0  0  0  0  0
    0.9170    0.4322    0.0696 C   0  0  0  0  0  0  0  0  0  0  0  0
    1.7693   -0.6496   -0.4618 C   0  0  0  0  0  0  0  0  0  0  0  0
    2.3531   -0.6058   -1.5128 O   0  0  0  0  0  0  0  0  0  0  0  0
    0.7439    1.6145   -0.6652 O   0  0  0  0  0  0  0  0  0  0  0  0
   -0.6412    1.6240   -0.5051 C   0  0  0  0  0  0  0  0  0  0  0  0
   -1.5319    2.4452   -0.8280 O   0  0  0  0  0  0  0  0  0  0  0  0
   -2.1689   -1.0561    0.3015 H   0  0  0  0  0  0  0  0  0  0  0  0
   -1.7010   -0.6041   -1.3634 H   0  0  0  0  0  0  0  0  0  0  0  0
   -0.6862   -1.7838   -0.3752 H   0  0  0  0  0  0  0  0  0  0  0  0
    0.4886   -0.6884    1.9139 H   0  0  0  0  0  0  0  0  0  0  0  0
    0.1686    1.1249    2.0886 H   0  0  0  0  0  0  0  0  0  0  0  0
    1.8771   -1.5477    0.1373 H   0  0  0  0  0  0  0  0  0  0  0  0
  1  2  1  0
  2  3  1  0
  3  4  1  0
  4  5  1  0
  5  6  2  0
  4  7  1  0
  7  8  1  0
  8  9  2  0
  4  2  1  0
  8  2  1  0
  1 10  1  0
  1 11  1  0
  1 12  1  0
  3 13  1  0
  3 14  1  0
  5 15  1  0
M  END
