
     RDKit          3D

 21 23  0  0  0  0  0  0  0  0999 V2000
   -1.6152   -1.1606    1.0108 C   0  0  0  0  0  0  0  0  0  0  0  0
   -0.5380   -0.8385    0.0221 C   0  0  0  0  0  0  0  0  0  0  0  0
   -1.0544   -0.2186   -1.2695 C   0  0  0  0  0  0  0  0  0  0  0  0
   -0.1647    0.5272   -0.3494 C   0  0  0  0  0  0  0  0  0  0  0  0
   -0.6938    1.7446    0.3380 C   0  0  0  0  0  0  0  0  0  0  0  0
    1.3172    0.4600   -0.5985 C   0  0  0  0  0  0  0  0  0  0  0  0
    2.2603    0.0804    0.4577 C   0  0  0  0  0  0  0  0  0  0  0  0
    1.6413   -0.9673   -0.4555 C   0  0  0  0  0  0  0  0  0  0  0  0
    0.5460   -1.6654   -0.0248 O   0  0  0  0  0  0  0  0  0  0  0  0
   -1.2619   -1.2080    2.0614 H   0  0  0  0  0  0  0  0  0  0  0  0
   -2.0654   -2.1460    0.7244 H   0  0  0  0  0  0  0  0  0  0  0  0
   -2.4455   -0.4349    0.9927 H   0  0  0  0  0  0  0  0  0  0  0  0
   -2.1268    0.0815   -1.3209 H   0  0  0  0  0  0  0  0  0  0  0  0
   -0.6539   -0.5642   -2.2330 H   0  0  0  0  0  0  0  0  0  0  0  0
   -0.5780    2.6148   -0.3613 H   0  0  0  0  0  0  0  0  0  0  0  0
   -0.1139    2.0309    1.2484 H   0  0  0  0  0  0  0  0  0  0  0  0
   -1.7736    1.6371    0.5445 H   0  0  0  0  0  0  0  0  0  0  0  0
    1.6813    0.9932   -1.4974 H   0  0  0  0  0  0  0  0  0  0  0  0
    1.9310    0.1432    1.5086 H   0  0  0  0  0  0  0  0  0  0  0  0
    3.3195    0.3498    0.3154 H   0  0  0  0  0  0  0  0  0  0  0  0
    2.3884   -1.4592   -1.1137 H   0  0  0  0  0  0  0  0  0  0  0  0
  1  2  1  0
  2  3  1  0
  3  4  1  0
  4  5  1  0
  4  6  1  0
  6  7  1  0
  7  8  1  0
  8  9  1  0
  4  2  1  0
  8  6  1  0
  9  2  1  0
  1 10  1  0
  1 11  1  0
  1 12  1  0
  3 13  1  0
  3 14  1  0
  5 15  1  0
  5 16  1  0
  5 17  1  0
  6 18  1  0
  7 19  1  0
  7 20  1  0
  8 21  1  0
M  END
