
     RDKit          3D

 20 21  0  0  0  0  0  0  0  0999 V2000
    2.1481   -0.3291   -0.2498 C   0  0  0  0  0  0  0  0  0  0  0  0
    0.7378   -0.0688   -0.0736 C   0  0  0  0  0  0  0  0  0  0  0  0
   -0.2820   -1.1255   -0.3530 C   0  0  0  0  0  0  0  0  0  0  0  0
   -1.5321   -0.3760    0.1545 C   0  0  0  0  0  0  0  0  0  0  0  0
   -2.5595   -0.4185   -0.7388 O   0  0  0  0  0  0  0  0  0  0  0  0
   -0.9299    0.9658    0.3771 C   0  0  0  0  0  0  0  0  0  0  0  0
    0.2824    0.5864    1.2401 C   0  0  0  0  0  0  0  0  0  0  0  0
    0.1173    1.1481   -0.7309 C   0  0  0  0  0  0  0  0  0  0  0  0
    2.7369    0.3583    0.4246 H   0  0  0  0  0  0  0  0  0  0  0  0
    2.3718   -1.3921   -0.0411 H   0  0  0  0  0  0  0  0  0  0  0  0
    2.4753   -0.0852   -1.2801 H   0  0  0  0  0  0  0  0  0  0  0  0
   -0.1126   -2.0488    0.2038 H   0  0  0  0  0  0  0  0  0  0  0  0
   -0.4660   -1.2701   -1.4384 H   0  0  0  0  0  0  0  0  0  0  0  0
   -1.7628   -0.8296    1.1383 H   0  0  0  0  0  0  0  0  0  0  0  0
   -3.1271   -1.2037   -0.5436 H   0  0  0  0  0  0  0  0  0  0  0  0
   -1.5016    1.8042    0.6658 H   0  0  0  0  0  0  0  0  0  0  0  0
    0.9203    1.4228    1.5154 H   0  0  0  0  0  0  0  0  0  0  0  0
    0.0421   -0.1493    2.0320 H   0  0  0  0  0  0  0  0  0  0  0  0
   -0.2516    0.9505   -1.7439 H   0  0  0  0  0  0  0  0  0  0  0  0
    0.6932    2.0605   -0.5581 H   0  0  0  0  0  0  0  0  0  0  0  0
  1  2  1  0
  2  3  1  0
  3  4  1  0
  4  5  1  0
  4  6  1  0
  6  7  1  0
  6  8  1  0
  7  2  1  0
  8  2  1  0
  1  9  1  0
  1 10  1  0
  1 11  1  0
  3 12  1  0
  3 13  1  0
  4 14  1  0
  5 15  1  0
  6 16  1  0
  7 17  1  0
  7 18  1  0
  8 19  1  0
  8 20  1  0
M  END
