
     RDKit          3D

 23 24  0  0  0  0  0  0  0  0999 V2000
   -1.7324   -1.5697    0.0982 C   0  0  0  0  0  0  0  0  0  0  0  0
   -0.6569   -0.5164   -0.0449 C   0  0  0  0  0  0  0  0  0  0  0  0
    0.6379   -1.0396   -0.5122 C   0  0  0  0  0  0  0  0  0  0  0  0
    1.8447   -0.5951    0.2374 C   0  0  0  0  0  0  0  0  0  0  0  0
    1.9630    0.8941    0.0671 C   0  0  0  0  0  0  0  0  0  0  0  0
    0.9848    1.7664   -0.0727 C   0  0  0  0  0  0  0  0  0  0  0  0
   -0.4721    1.5811    0.1355 C   0  0  0  0  0  0  0  0  0  0  0  0
   -0.6436    0.4091    1.1015 C   0  0  0  0  0  0  0  0  0  0  0  0
   -1.0647    0.6594   -0.9384 C   0  0  0  0  0  0  0  0  0  0  0  0
   -1.3267   -2.5850   -0.1202 H   0  0  0  0  0  0  0  0  0  0  0  0
   -2.5751   -1.3467   -0.5724 H   0  0  0  0  0  0  0  0  0  0  0  0
   -2.0832   -1.6312    1.1694 H   0  0  0  0  0  0  0  0  0  0  0  0
    0.6121   -2.1691   -0.5311 H   0  0  0  0  0  0  0  0  0  0  0  0
    0.7878   -0.7566   -1.5864 H   0  0  0  0  0  0  0  0  0  0  0  0
    2.7364   -1.0369   -0.2610 H   0  0  0  0  0  0  0  0  0  0  0  0
    1.8372   -0.8787    1.3031 H   0  0  0  0  0  0  0  0  0  0  0  0
    2.9854    1.2558    0.0640 H   0  0  0  0  0  0  0  0  0  0  0  0
    1.2900    2.7645   -0.3855 H   0  0  0  0  0  0  0  0  0  0  0  0
   -1.0620    2.4666    0.3580 H   0  0  0  0  0  0  0  0  0  0  0  0
    0.1569    0.3113    1.8478 H   0  0  0  0  0  0  0  0  0  0  0  0
   -1.6500    0.5045    1.5711 H   0  0  0  0  0  0  0  0  0  0  0  0
   -0.4306    0.7366   -1.8555 H   0  0  0  0  0  0  0  0  0  0  0  0
   -2.1389    0.7756   -1.0728 H   0  0  0  0  0  0  0  0  0  0  0  0
  1  2  1  0
  2  3  1  0
  3  4  1  0
  4  5  1  0
  5  6  2  0
  6  7  1  0
  7  8  1  0
  7  9  1  0
  8  2  1  0
  9  2  1  0
  1 10  1  0
  1 11  1  0
  1 12  1  0
  3 13  1  0
  3 14  1  0
  4 15  1  0
  4 16  1  0
  5 17  1  0
  6 18  1  0
  7 19  1  0
  8 20  1  0
  8 21  1  0
  9 22  1  0
  9 23  1  0
M  END
