
     RDKit          3D

 18 20  0  0  0  0  0  0  0  0999 V2000
    2.0849   -0.0385    0.7132 C   0  0  0  0  0  0  0  0  0  0  0  0
    0.6861    0.3505    0.4708 C   0  0  0  0  0  0  0  0  0  0  0  0
    0.4869    1.7163    0.1937 O   0  0  0  0  0  0  0  0  0  0  0  0
    0.2741    0.9202   -0.9011 C   0  0  0  0  0  0  0  0  0  0  0  0
   -1.0854    0.2938   -1.0220 C   0  0  0  0  0  0  0  0  0  0  0  0
   -1.6419    0.4207    0.3928 C   0  0  0  0  0  0  0  0  0  0  0  0
   -0.4780   -0.5266    0.7280 C   0  0  0  0  0  0  0  0  0  0  0  0
   -0.7908   -1.1475   -0.6426 C   0  0  0  0  0  0  0  0  0  0  0  0
    2.3248    0.1115    1.8070 H   0  0  0  0  0  0  0  0  0  0  0  0
    2.7781    0.6440    0.1720 H   0  0  0  0  0  0  0  0  0  0  0  0
    2.3652   -1.0637    0.4812 H   0  0  0  0  0  0  0  0  0  0  0  0
    1.0012    0.8424   -1.7221 H   0  0  0  0  0  0  0  0  0  0  0  0
   -1.7141    0.4995   -1.8407 H   0  0  0  0  0  0  0  0  0  0  0  0
   -1.4625    1.4180    0.8562 H   0  0  0  0  0  0  0  0  0  0  0  0
   -2.6178   -0.0254    0.5606 H   0  0  0  0  0  0  0  0  0  0  0  0
   -0.5667   -1.1368    1.5823 H   0  0  0  0  0  0  0  0  0  0  0  0
    0.0802   -1.5524   -1.1625 H   0  0  0  0  0  0  0  0  0  0  0  0
   -1.7243   -1.7260   -0.6667 H   0  0  0  0  0  0  0  0  0  0  0  0
  1  2  1  0
  2  3  1  0
  3  4  1  0
  4  5  1  0
  5  6  1  0
  6  7  1  0
  7  8  1  0
  4  2  1  0
  8  5  1  0
  7  2  1  0
  1  9  1  0
  1 10  1  0
  1 11  1  0
  4 12  1  0
  5 13  1  0
  6 14  1  0
  6 15  1  0
  7 16  1  0
  8 17  1  0
  8 18  1  0
M  END
