
     RDKit          3D

 17 19  0  0  0  0  0  0  0  0999 V2000
   -1.0790   -1.3021   -0.1636 C   0  0  0  0  0  0  0  0  0  0  0  0
   -0.5130   -0.0064    0.2754 C   0  0  0  0  0  0  0  0  0  0  0  0
   -1.3301    1.2144    0.4464 C   0  0  0  0  0  0  0  0  0  0  0  0
   -0.4787    1.1208   -0.7378 C   0  0  0  0  0  0  0  0  0  0  0  0
    1.0179    1.1332   -0.5885 C   0  0  0  0  0  0  0  0  0  0  0  0
    1.4890    1.4044    0.6719 O   0  0  0  0  0  0  0  0  0  0  0  0
    0.9683    0.1478    0.4477 C   0  0  0  0  0  0  0  0  0  0  0  0
    1.8516   -0.9912    0.6297 C   0  0  0  0  0  0  0  0  0  0  0  0
    3.0005   -0.8339    0.9662 O   0  0  0  0  0  0  0  0  0  0  0  0
   -2.1544   -1.3447    0.0780 H   0  0  0  0  0  0  0  0  0  0  0  0
   -0.9894   -1.4993   -1.2494 H   0  0  0  0  0  0  0  0  0  0  0  0
   -0.5861   -2.1390    0.3534 H   0  0  0  0  0  0  0  0  0  0  0  0
   -2.4282    1.1762    0.2948 H   0  0  0  0  0  0  0  0  0  0  0  0
   -1.0018    1.8976    1.2811 H   0  0  0  0  0  0  0  0  0  0  0  0
   -0.9351    0.9871   -1.7204 H   0  0  0  0  0  0  0  0  0  0  0  0
    1.6645    1.0266   -1.4550 H   0  0  0  0  0  0  0  0  0  0  0  0
    1.5039   -1.9915    0.4700 H   0  0  0  0  0  0  0  0  0  0  0  0
  1  2  1  0
  2  3  1  0
  3  4  1  0
  4  5  1  0
  5  6  1  0
  6  7  1  0
  7  8  1  0
  8  9  2  0
  4  2  1  0
  7  5  1  0
  7  2  1  0
  1 10  1  0
  1 11  1  0
  1 12  1  0
  3 13  1  0
  3 14  1  0
  4 15  1  0
  5 16  1  0
  8 17  1  0
M  END
