
     RDKit          3D

 17 18  0  0  0  0  0  0  0  0999 V2000
   -1.6456   -0.3850   -0.5770 C   0  0  0  0  0  0  0  0  0  0  0  0
   -0.5448    0.2796    0.1795 C   0  0  0  0  0  0  0  0  0  0  0  0
   -0.0435    1.6358   -0.2351 C   0  0  0  0  0  0  0  0  0  0  0  0
    1.3318    1.0494   -0.2964 C   0  0  0  0  0  0  0  0  0  0  0  0
    2.3990    1.5207   -0.6539 O   0  0  0  0  0  0  0  0  0  0  0  0
    0.8261   -0.2239    0.2244 C   0  0  0  0  0  0  0  0  0  0  0  0
    1.2492   -1.5054   -0.3554 C   0  0  0  0  0  0  0  0  0  0  0  0
    2.3345   -1.9668    0.0221 O   0  0  0  0  0  0  0  0  0  0  0  0
   -0.0346   -0.2459    1.4530 C   0  0  0  0  0  0  0  0  0  0  0  0
   -1.9071    0.1878   -1.4775 H   0  0  0  0  0  0  0  0  0  0  0  0
   -1.4176   -1.4427   -0.8054 H   0  0  0  0  0  0  0  0  0  0  0  0
   -2.5450   -0.4038    0.1012 H   0  0  0  0  0  0  0  0  0  0  0  0
   -0.1396    2.3477    0.6292 H   0  0  0  0  0  0  0  0  0  0  0  0
   -0.4340    2.0418   -1.1671 H   0  0  0  0  0  0  0  0  0  0  0  0
    0.6456   -2.0342   -1.0834 H   0  0  0  0  0  0  0  0  0  0  0  0
    0.3337    0.3782    2.2756 H   0  0  0  0  0  0  0  0  0  0  0  0
   -0.4082   -1.2335    1.7659 H   0  0  0  0  0  0  0  0  0  0  0  0
  1  2  1  0
  2  3  1  0
  3  4  1  0
  4  5  2  0
  4  6  1  0
  6  7  1  0
  7  8  2  0
  6  9  1  0
  6  2  1  0
  9  2  1  0
  1 10  1  0
  1 11  1  0
  1 12  1  0
  3 13  1  0
  3 14  1  0
  7 15  1  0
  9 16  1  0
  9 17  1  0
M  END
