
     RDKit          3D

 21 22  0  0  0  0  0  0  0  0999 V2000
    1.6866   -0.7859    0.7346 C   0  0  0  0  0  0  0  0  0  0  0  0
    0.4493   -0.5252   -0.0478 C   0  0  0  0  0  0  0  0  0  0  0  0
   -0.3290   -1.7703   -0.3903 C   0  0  0  0  0  0  0  0  0  0  0  0
   -1.5243   -1.7110    0.3279 O   0  0  0  0  0  0  0  0  0  0  0  0
   -1.8522   -0.3593    0.2194 C   0  0  0  0  0  0  0  0  0  0  0  0
   -0.5840    0.2901    0.7383 C   0  0  0  0  0  0  0  0  0  0  0  0
   -0.5023    1.6693    0.1822 C   0  0  0  0  0  0  0  0  0  0  0  0
    0.7973    1.5984   -0.6262 C   0  0  0  0  0  0  0  0  0  0  0  0
    0.6836    0.2883   -1.1444 O   0  0  0  0  0  0  0  0  0  0  0  0
    2.5469   -0.2559    0.2349 H   0  0  0  0  0  0  0  0  0  0  0  0
    1.9277   -1.8818    0.6213 H   0  0  0  0  0  0  0  0  0  0  0  0
    1.6520   -0.4652    1.7750 H   0  0  0  0  0  0  0  0  0  0  0  0
   -0.6146   -1.7888   -1.4638 H   0  0  0  0  0  0  0  0  0  0  0  0
    0.2017   -2.6905   -0.0678 H   0  0  0  0  0  0  0  0  0  0  0  0
   -2.7489   -0.0712    0.7544 H   0  0  0  0  0  0  0  0  0  0  0  0
   -1.8773   -0.1450   -0.8779 H   0  0  0  0  0  0  0  0  0  0  0  0
   -0.4547    0.2003    1.8110 H   0  0  0  0  0  0  0  0  0  0  0  0
   -0.4957    2.4665    0.9207 H   0  0  0  0  0  0  0  0  0  0  0  0
   -1.3233    1.8928   -0.5506 H   0  0  0  0  0  0  0  0  0  0  0  0
    1.6476    1.7029    0.0509 H   0  0  0  0  0  0  0  0  0  0  0  0
    0.7134    2.3415   -1.4148 H   0  0  0  0  0  0  0  0  0  0  0  0
  1  2  1  0
  2  3  1  0
  3  4  1  0
  4  5  1  0
  5  6  1  0
  6  7  1  0
  7  8  1  0
  8  9  1  0
  6  2  1  0
  9  2  1  0
  1 10  1  0
  1 11  1  0
  1 12  1  0
  3 13  1  0
  3 14  1  0
  5 15  1  0
  5 16  1  0
  6 17  1  0
  7 18  1  0
  7 19  1  0
  8 20  1  0
  8 21  1  0
M  END
