
     RDKit          3D

 19 21  0  0  0  0  0  0  0  0999 V2000
    1.7652    0.0324   -0.5851 C   0  0  0  0  0  0  0  0  0  0  0  0
    0.4686    0.1583   -0.1872 C   0  0  0  0  0  0  0  0  0  0  0  0
   -0.3578    1.4153   -0.0776 C   0  0  0  0  0  0  0  0  0  0  0  0
    0.0241    2.3080    0.8901 O   0  0  0  0  0  0  0  0  0  0  0  0
   -1.3106    0.3341    0.3199 C   0  0  0  0  0  0  0  0  0  0  0  0
   -0.7581   -0.4506   -0.8303 C   0  0  0  0  0  0  0  0  0  0  0  0
   -0.7515   -1.8465   -0.3660 C   0  0  0  0  0  0  0  0  0  0  0  0
   -0.3446   -1.7317    0.9218 C   0  0  0  0  0  0  0  0  0  0  0  0
   -0.1768   -0.2794    1.0902 C   0  0  0  0  0  0  0  0  0  0  0  0
    2.3716    0.9872   -0.5805 H   0  0  0  0  0  0  0  0  0  0  0  0
    2.3982   -0.6731    0.0325 H   0  0  0  0  0  0  0  0  0  0  0  0
    1.9096   -0.3544   -1.6386 H   0  0  0  0  0  0  0  0  0  0  0  0
   -0.6161    1.8347   -1.0753 H   0  0  0  0  0  0  0  0  0  0  0  0
   -0.2711    3.2195    0.5891 H   0  0  0  0  0  0  0  0  0  0  0  0
   -2.2669    0.4193    0.6047 H   0  0  0  0  0  0  0  0  0  0  0  0
   -1.0044   -0.2007   -1.8285 H   0  0  0  0  0  0  0  0  0  0  0  0
   -1.0056   -2.7431   -0.9085 H   0  0  0  0  0  0  0  0  0  0  0  0
   -0.1984   -2.5627    1.6095 H   0  0  0  0  0  0  0  0  0  0  0  0
    0.1246    0.1335    2.0198 H   0  0  0  0  0  0  0  0  0  0  0  0
  1  2  1  0
  2  3  1  0
  3  4  1  0
  3  5  1  0
  5  6  1  0
  6  7  1  0
  7  8  2  0
  8  9  1  0
  6  2  1  0
  9  2  1  0
  9  5  1  0
  1 10  1  0
  1 11  1  0
  1 12  1  0
  3 13  1  0
  4 14  1  0
  5 15  1  0
  6 16  1  0
  7 17  1  0
  8 18  1  0
  9 19  1  0
M  END
