
     RDKit          3D

 17 18  0  0  0  0  0  0  0  0999 V2000
   -1.7065   -1.0672    0.0994 C   0  0  0  0  0  0  0  0  0  0  0  0
   -0.5101   -0.3364   -0.4236 C   0  0  0  0  0  0  0  0  0  0  0  0
   -0.7268    1.1329   -0.7391 C   0  0  0  0  0  0  0  0  0  0  0  0
    0.1581    0.7375    0.3558 C   0  0  0  0  0  0  0  0  0  0  0  0
   -0.1989    0.8241    1.6851 O   0  0  0  0  0  0  0  0  0  0  0  0
    1.6463    0.6553    0.0194 C   0  0  0  0  0  0  0  0  0  0  0  0
    1.7382   -0.7907   -0.3905 C   0  0  0  0  0  0  0  0  0  0  0  0
    2.6983   -1.5764   -0.1744 O   0  0  0  0  0  0  0  0  0  0  0  0
    0.5324   -1.0315   -1.0474 O   0  0  0  0  0  0  0  0  0  0  0  0
   -1.8762   -1.9984   -0.4554 H   0  0  0  0  0  0  0  0  0  0  0  0
   -2.6437   -0.4606   -0.0207 H   0  0  0  0  0  0  0  0  0  0  0  0
   -1.6023   -1.3643    1.1775 H   0  0  0  0  0  0  0  0  0  0  0  0
   -0.2979    1.4354   -1.7041 H   0  0  0  0  0  0  0  0  0  0  0  0
   -1.7303    1.5473   -0.5498 H   0  0  0  0  0  0  0  0  0  0  0  0
    0.3497    0.1682    2.2042 H   0  0  0  0  0  0  0  0  0  0  0  0
    2.2880    0.8925    0.8642 H   0  0  0  0  0  0  0  0  0  0  0  0
    1.8817    1.2323   -0.9006 H   0  0  0  0  0  0  0  0  0  0  0  0
  1  2  1  0
  2  3  1  0
  3  4  1  0
  4  5  1  0
  4  6  1  0
  6  7  1  0
  7  8  2  0
  7  9  1  0
  4  2  1  0
  9  2  1  0
  1 10  1  0
  1 11  1  0
  1 12  1  0
  3 13  1  0
  3 14  1  0
  5 15  1  0
  6 16  1  0
  6 17  1  0
M  END
