
     RDKit          3D

 19 22  0  0  0  0  0  0  0  0999 V2000
   -1.9398   -0.3224   -0.6507 C   0  0  0  0  0  0  0  0  0  0  0  0
   -0.5689   -0.2059   -0.2016 C   0  0  0  0  0  0  0  0  0  0  0  0
   -0.0664   -1.2112    0.8476 C   0  0  0  0  0  0  0  0  0  0  0  0
    0.9424   -0.0857    1.1268 C   0  0  0  0  0  0  0  0  0  0  0  0
    1.7196    0.1650   -0.1248 C   0  0  0  0  0  0  0  0  0  0  0  0
    1.1333    1.3371   -0.7377 C   0  0  0  0  0  0  0  0  0  0  0  0
    0.2627    1.9069    0.2086 O   0  0  0  0  0  0  0  0  0  0  0  0
   -0.2504    0.8406    0.8756 C   0  0  0  0  0  0  0  0  0  0  0  0
    0.5370    0.0815   -1.1573 C   0  0  0  0  0  0  0  0  0  0  0  0
   -1.9916   -0.7759   -1.6475 H   0  0  0  0  0  0  0  0  0  0  0  0
   -2.4707    0.6419   -0.5870 H   0  0  0  0  0  0  0  0  0  0  0  0
   -2.5041   -1.0167    0.0360 H   0  0  0  0  0  0  0  0  0  0  0  0
    0.4468   -2.0728    0.4274 H   0  0  0  0  0  0  0  0  0  0  0  0
   -0.7726   -1.3763    1.6650 H   0  0  0  0  0  0  0  0  0  0  0  0
    1.4020   -0.0603    2.0786 H   0  0  0  0  0  0  0  0  0  0  0  0
    2.6335   -0.3353   -0.3760 H   0  0  0  0  0  0  0  0  0  0  0  0
    1.7172    2.0078   -1.3908 H   0  0  0  0  0  0  0  0  0  0  0  0
   -0.9562    0.9517    1.6637 H   0  0  0  0  0  0  0  0  0  0  0  0
    0.7262   -0.4697   -2.0559 H   0  0  0  0  0  0  0  0  0  0  0  0
  1  2  1  0
  2  3  1  0
  3  4  1  0
  4  5  1  0
  5  6  1  0
  6  7  1  0
  7  8  1  0
  6  9  1  0
  8  2  1  0
  9  2  1  0
  8  4  1  0
  9  5  1  0
  1 10  1  0
  1 11  1  0
  1 12  1  0
  3 13  1  0
  3 14  1  0
  4 15  1  0
  5 16  1  0
  6 17  1  0
  8 18  1  0
  9 19  1  0
M  END
