
     RDKit          3D

 19 20  0  0  0  0  0  0  0  0999 V2000
    2.0561   -0.2235   -0.5665 C   0  0  0  0  0  0  0  0  0  0  0  0
    0.6962   -0.0587   -0.1173 C   0  0  0  0  0  0  0  0  0  0  0  0
   -0.4576   -0.5073   -0.9712 C   0  0  0  0  0  0  0  0  0  0  0  0
   -1.5960    0.0073   -0.0671 C   0  0  0  0  0  0  0  0  0  0  0  0
   -2.0990    1.1936   -0.6159 O   0  0  0  0  0  0  0  0  0  0  0  0
   -0.7909    0.3750    1.1424 C   0  0  0  0  0  0  0  0  0  0  0  0
    0.2915   -0.6931    1.2253 C   0  0  0  0  0  0  0  0  0  0  0  0
    0.2718    1.2195    0.5208 C   0  0  0  0  0  0  0  0  0  0  0  0
    0.6550    2.3549    0.4972 O   0  0  0  0  0  0  0  0  0  0  0  0
    2.1369   -0.9757   -1.3646 H   0  0  0  0  0  0  0  0  0  0  0  0
    2.6989   -0.5748    0.2876 H   0  0  0  0  0  0  0  0  0  0  0  0
    2.4989    0.7670   -0.8530 H   0  0  0  0  0  0  0  0  0  0  0  0
   -0.5192   -1.5993   -0.9297 H   0  0  0  0  0  0  0  0  0  0  0  0
   -0.4968   -0.0609   -1.9605 H   0  0  0  0  0  0  0  0  0  0  0  0
   -2.3577   -0.7483    0.0927 H   0  0  0  0  0  0  0  0  0  0  0  0
   -2.5818    1.0618   -1.4525 H   0  0  0  0  0  0  0  0  0  0  0  0
   -1.2577    0.7012    2.0332 H   0  0  0  0  0  0  0  0  0  0  0  0
   -0.1547   -1.6776    1.0701 H   0  0  0  0  0  0  0  0  0  0  0  0
    1.0061   -0.5611    2.0291 H   0  0  0  0  0  0  0  0  0  0  0  0
  1  2  1  0
  2  3  1  0
  3  4  1  0
  4  5  1  0
  4  6  1  0
  6  7  1  0
  6  8  1  0
  8  9  2  0
  7  2  1  0
  8  2  1  0
  1 10  1  0
  1 11  1  0
  1 12  1  0
  3 13  1  0
  3 14  1  0
  4 15  1  0
  5 16  1  0
  6 17  1  0
  7 18  1  0
  7 19  1  0
M  END
