
     RDKit          3D

 17 19  0  0  0  0  0  0  0  0999 V2000
   -0.7097    1.4882    0.7564 C   0  0  0  0  0  0  0  0  0  0  0  0
   -0.3644    0.1209    0.4123 C   0  0  0  0  0  0  0  0  0  0  0  0
   -1.4134   -0.9401    0.0408 C   0  0  0  0  0  0  0  0  0  0  0  0
   -0.3585   -1.3787   -0.9910 C   0  0  0  0  0  0  0  0  0  0  0  0
    0.8416   -1.7542   -0.3936 O   0  0  0  0  0  0  0  0  0  0  0  0
    0.9696   -0.4077    0.0418 C   0  0  0  0  0  0  0  0  0  0  0  0
    2.2269    0.1165    0.4795 C   0  0  0  0  0  0  0  0  0  0  0  0
    3.2322   -0.5666    0.4962 O   0  0  0  0  0  0  0  0  0  0  0  0
    0.1267   -0.0183   -1.0296 C   0  0  0  0  0  0  0  0  0  0  0  0
    0.0713    2.1911    0.3841 H   0  0  0  0  0  0  0  0  0  0  0  0
   -0.8654    1.5866    1.8580 H   0  0  0  0  0  0  0  0  0  0  0  0
   -1.6495    1.7966    0.2128 H   0  0  0  0  0  0  0  0  0  0  0  0
   -2.3196   -0.5411   -0.3883 H   0  0  0  0  0  0  0  0  0  0  0  0
   -1.5027   -1.6615    0.8695 H   0  0  0  0  0  0  0  0  0  0  0  0
   -0.7117   -1.9227   -1.8336 H   0  0  0  0  0  0  0  0  0  0  0  0
    2.3268    1.1391    0.8108 H   0  0  0  0  0  0  0  0  0  0  0  0
    0.0999    0.7520   -1.7262 H   0  0  0  0  0  0  0  0  0  0  0  0
  1  2  1  0
  2  3  1  0
  3  4  1  0
  4  5  1  0
  5  6  1  0
  6  7  1  0
  7  8  2  0
  6  9  1  0
  6  2  1  0
  9  2  1  0
  9  4  1  0
  1 10  1  0
  1 11  1  0
  1 12  1  0
  3 13  1  0
  3 14  1  0
  4 15  1  0
  7 16  1  0
  9 17  1  0
M  END
