
     RDKit          3D

 21 22  0  0  0  0  0  0  0  0999 V2000
    1.9987    1.1004   -0.0616 C   0  0  0  0  0  0  0  0  0  0  0  0
    0.9312    0.1623    0.4423 C   0  0  0  0  0  0  0  0  0  0  0  0
    1.0481   -1.2416   -0.0776 C   0  0  0  0  0  0  0  0  0  0  0  0
   -0.3164   -1.8602   -0.0355 C   0  0  0  0  0  0  0  0  0  0  0  0
   -1.2133   -0.8335    0.5951 C   0  0  0  0  0  0  0  0  0  0  0  0
   -2.3566   -0.5715   -0.1319 O   0  0  0  0  0  0  0  0  0  0  0  0
   -0.3929    0.4326    0.7236 C   0  0  0  0  0  0  0  0  0  0  0  0
   -1.0703    1.6999    0.3048 C   0  0  0  0  0  0  0  0  0  0  0  0
    0.5298    0.4077    1.7385 O   0  0  0  0  0  0  0  0  0  0  0  0
    2.5161    0.7024   -0.9556 H   0  0  0  0  0  0  0  0  0  0  0  0
    2.7927    1.1476    0.7366 H   0  0  0  0  0  0  0  0  0  0  0  0
    1.6403    2.1101   -0.2427 H   0  0  0  0  0  0  0  0  0  0  0  0
    1.3678   -1.1530   -1.1552 H   0  0  0  0  0  0  0  0  0  0  0  0
    1.8209   -1.8404    0.4582 H   0  0  0  0  0  0  0  0  0  0  0  0
   -0.6703   -2.1124   -1.0495 H   0  0  0  0  0  0  0  0  0  0  0  0
   -0.2549   -2.7881    0.5754 H   0  0  0  0  0  0  0  0  0  0  0  0
   -1.5466   -1.1938    1.6007 H   0  0  0  0  0  0  0  0  0  0  0  0
   -3.0134   -0.1666    0.5052 H   0  0  0  0  0  0  0  0  0  0  0  0
   -0.3412    2.4936    0.0728 H   0  0  0  0  0  0  0  0  0  0  0  0
   -1.8794    2.0248    0.9897 H   0  0  0  0  0  0  0  0  0  0  0  0
   -1.5904    1.4798   -0.6740 H   0  0  0  0  0  0  0  0  0  0  0  0
  1  2  1  0
  2  3  1  0
  3  4  1  0
  4  5  1  0
  5  6  1  0
  5  7  1  0
  7  8  1  0
  7  9  1  0
  7  2  1  0
  9  2  1  0
  1 10  1  0
  1 11  1  0
  1 12  1  0
  3 13  1  0
  3 14  1  0
  4 15  1  0
  4 16  1  0
  5 17  1  0
  6 18  1  0
  8 19  1  0
  8 20  1  0
  8 21  1  0
M  END
