
     RDKit          3D

 17 19  0  0  0  0  0  0  0  0999 V2000
    2.1317    0.2478    0.3877 C   0  0  0  0  0  0  0  0  0  0  0  0
    0.6547    0.1501    0.2853 C   0  0  0  0  0  0  0  0  0  0  0  0
   -0.1381    1.4014    0.0586 C   0  0  0  0  0  0  0  0  0  0  0  0
   -0.0292    2.5109    0.5015 O   0  0  0  0  0  0  0  0  0  0  0  0
   -1.0001    0.6100   -0.8793 C   0  0  0  0  0  0  0  0  0  0  0  0
   -2.0860   -0.0624   -0.0750 C   0  0  0  0  0  0  0  0  0  0  0  0
   -1.5434   -1.0438    0.6306 C   0  0  0  0  0  0  0  0  0  0  0  0
   -0.0823   -1.1301    0.3813 C   0  0  0  0  0  0  0  0  0  0  0  0
    0.0556   -0.4280   -0.9071 C   0  0  0  0  0  0  0  0  0  0  0  0
    2.5973    0.0034   -0.5994 H   0  0  0  0  0  0  0  0  0  0  0  0
    2.3870    1.3162    0.6096 H   0  0  0  0  0  0  0  0  0  0  0  0
    2.5949   -0.3710    1.1577 H   0  0  0  0  0  0  0  0  0  0  0  0
   -1.3117    1.0988   -1.7884 H   0  0  0  0  0  0  0  0  0  0  0  0
   -3.1295    0.2250   -0.0870 H   0  0  0  0  0  0  0  0  0  0  0  0
   -2.1049   -1.6824    1.2912 H   0  0  0  0  0  0  0  0  0  0  0  0
    0.4563   -2.0483    0.5732 H   0  0  0  0  0  0  0  0  0  0  0  0
    0.5476   -0.7978   -1.7808 H   0  0  0  0  0  0  0  0  0  0  0  0
  1  2  1  0
  2  3  1  0
  3  4  2  0
  3  5  1  0
  5  6  1  0
  6  7  2  0
  7  8  1  0
  8  9  1  0
  8  2  1  0
  9  2  1  0
  9  5  1  0
  1 10  1  0
  1 11  1  0
  1 12  1  0
  5 13  1  0
  6 14  1  0
  7 15  1  0
  8 16  1  0
  9 17  1  0
M  END
