
     RDKit          3D

 16 18  0  0  0  0  0  0  0  0999 V2000
   -1.9969    0.5541   -0.5698 C   0  0  0  0  0  0  0  0  0  0  0  0
   -0.5459    0.3109   -0.3734 C   0  0  0  0  0  0  0  0  0  0  0  0
    0.4130    0.7640   -1.2240 O   0  0  0  0  0  0  0  0  0  0  0  0
    1.2927   -0.2496   -0.8300 C   0  0  0  0  0  0  0  0  0  0  0  0
    1.9642    0.1737    0.4255 C   0  0  0  0  0  0  0  0  0  0  0  0
    1.1380    0.1265    1.4583 C   0  0  0  0  0  0  0  0  0  0  0  0
   -0.1781   -0.3438    0.9575 C   0  0  0  0  0  0  0  0  0  0  0  0
    0.0949   -0.9922   -0.3259 C   0  0  0  0  0  0  0  0  0  0  0  0
   -2.5413    0.4794    0.3844 H   0  0  0  0  0  0  0  0  0  0  0  0
   -2.4790   -0.0641   -1.3301 H   0  0  0  0  0  0  0  0  0  0  0  0
   -2.1201    1.6253   -0.9078 H   0  0  0  0  0  0  0  0  0  0  0  0
    1.9004   -0.7023   -1.5967 H   0  0  0  0  0  0  0  0  0  0  0  0
    2.9919    0.4797    0.4871 H   0  0  0  0  0  0  0  0  0  0  0  0
    1.3030    0.3664    2.5040 H   0  0  0  0  0  0  0  0  0  0  0  0
   -0.9799   -0.5997    1.6323 H   0  0  0  0  0  0  0  0  0  0  0  0
   -0.2569   -1.9283   -0.6915 H   0  0  0  0  0  0  0  0  0  0  0  0
  1  2  1  0
  2  3  1  0
  3  4  1  0
  4  5  1  0
  5  6  2  0
  6  7  1  0
  7  8  1  0
  7  2  1  0
  8  2  1  0
  8  4  1  0
  1  9  1  0
  1 10  1  0
  1 11  1  0
  4 12  1  0
  5 13  1  0
  6 14  1  0
  7 15  1  0
  8 16  1  0
M  END
