
     RDKit          3D

 19 21  0  0  0  0  0  0  0  0999 V2000
   -2.1016    0.6169   -0.0946 C   0  0  0  0  0  0  0  0  0  0  0  0
   -0.6234    0.3833   -0.1477 C   0  0  0  0  0  0  0  0  0  0  0  0
    0.3367    1.4364    0.3078 C   0  0  0  0  0  0  0  0  0  0  0  0
    1.1582    0.3384    0.9536 C   0  0  0  0  0  0  0  0  0  0  0  0
    2.1011   -0.1858   -0.0708 C   0  0  0  0  0  0  0  0  0  0  0  0
    1.4284   -0.8645   -0.9890 C   0  0  0  0  0  0  0  0  0  0  0  0
   -0.0352   -0.8563   -0.6602 C   0  0  0  0  0  0  0  0  0  0  0  0
   -0.8284   -1.8393   -1.2154 O   0  0  0  0  0  0  0  0  0  0  0  0
   -0.0216   -0.5604    0.7846 C   0  0  0  0  0  0  0  0  0  0  0  0
   -2.4701    0.9048    0.9182 H   0  0  0  0  0  0  0  0  0  0  0  0
   -2.3881    1.4255   -0.8041 H   0  0  0  0  0  0  0  0  0  0  0  0
   -2.6171   -0.3101   -0.3645 H   0  0  0  0  0  0  0  0  0  0  0  0
   -0.0479    2.2098    0.9884 H   0  0  0  0  0  0  0  0  0  0  0  0
    0.8239    1.9250   -0.5702 H   0  0  0  0  0  0  0  0  0  0  0  0
    1.5435    0.5229    1.9434 H   0  0  0  0  0  0  0  0  0  0  0  0
    3.1652   -0.0206   -0.0410 H   0  0  0  0  0  0  0  0  0  0  0  0
    1.8478   -1.3564   -1.8504 H   0  0  0  0  0  0  0  0  0  0  0  0
   -0.7773   -2.6502   -0.6499 H   0  0  0  0  0  0  0  0  0  0  0  0
   -0.4941   -1.1193    1.5620 H   0  0  0  0  0  0  0  0  0  0  0  0
  1  2  1  0
  2  3  1  0
  3  4  1  0
  4  5  1  0
  5  6  2  0
  6  7  1  0
  7  8  1  0
  7  9  1  0
  7  2  1  0
  9  2  1  0
  9  4  1  0
  1 10  1  0
  1 11  1  0
  1 12  1  0
  3 13  1  0
  3 14  1  0
  4 15  1  0
  5 16  1  0
  6 17  1  0
  8 18  1  0
  9 19  1  0
M  END
