
     RDKit          3D

 17 20  0  0  0  0  0  0  0  0999 V2000
   -1.9169    0.8914   -0.4495 C   0  0  0  0  0  0  0  0  0  0  0  0
   -0.6303    0.2760   -0.3094 C   0  0  0  0  0  0  0  0  0  0  0  0
    0.2203   -0.4370   -1.1878 C   0  0  0  0  0  0  0  0  0  0  0  0
   -0.4639   -1.1231    0.0435 C   0  0  0  0  0  0  0  0  0  0  0  0
    0.7400   -0.8083    0.8069 C   0  0  0  0  0  0  0  0  0  0  0  0
    1.1391   -1.2757    1.9774 O   0  0  0  0  0  0  0  0  0  0  0  0
    0.4686    0.5967    0.5978 C   0  0  0  0  0  0  0  0  0  0  0  0
    1.3852   -0.2790   -0.3278 C   0  0  0  0  0  0  0  0  0  0  0  0
    2.6099    0.1153   -0.6154 O   0  0  0  0  0  0  0  0  0  0  0  0
   -1.9216    1.8301   -1.0117 H   0  0  0  0  0  0  0  0  0  0  0  0
   -2.6688    0.1758   -0.8947 H   0  0  0  0  0  0  0  0  0  0  0  0
   -2.3579    1.1383    0.5609 H   0  0  0  0  0  0  0  0  0  0  0  0
    0.1068   -0.8947   -2.1263 H   0  0  0  0  0  0  0  0  0  0  0  0
   -1.0014   -1.9869   -0.1328 H   0  0  0  0  0  0  0  0  0  0  0  0
    0.6915   -0.8026    2.7277 H   0  0  0  0  0  0  0  0  0  0  0  0
    0.8845    1.4852    0.9291 H   0  0  0  0  0  0  0  0  0  0  0  0
    2.7149    1.0986   -0.5877 H   0  0  0  0  0  0  0  0  0  0  0  0
  1  2  1  0
  2  3  1  0
  3  4  1  0
  4  5  1  0
  5  6  1  0
  5  7  1  0
  7  8  1  0
  8  9  1  0
  4  2  1  0
  8  5  1  0
  7  2  1  0
  8  3  1  0
  1 10  1  0
  1 11  1  0
  1 12  1  0
  3 13  1  0
  4 14  1  0
  6 15  1  0
  7 16  1  0
  9 17  1  0
M  END
