
     RDKit          3D

 21 23  0  0  0  0  0  0  0  0999 V2000
    0.7821    1.7150    0.0092 C   0  0  0  0  0  0  0  0  0  0  0  0
    0.6615    0.2190    0.2223 C   0  0  0  0  0  0  0  0  0  0  0  0
    1.9150   -0.5049    0.4861 C   0  0  0  0  0  0  0  0  0  0  0  0
    1.2836   -0.6949   -0.8426 C   0  0  0  0  0  0  0  0  0  0  0  0
    0.3790   -1.8690   -0.9022 C   0  0  0  0  0  0  0  0  0  0  0  0
   -0.7206   -1.6327   -0.2436 C   0  0  0  0  0  0  0  0  0  0  0  0
   -0.6985   -0.3031    0.3271 C   0  0  0  0  0  0  0  0  0  0  0  0
   -1.7704    0.2789    1.1289 C   0  0  0  0  0  0  0  0  0  0  0  0
   -1.7706    0.6179   -0.3393 C   0  0  0  0  0  0  0  0  0  0  0  0
    0.5918    2.0061   -1.0427 H   0  0  0  0  0  0  0  0  0  0  0  0
    0.0809    2.2536    0.6747 H   0  0  0  0  0  0  0  0  0  0  0  0
    1.7982    2.0391    0.3084 H   0  0  0  0  0  0  0  0  0  0  0  0
    1.9748   -1.3727    1.1593 H   0  0  0  0  0  0  0  0  0  0  0  0
    2.8458    0.0880    0.4761 H   0  0  0  0  0  0  0  0  0  0  0  0
    1.6110   -0.1859   -1.7411 H   0  0  0  0  0  0  0  0  0  0  0  0
    0.6134   -2.7871   -1.4239 H   0  0  0  0  0  0  0  0  0  0  0  0
   -1.5880   -2.3167   -0.1049 H   0  0  0  0  0  0  0  0  0  0  0  0
   -2.5382   -0.4417    1.5191 H   0  0  0  0  0  0  0  0  0  0  0  0
   -1.4992    1.0368    1.8739 H   0  0  0  0  0  0  0  0  0  0  0  0
   -1.4579    1.6792   -0.5283 H   0  0  0  0  0  0  0  0  0  0  0  0
   -2.4935    0.1751   -1.0167 H   0  0  0  0  0  0  0  0  0  0  0  0
  1  2  1  0
  2  3  1  0
  3  4  1  0
  4  5  1  0
  5  6  2  0
  6  7  1  0
  7  8  1  0
  8  9  1  0
  4  2  1  0
  9  7  1  0
  7  2  1  0
  1 10  1  0
  1 11  1  0
  1 12  1  0
  3 13  1  0
  3 14  1  0
  4 15  1  0
  5 16  1  0
  6 17  1  0
  8 18  1  0
  8 19  1  0
  9 20  1  0
  9 21  1  0
M  END
