
     RDKit          3D

 21 22  0  0  0  0  0  0  0  0999 V2000
    2.4346   -0.3400    0.2153 C   0  0  0  0  0  0  0  0  0  0  0  0
    0.9465   -0.2008    0.5321 C   0  0  0  0  0  0  0  0  0  0  0  0
    0.6185   -0.5191    1.8500 O   0  0  0  0  0  0  0  0  0  0  0  0
    0.1888   -1.3532    0.6887 C   0  0  0  0  0  0  0  0  0  0  0  0
   -1.2815   -1.3569    0.5906 C   0  0  0  0  0  0  0  0  0  0  0  0
   -1.9078   -0.1520   -0.0025 C   0  0  0  0  0  0  0  0  0  0  0  0
   -1.1441    1.1215    0.1989 C   0  0  0  0  0  0  0  0  0  0  0  0
    0.3133    0.9942   -0.1160 C   0  0  0  0  0  0  0  0  0  0  0  0
    0.9282    2.2000    0.2662 O   0  0  0  0  0  0  0  0  0  0  0  0
    2.8902    0.5961   -0.1048 H   0  0  0  0  0  0  0  0  0  0  0  0
    2.5773   -1.1164   -0.5677 H   0  0  0  0  0  0  0  0  0  0  0  0
    3.0033   -0.6951    1.1075 H   0  0  0  0  0  0  0  0  0  0  0  0
    0.6628   -2.3693    0.7200 H   0  0  0  0  0  0  0  0  0  0  0  0
   -1.6063   -2.2594    0.0057 H   0  0  0  0  0  0  0  0  0  0  0  0
   -1.6987   -1.5369    1.6252 H   0  0  0  0  0  0  0  0  0  0  0  0
   -2.0569   -0.2790   -1.1029 H   0  0  0  0  0  0  0  0  0  0  0  0
   -2.9177   -0.0146    0.4841 H   0  0  0  0  0  0  0  0  0  0  0  0
   -1.3272    1.5875    1.1974 H   0  0  0  0  0  0  0  0  0  0  0  0
   -1.5670    1.8661   -0.5367 H   0  0  0  0  0  0  0  0  0  0  0  0
    0.4419    0.9266   -1.2140 H   0  0  0  0  0  0  0  0  0  0  0  0
    0.5019    2.9006   -0.3083 H   0  0  0  0  0  0  0  0  0  0  0  0
  1  2  1  0
  2  3  1  0
  3  4  1  0
  4  5  1  0
  5  6  1  0
  6  7  1  0
  7  8  1  0
  8  9  1  0
  4  2  1  0
  8  2  1  0
  1 10  1  0
  1 11  1  0
  1 12  1  0
  4 13  1  0
  5 14  1  0
  5 15  1  0
  6 16  1  0
  6 17  1  0
  7 18  1  0
  7 19  1  0
  8 20  1  0
  9 21  1  0
M  END
