
     RDKit          3D

 17 19  0  0  0  0  0  0  0  0999 V2000
    2.1855   -0.3565    0.0934 C   0  0  0  0  0  0  0  0  0  0  0  0
    0.7010   -0.2725   -0.0374 C   0  0  0  0  0  0  0  0  0  0  0  0
   -0.0804   -1.3877    0.1379 O   0  0  0  0  0  0  0  0  0  0  0  0
   -1.3419   -1.0645   -0.3147 C   0  0  0  0  0  0  0  0  0  0  0  0
   -1.9472   -0.1481    0.7087 C   0  0  0  0  0  0  0  0  0  0  0  0
   -1.2245    0.9724    0.8908 C   0  0  0  0  0  0  0  0  0  0  0  0
    0.0665    1.0247    0.1464 C   0  0  0  0  0  0  0  0  0  0  0  0
    0.0532    0.4169   -1.1759 C   0  0  0  0  0  0  0  0  0  0  0  0
   -1.1159   -0.2509   -1.4485 O   0  0  0  0  0  0  0  0  0  0  0  0
    2.6423   -1.2306   -0.3863 H   0  0  0  0  0  0  0  0  0  0  0  0
    2.6725    0.5471   -0.2979 H   0  0  0  0  0  0  0  0  0  0  0  0
    2.4300   -0.4402    1.1870 H   0  0  0  0  0  0  0  0  0  0  0  0
   -1.9831   -1.9176   -0.5433 H   0  0  0  0  0  0  0  0  0  0  0  0
   -2.8561   -0.3642    1.2360 H   0  0  0  0  0  0  0  0  0  0  0  0
   -1.5306    1.7816    1.5182 H   0  0  0  0  0  0  0  0  0  0  0  0
    0.7096    1.8927    0.3236 H   0  0  0  0  0  0  0  0  0  0  0  0
    0.6191    0.7974   -2.0380 H   0  0  0  0  0  0  0  0  0  0  0  0
  1  2  1  0
  2  3  1  0
  3  4  1  0
  4  5  1  0
  5  6  2  0
  6  7  1  0
  7  8  1  0
  8  9  1  0
  7  2  1  0
  8  2  1  0
  9  4  1  0
  1 10  1  0
  1 11  1  0
  1 12  1  0
  4 13  1  0
  5 14  1  0
  6 15  1  0
  7 16  1  0
  8 17  1  0
M  END
