
     RDKit          2D

 21 23  0  0  0  0  0  0  0  0999 V2000
    1.2135   -1.9423    0.0000 C   0  0  0  0  0  0  0  0  0  0  0  0
   -0.0000   -1.0607    0.0000 C   0  0  0  0  0  0  0  0  0  0  0  0
    1.0607    0.0000    0.0000 C   0  0  0  0  0  0  0  0  0  0  0  0
    0.0000    1.0607    0.0000 C   0  0  0  0  0  0  0  0  0  0  0  0
   -0.6786   -0.7964    0.0000 C   0  0  0  0  0  0  0  0  0  0  0  0
   -0.6810   -2.3972    0.0000 C   0  0  0  0  0  0  0  0  0  0  0  0
   -2.1625   -2.1625    0.0000 C   0  0  0  0  0  0  0  0  0  0  0  0
   -2.3972   -0.6810    0.0000 C   0  0  0  0  0  0  0  0  0  0  0  0
   -1.0607    0.0000    0.0000 C   0  0  0  0  0  0  0  0  0  0  0  0
    2.4271   -2.8240    0.0000 H   0  0  0  0  0  0  0  0  0  0  0  0
    0.4863   -3.2543    0.0000 H   0  0  0  0  0  0  0  0  0  0  0  0
    1.7572   -1.3593    0.0000 H   0  0  0  0  0  0  0  0  0  0  0  0
    1.9841    1.1820    0.0000 H   0  0  0  0  0  0  0  0  0  0  0  0
    1.7440   -0.4105    0.0000 H   0  0  0  0  0  0  0  0  0  0  0  0
    0.0000    2.5607    0.0000 H   0  0  0  0  0  0  0  0  0  0  0  0
    2.0024    0.3063    0.0000 H   0  0  0  0  0  0  0  0  0  0  0  0
    1.6699   -1.3819    0.0000 H   0  0  0  0  0  0  0  0  0  0  0  0
   -0.1680   -3.8067    0.0000 H   0  0  0  0  0  0  0  0  0  0  0  0
   -3.2232   -3.2232    0.0000 H   0  0  0  0  0  0  0  0  0  0  0  0
   -3.7337    0.0000    0.0000 H   0  0  0  0  0  0  0  0  0  0  0  0
   -1.9423    1.2135    0.0000 H   0  0  0  0  0  0  0  0  0  0  0  0
  1  2  1  0
  2  3  1  0
  3  4  1  0
  4  5  1  0
  5  6  1  0
  6  7  1  0
  7  8  2  0
  8  9  1  0
  6  2  1  0
  9  2  1  0
  9  4  1  0
  1 10  1  0
  1 11  1  0
  1 12  1  0
  3 13  1  0
  3 14  1  0
  4 15  1  0
  5 16  1  0
  5 17  1  0
  6 18  1  0
  7 19  1  0
  8 20  1  0
  9 21  1  0
M  END
