
     RDKit          3D

 19 22  0  0  0  0  0  0  0  0999 V2000
    2.0875   -0.1162    0.0570 C   0  0  0  0  0  0  0  0  0  0  0  0
    0.6936   -0.1554    0.1172 C   0  0  0  0  0  0  0  0  0  0  0  0
   -0.1713   -1.3423    0.5594 C   0  0  0  0  0  0  0  0  0  0  0  0
   -1.6443   -0.8482    0.5228 C   0  0  0  0  0  0  0  0  0  0  0  0
   -1.1368    0.2599    0.8157 C   0  0  0  0  0  0  0  0  0  0  0  0
   -1.7145    0.6207   -0.1185 C   0  0  0  0  0  0  0  0  0  0  0  0
   -0.1933    1.1553   -0.1145 C   0  0  0  0  0  0  0  0  0  0  0  0
    0.0006    2.1833    0.7611 O   0  0  0  0  0  0  0  0  0  0  0  0
   -0.3065    0.1143   -0.6205 C   0  0  0  0  0  0  0  0  0  0  0  0
    2.5270   -0.4546   -0.9166 H   0  0  0  0  0  0  0  0  0  0  0  0
    2.4994    0.9086    0.2499 H   0  0  0  0  0  0  0  0  0  0  0  0
    2.5846   -0.7582    0.8434 H   0  0  0  0  0  0  0  0  0  0  0  0
    0.0710   -1.6123    1.6098 H   0  0  0  0  0  0  0  0  0  0  0  0
   -0.0674   -2.1966   -0.1182 H   0  0  0  0  0  0  0  0  0  0  0  0
   -2.3463   -1.5045    0.0308 H   0  0  0  0  0  0  0  0  0  0  0  0
   -0.6921    0.6683    1.6926 H   0  0  0  0  0  0  0  0  0  0  0  0
   -2.2153    0.6922   -1.0899 H   0  0  0  0  0  0  0  0  0  0  0  0
    0.7830    2.6967    0.5169 H   0  0  0  0  0  0  0  0  0  0  0  0
   -0.7590   -0.3110   -1.4898 H   0  0  0  0  0  0  0  0  0  0  0  0
  1  2  1  0
  2  3  1  0
  3  4  1  0
  4  5  1  0
  5  6  1  0
  6  7  1  0
  7  8  1  0
  7  9  1  0
  7  2  1  0
  9  2  1  0
  6  4  1  0
  9  5  1  0
  1 10  1  0
  1 11  1  0
  1 12  1  0
  3 13  1  0
  3 14  1  0
  4 15  1  0
  5 16  1  0
  6 17  1  0
  8 18  1  0
  9 19  1  0
M  END
