
     RDKit          3D

 19 21  0  0  0  0  0  0  0  0999 V2000
   -1.0934    1.4158   -0.2841 C   0  0  0  0  0  0  0  0  0  0  0  0
   -0.5659    0.1003   -0.0811 C   0  0  0  0  0  0  0  0  0  0  0  0
   -1.4391   -1.1050    0.0419 C   0  0  0  0  0  0  0  0  0  0  0  0
   -0.4705   -2.1093    0.2977 O   0  0  0  0  0  0  0  0  0  0  0  0
    0.7005   -1.4000    0.2528 C   0  0  0  0  0  0  0  0  0  0  0  0
    0.5750   -0.4195   -0.9247 C   0  0  0  0  0  0  0  0  0  0  0  0
    1.6761    0.5150   -0.6333 C   0  0  0  0  0  0  0  0  0  0  0  0
    1.5476    0.7329    0.6768 C   0  0  0  0  0  0  0  0  0  0  0  0
    0.4326   -0.1434    1.0570 C   0  0  0  0  0  0  0  0  0  0  0  0
   -2.1816    1.4618    0.0104 H   0  0  0  0  0  0  0  0  0  0  0  0
   -1.0484    1.8328   -1.3110 H   0  0  0  0  0  0  0  0  0  0  0  0
   -0.5980    2.1593    0.4065 H   0  0  0  0  0  0  0  0  0  0  0  0
   -2.1729   -1.0302    0.8531 H   0  0  0  0  0  0  0  0  0  0  0  0
   -1.9523   -1.3759   -0.8886 H   0  0  0  0  0  0  0  0  0  0  0  0
    1.6436   -1.8866    0.3720 H   0  0  0  0  0  0  0  0  0  0  0  0
    0.4037   -0.8071   -1.8837 H   0  0  0  0  0  0  0  0  0  0  0  0
    2.3829    0.8926   -1.3605 H   0  0  0  0  0  0  0  0  0  0  0  0
    2.0881    1.3759    1.3589 H   0  0  0  0  0  0  0  0  0  0  0  0
    0.0720   -0.2094    2.0398 H   0  0  0  0  0  0  0  0  0  0  0  0
  1  2  1  0
  2  3  1  0
  3  4  1  0
  4  5  1  0
  5  6  1  0
  6  7  1  0
  7  8  2  0
  8  9  1  0
  6  2  1  0
  9  2  1  0
  9  5  1  0
  1 10  1  0
  1 11  1  0
  1 12  1  0
  3 13  1  0
  3 14  1  0
  5 15  1  0
  6 16  1  0
  7 17  1  0
  8 18  1  0
  9 19  1  0
M  END
