
     RDKit          3D

 19 22  0  0  0  0  0  0  0  0999 V2000
    1.7006   -1.0902    0.2180 C   0  0  0  0  0  0  0  0  0  0  0  0
    0.6260   -0.1767    0.3264 C   0  0  0  0  0  0  0  0  0  0  0  0
    0.2744    0.7229    1.4793 C   0  0  0  0  0  0  0  0  0  0  0  0
   -1.1039    0.6019    1.0970 C   0  0  0  0  0  0  0  0  0  0  0  0
   -0.1426    1.7175    0.5632 C   0  0  0  0  0  0  0  0  0  0  0  0
    0.1230    0.8453   -0.5836 C   0  0  0  0  0  0  0  0  0  0  0  0
    0.4857    1.1398   -1.8114 O   0  0  0  0  0  0  0  0  0  0  0  0
   -0.7490   -0.1902   -0.0716 C   0  0  0  0  0  0  0  0  0  0  0  0
   -1.5310   -1.0582   -0.8916 C   0  0  0  0  0  0  0  0  0  0  0  0
    2.5732   -0.7943    0.8686 H   0  0  0  0  0  0  0  0  0  0  0  0
    1.3875   -2.1435    0.4803 H   0  0  0  0  0  0  0  0  0  0  0  0
    2.0739   -1.1727   -0.8430 H   0  0  0  0  0  0  0  0  0  0  0  0
    0.7523    0.7313    2.4164 H   0  0  0  0  0  0  0  0  0  0  0  0
   -2.0152    0.8546    1.5314 H   0  0  0  0  0  0  0  0  0  0  0  0
   -0.5661    2.6728    0.6129 H   0  0  0  0  0  0  0  0  0  0  0  0
    1.4787    1.2242   -1.8950 H   0  0  0  0  0  0  0  0  0  0  0  0
   -1.1809   -2.1166   -0.9991 H   0  0  0  0  0  0  0  0  0  0  0  0
   -2.6051   -1.0942   -0.5513 H   0  0  0  0  0  0  0  0  0  0  0  0
   -1.5814   -0.6736   -1.9470 H   0  0  0  0  0  0  0  0  0  0  0  0
  1  2  1  0
  2  3  1  0
  3  4  1  0
  4  5  1  0
  5  6  1  0
  6  7  1  0
  6  8  1  0
  8  9  1  0
  6  2  1  0
  8  2  1  0
  5  3  1  0
  8  4  1  0
  1 10  1  0
  1 11  1  0
  1 12  1  0
  3 13  1  0
  4 14  1  0
  5 15  1  0
  7 16  1  0
  9 17  1  0
  9 18  1  0
  9 19  1  0
M  END
