
     RDKit          3D

 21 22  0  0  0  0  0  0  0  0999 V2000
   -1.2482   -1.2840   -0.7825 C   0  0  0  0  0  0  0  0  0  0  0  0
   -0.7515   -0.2394    0.1625 C   0  0  0  0  0  0  0  0  0  0  0  0
   -1.7135    0.6477    0.9079 C   0  0  0  0  0  0  0  0  0  0  0  0
   -1.3003    1.7682   -0.0214 C   0  0  0  0  0  0  0  0  0  0  0  0
   -0.1134    1.0051   -0.5169 C   0  0  0  0  0  0  0  0  0  0  0  0
    0.6783    0.1135    0.3166 C   0  0  0  0  0  0  0  0  0  0  0  0
    1.6208   -0.8977   -0.3211 C   0  0  0  0  0  0  0  0  0  0  0  0
    3.0284   -0.4728   -0.1455 C   0  0  0  0  0  0  0  0  0  0  0  0
    3.3255    0.6627   -0.5484 O   0  0  0  0  0  0  0  0  0  0  0  0
   -0.8772   -2.2745   -0.4184 H   0  0  0  0  0  0  0  0  0  0  0  0
   -2.3455   -1.2360   -0.8857 H   0  0  0  0  0  0  0  0  0  0  0  0
   -0.8448   -1.1674   -1.8289 H   0  0  0  0  0  0  0  0  0  0  0  0
   -2.7652    0.3718    0.8928 H   0  0  0  0  0  0  0  0  0  0  0  0
   -1.3213    0.8595    1.9475 H   0  0  0  0  0  0  0  0  0  0  0  0
   -2.0226    1.9148   -0.8701 H   0  0  0  0  0  0  0  0  0  0  0  0
   -1.0998    2.7236    0.5026 H   0  0  0  0  0  0  0  0  0  0  0  0
    0.0549    0.9579   -1.6070 H   0  0  0  0  0  0  0  0  0  0  0  0
    0.9985    0.4582    1.3217 H   0  0  0  0  0  0  0  0  0  0  0  0
    1.4383   -1.9336    0.0327 H   0  0  0  0  0  0  0  0  0  0  0  0
    1.4286   -0.9278   -1.4367 H   0  0  0  0  0  0  0  0  0  0  0  0
    3.8300   -1.0496    0.2951 H   0  0  0  0  0  0  0  0  0  0  0  0
  1  2  1  0
  2  3  1  0
  3  4  1  0
  4  5  1  0
  5  6  1  0
  6  7  1  0
  7  8  1  0
  8  9  2  0
  5  2  1  0
  6  2  1  0
  1 10  1  0
  1 11  1  0
  1 12  1  0
  3 13  1  0
  3 14  1  0
  4 15  1  0
  4 16  1  0
  5 17  1  0
  6 18  1  0
  7 19  1  0
  7 20  1  0
  8 21  1  0
M  END
