
     RDKit          3D

 22 23  0  0  0  0  0  0  0  0999 V2000
   -1.4086    0.2573    1.3486 C   0  0  0  0  0  0  0  0  0  0  0  0
   -0.6958    0.1848    0.0722 C   0  0  0  0  0  0  0  0  0  0  0  0
   -0.4470    1.5031   -0.6519 C   0  0  0  0  0  0  0  0  0  0  0  0
    1.0446    1.2183   -0.4920 C   0  0  0  0  0  0  0  0  0  0  0  0
    0.6898   -0.1621   -0.0593 C   0  0  0  0  0  0  0  0  0  0  0  0
    1.5206   -0.7306    1.0050 C   0  0  0  0  0  0  0  0  0  0  0  0
    0.3745   -1.1547   -1.1422 C   0  0  0  0  0  0  0  0  0  0  0  0
   -1.1021   -0.9209   -0.8823 C   0  0  0  0  0  0  0  0  0  0  0  0
   -2.2161    1.0431    1.2495 H   0  0  0  0  0  0  0  0  0  0  0  0
   -1.9858   -0.6971    1.4976 H   0  0  0  0  0  0  0  0  0  0  0  0
   -0.8104    0.4473    2.2464 H   0  0  0  0  0  0  0  0  0  0  0  0
   -0.7989    2.4016   -0.1089 H   0  0  0  0  0  0  0  0  0  0  0  0
   -0.7261    1.4712   -1.7280 H   0  0  0  0  0  0  0  0  0  0  0  0
    1.4229    1.8121    0.3573 H   0  0  0  0  0  0  0  0  0  0  0  0
    1.6219    1.2522   -1.4250 H   0  0  0  0  0  0  0  0  0  0  0  0
    1.8933    0.0165    1.7437 H   0  0  0  0  0  0  0  0  0  0  0  0
    1.0660   -1.5661    1.5540 H   0  0  0  0  0  0  0  0  0  0  0  0
    2.4628   -1.1249    0.5164 H   0  0  0  0  0  0  0  0  0  0  0  0
    0.7495   -0.7898   -2.1114 H   0  0  0  0  0  0  0  0  0  0  0  0
    0.6326   -2.1853   -0.8582 H   0  0  0  0  0  0  0  0  0  0  0  0
   -1.6603   -0.5142   -1.7510 H   0  0  0  0  0  0  0  0  0  0  0  0
   -1.6275   -1.7618   -0.3804 H   0  0  0  0  0  0  0  0  0  0  0  0
  1  2  1  0
  2  3  1  0
  3  4  1  0
  4  5  1  0
  5  6  1  0
  5  7  1  0
  7  8  1  0
  5  2  1  0
  8  2  1  0
  1  9  1  0
  1 10  1  0
  1 11  1  0
  3 12  1  0
  3 13  1  0
  4 14  1  0
  4 15  1  0
  6 16  1  0
  6 17  1  0
  6 18  1  0
  7 19  1  0
  7 20  1  0
  8 21  1  0
  8 22  1  0
M  END
