
     RDKit          3D

 19 20  0  0  0  0  0  0  0  0999 V2000
   -1.5765   -1.1485   -0.0541 C   0  0  0  0  0  0  0  0  0  0  0  0
   -0.4356   -0.1953   -0.1032 C   0  0  0  0  0  0  0  0  0  0  0  0
    0.7231   -0.7531   -0.8990 C   0  0  0  0  0  0  0  0  0  0  0  0
    1.8987   -0.0448   -0.2585 C   0  0  0  0  0  0  0  0  0  0  0  0
    1.5709   -0.0058    1.0715 O   0  0  0  0  0  0  0  0  0  0  0  0
    0.2110    0.1616    1.1956 C   0  0  0  0  0  0  0  0  0  0  0  0
   -0.1443    1.6032    0.9979 C   0  0  0  0  0  0  0  0  0  0  0  0
    0.0317    2.5686    1.6890 O   0  0  0  0  0  0  0  0  0  0  0  0
   -0.7497    1.2425   -0.3342 C   0  0  0  0  0  0  0  0  0  0  0  0
   -2.3985   -0.8300    0.6032 H   0  0  0  0  0  0  0  0  0  0  0  0
   -1.9683   -1.2660   -1.0910 H   0  0  0  0  0  0  0  0  0  0  0  0
   -1.1727   -2.1520    0.2210 H   0  0  0  0  0  0  0  0  0  0  0  0
    0.8070   -1.8265   -0.6226 H   0  0  0  0  0  0  0  0  0  0  0  0
    0.6432   -0.5963   -1.9725 H   0  0  0  0  0  0  0  0  0  0  0  0
    2.1077    0.9279   -0.7125 H   0  0  0  0  0  0  0  0  0  0  0  0
    2.7808   -0.7017   -0.3763 H   0  0  0  0  0  0  0  0  0  0  0  0
   -0.2245   -0.2368    2.1133 H   0  0  0  0  0  0  0  0  0  0  0  0
   -0.2659    1.7298   -1.1879 H   0  0  0  0  0  0  0  0  0  0  0  0
   -1.8380    1.5233   -0.2796 H   0  0  0  0  0  0  0  0  0  0  0  0
  1  2  1  0
  2  3  1  0
  3  4  1  0
  4  5  1  0
  5  6  1  0
  6  7  1  0
  7  8  2  0
  7  9  1  0
  6  2  1  0
  9  2  1  0
  1 10  1  0
  1 11  1  0
  1 12  1  0
  3 13  1  0
  3 14  1  0
  4 15  1  0
  4 16  1  0
  6 17  1  0
  9 18  1  0
  9 19  1  0
M  END
