
     RDKit          3D

 18 19  0  0  0  0  0  0  0  0999 V2000
    1.8534    0.0533    0.7522 C   0  0  0  0  0  0  0  0  0  0  0  0
    0.7329   -0.0506   -0.2212 C   0  0  0  0  0  0  0  0  0  0  0  0
   -0.0029   -1.3232   -0.4556 C   0  0  0  0  0  0  0  0  0  0  0  0
   -1.2967   -0.5947   -0.2028 C   0  0  0  0  0  0  0  0  0  0  0  0
   -1.8505   -0.9267    1.0197 O   0  0  0  0  0  0  0  0  0  0  0  0
   -0.5216    0.6948   -0.1107 C   0  0  0  0  0  0  0  0  0  0  0  0
   -0.8332    1.5261    0.9374 O   0  0  0  0  0  0  0  0  0  0  0  0
    0.4392    1.0695   -1.1706 C   0  0  0  0  0  0  0  0  0  0  0  0
    2.4298    0.9901    0.4957 H   0  0  0  0  0  0  0  0  0  0  0  0
    1.5295    0.0627    1.8194 H   0  0  0  0  0  0  0  0  0  0  0  0
    2.5419   -0.8111    0.5697 H   0  0  0  0  0  0  0  0  0  0  0  0
    0.0928   -1.6304   -1.5306 H   0  0  0  0  0  0  0  0  0  0  0  0
    0.2264   -2.1234    0.2658 H   0  0  0  0  0  0  0  0  0  0  0  0
   -2.0068   -0.5505   -1.0357 H   0  0  0  0  0  0  0  0  0  0  0  0
   -2.7922   -0.6346    1.0735 H   0  0  0  0  0  0  0  0  0  0  0  0
   -1.8324    1.5355    1.0157 H   0  0  0  0  0  0  0  0  0  0  0  0
    1.0132    1.9901   -0.9972 H   0  0  0  0  0  0  0  0  0  0  0  0
    0.2773    0.7232   -2.2247 H   0  0  0  0  0  0  0  0  0  0  0  0
  1  2  1  0
  2  3  1  0
  3  4  1  0
  4  5  1  0
  4  6  1  0
  6  7  1  0
  6  8  1  0
  6  2  1  0
  8  2  1  0
  1  9  1  0
  1 10  1  0
  1 11  1  0
  3 12  1  0
  3 13  1  0
  4 14  1  0
  5 15  1  0
  7 16  1  0
  8 17  1  0
  8 18  1  0
M  END
