
     RDKit          3D

 19 21  0  0  0  0  0  0  0  0999 V2000
   -1.1898    1.8448    0.1784 C   0  0  0  0  0  0  0  0  0  0  0  0
   -0.1789    0.7622    0.0803 C   0  0  0  0  0  0  0  0  0  0  0  0
    1.2676    1.0469    0.1084 C   0  0  0  0  0  0  0  0  0  0  0  0
    1.9517    0.0133   -0.3422 C   0  0  0  0  0  0  0  0  0  0  0  0
    0.9912   -1.0846   -0.7212 C   0  0  0  0  0  0  0  0  0  0  0  0
    0.4458   -1.6772    0.5684 C   0  0  0  0  0  0  0  0  0  0  0  0
   -0.5760   -0.5870    0.5865 C   0  0  0  0  0  0  0  0  0  0  0  0
   -1.9123   -0.8736    0.8330 O   0  0  0  0  0  0  0  0  0  0  0  0
   -0.2749   -0.3430   -0.8793 C   0  0  0  0  0  0  0  0  0  0  0  0
   -1.8500    1.9590   -0.6903 H   0  0  0  0  0  0  0  0  0  0  0  0
   -0.6703    2.8030    0.3629 H   0  0  0  0  0  0  0  0  0  0  0  0
   -1.8203    1.6584    1.0895 H   0  0  0  0  0  0  0  0  0  0  0  0
    1.7123    1.9635    0.4462 H   0  0  0  0  0  0  0  0  0  0  0  0
    3.0194   -0.1188   -0.4577 H   0  0  0  0  0  0  0  0  0  0  0  0
    1.3273   -1.7767   -1.4800 H   0  0  0  0  0  0  0  0  0  0  0  0
    1.1416   -1.5617    1.4433 H   0  0  0  0  0  0  0  0  0  0  0  0
    0.0959   -2.7044    0.5055 H   0  0  0  0  0  0  0  0  0  0  0  0
   -2.4747   -0.8454    0.0151 H   0  0  0  0  0  0  0  0  0  0  0  0
   -1.0056   -0.4787   -1.6467 H   0  0  0  0  0  0  0  0  0  0  0  0
  1  2  1  0
  2  3  1  0
  3  4  2  0
  4  5  1  0
  5  6  1  0
  6  7  1  0
  7  8  1  0
  7  9  1  0
  7  2  1  0
  9  2  1  0
  9  5  1  0
  1 10  1  0
  1 11  1  0
  1 12  1  0
  3 13  1  0
  4 14  1  0
  5 15  1  0
  6 16  1  0
  6 17  1  0
  8 18  1  0
  9 19  1  0
M  END
