
     RDKit          3D

 19 21  0  0  0  0  0  0  0  0999 V2000
    2.1623   -0.0607    0.4139 C   0  0  0  0  0  0  0  0  0  0  0  0
    0.7723    0.0051   -0.0776 C   0  0  0  0  0  0  0  0  0  0  0  0
    0.6449   -0.0234   -1.4675 O   0  0  0  0  0  0  0  0  0  0  0  0
   -0.4641   -0.8272   -1.3789 C   0  0  0  0  0  0  0  0  0  0  0  0
   -1.4236   -0.7558   -0.2537 C   0  0  0  0  0  0  0  0  0  0  0  0
   -1.4935    0.4356    0.6577 C   0  0  0  0  0  0  0  0  0  0  0  0
   -0.1264    1.0633    0.4939 C   0  0  0  0  0  0  0  0  0  0  0  0
   -0.2659    2.0986   -0.4377 O   0  0  0  0  0  0  0  0  0  0  0  0
   -0.0607   -1.2288   -0.0354 C   0  0  0  0  0  0  0  0  0  0  0  0
    2.8298    0.5474   -0.2623 H   0  0  0  0  0  0  0  0  0  0  0  0
    2.2824    0.2814    1.4456 H   0  0  0  0  0  0  0  0  0  0  0  0
    2.5291   -1.1120    0.3128 H   0  0  0  0  0  0  0  0  0  0  0  0
   -0.6590   -1.5344   -2.1841 H   0  0  0  0  0  0  0  0  0  0  0  0
   -2.2580   -1.4543   -0.2807 H   0  0  0  0  0  0  0  0  0  0  0  0
   -1.5242    0.0368    1.7045 H   0  0  0  0  0  0  0  0  0  0  0  0
   -2.3148    1.1218    0.4530 H   0  0  0  0  0  0  0  0  0  0  0  0
    0.2696    1.4672    1.4489 H   0  0  0  0  0  0  0  0  0  0  0  0
   -1.1635    2.1252   -0.8472 H   0  0  0  0  0  0  0  0  0  0  0  0
    0.2632   -2.1860    0.2950 H   0  0  0  0  0  0  0  0  0  0  0  0
  1  2  1  0
  2  3  1  0
  3  4  1  0
  4  5  1  0
  5  6  1  0
  6  7  1  0
  7  8  1  0
  5  9  1  0
  7  2  1  0
  9  2  1  0
  9  4  1  0
  1 10  1  0
  1 11  1  0
  1 12  1  0
  4 13  1  0
  5 14  1  0
  6 15  1  0
  6 16  1  0
  7 17  1  0
  8 18  1  0
  9 19  1  0
M  END
