
     RDKit          3D

 19 20  0  0  0  0  0  0  0  0999 V2000
    0.7014    1.4393    0.7059 C   0  0  0  0  0  0  0  0  0  0  0  0
    0.3022    0.5273   -0.4071 C   0  0  0  0  0  0  0  0  0  0  0  0
    1.4487    0.1654   -1.1239 O   0  0  0  0  0  0  0  0  0  0  0  0
    1.9881   -0.9142   -0.4015 C   0  0  0  0  0  0  0  0  0  0  0  0
    0.7825   -1.6328    0.0921 C   0  0  0  0  0  0  0  0  0  0  0  0
   -0.2201   -0.8001    0.0955 C   0  0  0  0  0  0  0  0  0  0  0  0
   -1.6355   -0.5213    0.3471 C   0  0  0  0  0  0  0  0  0  0  0  0
   -1.9148    0.5407   -0.7117 C   0  0  0  0  0  0  0  0  0  0  0  0
   -0.7152    1.0454   -1.1580 O   0  0  0  0  0  0  0  0  0  0  0  0
   -0.1992    1.9559    1.1315 H   0  0  0  0  0  0  0  0  0  0  0  0
    1.2617    0.9125    1.5150 H   0  0  0  0  0  0  0  0  0  0  0  0
    1.3694    2.2174    0.2843 H   0  0  0  0  0  0  0  0  0  0  0  0
    2.5285   -0.5140    0.4900 H   0  0  0  0  0  0  0  0  0  0  0  0
    2.6262   -1.5533   -1.0354 H   0  0  0  0  0  0  0  0  0  0  0  0
    0.7786   -2.7075    0.3989 H   0  0  0  0  0  0  0  0  0  0  0  0
   -1.8251   -0.1218    1.3676 H   0  0  0  0  0  0  0  0  0  0  0  0
   -2.2991   -1.3975    0.1835 H   0  0  0  0  0  0  0  0  0  0  0  0
   -2.5272    1.3198   -0.2266 H   0  0  0  0  0  0  0  0  0  0  0  0
   -2.4512    0.0388   -1.5474 H   0  0  0  0  0  0  0  0  0  0  0  0
  1  2  1  0
  2  3  1  0
  3  4  1  0
  4  5  1  0
  5  6  2  0
  6  7  1  0
  7  8  1  0
  8  9  1  0
  6  2  1  0
  9  2  1  0
  1 10  1  0
  1 11  1  0
  1 12  1  0
  4 13  1  0
  4 14  1  0
  5 15  1  0
  7 16  1  0
  7 17  1  0
  8 18  1  0
  8 19  1  0
M  END
