
     RDKit          3D

 21 23  0  0  0  0  0  0  0  0999 V2000
   -2.1554    0.9047   -0.6562 C   0  0  0  0  0  0  0  0  0  0  0  0
   -1.0790    0.2276    0.1011 C   0  0  0  0  0  0  0  0  0  0  0  0
    0.0995    1.1735    0.3753 C   0  0  0  0  0  0  0  0  0  0  0  0
    0.9986    0.0460   -0.0676 C   0  0  0  0  0  0  0  0  0  0  0  0
    2.3040    0.3149   -0.7094 C   0  0  0  0  0  0  0  0  0  0  0  0
    0.6135   -1.3311    0.4000 C   0  0  0  0  0  0  0  0  0  0  0  0
   -0.4284   -1.3953    1.4994 C   0  0  0  0  0  0  0  0  0  0  0  0
   -1.4221   -0.5073    1.1982 O   0  0  0  0  0  0  0  0  0  0  0  0
   -0.1261   -0.6314   -0.6651 C   0  0  0  0  0  0  0  0  0  0  0  0
   -1.6621    1.5270   -1.4608 H   0  0  0  0  0  0  0  0  0  0  0  0
   -2.8972    0.2478   -1.1045 H   0  0  0  0  0  0  0  0  0  0  0  0
   -2.6560    1.6434    0.0012 H   0  0  0  0  0  0  0  0  0  0  0  0
    0.0699    2.0552   -0.2953 H   0  0  0  0  0  0  0  0  0  0  0  0
    0.2532    1.3873    1.4516 H   0  0  0  0  0  0  0  0  0  0  0  0
    2.2566    0.9831   -1.5897 H   0  0  0  0  0  0  0  0  0  0  0  0
    2.7864   -0.6519   -0.9503 H   0  0  0  0  0  0  0  0  0  0  0  0
    2.9655    0.8313    0.0410 H   0  0  0  0  0  0  0  0  0  0  0  0
    1.2361   -2.1928    0.1754 H   0  0  0  0  0  0  0  0  0  0  0  0
   -0.8763   -2.4293    1.4232 H   0  0  0  0  0  0  0  0  0  0  0  0
   -0.0100   -1.2397    2.4996 H   0  0  0  0  0  0  0  0  0  0  0  0
   -0.2707   -0.9630   -1.6669 H   0  0  0  0  0  0  0  0  0  0  0  0
  1  2  1  0
  2  3  1  0
  3  4  1  0
  4  5  1  0
  4  6  1  0
  6  7  1  0
  7  8  1  0
  6  9  1  0
  8  2  1  0
  9  2  1  0
  9  4  1  0
  1 10  1  0
  1 11  1  0
  1 12  1  0
  3 13  1  0
  3 14  1  0
  5 15  1  0
  5 16  1  0
  5 17  1  0
  6 18  1  0
  7 19  1  0
  7 20  1  0
  9 21  1  0
M  END
