
     RDKit          3D

 17 18  0  0  0  0  0  0  0  0999 V2000
    1.3188   -0.9179   -0.6677 C   0  0  0  0  0  0  0  0  0  0  0  0
    0.1846   -0.4979    0.2011 C   0  0  0  0  0  0  0  0  0  0  0  0
   -1.1234   -1.2617    0.1905 C   0  0  0  0  0  0  0  0  0  0  0  0
   -1.8798    0.0046    0.2004 C   0  0  0  0  0  0  0  0  0  0  0  0
   -3.0153    0.3612    0.3345 O   0  0  0  0  0  0  0  0  0  0  0  0
   -0.6087    0.7190   -0.0358 C   0  0  0  0  0  0  0  0  0  0  0  0
   -0.4457    1.5156   -1.1482 O   0  0  0  0  0  0  0  0  0  0  0  0
    0.3712    0.6791    1.0597 C   0  0  0  0  0  0  0  0  0  0  0  0
    1.5331    1.3942    0.8997 O   0  0  0  0  0  0  0  0  0  0  0  0
    2.0475   -1.4739   -0.0070 H   0  0  0  0  0  0  0  0  0  0  0  0
    1.0579   -1.5666   -1.5045 H   0  0  0  0  0  0  0  0  0  0  0  0
    1.8999   -0.0612   -1.0909 H   0  0  0  0  0  0  0  0  0  0  0  0
   -1.2105   -1.9084    1.0642 H   0  0  0  0  0  0  0  0  0  0  0  0
   -1.2502   -1.8413   -0.7676 H   0  0  0  0  0  0  0  0  0  0  0  0
   -0.4836    2.4606   -0.8418 H   0  0  0  0  0  0  0  0  0  0  0  0
    0.0437    0.5736    2.1187 H   0  0  0  0  0  0  0  0  0  0  0  0
    1.5604    1.8210   -0.0052 H   0  0  0  0  0  0  0  0  0  0  0  0
  1  2  1  0
  2  3  1  0
  3  4  1  0
  4  5  2  0
  4  6  1  0
  6  7  1  0
  6  8  1  0
  8  9  1  0
  6  2  1  0
  8  2  1  0
  1 10  1  0
  1 11  1  0
  1 12  1  0
  3 13  1  0
  3 14  1  0
  7 15  1  0
  8 16  1  0
  9 17  1  0
M  END
