
     RDKit          3D

 19 20  0  0  0  0  0  0  0  0999 V2000
    1.9493   -0.1221   -0.4758 C   0  0  0  0  0  0  0  0  0  0  0  0
    0.5800   -0.2754    0.1248 C   0  0  0  0  0  0  0  0  0  0  0  0
    0.3571    0.6995    1.2042 C   0  0  0  0  0  0  0  0  0  0  0  0
   -0.6139    1.5503    0.9356 C   0  0  0  0  0  0  0  0  0  0  0  0
   -1.1695    1.2304   -0.3993 C   0  0  0  0  0  0  0  0  0  0  0  0
   -0.5755   -0.0953   -0.8023 C   0  0  0  0  0  0  0  0  0  0  0  0
   -1.1867   -1.3098   -0.1554 C   0  0  0  0  0  0  0  0  0  0  0  0
    0.1495   -1.6628    0.3926 C   0  0  0  0  0  0  0  0  0  0  0  0
    0.6669   -2.6563    0.8583 O   0  0  0  0  0  0  0  0  0  0  0  0
    1.9422   -0.0007   -1.5614 H   0  0  0  0  0  0  0  0  0  0  0  0
    2.5053   -1.0737   -0.2651 H   0  0  0  0  0  0  0  0  0  0  0  0
    2.5328    0.6991   -0.0041 H   0  0  0  0  0  0  0  0  0  0  0  0
    0.9091    0.7725    2.1722 H   0  0  0  0  0  0  0  0  0  0  0  0
   -0.9672    2.3784    1.5983 H   0  0  0  0  0  0  0  0  0  0  0  0
   -0.9292    2.0225   -1.1312 H   0  0  0  0  0  0  0  0  0  0  0  0
   -2.2836    1.0917   -0.3177 H   0  0  0  0  0  0  0  0  0  0  0  0
   -0.3519   -0.1849   -1.8788 H   0  0  0  0  0  0  0  0  0  0  0  0
   -1.9290   -1.0253    0.5962 H   0  0  0  0  0  0  0  0  0  0  0  0
   -1.5856   -2.0380   -0.8912 H   0  0  0  0  0  0  0  0  0  0  0  0
  1  2  1  0
  2  3  1  0
  3  4  2  0
  4  5  1  0
  5  6  1  0
  6  7  1  0
  7  8  1  0
  8  9  2  0
  6  2  1  0
  8  2  1  0
  1 10  1  0
  1 11  1  0
  1 12  1  0
  3 13  1  0
  4 14  1  0
  5 15  1  0
  5 16  1  0
  6 17  1  0
  7 18  1  0
  7 19  1  0
M  END
