
     RDKit          3D

 18 19  0  0  0  0  0  0  0  0999 V2000
    2.2115   -0.6019   -0.0258 C   0  0  0  0  0  0  0  0  0  0  0  0
    0.7465   -0.2602   -0.0406 C   0  0  0  0  0  0  0  0  0  0  0  0
    0.4434    1.1341   -0.5093 C   0  0  0  0  0  0  0  0  0  0  0  0
   -0.8958    1.5811   -0.0718 C   0  0  0  0  0  0  0  0  0  0  0  0
   -1.8690    0.6907    0.0084 C   0  0  0  0  0  0  0  0  0  0  0  0
   -1.6572   -0.7540   -0.3296 C   0  0  0  0  0  0  0  0  0  0  0  0
   -0.2507   -1.1875   -0.0764 C   0  0  0  0  0  0  0  0  0  0  0  0
    0.1530   -0.6278    1.2434 O   0  0  0  0  0  0  0  0  0  0  0  0
    2.7757   -0.1388   -0.8524 H   0  0  0  0  0  0  0  0  0  0  0  0
    2.6291   -0.1422    0.9177 H   0  0  0  0  0  0  0  0  0  0  0  0
    2.4085   -1.6765    0.0587 H   0  0  0  0  0  0  0  0  0  0  0  0
    0.4012    1.0830   -1.6372 H   0  0  0  0  0  0  0  0  0  0  0  0
    1.2448    1.8581   -0.2195 H   0  0  0  0  0  0  0  0  0  0  0  0
   -1.0441    2.6207    0.1703 H   0  0  0  0  0  0  0  0  0  0  0  0
   -2.8550    1.0308    0.3326 H   0  0  0  0  0  0  0  0  0  0  0  0
   -2.0376   -1.0091   -1.3234 H   0  0  0  0  0  0  0  0  0  0  0  0
   -2.3070   -1.3164    0.4008 H   0  0  0  0  0  0  0  0  0  0  0  0
   -0.0974   -2.2842   -0.1308 H   0  0  0  0  0  0  0  0  0  0  0  0
  1  2  1  0
  2  3  1  0
  3  4  1  0
  4  5  2  0
  5  6  1  0
  6  7  1  0
  7  8  1  0
  7  2  1  0
  8  2  1  0
  1  9  1  0
  1 10  1  0
  1 11  1  0
  3 12  1  0
  3 13  1  0
  4 14  1  0
  5 15  1  0
  6 16  1  0
  6 17  1  0
  7 18  1  0
M  END
