
     RDKit          3D

 17 20  0  0  0  0  0  0  0  0999 V2000
    2.0878    0.4006    0.1038 C   0  0  0  0  0  0  0  0  0  0  0  0
    0.7056    0.1553    0.2106 C   0  0  0  0  0  0  0  0  0  0  0  0
   -0.1884    0.7376    1.0981 O   0  0  0  0  0  0  0  0  0  0  0  0
   -1.4981    0.2916    0.8758 C   0  0  0  0  0  0  0  0  0  0  0  0
   -1.5360   -0.8400   -0.2817 C   0  0  0  0  0  0  0  0  0  0  0  0
   -0.0445   -0.7129   -0.9086 C   0  0  0  0  0  0  0  0  0  0  0  0
   -0.0361   -0.8889    0.2364 C   0  0  0  0  0  0  0  0  0  0  0  0
   -1.1704    0.2163   -0.3338 C   0  0  0  0  0  0  0  0  0  0  0  0
   -0.8454    1.1506   -1.2335 O   0  0  0  0  0  0  0  0  0  0  0  0
    2.5868    0.4625    1.0973 H   0  0  0  0  0  0  0  0  0  0  0  0
    2.6209   -0.4374   -0.4258 H   0  0  0  0  0  0  0  0  0  0  0  0
    2.3340    1.3296   -0.4859 H   0  0  0  0  0  0  0  0  0  0  0  0
   -1.9775   -0.0908    1.7773 H   0  0  0  0  0  0  0  0  0  0  0  0
   -1.8179   -1.8388    0.0396 H   0  0  0  0  0  0  0  0  0  0  0  0
    0.0161   -0.3827   -1.9254 H   0  0  0  0  0  0  0  0  0  0  0  0
   -0.2937   -1.6104    0.9740 H   0  0  0  0  0  0  0  0  0  0  0  0
   -0.9430    2.0578   -0.8181 H   0  0  0  0  0  0  0  0  0  0  0  0
  1  2  1  0
  2  3  1  0
  3  4  1  0
  4  5  1  0
  5  6  1  0
  6  7  1  0
  7  8  1  0
  8  9  1  0
  6  2  1  0
  7  2  1  0
  8  4  1  0
  8  5  1  0
  1 10  1  0
  1 11  1  0
  1 12  1  0
  4 13  1  0
  5 14  1  0
  6 15  1  0
  7 16  1  0
  9 17  1  0
M  END
