
     RDKit          3D

 19 21  0  0  0  0  0  0  0  0999 V2000
   -2.2240    0.0957   -0.4124 C   0  0  0  0  0  0  0  0  0  0  0  0
   -0.8664    0.0272    0.1918 C   0  0  0  0  0  0  0  0  0  0  0  0
   -0.3232   -1.3919    0.4142 C   0  0  0  0  0  0  0  0  0  0  0  0
    0.9899   -0.9651   -0.1692 C   0  0  0  0  0  0  0  0  0  0  0  0
    0.2142    0.2042   -0.8164 C   0  0  0  0  0  0  0  0  0  0  0  0
    1.3959    0.4827   -0.0084 C   0  0  0  0  0  0  0  0  0  0  0  0
    2.5021    0.9820   -0.6167 O   0  0  0  0  0  0  0  0  0  0  0  0
    0.7954    1.1345    1.2222 C   0  0  0  0  0  0  0  0  0  0  0  0
   -0.5587    0.9087    1.1948 O   0  0  0  0  0  0  0  0  0  0  0  0
   -2.8736   -0.7131   -0.0661 H   0  0  0  0  0  0  0  0  0  0  0  0
   -2.1678    0.0757   -1.5357 H   0  0  0  0  0  0  0  0  0  0  0  0
   -2.6453    1.1137   -0.1660 H   0  0  0  0  0  0  0  0  0  0  0  0
   -0.3344   -1.7240    1.4518 H   0  0  0  0  0  0  0  0  0  0  0  0
   -0.8614   -2.0606   -0.3152 H   0  0  0  0  0  0  0  0  0  0  0  0
    1.5505   -1.6235   -0.8562 H   0  0  0  0  0  0  0  0  0  0  0  0
    0.0916    0.2549   -1.8683 H   0  0  0  0  0  0  0  0  0  0  0  0
    3.0840    0.3035   -1.0166 H   0  0  0  0  0  0  0  0  0  0  0  0
    1.0038    2.2299    1.2456 H   0  0  0  0  0  0  0  0  0  0  0  0
    1.2273    0.6657    2.1267 H   0  0  0  0  0  0  0  0  0  0  0  0
  1  2  1  0
  2  3  1  0
  3  4  1  0
  4  5  1  0
  5  6  1  0
  6  7  1  0
  6  8  1  0
  8  9  1  0
  5  2  1  0
  9  2  1  0
  6  4  1  0
  1 10  1  0
  1 11  1  0
  1 12  1  0
  3 13  1  0
  3 14  1  0
  4 15  1  0
  5 16  1  0
  7 17  1  0
  8 18  1  0
  8 19  1  0
M  END
