
     RDKit          3D

 17 19  0  0  0  0  0  0  0  0999 V2000
   -1.2690    1.2168    0.7357 C   0  0  0  0  0  0  0  0  0  0  0  0
   -0.5378    0.2240   -0.1387 C   0  0  0  0  0  0  0  0  0  0  0  0
   -1.1256   -1.0779   -0.4820 C   0  0  0  0  0  0  0  0  0  0  0  0
   -0.0936   -1.0145    0.5598 C   0  0  0  0  0  0  0  0  0  0  0  0
    1.3520   -1.1145    0.2352 C   0  0  0  0  0  0  0  0  0  0  0  0
    2.0470   -2.0623    0.5523 O   0  0  0  0  0  0  0  0  0  0  0  0
    1.7892    0.0755   -0.5047 C   0  0  0  0  0  0  0  0  0  0  0  0
    1.6040    1.3507    0.0496 O   0  0  0  0  0  0  0  0  0  0  0  0
    0.6235    0.7899   -0.8848 C   0  0  0  0  0  0  0  0  0  0  0  0
   -1.5056    2.1137    0.1199 H   0  0  0  0  0  0  0  0  0  0  0  0
   -2.1842    0.7451    1.1009 H   0  0  0  0  0  0  0  0  0  0  0  0
   -0.5739    1.4917    1.5565 H   0  0  0  0  0  0  0  0  0  0  0  0
   -0.8350   -1.5666   -1.4321 H   0  0  0  0  0  0  0  0  0  0  0  0
   -2.1520   -1.3176   -0.1687 H   0  0  0  0  0  0  0  0  0  0  0  0
   -0.3745   -1.2293    1.5916 H   0  0  0  0  0  0  0  0  0  0  0  0
    2.7388    0.0091   -1.0788 H   0  0  0  0  0  0  0  0  0  0  0  0
    0.4967    1.3663   -1.8117 H   0  0  0  0  0  0  0  0  0  0  0  0
  1  2  1  0
  2  3  1  0
  3  4  1  0
  4  5  1  0
  5  6  2  0
  5  7  1  0
  7  8  1  0
  8  9  1  0
  4  2  1  0
  9  7  1  0
  9  2  1  0
  1 10  1  0
  1 11  1  0
  1 12  1  0
  3 13  1  0
  3 14  1  0
  4 15  1  0
  7 16  1  0
  9 17  1  0
M  END
