
     RDKit          3D

 22 23  0  0  0  0  0  0  0  0999 V2000
   -2.3690   -0.2547    0.3988 C   0  0  0  0  0  0  0  0  0  0  0  0
   -1.0055    0.0740    0.0822 C   0  0  0  0  0  0  0  0  0  0  0  0
   -0.6344    1.3421   -0.6051 C   0  0  0  0  0  0  0  0  0  0  0  0
    0.8857    1.1191   -0.7478 C   0  0  0  0  0  0  0  0  0  0  0  0
    0.9936   -0.1634    0.0297 C   0  0  0  0  0  0  0  0  0  0  0  0
    2.2749   -0.8045    0.2122 C   0  0  0  0  0  0  0  0  0  0  0  0
   -0.1359   -0.9747   -0.6230 C   0  0  0  0  0  0  0  0  0  0  0  0
    0.0507   -0.0075    1.1933 C   0  0  0  0  0  0  0  0  0  0  0  0
   -2.7945   -0.9741   -0.3563 H   0  0  0  0  0  0  0  0  0  0  0  0
   -2.4681   -0.6860    1.4176 H   0  0  0  0  0  0  0  0  0  0  0  0
   -3.0196    0.6392    0.3492 H   0  0  0  0  0  0  0  0  0  0  0  0
   -1.1238    1.4277   -1.5767 H   0  0  0  0  0  0  0  0  0  0  0  0
   -0.8288    2.2241    0.0476 H   0  0  0  0  0  0  0  0  0  0  0  0
    1.4522    1.9527   -0.3331 H   0  0  0  0  0  0  0  0  0  0  0  0
    1.0632    0.9405   -1.8246 H   0  0  0  0  0  0  0  0  0  0  0  0
    2.9662   -0.5418   -0.6030 H   0  0  0  0  0  0  0  0  0  0  0  0
    2.1519   -1.9254    0.1469 H   0  0  0  0  0  0  0  0  0  0  0  0
    2.7162   -0.5289    1.1920 H   0  0  0  0  0  0  0  0  0  0  0  0
   -0.0838   -0.8210   -1.7121 H   0  0  0  0  0  0  0  0  0  0  0  0
   -0.2460   -1.9922   -0.2513 H   0  0  0  0  0  0  0  0  0  0  0  0
    0.1467    0.9017    1.7918 H   0  0  0  0  0  0  0  0  0  0  0  0
    0.0080   -0.9466    1.7718 H   0  0  0  0  0  0  0  0  0  0  0  0
  1  2  1  0
  2  3  1  0
  3  4  1  0
  4  5  1  0
  5  6  1  0
  5  7  1  0
  5  8  1  0
  7  2  1  0
  8  2  1  0
  1  9  1  0
  1 10  1  0
  1 11  1  0
  3 12  1  0
  3 13  1  0
  4 14  1  0
  4 15  1  0
  6 16  1  0
  6 17  1  0
  6 18  1  0
  7 19  1  0
  7 20  1  0
  8 21  1  0
  8 22  1  0
M  END
