
     RDKit          3D

 17 18  0  0  0  0  0  0  0  0999 V2000
    2.0195   -0.2646   -0.2382 C   0  0  0  0  0  0  0  0  0  0  0  0
    0.5137   -0.2513   -0.3018 C   0  0  0  0  0  0  0  0  0  0  0  0
   -0.1078    0.9853   -0.7970 C   0  0  0  0  0  0  0  0  0  0  0  0
   -0.3013    0.5309    0.6395 C   0  0  0  0  0  0  0  0  0  0  0  0
    0.2211    1.2561    1.6738 O   0  0  0  0  0  0  0  0  0  0  0  0
   -1.5196   -0.2989    0.8190 C   0  0  0  0  0  0  0  0  0  0  0  0
   -2.3947   -0.1483    1.6528 O   0  0  0  0  0  0  0  0  0  0  0  0
   -1.4366   -1.3491   -0.2381 C   0  0  0  0  0  0  0  0  0  0  0  0
   -0.0629   -1.4926   -0.4152 O   0  0  0  0  0  0  0  0  0  0  0  0
    2.4305    0.5215    0.4134 H   0  0  0  0  0  0  0  0  0  0  0  0
    2.3747   -0.0219   -1.2754 H   0  0  0  0  0  0  0  0  0  0  0  0
    2.3923   -1.2734    0.0342 H   0  0  0  0  0  0  0  0  0  0  0  0
    0.5250    1.8664   -0.9124 H   0  0  0  0  0  0  0  0  0  0  0  0
   -0.9822    0.9711   -1.4765 H   0  0  0  0  0  0  0  0  0  0  0  0
    0.0823    2.2328    1.5111 H   0  0  0  0  0  0  0  0  0  0  0  0
   -1.9095   -2.2666    0.1172 H   0  0  0  0  0  0  0  0  0  0  0  0
   -1.8445   -0.9972   -1.2064 H   0  0  0  0  0  0  0  0  0  0  0  0
  1  2  1  0
  2  3  1  0
  3  4  1  0
  4  5  1  0
  4  6  1  0
  6  7  2  0
  6  8  1  0
  8  9  1  0
  4  2  1  0
  9  2  1  0
  1 10  1  0
  1 11  1  0
  1 12  1  0
  3 13  1  0
  3 14  1  0
  5 15  1  0
  8 16  1  0
  8 17  1  0
M  END
