
     RDKit          3D

 21 22  0  0  0  0  0  0  0  0999 V2000
    2.3184    0.1471    0.4820 C   0  0  0  0  0  0  0  0  0  0  0  0
    0.9771    0.0061   -0.2138 C   0  0  0  0  0  0  0  0  0  0  0  0
    0.4999   -1.3873   -0.3740 C   0  0  0  0  0  0  0  0  0  0  0  0
   -0.6640   -1.8429    0.0128 C   0  0  0  0  0  0  0  0  0  0  0  0
   -1.6178   -0.9106    0.6746 C   0  0  0  0  0  0  0  0  0  0  0  0
   -1.4873    0.4258    0.0316 C   0  0  0  0  0  0  0  0  0  0  0  0
   -2.3019    1.3244    0.7464 O   0  0  0  0  0  0  0  0  0  0  0  0
   -0.0895    0.9832    0.0742 C   0  0  0  0  0  0  0  0  0  0  0  0
    0.6117    0.9647   -1.2774 C   0  0  0  0  0  0  0  0  0  0  0  0
    3.0759    0.6460   -0.1864 H   0  0  0  0  0  0  0  0  0  0  0  0
    2.2280    0.6988    1.4465 H   0  0  0  0  0  0  0  0  0  0  0  0
    2.7633   -0.8461    0.7336 H   0  0  0  0  0  0  0  0  0  0  0  0
    1.1820   -2.0880   -0.8562 H   0  0  0  0  0  0  0  0  0  0  0  0
   -0.9167   -2.8962   -0.1553 H   0  0  0  0  0  0  0  0  0  0  0  0
   -1.4243   -0.8161    1.7626 H   0  0  0  0  0  0  0  0  0  0  0  0
   -2.6544   -1.2676    0.5167 H   0  0  0  0  0  0  0  0  0  0  0  0
   -1.8886    0.4035   -0.9969 H   0  0  0  0  0  0  0  0  0  0  0  0
   -2.0768    2.2322    0.4578 H   0  0  0  0  0  0  0  0  0  0  0  0
    0.1706    1.7900    0.7791 H   0  0  0  0  0  0  0  0  0  0  0  0
    0.0654    0.5794   -2.1590 H   0  0  0  0  0  0  0  0  0  0  0  0
    1.2290    1.8536   -1.4991 H   0  0  0  0  0  0  0  0  0  0  0  0
  1  2  1  0
  2  3  1  0
  3  4  2  0
  4  5  1  0
  5  6  1  0
  6  7  1  0
  6  8  1  0
  8  9  1  0
  8  2  1  0
  9  2  1  0
  1 10  1  0
  1 11  1  0
  1 12  1  0
  3 13  1  0
  4 14  1  0
  5 15  1  0
  5 16  1  0
  6 17  1  0
  7 18  1  0
  8 19  1  0
  9 20  1  0
  9 21  1  0
M  END
