
     RDKit          3D

 18 19  0  0  0  0  0  0  0  0999 V2000
    1.5235    0.4567   -0.3903 C   0  0  0  0  0  0  0  0  0  0  0  0
    0.6198   -0.4020    0.4503 C   0  0  0  0  0  0  0  0  0  0  0  0
    0.5128   -1.7365   -0.0307 C   0  0  0  0  0  0  0  0  0  0  0  0
   -0.6693   -1.0162   -0.2315 C   0  0  0  0  0  0  0  0  0  0  0  0
   -1.0594    0.2657   -0.8448 C   0  0  0  0  0  0  0  0  0  0  0  0
   -1.0465    1.1609    0.4152 C   0  0  0  0  0  0  0  0  0  0  0  0
   -0.1593    0.4105    1.3495 C   0  0  0  0  0  0  0  0  0  0  0  0
   -0.1299    0.4896    2.5466 O   0  0  0  0  0  0  0  0  0  0  0  0
    1.2598    1.5225   -0.4359 H   0  0  0  0  0  0  0  0  0  0  0  0
    2.5199    0.4053    0.1048 H   0  0  0  0  0  0  0  0  0  0  0  0
    1.6831    0.0823   -1.4127 H   0  0  0  0  0  0  0  0  0  0  0  0
    1.0881   -2.0797   -0.9072 H   0  0  0  0  0  0  0  0  0  0  0  0
    0.5840   -2.5402    0.7629 H   0  0  0  0  0  0  0  0  0  0  0  0
   -1.4991   -1.3086    0.4924 H   0  0  0  0  0  0  0  0  0  0  0  0
   -0.4551    0.6588   -1.6432 H   0  0  0  0  0  0  0  0  0  0  0  0
   -2.1099    0.2553   -1.2056 H   0  0  0  0  0  0  0  0  0  0  0  0
   -0.5852    2.1199    0.1671 H   0  0  0  0  0  0  0  0  0  0  0  0
   -2.0774    1.2556    0.8130 H   0  0  0  0  0  0  0  0  0  0  0  0
  1  2  1  0
  2  3  1  0
  3  4  1  0
  4  5  1  0
  5  6  1  0
  6  7  1  0
  7  8  2  0
  4  2  1  0
  7  2  1  0
  1  9  1  0
  1 10  1  0
  1 11  1  0
  3 12  1  0
  3 13  1  0
  4 14  1  0
  5 15  1  0
  5 16  1  0
  6 17  1  0
  6 18  1  0
M  END
