
     RDKit          3D

 21 22  0  0  0  0  0  0  0  0999 V2000
    2.6645    0.0319   -0.0712 C   0  0  0  0  0  0  0  0  0  0  0  0
    1.1430   -0.0080    0.0880 C   0  0  0  0  0  0  0  0  0  0  0  0
    0.4634    1.3034   -0.0537 C   0  0  0  0  0  0  0  0  0  0  0  0
   -0.6038    1.3486    0.8025 O   0  0  0  0  0  0  0  0  0  0  0  0
   -1.8043    0.9401    0.3182 C   0  0  0  0  0  0  0  0  0  0  0  0
   -1.8518   -0.2090   -0.5913 C   0  0  0  0  0  0  0  0  0  0  0  0
   -0.9196   -1.3033   -0.5516 C   0  0  0  0  0  0  0  0  0  0  0  0
    0.4552   -1.1899   -0.0380 C   0  0  0  0  0  0  0  0  0  0  0  0
    0.7228   -0.7980    1.2780 O   0  0  0  0  0  0  0  0  0  0  0  0
    2.8431   -0.0758   -1.1687 H   0  0  0  0  0  0  0  0  0  0  0  0
    3.0906    0.9682    0.3298 H   0  0  0  0  0  0  0  0  0  0  0  0
    3.1044   -0.8790    0.3909 H   0  0  0  0  0  0  0  0  0  0  0  0
    0.2038    1.5396   -1.1104 H   0  0  0  0  0  0  0  0  0  0  0  0
    1.1644    2.1336    0.2548 H   0  0  0  0  0  0  0  0  0  0  0  0
   -2.4563    0.7962    1.2354 H   0  0  0  0  0  0  0  0  0  0  0  0
   -2.2654    1.8625   -0.1496 H   0  0  0  0  0  0  0  0  0  0  0  0
   -1.9037    0.2188   -1.6449 H   0  0  0  0  0  0  0  0  0  0  0  0
   -2.9088   -0.6255   -0.5041 H   0  0  0  0  0  0  0  0  0  0  0  0
   -1.3675   -2.1819    0.0138 H   0  0  0  0  0  0  0  0  0  0  0  0
   -0.8236   -1.7478   -1.5944 H   0  0  0  0  0  0  0  0  0  0  0  0
    1.0498   -2.1247   -0.2428 H   0  0  0  0  0  0  0  0  0  0  0  0
  1  2  1  0
  2  3  1  0
  3  4  1  0
  4  5  1  0
  5  6  1  0
  6  7  1  0
  7  8  1  0
  8  9  1  0
  8  2  1  0
  9  2  1  0
  1 10  1  0
  1 11  1  0
  1 12  1  0
  3 13  1  0
  3 14  1  0
  5 15  1  0
  5 16  1  0
  6 17  1  0
  6 18  1  0
  7 19  1  0
  7 20  1  0
  8 21  1  0
M  END
