
     RDKit          3D

 19 20  0  0  0  0  0  0  0  0999 V2000
    1.6821   -0.4142   -0.4730 C   0  0  0  0  0  0  0  0  0  0  0  0
    0.5417   -0.0116    0.3798 C   0  0  0  0  0  0  0  0  0  0  0  0
   -0.0217   -0.7731    1.4762 C   0  0  0  0  0  0  0  0  0  0  0  0
   -0.8160   -0.5595    0.2561 C   0  0  0  0  0  0  0  0  0  0  0  0
   -1.1736   -1.7167   -0.5445 C   0  0  0  0  0  0  0  0  0  0  0  0
   -1.2110   -1.6490   -1.7524 O   0  0  0  0  0  0  0  0  0  0  0  0
   -1.2948    0.7719   -0.2009 C   0  0  0  0  0  0  0  0  0  0  0  0
   -0.0027    1.4138    0.2066 C   0  0  0  0  0  0  0  0  0  0  0  0
    0.6877    2.0924   -0.7798 O   0  0  0  0  0  0  0  0  0  0  0  0
    1.5758    0.1433   -1.4501 H   0  0  0  0  0  0  0  0  0  0  0  0
    2.6293   -0.0233   -0.0273 H   0  0  0  0  0  0  0  0  0  0  0  0
    1.7255   -1.4862   -0.7147 H   0  0  0  0  0  0  0  0  0  0  0  0
   -0.3239   -0.1866    2.3897 H   0  0  0  0  0  0  0  0  0  0  0  0
    0.2669   -1.7981    1.7070 H   0  0  0  0  0  0  0  0  0  0  0  0
   -1.4135   -2.6614   -0.0777 H   0  0  0  0  0  0  0  0  0  0  0  0
   -2.2045    1.1144    0.3021 H   0  0  0  0  0  0  0  0  0  0  0  0
   -1.3685    0.7821   -1.3272 H   0  0  0  0  0  0  0  0  0  0  0  0
   -0.0745    1.9012    1.1904 H   0  0  0  0  0  0  0  0  0  0  0  0
    0.7955    3.0606   -0.5601 H   0  0  0  0  0  0  0  0  0  0  0  0
  1  2  1  0
  2  3  1  0
  3  4  1  0
  4  5  1  0
  5  6  2  0
  4  7  1  0
  7  8  1  0
  8  9  1  0
  4  2  1  0
  8  2  1  0
  1 10  1  0
  1 11  1  0
  1 12  1  0
  3 13  1  0
  3 14  1  0
  5 15  1  0
  7 16  1  0
  7 17  1  0
  8 18  1  0
  9 19  1  0
M  END
