
     RDKit          3D

 17 19  0  0  0  0  0  0  0  0999 V2000
    1.9051    0.2716    0.8036 C   0  0  0  0  0  0  0  0  0  0  0  0
    0.6330   -0.2024    0.2444 C   0  0  0  0  0  0  0  0  0  0  0  0
    0.4076   -1.5500   -0.0570 O   0  0  0  0  0  0  0  0  0  0  0  0
   -0.7053   -1.4530   -0.8692 C   0  0  0  0  0  0  0  0  0  0  0  0
   -1.6489   -0.6356    0.0070 C   0  0  0  0  0  0  0  0  0  0  0  0
   -0.6481    0.4920    0.3046 C   0  0  0  0  0  0  0  0  0  0  0  0
   -0.9772    1.5262    1.0949 O   0  0  0  0  0  0  0  0  0  0  0  0
    0.0961    0.5579   -0.9568 C   0  0  0  0  0  0  0  0  0  0  0  0
   -0.3044   -0.4859   -1.7885 O   0  0  0  0  0  0  0  0  0  0  0  0
    2.8033   -0.1269    0.2677 H   0  0  0  0  0  0  0  0  0  0  0  0
    2.0703    0.1048    1.8711 H   0  0  0  0  0  0  0  0  0  0  0  0
    1.9642    1.3850    0.6516 H   0  0  0  0  0  0  0  0  0  0  0  0
   -1.1098   -2.3499   -1.2636 H   0  0  0  0  0  0  0  0  0  0  0  0
   -2.4320   -0.2239   -0.6308 H   0  0  0  0  0  0  0  0  0  0  0  0
   -1.9704   -1.1541    0.8990 H   0  0  0  0  0  0  0  0  0  0  0  0
   -0.7081    2.4224    0.7596 H   0  0  0  0  0  0  0  0  0  0  0  0
    0.6245    1.4217   -1.3376 H   0  0  0  0  0  0  0  0  0  0  0  0
  1  2  1  0
  2  3  1  0
  3  4  1  0
  4  5  1  0
  5  6  1  0
  6  7  1  0
  6  8  1  0
  8  9  1  0
  6  2  1  0
  8  2  1  0
  9  4  1  0
  1 10  1  0
  1 11  1  0
  1 12  1  0
  4 13  1  0
  5 14  1  0
  5 15  1  0
  7 16  1  0
  8 17  1  0
M  END
