
     RDKit          3D

 21 23  0  0  0  0  0  0  0  0999 V2000
    2.1065   -0.3248    0.6210 C   0  0  0  0  0  0  0  0  0  0  0  0
    0.9001    0.0137   -0.1810 C   0  0  0  0  0  0  0  0  0  0  0  0
    1.0837    0.3703   -1.5527 O   0  0  0  0  0  0  0  0  0  0  0  0
    0.7819    1.3968   -0.6827 C   0  0  0  0  0  0  0  0  0  0  0  0
   -0.6379    1.8242   -0.4553 C   0  0  0  0  0  0  0  0  0  0  0  0
   -1.3106    0.7660    0.3662 C   0  0  0  0  0  0  0  0  0  0  0  0
   -0.4542   -0.4394    0.1384 C   0  0  0  0  0  0  0  0  0  0  0  0
   -0.9670   -1.5475   -0.7845 C   0  0  0  0  0  0  0  0  0  0  0  0
   -0.8692   -1.7047    0.7017 C   0  0  0  0  0  0  0  0  0  0  0  0
    2.2724   -1.4019    0.6975 H   0  0  0  0  0  0  0  0  0  0  0  0
    2.9976    0.0936    0.0682 H   0  0  0  0  0  0  0  0  0  0  0  0
    2.0708    0.2138    1.5740 H   0  0  0  0  0  0  0  0  0  0  0  0
    1.5833    2.1493   -0.5477 H   0  0  0  0  0  0  0  0  0  0  0  0
   -1.1874    1.9605   -1.3972 H   0  0  0  0  0  0  0  0  0  0  0  0
   -0.5962    2.7621    0.1641 H   0  0  0  0  0  0  0  0  0  0  0  0
   -1.2677    0.9911    1.4671 H   0  0  0  0  0  0  0  0  0  0  0  0
   -2.3401    0.5465    0.0806 H   0  0  0  0  0  0  0  0  0  0  0  0
   -0.2003   -2.1471   -1.3424 H   0  0  0  0  0  0  0  0  0  0  0  0
   -1.9092   -1.3468   -1.2895 H   0  0  0  0  0  0  0  0  0  0  0  0
   -1.8750   -1.7271    1.2067 H   0  0  0  0  0  0  0  0  0  0  0  0
   -0.1814   -2.4484    1.1474 H   0  0  0  0  0  0  0  0  0  0  0  0
  1  2  1  0
  2  3  1  0
  3  4  1  0
  4  5  1  0
  5  6  1  0
  6  7  1  0
  7  8  1  0
  8  9  1  0
  4  2  1  0
  9  7  1  0
  7  2  1  0
  1 10  1  0
  1 11  1  0
  1 12  1  0
  4 13  1  0
  5 14  1  0
  5 15  1  0
  6 16  1  0
  6 17  1  0
  8 18  1  0
  8 19  1  0
  9 20  1  0
  9 21  1  0
M  END
