
     RDKit          3D

 21 23  0  0  0  0  0  0  0  0999 V2000
   -1.8911   -0.8164   -0.5086 C   0  0  0  0  0  0  0  0  0  0  0  0
   -0.6250   -0.2018   -0.1135 C   0  0  0  0  0  0  0  0  0  0  0  0
    0.1256    0.7768   -0.9587 C   0  0  0  0  0  0  0  0  0  0  0  0
    1.5604    0.3051   -0.8809 C   0  0  0  0  0  0  0  0  0  0  0  0
    1.6428   -0.6608    0.2733 C   0  0  0  0  0  0  0  0  0  0  0  0
    0.2675   -0.6035    0.9442 C   0  0  0  0  0  0  0  0  0  0  0  0
   -0.0060   -1.5485    1.8975 O   0  0  0  0  0  0  0  0  0  0  0  0
   -0.4462    0.6858    1.0592 C   0  0  0  0  0  0  0  0  0  0  0  0
   -0.1671    1.8311    0.1193 C   0  0  0  0  0  0  0  0  0  0  0  0
   -2.4776   -1.1487    0.3650 H   0  0  0  0  0  0  0  0  0  0  0  0
   -2.4962   -0.0846   -1.1019 H   0  0  0  0  0  0  0  0  0  0  0  0
   -1.7113   -1.6795   -1.1964 H   0  0  0  0  0  0  0  0  0  0  0  0
   -0.2633    1.0084   -1.9475 H   0  0  0  0  0  0  0  0  0  0  0  0
    1.8303   -0.2205   -1.8189 H   0  0  0  0  0  0  0  0  0  0  0  0
    2.2010    1.1667   -0.6564 H   0  0  0  0  0  0  0  0  0  0  0  0
    1.8746   -1.6957   -0.0346 H   0  0  0  0  0  0  0  0  0  0  0  0
    2.3620   -0.3194    1.0396 H   0  0  0  0  0  0  0  0  0  0  0  0
   -0.1682   -2.4430    1.5069 H   0  0  0  0  0  0  0  0  0  0  0  0
   -1.1788    0.7985    1.8537 H   0  0  0  0  0  0  0  0  0  0  0  0
    0.6714    2.4822    0.3650 H   0  0  0  0  0  0  0  0  0  0  0  0
   -1.1047    2.3679   -0.2064 H   0  0  0  0  0  0  0  0  0  0  0  0
  1  2  1  0
  2  3  1  0
  3  4  1  0
  4  5  1  0
  5  6  1  0
  6  7  1  0
  6  8  1  0
  8  9  1  0
  6  2  1  0
  8  2  1  0
  9  3  1  0
  1 10  1  0
  1 11  1  0
  1 12  1  0
  3 13  1  0
  4 14  1  0
  4 15  1  0
  5 16  1  0
  5 17  1  0
  7 18  1  0
  8 19  1  0
  9 20  1  0
  9 21  1  0
M  END
