
     RDKit          2D

 21 23  0  0  0  0  0  0  0  0999 V2000
   -1.9330   -2.2500    0.0000 C   0  0  0  0  0  0  0  0  0  0  0  0
   -1.9330   -0.7500    0.0000 C   0  0  0  0  0  0  0  0  0  0  0  0
   -3.4330   -0.7500    0.0000 C   0  0  0  0  0  0  0  0  0  0  0  0
   -3.4330    0.7500    0.0000 C   0  0  0  0  0  0  0  0  0  0  0  0
   -1.9330    0.7500    0.0000 C   0  0  0  0  0  0  0  0  0  0  0  0
   -0.4330    0.7500    0.0000 C   0  0  0  0  0  0  0  0  0  0  0  0
    0.8660    0.0000    0.0000 O   0  0  0  0  0  0  0  0  0  0  0  0
   -0.4330   -0.7500    0.0000 C   0  0  0  0  0  0  0  0  0  0  0  0
   -0.0448   -2.1989    0.0000 C   0  0  0  0  0  0  0  0  0  0  0  0
   -1.9330   -3.7500    0.0000 H   0  0  0  0  0  0  0  0  0  0  0  0
   -2.8121   -2.3580    0.0000 H   0  0  0  0  0  0  0  0  0  0  0  0
   -1.1595   -2.4429    0.0000 H   0  0  0  0  0  0  0  0  0  0  0  0
   -4.9330   -0.7500    0.0000 H   0  0  0  0  0  0  0  0  0  0  0  0
   -3.5410   -1.6291    0.0000 H   0  0  0  0  0  0  0  0  0  0  0  0
   -3.4330    2.2500    0.0000 H   0  0  0  0  0  0  0  0  0  0  0  0
   -4.9330    0.7500    0.0000 H   0  0  0  0  0  0  0  0  0  0  0  0
   -1.9330    2.2500    0.0000 H   0  0  0  0  0  0  0  0  0  0  0  0
   -0.0448    2.1989    0.0000 H   0  0  0  0  0  0  0  0  0  0  0  0
    0.3434   -3.6478    0.0000 H   0  0  0  0  0  0  0  0  0  0  0  0
    1.4041   -1.8107    0.0000 H   0  0  0  0  0  0  0  0  0  0  0  0
   -1.0012   -2.7291    0.0000 H   0  0  0  0  0  0  0  0  0  0  0  0
  1  2  1  0
  2  3  1  0
  3  4  1  0
  4  5  1  0
  5  6  1  0
  6  7  1  0
  7  8  1  0
  8  9  1  0
  5  2  1  0
  8  6  1  0
  8  2  1  0
  1 10  1  0
  1 11  1  0
  1 12  1  0
  3 13  1  0
  3 14  1  0
  4 15  1  0
  4 16  1  0
  5 17  1  0
  6 18  1  0
  9 19  1  0
  9 20  1  0
  9 21  1  0
M  END
