
     RDKit          3D

 18 19  0  0  0  0  0  0  0  0999 V2000
   -0.6042    0.5660   -1.3930 C   0  0  0  0  0  0  0  0  0  0  0  0
   -0.5648   -0.3866   -0.2475 C   0  0  0  0  0  0  0  0  0  0  0  0
   -1.7860   -1.1257    0.2007 C   0  0  0  0  0  0  0  0  0  0  0  0
   -1.3926    0.0844    0.9621 C   0  0  0  0  0  0  0  0  0  0  0  0
   -0.1964    0.0997    1.6751 O   0  0  0  0  0  0  0  0  0  0  0  0
    0.6010   -0.4582    0.6778 C   0  0  0  0  0  0  0  0  0  0  0  0
    1.8023    0.3801    0.3046 C   0  0  0  0  0  0  0  0  0  0  0  0
    2.5698   -0.1922   -0.6789 O   0  0  0  0  0  0  0  0  0  0  0  0
   -1.6159    0.4573   -1.8780 H   0  0  0  0  0  0  0  0  0  0  0  0
    0.1347    0.3608   -2.1804 H   0  0  0  0  0  0  0  0  0  0  0  0
   -0.5801    1.6234   -1.0302 H   0  0  0  0  0  0  0  0  0  0  0  0
   -2.7314   -1.0696   -0.3472 H   0  0  0  0  0  0  0  0  0  0  0  0
   -1.5491   -2.1290    0.6560 H   0  0  0  0  0  0  0  0  0  0  0  0
   -1.9955    0.9865    0.8687 H   0  0  0  0  0  0  0  0  0  0  0  0
    0.8602   -1.5144    0.8981 H   0  0  0  0  0  0  0  0  0  0  0  0
    2.4402    0.4396    1.2303 H   0  0  0  0  0  0  0  0  0  0  0  0
    1.5060    1.4274    0.0933 H   0  0  0  0  0  0  0  0  0  0  0  0
    3.1017    0.4504   -1.1834 H   0  0  0  0  0  0  0  0  0  0  0  0
  1  2  1  0
  2  3  1  0
  3  4  1  0
  4  5  1  0
  5  6  1  0
  6  7  1  0
  7  8  1  0
  4  2  1  0
  6  2  1  0
  1  9  1  0
  1 10  1  0
  1 11  1  0
  3 12  1  0
  3 13  1  0
  4 14  1  0
  6 15  1  0
  7 16  1  0
  7 17  1  0
  8 18  1  0
M  END
