
     RDKit          3D

 19 21  0  0  0  0  0  0  0  0999 V2000
   -1.8960   -0.9618    0.3132 C   0  0  0  0  0  0  0  0  0  0  0  0
   -0.7156   -0.1843   -0.3053 C   0  0  0  0  0  0  0  0  0  0  0  0
   -1.3248    0.8714   -1.1333 C   0  0  0  0  0  0  0  0  0  0  0  0
   -0.5207    1.3195   -0.0273 C   0  0  0  0  0  0  0  0  0  0  0  0
    0.9737    1.0033   -0.1761 C   0  0  0  0  0  0  0  0  0  0  0  0
    1.7793    0.0467    0.5839 C   0  0  0  0  0  0  0  0  0  0  0  0
    2.5871   -1.0412   -0.0341 C   0  0  0  0  0  0  0  0  0  0  0  0
    2.1030   -1.7445   -0.9327 O   0  0  0  0  0  0  0  0  0  0  0  0
    0.3921   -0.1531    0.6741 C   0  0  0  0  0  0  0  0  0  0  0  0
   -2.4078   -0.3683    1.0805 H   0  0  0  0  0  0  0  0  0  0  0  0
   -1.4777   -1.9142    0.7136 H   0  0  0  0  0  0  0  0  0  0  0  0
   -2.6182   -1.2580   -0.4760 H   0  0  0  0  0  0  0  0  0  0  0  0
   -0.8500    0.9616   -2.1592 H   0  0  0  0  0  0  0  0  0  0  0  0
   -2.3632    1.1845   -1.1659 H   0  0  0  0  0  0  0  0  0  0  0  0
   -0.8793    1.7124    0.9283 H   0  0  0  0  0  0  0  0  0  0  0  0
    1.2560    0.9015   -1.2249 H   0  0  0  0  0  0  0  0  0  0  0  0
    2.3799    0.5805    1.3816 H   0  0  0  0  0  0  0  0  0  0  0  0
    3.5962   -1.2238    0.2954 H   0  0  0  0  0  0  0  0  0  0  0  0
   -0.0141    0.2679    1.6644 H   0  0  0  0  0  0  0  0  0  0  0  0
  1  2  1  0
  2  3  1  0
  3  4  1  0
  4  5  1  0
  5  6  1  0
  6  7  1  0
  7  8  2  0
  6  9  1  0
  4  2  1  0
  9  5  1  0
  9  2  1  0
  1 10  1  0
  1 11  1  0
  1 12  1  0
  3 13  1  0
  3 14  1  0
  4 15  1  0
  5 16  1  0
  6 17  1  0
  7 18  1  0
  9 19  1  0
M  END
