
     RDKit          3D

 20 21  0  0  0  0  0  0  0  0999 V2000
    1.6231   -0.1667    1.0137 C   0  0  0  0  0  0  0  0  0  0  0  0
    0.7034    0.0910   -0.1127 C   0  0  0  0  0  0  0  0  0  0  0  0
    0.6601   -0.8755   -1.2986 C   0  0  0  0  0  0  0  0  0  0  0  0
   -0.7915   -1.1032   -0.9372 C   0  0  0  0  0  0  0  0  0  0  0  0
   -0.7696    0.0579    0.0016 C   0  0  0  0  0  0  0  0  0  0  0  0
   -1.4739   -0.0405    1.3170 C   0  0  0  0  0  0  0  0  0  0  0  0
   -0.0658    1.3208   -0.3054 C   0  0  0  0  0  0  0  0  0  0  0  0
   -0.0723    1.8037   -1.6367 O   0  0  0  0  0  0  0  0  0  0  0  0
    2.5814   -0.5875    0.5856 H   0  0  0  0  0  0  0  0  0  0  0  0
    1.9086    0.7352    1.5537 H   0  0  0  0  0  0  0  0  0  0  0  0
    1.2394   -0.9825    1.6911 H   0  0  0  0  0  0  0  0  0  0  0  0
    1.3347   -1.7176   -1.1830 H   0  0  0  0  0  0  0  0  0  0  0  0
    0.7633   -0.2661   -2.2316 H   0  0  0  0  0  0  0  0  0  0  0  0
   -0.8694   -2.1089   -0.4345 H   0  0  0  0  0  0  0  0  0  0  0  0
   -1.5193   -0.9380   -1.7517 H   0  0  0  0  0  0  0  0  0  0  0  0
   -0.7979   -0.0647    2.1923 H   0  0  0  0  0  0  0  0  0  0  0  0
   -2.1277    0.8718    1.4286 H   0  0  0  0  0  0  0  0  0  0  0  0
   -2.1907   -0.8987    1.3093 H   0  0  0  0  0  0  0  0  0  0  0  0
   -0.0904    2.0967    0.4528 H   0  0  0  0  0  0  0  0  0  0  0  0
   -0.0454    2.7726   -1.6542 H   0  0  0  0  0  0  0  0  0  0  0  0
  1  2  1  0
  2  3  1  0
  3  4  1  0
  4  5  1  0
  5  6  1  0
  5  7  1  0
  7  8  1  0
  5  2  1  0
  7  2  1  0
  1  9  1  0
  1 10  1  0
  1 11  1  0
  3 12  1  0
  3 13  1  0
  4 14  1  0
  4 15  1  0
  6 16  1  0
  6 17  1  0
  6 18  1  0
  7 19  1  0
  8 20  1  0
M  END
