
     RDKit          3D

 15 16  0  0  0  0  0  0  0  0999 V2000
   -1.9638   -0.4604   -0.4282 C   0  0  0  0  0  0  0  0  0  0  0  0
   -0.5384   -0.1538   -0.2567 C   0  0  0  0  0  0  0  0  0  0  0  0
   -0.2558    1.0619    0.5675 C   0  0  0  0  0  0  0  0  0  0  0  0
    0.9768    0.8772    1.0426 C   0  0  0  0  0  0  0  0  0  0  0  0
    1.4051   -0.4309    0.4869 C   0  0  0  0  0  0  0  0  0  0  0  0
    0.1666   -1.1212    0.5053 O   0  0  0  0  0  0  0  0  0  0  0  0
    1.5650   -0.2696   -0.9833 C   0  0  0  0  0  0  0  0  0  0  0  0
    2.6216   -0.2244   -1.6537 O   0  0  0  0  0  0  0  0  0  0  0  0
    0.2327   -0.1790   -1.4438 O   0  0  0  0  0  0  0  0  0  0  0  0
   -2.5601    0.4689   -0.5117 H   0  0  0  0  0  0  0  0  0  0  0  0
   -2.3363   -0.9688    0.5033 H   0  0  0  0  0  0  0  0  0  0  0  0
   -2.1115   -1.1495   -1.2598 H   0  0  0  0  0  0  0  0  0  0  0  0
   -0.9027    1.9111    0.7457 H   0  0  0  0  0  0  0  0  0  0  0  0
    1.5027    1.5687    1.6917 H   0  0  0  0  0  0  0  0  0  0  0  0
    2.1979   -0.9301    0.9942 H   0  0  0  0  0  0  0  0  0  0  0  0
  1  2  1  0
  2  3  1  0
  3  4  2  0
  4  5  1  0
  5  6  1  0
  5  7  1  0
  7  8  2  0
  7  9  1  0
  6  2  1  0
  9  2  1  0
  1 10  1  0
  1 11  1  0
  1 12  1  0
  3 13  1  0
  4 14  1  0
  5 15  1  0
M  END
