
     RDKit          2D

 17 19  0  0  0  0  0  0  0  0999 V2000
    1.9267    1.0607    0.0000 C   0  0  0  0  0  0  0  0  0  0  0  0
    0.8660    0.0000    0.0000 C   0  0  0  0  0  0  0  0  0  0  0  0
    1.6160   -1.2990    0.0000 C   0  0  0  0  0  0  0  0  0  0  0  0
    3.0649   -1.6873    0.0000 O   0  0  0  0  0  0  0  0  0  0  0  0
    0.3170   -2.0490    0.0000 C   0  0  0  0  0  0  0  0  0  0  0  0
   -1.1830   -0.5490    0.0000 C   0  0  0  0  0  0  0  0  0  0  0  0
   -0.4330    0.7500    0.0000 C   0  0  0  0  0  0  0  0  0  0  0  0
   -1.1830    2.0490    0.0000 O   0  0  0  0  0  0  0  0  0  0  0  0
   -0.4330   -0.7500    0.0000 C   0  0  0  0  0  0  0  0  0  0  0  0
    2.9873    2.1213    0.0000 H   0  0  0  0  0  0  0  0  0  0  0  0
    0.8660    2.1213    0.0000 H   0  0  0  0  0  0  0  0  0  0  0  0
    2.9873    0.0000    0.0000 H   0  0  0  0  0  0  0  0  0  0  0  0
   -0.0712   -3.4979    0.0000 H   0  0  0  0  0  0  0  0  0  0  0  0
   -2.4821    0.2010    0.0000 H   0  0  0  0  0  0  0  0  0  0  0  0
   -1.9142   -1.5194    0.0000 H   0  0  0  0  0  0  0  0  0  0  0  0
   -0.4330    3.3481    0.0000 H   0  0  0  0  0  0  0  0  0  0  0  0
   -1.1721   -1.0486    0.0000 H   0  0  0  0  0  0  0  0  0  0  0  0
  1  2  1  0
  2  3  1  0
  3  4  2  0
  3  5  1  0
  5  6  1  0
  6  7  1  0
  7  8  1  0
  7  9  1  0
  7  2  1  0
  9  2  1  0
  9  5  1  0
  1 10  1  0
  1 11  1  0
  1 12  1  0
  5 13  1  0
  6 14  1  0
  6 15  1  0
  8 16  1  0
  9 17  1  0
M  END
