
     RDKit          3D

 16 17  0  0  0  0  0  0  0  0999 V2000
   -2.1395   -0.2870    0.3815 C   0  0  0  0  0  0  0  0  0  0  0  0
   -0.7595   -0.0608   -0.1914 C   0  0  0  0  0  0  0  0  0  0  0  0
   -0.1459    1.2622   -0.0361 C   0  0  0  0  0  0  0  0  0  0  0  0
    1.1605    1.1770   -0.1653 C   0  0  0  0  0  0  0  0  0  0  0  0
    1.5561   -0.2134   -0.4210 C   0  0  0  0  0  0  0  0  0  0  0  0
    2.5401   -0.6754    0.4438 O   0  0  0  0  0  0  0  0  0  0  0  0
    0.2730   -0.9887   -0.2965 C   0  0  0  0  0  0  0  0  0  0  0  0
   -0.5723   -0.7933   -1.3874 O   0  0  0  0  0  0  0  0  0  0  0  0
   -2.4814   -1.3064    0.1822 H   0  0  0  0  0  0  0  0  0  0  0  0
   -2.8294    0.3930   -0.1933 H   0  0  0  0  0  0  0  0  0  0  0  0
   -2.2340   -0.0189    1.4342 H   0  0  0  0  0  0  0  0  0  0  0  0
   -0.7332    2.1926    0.1634 H   0  0  0  0  0  0  0  0  0  0  0  0
    1.7931    2.0674   -0.0799 H   0  0  0  0  0  0  0  0  0  0  0  0
    1.9653   -0.2378   -1.4542 H   0  0  0  0  0  0  0  0  0  0  0  0
    2.3348   -0.5511    1.3863 H   0  0  0  0  0  0  0  0  0  0  0  0
    0.2722   -1.9595    0.2338 H   0  0  0  0  0  0  0  0  0  0  0  0
  1  2  1  0
  2  3  1  0
  3  4  2  0
  4  5  1  0
  5  6  1  0
  5  7  1  0
  7  8  1  0
  7  2  1  0
  8  2  1  0
  1  9  1  0
  1 10  1  0
  1 11  1  0
  3 12  1  0
  4 13  1  0
  5 14  1  0
  6 15  1  0
  7 16  1  0
M  END
