
     RDKit          3D

 21 22  0  0  0  0  0  0  0  0999 V2000
   -1.6880   -1.1022   -0.5774 C   0  0  0  0  0  0  0  0  0  0  0  0
   -0.5229   -0.2471   -0.1787 C   0  0  0  0  0  0  0  0  0  0  0  0
   -0.2629   -0.1950    1.3241 C   0  0  0  0  0  0  0  0  0  0  0  0
    0.2122    1.2323    1.0769 C   0  0  0  0  0  0  0  0  0  0  0  0
    1.5519    1.2562    0.4546 C   0  0  0  0  0  0  0  0  0  0  0  0
    1.7304    0.5285   -0.6277 C   0  0  0  0  0  0  0  0  0  0  0  0
    0.7542   -0.5726   -0.8680 C   0  0  0  0  0  0  0  0  0  0  0  0
    1.3008   -1.7048   -0.2217 O   0  0  0  0  0  0  0  0  0  0  0  0
   -0.7702    1.2295   -0.1078 C   0  0  0  0  0  0  0  0  0  0  0  0
   -2.5796   -0.8680    0.0282 H   0  0  0  0  0  0  0  0  0  0  0  0
   -1.3955   -2.1615   -0.3852 H   0  0  0  0  0  0  0  0  0  0  0  0
   -1.8939   -0.9337   -1.6430 H   0  0  0  0  0  0  0  0  0  0  0  0
   -1.1822   -0.1772    1.9073 H   0  0  0  0  0  0  0  0  0  0  0  0
    0.5460   -0.8623    1.6567 H   0  0  0  0  0  0  0  0  0  0  0  0
   -0.0036    1.9518    1.8539 H   0  0  0  0  0  0  0  0  0  0  0  0
    2.3326    1.8453    0.8781 H   0  0  0  0  0  0  0  0  0  0  0  0
    2.5452    0.6963   -1.3376 H   0  0  0  0  0  0  0  0  0  0  0  0
    0.6014   -0.7677   -1.9479 H   0  0  0  0  0  0  0  0  0  0  0  0
    0.8779   -2.5337   -0.4905 H   0  0  0  0  0  0  0  0  0  0  0  0
   -1.7763    1.5524    0.1537 H   0  0  0  0  0  0  0  0  0  0  0  0
   -0.3774    1.8336   -0.9481 H   0  0  0  0  0  0  0  0  0  0  0  0
  1  2  1  0
  2  3  1  0
  3  4  1  0
  4  5  1  0
  5  6  2  0
  6  7  1  0
  7  8  1  0
  4  9  1  0
  7  2  1  0
  9  2  1  0
  1 10  1  0
  1 11  1  0
  1 12  1  0
  3 13  1  0
  3 14  1  0
  4 15  1  0
  5 16  1  0
  6 17  1  0
  7 18  1  0
  8 19  1  0
  9 20  1  0
  9 21  1  0
M  END
