
     RDKit          3D

 21 22  0  0  0  0  0  0  0  0999 V2000
    1.6010   -1.2522   -0.1772 C   0  0  0  0  0  0  0  0  0  0  0  0
    0.5246   -0.2585    0.0368 C   0  0  0  0  0  0  0  0  0  0  0  0
    0.7734    0.7802    1.1132 C   0  0  0  0  0  0  0  0  0  0  0  0
   -0.1089    1.6944    0.2512 C   0  0  0  0  0  0  0  0  0  0  0  0
    0.4750    0.9088   -0.9335 C   0  0  0  0  0  0  0  0  0  0  0  0
   -1.4399    1.4516    0.4326 O   0  0  0  0  0  0  0  0  0  0  0  0
   -1.8657    0.1892    0.1283 C   0  0  0  0  0  0  0  0  0  0  0  0
   -0.8278   -0.8774    0.2391 C   0  0  0  0  0  0  0  0  0  0  0  0
   -0.9633   -1.8742   -0.7453 O   0  0  0  0  0  0  0  0  0  0  0  0
    1.2097   -2.0677   -0.8149 H   0  0  0  0  0  0  0  0  0  0  0  0
    2.5096   -0.8314   -0.6219 H   0  0  0  0  0  0  0  0  0  0  0  0
    1.8489   -1.7160    0.8076 H   0  0  0  0  0  0  0  0  0  0  0  0
    1.8097    1.1954    1.0800 H   0  0  0  0  0  0  0  0  0  0  0  0
    0.3694    0.5477    2.0982 H   0  0  0  0  0  0  0  0  0  0  0  0
    0.1521    2.7489    0.2793 H   0  0  0  0  0  0  0  0  0  0  0  0
   -0.1875    0.8019   -1.7871 H   0  0  0  0  0  0  0  0  0  0  0  0
    1.5047    1.2713   -1.1186 H   0  0  0  0  0  0  0  0  0  0  0  0
   -2.3833    0.1679   -0.8723 H   0  0  0  0  0  0  0  0  0  0  0  0
   -2.6906   -0.0646    0.8572 H   0  0  0  0  0  0  0  0  0  0  0  0
   -0.8559   -1.3280    1.2621 H   0  0  0  0  0  0  0  0  0  0  0  0
   -1.4554   -1.4873   -1.5149 H   0  0  0  0  0  0  0  0  0  0  0  0
  1  2  1  0
  2  3  1  0
  3  4  1  0
  4  5  1  0
  4  6  1  0
  6  7  1  0
  7  8  1  0
  8  9  1  0
  5  2  1  0
  8  2  1  0
  1 10  1  0
  1 11  1  0
  1 12  1  0
  3 13  1  0
  3 14  1  0
  4 15  1  0
  5 16  1  0
  5 17  1  0
  7 18  1  0
  7 19  1  0
  8 20  1  0
  9 21  1  0
M  END
