
     RDKit          3D

 21 22  0  0  0  0  0  0  0  0999 V2000
    2.0349   -0.4185   -0.6404 C   0  0  0  0  0  0  0  0  0  0  0  0
    0.7820   -0.3785    0.1432 C   0  0  0  0  0  0  0  0  0  0  0  0
    0.6537    0.8138    1.0913 C   0  0  0  0  0  0  0  0  0  0  0  0
   -0.3170    1.6650    0.2961 C   0  0  0  0  0  0  0  0  0  0  0  0
   -1.3220    0.5960   -0.1496 C   0  0  0  0  0  0  0  0  0  0  0  0
   -2.3155    0.4131    0.7849 O   0  0  0  0  0  0  0  0  0  0  0  0
   -0.5293   -0.6100   -0.4747 C   0  0  0  0  0  0  0  0  0  0  0  0
   -0.6652   -1.1059   -1.7676 O   0  0  0  0  0  0  0  0  0  0  0  0
   -0.0075   -1.5512    0.5205 C   0  0  0  0  0  0  0  0  0  0  0  0
    2.1959    0.6096   -1.0807 H   0  0  0  0  0  0  0  0  0  0  0  0
    2.9459   -0.5966   -0.0212 H   0  0  0  0  0  0  0  0  0  0  0  0
    2.0282   -1.1038   -1.5000 H   0  0  0  0  0  0  0  0  0  0  0  0
    0.1218    0.5283    2.0272 H   0  0  0  0  0  0  0  0  0  0  0  0
    1.6079    1.3010    1.2773 H   0  0  0  0  0  0  0  0  0  0  0  0
    0.2242    2.0767   -0.5836 H   0  0  0  0  0  0  0  0  0  0  0  0
   -0.8494    2.4007    0.8896 H   0  0  0  0  0  0  0  0  0  0  0  0
   -1.7992    1.0119   -1.0637 H   0  0  0  0  0  0  0  0  0  0  0  0
   -3.0963   -0.0110    0.3131 H   0  0  0  0  0  0  0  0  0  0  0  0
   -1.5910   -1.5091   -1.7993 H   0  0  0  0  0  0  0  0  0  0  0  0
    0.3616   -2.5237    0.1849 H   0  0  0  0  0  0  0  0  0  0  0  0
   -0.4638   -1.6078    1.5528 H   0  0  0  0  0  0  0  0  0  0  0  0
  1  2  1  0
  2  3  1  0
  3  4  1  0
  4  5  1  0
  5  6  1  0
  5  7  1  0
  7  8  1  0
  7  9  1  0
  7  2  1  0
  9  2  1  0
  1 10  1  0
  1 11  1  0
  1 12  1  0
  3 13  1  0
  3 14  1  0
  4 15  1  0
  4 16  1  0
  5 17  1  0
  6 18  1  0
  8 19  1  0
  9 20  1  0
  9 21  1  0
M  END
