
     RDKit          3D

 19 21  0  0  0  0  0  0  0  0999 V2000
   -1.7676   -1.2485   -0.6770 C   0  0  0  0  0  0  0  0  0  0  0  0
   -0.8700   -0.1142   -0.3501 C   0  0  0  0  0  0  0  0  0  0  0  0
   -1.3338    1.1265    0.3097 C   0  0  0  0  0  0  0  0  0  0  0  0
   -0.5736    0.1834    1.1431 C   0  0  0  0  0  0  0  0  0  0  0  0
    0.8280   -0.2165    0.8816 C   0  0  0  0  0  0  0  0  0  0  0  0
    1.8151    0.7352    1.1036 O   0  0  0  0  0  0  0  0  0  0  0  0
    2.3796    0.9315   -0.1599 C   0  0  0  0  0  0  0  0  0  0  0  0
    1.2055    1.0502   -0.9410 O   0  0  0  0  0  0  0  0  0  0  0  0
    0.6079   -0.1905   -0.6212 C   0  0  0  0  0  0  0  0  0  0  0  0
   -2.3850   -1.6115    0.1793 H   0  0  0  0  0  0  0  0  0  0  0  0
   -1.1184   -2.1296   -0.9463 H   0  0  0  0  0  0  0  0  0  0  0  0
   -2.4089   -0.9951   -1.5592 H   0  0  0  0  0  0  0  0  0  0  0  0
   -2.3809    1.2944    0.5852 H   0  0  0  0  0  0  0  0  0  0  0  0
   -0.8536    2.0657   -0.0953 H   0  0  0  0  0  0  0  0  0  0  0  0
   -1.1135   -0.4100    1.8929 H   0  0  0  0  0  0  0  0  0  0  0  0
    1.0962   -1.2524    1.2040 H   0  0  0  0  0  0  0  0  0  0  0  0
    3.0162    1.8130   -0.2256 H   0  0  0  0  0  0  0  0  0  0  0  0
    2.8818    0.0132   -0.5433 H   0  0  0  0  0  0  0  0  0  0  0  0
    0.9749   -1.0448   -1.1805 H   0  0  0  0  0  0  0  0  0  0  0  0
  1  2  1  0
  2  3  1  0
  3  4  1  0
  4  5  1  0
  5  6  1  0
  6  7  1  0
  7  8  1  0
  8  9  1  0
  4  2  1  0
  9  5  1  0
  9  2  1  0
  1 10  1  0
  1 11  1  0
  1 12  1  0
  3 13  1  0
  3 14  1  0
  4 15  1  0
  5 16  1  0
  7 17  1  0
  7 18  1  0
  9 19  1  0
M  END
