
     RDKit          3D

 23 25  0  0  0  0  0  0  0  0999 V2000
    2.4602   -0.2578   -0.6161 C   0  0  0  0  0  0  0  0  0  0  0  0
    1.0982   -0.0715   -0.0755 C   0  0  0  0  0  0  0  0  0  0  0  0
    0.7361    1.2836    0.4601 C   0  0  0  0  0  0  0  0  0  0  0  0
   -0.7353    1.4250    0.2048 C   0  0  0  0  0  0  0  0  0  0  0  0
   -1.2289    0.0670   -0.2802 C   0  0  0  0  0  0  0  0  0  0  0  0
   -2.6149   -0.0147   -0.7895 C   0  0  0  0  0  0  0  0  0  0  0  0
   -0.6498   -1.1646    0.3284 C   0  0  0  0  0  0  0  0  0  0  0  0
    0.7281   -1.1358    0.9563 C   0  0  0  0  0  0  0  0  0  0  0  0
   -0.0608   -0.5377   -0.8874 C   0  0  0  0  0  0  0  0  0  0  0  0
    2.5211   -1.2213   -1.1369 H   0  0  0  0  0  0  0  0  0  0  0  0
    2.7898    0.5806   -1.2386 H   0  0  0  0  0  0  0  0  0  0  0  0
    3.1762   -0.2874    0.2569 H   0  0  0  0  0  0  0  0  0  0  0  0
    0.9260    1.2963    1.5547 H   0  0  0  0  0  0  0  0  0  0  0  0
    1.3200    2.1093    0.0299 H   0  0  0  0  0  0  0  0  0  0  0  0
   -1.3154    1.8100    1.0375 H   0  0  0  0  0  0  0  0  0  0  0  0
   -0.8527    2.1151   -0.6614 H   0  0  0  0  0  0  0  0  0  0  0  0
   -3.2185   -0.7468   -0.2102 H   0  0  0  0  0  0  0  0  0  0  0  0
   -2.6893   -0.2904   -1.8482 H   0  0  0  0  0  0  0  0  0  0  0  0
   -3.1283    0.9762   -0.6267 H   0  0  0  0  0  0  0  0  0  0  0  0
   -1.2288   -2.0869    0.2973 H   0  0  0  0  0  0  0  0  0  0  0  0
    1.2943   -2.0720    0.8714 H   0  0  0  0  0  0  0  0  0  0  0  0
    0.6526   -0.7533    1.9851 H   0  0  0  0  0  0  0  0  0  0  0  0
    0.0201   -1.0230   -1.8402 H   0  0  0  0  0  0  0  0  0  0  0  0
  1  2  1  0
  2  3  1  0
  3  4  1  0
  4  5  1  0
  5  6  1  0
  5  7  1  0
  7  8  1  0
  7  9  1  0
  8  2  1  0
  9  2  1  0
  9  5  1  0
  1 10  1  0
  1 11  1  0
  1 12  1  0
  3 13  1  0
  3 14  1  0
  4 15  1  0
  4 16  1  0
  6 17  1  0
  6 18  1  0
  6 19  1  0
  7 20  1  0
  8 21  1  0
  8 22  1  0
  9 23  1  0
M  END
