
     RDKit          3D

 21 23  0  0  0  0  0  0  0  0999 V2000
    2.1976   -0.8891   -0.0800 C   0  0  0  0  0  0  0  0  0  0  0  0
    0.8305   -0.6856   -0.0362 C   0  0  0  0  0  0  0  0  0  0  0  0
   -0.0745   -1.0609    1.1155 C   0  0  0  0  0  0  0  0  0  0  0  0
   -0.9329   -0.5381   -0.0238 C   0  0  0  0  0  0  0  0  0  0  0  0
   -2.3084   -0.5324   -0.0443 C   0  0  0  0  0  0  0  0  0  0  0  0
   -0.1124   -1.3611   -0.8334 O   0  0  0  0  0  0  0  0  0  0  0  0
    0.0404    0.5186   -0.2210 C   0  0  0  0  0  0  0  0  0  0  0  0
    0.1501    1.8102    0.3540 C   0  0  0  0  0  0  0  0  0  0  0  0
    0.1233    1.5505   -1.1914 C   0  0  0  0  0  0  0  0  0  0  0  0
    2.4996   -1.8778   -0.5365 H   0  0  0  0  0  0  0  0  0  0  0  0
    2.6719   -0.9212    0.9449 H   0  0  0  0  0  0  0  0  0  0  0  0
    2.7661   -0.1146   -0.6300 H   0  0  0  0  0  0  0  0  0  0  0  0
   -0.1392   -2.1432    1.2344 H   0  0  0  0  0  0  0  0  0  0  0  0
   -0.0156   -0.4318    2.0009 H   0  0  0  0  0  0  0  0  0  0  0  0
   -2.7808   -1.2320   -0.7834 H   0  0  0  0  0  0  0  0  0  0  0  0
   -2.7716    0.4693   -0.2886 H   0  0  0  0  0  0  0  0  0  0  0  0
   -2.7971   -0.8097    0.9371 H   0  0  0  0  0  0  0  0  0  0  0  0
   -0.7406    2.3807    0.7362 H   0  0  0  0  0  0  0  0  0  0  0  0
    1.0961    2.1851    0.7532 H   0  0  0  0  0  0  0  0  0  0  0  0
   -0.7920    1.9207   -1.7079 H   0  0  0  0  0  0  0  0  0  0  0  0
    1.0897    1.7625   -1.6999 H   0  0  0  0  0  0  0  0  0  0  0  0
  1  2  1  0
  2  3  1  0
  3  4  1  0
  4  5  1  0
  4  6  1  0
  4  7  1  0
  7  8  1  0
  8  9  1  0
  6  2  1  0
  9  7  1  0
  7  2  1  0
  1 10  1  0
  1 11  1  0
  1 12  1  0
  3 13  1  0
  3 14  1  0
  5 15  1  0
  5 16  1  0
  5 17  1  0
  8 18  1  0
  8 19  1  0
  9 20  1  0
  9 21  1  0
M  END
