
     RDKit          3D

 20 21  0  0  0  0  0  0  0  0999 V2000
   -1.6397   -1.2753   -0.7403 C   0  0  0  0  0  0  0  0  0  0  0  0
   -0.5535   -0.4145   -0.2546 C   0  0  0  0  0  0  0  0  0  0  0  0
   -1.0186    0.7976    0.5390 C   0  0  0  0  0  0  0  0  0  0  0  0
    0.2398    1.6720    0.4358 C   0  0  0  0  0  0  0  0  0  0  0  0
    1.0629    0.9335   -0.5738 C   0  0  0  0  0  0  0  0  0  0  0  0
    1.7623   -0.2610    0.0800 C   0  0  0  0  0  0  0  0  0  0  0  0
    0.5353   -1.0831    0.5020 C   0  0  0  0  0  0  0  0  0  0  0  0
    0.0874    0.2431   -1.3315 O   0  0  0  0  0  0  0  0  0  0  0  0
   -2.4599   -0.6536   -1.1355 H   0  0  0  0  0  0  0  0  0  0  0  0
   -1.9616   -2.0269   -0.0102 H   0  0  0  0  0  0  0  0  0  0  0  0
   -1.2588   -1.8596   -1.6279 H   0  0  0  0  0  0  0  0  0  0  0  0
   -1.1883    0.5533    1.6025 H   0  0  0  0  0  0  0  0  0  0  0  0
   -1.8722    1.3058    0.0588 H   0  0  0  0  0  0  0  0  0  0  0  0
    0.0190    2.6738    0.0695 H   0  0  0  0  0  0  0  0  0  0  0  0
    0.7787    1.6409    1.4020 H   0  0  0  0  0  0  0  0  0  0  0  0
    1.7221    1.5379   -1.1782 H   0  0  0  0  0  0  0  0  0  0  0  0
    2.3076   -0.8343   -0.6897 H   0  0  0  0  0  0  0  0  0  0  0  0
    2.3695    0.0443    0.9306 H   0  0  0  0  0  0  0  0  0  0  0  0
    0.6638   -2.1456    0.3232 H   0  0  0  0  0  0  0  0  0  0  0  0
    0.4042   -0.8484    1.5984 H   0  0  0  0  0  0  0  0  0  0  0  0
  1  2  1  0
  2  3  1  0
  3  4  1  0
  4  5  1  0
  5  6  1  0
  6  7  1  0
  5  8  1  0
  7  2  1  0
  8  2  1  0
  1  9  1  0
  1 10  1  0
  1 11  1  0
  3 12  1  0
  3 13  1  0
  4 14  1  0
  4 15  1  0
  5 16  1  0
  6 17  1  0
  6 18  1  0
  7 19  1  0
  7 20  1  0
M  END
