
     RDKit          3D

 21 23  0  0  0  0  0  0  0  0999 V2000
    2.2547   -0.0015   -0.1250 C   0  0  0  0  0  0  0  0  0  0  0  0
    0.7848   -0.0949   -0.0957 C   0  0  0  0  0  0  0  0  0  0  0  0
   -0.0880    1.1451   -0.1795 C   0  0  0  0  0  0  0  0  0  0  0  0
    0.2236    2.0993    0.7439 O   0  0  0  0  0  0  0  0  0  0  0  0
   -1.4350    0.4930    0.0354 C   0  0  0  0  0  0  0  0  0  0  0  0
   -1.3937   -0.5566   -1.0585 C   0  0  0  0  0  0  0  0  0  0  0  0
   -0.0030   -1.1395   -0.7534 C   0  0  0  0  0  0  0  0  0  0  0  0
    0.0889   -1.1045    0.7154 C   0  0  0  0  0  0  0  0  0  0  0  0
   -1.1531   -0.3696    1.2439 C   0  0  0  0  0  0  0  0  0  0  0  0
    2.6672    0.9205   -0.5273 H   0  0  0  0  0  0  0  0  0  0  0  0
    2.6299   -0.1233    0.9340 H   0  0  0  0  0  0  0  0  0  0  0  0
    2.6638   -0.8698   -0.7054 H   0  0  0  0  0  0  0  0  0  0  0  0
   -0.0737    1.5344   -1.2285 H   0  0  0  0  0  0  0  0  0  0  0  0
    0.5997    2.9190    0.2917 H   0  0  0  0  0  0  0  0  0  0  0  0
   -2.2810    1.1203    0.0691 H   0  0  0  0  0  0  0  0  0  0  0  0
   -2.1907   -1.2918   -0.8247 H   0  0  0  0  0  0  0  0  0  0  0  0
   -1.4498   -0.1312   -2.0603 H   0  0  0  0  0  0  0  0  0  0  0  0
    0.3878   -1.9331   -1.3763 H   0  0  0  0  0  0  0  0  0  0  0  0
    0.5740   -1.8481    1.3301 H   0  0  0  0  0  0  0  0  0  0  0  0
   -0.8463    0.2917    2.0871 H   0  0  0  0  0  0  0  0  0  0  0  0
   -1.9601   -1.0594    1.4840 H   0  0  0  0  0  0  0  0  0  0  0  0
  1  2  1  0
  2  3  1  0
  3  4  1  0
  3  5  1  0
  5  6  1  0
  6  7  1  0
  7  8  1  0
  8  9  1  0
  7  2  1  0
  8  2  1  0
  9  5  1  0
  1 10  1  0
  1 11  1  0
  1 12  1  0
  3 13  1  0
  4 14  1  0
  5 15  1  0
  6 16  1  0
  6 17  1  0
  7 18  1  0
  8 19  1  0
  9 20  1  0
  9 21  1  0
M  END
