
     RDKit          3D

 19 20  0  0  0  0  0  0  0  0999 V2000
   -2.1371   -0.9620   -0.0699 C   0  0  0  0  0  0  0  0  0  0  0  0
   -0.8860   -0.1272    0.0940 C   0  0  0  0  0  0  0  0  0  0  0  0
    0.2469   -0.7577    0.7497 C   0  0  0  0  0  0  0  0  0  0  0  0
    1.3782   -0.2870    0.2871 C   0  0  0  0  0  0  0  0  0  0  0  0
    2.7303   -0.7043    0.7285 C   0  0  0  0  0  0  0  0  0  0  0  0
    3.7018   -0.1458    0.1747 O   0  0  0  0  0  0  0  0  0  0  0  0
    1.1290    0.7256   -0.7366 C   0  0  0  0  0  0  0  0  0  0  0  0
   -0.3472    0.7044   -0.9717 C   0  0  0  0  0  0  0  0  0  0  0  0
   -1.1411    1.3433    0.1532 C   0  0  0  0  0  0  0  0  0  0  0  0
   -2.7376   -0.6650   -0.9408 H   0  0  0  0  0  0  0  0  0  0  0  0
   -1.8874   -2.0472   -0.0861 H   0  0  0  0  0  0  0  0  0  0  0  0
   -2.7531   -0.8016    0.8392 H   0  0  0  0  0  0  0  0  0  0  0  0
    0.1961   -1.5169    1.5198 H   0  0  0  0  0  0  0  0  0  0  0  0
    2.8111   -1.4527    1.4889 H   0  0  0  0  0  0  0  0  0  0  0  0
    1.7171    0.5422   -1.6664 H   0  0  0  0  0  0  0  0  0  0  0  0
    1.4646    1.7132   -0.2862 H   0  0  0  0  0  0  0  0  0  0  0  0
   -0.7562    0.7418   -1.9982 H   0  0  0  0  0  0  0  0  0  0  0  0
   -0.6155    1.9765    0.8792 H   0  0  0  0  0  0  0  0  0  0  0  0
   -2.1139    1.7206   -0.1586 H   0  0  0  0  0  0  0  0  0  0  0  0
  1  2  1  0
  2  3  1  0
  3  4  2  0
  4  5  1  0
  5  6  2  0
  4  7  1  0
  7  8  1  0
  8  9  1  0
  8  2  1  0
  9  2  1  0
  1 10  1  0
  1 11  1  0
  1 12  1  0
  3 13  1  0
  5 14  1  0
  7 15  1  0
  7 16  1  0
  8 17  1  0
  9 18  1  0
  9 19  1  0
M  END
