
     RDKit          3D

 21 24  0  0  0  0  0  0  0  0999 V2000
    1.8772   -0.4747    0.8915 C   0  0  0  0  0  0  0  0  0  0  0  0
    0.5846   -0.3513    0.2249 C   0  0  0  0  0  0  0  0  0  0  0  0
   -0.1196   -1.5598   -0.2801 C   0  0  0  0  0  0  0  0  0  0  0  0
   -1.3586   -0.9287   -0.9045 C   0  0  0  0  0  0  0  0  0  0  0  0
   -1.6793    0.1624    0.0187 C   0  0  0  0  0  0  0  0  0  0  0  0
   -0.9458    0.3787   -1.3580 C   0  0  0  0  0  0  0  0  0  0  0  0
    0.4143    0.7293   -0.8230 C   0  0  0  0  0  0  0  0  0  0  0  0
    0.1852    1.6809    0.3629 C   0  0  0  0  0  0  0  0  0  0  0  0
   -0.5128    0.4263    0.9212 C   0  0  0  0  0  0  0  0  0  0  0  0
    2.4911    0.4311    0.7507 H   0  0  0  0  0  0  0  0  0  0  0  0
    1.7356   -0.7264    1.9593 H   0  0  0  0  0  0  0  0  0  0  0  0
    2.4441   -1.3154    0.4388 H   0  0  0  0  0  0  0  0  0  0  0  0
   -0.4872   -2.1917    0.5584 H   0  0  0  0  0  0  0  0  0  0  0  0
    0.4511   -2.1633   -1.0067 H   0  0  0  0  0  0  0  0  0  0  0  0
   -2.0881   -1.5310   -1.4113 H   0  0  0  0  0  0  0  0  0  0  0  0
   -2.6394    0.6363    0.1391 H   0  0  0  0  0  0  0  0  0  0  0  0
   -1.4854    1.0389   -2.0279 H   0  0  0  0  0  0  0  0  0  0  0  0
    1.2141    0.9476   -1.4804 H   0  0  0  0  0  0  0  0  0  0  0  0
    1.0791    1.9770    0.8994 H   0  0  0  0  0  0  0  0  0  0  0  0
   -0.5488    2.4794    0.1522 H   0  0  0  0  0  0  0  0  0  0  0  0
   -0.6115    0.3545    1.9752 H   0  0  0  0  0  0  0  0  0  0  0  0
  1  2  1  0
  2  3  1  0
  3  4  1  0
  4  5  1  0
  5  6  1  0
  6  7  1  0
  7  8  1  0
  8  9  1  0
  7  2  1  0
  9  2  1  0
  6  4  1  0
  9  5  1  0
  1 10  1  0
  1 11  1  0
  1 12  1  0
  3 13  1  0
  3 14  1  0
  4 15  1  0
  5 16  1  0
  6 17  1  0
  7 18  1  0
  8 19  1  0
  8 20  1  0
  9 21  1  0
M  END
