
     RDKit          3D

 19 21  0  0  0  0  0  0  0  0999 V2000
    1.7281   -1.0565   -0.3966 C   0  0  0  0  0  0  0  0  0  0  0  0
    0.5947   -0.1214   -0.4094 C   0  0  0  0  0  0  0  0  0  0  0  0
    0.8633    1.3267   -0.0911 C   0  0  0  0  0  0  0  0  0  0  0  0
   -0.4635    1.2814    0.6841 C   0  0  0  0  0  0  0  0  0  0  0  0
   -1.5031    1.3565   -0.2297 O   0  0  0  0  0  0  0  0  0  0  0  0
   -1.5583    0.1048   -0.8498 C   0  0  0  0  0  0  0  0  0  0  0  0
   -1.4714   -0.8043    0.3938 C   0  0  0  0  0  0  0  0  0  0  0  0
   -0.1954   -0.1841    0.8925 C   0  0  0  0  0  0  0  0  0  0  0  0
   -0.3287   -0.2150   -1.4406 O   0  0  0  0  0  0  0  0  0  0  0  0
    2.5275   -0.6488    0.2669 H   0  0  0  0  0  0  0  0  0  0  0  0
    2.1357   -1.3230   -1.3917 H   0  0  0  0  0  0  0  0  0  0  0  0
    1.3866   -2.0184    0.0886 H   0  0  0  0  0  0  0  0  0  0  0  0
    0.8009    1.9398   -1.0072 H   0  0  0  0  0  0  0  0  0  0  0  0
    1.7395    1.5370    0.5366 H   0  0  0  0  0  0  0  0  0  0  0  0
   -0.5099    1.9174    1.5600 H   0  0  0  0  0  0  0  0  0  0  0  0
   -2.4214   -0.0742   -1.4508 H   0  0  0  0  0  0  0  0  0  0  0  0
   -2.3257   -0.6790    1.0507 H   0  0  0  0  0  0  0  0  0  0  0  0
   -1.2771   -1.8070    0.0264 H   0  0  0  0  0  0  0  0  0  0  0  0
    0.2781   -0.5318    1.7671 H   0  0  0  0  0  0  0  0  0  0  0  0
  1  2  1  0
  2  3  1  0
  3  4  1  0
  4  5  1  0
  5  6  1  0
  6  7  1  0
  7  8  1  0
  6  9  1  0
  8  2  1  0
  9  2  1  0
  8  4  1  0
  1 10  1  0
  1 11  1  0
  1 12  1  0
  3 13  1  0
  3 14  1  0
  4 15  1  0
  6 16  1  0
  7 17  1  0
  7 18  1  0
  8 19  1  0
M  END
