
     RDKit          3D

 16 18  0  0  0  0  0  0  0  0999 V2000
   -1.9434   -0.5753   -0.7517 C   0  0  0  0  0  0  0  0  0  0  0  0
   -0.6862    0.2307   -0.7027 C   0  0  0  0  0  0  0  0  0  0  0  0
   -0.6788    1.5744   -0.9878 O   0  0  0  0  0  0  0  0  0  0  0  0
   -0.6188    1.3133    0.3654 C   0  0  0  0  0  0  0  0  0  0  0  0
    0.5523    0.5784    0.9507 C   0  0  0  0  0  0  0  0  0  0  0  0
    1.7717    0.3474    0.1527 C   0  0  0  0  0  0  0  0  0  0  0  0
    2.7731   -0.3872    0.8004 O   0  0  0  0  0  0  0  0  0  0  0  0
    0.5340   -0.4249   -0.1456 C   0  0  0  0  0  0  0  0  0  0  0  0
   -1.8249   -1.4365   -0.0458 H   0  0  0  0  0  0  0  0  0  0  0  0
   -2.0326   -1.0031   -1.7741 H   0  0  0  0  0  0  0  0  0  0  0  0
   -2.8474   -0.0336   -0.4237 H   0  0  0  0  0  0  0  0  0  0  0  0
   -1.4722    1.4971    1.0166 H   0  0  0  0  0  0  0  0  0  0  0  0
    0.4815    0.3084    2.0005 H   0  0  0  0  0  0  0  0  0  0  0  0
    2.1157    1.0129   -0.6442 H   0  0  0  0  0  0  0  0  0  0  0  0
    3.3650   -0.8324    0.1685 H   0  0  0  0  0  0  0  0  0  0  0  0
    0.5110   -1.4980    0.0208 H   0  0  0  0  0  0  0  0  0  0  0  0
  1  2  1  0
  2  3  1  0
  3  4  1  0
  4  5  1  0
  5  6  1  0
  6  7  1  0
  6  8  1  0
  4  2  1  0
  8  5  1  0
  8  2  1  0
  1  9  1  0
  1 10  1  0
  1 11  1  0
  4 12  1  0
  5 13  1  0
  6 14  1  0
  7 15  1  0
  8 16  1  0
M  END
