
     RDKit          3D

 21 23  0  0  0  0  0  0  0  0999 V2000
    2.4519   -0.3126    0.8952 C   0  0  0  0  0  0  0  0  0  0  0  0
    1.2374   -0.2401    0.0494 C   0  0  0  0  0  0  0  0  0  0  0  0
    0.2331   -1.3700    0.1249 C   0  0  0  0  0  0  0  0  0  0  0  0
   -0.9819   -0.8795    0.1776 C   0  0  0  0  0  0  0  0  0  0  0  0
   -2.4400   -0.6031    0.2458 C   0  0  0  0  0  0  0  0  0  0  0  0
   -2.0619    0.6268   -0.6402 C   0  0  0  0  0  0  0  0  0  0  0  0
   -0.8929    0.6438    0.2748 C   0  0  0  0  0  0  0  0  0  0  0  0
    0.4554    1.0150   -0.1396 C   0  0  0  0  0  0  0  0  0  0  0  0
    1.1912    0.4661   -1.2685 C   0  0  0  0  0  0  0  0  0  0  0  0
    2.2244   -0.8884    1.7997 H   0  0  0  0  0  0  0  0  0  0  0  0
    2.7886    0.7045    1.2149 H   0  0  0  0  0  0  0  0  0  0  0  0
    3.3195   -0.8029    0.4089 H   0  0  0  0  0  0  0  0  0  0  0  0
    0.5658   -2.3969    0.1291 H   0  0  0  0  0  0  0  0  0  0  0  0
   -3.0951   -1.3078   -0.2584 H   0  0  0  0  0  0  0  0  0  0  0  0
   -2.7193   -0.2614    1.2508 H   0  0  0  0  0  0  0  0  0  0  0  0
   -2.7909    1.4360   -0.5728 H   0  0  0  0  0  0  0  0  0  0  0  0
   -1.8915    0.2067   -1.6631 H   0  0  0  0  0  0  0  0  0  0  0  0
   -1.2183    1.0024    1.2771 H   0  0  0  0  0  0  0  0  0  0  0  0
    0.9175    1.8903    0.4288 H   0  0  0  0  0  0  0  0  0  0  0  0
    2.0896    1.0374   -1.6139 H   0  0  0  0  0  0  0  0  0  0  0  0
    0.6175    0.0338   -2.1205 H   0  0  0  0  0  0  0  0  0  0  0  0
  1  2  1  0
  2  3  1  0
  3  4  2  0
  4  5  1  0
  5  6  1  0
  6  7  1  0
  7  8  1  0
  8  9  1  0
  8  2  1  0
  9  2  1  0
  7  4  1  0
  1 10  1  0
  1 11  1  0
  1 12  1  0
  3 13  1  0
  5 14  1  0
  5 15  1  0
  6 16  1  0
  6 17  1  0
  7 18  1  0
  8 19  1  0
  9 20  1  0
  9 21  1  0
M  END
