
     RDKit          3D

 19 21  0  0  0  0  0  0  0  0999 V2000
    2.4420   -0.4153    0.2635 C   0  0  0  0  0  0  0  0  0  0  0  0
    1.0617    0.0853    0.0320 C   0  0  0  0  0  0  0  0  0  0  0  0
    0.8716    1.2490   -0.6664 O   0  0  0  0  0  0  0  0  0  0  0  0
   -0.3752    1.7431   -0.4524 C   0  0  0  0  0  0  0  0  0  0  0  0
   -1.1610    0.6903    0.3385 C   0  0  0  0  0  0  0  0  0  0  0  0
   -1.4116   -0.5335   -0.4994 C   0  0  0  0  0  0  0  0  0  0  0  0
   -2.4055   -1.3713   -0.0630 O   0  0  0  0  0  0  0  0  0  0  0  0
    0.0111   -0.9817   -0.1437 C   0  0  0  0  0  0  0  0  0  0  0  0
   -0.0256   -0.0350    0.9897 C   0  0  0  0  0  0  0  0  0  0  0  0
    3.2072    0.3622    0.3452 H   0  0  0  0  0  0  0  0  0  0  0  0
    2.4464   -1.1255    1.1233 H   0  0  0  0  0  0  0  0  0  0  0  0
    2.7280   -1.0328   -0.6366 H   0  0  0  0  0  0  0  0  0  0  0  0
   -0.4049    2.6777    0.1553 H   0  0  0  0  0  0  0  0  0  0  0  0
   -0.8981    1.8660   -1.4166 H   0  0  0  0  0  0  0  0  0  0  0  0
   -1.9666    1.0635    0.9567 H   0  0  0  0  0  0  0  0  0  0  0  0
   -1.4257   -0.2630   -1.5776 H   0  0  0  0  0  0  0  0  0  0  0  0
   -2.9183   -1.6663   -0.8685 H   0  0  0  0  0  0  0  0  0  0  0  0
    0.2045   -2.0236    0.0945 H   0  0  0  0  0  0  0  0  0  0  0  0
    0.0200   -0.2892    2.0256 H   0  0  0  0  0  0  0  0  0  0  0  0
  1  2  1  0
  2  3  1  0
  3  4  1  0
  4  5  1  0
  5  6  1  0
  6  7  1  0
  6  8  1  0
  8  9  1  0
  8  2  1  0
  9  2  1  0
  9  5  1  0
  1 10  1  0
  1 11  1  0
  1 12  1  0
  4 13  1  0
  4 14  1  0
  5 15  1  0
  6 16  1  0
  7 17  1  0
  8 18  1  0
  9 19  1  0
M  END
