
     RDKit          3D

 19 21  0  0  0  0  0  0  0  0999 V2000
   -1.5864    1.2287   -0.3966 C   0  0  0  0  0  0  0  0  0  0  0  0
   -0.9349    0.0458    0.2825 C   0  0  0  0  0  0  0  0  0  0  0  0
   -1.4724   -1.3245    0.0710 C   0  0  0  0  0  0  0  0  0  0  0  0
   -0.2476   -0.9106   -0.6504 C   0  0  0  0  0  0  0  0  0  0  0  0
    1.0168   -0.7178    0.1333 C   0  0  0  0  0  0  0  0  0  0  0  0
    1.7287   -1.8072    0.5806 O   0  0  0  0  0  0  0  0  0  0  0  0
    1.5534    0.6376    0.3779 C   0  0  0  0  0  0  0  0  0  0  0  0
    1.4377    1.5344   -0.6925 O   0  0  0  0  0  0  0  0  0  0  0  0
    0.3182    0.2078    1.0631 C   0  0  0  0  0  0  0  0  0  0  0  0
   -1.4419    2.1666    0.1618 H   0  0  0  0  0  0  0  0  0  0  0  0
   -2.6749    0.9446   -0.4790 H   0  0  0  0  0  0  0  0  0  0  0  0
   -1.2092    1.3548   -1.4436 H   0  0  0  0  0  0  0  0  0  0  0  0
   -2.3798   -1.4637   -0.5428 H   0  0  0  0  0  0  0  0  0  0  0  0
   -1.2999   -2.0230    0.9231 H   0  0  0  0  0  0  0  0  0  0  0  0
   -0.2388   -0.7082   -1.7350 H   0  0  0  0  0  0  0  0  0  0  0  0
    2.3903   -2.0373   -0.1169 H   0  0  0  0  0  0  0  0  0  0  0  0
    2.5012    0.6734    0.9577 H   0  0  0  0  0  0  0  0  0  0  0  0
    2.2106    2.1584   -0.6573 H   0  0  0  0  0  0  0  0  0  0  0  0
    0.3290    0.0403    2.1632 H   0  0  0  0  0  0  0  0  0  0  0  0
  1  2  1  0
  2  3  1  0
  3  4  1  0
  4  5  1  0
  5  6  1  0
  5  7  1  0
  7  8  1  0
  7  9  1  0
  4  2  1  0
  9  5  1  0
  9  2  1  0
  1 10  1  0
  1 11  1  0
  1 12  1  0
  3 13  1  0
  3 14  1  0
  4 15  1  0
  6 16  1  0
  7 17  1  0
  8 18  1  0
  9 19  1  0
M  END
