
     RDKit          3D

 19 20  0  0  0  0  0  0  0  0999 V2000
    2.4207   -0.2143    0.2633 C   0  0  0  0  0  0  0  0  0  0  0  0
    0.9066   -0.0497   -0.0038 C   0  0  0  0  0  0  0  0  0  0  0  0
    0.1205   -1.1329    0.5717 C   0  0  0  0  0  0  0  0  0  0  0  0
   -1.2719   -1.3069    0.2221 C   0  0  0  0  0  0  0  0  0  0  0  0
   -2.1726   -0.3965   -0.1002 C   0  0  0  0  0  0  0  0  0  0  0  0
   -1.9575    1.0390   -0.1787 C   0  0  0  0  0  0  0  0  0  0  0  0
   -0.8340    1.6949   -0.3988 C   0  0  0  0  0  0  0  0  0  0  0  0
    0.4968    1.0761   -0.6211 C   0  0  0  0  0  0  0  0  0  0  0  0
    0.6107   -0.0198   -1.4657 O   0  0  0  0  0  0  0  0  0  0  0  0
    2.7304   -1.2573    0.0838 H   0  0  0  0  0  0  0  0  0  0  0  0
    2.9831    0.4965   -0.3504 H   0  0  0  0  0  0  0  0  0  0  0  0
    2.5438    0.1024    1.3203 H   0  0  0  0  0  0  0  0  0  0  0  0
    0.6470   -2.1275    0.4292 H   0  0  0  0  0  0  0  0  0  0  0  0
    0.1543   -1.0202    1.7014 H   0  0  0  0  0  0  0  0  0  0  0  0
   -1.6165   -2.3572    0.2320 H   0  0  0  0  0  0  0  0  0  0  0  0
   -3.1705   -0.7714   -0.3256 H   0  0  0  0  0  0  0  0  0  0  0  0
   -2.8747    1.6246   -0.0316 H   0  0  0  0  0  0  0  0  0  0  0  0
   -0.9554    2.7630   -0.4064 H   0  0  0  0  0  0  0  0  0  0  0  0
    1.2393    1.8572   -0.9414 H   0  0  0  0  0  0  0  0  0  0  0  0
  1  2  1  0
  2  3  1  0
  3  4  1  0
  4  5  2  0
  5  6  1  0
  6  7  2  0
  7  8  1  0
  8  9  1  0
  8  2  1  0
  9  2  1  0
  1 10  1  0
  1 11  1  0
  1 12  1  0
  3 13  1  0
  3 14  1  0
  4 15  1  0
  5 16  1  0
  6 17  1  0
  7 18  1  0
  8 19  1  0
M  END
