
     RDKit          3D

 16 18  0  0  0  0  0  0  0  0999 V2000
   -1.8108   -0.0529   -0.6706 C   0  0  0  0  0  0  0  0  0  0  0  0
   -0.4225   -0.0519   -0.2477 C   0  0  0  0  0  0  0  0  0  0  0  0
    0.1634   -0.9521    0.7996 C   0  0  0  0  0  0  0  0  0  0  0  0
    1.5895   -1.0107    0.3801 C   0  0  0  0  0  0  0  0  0  0  0  0
    1.8926    0.0155   -0.3986 C   0  0  0  0  0  0  0  0  0  0  0  0
    0.6452    0.8602   -0.5578 C   0  0  0  0  0  0  0  0  0  0  0  0
   -0.0440    1.0473    0.7616 C   0  0  0  0  0  0  0  0  0  0  0  0
   -0.0011    0.0579    1.7226 O   0  0  0  0  0  0  0  0  0  0  0  0
   -2.4431   -0.6129    0.0801 H   0  0  0  0  0  0  0  0  0  0  0  0
   -2.2328    0.9936   -0.6373 H   0  0  0  0  0  0  0  0  0  0  0  0
   -2.0294   -0.4176   -1.6973 H   0  0  0  0  0  0  0  0  0  0  0  0
   -0.3328   -1.8985    0.9779 H   0  0  0  0  0  0  0  0  0  0  0  0
    2.2512   -1.7983    0.6902 H   0  0  0  0  0  0  0  0  0  0  0  0
    2.8393    0.2266   -0.8433 H   0  0  0  0  0  0  0  0  0  0  0  0
    0.6491    1.6968   -1.2334 H   0  0  0  0  0  0  0  0  0  0  0  0
   -0.7138    1.8972    0.8742 H   0  0  0  0  0  0  0  0  0  0  0  0
  1  2  1  0
  2  3  1  0
  3  4  1  0
  4  5  2  0
  5  6  1  0
  6  7  1  0
  7  8  1  0
  6  2  1  0
  7  2  1  0
  8  3  1  0
  1  9  1  0
  1 10  1  0
  1 11  1  0
  3 12  1  0
  4 13  1  0
  5 14  1  0
  6 15  1  0
  7 16  1  0
M  END
