
     RDKit          3D

 18 19  0  0  0  0  0  0  0  0999 V2000
    2.2076    0.3671    0.0920 C   0  0  0  0  0  0  0  0  0  0  0  0
    0.7415    0.3118    0.1326 C   0  0  0  0  0  0  0  0  0  0  0  0
    0.1588   -0.9232   -0.5817 C   0  0  0  0  0  0  0  0  0  0  0  0
   -1.2775   -0.4696   -0.2472 C   0  0  0  0  0  0  0  0  0  0  0  0
   -1.2135    0.9331   -0.7821 C   0  0  0  0  0  0  0  0  0  0  0  0
    0.1222    1.3101   -0.6418 O   0  0  0  0  0  0  0  0  0  0  0  0
   -1.0868   -0.3711    1.2569 C   0  0  0  0  0  0  0  0  0  0  0  0
    0.1680    0.2144    1.3810 O   0  0  0  0  0  0  0  0  0  0  0  0
    2.6158   -0.2461    0.9245 H   0  0  0  0  0  0  0  0  0  0  0  0
    2.5406    1.4079    0.2687 H   0  0  0  0  0  0  0  0  0  0  0  0
    2.5764   -0.0460   -0.8664 H   0  0  0  0  0  0  0  0  0  0  0  0
    0.3522   -0.9006   -1.6526 H   0  0  0  0  0  0  0  0  0  0  0  0
    0.4125   -1.8460   -0.0618 H   0  0  0  0  0  0  0  0  0  0  0  0
   -2.0411   -1.1091   -0.5953 H   0  0  0  0  0  0  0  0  0  0  0  0
   -1.8225    1.5876   -0.1568 H   0  0  0  0  0  0  0  0  0  0  0  0
   -1.5673    0.9902   -1.8265 H   0  0  0  0  0  0  0  0  0  0  0  0
   -1.8883    0.2046    1.7308 H   0  0  0  0  0  0  0  0  0  0  0  0
   -0.9986   -1.4152    1.6257 H   0  0  0  0  0  0  0  0  0  0  0  0
  1  2  1  0
  2  3  1  0
  3  4  1  0
  4  5  1  0
  5  6  1  0
  4  7  1  0
  7  8  1  0
  6  2  1  0
  8  2  1  0
  1  9  1  0
  1 10  1  0
  1 11  1  0
  3 12  1  0
  3 13  1  0
  4 14  1  0
  5 15  1  0
  5 16  1  0
  7 17  1  0
  7 18  1  0
M  END
