
     RDKit          3D

 19 20  0  0  0  0  0  0  0  0999 V2000
   -1.5846    1.0280    0.3873 C   0  0  0  0  0  0  0  0  0  0  0  0
   -0.5552    0.1659   -0.2735 C   0  0  0  0  0  0  0  0  0  0  0  0
    0.4429    0.9148   -1.1260 C   0  0  0  0  0  0  0  0  0  0  0  0
    1.6822    0.8029   -0.2941 C   0  0  0  0  0  0  0  0  0  0  0  0
    2.5018    1.6736   -0.1417 O   0  0  0  0  0  0  0  0  0  0  0  0
    1.6356   -0.5892    0.2626 C   0  0  0  0  0  0  0  0  0  0  0  0
    0.1905   -0.8523    0.5171 C   0  0  0  0  0  0  0  0  0  0  0  0
   -0.1348   -1.0762    1.8499 O   0  0  0  0  0  0  0  0  0  0  0  0
   -0.7401   -1.2592   -0.5347 C   0  0  0  0  0  0  0  0  0  0  0  0
   -1.2693    1.2157    1.4275 H   0  0  0  0  0  0  0  0  0  0  0  0
   -2.6197    0.6230    0.3074 H   0  0  0  0  0  0  0  0  0  0  0  0
   -1.6324    2.0370   -0.1003 H   0  0  0  0  0  0  0  0  0  0  0  0
    0.1619    1.9956   -1.2431 H   0  0  0  0  0  0  0  0  0  0  0  0
    0.5465    0.3878   -2.0740 H   0  0  0  0  0  0  0  0  0  0  0  0
    2.0918   -1.3163   -0.4663 H   0  0  0  0  0  0  0  0  0  0  0  0
    2.2351   -0.5774    1.1877 H   0  0  0  0  0  0  0  0  0  0  0  0
   -0.8402   -1.7286    1.9876 H   0  0  0  0  0  0  0  0  0  0  0  0
   -1.7143   -1.6975   -0.1931 H   0  0  0  0  0  0  0  0  0  0  0  0
   -0.3976   -1.7477   -1.4801 H   0  0  0  0  0  0  0  0  0  0  0  0
  1  2  1  0
  2  3  1  0
  3  4  1  0
  4  5  2  0
  4  6  1  0
  6  7  1  0
  7  8  1  0
  7  9  1  0
  7  2  1  0
  9  2  1  0
  1 10  1  0
  1 11  1  0
  1 12  1  0
  3 13  1  0
  3 14  1  0
  6 15  1  0
  6 16  1  0
  8 17  1  0
  9 18  1  0
  9 19  1  0
M  END
