
     RDKit          3D

 25 26  0  0  0  0  0  0  0  0999 V2000
   -1.1075    1.3009    1.0900 C   0  0  0  0  0  0  0  0  0  0  0  0
   -0.2213    0.1402    0.7398 C   0  0  0  0  0  0  0  0  0  0  0  0
    1.2056    0.2346    1.2171 C   0  0  0  0  0  0  0  0  0  0  0  0
    2.0799    0.2310   -0.0033 C   0  0  0  0  0  0  0  0  0  0  0  0
    1.2131   -0.0598   -1.1910 C   0  0  0  0  0  0  0  0  0  0  0  0
   -0.2017   -0.2030   -0.7040 C   0  0  0  0  0  0  0  0  0  0  0  0
   -1.1395    0.5498   -1.6041 C   0  0  0  0  0  0  0  0  0  0  0  0
   -0.6473   -1.5995   -0.3712 C   0  0  0  0  0  0  0  0  0  0  0  0
   -0.8003   -1.2230    1.0969 C   0  0  0  0  0  0  0  0  0  0  0  0
   -2.1648    0.9457    0.9594 H   0  0  0  0  0  0  0  0  0  0  0  0
   -0.9333    2.1349    0.3949 H   0  0  0  0  0  0  0  0  0  0  0  0
   -1.0159    1.5874    2.1490 H   0  0  0  0  0  0  0  0  0  0  0  0
    1.3807    1.1149    1.8803 H   0  0  0  0  0  0  0  0  0  0  0  0
    1.5088   -0.6618    1.8271 H   0  0  0  0  0  0  0  0  0  0  0  0
    2.8644   -0.5726    0.0277 H   0  0  0  0  0  0  0  0  0  0  0  0
    2.6433    1.1809   -0.1014 H   0  0  0  0  0  0  0  0  0  0  0  0
    1.5155   -0.9398   -1.7670 H   0  0  0  0  0  0  0  0  0  0  0  0
    1.3075    0.8213   -1.8819 H   0  0  0  0  0  0  0  0  0  0  0  0
   -0.8206    1.6077   -1.6163 H   0  0  0  0  0  0  0  0  0  0  0  0
   -2.1960    0.4027   -1.3921 H   0  0  0  0  0  0  0  0  0  0  0  0
   -0.9527    0.1598   -2.6476 H   0  0  0  0  0  0  0  0  0  0  0  0
   -1.6377   -1.8671   -0.7797 H   0  0  0  0  0  0  0  0  0  0  0  0
    0.1351   -2.3567   -0.5140 H   0  0  0  0  0  0  0  0  0  0  0  0
   -1.8414   -1.0900    1.4360 H   0  0  0  0  0  0  0  0  0  0  0  0
   -0.1739   -1.8387    1.7556 H   0  0  0  0  0  0  0  0  0  0  0  0
  1  2  1  0
  2  3  1  0
  3  4  1  0
  4  5  1  0
  5  6  1  0
  6  7  1  0
  6  8  1  0
  8  9  1  0
  6  2  1  0
  9  2  1  0
  1 10  1  0
  1 11  1  0
  1 12  1  0
  3 13  1  0
  3 14  1  0
  4 15  1  0
  4 16  1  0
  5 17  1  0
  5 18  1  0
  7 19  1  0
  7 20  1  0
  7 21  1  0
  8 22  1  0
  8 23  1  0
  9 24  1  0
  9 25  1  0
M  END
