
     RDKit          3D

 19 20  0  0  0  0  0  0  0  0999 V2000
    0.7977    1.7187    0.3682 C   0  0  0  0  0  0  0  0  0  0  0  0
    0.1353    0.4783   -0.1316 C   0  0  0  0  0  0  0  0  0  0  0  0
   -1.3647    0.4179   -0.2858 C   0  0  0  0  0  0  0  0  0  0  0  0
   -1.7503   -0.7654    0.5968 C   0  0  0  0  0  0  0  0  0  0  0  0
   -0.6274   -1.6966    0.3715 C   0  0  0  0  0  0  0  0  0  0  0  0
   -0.7135   -2.8916    0.2682 O   0  0  0  0  0  0  0  0  0  0  0  0
    0.5956   -0.8759    0.3009 C   0  0  0  0  0  0  0  0  0  0  0  0
    0.9846   -0.3865   -1.0392 C   0  0  0  0  0  0  0  0  0  0  0  0
    2.3050   -0.0083   -1.2364 O   0  0  0  0  0  0  0  0  0  0  0  0
    0.0692    2.4261    0.8100 H   0  0  0  0  0  0  0  0  0  0  0  0
    1.2593    2.2349   -0.5224 H   0  0  0  0  0  0  0  0  0  0  0  0
    1.5999    1.5367    1.1093 H   0  0  0  0  0  0  0  0  0  0  0  0
   -1.8503    1.3476    0.0151 H   0  0  0  0  0  0  0  0  0  0  0  0
   -1.6594    0.1153   -1.3248 H   0  0  0  0  0  0  0  0  0  0  0  0
   -1.7526   -0.4674    1.6655 H   0  0  0  0  0  0  0  0  0  0  0  0
   -2.7351   -1.1787    0.3200 H   0  0  0  0  0  0  0  0  0  0  0  0
    1.3251   -0.9153    1.1328 H   0  0  0  0  0  0  0  0  0  0  0  0
    0.4882   -0.8010   -1.9411 H   0  0  0  0  0  0  0  0  0  0  0  0
    2.8932   -0.2887   -0.4769 H   0  0  0  0  0  0  0  0  0  0  0  0
  1  2  1  0
  2  3  1  0
  3  4  1  0
  4  5  1  0
  5  6  2  0
  5  7  1  0
  7  8  1  0
  8  9  1  0
  7  2  1  0
  8  2  1  0
  1 10  1  0
  1 11  1  0
  1 12  1  0
  3 13  1  0
  3 14  1  0
  4 15  1  0
  4 16  1  0
  7 17  1  0
  8 18  1  0
  9 19  1  0
M  END
