
     RDKit          3D

 23 24  0  0  0  0  0  0  0  0999 V2000
    0.5156   -1.0860    1.1426 C   0  0  0  0  0  0  0  0  0  0  0  0
    0.2097   -0.6828   -0.2719 C   0  0  0  0  0  0  0  0  0  0  0  0
    1.4021   -0.3285   -1.0396 C   0  0  0  0  0  0  0  0  0  0  0  0
    1.6827    1.1167   -0.6090 C   0  0  0  0  0  0  0  0  0  0  0  0
    0.4686    1.5521    0.2198 C   0  0  0  0  0  0  0  0  0  0  0  0
   -0.5409    0.6641   -0.3170 C   0  0  0  0  0  0  0  0  0  0  0  0
   -1.7492    0.2983    0.3889 C   0  0  0  0  0  0  0  0  0  0  0  0
   -1.9227   -1.1575   -0.0799 C   0  0  0  0  0  0  0  0  0  0  0  0
   -0.7497   -1.4645   -0.8158 O   0  0  0  0  0  0  0  0  0  0  0  0
    1.3149   -0.4826    1.6043 H   0  0  0  0  0  0  0  0  0  0  0  0
   -0.3925   -1.0826    1.7678 H   0  0  0  0  0  0  0  0  0  0  0  0
    0.8685   -2.1371    1.1087 H   0  0  0  0  0  0  0  0  0  0  0  0
    1.2855   -0.4259   -2.1176 H   0  0  0  0  0  0  0  0  0  0  0  0
    2.2700   -0.9392   -0.7110 H   0  0  0  0  0  0  0  0  0  0  0  0
    1.6840    1.7204   -1.5486 H   0  0  0  0  0  0  0  0  0  0  0  0
    2.6116    1.1952   -0.0403 H   0  0  0  0  0  0  0  0  0  0  0  0
    0.2705    2.6278   -0.0414 H   0  0  0  0  0  0  0  0  0  0  0  0
    0.6641    1.5216    1.2855 H   0  0  0  0  0  0  0  0  0  0  0  0
   -0.7211    0.8713   -1.3864 H   0  0  0  0  0  0  0  0  0  0  0  0
   -2.6168    0.9093   -0.0009 H   0  0  0  0  0  0  0  0  0  0  0  0
   -1.7668    0.3933    1.4666 H   0  0  0  0  0  0  0  0  0  0  0  0
   -2.7947   -1.2365   -0.7655 H   0  0  0  0  0  0  0  0  0  0  0  0
   -1.9933   -1.8472    0.7607 H   0  0  0  0  0  0  0  0  0  0  0  0
  1  2  1  0
  2  3  1  0
  3  4  1  0
  4  5  1  0
  5  6  1  0
  6  7  1  0
  7  8  1  0
  8  9  1  0
  6  2  1  0
  9  2  1  0
  1 10  1  0
  1 11  1  0
  1 12  1  0
  3 13  1  0
  3 14  1  0
  4 15  1  0
  4 16  1  0
  5 17  1  0
  5 18  1  0
  6 19  1  0
  7 20  1  0
  7 21  1  0
  8 22  1  0
  8 23  1  0
M  END
