
     RDKit          3D

 21 22  0  0  0  0  0  0  0  0999 V2000
    1.6013    0.7248    0.7496 C   0  0  0  0  0  0  0  0  0  0  0  0
    0.4492    0.1569    0.0360 C   0  0  0  0  0  0  0  0  0  0  0  0
    0.6845   -0.9362   -0.9549 C   0  0  0  0  0  0  0  0  0  0  0  0
   -0.2573   -1.9373   -0.7011 O   0  0  0  0  0  0  0  0  0  0  0  0
   -0.5288   -1.8498    0.6852 C   0  0  0  0  0  0  0  0  0  0  0  0
   -0.6974   -0.3734    0.8537 C   0  0  0  0  0  0  0  0  0  0  0  0
   -1.6189    0.2349   -0.2136 C   0  0  0  0  0  0  0  0  0  0  0  0
   -0.5072    1.2434   -0.4300 C   0  0  0  0  0  0  0  0  0  0  0  0
   -0.2728    1.6159   -1.7279 O   0  0  0  0  0  0  0  0  0  0  0  0
    2.3461    0.0101    1.1018 H   0  0  0  0  0  0  0  0  0  0  0  0
    2.1447    1.4215    0.0480 H   0  0  0  0  0  0  0  0  0  0  0  0
    1.2517    1.3614    1.5776 H   0  0  0  0  0  0  0  0  0  0  0  0
    1.6768   -1.3692   -0.7964 H   0  0  0  0  0  0  0  0  0  0  0  0
    0.5593   -0.5716   -2.0163 H   0  0  0  0  0  0  0  0  0  0  0  0
   -1.4469   -2.3716    0.9346 H   0  0  0  0  0  0  0  0  0  0  0  0
    0.3173   -2.2268    1.2656 H   0  0  0  0  0  0  0  0  0  0  0  0
   -0.8480    0.0271    1.8409 H   0  0  0  0  0  0  0  0  0  0  0  0
   -2.5395    0.6118    0.2255 H   0  0  0  0  0  0  0  0  0  0  0  0
   -1.7641   -0.4224   -1.0901 H   0  0  0  0  0  0  0  0  0  0  0  0
   -0.5140    2.0539    0.3224 H   0  0  0  0  0  0  0  0  0  0  0  0
   -0.0360    2.5963   -1.7108 H   0  0  0  0  0  0  0  0  0  0  0  0
  1  2  1  0
  2  3  1  0
  3  4  1  0
  4  5  1  0
  5  6  1  0
  6  7  1  0
  7  8  1  0
  8  9  1  0
  6  2  1  0
  8  2  1  0
  1 10  1  0
  1 11  1  0
  1 12  1  0
  3 13  1  0
  3 14  1  0
  5 15  1  0
  5 16  1  0
  6 17  1  0
  7 18  1  0
  7 19  1  0
  8 20  1  0
  9 21  1  0
M  END
