
     RDKit          3D

 19 20  0  0  0  0  0  0  0  0999 V2000
    2.2732   -0.5982    0.2208 C   0  0  0  0  0  0  0  0  0  0  0  0
    0.9174   -0.0624    0.3500 C   0  0  0  0  0  0  0  0  0  0  0  0
    0.0391   -0.4783   -0.8480 C   0  0  0  0  0  0  0  0  0  0  0  0
   -1.1789    0.2746   -0.2729 C   0  0  0  0  0  0  0  0  0  0  0  0
   -2.2852    0.2114   -0.9949 O   0  0  0  0  0  0  0  0  0  0  0  0
   -1.1866   -0.3742    1.0945 C   0  0  0  0  0  0  0  0  0  0  0  0
    0.1723   -0.5403    1.4012 O   0  0  0  0  0  0  0  0  0  0  0  0
   -0.5124    1.6190   -0.1052 C   0  0  0  0  0  0  0  0  0  0  0  0
    0.7925    1.3091    0.2969 O   0  0  0  0  0  0  0  0  0  0  0  0
    2.8397   -0.0565   -0.5322 H   0  0  0  0  0  0  0  0  0  0  0  0
    2.8153   -0.6375    1.1755 H   0  0  0  0  0  0  0  0  0  0  0  0
    2.2104   -1.6682   -0.1328 H   0  0  0  0  0  0  0  0  0  0  0  0
    0.3935   -0.0289   -1.7736 H   0  0  0  0  0  0  0  0  0  0  0  0
   -0.1215   -1.5548   -0.8606 H   0  0  0  0  0  0  0  0  0  0  0  0
   -2.3974   -0.6790   -1.4122 H   0  0  0  0  0  0  0  0  0  0  0  0
   -1.6065   -1.4124    1.0318 H   0  0  0  0  0  0  0  0  0  0  0  0
   -1.7219    0.2385    1.8213 H   0  0  0  0  0  0  0  0  0  0  0  0
   -1.0212    2.2708    0.6081 H   0  0  0  0  0  0  0  0  0  0  0  0
   -0.4218    2.1675   -1.0675 H   0  0  0  0  0  0  0  0  0  0  0  0
  1  2  1  0
  2  3  1  0
  3  4  1  0
  4  5  1  0
  4  6  1  0
  6  7  1  0
  4  8  1  0
  8  9  1  0
  7  2  1  0
  9  2  1  0
  1 10  1  0
  1 11  1  0
  1 12  1  0
  3 13  1  0
  3 14  1  0
  5 15  1  0
  6 16  1  0
  6 17  1  0
  8 18  1  0
  8 19  1  0
M  END
