
     RDKit          3D

 17 19  0  0  0  0  0  0  0  0999 V2000
   -1.8608    0.4065   -0.4200 C   0  0  0  0  0  0  0  0  0  0  0  0
   -1.2243   -0.2806    0.7710 C   0  0  0  0  0  0  0  0  0  0  0  0
   -0.2352    0.5493    1.4049 C   0  0  0  0  0  0  0  0  0  0  0  0
    0.9001    0.4688    0.7292 C   0  0  0  0  0  0  0  0  0  0  0  0
    2.2408    0.4935    0.0931 C   0  0  0  0  0  0  0  0  0  0  0  0
    1.9597   -0.8064   -0.3679 O   0  0  0  0  0  0  0  0  0  0  0  0
    0.6177   -0.5463   -0.3787 C   0  0  0  0  0  0  0  0  0  0  0  0
   -0.2271   -1.4450    0.4581 C   0  0  0  0  0  0  0  0  0  0  0  0
   -1.4853   -1.5672    0.7302 O   0  0  0  0  0  0  0  0  0  0  0  0
   -1.5583    1.4547   -0.5550 H   0  0  0  0  0  0  0  0  0  0  0  0
   -2.9659    0.4493   -0.1784 H   0  0  0  0  0  0  0  0  0  0  0  0
   -1.7823   -0.1465   -1.3488 H   0  0  0  0  0  0  0  0  0  0  0  0
   -0.3824    1.1587    2.3059 H   0  0  0  0  0  0  0  0  0  0  0  0
    2.2665    1.1866   -0.7435 H   0  0  0  0  0  0  0  0  0  0  0  0
    3.0898    0.5385    0.8048 H   0  0  0  0  0  0  0  0  0  0  0  0
    0.2556   -0.1339   -1.3010 H   0  0  0  0  0  0  0  0  0  0  0  0
    0.3912   -1.7800    1.3586 H   0  0  0  0  0  0  0  0  0  0  0  0
  1  2  1  0
  2  3  1  0
  3  4  2  0
  4  5  1  0
  5  6  1  0
  6  7  1  0
  7  8  1  0
  8  9  1  0
  8  2  1  0
  9  2  1  0
  7  4  1  0
  1 10  1  0
  1 11  1  0
  1 12  1  0
  3 13  1  0
  5 14  1  0
  5 15  1  0
  7 16  1  0
  8 17  1  0
M  END
