
     RDKit          3D

 17 18  0  0  0  0  0  0  0  0999 V2000
    1.4198    1.4458   -0.1224 C   0  0  0  0  0  0  0  0  0  0  0  0
    0.4134    0.4149    0.0880 C   0  0  0  0  0  0  0  0  0  0  0  0
    0.0596   -0.3927   -1.1780 C   0  0  0  0  0  0  0  0  0  0  0  0
   -0.9817   -1.2273   -0.4075 C   0  0  0  0  0  0  0  0  0  0  0  0
   -1.7740   -0.1141    0.1848 C   0  0  0  0  0  0  0  0  0  0  0  0
   -0.8228    0.8335    0.5599 O   0  0  0  0  0  0  0  0  0  0  0  0
   -0.1149   -1.7231    0.6290 O   0  0  0  0  0  0  0  0  0  0  0  0
    0.8174   -0.7388    0.9243 C   0  0  0  0  0  0  0  0  0  0  0  0
    1.7941   -0.7355    1.6945 O   0  0  0  0  0  0  0  0  0  0  0  0
    1.2154    1.9443   -1.1152 H   0  0  0  0  0  0  0  0  0  0  0  0
    1.3242    2.2392    0.6377 H   0  0  0  0  0  0  0  0  0  0  0  0
    2.4272    1.0146   -0.1454 H   0  0  0  0  0  0  0  0  0  0  0  0
    0.8539   -1.0731   -1.4563 H   0  0  0  0  0  0  0  0  0  0  0  0
   -0.3817    0.2160   -1.9488 H   0  0  0  0  0  0  0  0  0  0  0  0
   -1.4737   -1.9636   -0.9808 H   0  0  0  0  0  0  0  0  0  0  0  0
   -2.4392    0.3729   -0.5580 H   0  0  0  0  0  0  0  0  0  0  0  0
   -2.3371   -0.5130    1.0494 H   0  0  0  0  0  0  0  0  0  0  0  0
  1  2  1  0
  2  3  1  0
  3  4  1  0
  4  5  1  0
  5  6  1  0
  4  7  1  0
  7  8  1  0
  8  9  2  0
  6  2  1  0
  8  2  1  0
  1 10  1  0
  1 11  1  0
  1 12  1  0
  3 13  1  0
  3 14  1  0
  4 15  1  0
  5 16  1  0
  5 17  1  0
M  END
