
     RDKit          2D

 19 21  0  0  0  0  0  0  0  0999 V2000
   -3.6213   -1.0607    0.0000 C   0  0  0  0  0  0  0  0  0  0  0  0
   -2.1213   -1.0607    0.0000 C   0  0  0  0  0  0  0  0  0  0  0  0
   -0.9480   -1.0788    0.0000 C   0  0  0  0  0  0  0  0  0  0  0  0
   -1.1177   -1.0447    0.0000 C   0  0  0  0  0  0  0  0  0  0  0  0
   -0.0000   -1.0607    0.0000 C   0  0  0  0  0  0  0  0  0  0  0  0
    1.0607    0.0000    0.0000 C   0  0  0  0  0  0  0  0  0  0  0  0
    0.0000    1.0607    0.0000 O   0  0  0  0  0  0  0  0  0  0  0  0
   -1.0607    0.0000    0.0000 C   0  0  0  0  0  0  0  0  0  0  0  0
   -1.0607   -2.1213    0.0000 O   0  0  0  0  0  0  0  0  0  0  0  0
   -5.1213   -1.0607    0.0000 H   0  0  0  0  0  0  0  0  0  0  0  0
   -3.6213    0.4393    0.0000 H   0  0  0  0  0  0  0  0  0  0  0  0
   -3.8042   -2.5495    0.0000 H   0  0  0  0  0  0  0  0  0  0  0  0
   -3.0761   -2.9756    0.0000 H   0  0  0  0  0  0  0  0  0  0  0  0
   -1.5010   -3.9790    0.0000 H   0  0  0  0  0  0  0  0  0  0  0  0
   -0.3146   -3.9790    0.0000 H   0  0  0  0  0  0  0  0  0  0  0  0
    1.3094   -2.7991    0.0000 H   0  0  0  0  0  0  0  0  0  0  0  0
    2.1213    1.0607    0.0000 H   0  0  0  0  0  0  0  0  0  0  0  0
    2.1213   -1.0607    0.0000 H   0  0  0  0  0  0  0  0  0  0  0  0
   -2.1213    1.0607    0.0000 H   0  0  0  0  0  0  0  0  0  0  0  0
  1  2  1  0
  2  3  1  0
  3  4  1  0
  4  5  1  0
  5  6  1  0
  6  7  1  0
  7  8  1  0
  5  9  1  0
  8  2  1  0
  9  2  1  0
  8  5  1  0
  1 10  1  0
  1 11  1  0
  1 12  1  0
  3 13  1  0
  3 14  1  0
  4 15  1  0
  4 16  1  0
  6 17  1  0
  6 18  1  0
  8 19  1  0
M  END
