
     RDKit          3D

 21 23  0  0  0  0  0  0  0  0999 V2000
   -1.1353   -1.7463    0.1476 C   0  0  0  0  0  0  0  0  0  0  0  0
   -0.3852   -0.4603    0.1016 C   0  0  0  0  0  0  0  0  0  0  0  0
   -1.1174    0.7518    0.6251 C   0  0  0  0  0  0  0  0  0  0  0  0
   -0.3472    1.9443    0.1210 C   0  0  0  0  0  0  0  0  0  0  0  0
    0.4480    1.3954   -1.0675 C   0  0  0  0  0  0  0  0  0  0  0  0
    1.4188    0.3077   -0.6492 C   0  0  0  0  0  0  0  0  0  0  0  0
    1.0509   -0.5017    0.5667 C   0  0  0  0  0  0  0  0  0  0  0  0
    1.6540   -1.7534    0.5259 O   0  0  0  0  0  0  0  0  0  0  0  0
    0.0970   -0.0020   -1.2354 C   0  0  0  0  0  0  0  0  0  0  0  0
   -2.2088   -1.5708    0.3985 H   0  0  0  0  0  0  0  0  0  0  0  0
   -0.7522   -2.4783    0.8728 H   0  0  0  0  0  0  0  0  0  0  0  0
   -1.1237   -2.2053   -0.8761 H   0  0  0  0  0  0  0  0  0  0  0  0
   -1.1620    0.7151    1.7190 H   0  0  0  0  0  0  0  0  0  0  0  0
   -2.1310    0.8026    0.2198 H   0  0  0  0  0  0  0  0  0  0  0  0
    0.4195    2.1771    0.9089 H   0  0  0  0  0  0  0  0  0  0  0  0
   -0.9648    2.8004   -0.1464 H   0  0  0  0  0  0  0  0  0  0  0  0
    0.7435    2.0757   -1.8663 H   0  0  0  0  0  0  0  0  0  0  0  0
    2.3498    0.1524   -1.1829 H   0  0  0  0  0  0  0  0  0  0  0  0
    1.1543    0.0384    1.5372 H   0  0  0  0  0  0  0  0  0  0  0  0
    2.0589   -1.9044    1.4297 H   0  0  0  0  0  0  0  0  0  0  0  0
   -0.0671   -0.5384   -2.1498 H   0  0  0  0  0  0  0  0  0  0  0  0
  1  2  1  0
  2  3  1  0
  3  4  1  0
  4  5  1  0
  5  6  1  0
  6  7  1  0
  7  8  1  0
  6  9  1  0
  7  2  1  0
  9  2  1  0
  9  5  1  0
  1 10  1  0
  1 11  1  0
  1 12  1  0
  3 13  1  0
  3 14  1  0
  4 15  1  0
  4 16  1  0
  5 17  1  0
  6 18  1  0
  7 19  1  0
  8 20  1  0
  9 21  1  0
M  END
