
     RDKit          3D

 23 25  0  0  0  0  0  0  0  0999 V2000
    2.4297   -0.4285    0.1770 C   0  0  0  0  0  0  0  0  0  0  0  0
    1.0276   -0.0638    0.1187 C   0  0  0  0  0  0  0  0  0  0  0  0
    0.1673   -0.7134   -0.9804 C   0  0  0  0  0  0  0  0  0  0  0  0
   -0.9669   -0.3295   -0.0116 C   0  0  0  0  0  0  0  0  0  0  0  0
   -2.2041   -1.0748   -0.0950 C   0  0  0  0  0  0  0  0  0  0  0  0
    0.0483   -0.7128    1.0648 C   0  0  0  0  0  0  0  0  0  0  0  0
   -0.9403    1.1531   -0.1320 C   0  0  0  0  0  0  0  0  0  0  0  0
   -0.3411    2.0059    0.9206 C   0  0  0  0  0  0  0  0  0  0  0  0
    0.6112    1.3651    0.0040 C   0  0  0  0  0  0  0  0  0  0  0  0
    2.8446   -0.6456    1.1811 H   0  0  0  0  0  0  0  0  0  0  0  0
    3.0615    0.3472   -0.2840 H   0  0  0  0  0  0  0  0  0  0  0  0
    2.6209   -1.3669   -0.4218 H   0  0  0  0  0  0  0  0  0  0  0  0
    0.1363   -0.1523   -1.9161 H   0  0  0  0  0  0  0  0  0  0  0  0
    0.3939   -1.7777   -1.0128 H   0  0  0  0  0  0  0  0  0  0  0  0
   -2.4870   -1.3971   -1.1397 H   0  0  0  0  0  0  0  0  0  0  0  0
   -2.1700   -2.0005    0.5478 H   0  0  0  0  0  0  0  0  0  0  0  0
   -3.0595   -0.4656    0.2607 H   0  0  0  0  0  0  0  0  0  0  0  0
    0.1309   -1.8056    1.0995 H   0  0  0  0  0  0  0  0  0  0  0  0
   -0.0889   -0.2731    2.0391 H   0  0  0  0  0  0  0  0  0  0  0  0
   -1.3477    1.5615   -1.0583 H   0  0  0  0  0  0  0  0  0  0  0  0
   -0.5042    1.7183    1.9577 H   0  0  0  0  0  0  0  0  0  0  0  0
   -0.4560    3.1150    0.7653 H   0  0  0  0  0  0  0  0  0  0  0  0
    1.0934    1.9412   -0.7850 H   0  0  0  0  0  0  0  0  0  0  0  0
  1  2  1  0
  2  3  1  0
  3  4  1  0
  4  5  1  0
  4  6  1  0
  4  7  1  0
  7  8  1  0
  8  9  1  0
  6  2  1  0
  9  7  1  0
  9  2  1  0
  1 10  1  0
  1 11  1  0
  1 12  1  0
  3 13  1  0
  3 14  1  0
  5 15  1  0
  5 16  1  0
  5 17  1  0
  6 18  1  0
  6 19  1  0
  7 20  1  0
  8 21  1  0
  8 22  1  0
  9 23  1  0
M  END
