
     RDKit          3D

 21 22  0  0  0  0  0  0  0  0999 V2000
    0.5548   -1.4309   -0.5413 C   0  0  0  0  0  0  0  0  0  0  0  0
    0.4497   -0.5692    0.6975 C   0  0  0  0  0  0  0  0  0  0  0  0
    1.6993    0.2718    0.8431 C   0  0  0  0  0  0  0  0  0  0  0  0
    1.0642    0.9576   -0.3867 C   0  0  0  0  0  0  0  0  0  0  0  0
    1.5688    2.2286   -0.5738 O   0  0  0  0  0  0  0  0  0  0  0  0
   -0.1346    0.8931    0.5123 C   0  0  0  0  0  0  0  0  0  0  0  0
   -0.9190   -0.2042    0.9543 C   0  0  0  0  0  0  0  0  0  0  0  0
   -2.0752   -0.5990    0.0413 C   0  0  0  0  0  0  0  0  0  0  0  0
   -3.2196   -0.0588    0.6293 O   0  0  0  0  0  0  0  0  0  0  0  0
    0.2649   -2.4695   -0.1894 H   0  0  0  0  0  0  0  0  0  0  0  0
    1.5538   -1.5449   -0.9535 H   0  0  0  0  0  0  0  0  0  0  0  0
   -0.1864   -1.1928   -1.3153 H   0  0  0  0  0  0  0  0  0  0  0  0
    1.6961    0.9727    1.6777 H   0  0  0  0  0  0  0  0  0  0  0  0
    2.5961   -0.3004    0.6315 H   0  0  0  0  0  0  0  0  0  0  0  0
    1.0749    0.3973   -1.3046 H   0  0  0  0  0  0  0  0  0  0  0  0
    2.3740    2.3470   -0.0000 H   0  0  0  0  0  0  0  0  0  0  0  0
    0.1088    1.5872    1.3857 H   0  0  0  0  0  0  0  0  0  0  0  0
   -1.2246   -0.3840    2.0321 H   0  0  0  0  0  0  0  0  0  0  0  0
   -1.9909   -0.1345   -0.9580 H   0  0  0  0  0  0  0  0  0  0  0  0
   -2.1793   -1.7019   -0.0177 H   0  0  0  0  0  0  0  0  0  0  0  0
   -3.0759    0.9349    0.6268 H   0  0  0  0  0  0  0  0  0  0  0  0
  1  2  1  0
  2  3  1  0
  3  4  1  0
  4  5  1  0
  4  6  1  0
  6  7  1  0
  7  8  1  0
  8  9  1  0
  6  2  1  0
  7  2  1  0
  1 10  1  0
  1 11  1  0
  1 12  1  0
  3 13  1  0
  3 14  1  0
  4 15  1  0
  5 16  1  0
  6 17  1  0
  7 18  1  0
  8 19  1  0
  8 20  1  0
  9 21  1  0
M  END
