
     RDKit          3D

 18 19  0  0  0  0  0  0  0  0999 V2000
    2.0170    0.0948    0.2906 C   0  0  0  0  0  0  0  0  0  0  0  0
    0.5298    0.3068    0.2849 C   0  0  0  0  0  0  0  0  0  0  0  0
    0.0286    1.2753   -0.7103 C   0  0  0  0  0  0  0  0  0  0  0  0
   -1.1348    0.9239   -1.2090 C   0  0  0  0  0  0  0  0  0  0  0  0
   -1.6019   -0.3557   -0.6159 C   0  0  0  0  0  0  0  0  0  0  0  0
   -0.4494   -0.7586    0.2758 C   0  0  0  0  0  0  0  0  0  0  0  0
   -0.1454   -2.1075    0.2648 O   0  0  0  0  0  0  0  0  0  0  0  0
   -0.2779    0.0731    1.4927 C   0  0  0  0  0  0  0  0  0  0  0  0
    2.4155   -0.1025    1.3090 H   0  0  0  0  0  0  0  0  0  0  0  0
    2.3402   -0.7237   -0.3984 H   0  0  0  0  0  0  0  0  0  0  0  0
    2.5257    1.0098   -0.0817 H   0  0  0  0  0  0  0  0  0  0  0  0
    0.5764    2.1716   -0.9846 H   0  0  0  0  0  0  0  0  0  0  0  0
   -1.7061    1.4819   -1.9631 H   0  0  0  0  0  0  0  0  0  0  0  0
   -2.5346   -0.1977   -0.0087 H   0  0  0  0  0  0  0  0  0  0  0  0
   -1.7752   -1.0726   -1.4398 H   0  0  0  0  0  0  0  0  0  0  0  0
    0.0815   -2.3993   -0.6511 H   0  0  0  0  0  0  0  0  0  0  0  0
   -1.0361    0.8351    1.7752 H   0  0  0  0  0  0  0  0  0  0  0  0
    0.1465   -0.4549    2.3697 H   0  0  0  0  0  0  0  0  0  0  0  0
  1  2  1  0
  2  3  1  0
  3  4  2  0
  4  5  1  0
  5  6  1  0
  6  7  1  0
  6  8  1  0
  6  2  1  0
  8  2  1  0
  1  9  1  0
  1 10  1  0
  1 11  1  0
  3 12  1  0
  4 13  1  0
  5 14  1  0
  5 15  1  0
  7 16  1  0
  8 17  1  0
  8 18  1  0
M  END
