
     RDKit          3D

 19 20  0  0  0  0  0  0  0  0999 V2000
   -1.8258   -0.7204    0.1203 C   0  0  0  0  0  0  0  0  0  0  0  0
   -0.5085   -0.1308   -0.0532 C   0  0  0  0  0  0  0  0  0  0  0  0
   -0.4623    1.3112   -0.4862 C   0  0  0  0  0  0  0  0  0  0  0  0
    0.8079    1.7595   -0.1283 O   0  0  0  0  0  0  0  0  0  0  0  0
    1.4635    0.7320    0.5159 C   0  0  0  0  0  0  0  0  0  0  0  0
    0.2945    0.0434    1.2480 C   0  0  0  0  0  0  0  0  0  0  0  0
    1.7846   -0.3512   -0.4538 C   0  0  0  0  0  0  0  0  0  0  0  0
    2.9086   -0.6929   -0.7658 O   0  0  0  0  0  0  0  0  0  0  0  0
    0.4681   -0.8759   -0.9148 C   0  0  0  0  0  0  0  0  0  0  0  0
   -1.7733   -1.4828    0.9512 H   0  0  0  0  0  0  0  0  0  0  0  0
   -2.1550   -1.2091   -0.8154 H   0  0  0  0  0  0  0  0  0  0  0  0
   -2.5510    0.0580    0.4419 H   0  0  0  0  0  0  0  0  0  0  0  0
   -1.2596    1.9213   -0.0351 H   0  0  0  0  0  0  0  0  0  0  0  0
   -0.6060    1.3212   -1.5922 H   0  0  0  0  0  0  0  0  0  0  0  0
    2.2599    1.0189    1.1714 H   0  0  0  0  0  0  0  0  0  0  0  0
   -0.2041    0.7201    1.9428 H   0  0  0  0  0  0  0  0  0  0  0  0
    0.6367   -0.9027    1.6524 H   0  0  0  0  0  0  0  0  0  0  0  0
    0.3359   -0.5488   -1.9672 H   0  0  0  0  0  0  0  0  0  0  0  0
    0.3860   -1.9709   -0.8321 H   0  0  0  0  0  0  0  0  0  0  0  0
  1  2  1  0
  2  3  1  0
  3  4  1  0
  4  5  1  0
  5  6  1  0
  5  7  1  0
  7  8  2  0
  7  9  1  0
  6  2  1  0
  9  2  1  0
  1 10  1  0
  1 11  1  0
  1 12  1  0
  3 13  1  0
  3 14  1  0
  5 15  1  0
  6 16  1  0
  6 17  1  0
  9 18  1  0
  9 19  1  0
M  END
