
     RDKit          3D

 19 20  0  0  0  0  0  0  0  0999 V2000
   -1.6978   -1.4095    0.0759 C   0  0  0  0  0  0  0  0  0  0  0  0
   -0.8436   -0.2081    0.0819 C   0  0  0  0  0  0  0  0  0  0  0  0
   -1.4174    1.0433   -0.6053 C   0  0  0  0  0  0  0  0  0  0  0  0
   -0.2934    1.4694   -1.3146 O   0  0  0  0  0  0  0  0  0  0  0  0
    0.7187    1.4319   -0.3335 C   0  0  0  0  0  0  0  0  0  0  0  0
    0.4688    0.0474    0.2590 C   0  0  0  0  0  0  0  0  0  0  0  0
    1.6830   -0.7400    0.5258 C   0  0  0  0  0  0  0  0  0  0  0  0
    2.5486   -0.8207   -0.5454 O   0  0  0  0  0  0  0  0  0  0  0  0
   -0.3889    0.0735    1.4620 O   0  0  0  0  0  0  0  0  0  0  0  0
   -2.7630   -1.0789    0.2586 H   0  0  0  0  0  0  0  0  0  0  0  0
   -1.4781   -2.1405    0.8590 H   0  0  0  0  0  0  0  0  0  0  0  0
   -1.7428   -1.8999   -0.9373 H   0  0  0  0  0  0  0  0  0  0  0  0
   -1.7292    1.7875    0.1379 H   0  0  0  0  0  0  0  0  0  0  0  0
   -2.2497    0.7795   -1.2842 H   0  0  0  0  0  0  0  0  0  0  0  0
    1.7244    1.4936   -0.7677 H   0  0  0  0  0  0  0  0  0  0  0  0
    0.4830    2.2170    0.3937 H   0  0  0  0  0  0  0  0  0  0  0  0
    1.5024   -1.7603    0.9246 H   0  0  0  0  0  0  0  0  0  0  0  0
    2.2592   -0.2184    1.3489 H   0  0  0  0  0  0  0  0  0  0  0  0
    3.2158   -0.0668   -0.5393 H   0  0  0  0  0  0  0  0  0  0  0  0
  1  2  1  0
  2  3  1  0
  3  4  1  0
  4  5  1  0
  5  6  1  0
  6  7  1  0
  7  8  1  0
  6  9  1  0
  6  2  1  0
  9  2  1  0
  1 10  1  0
  1 11  1  0
  1 12  1  0
  3 13  1  0
  3 14  1  0
  5 15  1  0
  5 16  1  0
  7 17  1  0
  7 18  1  0
  8 19  1  0
M  END
