
     RDKit          3D

 17 18  0  0  0  0  0  0  0  0999 V2000
   -1.7143    0.3867   -0.5287 C   0  0  0  0  0  0  0  0  0  0  0  0
   -0.4495   -0.1163   -0.3552 C   0  0  0  0  0  0  0  0  0  0  0  0
    0.1104   -1.1962   -1.0700 O   0  0  0  0  0  0  0  0  0  0  0  0
    1.1380   -0.8748   -0.1969 C   0  0  0  0  0  0  0  0  0  0  0  0
    0.1042   -0.7748    0.8772 C   0  0  0  0  0  0  0  0  0  0  0  0
   -0.5124   -1.9672    1.2126 O   0  0  0  0  0  0  0  0  0  0  0  0
    0.8640    0.5572   -0.5233 C   0  0  0  0  0  0  0  0  0  0  0  0
    1.1890    1.5617    0.4839 C   0  0  0  0  0  0  0  0  0  0  0  0
    0.6713    2.6575    0.4458 O   0  0  0  0  0  0  0  0  0  0  0  0
   -1.7619    1.4925   -0.7572 H   0  0  0  0  0  0  0  0  0  0  0  0
   -2.4030    0.2657    0.3595 H   0  0  0  0  0  0  0  0  0  0  0  0
   -2.3029   -0.0783   -1.3732 H   0  0  0  0  0  0  0  0  0  0  0  0
    2.0403   -1.3253   -0.1361 H   0  0  0  0  0  0  0  0  0  0  0  0
    0.3526   -0.1252    1.7219 H   0  0  0  0  0  0  0  0  0  0  0  0
   -0.3476   -2.6750    0.5311 H   0  0  0  0  0  0  0  0  0  0  0  0
    1.1306    0.8759   -1.5460 H   0  0  0  0  0  0  0  0  0  0  0  0
    1.8914    1.3361    1.2682 H   0  0  0  0  0  0  0  0  0  0  0  0
  1  2  1  0
  2  3  1  0
  3  4  1  0
  4  5  1  0
  5  6  1  0
  4  7  1  0
  7  8  1  0
  8  9  2  0
  5  2  1  0
  7  2  1  0
  1 10  1  0
  1 11  1  0
  1 12  1  0
  4 13  1  0
  5 14  1  0
  6 15  1  0
  7 16  1  0
  8 17  1  0
M  END
