
     RDKit          3D

 23 25  0  0  0  0  0  0  0  0999 V2000
    1.9471   -1.3473   -0.6443 C   0  0  0  0  0  0  0  0  0  0  0  0
    0.7950   -0.5421   -0.1505 C   0  0  0  0  0  0  0  0  0  0  0  0
    0.2627    0.6062   -0.9245 C   0  0  0  0  0  0  0  0  0  0  0  0
   -1.2253    0.5970   -1.1018 C   0  0  0  0  0  0  0  0  0  0  0  0
   -1.9474    0.3788    0.1771 C   0  0  0  0  0  0  0  0  0  0  0  0
   -1.4068   -0.6806    1.0546 C   0  0  0  0  0  0  0  0  0  0  0  0
    0.0791   -0.7923    1.0892 C   0  0  0  0  0  0  0  0  0  0  0  0
    0.9735    0.3871    1.0427 C   0  0  0  0  0  0  0  0  0  0  0  0
    0.7216    1.5471    0.1430 C   0  0  0  0  0  0  0  0  0  0  0  0
    1.5798   -2.3861   -0.8723 H   0  0  0  0  0  0  0  0  0  0  0  0
    2.7959   -1.4232    0.0360 H   0  0  0  0  0  0  0  0  0  0  0  0
    2.2970   -0.8637   -1.6047 H   0  0  0  0  0  0  0  0  0  0  0  0
    0.7622    0.6972   -1.9104 H   0  0  0  0  0  0  0  0  0  0  0  0
   -1.4849   -0.1245   -1.9050 H   0  0  0  0  0  0  0  0  0  0  0  0
   -1.5080    1.6141   -1.4956 H   0  0  0  0  0  0  0  0  0  0  0  0
   -2.0499    1.3431    0.7380 H   0  0  0  0  0  0  0  0  0  0  0  0
   -3.0102    0.1002   -0.0821 H   0  0  0  0  0  0  0  0  0  0  0  0
   -1.8191   -1.6798    0.7580 H   0  0  0  0  0  0  0  0  0  0  0  0
   -1.7704   -0.5034    2.0938 H   0  0  0  0  0  0  0  0  0  0  0  0
    0.4432   -1.6128    1.7577 H   0  0  0  0  0  0  0  0  0  0  0  0
    1.9601    0.3527    1.5539 H   0  0  0  0  0  0  0  0  0  0  0  0
   -0.0550    2.2624    0.4554 H   0  0  0  0  0  0  0  0  0  0  0  0
    1.6595    2.0700   -0.2084 H   0  0  0  0  0  0  0  0  0  0  0  0
  1  2  1  0
  2  3  1  0
  3  4  1  0
  4  5  1  0
  5  6  1  0
  6  7  1  0
  7  8  1  0
  8  9  1  0
  7  2  1  0
  8  2  1  0
  9  3  1  0
  1 10  1  0
  1 11  1  0
  1 12  1  0
  3 13  1  0
  4 14  1  0
  4 15  1  0
  5 16  1  0
  5 17  1  0
  6 18  1  0
  6 19  1  0
  7 20  1  0
  8 21  1  0
  9 22  1  0
  9 23  1  0
M  END
