
     RDKit          3D

 21 22  0  0  0  0  0  0  0  0999 V2000
    2.5087    0.0967   -0.2480 C   0  0  0  0  0  0  0  0  0  0  0  0
    1.0426   -0.1238    0.0702 C   0  0  0  0  0  0  0  0  0  0  0  0
    0.2399    1.1220    0.1745 C   0  0  0  0  0  0  0  0  0  0  0  0
   -1.1689    0.7431    0.5703 C   0  0  0  0  0  0  0  0  0  0  0  0
   -1.9779    1.8318    0.8154 O   0  0  0  0  0  0  0  0  0  0  0  0
   -1.6871   -0.1054   -0.5831 C   0  0  0  0  0  0  0  0  0  0  0  0
   -1.0343   -1.4570   -0.4255 C   0  0  0  0  0  0  0  0  0  0  0  0
    0.4284   -1.3282   -0.2050 C   0  0  0  0  0  0  0  0  0  0  0  0
    0.8148   -1.0276    1.1751 O   0  0  0  0  0  0  0  0  0  0  0  0
    2.9630   -0.7753   -0.7476 H   0  0  0  0  0  0  0  0  0  0  0  0
    3.0144    0.3670    0.6976 H   0  0  0  0  0  0  0  0  0  0  0  0
    2.5650    0.9819   -0.9209 H   0  0  0  0  0  0  0  0  0  0  0  0
    0.1764    1.6305   -0.8289 H   0  0  0  0  0  0  0  0  0  0  0  0
    0.6604    1.8060    0.9323 H   0  0  0  0  0  0  0  0  0  0  0  0
   -1.0661    0.0816    1.4789 H   0  0  0  0  0  0  0  0  0  0  0  0
   -1.6483    2.2718    1.6295 H   0  0  0  0  0  0  0  0  0  0  0  0
   -2.7736   -0.1448   -0.6261 H   0  0  0  0  0  0  0  0  0  0  0  0
   -1.3057    0.3144   -1.5600 H   0  0  0  0  0  0  0  0  0  0  0  0
   -1.5389   -1.9523    0.4492 H   0  0  0  0  0  0  0  0  0  0  0  0
   -1.2338   -2.1250   -1.2892 H   0  0  0  0  0  0  0  0  0  0  0  0
    1.0211   -2.2075   -0.5588 H   0  0  0  0  0  0  0  0  0  0  0  0
  1  2  1  0
  2  3  1  0
  3  4  1  0
  4  5  1  0
  4  6  1  0
  6  7  1  0
  7  8  1  0
  8  9  1  0
  8  2  1  0
  9  2  1  0
  1 10  1  0
  1 11  1  0
  1 12  1  0
  3 13  1  0
  3 14  1  0
  4 15  1  0
  5 16  1  0
  6 17  1  0
  6 18  1  0
  7 19  1  0
  7 20  1  0
  8 21  1  0
M  END
