
     RDKit          3D

 19 21  0  0  0  0  0  0  0  0999 V2000
    2.3448   -0.1196    0.0119 C   0  0  0  0  0  0  0  0  0  0  0  0
    0.8605   -0.0916    0.1994 C   0  0  0  0  0  0  0  0  0  0  0  0
    0.1905    0.6114   -0.9820 C   0  0  0  0  0  0  0  0  0  0  0  0
   -1.1732    0.9027   -0.4130 C   0  0  0  0  0  0  0  0  0  0  0  0
   -1.6867   -0.1729    0.4722 C   0  0  0  0  0  0  0  0  0  0  0  0
   -0.9575   -1.4388    0.1645 C   0  0  0  0  0  0  0  0  0  0  0  0
    0.4006   -1.3842    0.3636 O   0  0  0  0  0  0  0  0  0  0  0  0
   -0.9080    0.9103    1.0557 C   0  0  0  0  0  0  0  0  0  0  0  0
    0.4353    0.6651    1.2579 O   0  0  0  0  0  0  0  0  0  0  0  0
    2.5450   -0.7643   -0.8872 H   0  0  0  0  0  0  0  0  0  0  0  0
    2.7856    0.8631   -0.2272 H   0  0  0  0  0  0  0  0  0  0  0  0
    2.8132   -0.6360    0.8599 H   0  0  0  0  0  0  0  0  0  0  0  0
    0.7626    1.5589   -1.1401 H   0  0  0  0  0  0  0  0  0  0  0  0
    0.1890    0.0140   -1.8875 H   0  0  0  0  0  0  0  0  0  0  0  0
   -1.8641    1.5857   -0.8956 H   0  0  0  0  0  0  0  0  0  0  0  0
   -2.7645   -0.2397    0.6541 H   0  0  0  0  0  0  0  0  0  0  0  0
   -1.1255   -1.6517   -0.9319 H   0  0  0  0  0  0  0  0  0  0  0  0
   -1.4319   -2.3005    0.6883 H   0  0  0  0  0  0  0  0  0  0  0  0
   -1.4155    1.6882    1.6371 H   0  0  0  0  0  0  0  0  0  0  0  0
  1  2  1  0
  2  3  1  0
  3  4  1  0
  4  5  1  0
  5  6  1  0
  6  7  1  0
  5  8  1  0
  8  9  1  0
  7  2  1  0
  9  2  1  0
  8  4  1  0
  1 10  1  0
  1 11  1  0
  1 12  1  0
  3 13  1  0
  3 14  1  0
  4 15  1  0
  5 16  1  0
  6 17  1  0
  6 18  1  0
  8 19  1  0
M  END
