
     RDKit          3D

 19 21  0  0  0  0  0  0  0  0999 V2000
    2.1757   -0.1320    0.2058 C   0  0  0  0  0  0  0  0  0  0  0  0
    0.7524   -0.0091   -0.1143 C   0  0  0  0  0  0  0  0  0  0  0  0
   -0.1171    0.4144    1.0814 C   0  0  0  0  0  0  0  0  0  0  0  0
   -1.4208    0.3888    0.2672 C   0  0  0  0  0  0  0  0  0  0  0  0
   -0.9229    1.2709   -0.8842 C   0  0  0  0  0  0  0  0  0  0  0  0
    0.4122    0.9333   -1.0558 O   0  0  0  0  0  0  0  0  0  0  0  0
   -1.4318   -1.0095   -0.2225 C   0  0  0  0  0  0  0  0  0  0  0  0
   -0.8727   -1.3329   -1.4561 O   0  0  0  0  0  0  0  0  0  0  0  0
    0.0560   -1.3174   -0.4519 C   0  0  0  0  0  0  0  0  0  0  0  0
    2.5495   -1.1251   -0.1756 H   0  0  0  0  0  0  0  0  0  0  0  0
    2.4635   -0.0555    1.2555 H   0  0  0  0  0  0  0  0  0  0  0  0
    2.7512    0.6213   -0.4018 H   0  0  0  0  0  0  0  0  0  0  0  0
   -0.1062   -0.3106    1.8798 H   0  0  0  0  0  0  0  0  0  0  0  0
    0.1126    1.4423    1.3258 H   0  0  0  0  0  0  0  0  0  0  0  0
   -2.2712    0.7637    0.7828 H   0  0  0  0  0  0  0  0  0  0  0  0
   -0.9489    2.3161   -0.4661 H   0  0  0  0  0  0  0  0  0  0  0  0
   -1.5349    1.1790   -1.7776 H   0  0  0  0  0  0  0  0  0  0  0  0
   -2.0744   -1.7882    0.1908 H   0  0  0  0  0  0  0  0  0  0  0  0
    0.4278   -2.2495    0.0170 H   0  0  0  0  0  0  0  0  0  0  0  0
  1  2  1  0
  2  3  1  0
  3  4  1  0
  4  5  1  0
  5  6  1  0
  4  7  1  0
  7  8  1  0
  8  9  1  0
  6  2  1  0
  9  7  1  0
  9  2  1  0
  1 10  1  0
  1 11  1  0
  1 12  1  0
  3 13  1  0
  3 14  1  0
  4 15  1  0
  5 16  1  0
  5 17  1  0
  7 18  1  0
  9 19  1  0
M  END
