
     RDKit          3D

 19 20  0  0  0  0  0  0  0  0999 V2000
   -1.6231   -1.2144   -0.3754 C   0  0  0  0  0  0  0  0  0  0  0  0
   -0.8128   -0.0448    0.0520 C   0  0  0  0  0  0  0  0  0  0  0  0
   -0.9746    0.6046    1.3775 C   0  0  0  0  0  0  0  0  0  0  0  0
    0.2638   -0.1458    1.0621 C   0  0  0  0  0  0  0  0  0  0  0  0
    1.2385    0.4100    0.0594 C   0  0  0  0  0  0  0  0  0  0  0  0
    2.2168   -0.5936   -0.4190 C   0  0  0  0  0  0  0  0  0  0  0  0
    1.8749   -1.7530   -0.4943 O   0  0  0  0  0  0  0  0  0  0  0  0
    0.1028    0.6600   -0.9095 C   0  0  0  0  0  0  0  0  0  0  0  0
   -0.2743    2.0076   -1.0072 O   0  0  0  0  0  0  0  0  0  0  0  0
   -1.0144   -2.0496   -0.7955 H   0  0  0  0  0  0  0  0  0  0  0  0
   -2.3742   -0.8794   -1.1141 H   0  0  0  0  0  0  0  0  0  0  0  0
   -2.1241   -1.6355    0.5243 H   0  0  0  0  0  0  0  0  0  0  0  0
   -1.6942    0.1492    2.0564 H   0  0  0  0  0  0  0  0  0  0  0  0
   -0.9525    1.7303    1.3820 H   0  0  0  0  0  0  0  0  0  0  0  0
    0.5095   -1.0944    1.5757 H   0  0  0  0  0  0  0  0  0  0  0  0
    1.7300    1.3144    0.4561 H   0  0  0  0  0  0  0  0  0  0  0  0
    3.2001   -0.2992   -0.6907 H   0  0  0  0  0  0  0  0  0  0  0  0
    0.2309    0.2092   -1.8973 H   0  0  0  0  0  0  0  0  0  0  0  0
    0.4770    2.6242   -0.8423 H   0  0  0  0  0  0  0  0  0  0  0  0
  1  2  1  0
  2  3  1  0
  3  4  1  0
  4  5  1  0
  5  6  1  0
  6  7  2  0
  5  8  1  0
  8  9  1  0
  4  2  1  0
  8  2  1  0
  1 10  1  0
  1 11  1  0
  1 12  1  0
  3 13  1  0
  3 14  1  0
  4 15  1  0
  5 16  1  0
  6 17  1  0
  8 18  1  0
  9 19  1  0
M  END
