
     RDKit          3D

 21 23  0  0  0  0  0  0  0  0999 V2000
    2.0975   -1.1087    0.3938 C   0  0  0  0  0  0  0  0  0  0  0  0
    0.8805   -0.2120    0.4072 C   0  0  0  0  0  0  0  0  0  0  0  0
    1.1037    1.1737    0.8359 C   0  0  0  0  0  0  0  0  0  0  0  0
    0.6588    0.8352   -0.5801 C   0  0  0  0  0  0  0  0  0  0  0  0
   -0.8397    1.0132   -0.7685 C   0  0  0  0  0  0  0  0  0  0  0  0
   -1.4567   -0.2341   -0.2447 C   0  0  0  0  0  0  0  0  0  0  0  0
   -2.1378   -0.1831    1.0727 C   0  0  0  0  0  0  0  0  0  0  0  0
   -1.0203   -0.6133    1.7720 O   0  0  0  0  0  0  0  0  0  0  0  0
   -0.4142   -0.9227    0.5861 C   0  0  0  0  0  0  0  0  0  0  0  0
    1.9371   -1.8460    1.2368 H   0  0  0  0  0  0  0  0  0  0  0  0
    2.2162   -1.6822   -0.5273 H   0  0  0  0  0  0  0  0  0  0  0  0
    3.0272   -0.5563    0.6991 H   0  0  0  0  0  0  0  0  0  0  0  0
    2.1452    1.5294    0.9071 H   0  0  0  0  0  0  0  0  0  0  0  0
    0.4135    1.7287    1.4989 H   0  0  0  0  0  0  0  0  0  0  0  0
    1.3299    1.0565   -1.4236 H   0  0  0  0  0  0  0  0  0  0  0  0
   -1.1883    1.9260   -0.2004 H   0  0  0  0  0  0  0  0  0  0  0  0
   -1.0540    1.1272   -1.8372 H   0  0  0  0  0  0  0  0  0  0  0  0
   -1.9540   -0.8448   -1.0198 H   0  0  0  0  0  0  0  0  0  0  0  0
   -2.9213   -0.9902    1.1303 H   0  0  0  0  0  0  0  0  0  0  0  0
   -2.4627    0.7965    1.4536 H   0  0  0  0  0  0  0  0  0  0  0  0
   -0.3604   -1.9930    0.3130 H   0  0  0  0  0  0  0  0  0  0  0  0
  1  2  1  0
  2  3  1  0
  3  4  1  0
  4  5  1  0
  5  6  1  0
  6  7  1  0
  7  8  1  0
  8  9  1  0
  4  2  1  0
  9  6  1  0
  9  2  1  0
  1 10  1  0
  1 11  1  0
  1 12  1  0
  3 13  1  0
  3 14  1  0
  4 15  1  0
  5 16  1  0
  5 17  1  0
  6 18  1  0
  7 19  1  0
  7 20  1  0
  9 21  1  0
M  END
