
     RDKit          3D

 21 22  0  0  0  0  0  0  0  0999 V2000
   -0.6555    1.6861   -0.6046 C   0  0  0  0  0  0  0  0  0  0  0  0
   -0.4958    0.3386   -0.1712 C   0  0  0  0  0  0  0  0  0  0  0  0
   -1.2772   -0.1586    1.0576 C   0  0  0  0  0  0  0  0  0  0  0  0
   -1.0193   -1.4929    0.4440 C   0  0  0  0  0  0  0  0  0  0  0  0
    0.4821   -1.5457    0.4305 C   0  0  0  0  0  0  0  0  0  0  0  0
    0.8096   -0.3090   -0.0153 C   0  0  0  0  0  0  0  0  0  0  0  0
    2.1999    0.1411   -0.2441 C   0  0  0  0  0  0  0  0  0  0  0  0
    2.4802    1.2601    0.5765 O   0  0  0  0  0  0  0  0  0  0  0  0
   -1.2575   -0.7850   -0.8998 C   0  0  0  0  0  0  0  0  0  0  0  0
   -1.5396    2.1930   -0.1169 H   0  0  0  0  0  0  0  0  0  0  0  0
   -0.8766    1.7407   -1.7097 H   0  0  0  0  0  0  0  0  0  0  0  0
    0.2478    2.3003   -0.4530 H   0  0  0  0  0  0  0  0  0  0  0  0
   -2.3236    0.1326    0.9683 H   0  0  0  0  0  0  0  0  0  0  0  0
   -0.7687    0.0804    1.9999 H   0  0  0  0  0  0  0  0  0  0  0  0
   -1.5751   -2.3467    0.6726 H   0  0  0  0  0  0  0  0  0  0  0  0
    1.1419   -2.3575    0.7043 H   0  0  0  0  0  0  0  0  0  0  0  0
    2.9506   -0.6192    0.0513 H   0  0  0  0  0  0  0  0  0  0  0  0
    2.4046    0.3899   -1.3097 H   0  0  0  0  0  0  0  0  0  0  0  0
    1.9992    1.0843    1.4235 H   0  0  0  0  0  0  0  0  0  0  0  0
   -0.6299   -1.1853   -1.6927 H   0  0  0  0  0  0  0  0  0  0  0  0
   -2.2971   -0.5472   -1.1113 H   0  0  0  0  0  0  0  0  0  0  0  0
  1  2  1  0
  2  3  1  0
  3  4  1  0
  4  5  1  0
  5  6  2  0
  6  7  1  0
  7  8  1  0
  4  9  1  0
  6  2  1  0
  9  2  1  0
  1 10  1  0
  1 11  1  0
  1 12  1  0
  3 13  1  0
  3 14  1  0
  4 15  1  0
  5 16  1  0
  7 17  1  0
  7 18  1  0
  8 19  1  0
  9 20  1  0
  9 21  1  0
M  END
