
     RDKit          3D

 21 23  0  0  0  0  0  0  0  0999 V2000
   -1.7479    0.3559   -1.8128 C   0  0  0  0  0  0  0  0  0  0  0  0
   -1.0308   -0.1637   -0.5898 C   0  0  0  0  0  0  0  0  0  0  0  0
   -1.6379   -0.2066    0.7326 C   0  0  0  0  0  0  0  0  0  0  0  0
   -0.7314    0.8864    0.4224 C   0  0  0  0  0  0  0  0  0  0  0  0
    0.7345    0.8750    0.6147 C   0  0  0  0  0  0  0  0  0  0  0  0
    1.2866   -0.3937    0.0431 C   0  0  0  0  0  0  0  0  0  0  0  0
    2.6615   -0.4995   -0.4774 C   0  0  0  0  0  0  0  0  0  0  0  0
    2.1783   -1.1629    0.7339 O   0  0  0  0  0  0  0  0  0  0  0  0
    0.2024   -0.9900   -0.7992 C   0  0  0  0  0  0  0  0  0  0  0  0
   -1.5486   -0.2832   -2.7012 H   0  0  0  0  0  0  0  0  0  0  0  0
   -1.2470    1.3395   -2.0565 H   0  0  0  0  0  0  0  0  0  0  0  0
   -2.7996    0.5882   -1.6499 H   0  0  0  0  0  0  0  0  0  0  0  0
   -2.7102    0.0254    0.8797 H   0  0  0  0  0  0  0  0  0  0  0  0
   -1.3027   -1.0275    1.4285 H   0  0  0  0  0  0  0  0  0  0  0  0
   -1.1812    1.9071    0.3287 H   0  0  0  0  0  0  0  0  0  0  0  0
    1.0280    1.0753    1.6531 H   0  0  0  0  0  0  0  0  0  0  0  0
    1.1665    1.7174   -0.0028 H   0  0  0  0  0  0  0  0  0  0  0  0
    3.3853    0.3010   -0.3158 H   0  0  0  0  0  0  0  0  0  0  0  0
    2.8310   -1.2127   -1.3287 H   0  0  0  0  0  0  0  0  0  0  0  0
    0.4786   -1.1245   -1.8612 H   0  0  0  0  0  0  0  0  0  0  0  0
   -0.0155   -2.0069   -0.3766 H   0  0  0  0  0  0  0  0  0  0  0  0
  1  2  1  0
  2  3  1  0
  3  4  1  0
  4  5  1  0
  5  6  1  0
  6  7  1  0
  7  8  1  0
  6  9  1  0
  4  2  1  0
  8  6  1  0
  9  2  1  0
  1 10  1  0
  1 11  1  0
  1 12  1  0
  3 13  1  0
  3 14  1  0
  4 15  1  0
  5 16  1  0
  5 17  1  0
  7 18  1  0
  7 19  1  0
  9 20  1  0
  9 21  1  0
M  END
