
     RDKit          3D

 19 20  0  0  0  0  0  0  0  0999 V2000
   -1.7085    0.7280    0.3487 C   0  0  0  0  0  0  0  0  0  0  0  0
   -0.9417   -0.5903    0.1662 C   0  0  0  0  0  0  0  0  0  0  0  0
   -0.1391   -0.8448    1.3182 C   0  0  0  0  0  0  0  0  0  0  0  0
    0.9793   -0.1379    1.2186 C   0  0  0  0  0  0  0  0  0  0  0  0
    0.8432    0.6024   -0.1157 C   0  0  0  0  0  0  0  0  0  0  0  0
    2.2182    0.9052   -0.5897 C   0  0  0  0  0  0  0  0  0  0  0  0
    2.7270    2.0111   -0.5332 O   0  0  0  0  0  0  0  0  0  0  0  0
    0.2487   -0.5431   -0.8548 C   0  0  0  0  0  0  0  0  0  0  0  0
   -1.0187   -1.0523   -1.1575 C   0  0  0  0  0  0  0  0  0  0  0  0
   -1.5251    1.2358    1.2908 H   0  0  0  0  0  0  0  0  0  0  0  0
   -2.7891    0.3887    0.3995 H   0  0  0  0  0  0  0  0  0  0  0  0
   -1.6662    1.3557   -0.5483 H   0  0  0  0  0  0  0  0  0  0  0  0
   -0.3054   -1.4899    2.2007 H   0  0  0  0  0  0  0  0  0  0  0  0
    1.8275   -0.0615    1.8919 H   0  0  0  0  0  0  0  0  0  0  0  0
    0.3031    1.5205   -0.0434 H   0  0  0  0  0  0  0  0  0  0  0  0
    2.7730    0.0476   -1.0095 H   0  0  0  0  0  0  0  0  0  0  0  0
    1.0143   -1.3857   -0.7678 H   0  0  0  0  0  0  0  0  0  0  0  0
   -1.6132   -0.5288   -1.9477 H   0  0  0  0  0  0  0  0  0  0  0  0
   -1.2273   -2.1607   -1.2670 H   0  0  0  0  0  0  0  0  0  0  0  0
  1  2  1  0
  2  3  1  0
  3  4  2  0
  4  5  1  0
  5  6  1  0
  6  7  2  0
  5  8  1  0
  8  9  1  0
  8  2  1  0
  9  2  1  0
  1 10  1  0
  1 11  1  0
  1 12  1  0
  3 13  1  0
  4 14  1  0
  5 15  1  0
  6 16  1  0
  8 17  1  0
  9 18  1  0
  9 19  1  0
M  END
