
     RDKit          3D

 19 21  0  0  0  0  0  0  0  0999 V2000
   -1.8851   -0.6936   -0.5771 C   0  0  0  0  0  0  0  0  0  0  0  0
   -0.6777    0.1408   -0.3680 C   0  0  0  0  0  0  0  0  0  0  0  0
   -0.7576    1.5855    0.0035 C   0  0  0  0  0  0  0  0  0  0  0  0
   -0.5076    0.6242    1.0917 C   0  0  0  0  0  0  0  0  0  0  0  0
    0.7148   -0.2302    1.1603 C   0  0  0  0  0  0  0  0  0  0  0  0
    1.8547    0.3616    1.6560 O   0  0  0  0  0  0  0  0  0  0  0  0
    0.6942   -0.4284   -0.3020 C   0  0  0  0  0  0  0  0  0  0  0  0
    1.7338   -0.3352   -1.2316 C   0  0  0  0  0  0  0  0  0  0  0  0
    1.0802   -1.5568   -0.9359 O   0  0  0  0  0  0  0  0  0  0  0  0
   -2.1633   -1.3105    0.3105 H   0  0  0  0  0  0  0  0  0  0  0  0
   -1.8728   -1.3584   -1.4377 H   0  0  0  0  0  0  0  0  0  0  0  0
   -2.7591    0.0051   -0.7163 H   0  0  0  0  0  0  0  0  0  0  0  0
    0.0815    2.2001   -0.4349 H   0  0  0  0  0  0  0  0  0  0  0  0
   -1.7135    2.0978    0.0004 H   0  0  0  0  0  0  0  0  0  0  0  0
   -1.3089    0.4213    1.8003 H   0  0  0  0  0  0  0  0  0  0  0  0
    0.5161   -1.1987    1.7002 H   0  0  0  0  0  0  0  0  0  0  0  0
    2.6218   -0.2050    1.4386 H   0  0  0  0  0  0  0  0  0  0  0  0
    2.7903   -0.2249   -0.9140 H   0  0  0  0  0  0  0  0  0  0  0  0
    1.5582    0.1052   -2.2439 H   0  0  0  0  0  0  0  0  0  0  0  0
  1  2  1  0
  2  3  1  0
  3  4  1  0
  4  5  1  0
  5  6  1  0
  5  7  1  0
  7  8  1  0
  8  9  1  0
  4  2  1  0
  9  7  1  0
  7  2  1  0
  1 10  1  0
  1 11  1  0
  1 12  1  0
  3 13  1  0
  3 14  1  0
  4 15  1  0
  5 16  1  0
  6 17  1  0
  8 18  1  0
  8 19  1  0
M  END
