
     RDKit          3D

 23 25  0  0  0  0  0  0  0  0999 V2000
    2.1751    0.4174    0.5096 C   0  0  0  0  0  0  0  0  0  0  0  0
    0.8098    0.0555    0.1396 C   0  0  0  0  0  0  0  0  0  0  0  0
    0.5649   -1.3501   -0.3881 C   0  0  0  0  0  0  0  0  0  0  0  0
   -0.9553   -1.2070   -0.5676 C   0  0  0  0  0  0  0  0  0  0  0  0
   -1.0142    0.0025   -1.4621 C   0  0  0  0  0  0  0  0  0  0  0  0
    0.0491    0.9014   -0.8187 C   0  0  0  0  0  0  0  0  0  0  0  0
   -0.6043    1.5784    0.3906 C   0  0  0  0  0  0  0  0  0  0  0  0
   -0.2971    0.2714    1.1381 C   0  0  0  0  0  0  0  0  0  0  0  0
   -1.3330   -0.7825    0.8273 C   0  0  0  0  0  0  0  0  0  0  0  0
    2.1684    1.2970    1.1769 H   0  0  0  0  0  0  0  0  0  0  0  0
    2.7941    0.5646   -0.3996 H   0  0  0  0  0  0  0  0  0  0  0  0
    2.6459   -0.4060    1.0748 H   0  0  0  0  0  0  0  0  0  0  0  0
    0.7908   -2.0993    0.3715 H   0  0  0  0  0  0  0  0  0  0  0  0
    1.0741   -1.4829   -1.3464 H   0  0  0  0  0  0  0  0  0  0  0  0
   -1.4307   -2.0927   -0.9370 H   0  0  0  0  0  0  0  0  0  0  0  0
   -2.0076    0.4799   -1.3629 H   0  0  0  0  0  0  0  0  0  0  0  0
   -0.8037   -0.2073   -2.5094 H   0  0  0  0  0  0  0  0  0  0  0  0
    0.5835    1.5539   -1.4930 H   0  0  0  0  0  0  0  0  0  0  0  0
   -1.6834    1.7384    0.3010 H   0  0  0  0  0  0  0  0  0  0  0  0
    0.0139    2.4212    0.7191 H   0  0  0  0  0  0  0  0  0  0  0  0
   -0.0195    0.4089    2.1772 H   0  0  0  0  0  0  0  0  0  0  0  0
   -2.3612   -0.4415    0.9225 H   0  0  0  0  0  0  0  0  0  0  0  0
   -1.1595   -1.6216    1.5370 H   0  0  0  0  0  0  0  0  0  0  0  0
  1  2  1  0
  2  3  1  0
  3  4  1  0
  4  5  1  0
  5  6  1  0
  6  7  1  0
  7  8  1  0
  8  9  1  0
  6  2  1  0
  8  2  1  0
  9  4  1  0
  1 10  1  0
  1 11  1  0
  1 12  1  0
  3 13  1  0
  3 14  1  0
  4 15  1  0
  5 16  1  0
  5 17  1  0
  6 18  1  0
  7 19  1  0
  7 20  1  0
  8 21  1  0
  9 22  1  0
  9 23  1  0
M  END
