
     RDKit          3D

 23 24  0  0  0  0  0  0  0  0999 V2000
    2.4610   -0.0037   -0.4487 C   0  0  0  0  0  0  0  0  0  0  0  0
    1.0701    0.1018    0.0231 C   0  0  0  0  0  0  0  0  0  0  0  0
    0.5669    1.4856    0.2823 C   0  0  0  0  0  0  0  0  0  0  0  0
   -0.9309    1.1944    0.4727 C   0  0  0  0  0  0  0  0  0  0  0  0
   -1.0230   -0.2024   -0.0965 C   0  0  0  0  0  0  0  0  0  0  0  0
   -2.2861   -0.5162   -0.7731 C   0  0  0  0  0  0  0  0  0  0  0  0
   -0.6305   -1.1916    0.9924 C   0  0  0  0  0  0  0  0  0  0  0  0
    0.8043   -0.7239    1.2572 C   0  0  0  0  0  0  0  0  0  0  0  0
    0.1170   -0.3382   -0.9274 O   0  0  0  0  0  0  0  0  0  0  0  0
    2.5939   -1.0179   -0.9228 H   0  0  0  0  0  0  0  0  0  0  0  0
    2.6743    0.7238   -1.2396 H   0  0  0  0  0  0  0  0  0  0  0  0
    3.1495    0.0209    0.4012 H   0  0  0  0  0  0  0  0  0  0  0  0
    0.9457    1.8467    1.2547 H   0  0  0  0  0  0  0  0  0  0  0  0
    0.7320    2.1870   -0.5510 H   0  0  0  0  0  0  0  0  0  0  0  0
   -1.1611    1.1008    1.5736 H   0  0  0  0  0  0  0  0  0  0  0  0
   -1.5575    1.9204   -0.0366 H   0  0  0  0  0  0  0  0  0  0  0  0
   -2.8765    0.4335   -0.8943 H   0  0  0  0  0  0  0  0  0  0  0  0
   -2.9071   -1.1635   -0.0941 H   0  0  0  0  0  0  0  0  0  0  0  0
   -2.1910   -0.9450   -1.7807 H   0  0  0  0  0  0  0  0  0  0  0  0
   -1.2649   -1.0930    1.8730 H   0  0  0  0  0  0  0  0  0  0  0  0
   -0.5672   -2.2223    0.5906 H   0  0  0  0  0  0  0  0  0  0  0  0
    0.7867   -0.0453    2.1580 H   0  0  0  0  0  0  0  0  0  0  0  0
    1.4942   -1.5519    1.3991 H   0  0  0  0  0  0  0  0  0  0  0  0
  1  2  1  0
  2  3  1  0
  3  4  1  0
  4  5  1  0
  5  6  1  0
  5  7  1  0
  7  8  1  0
  5  9  1  0
  8  2  1  0
  9  2  1  0
  1 10  1  0
  1 11  1  0
  1 12  1  0
  3 13  1  0
  3 14  1  0
  4 15  1  0
  4 16  1  0
  6 17  1  0
  6 18  1  0
  6 19  1  0
  7 20  1  0
  7 21  1  0
  8 22  1  0
  8 23  1  0
M  END
