
     RDKit          3D

 18 19  0  0  0  0  0  0  0  0999 V2000
    1.8726    0.7829    0.6697 C   0  0  0  0  0  0  0  0  0  0  0  0
    0.6586    0.2906   -0.0732 C   0  0  0  0  0  0  0  0  0  0  0  0
    0.7740   -1.0202   -0.8570 C   0  0  0  0  0  0  0  0  0  0  0  0
    0.0117   -0.9135    0.3990 C   0  0  0  0  0  0  0  0  0  0  0  0
   -1.4976   -0.9033    0.4143 C   0  0  0  0  0  0  0  0  0  0  0  0
   -1.9017   -0.1874   -0.7146 O   0  0  0  0  0  0  0  0  0  0  0  0
   -1.4348    1.1007   -0.6497 C   0  0  0  0  0  0  0  0  0  0  0  0
   -0.0801    1.2430   -0.6961 O   0  0  0  0  0  0  0  0  0  0  0  0
    1.6738    1.8084    1.0062 H   0  0  0  0  0  0  0  0  0  0  0  0
    2.1538    0.1475    1.5272 H   0  0  0  0  0  0  0  0  0  0  0  0
    2.7263    0.7401   -0.0418 H   0  0  0  0  0  0  0  0  0  0  0  0
    1.7625   -1.5271   -0.8230 H   0  0  0  0  0  0  0  0  0  0  0  0
    0.3007   -1.0818   -1.8512 H   0  0  0  0  0  0  0  0  0  0  0  0
    0.4510   -1.4353    1.2909 H   0  0  0  0  0  0  0  0  0  0  0  0
   -1.8262   -0.4460    1.3580 H   0  0  0  0  0  0  0  0  0  0  0  0
   -1.9334   -1.9125    0.3570 H   0  0  0  0  0  0  0  0  0  0  0  0
   -1.8510    1.6697    0.2283 H   0  0  0  0  0  0  0  0  0  0  0  0
   -1.8601    1.6443   -1.5440 H   0  0  0  0  0  0  0  0  0  0  0  0
  1  2  1  0
  2  3  1  0
  3  4  1  0
  4  5  1  0
  5  6  1  0
  6  7  1  0
  7  8  1  0
  4  2  1  0
  8  2  1  0
  1  9  1  0
  1 10  1  0
  1 11  1  0
  3 12  1  0
  3 13  1  0
  4 14  1  0
  5 15  1  0
  5 16  1  0
  7 17  1  0
  7 18  1  0
M  END
