
     RDKit          3D

 17 19  0  0  0  0  0  0  0  0999 V2000
    1.5543   -0.0516    0.9231 C   0  0  0  0  0  0  0  0  0  0  0  0
    0.4800    0.0425    0.0818 C   0  0  0  0  0  0  0  0  0  0  0  0
    0.3697    0.8808   -1.1706 C   0  0  0  0  0  0  0  0  0  0  0  0
   -0.9676    0.1945   -1.0669 C   0  0  0  0  0  0  0  0  0  0  0  0
   -0.2063   -1.0365   -0.6886 C   0  0  0  0  0  0  0  0  0  0  0  0
   -1.0238   -1.7256    0.2682 O   0  0  0  0  0  0  0  0  0  0  0  0
   -1.5293   -0.6439    1.0246 C   0  0  0  0  0  0  0  0  0  0  0  0
   -2.3215   -0.6917    1.9977 O   0  0  0  0  0  0  0  0  0  0  0  0
   -0.9071    0.5104    0.3963 C   0  0  0  0  0  0  0  0  0  0  0  0
    2.2399    0.8448    0.8865 H   0  0  0  0  0  0  0  0  0  0  0  0
    2.2322   -0.9205    0.7200 H   0  0  0  0  0  0  0  0  0  0  0  0
    1.2823   -0.1276    2.0160 H   0  0  0  0  0  0  0  0  0  0  0  0
    0.3003    1.9720   -1.0102 H   0  0  0  0  0  0  0  0  0  0  0  0
    1.0088    0.5789   -2.0137 H   0  0  0  0  0  0  0  0  0  0  0  0
   -1.7448    0.2810   -1.6871 H   0  0  0  0  0  0  0  0  0  0  0  0
    0.3096   -1.6069   -1.4174 H   0  0  0  0  0  0  0  0  0  0  0  0
   -1.0766    1.4994    0.7402 H   0  0  0  0  0  0  0  0  0  0  0  0
  1  2  1  0
  2  3  1  0
  3  4  1  0
  4  5  1  0
  5  6  1  0
  6  7  1  0
  7  8  2  0
  7  9  1  0
  5  2  1  0
  9  2  1  0
  9  4  1  0
  1 10  1  0
  1 11  1  0
  1 12  1  0
  3 13  1  0
  3 14  1  0
  4 15  1  0
  5 16  1  0
  9 17  1  0
M  END
