
     RDKit          3D

 19 21  0  0  0  0  0  0  0  0999 V2000
    1.7527   -0.8433   -0.4879 C   0  0  0  0  0  0  0  0  0  0  0  0
    0.6246   -0.0194   -0.0251 C   0  0  0  0  0  0  0  0  0  0  0  0
    0.7603    1.4948   -0.2058 C   0  0  0  0  0  0  0  0  0  0  0  0
   -0.4912    2.0097    0.0279 O   0  0  0  0  0  0  0  0  0  0  0  0
   -1.4301    1.0092   -0.2643 C   0  0  0  0  0  0  0  0  0  0  0  0
   -0.7127   -0.2021   -0.6696 C   0  0  0  0  0  0  0  0  0  0  0  0
   -1.3621   -0.1731    0.6313 C   0  0  0  0  0  0  0  0  0  0  0  0
   -2.4207   -1.0005    0.8626 O   0  0  0  0  0  0  0  0  0  0  0  0
   -0.0210   -0.4115    1.2930 C   0  0  0  0  0  0  0  0  0  0  0  0
    1.8846   -1.7185    0.2148 H   0  0  0  0  0  0  0  0  0  0  0  0
    2.7018   -0.2472   -0.3499 H   0  0  0  0  0  0  0  0  0  0  0  0
    1.6889   -1.2326   -1.5118 H   0  0  0  0  0  0  0  0  0  0  0  0
    1.0475    1.6181   -1.2904 H   0  0  0  0  0  0  0  0  0  0  0  0
    1.5559    1.9097    0.4007 H   0  0  0  0  0  0  0  0  0  0  0  0
   -2.3619    1.3645   -0.7093 H   0  0  0  0  0  0  0  0  0  0  0  0
   -0.9106   -0.8335   -1.5010 H   0  0  0  0  0  0  0  0  0  0  0  0
   -2.6970   -1.4642    0.0098 H   0  0  0  0  0  0  0  0  0  0  0  0
    0.1568   -1.5061    1.4504 H   0  0  0  0  0  0  0  0  0  0  0  0
    0.2341    0.2460    2.1245 H   0  0  0  0  0  0  0  0  0  0  0  0
  1  2  1  0
  2  3  1  0
  3  4  1  0
  4  5  1  0
  5  6  1  0
  6  7  1  0
  7  8  1  0
  7  9  1  0
  6  2  1  0
  9  2  1  0
  7  5  1  0
  1 10  1  0
  1 11  1  0
  1 12  1  0
  3 13  1  0
  3 14  1  0
  5 15  1  0
  6 16  1  0
  8 17  1  0
  9 18  1  0
  9 19  1  0
M  END
