
     RDKit          3D

 19 20  0  0  0  0  0  0  0  0999 V2000
   -0.9951    1.6211    0.0265 C   0  0  0  0  0  0  0  0  0  0  0  0
   -0.3105    0.4011    0.5770 C   0  0  0  0  0  0  0  0  0  0  0  0
   -1.0924   -0.3482    1.4611 O   0  0  0  0  0  0  0  0  0  0  0  0
   -1.3475   -1.5668    0.8147 C   0  0  0  0  0  0  0  0  0  0  0  0
    0.0227   -1.8995    0.2675 C   0  0  0  0  0  0  0  0  0  0  0  0
    0.4573   -0.5257   -0.2622 C   0  0  0  0  0  0  0  0  0  0  0  0
    1.1617    0.3525    0.7190 C   0  0  0  0  0  0  0  0  0  0  0  0
    1.9752    1.4283    0.1290 C   0  0  0  0  0  0  0  0  0  0  0  0
    1.5893    2.0224   -0.8465 O   0  0  0  0  0  0  0  0  0  0  0  0
   -0.4738    2.5259    0.4458 H   0  0  0  0  0  0  0  0  0  0  0  0
   -0.9831    1.6812   -1.0649 H   0  0  0  0  0  0  0  0  0  0  0  0
   -2.0503    1.7169    0.4104 H   0  0  0  0  0  0  0  0  0  0  0  0
   -1.7216   -2.2933    1.5341 H   0  0  0  0  0  0  0  0  0  0  0  0
   -2.0285   -1.4375   -0.0448 H   0  0  0  0  0  0  0  0  0  0  0  0
    0.6687   -2.1494    1.1384 H   0  0  0  0  0  0  0  0  0  0  0  0
    0.0154   -2.6612   -0.5121 H   0  0  0  0  0  0  0  0  0  0  0  0
    0.6173   -0.3977   -1.3309 H   0  0  0  0  0  0  0  0  0  0  0  0
    1.5793   -0.1564    1.6223 H   0  0  0  0  0  0  0  0  0  0  0  0
    2.9159    1.6862    0.5678 H   0  0  0  0  0  0  0  0  0  0  0  0
  1  2  1  0
  2  3  1  0
  3  4  1  0
  4  5  1  0
  5  6  1  0
  6  7  1  0
  7  8  1  0
  8  9  2  0
  6  2  1  0
  7  2  1  0
  1 10  1  0
  1 11  1  0
  1 12  1  0
  4 13  1  0
  4 14  1  0
  5 15  1  0
  5 16  1  0
  6 17  1  0
  7 18  1  0
  8 19  1  0
M  END
