
     RDKit          3D

 21 22  0  0  0  0  0  0  0  0999 V2000
   -0.4960    1.6182    0.3215 C   0  0  0  0  0  0  0  0  0  0  0  0
   -0.4300    0.2738   -0.3080 C   0  0  0  0  0  0  0  0  0  0  0  0
    0.8223   -0.4888   -0.4722 C   0  0  0  0  0  0  0  0  0  0  0  0
    1.9799   -0.1134    0.4186 C   0  0  0  0  0  0  0  0  0  0  0  0
    2.2925    1.2152    0.1698 O   0  0  0  0  0  0  0  0  0  0  0  0
    0.1359   -1.7362    0.0227 C   0  0  0  0  0  0  0  0  0  0  0  0
   -1.1018   -0.9133    0.2628 C   0  0  0  0  0  0  0  0  0  0  0  0
   -1.6710   -0.2429   -0.9366 C   0  0  0  0  0  0  0  0  0  0  0  0
   -2.8590    0.4598   -0.7442 O   0  0  0  0  0  0  0  0  0  0  0  0
   -1.5457    1.7606    0.7136 H   0  0  0  0  0  0  0  0  0  0  0  0
   -0.3948    2.3968   -0.4741 H   0  0  0  0  0  0  0  0  0  0  0  0
    0.1866    1.7741    1.1623 H   0  0  0  0  0  0  0  0  0  0  0  0
    1.1386   -0.5322   -1.5353 H   0  0  0  0  0  0  0  0  0  0  0  0
    2.8537   -0.7241    0.1897 H   0  0  0  0  0  0  0  0  0  0  0  0
    1.6430   -0.1928    1.4729 H   0  0  0  0  0  0  0  0  0  0  0  0
    3.2731    1.3600    0.1278 H   0  0  0  0  0  0  0  0  0  0  0  0
    0.5769   -2.2239    0.9008 H   0  0  0  0  0  0  0  0  0  0  0  0
   -0.0806   -2.4899   -0.7784 H   0  0  0  0  0  0  0  0  0  0  0  0
   -1.5973   -0.9038    1.2369 H   0  0  0  0  0  0  0  0  0  0  0  0
   -1.5463   -0.6970   -1.9403 H   0  0  0  0  0  0  0  0  0  0  0  0
   -3.1801    0.3998    0.1898 H   0  0  0  0  0  0  0  0  0  0  0  0
  1  2  1  0
  2  3  1  0
  3  4  1  0
  4  5  1  0
  3  6  1  0
  6  7  1  0
  7  8  1  0
  8  9  1  0
  7  2  1  0
  8  2  1  0
  1 10  1  0
  1 11  1  0
  1 12  1  0
  3 13  1  0
  4 14  1  0
  4 15  1  0
  5 16  1  0
  6 17  1  0
  6 18  1  0
  7 19  1  0
  8 20  1  0
  9 21  1  0
M  END
