
     RDKit          3D

 25 26  0  0  0  0  0  0  0  0999 V2000
    2.3371    0.0930    0.3821 C   0  0  0  0  0  0  0  0  0  0  0  0
    0.8762    0.0348    0.0991 C   0  0  0  0  0  0  0  0  0  0  0  0
    0.3492    1.3813   -0.3579 C   0  0  0  0  0  0  0  0  0  0  0  0
   -1.1012    1.2875   -0.7459 C   0  0  0  0  0  0  0  0  0  0  0  0
   -1.6674   -0.0576   -0.2793 C   0  0  0  0  0  0  0  0  0  0  0  0
   -1.3383   -0.0958    1.2210 C   0  0  0  0  0  0  0  0  0  0  0  0
    0.1205   -0.4771    1.3164 C   0  0  0  0  0  0  0  0  0  0  0  0
   -0.9421   -1.2138   -0.9250 C   0  0  0  0  0  0  0  0  0  0  0  0
    0.5563   -0.9474   -1.0307 C   0  0  0  0  0  0  0  0  0  0  0  0
    2.5332   -0.3149    1.4071 H   0  0  0  0  0  0  0  0  0  0  0  0
    2.8973   -0.5197   -0.3687 H   0  0  0  0  0  0  0  0  0  0  0  0
    2.6953    1.1482    0.3660 H   0  0  0  0  0  0  0  0  0  0  0  0
    0.5371    2.0959    0.4660 H   0  0  0  0  0  0  0  0  0  0  0  0
    0.9598    1.6810   -1.2260 H   0  0  0  0  0  0  0  0  0  0  0  0
   -1.6423    2.0493   -0.1106 H   0  0  0  0  0  0  0  0  0  0  0  0
   -1.2998    1.4788   -1.8034 H   0  0  0  0  0  0  0  0  0  0  0  0
   -2.7361   -0.1338   -0.4651 H   0  0  0  0  0  0  0  0  0  0  0  0
   -1.4376    0.9251    1.6700 H   0  0  0  0  0  0  0  0  0  0  0  0
   -2.0096   -0.7607    1.7645 H   0  0  0  0  0  0  0  0  0  0  0  0
    0.5981   -0.1242    2.2543 H   0  0  0  0  0  0  0  0  0  0  0  0
    0.1941   -1.5962    1.3543 H   0  0  0  0  0  0  0  0  0  0  0  0
   -1.3758   -1.5093   -1.8962 H   0  0  0  0  0  0  0  0  0  0  0  0
   -1.0593   -2.0826   -0.2224 H   0  0  0  0  0  0  0  0  0  0  0  0
    1.1610   -1.8376   -0.8426 H   0  0  0  0  0  0  0  0  0  0  0  0
    0.7942   -0.5041   -2.0271 H   0  0  0  0  0  0  0  0  0  0  0  0
  1  2  1  0
  2  3  1  0
  3  4  1  0
  4  5  1  0
  5  6  1  0
  6  7  1  0
  5  8  1  0
  8  9  1  0
  7  2  1  0
  9  2  1  0
  1 10  1  0
  1 11  1  0
  1 12  1  0
  3 13  1  0
  3 14  1  0
  4 15  1  0
  4 16  1  0
  5 17  1  0
  6 18  1  0
  6 19  1  0
  7 20  1  0
  7 21  1  0
  8 22  1  0
  8 23  1  0
  9 24  1  0
  9 25  1  0
M  END
