
     RDKit          3D

 18 20  0  0  0  0  0  0  0  0999 V2000
    1.7310    0.4697    0.4254 C   0  0  0  0  0  0  0  0  0  0  0  0
    0.5729   -0.1011   -0.0115 C   0  0  0  0  0  0  0  0  0  0  0  0
    0.4052   -1.3509   -0.8380 C   0  0  0  0  0  0  0  0  0  0  0  0
   -1.0017   -0.8778   -0.6175 C   0  0  0  0  0  0  0  0  0  0  0  0
   -0.4832    0.4973   -0.9016 C   0  0  0  0  0  0  0  0  0  0  0  0
   -1.2184    1.3835    0.0117 C   0  0  0  0  0  0  0  0  0  0  0  0
   -1.3196    0.6415    1.1428 C   0  0  0  0  0  0  0  0  0  0  0  0
   -0.5925   -0.5938    0.7945 C   0  0  0  0  0  0  0  0  0  0  0  0
    1.7074    0.8807    1.4718 H   0  0  0  0  0  0  0  0  0  0  0  0
    2.6263   -0.2212    0.4388 H   0  0  0  0  0  0  0  0  0  0  0  0
    2.0989    1.3456   -0.1884 H   0  0  0  0  0  0  0  0  0  0  0  0
    0.6963   -2.2914   -0.3805 H   0  0  0  0  0  0  0  0  0  0  0  0
    0.7254   -1.1680   -1.8803 H   0  0  0  0  0  0  0  0  0  0  0  0
   -1.8494   -1.2989   -0.9426 H   0  0  0  0  0  0  0  0  0  0  0  0
   -0.2421    0.7960   -1.8874 H   0  0  0  0  0  0  0  0  0  0  0  0
   -1.5714    2.3660   -0.1978 H   0  0  0  0  0  0  0  0  0  0  0  0
   -1.8118    0.8993    2.0639 H   0  0  0  0  0  0  0  0  0  0  0  0
   -0.4734   -1.3765    1.4966 H   0  0  0  0  0  0  0  0  0  0  0  0
  1  2  1  0
  2  3  1  0
  3  4  1  0
  4  5  1  0
  5  6  1  0
  6  7  2  0
  7  8  1  0
  5  2  1  0
  8  2  1  0
  8  4  1  0
  1  9  1  0
  1 10  1  0
  1 11  1  0
  3 12  1  0
  3 13  1  0
  4 14  1  0
  5 15  1  0
  6 16  1  0
  7 17  1  0
  8 18  1  0
M  END
