
     RDKit          3D

 23 25  0  0  0  0  0  0  0  0999 V2000
   -2.1299   -1.0950    0.7995 C   0  0  0  0  0  0  0  0  0  0  0  0
   -1.2701    0.0009    0.2336 C   0  0  0  0  0  0  0  0  0  0  0  0
   -1.7929    0.9998   -0.7179 C   0  0  0  0  0  0  0  0  0  0  0  0
   -0.9529   -0.1005   -1.2043 C   0  0  0  0  0  0  0  0  0  0  0  0
    0.5310   -0.0165   -1.3248 C   0  0  0  0  0  0  0  0  0  0  0  0
    1.1043    0.1928    0.0437 C   0  0  0  0  0  0  0  0  0  0  0  0
    2.3936    0.8638    0.1409 C   0  0  0  0  0  0  0  0  0  0  0  0
    2.2513   -0.5945    0.5484 C   0  0  0  0  0  0  0  0  0  0  0  0
   -0.0307    0.4022    0.9824 C   0  0  0  0  0  0  0  0  0  0  0  0
   -1.4502   -1.7521    1.4073 H   0  0  0  0  0  0  0  0  0  0  0  0
   -2.9183   -0.7516    1.4720 H   0  0  0  0  0  0  0  0  0  0  0  0
   -2.5574   -1.7633    0.0217 H   0  0  0  0  0  0  0  0  0  0  0  0
   -1.3605    2.0415   -0.6907 H   0  0  0  0  0  0  0  0  0  0  0  0
   -2.8584    1.0000   -0.9579 H   0  0  0  0  0  0  0  0  0  0  0  0
   -1.4402   -0.8310   -1.8771 H   0  0  0  0  0  0  0  0  0  0  0  0
    0.9183   -0.9954   -1.6959 H   0  0  0  0  0  0  0  0  0  0  0  0
    0.8658    0.7360   -2.0694 H   0  0  0  0  0  0  0  0  0  0  0  0
    2.6873    1.5416    0.9536 H   0  0  0  0  0  0  0  0  0  0  0  0
    2.9781    0.9745   -0.8134 H   0  0  0  0  0  0  0  0  0  0  0  0
    2.6927   -1.3812   -0.0684 H   0  0  0  0  0  0  0  0  0  0  0  0
    2.2904   -0.8315    1.6461 H   0  0  0  0  0  0  0  0  0  0  0  0
    0.1269   -0.1358    1.9208 H   0  0  0  0  0  0  0  0  0  0  0  0
   -0.0781    1.4954    1.2498 H   0  0  0  0  0  0  0  0  0  0  0  0
  1  2  1  0
  2  3  1  0
  3  4  1  0
  4  5  1  0
  5  6  1  0
  6  7  1  0
  7  8  1  0
  6  9  1  0
  4  2  1  0
  8  6  1  0
  9  2  1  0
  1 10  1  0
  1 11  1  0
  1 12  1  0
  3 13  1  0
  3 14  1  0
  4 15  1  0
  5 16  1  0
  5 17  1  0
  7 18  1  0
  7 19  1  0
  8 20  1  0
  8 21  1  0
  9 22  1  0
  9 23  1  0
M  END
