
     RDKit          3D

 19 21  0  0  0  0  0  0  0  0999 V2000
   -2.1122    0.0186    0.2230 C   0  0  0  0  0  0  0  0  0  0  0  0
   -0.7013    0.0316   -0.2136 C   0  0  0  0  0  0  0  0  0  0  0  0
   -0.3479    0.1834   -1.6929 C   0  0  0  0  0  0  0  0  0  0  0  0
    0.7676   -0.5758   -1.9230 O   0  0  0  0  0  0  0  0  0  0  0  0
    1.3759   -0.8802   -0.7347 C   0  0  0  0  0  0  0  0  0  0  0  0
    1.8074    0.3441    0.0867 C   0  0  0  0  0  0  0  0  0  0  0  0
    0.4271    0.3328    0.6954 C   0  0  0  0  0  0  0  0  0  0  0  0
    0.1928    0.7859    1.9547 O   0  0  0  0  0  0  0  0  0  0  0  0
    0.2304   -1.0215    0.2176 C   0  0  0  0  0  0  0  0  0  0  0  0
   -2.1707   -0.4921    1.2232 H   0  0  0  0  0  0  0  0  0  0  0  0
   -2.4271    1.0783    0.4367 H   0  0  0  0  0  0  0  0  0  0  0  0
   -2.7739   -0.4349   -0.5120 H   0  0  0  0  0  0  0  0  0  0  0  0
   -0.0578    1.2541   -1.8608 H   0  0  0  0  0  0  0  0  0  0  0  0
   -1.1773   -0.1336   -2.3469 H   0  0  0  0  0  0  0  0  0  0  0  0
    2.1024   -1.6816   -0.7927 H   0  0  0  0  0  0  0  0  0  0  0  0
    2.6322    0.0638    0.7537 H   0  0  0  0  0  0  0  0  0  0  0  0
    2.0328    1.2349   -0.5046 H   0  0  0  0  0  0  0  0  0  0  0  0
    0.2007    1.7953    1.9201 H   0  0  0  0  0  0  0  0  0  0  0  0
   -0.0011   -1.9031    0.7677 H   0  0  0  0  0  0  0  0  0  0  0  0
  1  2  1  0
  2  3  1  0
  3  4  1  0
  4  5  1  0
  5  6  1  0
  6  7  1  0
  7  8  1  0
  7  9  1  0
  7  2  1  0
  9  2  1  0
  9  5  1  0
  1 10  1  0
  1 11  1  0
  1 12  1  0
  3 13  1  0
  3 14  1  0
  5 15  1  0
  6 16  1  0
  6 17  1  0
  8 18  1  0
  9 19  1  0
M  END
