
     RDKit          3D

 21 22  0  0  0  0  0  0  0  0999 V2000
    2.3147    0.3248    0.5032 C   0  0  0  0  0  0  0  0  0  0  0  0
    0.9436   -0.0479    0.2374 C   0  0  0  0  0  0  0  0  0  0  0  0
    0.6737   -1.3488   -0.5240 C   0  0  0  0  0  0  0  0  0  0  0  0
   -0.8622   -1.3095   -0.3964 C   0  0  0  0  0  0  0  0  0  0  0  0
   -0.9584    0.0199    0.3411 C   0  0  0  0  0  0  0  0  0  0  0  0
   -2.2638    0.4744    0.7880 C   0  0  0  0  0  0  0  0  0  0  0  0
    0.0488   -0.1708    1.3193 O   0  0  0  0  0  0  0  0  0  0  0  0
   -0.0174    0.9560   -0.3372 C   0  0  0  0  0  0  0  0  0  0  0  0
   -0.0447    0.9935   -1.7135 O   0  0  0  0  0  0  0  0  0  0  0  0
    3.0447   -0.3438   -0.0375 H   0  0  0  0  0  0  0  0  0  0  0  0
    2.5335    1.3478    0.0927 H   0  0  0  0  0  0  0  0  0  0  0  0
    2.6213    0.3456    1.5592 H   0  0  0  0  0  0  0  0  0  0  0  0
    1.1006   -2.2128   -0.0203 H   0  0  0  0  0  0  0  0  0  0  0  0
    0.9552   -1.2426   -1.5912 H   0  0  0  0  0  0  0  0  0  0  0  0
   -1.3541   -1.3050   -1.3640 H   0  0  0  0  0  0  0  0  0  0  0  0
   -1.1553   -2.1557    0.2533 H   0  0  0  0  0  0  0  0  0  0  0  0
   -3.0637   -0.2910    0.7341 H   0  0  0  0  0  0  0  0  0  0  0  0
   -2.6223    1.3132    0.1247 H   0  0  0  0  0  0  0  0  0  0  0  0
   -2.2305    0.8340    1.8376 H   0  0  0  0  0  0  0  0  0  0  0  0
    0.0410    1.9117    0.1699 H   0  0  0  0  0  0  0  0  0  0  0  0
    0.2953    1.9071   -1.9764 H   0  0  0  0  0  0  0  0  0  0  0  0
  1  2  1  0
  2  3  1  0
  3  4  1  0
  4  5  1  0
  5  6  1  0
  5  7  1  0
  5  8  1  0
  8  9  1  0
  7  2  1  0
  8  2  1  0
  1 10  1  0
  1 11  1  0
  1 12  1  0
  3 13  1  0
  3 14  1  0
  4 15  1  0
  4 16  1  0
  6 17  1  0
  6 18  1  0
  6 19  1  0
  8 20  1  0
  9 21  1  0
M  END
