
     RDKit          3D

 21 23  0  0  0  0  0  0  0  0999 V2000
   -1.9798   -0.8765   -0.0989 C   0  0  0  0  0  0  0  0  0  0  0  0
   -0.5597   -0.8444    0.4254 C   0  0  0  0  0  0  0  0  0  0  0  0
    0.5310   -1.3060   -0.4820 C   0  0  0  0  0  0  0  0  0  0  0  0
    1.2923   -0.0619   -0.2331 C   0  0  0  0  0  0  0  0  0  0  0  0
    2.3892    0.4267   -0.8649 C   0  0  0  0  0  0  0  0  0  0  0  0
    2.5053   -0.2555    0.4538 O   0  0  0  0  0  0  0  0  0  0  0  0
    0.1290    0.5455    0.4228 C   0  0  0  0  0  0  0  0  0  0  0  0
   -0.6352    1.6892   -0.1476 C   0  0  0  0  0  0  0  0  0  0  0  0
   -0.3318   -0.1421    1.6841 C   0  0  0  0  0  0  0  0  0  0  0  0
   -2.3401   -1.9132    0.0359 H   0  0  0  0  0  0  0  0  0  0  0  0
   -1.9866   -0.6809   -1.1872 H   0  0  0  0  0  0  0  0  0  0  0  0
   -2.6477   -0.1940    0.4708 H   0  0  0  0  0  0  0  0  0  0  0  0
    0.1533   -1.3432   -1.5447 H   0  0  0  0  0  0  0  0  0  0  0  0
    1.0100   -2.2672   -0.2600 H   0  0  0  0  0  0  0  0  0  0  0  0
    2.8045    1.4331   -0.7307 H   0  0  0  0  0  0  0  0  0  0  0  0
    2.9299   -0.1429   -1.6709 H   0  0  0  0  0  0  0  0  0  0  0  0
   -0.3114    2.6497    0.3228 H   0  0  0  0  0  0  0  0  0  0  0  0
   -0.5742    1.7599   -1.2480 H   0  0  0  0  0  0  0  0  0  0  0  0
   -1.7075    1.5797    0.1080 H   0  0  0  0  0  0  0  0  0  0  0  0
    0.5120   -0.3851    2.3717 H   0  0  0  0  0  0  0  0  0  0  0  0
   -1.1826    0.3289    2.1727 H   0  0  0  0  0  0  0  0  0  0  0  0
  1  2  1  0
  2  3  1  0
  3  4  1  0
  4  5  1  0
  5  6  1  0
  4  7  1  0
  7  8  1  0
  7  9  1  0
  7  2  1  0
  9  2  1  0
  6  4  1  0
  1 10  1  0
  1 11  1  0
  1 12  1  0
  3 13  1  0
  3 14  1  0
  5 15  1  0
  5 16  1  0
  8 17  1  0
  8 18  1  0
  8 19  1  0
  9 20  1  0
  9 21  1  0
M  END
