
     RDKit          3D

 21 23  0  0  0  0  0  0  0  0999 V2000
   -2.0853    0.5200    0.6257 C   0  0  0  0  0  0  0  0  0  0  0  0
   -0.8736   -0.1964    0.0549 C   0  0  0  0  0  0  0  0  0  0  0  0
   -0.0174   -0.8885    1.0494 C   0  0  0  0  0  0  0  0  0  0  0  0
    1.3982   -0.8611    0.5758 C   0  0  0  0  0  0  0  0  0  0  0  0
    2.1687    0.3875    0.4429 C   0  0  0  0  0  0  0  0  0  0  0  0
    1.4176   -0.0844   -0.7292 C   0  0  0  0  0  0  0  0  0  0  0  0
    0.0203    0.4346   -0.9102 C   0  0  0  0  0  0  0  0  0  0  0  0
   -0.1679    1.7502   -1.2854 O   0  0  0  0  0  0  0  0  0  0  0  0
   -0.9734   -0.5875   -1.3575 C   0  0  0  0  0  0  0  0  0  0  0  0
   -2.9273   -0.2189    0.6661 H   0  0  0  0  0  0  0  0  0  0  0  0
   -2.4260    1.3374   -0.0344 H   0  0  0  0  0  0  0  0  0  0  0  0
   -1.9169    0.9096    1.6313 H   0  0  0  0  0  0  0  0  0  0  0  0
   -0.0805   -0.3087    2.0138 H   0  0  0  0  0  0  0  0  0  0  0  0
   -0.3328   -1.9363    1.2329 H   0  0  0  0  0  0  0  0  0  0  0  0
    1.9518   -1.8216    0.6082 H   0  0  0  0  0  0  0  0  0  0  0  0
    3.2824    0.2723    0.4181 H   0  0  0  0  0  0  0  0  0  0  0  0
    1.8201    1.3509    0.8826 H   0  0  0  0  0  0  0  0  0  0  0  0
    1.9033   -0.6212   -1.5779 H   0  0  0  0  0  0  0  0  0  0  0  0
    0.2772    2.4003   -0.6785 H   0  0  0  0  0  0  0  0  0  0  0  0
   -1.8222   -0.2356   -1.9449 H   0  0  0  0  0  0  0  0  0  0  0  0
   -0.6160   -1.6026   -1.6837 H   0  0  0  0  0  0  0  0  0  0  0  0
  1  2  1  0
  2  3  1  0
  3  4  1  0
  4  5  1  0
  5  6  1  0
  6  7  1  0
  7  8  1  0
  7  9  1  0
  7  2  1  0
  9  2  1  0
  6  4  1  0
  1 10  1  0
  1 11  1  0
  1 12  1  0
  3 13  1  0
  3 14  1  0
  4 15  1  0
  5 16  1  0
  5 17  1  0
  6 18  1  0
  8 19  1  0
  9 20  1  0
  9 21  1  0
M  END
