
     RDKit          3D

 21 22  0  0  0  0  0  0  0  0999 V2000
   -2.1929    0.1930   -0.3814 C   0  0  0  0  0  0  0  0  0  0  0  0
   -0.8266   -0.0615    0.1396 C   0  0  0  0  0  0  0  0  0  0  0  0
   -0.3433   -1.4812    0.1454 C   0  0  0  0  0  0  0  0  0  0  0  0
    1.1446   -1.4611   -0.0673 C   0  0  0  0  0  0  0  0  0  0  0  0
    1.5221   -0.0031    0.0603 C   0  0  0  0  0  0  0  0  0  0  0  0
    2.6805    0.3137   -0.6378 O   0  0  0  0  0  0  0  0  0  0  0  0
    0.3054    0.6977   -0.4640 C   0  0  0  0  0  0  0  0  0  0  0  0
   -0.2145    1.7313    0.5122 C   0  0  0  0  0  0  0  0  0  0  0  0
   -0.6010    0.6469    1.3348 O   0  0  0  0  0  0  0  0  0  0  0  0
   -2.6558    1.0755    0.1322 H   0  0  0  0  0  0  0  0  0  0  0  0
   -2.8467   -0.6737   -0.0800 H   0  0  0  0  0  0  0  0  0  0  0  0
   -2.2662    0.3631   -1.4606 H   0  0  0  0  0  0  0  0  0  0  0  0
   -0.7947   -1.9851   -0.7380 H   0  0  0  0  0  0  0  0  0  0  0  0
   -0.6423   -2.0236    1.0701 H   0  0  0  0  0  0  0  0  0  0  0  0
    1.5952   -2.0812    0.7416 H   0  0  0  0  0  0  0  0  0  0  0  0
    1.4669   -1.9136   -1.0183 H   0  0  0  0  0  0  0  0  0  0  0  0
    1.6243    0.1920    1.1624 H   0  0  0  0  0  0  0  0  0  0  0  0
    3.2572    0.8211    0.0038 H   0  0  0  0  0  0  0  0  0  0  0  0
    0.2689    0.9474   -1.5152 H   0  0  0  0  0  0  0  0  0  0  0  0
    0.5686    2.3675    0.9264 H   0  0  0  0  0  0  0  0  0  0  0  0
   -1.0498    2.3347    0.1336 H   0  0  0  0  0  0  0  0  0  0  0  0
  1  2  1  0
  2  3  1  0
  3  4  1  0
  4  5  1  0
  5  6  1  0
  5  7  1  0
  7  8  1  0
  8  9  1  0
  7  2  1  0
  9  2  1  0
  1 10  1  0
  1 11  1  0
  1 12  1  0
  3 13  1  0
  3 14  1  0
  4 15  1  0
  4 16  1  0
  5 17  1  0
  6 18  1  0
  7 19  1  0
  8 20  1  0
  8 21  1  0
M  END
