
     RDKit          3D

 23 24  0  0  0  0  0  0  0  0999 V2000
    1.1658    1.1903    0.6669 C   0  0  0  0  0  0  0  0  0  0  0  0
    1.2840   -0.1753    0.1212 C   0  0  0  0  0  0  0  0  0  0  0  0
    0.7124   -1.1508    1.0804 C   0  0  0  0  0  0  0  0  0  0  0  0
   -0.7723   -0.7408    0.9525 C   0  0  0  0  0  0  0  0  0  0  0  0
   -0.8923   -0.3551   -0.5120 C   0  0  0  0  0  0  0  0  0  0  0  0
   -1.4943    0.9612   -0.7887 C   0  0  0  0  0  0  0  0  0  0  0  0
   -2.8199    1.0475   -0.2810 O   0  0  0  0  0  0  0  0  0  0  0  0
    0.3829   -0.7281   -1.0482 C   0  0  0  0  0  0  0  0  0  0  0  0
    1.6723   -0.2027   -1.2414 C   0  0  0  0  0  0  0  0  0  0  0  0
    1.3185    2.0282   -0.0765 H   0  0  0  0  0  0  0  0  0  0  0  0
    2.1291    1.3019    1.2744 H   0  0  0  0  0  0  0  0  0  0  0  0
    0.3990    1.3912    1.4142 H   0  0  0  0  0  0  0  0  0  0  0  0
    0.9942   -0.9156    2.1240 H   0  0  0  0  0  0  0  0  0  0  0  0
    0.8458   -2.2032    0.8114 H   0  0  0  0  0  0  0  0  0  0  0  0
   -1.3280   -1.6639    1.2187 H   0  0  0  0  0  0  0  0  0  0  0  0
   -1.0711    0.0228    1.6553 H   0  0  0  0  0  0  0  0  0  0  0  0
   -1.7063   -1.0606   -0.9002 H   0  0  0  0  0  0  0  0  0  0  0  0
   -1.0201    1.8604   -0.4373 H   0  0  0  0  0  0  0  0  0  0  0  0
   -1.6477    1.0176   -1.9068 H   0  0  0  0  0  0  0  0  0  0  0  0
   -2.8791    0.3201    0.3893 H   0  0  0  0  0  0  0  0  0  0  0  0
    0.4322   -1.8749   -1.1526 H   0  0  0  0  0  0  0  0  0  0  0  0
    1.7189    0.7370   -1.8688 H   0  0  0  0  0  0  0  0  0  0  0  0
    2.5758   -0.8071   -1.4946 H   0  0  0  0  0  0  0  0  0  0  0  0
  1  2  1  0
  2  3  1  0
  3  4  1  0
  4  5  1  0
  5  6  1  0
  6  7  1  0
  5  8  1  0
  8  9  1  0
  8  2  1  0
  9  2  1  0
  1 10  1  0
  1 11  1  0
  1 12  1  0
  3 13  1  0
  3 14  1  0
  4 15  1  0
  4 16  1  0
  5 17  1  0
  6 18  1  0
  6 19  1  0
  7 20  1  0
  8 21  1  0
  9 22  1  0
  9 23  1  0
M  END
