
     RDKit          3D

 21 22  0  0  0  0  0  0  0  0999 V2000
   -1.3975   -1.4958    0.5368 C   0  0  0  0  0  0  0  0  0  0  0  0
   -0.5031   -0.4173   -0.0828 C   0  0  0  0  0  0  0  0  0  0  0  0
   -1.3623    0.6657   -0.7486 C   0  0  0  0  0  0  0  0  0  0  0  0
   -0.9917    1.5829    0.3934 C   0  0  0  0  0  0  0  0  0  0  0  0
    0.0006    0.5405    0.8974 C   0  0  0  0  0  0  0  0  0  0  0  0
    1.2715    0.9850    0.7760 O   0  0  0  0  0  0  0  0  0  0  0  0
    2.1591    0.1699    0.1424 C   0  0  0  0  0  0  0  0  0  0  0  0
    1.6155   -0.5686   -1.0347 C   0  0  0  0  0  0  0  0  0  0  0  0
    0.3419   -0.9683   -0.9723 O   0  0  0  0  0  0  0  0  0  0  0  0
   -1.0249   -2.5173    0.2862 H   0  0  0  0  0  0  0  0  0  0  0  0
   -2.4395   -1.4050    0.1852 H   0  0  0  0  0  0  0  0  0  0  0  0
   -1.3790   -1.4239    1.6348 H   0  0  0  0  0  0  0  0  0  0  0  0
   -0.8972    1.0399   -1.6955 H   0  0  0  0  0  0  0  0  0  0  0  0
   -2.4224    0.4040   -0.8359 H   0  0  0  0  0  0  0  0  0  0  0  0
   -1.8700    1.7403    1.0392 H   0  0  0  0  0  0  0  0  0  0  0  0
   -0.5106    2.5460    0.0821 H   0  0  0  0  0  0  0  0  0  0  0  0
   -0.2812    0.2814    1.9599 H   0  0  0  0  0  0  0  0  0  0  0  0
    2.9952    0.8212   -0.2490 H   0  0  0  0  0  0  0  0  0  0  0  0
    2.6519   -0.5359    0.8527 H   0  0  0  0  0  0  0  0  0  0  0  0
    1.7670    0.0287   -1.9815 H   0  0  0  0  0  0  0  0  0  0  0  0
    2.2766   -1.4732   -1.1858 H   0  0  0  0  0  0  0  0  0  0  0  0
  1  2  1  0
  2  3  1  0
  3  4  1  0
  4  5  1  0
  5  6  1  0
  6  7  1  0
  7  8  1  0
  8  9  1  0
  5  2  1  0
  9  2  1  0
  1 10  1  0
  1 11  1  0
  1 12  1  0
  3 13  1  0
  3 14  1  0
  4 15  1  0
  4 16  1  0
  5 17  1  0
  7 18  1  0
  7 19  1  0
  8 20  1  0
  8 21  1  0
M  END
