
     RDKit          3D

 13 14  0  0  0  0  0  0  0  0999 V2000
    1.2824   -0.2871   -0.6722 C   0  0  0  0  0  0  0  0  0  0  0  0
   -0.0643    0.1423   -0.1989 C   0  0  0  0  0  0  0  0  0  0  0  0
   -1.2146   -0.7752   -0.1191 C   0  0  0  0  0  0  0  0  0  0  0  0
   -0.5691   -0.2884    1.1335 C   0  0  0  0  0  0  0  0  0  0  0  0
   -0.7283    1.0962    1.4263 O   0  0  0  0  0  0  0  0  0  0  0  0
   -0.3132    1.5499    0.1854 C   0  0  0  0  0  0  0  0  0  0  0  0
   -0.1740    2.6308   -0.4295 O   0  0  0  0  0  0  0  0  0  0  0  0
    1.9374    0.6277   -0.6924 H   0  0  0  0  0  0  0  0  0  0  0  0
    1.3022   -0.6895   -1.6949 H   0  0  0  0  0  0  0  0  0  0  0  0
    1.8013   -0.9863    0.0435 H   0  0  0  0  0  0  0  0  0  0  0  0
   -1.0601   -1.8021   -0.4427 H   0  0  0  0  0  0  0  0  0  0  0  0
   -2.2132   -0.2891   -0.3291 H   0  0  0  0  0  0  0  0  0  0  0  0
    0.0134   -0.9293    1.7900 H   0  0  0  0  0  0  0  0  0  0  0  0
  1  2  1  0
  2  3  1  0
  3  4  1  0
  4  5  1  0
  5  6  1  0
  6  7  2  0
  4  2  1  0
  6  2  1  0
  1  8  1  0
  1  9  1  0
  1 10  1  0
  3 11  1  0
  3 12  1  0
  4 13  1  0
M  END
