
     RDKit          3D

 21 22  0  0  0  0  0  0  0  0999 V2000
    1.2512   -0.0978    1.1779 C   0  0  0  0  0  0  0  0  0  0  0  0
    0.9678   -0.2272   -0.3292 C   0  0  0  0  0  0  0  0  0  0  0  0
    0.1282   -1.3901   -0.6293 C   0  0  0  0  0  0  0  0  0  0  0  0
   -0.7642   -1.6139    0.4195 O   0  0  0  0  0  0  0  0  0  0  0  0
   -1.8454   -0.7785    0.4589 C   0  0  0  0  0  0  0  0  0  0  0  0
   -1.5105    0.6544    0.7375 C   0  0  0  0  0  0  0  0  0  0  0  0
   -0.6096    1.4404    0.1076 C   0  0  0  0  0  0  0  0  0  0  0  0
    0.2127    0.9850   -0.9949 C   0  0  0  0  0  0  0  0  0  0  0  0
    1.5963    0.7455   -1.1493 C   0  0  0  0  0  0  0  0  0  0  0  0
    0.4562   -0.5322    1.7834 H   0  0  0  0  0  0  0  0  0  0  0  0
    2.1905   -0.6903    1.3407 H   0  0  0  0  0  0  0  0  0  0  0  0
    1.4522    0.9586    1.4049 H   0  0  0  0  0  0  0  0  0  0  0  0
    0.7081   -2.3273   -0.7607 H   0  0  0  0  0  0  0  0  0  0  0  0
   -0.5162   -1.2635   -1.5457 H   0  0  0  0  0  0  0  0  0  0  0  0
   -2.3472   -0.8470   -0.5506 H   0  0  0  0  0  0  0  0  0  0  0  0
   -2.5629   -1.1322    1.1883 H   0  0  0  0  0  0  0  0  0  0  0  0
   -2.0800    1.1152    1.5635 H   0  0  0  0  0  0  0  0  0  0  0  0
   -0.5788    2.4206    0.5149 H   0  0  0  0  0  0  0  0  0  0  0  0
   -0.4491    0.7105   -1.8757 H   0  0  0  0  0  0  0  0  0  0  0  0
    2.3294    1.4503   -0.7024 H   0  0  0  0  0  0  0  0  0  0  0  0
    1.9714    0.4196   -2.1595 H   0  0  0  0  0  0  0  0  0  0  0  0
  1  2  1  0
  2  3  1  0
  3  4  1  0
  4  5  1  0
  5  6  1  0
  6  7  2  0
  7  8  1  0
  8  9  1  0
  8  2  1  0
  9  2  1  0
  1 10  1  0
  1 11  1  0
  1 12  1  0
  3 13  1  0
  3 14  1  0
  5 15  1  0
  5 16  1  0
  6 17  1  0
  7 18  1  0
  8 19  1  0
  9 20  1  0
  9 21  1  0
M  END
