
     RDKit          3D

 21 23  0  0  0  0  0  0  0  0999 V2000
    2.2443   -0.3056    0.6615 C   0  0  0  0  0  0  0  0  0  0  0  0
    1.0810    0.1145   -0.1597 C   0  0  0  0  0  0  0  0  0  0  0  0
    1.1108   -0.1640   -1.5992 C   0  0  0  0  0  0  0  0  0  0  0  0
    0.1352   -0.8765   -0.7629 C   0  0  0  0  0  0  0  0  0  0  0  0
   -1.0346   -0.0781   -0.2652 C   0  0  0  0  0  0  0  0  0  0  0  0
   -2.1543   -0.8398    0.3343 C   0  0  0  0  0  0  0  0  0  0  0  0
   -1.0842    1.3905   -0.4250 C   0  0  0  0  0  0  0  0  0  0  0  0
   -0.1097    0.7720    0.4914 C   0  0  0  0  0  0  0  0  0  0  0  0
   -0.1352    0.9215    1.8474 O   0  0  0  0  0  0  0  0  0  0  0  0
    3.2020    0.1334    0.2546 H   0  0  0  0  0  0  0  0  0  0  0  0
    2.1759    0.1293    1.6995 H   0  0  0  0  0  0  0  0  0  0  0  0
    2.3741   -1.3903    0.6669 H   0  0  0  0  0  0  0  0  0  0  0  0
    1.9541   -0.7376   -1.9837 H   0  0  0  0  0  0  0  0  0  0  0  0
    0.6954    0.5588   -2.3380 H   0  0  0  0  0  0  0  0  0  0  0  0
    0.2250   -1.9174   -0.4536 H   0  0  0  0  0  0  0  0  0  0  0  0
   -3.0931   -0.6178   -0.2528 H   0  0  0  0  0  0  0  0  0  0  0  0
   -2.3656   -0.6498    1.3835 H   0  0  0  0  0  0  0  0  0  0  0  0
   -1.9969   -1.9324    0.2061 H   0  0  0  0  0  0  0  0  0  0  0  0
   -1.9439    1.8946    0.0471 H   0  0  0  0  0  0  0  0  0  0  0  0
   -0.6935    1.7923   -1.3933 H   0  0  0  0  0  0  0  0  0  0  0  0
   -0.5866    1.8024    2.0413 H   0  0  0  0  0  0  0  0  0  0  0  0
  1  2  1  0
  2  3  1  0
  3  4  1  0
  4  5  1  0
  5  6  1  0
  5  7  1  0
  7  8  1  0
  8  9  1  0
  4  2  1  0
  8  5  1  0
  8  2  1  0
  1 10  1  0
  1 11  1  0
  1 12  1  0
  3 13  1  0
  3 14  1  0
  4 15  1  0
  6 16  1  0
  6 17  1  0
  6 18  1  0
  7 19  1  0
  7 20  1  0
  9 21  1  0
M  END
