
     RDKit          3D

 19 20  0  0  0  0  0  0  0  0999 V2000
   -1.9505   -0.4443   -0.4310 C   0  0  0  0  0  0  0  0  0  0  0  0
   -0.5590   -0.3353    0.1004 C   0  0  0  0  0  0  0  0  0  0  0  0
    0.5036   -1.1116   -0.6016 C   0  0  0  0  0  0  0  0  0  0  0  0
    1.8044   -0.3297   -0.4972 C   0  0  0  0  0  0  0  0  0  0  0  0
    1.4698    0.9463    0.1431 C   0  0  0  0  0  0  0  0  0  0  0  0
    2.2388    1.8499    0.3599 O   0  0  0  0  0  0  0  0  0  0  0  0
    0.0388    0.9590    0.4854 C   0  0  0  0  0  0  0  0  0  0  0  0
   -0.6733    2.1332    0.2798 O   0  0  0  0  0  0  0  0  0  0  0  0
   -0.3741   -0.0054    1.5378 C   0  0  0  0  0  0  0  0  0  0  0  0
   -2.0230   -0.2037   -1.5183 H   0  0  0  0  0  0  0  0  0  0  0  0
   -2.6776    0.1896    0.0823 H   0  0  0  0  0  0  0  0  0  0  0  0
   -2.3237   -1.4970   -0.3304 H   0  0  0  0  0  0  0  0  0  0  0  0
    0.2547   -1.1876   -1.6855 H   0  0  0  0  0  0  0  0  0  0  0  0
    0.6385   -2.1360   -0.1942 H   0  0  0  0  0  0  0  0  0  0  0  0
    2.2319   -0.1165   -1.4954 H   0  0  0  0  0  0  0  0  0  0  0  0
    2.5435   -0.9320    0.0698 H   0  0  0  0  0  0  0  0  0  0  0  0
   -0.2932    2.5657   -0.5415 H   0  0  0  0  0  0  0  0  0  0  0  0
   -1.2337    0.2735    2.1707 H   0  0  0  0  0  0  0  0  0  0  0  0
    0.3840   -0.6181    2.0659 H   0  0  0  0  0  0  0  0  0  0  0  0
  1  2  1  0
  2  3  1  0
  3  4  1  0
  4  5  1  0
  5  6  2  0
  5  7  1  0
  7  8  1  0
  7  9  1  0
  7  2  1  0
  9  2  1  0
  1 10  1  0
  1 11  1  0
  1 12  1  0
  3 13  1  0
  3 14  1  0
  4 15  1  0
  4 16  1  0
  8 17  1  0
  9 18  1  0
  9 19  1  0
M  END
