
     RDKit          3D

 21 23  0  0  0  0  0  0  0  0999 V2000
   -2.2519   -0.0026    1.1824 C   0  0  0  0  0  0  0  0  0  0  0  0
   -1.0174    0.0733    0.4253 C   0  0  0  0  0  0  0  0  0  0  0  0
   -0.5289   -1.2136   -0.2583 C   0  0  0  0  0  0  0  0  0  0  0  0
    0.2093   -0.1796   -1.1273 C   0  0  0  0  0  0  0  0  0  0  0  0
   -1.1036    0.6071   -1.0127 C   0  0  0  0  0  0  0  0  0  0  0  0
    1.0279    0.4576   -0.0827 C   0  0  0  0  0  0  0  0  0  0  0  0
    2.3348    1.0111   -0.1749 C   0  0  0  0  0  0  0  0  0  0  0  0
    2.2345   -0.3364    0.4607 C   0  0  0  0  0  0  0  0  0  0  0  0
    0.0822    0.7154    0.9058 O   0  0  0  0  0  0  0  0  0  0  0  0
   -2.0980   -0.5287    2.1239 H   0  0  0  0  0  0  0  0  0  0  0  0
   -2.6631    1.0029    1.3570 H   0  0  0  0  0  0  0  0  0  0  0  0
   -2.9912   -0.6282    0.5988 H   0  0  0  0  0  0  0  0  0  0  0  0
   -1.3421   -1.7094   -0.7835 H   0  0  0  0  0  0  0  0  0  0  0  0
    0.1384   -1.8187    0.3632 H   0  0  0  0  0  0  0  0  0  0  0  0
    0.5515   -0.4678   -2.0711 H   0  0  0  0  0  0  0  0  0  0  0  0
   -1.8658    0.0929   -1.6234 H   0  0  0  0  0  0  0  0  0  0  0  0
   -1.0078    1.6840   -1.1092 H   0  0  0  0  0  0  0  0  0  0  0  0
    2.6110    1.8541    0.5190 H   0  0  0  0  0  0  0  0  0  0  0  0
    2.8534    1.0466   -1.1336 H   0  0  0  0  0  0  0  0  0  0  0  0
    2.3700   -0.4009    1.5414 H   0  0  0  0  0  0  0  0  0  0  0  0
    2.4567   -1.2592   -0.1009 H   0  0  0  0  0  0  0  0  0  0  0  0
  1  2  1  0
  2  3  1  0
  3  4  1  0
  4  5  1  0
  4  6  1  0
  6  7  1  0
  7  8  1  0
  6  9  1  0
  5  2  1  0
  8  6  1  0
  9  2  1  0
  1 10  1  0
  1 11  1  0
  1 12  1  0
  3 13  1  0
  3 14  1  0
  4 15  1  0
  5 16  1  0
  5 17  1  0
  7 18  1  0
  7 19  1  0
  8 20  1  0
  8 21  1  0
M  END
