
     RDKit          3D

 19 20  0  0  0  0  0  0  0  0999 V2000
   -2.1670    0.2376    0.6410 C   0  0  0  0  0  0  0  0  0  0  0  0
   -1.1745    0.1472   -0.4556 C   0  0  0  0  0  0  0  0  0  0  0  0
   -0.1847   -1.0239   -0.4743 C   0  0  0  0  0  0  0  0  0  0  0  0
    0.9141   -0.4098    0.3438 C   0  0  0  0  0  0  0  0  0  0  0  0
    2.1674   -1.1763    0.3182 C   0  0  0  0  0  0  0  0  0  0  0  0
    2.2742   -2.3121   -0.1307 O   0  0  0  0  0  0  0  0  0  0  0  0
    1.0952    0.9118   -0.4191 C   0  0  0  0  0  0  0  0  0  0  0  0
   -0.2958    1.3936   -0.5895 C   0  0  0  0  0  0  0  0  0  0  0  0
   -1.1524    0.9461   -1.5458 O   0  0  0  0  0  0  0  0  0  0  0  0
   -2.1868    1.2246    1.1504 H   0  0  0  0  0  0  0  0  0  0  0  0
   -1.8480   -0.4882    1.4464 H   0  0  0  0  0  0  0  0  0  0  0  0
   -3.1588   -0.0811    0.3165 H   0  0  0  0  0  0  0  0  0  0  0  0
   -0.6754   -1.8782   -0.0174 H   0  0  0  0  0  0  0  0  0  0  0  0
    0.1342   -1.2172   -1.5209 H   0  0  0  0  0  0  0  0  0  0  0  0
    0.5151   -0.2187    1.3536 H   0  0  0  0  0  0  0  0  0  0  0  0
    3.0576   -0.7094    0.7222 H   0  0  0  0  0  0  0  0  0  0  0  0
    1.6394    1.5983    0.2564 H   0  0  0  0  0  0  0  0  0  0  0  0
    1.6613    0.7386   -1.3303 H   0  0  0  0  0  0  0  0  0  0  0  0
   -0.6151    2.3170   -0.0649 H   0  0  0  0  0  0  0  0  0  0  0  0
  1  2  1  0
  2  3  1  0
  3  4  1  0
  4  5  1  0
  5  6  2  0
  4  7  1  0
  7  8  1  0
  8  9  1  0
  8  2  1  0
  9  2  1  0
  1 10  1  0
  1 11  1  0
  1 12  1  0
  3 13  1  0
  3 14  1  0
  4 15  1  0
  5 16  1  0
  7 17  1  0
  7 18  1  0
  8 19  1  0
M  END
