
     RDKit          3D

 17 19  0  0  0  0  0  0  0  0999 V2000
    2.3508   -0.3375    0.4525 C   0  0  0  0  0  0  0  0  0  0  0  0
    1.1388    0.2313   -0.1629 C   0  0  0  0  0  0  0  0  0  0  0  0
    1.1734    0.8301   -1.4034 O   0  0  0  0  0  0  0  0  0  0  0  0
    0.5436    1.4307   -0.2100 C   0  0  0  0  0  0  0  0  0  0  0  0
   -0.8361    0.8938    0.0180 C   0  0  0  0  0  0  0  0  0  0  0  0
   -1.3529   -0.2873   -0.7126 C   0  0  0  0  0  0  0  0  0  0  0  0
   -2.6194   -0.8567   -0.1739 C   0  0  0  0  0  0  0  0  0  0  0  0
   -2.8439   -0.9072    1.0214 O   0  0  0  0  0  0  0  0  0  0  0  0
   -0.1599   -0.5148    0.1317 C   0  0  0  0  0  0  0  0  0  0  0  0
    2.6627   -1.2395   -0.1487 H   0  0  0  0  0  0  0  0  0  0  0  0
    2.1013   -0.7375    1.4563 H   0  0  0  0  0  0  0  0  0  0  0  0
    3.2242    0.3089    0.5174 H   0  0  0  0  0  0  0  0  0  0  0  0
    0.7848    2.4799   -0.1783 H   0  0  0  0  0  0  0  0  0  0  0  0
   -1.3227    1.2310    0.9340 H   0  0  0  0  0  0  0  0  0  0  0  0
   -1.2390   -0.2843   -1.8137 H   0  0  0  0  0  0  0  0  0  0  0  0
   -3.3837   -1.2455   -0.8350 H   0  0  0  0  0  0  0  0  0  0  0  0
   -0.2221   -0.9955    1.1073 H   0  0  0  0  0  0  0  0  0  0  0  0
  1  2  1  0
  2  3  1  0
  3  4  1  0
  4  5  1  0
  5  6  1  0
  6  7  1  0
  7  8  2  0
  6  9  1  0
  4  2  1  0
  9  5  1  0
  9  2  1  0
  1 10  1  0
  1 11  1  0
  1 12  1  0
  4 13  1  0
  5 14  1  0
  6 15  1  0
  7 16  1  0
  9 17  1  0
M  END
