
     RDKit          3D

 19 21  0  0  0  0  0  0  0  0999 V2000
    2.3166    0.1782    0.5868 C   0  0  0  0  0  0  0  0  0  0  0  0
    0.9648   -0.0570   -0.1010 C   0  0  0  0  0  0  0  0  0  0  0  0
    0.8904   -1.0568   -1.0599 O   0  0  0  0  0  0  0  0  0  0  0  0
    0.2815   -1.2516    0.1467 C   0  0  0  0  0  0  0  0  0  0  0  0
   -1.2104   -1.1305    0.3017 C   0  0  0  0  0  0  0  0  0  0  0  0
   -1.8076   -0.0936   -0.5876 C   0  0  0  0  0  0  0  0  0  0  0  0
   -1.1259    1.2435   -0.4908 C   0  0  0  0  0  0  0  0  0  0  0  0
   -0.5738    1.6450    0.7154 O   0  0  0  0  0  0  0  0  0  0  0  0
    0.2467    1.1998   -0.4068 C   0  0  0  0  0  0  0  0  0  0  0  0
    2.9663    0.6463   -0.1748 H   0  0  0  0  0  0  0  0  0  0  0  0
    2.0788    0.9108    1.4123 H   0  0  0  0  0  0  0  0  0  0  0  0
    2.7114   -0.7405    1.0227 H   0  0  0  0  0  0  0  0  0  0  0  0
    0.7237   -2.0308    0.8168 H   0  0  0  0  0  0  0  0  0  0  0  0
   -1.6978   -2.1037    0.0587 H   0  0  0  0  0  0  0  0  0  0  0  0
   -1.4174   -0.9589    1.3817 H   0  0  0  0  0  0  0  0  0  0  0  0
   -1.7188   -0.4496   -1.6336 H   0  0  0  0  0  0  0  0  0  0  0  0
   -2.8840    0.0024   -0.3284 H   0  0  0  0  0  0  0  0  0  0  0  0
   -1.6473    2.0329   -1.0995 H   0  0  0  0  0  0  0  0  0  0  0  0
    0.9029    2.0142   -0.8253 H   0  0  0  0  0  0  0  0  0  0  0  0
  1  2  1  0
  2  3  1  0
  3  4  1  0
  4  5  1  0
  5  6  1  0
  6  7  1  0
  7  8  1  0
  8  9  1  0
  4  2  1  0
  9  7  1  0
  9  2  1  0
  1 10  1  0
  1 11  1  0
  1 12  1  0
  4 13  1  0
  5 14  1  0
  5 15  1  0
  6 16  1  0
  6 17  1  0
  7 18  1  0
  9 19  1  0
M  END
