
     RDKit          3D

 19 21  0  0  0  0  0  0  0  0999 V2000
   -1.0352   -1.7015    0.7371 C   0  0  0  0  0  0  0  0  0  0  0  0
   -0.6088   -0.4560    0.0324 C   0  0  0  0  0  0  0  0  0  0  0  0
   -1.6707    0.3211   -0.7062 C   0  0  0  0  0  0  0  0  0  0  0  0
   -1.0348    0.8890    0.4885 C   0  0  0  0  0  0  0  0  0  0  0  0
    0.1574    1.7293    0.3624 C   0  0  0  0  0  0  0  0  0  0  0  0
    1.2310    1.0729    0.0156 C   0  0  0  0  0  0  0  0  0  0  0  0
    2.4892    0.3982   -0.3745 C   0  0  0  0  0  0  0  0  0  0  0  0
    1.8761   -0.7308    0.3065 O   0  0  0  0  0  0  0  0  0  0  0  0
    0.7774   -0.3334   -0.4047 C   0  0  0  0  0  0  0  0  0  0  0  0
   -1.0832   -1.5132    1.8151 H   0  0  0  0  0  0  0  0  0  0  0  0
   -0.3374   -2.5457    0.4786 H   0  0  0  0  0  0  0  0  0  0  0  0
   -2.0456   -2.0195    0.3546 H   0  0  0  0  0  0  0  0  0  0  0  0
   -2.7053   -0.0561   -0.5763 H   0  0  0  0  0  0  0  0  0  0  0  0
   -1.4445    0.7512   -1.7035 H   0  0  0  0  0  0  0  0  0  0  0  0
   -1.6055    0.9240    1.4729 H   0  0  0  0  0  0  0  0  0  0  0  0
    0.1447    2.8040    0.5425 H   0  0  0  0  0  0  0  0  0  0  0  0
    2.5141    0.1930   -1.4524 H   0  0  0  0  0  0  0  0  0  0  0  0
    3.3999    0.7319    0.1132 H   0  0  0  0  0  0  0  0  0  0  0  0
    0.9812   -0.4585   -1.5016 H   0  0  0  0  0  0  0  0  0  0  0  0
  1  2  1  0
  2  3  1  0
  3  4  1  0
  4  5  1  0
  5  6  2  0
  6  7  1  0
  7  8  1  0
  8  9  1  0
  4  2  1  0
  9  6  1  0
  9  2  1  0
  1 10  1  0
  1 11  1  0
  1 12  1  0
  3 13  1  0
  3 14  1  0
  4 15  1  0
  5 16  1  0
  7 17  1  0
  7 18  1  0
  9 19  1  0
M  END
