
     RDKit          3D

 17 18  0  0  0  0  0  0  0  0999 V2000
   -0.2414    1.7703   -0.3602 C   0  0  0  0  0  0  0  0  0  0  0  0
   -0.0879    0.3799    0.1276 C   0  0  0  0  0  0  0  0  0  0  0  0
   -1.2935   -0.2599    0.6942 C   0  0  0  0  0  0  0  0  0  0  0  0
   -2.1417    0.1721    1.4377 O   0  0  0  0  0  0  0  0  0  0  0  0
   -1.3021   -1.6503    0.1564 C   0  0  0  0  0  0  0  0  0  0  0  0
   -0.0318   -1.9040   -0.3320 O   0  0  0  0  0  0  0  0  0  0  0  0
    0.5722   -0.6949   -0.6147 C   0  0  0  0  0  0  0  0  0  0  0  0
    1.2594   -0.0520    0.5582 C   0  0  0  0  0  0  0  0  0  0  0  0
    2.3230    0.7954    0.2080 O   0  0  0  0  0  0  0  0  0  0  0  0
    0.6681    2.2223   -0.7568 H   0  0  0  0  0  0  0  0  0  0  0  0
   -1.0348    1.8777   -1.1477 H   0  0  0  0  0  0  0  0  0  0  0  0
   -0.5632    2.4120    0.5089 H   0  0  0  0  0  0  0  0  0  0  0  0
   -2.0035   -1.7479   -0.6994 H   0  0  0  0  0  0  0  0  0  0  0  0
   -1.5779   -2.3098    1.0081 H   0  0  0  0  0  0  0  0  0  0  0  0
    1.0245   -0.6054   -1.5955 H   0  0  0  0  0  0  0  0  0  0  0  0
    1.4187   -0.6070    1.4928 H   0  0  0  0  0  0  0  0  0  0  0  0
    3.0122    0.2015   -0.1890 H   0  0  0  0  0  0  0  0  0  0  0  0
  1  2  1  0
  2  3  1  0
  3  4  2  0
  3  5  1  0
  5  6  1  0
  6  7  1  0
  7  8  1  0
  8  9  1  0
  7  2  1  0
  8  2  1  0
  1 10  1  0
  1 11  1  0
  1 12  1  0
  5 13  1  0
  5 14  1  0
  7 15  1  0
  8 16  1  0
  9 17  1  0
M  END
