
     RDKit          3D

 21 22  0  0  0  0  0  0  0  0999 V2000
   -0.9575   -0.7955    1.0748 C   0  0  0  0  0  0  0  0  0  0  0  0
   -0.8688   -0.4652   -0.3820 C   0  0  0  0  0  0  0  0  0  0  0  0
   -1.8481    0.5037   -0.8834 C   0  0  0  0  0  0  0  0  0  0  0  0
   -0.4800    0.9601   -0.8184 C   0  0  0  0  0  0  0  0  0  0  0  0
    0.2075    1.5650    0.3442 C   0  0  0  0  0  0  0  0  0  0  0  0
    1.2584    0.6360    0.8220 C   0  0  0  0  0  0  0  0  0  0  0  0
    1.6690   -0.5278    0.2760 C   0  0  0  0  0  0  0  0  0  0  0  0
    1.2394   -1.2422   -0.9204 C   0  0  0  0  0  0  0  0  0  0  0  0
   -0.1187   -1.3035   -1.1328 O   0  0  0  0  0  0  0  0  0  0  0  0
   -0.2426   -1.6134    1.3835 H   0  0  0  0  0  0  0  0  0  0  0  0
   -0.9446    0.0541    1.7567 H   0  0  0  0  0  0  0  0  0  0  0  0
   -1.9698   -1.2821    1.2211 H   0  0  0  0  0  0  0  0  0  0  0  0
   -2.5779    0.9329   -0.1811 H   0  0  0  0  0  0  0  0  0  0  0  0
   -2.2826    0.2950   -1.8768 H   0  0  0  0  0  0  0  0  0  0  0  0
    0.0670    1.0786   -1.7783 H   0  0  0  0  0  0  0  0  0  0  0  0
    0.7561    2.4901   -0.0061 H   0  0  0  0  0  0  0  0  0  0  0  0
   -0.4581    1.9348    1.1512 H   0  0  0  0  0  0  0  0  0  0  0  0
    1.7398    0.9672    1.7332 H   0  0  0  0  0  0  0  0  0  0  0  0
    2.4609   -0.9658    0.8758 H   0  0  0  0  0  0  0  0  0  0  0  0
    1.7807   -0.9028   -1.8520 H   0  0  0  0  0  0  0  0  0  0  0  0
    1.5700   -2.3193   -0.8069 H   0  0  0  0  0  0  0  0  0  0  0  0
  1  2  1  0
  2  3  1  0
  3  4  1  0
  4  5  1  0
  5  6  1  0
  6  7  2  0
  7  8  1  0
  8  9  1  0
  4  2  1  0
  9  2  1  0
  1 10  1  0
  1 11  1  0
  1 12  1  0
  3 13  1  0
  3 14  1  0
  4 15  1  0
  5 16  1  0
  5 17  1  0
  6 18  1  0
  7 19  1  0
  8 20  1  0
  8 21  1  0
M  END
