
     RDKit          3D

 19 20  0  0  0  0  0  0  0  0999 V2000
   -0.4011   -1.1023    0.8986 C   0  0  0  0  0  0  0  0  0  0  0  0
   -0.2911   -0.4262   -0.4819 C   0  0  0  0  0  0  0  0  0  0  0  0
   -1.5382    0.3827   -0.7219 C   0  0  0  0  0  0  0  0  0  0  0  0
   -1.3561    1.1963    0.5665 C   0  0  0  0  0  0  0  0  0  0  0  0
   -0.0519    1.4495    0.6318 C   0  0  0  0  0  0  0  0  0  0  0  0
    0.5870    0.8677   -0.5106 C   0  0  0  0  0  0  0  0  0  0  0  0
    1.0113   -0.3825   -0.9840 C   0  0  0  0  0  0  0  0  0  0  0  0
    2.1697   -1.0045   -0.2539 C   0  0  0  0  0  0  0  0  0  0  0  0
    2.3016   -0.9252    0.9568 O   0  0  0  0  0  0  0  0  0  0  0  0
   -1.4429   -1.4143    1.1070 H   0  0  0  0  0  0  0  0  0  0  0  0
    0.2293   -2.0019    0.8700 H   0  0  0  0  0  0  0  0  0  0  0  0
   -0.0741   -0.4536    1.7018 H   0  0  0  0  0  0  0  0  0  0  0  0
   -1.4761    1.0673   -1.5898 H   0  0  0  0  0  0  0  0  0  0  0  0
   -2.4684   -0.2118   -0.6774 H   0  0  0  0  0  0  0  0  0  0  0  0
   -2.1302    1.4937    1.2637 H   0  0  0  0  0  0  0  0  0  0  0  0
    0.4625    2.0141    1.4308 H   0  0  0  0  0  0  0  0  0  0  0  0
    0.4005    1.5991   -1.3714 H   0  0  0  0  0  0  0  0  0  0  0  0
    1.1081   -0.5877   -2.0938 H   0  0  0  0  0  0  0  0  0  0  0  0
    2.9601   -1.5604   -0.7423 H   0  0  0  0  0  0  0  0  0  0  0  0
  1  2  1  0
  2  3  1  0
  3  4  1  0
  4  5  2  0
  5  6  1  0
  6  7  1  0
  7  8  1  0
  8  9  2  0
  6  2  1  0
  7  2  1  0
  1 10  1  0
  1 11  1  0
  1 12  1  0
  3 13  1  0
  3 14  1  0
  4 15  1  0
  5 16  1  0
  6 17  1  0
  7 18  1  0
  8 19  1  0
M  END
