
     RDKit          3D

 20 21  0  0  0  0  0  0  0  0999 V2000
   -1.7254    1.0596    0.3608 C   0  0  0  0  0  0  0  0  0  0  0  0
   -0.4914    0.2742    0.1406 C   0  0  0  0  0  0  0  0  0  0  0  0
    0.8047    1.0267    0.2615 C   0  0  0  0  0  0  0  0  0  0  0  0
    1.8519    0.2600   -0.5133 C   0  0  0  0  0  0  0  0  0  0  0  0
    1.7308   -1.0832   -0.2455 O   0  0  0  0  0  0  0  0  0  0  0  0
    0.4318   -1.5462   -0.2167 C   0  0  0  0  0  0  0  0  0  0  0  0
   -0.3421   -0.9903    0.9916 C   0  0  0  0  0  0  0  0  0  0  0  0
   -0.5000   -0.6612   -1.0593 C   0  0  0  0  0  0  0  0  0  0  0  0
   -1.9843    1.5700   -0.6132 H   0  0  0  0  0  0  0  0  0  0  0  0
   -2.5928    0.4879    0.6824 H   0  0  0  0  0  0  0  0  0  0  0  0
   -1.4770    1.9091    1.0505 H   0  0  0  0  0  0  0  0  0  0  0  0
    0.7410    2.0819    0.0010 H   0  0  0  0  0  0  0  0  0  0  0  0
    1.0957    0.9607    1.3491 H   0  0  0  0  0  0  0  0  0  0  0  0
    1.8248    0.5026   -1.6009 H   0  0  0  0  0  0  0  0  0  0  0  0
    2.8414    0.5889   -0.1064 H   0  0  0  0  0  0  0  0  0  0  0  0
    0.3145   -2.6143   -0.3820 H   0  0  0  0  0  0  0  0  0  0  0  0
   -1.2719   -1.5460    1.1297 H   0  0  0  0  0  0  0  0  0  0  0  0
    0.3121   -0.8654    1.8688 H   0  0  0  0  0  0  0  0  0  0  0  0
   -1.4991   -1.1416   -1.1244 H   0  0  0  0  0  0  0  0  0  0  0  0
   -0.0646   -0.2735   -1.9744 H   0  0  0  0  0  0  0  0  0  0  0  0
  1  2  1  0
  2  3  1  0
  3  4  1  0
  4  5  1  0
  5  6  1  0
  6  7  1  0
  6  8  1  0
  7  2  1  0
  8  2  1  0
  1  9  1  0
  1 10  1  0
  1 11  1  0
  3 12  1  0
  3 13  1  0
  4 14  1  0
  4 15  1  0
  6 16  1  0
  7 17  1  0
  7 18  1  0
  8 19  1  0
  8 20  1  0
M  END
