
     RDKit          3D

 18 19  0  0  0  0  0  0  0  0999 V2000
   -1.3628   -1.1481    0.3591 C   0  0  0  0  0  0  0  0  0  0  0  0
   -0.0540   -0.4216    0.4704 C   0  0  0  0  0  0  0  0  0  0  0  0
   -0.2018    1.0448    0.8017 C   0  0  0  0  0  0  0  0  0  0  0  0
   -0.3838    1.6193   -0.6097 C   0  0  0  0  0  0  0  0  0  0  0  0
    0.5160    0.9099   -1.3588 O   0  0  0  0  0  0  0  0  0  0  0  0
    0.6042   -0.3696   -0.8865 C   0  0  0  0  0  0  0  0  0  0  0  0
    1.7869   -0.7234   -0.0475 C   0  0  0  0  0  0  0  0  0  0  0  0
    0.9899   -1.0841    1.0471 O   0  0  0  0  0  0  0  0  0  0  0  0
   -1.1371   -2.2141    0.1696 H   0  0  0  0  0  0  0  0  0  0  0  0
   -1.8576   -0.7616   -0.5804 H   0  0  0  0  0  0  0  0  0  0  0  0
   -2.0509   -0.9639    1.1846 H   0  0  0  0  0  0  0  0  0  0  0  0
    0.6942    1.4617    1.2921 H   0  0  0  0  0  0  0  0  0  0  0  0
   -1.0648    1.2636    1.4437 H   0  0  0  0  0  0  0  0  0  0  0  0
   -0.1442    2.7045   -0.6199 H   0  0  0  0  0  0  0  0  0  0  0  0
   -1.4500    1.4172   -0.8664 H   0  0  0  0  0  0  0  0  0  0  0  0
    0.2966   -1.1774   -1.5945 H   0  0  0  0  0  0  0  0  0  0  0  0
    2.3200   -1.6565   -0.3853 H   0  0  0  0  0  0  0  0  0  0  0  0
    2.4990    0.0992    0.1808 H   0  0  0  0  0  0  0  0  0  0  0  0
  1  2  1  0
  2  3  1  0
  3  4  1  0
  4  5  1  0
  5  6  1  0
  6  7  1  0
  7  8  1  0
  6  2  1  0
  8  2  1  0
  1  9  1  0
  1 10  1  0
  1 11  1  0
  3 12  1  0
  3 13  1  0
  4 14  1  0
  4 15  1  0
  6 16  1  0
  7 17  1  0
  7 18  1  0
M  END
