
     RDKit          3D

 21 22  0  0  0  0  0  0  0  0999 V2000
   -0.9527   -1.6936    0.3079 C   0  0  0  0  0  0  0  0  0  0  0  0
   -0.3543   -0.3247    0.1827 C   0  0  0  0  0  0  0  0  0  0  0  0
   -1.3376    0.7802    0.3406 C   0  0  0  0  0  0  0  0  0  0  0  0
   -0.7712    1.4362   -0.8933 C   0  0  0  0  0  0  0  0  0  0  0  0
   -0.0327    0.1530   -1.1895 C   0  0  0  0  0  0  0  0  0  0  0  0
    1.3358    0.4009   -1.2487 O   0  0  0  0  0  0  0  0  0  0  0  0
    1.7457    0.7446    0.0275 C   0  0  0  0  0  0  0  0  0  0  0  0
    0.9305   -0.1762    0.9245 C   0  0  0  0  0  0  0  0  0  0  0  0
    1.5846   -1.4165    0.9001 O   0  0  0  0  0  0  0  0  0  0  0  0
   -1.8884   -1.8215   -0.2375 H   0  0  0  0  0  0  0  0  0  0  0  0
   -1.1481   -1.8662    1.3961 H   0  0  0  0  0  0  0  0  0  0  0  0
   -0.2630   -2.4954   -0.0108 H   0  0  0  0  0  0  0  0  0  0  0  0
   -2.4169    0.5080    0.2671 H   0  0  0  0  0  0  0  0  0  0  0  0
   -1.2056    1.3838    1.2786 H   0  0  0  0  0  0  0  0  0  0  0  0
   -1.4866    1.6508   -1.7012 H   0  0  0  0  0  0  0  0  0  0  0  0
   -0.1552    2.3051   -0.6415 H   0  0  0  0  0  0  0  0  0  0  0  0
   -0.4116   -0.4496   -2.0208 H   0  0  0  0  0  0  0  0  0  0  0  0
    1.6003    1.8097    0.2719 H   0  0  0  0  0  0  0  0  0  0  0  0
    2.8228    0.5289    0.1778 H   0  0  0  0  0  0  0  0  0  0  0  0
    0.7969    0.2236    1.9294 H   0  0  0  0  0  0  0  0  0  0  0  0
    1.6074   -1.6810   -0.0610 H   0  0  0  0  0  0  0  0  0  0  0  0
  1  2  1  0
  2  3  1  0
  3  4  1  0
  4  5  1  0
  5  6  1  0
  6  7  1  0
  7  8  1  0
  8  9  1  0
  5  2  1  0
  8  2  1  0
  1 10  1  0
  1 11  1  0
  1 12  1  0
  3 13  1  0
  3 14  1  0
  4 15  1  0
  4 16  1  0
  5 17  1  0
  7 18  1  0
  7 19  1  0
  8 20  1  0
  9 21  1  0
M  END
