
     RDKit          3D

 21 22  0  0  0  0  0  0  0  0999 V2000
    2.2719   -0.3069    0.1740 C   0  0  0  0  0  0  0  0  0  0  0  0
    0.8615   -0.0419   -0.0803 C   0  0  0  0  0  0  0  0  0  0  0  0
    0.5198    1.2060   -0.7709 C   0  0  0  0  0  0  0  0  0  0  0  0
   -0.7689    1.4402   -0.5328 C   0  0  0  0  0  0  0  0  0  0  0  0
   -1.2845    0.3656    0.3917 C   0  0  0  0  0  0  0  0  0  0  0  0
   -2.3367    0.7260    1.1398 O   0  0  0  0  0  0  0  0  0  0  0  0
   -1.3616   -0.9550   -0.3066 C   0  0  0  0  0  0  0  0  0  0  0  0
    0.0857   -1.1561   -0.7474 C   0  0  0  0  0  0  0  0  0  0  0  0
    0.0108    0.1373    1.1920 C   0  0  0  0  0  0  0  0  0  0  0  0
    2.3472   -0.9816    1.0772 H   0  0  0  0  0  0  0  0  0  0  0  0
    2.8194    0.6355    0.3240 H   0  0  0  0  0  0  0  0  0  0  0  0
    2.7052   -0.9034   -0.6564 H   0  0  0  0  0  0  0  0  0  0  0  0
    1.1593    1.8358   -1.3632 H   0  0  0  0  0  0  0  0  0  0  0  0
   -1.3367    2.2675   -0.9418 H   0  0  0  0  0  0  0  0  0  0  0  0
   -2.9396    1.3026    0.6054 H   0  0  0  0  0  0  0  0  0  0  0  0
   -2.0603   -0.9737   -1.1511 H   0  0  0  0  0  0  0  0  0  0  0  0
   -1.5612   -1.7304    0.4621 H   0  0  0  0  0  0  0  0  0  0  0  0
    0.4656   -2.1614   -0.4618 H   0  0  0  0  0  0  0  0  0  0  0  0
    0.1562   -0.9940   -1.8436 H   0  0  0  0  0  0  0  0  0  0  0  0
    0.2768    1.0544    1.7069 H   0  0  0  0  0  0  0  0  0  0  0  0
   -0.0298   -0.7668    1.7832 H   0  0  0  0  0  0  0  0  0  0  0  0
  1  2  1  0
  2  3  1  0
  3  4  2  0
  4  5  1  0
  5  6  1  0
  5  7  1  0
  7  8  1  0
  5  9  1  0
  8  2  1  0
  9  2  1  0
  1 10  1  0
  1 11  1  0
  1 12  1  0
  3 13  1  0
  4 14  1  0
  6 15  1  0
  7 16  1  0
  7 17  1  0
  8 18  1  0
  8 19  1  0
  9 20  1  0
  9 21  1  0
M  END
