
     RDKit          3D

 21 22  0  0  0  0  0  0  0  0999 V2000
   -2.2372   -0.4483   -0.1915 C   0  0  0  0  0  0  0  0  0  0  0  0
   -0.8872   -0.2734   -0.0996 C   0  0  0  0  0  0  0  0  0  0  0  0
    0.1433   -0.6239   -1.1698 C   0  0  0  0  0  0  0  0  0  0  0  0
    0.9522   -0.0328   -0.0249 C   0  0  0  0  0  0  0  0  0  0  0  0
    2.3054    0.1309    0.0198 C   0  0  0  0  0  0  0  0  0  0  0  0
    0.0803   -0.8654    0.8727 C   0  0  0  0  0  0  0  0  0  0  0  0
    0.0621   -0.3616    2.1583 O   0  0  0  0  0  0  0  0  0  0  0  0
   -0.1224    1.0133    0.0490 C   0  0  0  0  0  0  0  0  0  0  0  0
   -0.1395    1.8218   -1.0689 O   0  0  0  0  0  0  0  0  0  0  0  0
   -2.6290   -0.5660   -1.2463 H   0  0  0  0  0  0  0  0  0  0  0  0
   -2.6119   -1.3824    0.3239 H   0  0  0  0  0  0  0  0  0  0  0  0
   -2.8505    0.4124    0.2118 H   0  0  0  0  0  0  0  0  0  0  0  0
    0.2652   -1.7091   -1.3067 H   0  0  0  0  0  0  0  0  0  0  0  0
    0.1049   -0.0020   -2.0745 H   0  0  0  0  0  0  0  0  0  0  0  0
    2.6526    1.1020    0.4715 H   0  0  0  0  0  0  0  0  0  0  0  0
    2.8620   -0.6500    0.5989 H   0  0  0  0  0  0  0  0  0  0  0  0
    2.8104    0.1211   -0.9925 H   0  0  0  0  0  0  0  0  0  0  0  0
    0.2452   -1.9391    0.8419 H   0  0  0  0  0  0  0  0  0  0  0  0
   -0.7815    0.0512    2.4059 H   0  0  0  0  0  0  0  0  0  0  0  0
   -0.3141    1.4724    1.0161 H   0  0  0  0  0  0  0  0  0  0  0  0
    0.0896    2.7290   -0.7948 H   0  0  0  0  0  0  0  0  0  0  0  0
  1  2  1  0
  2  3  1  0
  3  4  1  0
  4  5  1  0
  4  6  1  0
  6  7  1  0
  4  8  1  0
  8  9  1  0
  6  2  1  0
  8  2  1  0
  1 10  1  0
  1 11  1  0
  1 12  1  0
  3 13  1  0
  3 14  1  0
  5 15  1  0
  5 16  1  0
  5 17  1  0
  6 18  1  0
  7 19  1  0
  8 20  1  0
  9 21  1  0
M  END
