
     RDKit          3D

 21 23  0  0  0  0  0  0  0  0999 V2000
    2.4774   -0.3012    0.3368 C   0  0  0  0  0  0  0  0  0  0  0  0
    1.0170    0.0277    0.2730 C   0  0  0  0  0  0  0  0  0  0  0  0
    0.6036    1.4352    0.4964 C   0  0  0  0  0  0  0  0  0  0  0  0
   -0.4373    1.7436   -0.2560 C   0  0  0  0  0  0  0  0  0  0  0  0
   -0.8400    0.5746   -1.0707 C   0  0  0  0  0  0  0  0  0  0  0  0
   -2.0040   -0.0822   -0.3458 C   0  0  0  0  0  0  0  0  0  0  0  0
   -1.3708   -0.9096    0.7453 C   0  0  0  0  0  0  0  0  0  0  0  0
    0.0695   -1.0915    0.4079 C   0  0  0  0  0  0  0  0  0  0  0  0
    0.2467   -0.4508   -0.8907 C   0  0  0  0  0  0  0  0  0  0  0  0
    3.0603    0.5478    0.7976 H   0  0  0  0  0  0  0  0  0  0  0  0
    2.8784   -0.4564   -0.6851 H   0  0  0  0  0  0  0  0  0  0  0  0
    2.6664   -1.1863    0.9556 H   0  0  0  0  0  0  0  0  0  0  0  0
    1.0756    2.1290    1.1764 H   0  0  0  0  0  0  0  0  0  0  0  0
   -0.9097    2.7100   -0.2616 H   0  0  0  0  0  0  0  0  0  0  0  0
   -1.0657    0.8113   -2.1157 H   0  0  0  0  0  0  0  0  0  0  0  0
   -2.6155    0.6951    0.1546 H   0  0  0  0  0  0  0  0  0  0  0  0
   -2.5780   -0.6680   -1.0687 H   0  0  0  0  0  0  0  0  0  0  0  0
   -1.5492   -0.5108    1.7560 H   0  0  0  0  0  0  0  0  0  0  0  0
   -1.8710   -1.9111    0.7076 H   0  0  0  0  0  0  0  0  0  0  0  0
    0.4905   -2.0925    0.6045 H   0  0  0  0  0  0  0  0  0  0  0  0
    0.6555   -1.0140   -1.7174 H   0  0  0  0  0  0  0  0  0  0  0  0
  1  2  1  0
  2  3  1  0
  3  4  2  0
  4  5  1  0
  5  6  1  0
  6  7  1  0
  7  8  1  0
  8  9  1  0
  8  2  1  0
  9  2  1  0
  9  5  1  0
  1 10  1  0
  1 11  1  0
  1 12  1  0
  3 13  1  0
  4 14  1  0
  5 15  1  0
  6 16  1  0
  6 17  1  0
  7 18  1  0
  7 19  1  0
  8 20  1  0
  9 21  1  0
M  END
