
     RDKit          3D

 23 25  0  0  0  0  0  0  0  0999 V2000
   -1.3804   -1.5405   -0.4799 C   0  0  0  0  0  0  0  0  0  0  0  0
   -0.7185   -0.3328    0.0563 C   0  0  0  0  0  0  0  0  0  0  0  0
   -1.1712    0.9884   -0.4640 C   0  0  0  0  0  0  0  0  0  0  0  0
    0.0419    1.8983   -0.3486 C   0  0  0  0  0  0  0  0  0  0  0  0
    1.0579    1.1884    0.4541 C   0  0  0  0  0  0  0  0  0  0  0  0
    0.8083    0.1288    1.4115 C   0  0  0  0  0  0  0  0  0  0  0  0
   -0.6381   -0.3015    1.5897 C   0  0  0  0  0  0  0  0  0  0  0  0
    0.7587   -0.2681    0.0378 C   0  0  0  0  0  0  0  0  0  0  0  0
    1.6784   -0.8993   -0.8500 C   0  0  0  0  0  0  0  0  0  0  0  0
   -0.8865   -2.4464   -0.1207 H   0  0  0  0  0  0  0  0  0  0  0  0
   -1.3987   -1.5015   -1.5706 H   0  0  0  0  0  0  0  0  0  0  0  0
   -2.4291   -1.5747   -0.0690 H   0  0  0  0  0  0  0  0  0  0  0  0
   -1.5606    0.9539   -1.4974 H   0  0  0  0  0  0  0  0  0  0  0  0
   -1.9860    1.3829    0.1897 H   0  0  0  0  0  0  0  0  0  0  0  0
    0.4421    1.9873   -1.4023 H   0  0  0  0  0  0  0  0  0  0  0  0
   -0.2034    2.9106   -0.0321 H   0  0  0  0  0  0  0  0  0  0  0  0
    2.1131    1.5152    0.3186 H   0  0  0  0  0  0  0  0  0  0  0  0
    1.5748   -0.1726    2.1064 H   0  0  0  0  0  0  0  0  0  0  0  0
   -1.2403    0.5097    2.0406 H   0  0  0  0  0  0  0  0  0  0  0  0
   -0.7686   -1.2752    2.0700 H   0  0  0  0  0  0  0  0  0  0  0  0
    2.4567   -1.5322   -0.3480 H   0  0  0  0  0  0  0  0  0  0  0  0
    2.2834   -0.1337   -1.4223 H   0  0  0  0  0  0  0  0  0  0  0  0
    1.1663   -1.4849   -1.6697 H   0  0  0  0  0  0  0  0  0  0  0  0
  1  2  1  0
  2  3  1  0
  3  4  1  0
  4  5  1  0
  5  6  1  0
  6  7  1  0
  6  8  1  0
  8  9  1  0
  7  2  1  0
  8  2  1  0
  8  5  1  0
  1 10  1  0
  1 11  1  0
  1 12  1  0
  3 13  1  0
  3 14  1  0
  4 15  1  0
  4 16  1  0
  5 17  1  0
  6 18  1  0
  7 19  1  0
  7 20  1  0
  9 21  1  0
  9 22  1  0
  9 23  1  0
M  END
