
     RDKit          3D

 19 22  0  0  0  0  0  0  0  0999 V2000
   -2.3315   -0.0635   -0.4858 C   0  0  0  0  0  0  0  0  0  0  0  0
   -0.8613    0.1091   -0.2385 C   0  0  0  0  0  0  0  0  0  0  0  0
   -0.3552    1.4702   -0.0340 C   0  0  0  0  0  0  0  0  0  0  0  0
    0.9499    1.6826   -0.1715 C   0  0  0  0  0  0  0  0  0  0  0  0
    1.8779    0.5106    0.0456 C   0  0  0  0  0  0  0  0  0  0  0  0
    1.2808   -0.5777    0.8166 C   0  0  0  0  0  0  0  0  0  0  0  0
    1.4832   -0.6819   -0.6784 C   0  0  0  0  0  0  0  0  0  0  0  0
    0.0285   -0.8257   -0.9224 C   0  0  0  0  0  0  0  0  0  0  0  0
   -0.1584   -0.8426    0.6224 C   0  0  0  0  0  0  0  0  0  0  0  0
   -2.5385   -0.1871   -1.5875 H   0  0  0  0  0  0  0  0  0  0  0  0
   -2.9240    0.8378   -0.1888 H   0  0  0  0  0  0  0  0  0  0  0  0
   -2.7153   -0.9643    0.0112 H   0  0  0  0  0  0  0  0  0  0  0  0
   -1.0698    2.2482    0.2215 H   0  0  0  0  0  0  0  0  0  0  0  0
    1.3636    2.6567   -0.4308 H   0  0  0  0  0  0  0  0  0  0  0  0
    2.9380    0.7121    0.1910 H   0  0  0  0  0  0  0  0  0  0  0  0
    1.8534   -1.2130    1.5028 H   0  0  0  0  0  0  0  0  0  0  0  0
    2.1463   -1.4361   -1.0923 H   0  0  0  0  0  0  0  0  0  0  0  0
   -0.3856   -1.6736   -1.4599 H   0  0  0  0  0  0  0  0  0  0  0  0
   -0.5819   -1.7618    1.0181 H   0  0  0  0  0  0  0  0  0  0  0  0
  1  2  1  0
  2  3  1  0
  3  4  2  0
  4  5  1  0
  5  6  1  0
  6  7  1  0
  7  8  1  0
  8  9  1  0
  8  2  1  0
  9  2  1  0
  7  5  1  0
  9  6  1  0
  1 10  1  0
  1 11  1  0
  1 12  1  0
  3 13  1  0
  4 14  1  0
  5 15  1  0
  6 16  1  0
  7 17  1  0
  8 18  1  0
  9 19  1  0
M  END
