
     RDKit          3D

 19 20  0  0  0  0  0  0  0  0999 V2000
   -1.0827   -1.0770    0.8158 C   0  0  0  0  0  0  0  0  0  0  0  0
   -0.6660   -0.2498   -0.3482 C   0  0  0  0  0  0  0  0  0  0  0  0
    0.5587   -0.7041   -1.0771 C   0  0  0  0  0  0  0  0  0  0  0  0
    1.6782    0.0626   -0.3741 C   0  0  0  0  0  0  0  0  0  0  0  0
    2.0303   -0.5505    0.8119 O   0  0  0  0  0  0  0  0  0  0  0  0
    0.9758    1.3415   -0.0169 C   0  0  0  0  0  0  0  0  0  0  0  0
   -0.3233    1.1918    0.0020 C   0  0  0  0  0  0  0  0  0  0  0  0
   -1.7949    1.1924    0.0654 C   0  0  0  0  0  0  0  0  0  0  0  0
   -1.6985    0.3267   -1.0671 O   0  0  0  0  0  0  0  0  0  0  0  0
   -0.8501   -0.6563    1.7934 H   0  0  0  0  0  0  0  0  0  0  0  0
   -0.5197   -2.0535    0.7493 H   0  0  0  0  0  0  0  0  0  0  0  0
   -2.1582   -1.3582    0.7245 H   0  0  0  0  0  0  0  0  0  0  0  0
    0.7198   -1.7683   -0.8089 H   0  0  0  0  0  0  0  0  0  0  0  0
    0.5505   -0.5728   -2.1528 H   0  0  0  0  0  0  0  0  0  0  0  0
    2.5197    0.2469   -1.0429 H   0  0  0  0  0  0  0  0  0  0  0  0
    3.0148   -0.4556    0.9269 H   0  0  0  0  0  0  0  0  0  0  0  0
    1.5306    2.2467    0.1897 H   0  0  0  0  0  0  0  0  0  0  0  0
   -2.3040    2.1420   -0.1514 H   0  0  0  0  0  0  0  0  0  0  0  0
   -2.1810    0.6954    0.9605 H   0  0  0  0  0  0  0  0  0  0  0  0
  1  2  1  0
  2  3  1  0
  3  4  1  0
  4  5  1  0
  4  6  1  0
  6  7  2  0
  7  8  1  0
  8  9  1  0
  7  2  1  0
  9  2  1  0
  1 10  1  0
  1 11  1  0
  1 12  1  0
  3 13  1  0
  3 14  1  0
  4 15  1  0
  5 16  1  0
  6 17  1  0
  8 18  1  0
  8 19  1  0
M  END
