
     RDKit          3D

 16 17  0  0  0  0  0  0  0  0999 V2000
   -1.3352    0.6461    0.9792 C   0  0  0  0  0  0  0  0  0  0  0  0
   -0.5056    0.3424   -0.2049 C   0  0  0  0  0  0  0  0  0  0  0  0
    0.5730    1.1972   -0.7100 C   0  0  0  0  0  0  0  0  0  0  0  0
    0.9426   -0.0565   -0.0583 C   0  0  0  0  0  0  0  0  0  0  0  0
    1.5620    0.0343    1.1797 O   0  0  0  0  0  0  0  0  0  0  0  0
    0.5145   -1.4047   -0.5022 C   0  0  0  0  0  0  0  0  0  0  0  0
   -0.7737   -0.8839   -1.0210 C   0  0  0  0  0  0  0  0  0  0  0  0
   -1.6596   -1.2275   -1.7498 O   0  0  0  0  0  0  0  0  0  0  0  0
   -1.5294    1.7068    1.1765 H   0  0  0  0  0  0  0  0  0  0  0  0
   -0.9015    0.1212    1.8763 H   0  0  0  0  0  0  0  0  0  0  0  0
   -2.3468    0.1644    0.8513 H   0  0  0  0  0  0  0  0  0  0  0  0
    0.7646    2.1319   -0.1780 H   0  0  0  0  0  0  0  0  0  0  0  0
    0.7059    1.2736   -1.8076 H   0  0  0  0  0  0  0  0  0  0  0  0
    2.5518   -0.0518    0.9943 H   0  0  0  0  0  0  0  0  0  0  0  0
    1.1462   -1.9407   -1.2217 H   0  0  0  0  0  0  0  0  0  0  0  0
    0.2912   -2.0529    0.3962 H   0  0  0  0  0  0  0  0  0  0  0  0
  1  2  1  0
  2  3  1  0
  3  4  1  0
  4  5  1  0
  4  6  1  0
  6  7  1  0
  7  8  2  0
  4  2  1  0
  7  2  1  0
  1  9  1  0
  1 10  1  0
  1 11  1  0
  3 12  1  0
  3 13  1  0
  5 14  1  0
  6 15  1  0
  6 16  1  0
M  END
