
     RDKit          3D

 17 18  0  0  0  0  0  0  0  0999 V2000
   -1.9108   -0.3157    0.4549 C   0  0  0  0  0  0  0  0  0  0  0  0
   -0.4712   -0.3933    0.0297 C   0  0  0  0  0  0  0  0  0  0  0  0
   -0.1963    0.0835   -1.3569 C   0  0  0  0  0  0  0  0  0  0  0  0
    0.3414    0.8178   -0.1871 C   0  0  0  0  0  0  0  0  0  0  0  0
   -0.1076    2.0793    0.1398 O   0  0  0  0  0  0  0  0  0  0  0  0
    1.7422    0.4996    0.1674 C   0  0  0  0  0  0  0  0  0  0  0  0
    1.7741   -0.7250    0.6521 C   0  0  0  0  0  0  0  0  0  0  0  0
    0.4492   -1.3311    0.6719 C   0  0  0  0  0  0  0  0  0  0  0  0
    0.1730   -2.4766    1.1680 O   0  0  0  0  0  0  0  0  0  0  0  0
   -2.3209    0.6433    0.0975 H   0  0  0  0  0  0  0  0  0  0  0  0
   -2.0684   -0.3882    1.5317 H   0  0  0  0  0  0  0  0  0  0  0  0
   -2.4568   -1.1123   -0.1174 H   0  0  0  0  0  0  0  0  0  0  0  0
   -1.0054    0.5794   -1.9185 H   0  0  0  0  0  0  0  0  0  0  0  0
    0.4295   -0.5906   -1.9629 H   0  0  0  0  0  0  0  0  0  0  0  0
    0.3886    2.7281   -0.4225 H   0  0  0  0  0  0  0  0  0  0  0  0
    2.5692    1.1716    0.0401 H   0  0  0  0  0  0  0  0  0  0  0  0
    2.6701   -1.2698    1.0124 H   0  0  0  0  0  0  0  0  0  0  0  0
  1  2  1  0
  2  3  1  0
  3  4  1  0
  4  5  1  0
  4  6  1  0
  6  7  2  0
  7  8  1  0
  8  9  2  0
  4  2  1  0
  8  2  1  0
  1 10  1  0
  1 11  1  0
  1 12  1  0
  3 13  1  0
  3 14  1  0
  5 15  1  0
  6 16  1  0
  7 17  1  0
M  END
