
     RDKit          3D

 21 23  0  0  0  0  0  0  0  0999 V2000
    2.5947   -0.1386   -0.3105 C   0  0  0  0  0  0  0  0  0  0  0  0
    1.1245   -0.1392   -0.1007 C   0  0  0  0  0  0  0  0  0  0  0  0
    0.5662   -0.4108    1.3084 C   0  0  0  0  0  0  0  0  0  0  0  0
   -0.5118    0.6099    0.9676 C   0  0  0  0  0  0  0  0  0  0  0  0
   -1.8232    0.0279    0.5265 C   0  0  0  0  0  0  0  0  0  0  0  0
   -2.0318   -0.0417   -0.9422 C   0  0  0  0  0  0  0  0  0  0  0  0
   -0.9476    0.2149   -1.7402 O   0  0  0  0  0  0  0  0  0  0  0  0
    0.2564   -0.2477   -1.2570 C   0  0  0  0  0  0  0  0  0  0  0  0
    0.2869    0.8823   -0.2678 C   0  0  0  0  0  0  0  0  0  0  0  0
    3.0364   -1.0319    0.2178 H   0  0  0  0  0  0  0  0  0  0  0  0
    3.1089    0.7465    0.1617 H   0  0  0  0  0  0  0  0  0  0  0  0
    2.8257   -0.2550   -1.3665 H   0  0  0  0  0  0  0  0  0  0  0  0
    0.2301   -1.4504    1.3554 H   0  0  0  0  0  0  0  0  0  0  0  0
    1.2680   -0.1087    2.0944 H   0  0  0  0  0  0  0  0  0  0  0  0
   -0.5251    1.4700    1.6328 H   0  0  0  0  0  0  0  0  0  0  0  0
   -2.6240    0.7030    0.9477 H   0  0  0  0  0  0  0  0  0  0  0  0
   -2.0180   -0.9588    1.0362 H   0  0  0  0  0  0  0  0  0  0  0  0
   -2.8519    0.6545   -1.2923 H   0  0  0  0  0  0  0  0  0  0  0  0
   -2.4600   -1.0638   -1.1687 H   0  0  0  0  0  0  0  0  0  0  0  0
    0.0030   -1.3191   -1.1383 H   0  0  0  0  0  0  0  0  0  0  0  0
    0.4929    1.8565   -0.6644 H   0  0  0  0  0  0  0  0  0  0  0  0
  1  2  1  0
  2  3  1  0
  3  4  1  0
  4  5  1  0
  5  6  1  0
  6  7  1  0
  7  8  1  0
  8  9  1  0
  8  2  1  0
  9  2  1  0
  9  4  1  0
  1 10  1  0
  1 11  1  0
  1 12  1  0
  3 13  1  0
  3 14  1  0
  4 15  1  0
  5 16  1  0
  5 17  1  0
  6 18  1  0
  6 19  1  0
  8 20  1  0
  9 21  1  0
M  END
