
     RDKit          3D

 16 17  0  0  0  0  0  0  0  0999 V2000
   -1.9651   -0.0871   -0.3613 C   0  0  0  0  0  0  0  0  0  0  0  0
   -0.5585   -0.1154   -0.0295 C   0  0  0  0  0  0  0  0  0  0  0  0
    0.1334    1.1495    0.4199 C   0  0  0  0  0  0  0  0  0  0  0  0
    1.0104    0.1063    1.0342 C   0  0  0  0  0  0  0  0  0  0  0  0
    1.6826   -0.5164   -0.1928 C   0  0  0  0  0  0  0  0  0  0  0  0
    0.4103   -0.7973   -0.9076 C   0  0  0  0  0  0  0  0  0  0  0  0
    0.2169   -1.4011   -1.9072 O   0  0  0  0  0  0  0  0  0  0  0  0
   -0.1729   -0.6437    1.2263 O   0  0  0  0  0  0  0  0  0  0  0  0
   -2.2152   -0.9164   -1.0718 H   0  0  0  0  0  0  0  0  0  0  0  0
   -2.2520    0.9061   -0.7618 H   0  0  0  0  0  0  0  0  0  0  0  0
   -2.5716   -0.3086    0.5540 H   0  0  0  0  0  0  0  0  0  0  0  0
    0.6569    1.7105   -0.3700 H   0  0  0  0  0  0  0  0  0  0  0  0
   -0.5088    1.7253    1.0886 H   0  0  0  0  0  0  0  0  0  0  0  0
    1.6099    0.3215    1.8800 H   0  0  0  0  0  0  0  0  0  0  0  0
    2.2690    0.2823   -0.6582 H   0  0  0  0  0  0  0  0  0  0  0  0
    2.2544   -1.4154    0.0574 H   0  0  0  0  0  0  0  0  0  0  0  0
  1  2  1  0
  2  3  1  0
  3  4  1  0
  4  5  1  0
  5  6  1  0
  6  7  2  0
  4  8  1  0
  6  2  1  0
  8  2  1  0
  1  9  1  0
  1 10  1  0
  1 11  1  0
  3 12  1  0
  3 13  1  0
  4 14  1  0
  5 15  1  0
  5 16  1  0
M  END
