
     RDKit          3D

 19 21  0  0  0  0  0  0  0  0999 V2000
   -2.2554   -0.6289    0.1704 C   0  0  0  0  0  0  0  0  0  0  0  0
   -0.8734   -0.0129   -0.0902 C   0  0  0  0  0  0  0  0  0  0  0  0
   -0.9180    1.5198   -0.1482 C   0  0  0  0  0  0  0  0  0  0  0  0
   -0.2507    0.7669    0.9492 C   0  0  0  0  0  0  0  0  0  0  0  0
    1.0946    0.8402    1.0291 O   0  0  0  0  0  0  0  0  0  0  0  0
    1.8335    0.3006    0.0442 C   0  0  0  0  0  0  0  0  0  0  0  0
    2.0762   -1.1941    0.0747 C   0  0  0  0  0  0  0  0  0  0  0  0
    1.2122   -0.4866   -0.9882 C   0  0  0  0  0  0  0  0  0  0  0  0
   -0.1204   -0.6858   -0.9819 O   0  0  0  0  0  0  0  0  0  0  0  0
   -2.9260   -0.1400   -0.5845 H   0  0  0  0  0  0  0  0  0  0  0  0
   -2.6498   -0.3551    1.1528 H   0  0  0  0  0  0  0  0  0  0  0  0
   -2.2572   -1.7154   -0.0406 H   0  0  0  0  0  0  0  0  0  0  0  0
   -0.3651    1.9401   -0.9967 H   0  0  0  0  0  0  0  0  0  0  0  0
   -1.8621    2.0292    0.0775 H   0  0  0  0  0  0  0  0  0  0  0  0
   -0.7801    0.7980    1.9473 H   0  0  0  0  0  0  0  0  0  0  0  0
    2.7613    0.8759   -0.2340 H   0  0  0  0  0  0  0  0  0  0  0  0
    3.0423   -1.6065   -0.2327 H   0  0  0  0  0  0  0  0  0  0  0  0
    1.5538   -1.7575    0.8654 H   0  0  0  0  0  0  0  0  0  0  0  0
    1.6843   -0.4881   -2.0137 H   0  0  0  0  0  0  0  0  0  0  0  0
  1  2  1  0
  2  3  1  0
  3  4  1  0
  4  5  1  0
  5  6  1  0
  6  7  1  0
  7  8  1  0
  8  9  1  0
  4  2  1  0
  8  6  1  0
  9  2  1  0
  1 10  1  0
  1 11  1  0
  1 12  1  0
  3 13  1  0
  3 14  1  0
  4 15  1  0
  6 16  1  0
  7 17  1  0
  7 18  1  0
  8 19  1  0
M  END
