
     RDKit          3D

 21 22  0  0  0  0  0  0  0  0999 V2000
   -1.0010    1.2106    1.1397 C   0  0  0  0  0  0  0  0  0  0  0  0
   -0.2469    0.5121    0.0869 C   0  0  0  0  0  0  0  0  0  0  0  0
   -1.1290    0.0138   -1.0515 C   0  0  0  0  0  0  0  0  0  0  0  0
   -0.6180   -1.3891   -0.8479 C   0  0  0  0  0  0  0  0  0  0  0  0
    0.2111   -0.8769    0.3002 C   0  0  0  0  0  0  0  0  0  0  0  0
   -0.0362   -1.4778    1.5032 O   0  0  0  0  0  0  0  0  0  0  0  0
    1.6832   -0.8143   -0.0969 C   0  0  0  0  0  0  0  0  0  0  0  0
    2.0316    0.4858    0.2224 O   0  0  0  0  0  0  0  0  0  0  0  0
    1.0076    1.2325   -0.3782 C   0  0  0  0  0  0  0  0  0  0  0  0
   -1.9491    1.6196    0.6816 H   0  0  0  0  0  0  0  0  0  0  0  0
   -1.3087    0.6299    2.0048 H   0  0  0  0  0  0  0  0  0  0  0  0
   -0.4101    2.1082    1.4663 H   0  0  0  0  0  0  0  0  0  0  0  0
   -0.8567    0.5022   -1.9984 H   0  0  0  0  0  0  0  0  0  0  0  0
   -2.2163    0.0541   -0.7986 H   0  0  0  0  0  0  0  0  0  0  0  0
   -0.0344   -1.7465   -1.7061 H   0  0  0  0  0  0  0  0  0  0  0  0
   -1.3899   -2.1452   -0.5863 H   0  0  0  0  0  0  0  0  0  0  0  0
    0.0081   -0.9027    2.2901 H   0  0  0  0  0  0  0  0  0  0  0  0
    1.8067   -0.9109   -1.2069 H   0  0  0  0  0  0  0  0  0  0  0  0
    2.2737   -1.5817    0.4177 H   0  0  0  0  0  0  0  0  0  0  0  0
    1.1117    1.2143   -1.4780 H   0  0  0  0  0  0  0  0  0  0  0  0
    1.0625    2.2619    0.0360 H   0  0  0  0  0  0  0  0  0  0  0  0
  1  2  1  0
  2  3  1  0
  3  4  1  0
  4  5  1  0
  5  6  1  0
  5  7  1  0
  7  8  1  0
  8  9  1  0
  5  2  1  0
  9  2  1  0
  1 10  1  0
  1 11  1  0
  1 12  1  0
  3 13  1  0
  3 14  1  0
  4 15  1  0
  4 16  1  0
  6 17  1  0
  7 18  1  0
  7 19  1  0
  9 20  1  0
  9 21  1  0
M  END
