
     RDKit          3D

 21 22  0  0  0  0  0  0  0  0999 V2000
   -1.9371    0.3292    0.7613 C   0  0  0  0  0  0  0  0  0  0  0  0
   -0.8434    0.1208   -0.2208 C   0  0  0  0  0  0  0  0  0  0  0  0
   -0.2081    1.2946   -0.9163 C   0  0  0  0  0  0  0  0  0  0  0  0
    1.1607    0.6666   -0.7571 C   0  0  0  0  0  0  0  0  0  0  0  0
    2.1045    1.4348   -0.1153 O   0  0  0  0  0  0  0  0  0  0  0  0
    0.4944   -0.3784    0.1395 C   0  0  0  0  0  0  0  0  0  0  0  0
    0.9649   -0.5737    1.5253 C   0  0  0  0  0  0  0  0  0  0  0  0
   -0.4444   -1.2764   -0.5553 C   0  0  0  0  0  0  0  0  0  0  0  0
   -0.1109   -1.5464   -1.8960 O   0  0  0  0  0  0  0  0  0  0  0  0
   -2.1952    1.3912    0.8936 H   0  0  0  0  0  0  0  0  0  0  0  0
   -2.8711   -0.1556    0.3529 H   0  0  0  0  0  0  0  0  0  0  0  0
   -1.7699   -0.1181    1.7546 H   0  0  0  0  0  0  0  0  0  0  0  0
   -0.4631    1.4306   -1.9685 H   0  0  0  0  0  0  0  0  0  0  0  0
   -0.2882    2.2297   -0.3289 H   0  0  0  0  0  0  0  0  0  0  0  0
    1.5421    0.1377   -1.6620 H   0  0  0  0  0  0  0  0  0  0  0  0
    3.0025    1.0478   -0.3672 H   0  0  0  0  0  0  0  0  0  0  0  0
    1.4451    0.3900    1.8657 H   0  0  0  0  0  0  0  0  0  0  0  0
    0.1961   -0.8497    2.2519 H   0  0  0  0  0  0  0  0  0  0  0  0
    1.8154   -1.3057    1.5075 H   0  0  0  0  0  0  0  0  0  0  0  0
   -0.9173   -2.0568    0.0436 H   0  0  0  0  0  0  0  0  0  0  0  0
   -0.6768   -2.2120   -2.3085 H   0  0  0  0  0  0  0  0  0  0  0  0
  1  2  1  0
  2  3  1  0
  3  4  1  0
  4  5  1  0
  4  6  1  0
  6  7  1  0
  6  8  1  0
  8  9  1  0
  6  2  1  0
  8  2  1  0
  1 10  1  0
  1 11  1  0
  1 12  1  0
  3 13  1  0
  3 14  1  0
  4 15  1  0
  5 16  1  0
  7 17  1  0
  7 18  1  0
  7 19  1  0
  8 20  1  0
  9 21  1  0
M  END
