
     RDKit          3D

 21 22  0  0  0  0  0  0  0  0999 V2000
   -2.3206    0.1024    0.0071 C   0  0  0  0  0  0  0  0  0  0  0  0
   -0.8270   -0.0983    0.2855 C   0  0  0  0  0  0  0  0  0  0  0  0
   -0.4969   -1.5299    0.7001 C   0  0  0  0  0  0  0  0  0  0  0  0
   -0.1004   -0.9656   -0.6081 C   0  0  0  0  0  0  0  0  0  0  0  0
    1.3249   -0.6598   -0.8852 C   0  0  0  0  0  0  0  0  0  0  0  0
    1.9722    0.2617    0.1027 C   0  0  0  0  0  0  0  0  0  0  0  0
    1.6255    1.5639   -0.2517 O   0  0  0  0  0  0  0  0  0  0  0  0
    0.3591    1.8915    0.2466 C   0  0  0  0  0  0  0  0  0  0  0  0
   -0.1529    0.8561    0.9802 O   0  0  0  0  0  0  0  0  0  0  0  0
   -2.6890   -0.6769   -0.6705 H   0  0  0  0  0  0  0  0  0  0  0  0
   -2.8768    0.0007    0.9758 H   0  0  0  0  0  0  0  0  0  0  0  0
   -2.5408    1.1102   -0.3644 H   0  0  0  0  0  0  0  0  0  0  0  0
    0.3190   -1.6812    1.4513 H   0  0  0  0  0  0  0  0  0  0  0  0
   -1.3136   -2.2595    0.8043 H   0  0  0  0  0  0  0  0  0  0  0  0
   -0.6558   -1.3905   -1.4854 H   0  0  0  0  0  0  0  0  0  0  0  0
    1.9401   -1.5848   -0.9938 H   0  0  0  0  0  0  0  0  0  0  0  0
    1.3849   -0.1616   -1.8916 H   0  0  0  0  0  0  0  0  0  0  0  0
    1.7322    0.0095    1.1423 H   0  0  0  0  0  0  0  0  0  0  0  0
    3.0855    0.1697    0.0096 H   0  0  0  0  0  0  0  0  0  0  0  0
    0.5441    2.7440    0.9653 H   0  0  0  0  0  0  0  0  0  0  0  0
   -0.3136    2.2986   -0.5198 H   0  0  0  0  0  0  0  0  0  0  0  0
  1  2  1  0
  2  3  1  0
  3  4  1  0
  4  5  1  0
  5  6  1  0
  6  7  1  0
  7  8  1  0
  8  9  1  0
  4  2  1  0
  9  2  1  0
  1 10  1  0
  1 11  1  0
  1 12  1  0
  3 13  1  0
  3 14  1  0
  4 15  1  0
  5 16  1  0
  5 17  1  0
  6 18  1  0
  6 19  1  0
  8 20  1  0
  8 21  1  0
M  END
