
     RDKit          3D

 21 22  0  0  0  0  0  0  0  0999 V2000
   -2.1075   -1.0646   -0.0614 C   0  0  0  0  0  0  0  0  0  0  0  0
   -0.9365   -0.2359    0.0446 C   0  0  0  0  0  0  0  0  0  0  0  0
   -1.0104    1.1409    0.6487 C   0  0  0  0  0  0  0  0  0  0  0  0
    0.4501    1.5131    0.4547 C   0  0  0  0  0  0  0  0  0  0  0  0
    0.8847    2.5958    0.7393 O   0  0  0  0  0  0  0  0  0  0  0  0
    1.0097    0.2874   -0.1015 C   0  0  0  0  0  0  0  0  0  0  0  0
    2.4117    0.1284   -0.3744 C   0  0  0  0  0  0  0  0  0  0  0  0
   -0.0114   -0.0871   -1.1615 C   0  0  0  0  0  0  0  0  0  0  0  0
    0.3028   -0.7772    0.7509 C   0  0  0  0  0  0  0  0  0  0  0  0
   -1.8622   -2.1206    0.2245 H   0  0  0  0  0  0  0  0  0  0  0  0
   -2.4979   -1.0981   -1.0942 H   0  0  0  0  0  0  0  0  0  0  0  0
   -2.8996   -0.7361    0.6393 H   0  0  0  0  0  0  0  0  0  0  0  0
   -1.6656    1.8329    0.1080 H   0  0  0  0  0  0  0  0  0  0  0  0
   -1.2442    1.0521    1.7301 H   0  0  0  0  0  0  0  0  0  0  0  0
    2.8746   -0.5917    0.3483 H   0  0  0  0  0  0  0  0  0  0  0  0
    2.9617    1.0728   -0.2544 H   0  0  0  0  0  0  0  0  0  0  0  0
    2.5856   -0.2526   -1.3944 H   0  0  0  0  0  0  0  0  0  0  0  0
   -0.2743    0.6993   -1.8646 H   0  0  0  0  0  0  0  0  0  0  0  0
    0.1983   -1.0377   -1.6556 H   0  0  0  0  0  0  0  0  0  0  0  0
    0.3140   -0.5169    1.8096 H   0  0  0  0  0  0  0  0  0  0  0  0
    0.5164   -1.8041    0.4641 H   0  0  0  0  0  0  0  0  0  0  0  0
  1  2  1  0
  2  3  1  0
  3  4  1  0
  4  5  2  0
  4  6  1  0
  6  7  1  0
  6  8  1  0
  6  9  1  0
  8  2  1  0
  9  2  1  0
  1 10  1  0
  1 11  1  0
  1 12  1  0
  3 13  1  0
  3 14  1  0
  7 15  1  0
  7 16  1  0
  7 17  1  0
  8 18  1  0
  8 19  1  0
  9 20  1  0
  9 21  1  0
M  END
