
     RDKit          3D

 19 20  0  0  0  0  0  0  0  0999 V2000
   -0.8325    1.6554    0.1690 C   0  0  0  0  0  0  0  0  0  0  0  0
   -1.0100    0.1980   -0.1361 C   0  0  0  0  0  0  0  0  0  0  0  0
   -2.3309   -0.2460   -0.2671 O   0  0  0  0  0  0  0  0  0  0  0  0
   -1.4839   -0.8339    0.6414 C   0  0  0  0  0  0  0  0  0  0  0  0
   -0.5460   -1.8324   -0.0205 C   0  0  0  0  0  0  0  0  0  0  0  0
    0.0977   -0.6098   -0.7033 C   0  0  0  0  0  0  0  0  0  0  0  0
    1.4290   -0.3590   -0.0843 C   0  0  0  0  0  0  0  0  0  0  0  0
    1.9629    0.9992   -0.1851 C   0  0  0  0  0  0  0  0  0  0  0  0
    2.1089    1.6852    0.8158 O   0  0  0  0  0  0  0  0  0  0  0  0
   -0.5483    1.8578    1.2319 H   0  0  0  0  0  0  0  0  0  0  0  0
   -1.8443    2.1377   -0.0279 H   0  0  0  0  0  0  0  0  0  0  0  0
   -0.1770    2.1716   -0.5572 H   0  0  0  0  0  0  0  0  0  0  0  0
   -1.7310   -0.9463    1.6997 H   0  0  0  0  0  0  0  0  0  0  0  0
   -1.1181   -2.4634   -0.7668 H   0  0  0  0  0  0  0  0  0  0  0  0
    0.1234   -2.3948    0.6276 H   0  0  0  0  0  0  0  0  0  0  0  0
    0.0908   -0.7124   -1.8142 H   0  0  0  0  0  0  0  0  0  0  0  0
    2.2221   -1.0640   -0.4703 H   0  0  0  0  0  0  0  0  0  0  0  0
    1.3574   -0.6257    1.0217 H   0  0  0  0  0  0  0  0  0  0  0  0
    2.2300    1.3828   -1.1744 H   0  0  0  0  0  0  0  0  0  0  0  0
  1  2  1  0
  2  3  1  0
  3  4  1  0
  4  5  1  0
  5  6  1  0
  6  7  1  0
  7  8  1  0
  8  9  2  0
  4  2  1  0
  6  2  1  0
  1 10  1  0
  1 11  1  0
  1 12  1  0
  4 13  1  0
  5 14  1  0
  5 15  1  0
  6 16  1  0
  7 17  1  0
  7 18  1  0
  8 19  1  0
M  END
