
     RDKit          3D

 18 19  0  0  0  0  0  0  0  0999 V2000
   -1.4062    0.6374    0.6729 C   0  0  0  0  0  0  0  0  0  0  0  0
   -0.5650   -0.5759    0.2587 C   0  0  0  0  0  0  0  0  0  0  0  0
   -1.3479   -1.3909   -0.7854 C   0  0  0  0  0  0  0  0  0  0  0  0
   -1.1083   -0.1930   -1.5169 O   0  0  0  0  0  0  0  0  0  0  0  0
    0.2011   -0.4326   -1.1137 C   0  0  0  0  0  0  0  0  0  0  0  0
    0.8344   -0.2589    0.1552 C   0  0  0  0  0  0  0  0  0  0  0  0
    1.4019    1.1390    0.4543 C   0  0  0  0  0  0  0  0  0  0  0  0
    2.7818    1.1486    0.2730 O   0  0  0  0  0  0  0  0  0  0  0  0
   -1.6757    0.3975    1.7464 H   0  0  0  0  0  0  0  0  0  0  0  0
   -2.3507    0.7382    0.1520 H   0  0  0  0  0  0  0  0  0  0  0  0
   -0.8767    1.5877    0.6057 H   0  0  0  0  0  0  0  0  0  0  0  0
   -0.8678   -2.2849   -1.1560 H   0  0  0  0  0  0  0  0  0  0  0  0
   -2.3841   -1.5080   -0.4451 H   0  0  0  0  0  0  0  0  0  0  0  0
    0.4825   -1.4196   -1.6023 H   0  0  0  0  0  0  0  0  0  0  0  0
    1.5343   -1.0341    0.5906 H   0  0  0  0  0  0  0  0  0  0  0  0
    0.9520    1.8688   -0.2272 H   0  0  0  0  0  0  0  0  0  0  0  0
    1.2047    1.3078    1.5255 H   0  0  0  0  0  0  0  0  0  0  0  0
    3.1897    0.2727    0.4123 H   0  0  0  0  0  0  0  0  0  0  0  0
  1  2  1  0
  2  3  1  0
  3  4  1  0
  4  5  1  0
  5  6  1  0
  6  7  1  0
  7  8  1  0
  5  2  1  0
  6  2  1  0
  1  9  1  0
  1 10  1  0
  1 11  1  0
  3 12  1  0
  3 13  1  0
  5 14  1  0
  6 15  1  0
  7 16  1  0
  7 17  1  0
  8 18  1  0
M  END
