
     RDKit          3D

 20 22  0  0  0  0  0  0  0  0999 V2000
    2.2297   -0.3754   -0.2226 C   0  0  0  0  0  0  0  0  0  0  0  0
    0.7866   -0.2416   -0.0305 C   0  0  0  0  0  0  0  0  0  0  0  0
   -0.2004   -0.6387   -1.1365 C   0  0  0  0  0  0  0  0  0  0  0  0
   -1.4540   -0.0823   -0.5289 C   0  0  0  0  0  0  0  0  0  0  0  0
   -1.3919   -0.6634    0.8684 C   0  0  0  0  0  0  0  0  0  0  0  0
    0.0543   -0.2833    1.2260 C   0  0  0  0  0  0  0  0  0  0  0  0
    0.2514    1.0118    0.5897 C   0  0  0  0  0  0  0  0  0  0  0  0
   -1.0028    1.3513   -0.2301 C   0  0  0  0  0  0  0  0  0  0  0  0
    2.4405   -0.7399   -1.2709 H   0  0  0  0  0  0  0  0  0  0  0  0
    2.7831   -0.9918    0.4836 H   0  0  0  0  0  0  0  0  0  0  0  0
    2.6953    0.6540   -0.2072 H   0  0  0  0  0  0  0  0  0  0  0  0
    0.0732   -0.2029   -2.0935 H   0  0  0  0  0  0  0  0  0  0  0  0
   -0.2613   -1.7512   -1.1427 H   0  0  0  0  0  0  0  0  0  0  0  0
   -2.3594   -0.1809   -1.0566 H   0  0  0  0  0  0  0  0  0  0  0  0
   -2.0348   -0.1272    1.5831 H   0  0  0  0  0  0  0  0  0  0  0  0
   -1.5401   -1.7387    0.8403 H   0  0  0  0  0  0  0  0  0  0  0  0
    0.4511   -0.5722    2.1926 H   0  0  0  0  0  0  0  0  0  0  0  0
    0.9011    1.8070    0.9295 H   0  0  0  0  0  0  0  0  0  0  0  0
   -0.6839    1.8651   -1.1576 H   0  0  0  0  0  0  0  0  0  0  0  0
   -1.7377    1.9005    0.3640 H   0  0  0  0  0  0  0  0  0  0  0  0
  1  2  1  0
  2  3  1  0
  3  4  1  0
  4  5  1  0
  5  6  1  0
  6  7  1  0
  7  8  1  0
  6  2  1  0
  7  2  1  0
  8  4  1  0
  1  9  1  0
  1 10  1  0
  1 11  1  0
  3 12  1  0
  3 13  1  0
  4 14  1  0
  5 15  1  0
  5 16  1  0
  6 17  1  0
  7 18  1  0
  8 19  1  0
  8 20  1  0
M  END
