
     RDKit          3D

 21 22  0  0  0  0  0  0  0  0999 V2000
   -0.6071    1.3135    1.0981 C   0  0  0  0  0  0  0  0  0  0  0  0
   -0.4782    0.1635    0.2532 C   0  0  0  0  0  0  0  0  0  0  0  0
   -0.7557    0.2498   -1.2287 C   0  0  0  0  0  0  0  0  0  0  0  0
   -0.9321   -1.2696   -1.0518 C   0  0  0  0  0  0  0  0  0  0  0  0
   -1.6256   -0.8668    0.2605 C   0  0  0  0  0  0  0  0  0  0  0  0
    0.3175   -1.6988   -0.6783 O   0  0  0  0  0  0  0  0  0  0  0  0
    0.6967   -0.7416    0.2940 C   0  0  0  0  0  0  0  0  0  0  0  0
    2.0004   -0.1104   -0.1136 C   0  0  0  0  0  0  0  0  0  0  0  0
    2.4547    0.8354    0.7664 O   0  0  0  0  0  0  0  0  0  0  0  0
   -0.3965    2.2591    0.5677 H   0  0  0  0  0  0  0  0  0  0  0  0
    0.0265    1.1958    2.0125 H   0  0  0  0  0  0  0  0  0  0  0  0
   -1.6705    1.4136    1.4651 H   0  0  0  0  0  0  0  0  0  0  0  0
   -1.7143    0.7543   -1.4768 H   0  0  0  0  0  0  0  0  0  0  0  0
    0.0899    0.5280   -1.8684 H   0  0  0  0  0  0  0  0  0  0  0  0
   -1.5088   -1.7808   -1.7743 H   0  0  0  0  0  0  0  0  0  0  0  0
   -2.6004   -0.4042    0.0975 H   0  0  0  0  0  0  0  0  0  0  0  0
   -1.5217   -1.6055    1.0596 H   0  0  0  0  0  0  0  0  0  0  0  0
    0.7528   -1.2504    1.2665 H   0  0  0  0  0  0  0  0  0  0  0  0
    1.9860    0.2806   -1.1422 H   0  0  0  0  0  0  0  0  0  0  0  0
    2.7576   -0.9465   -0.1239 H   0  0  0  0  0  0  0  0  0  0  0  0
    2.7289    1.6812    0.3168 H   0  0  0  0  0  0  0  0  0  0  0  0
  1  2  1  0
  2  3  1  0
  3  4  1  0
  4  5  1  0
  4  6  1  0
  6  7  1  0
  7  8  1  0
  8  9  1  0
  5  2  1  0
  7  2  1  0
  1 10  1  0
  1 11  1  0
  1 12  1  0
  3 13  1  0
  3 14  1  0
  4 15  1  0
  5 16  1  0
  5 17  1  0
  7 18  1  0
  8 19  1  0
  8 20  1  0
  9 21  1  0
M  END
