
     RDKit          3D

 21 23  0  0  0  0  0  0  0  0999 V2000
   -0.0594    1.7527   -0.1099 C   0  0  0  0  0  0  0  0  0  0  0  0
   -0.2771    0.3526   -0.1314 C   0  0  0  0  0  0  0  0  0  0  0  0
    0.3271   -0.6196    0.9522 C   0  0  0  0  0  0  0  0  0  0  0  0
   -0.7465   -1.2159    1.3609 C   0  0  0  0  0  0  0  0  0  0  0  0
   -1.9463   -0.6961    0.5596 C   0  0  0  0  0  0  0  0  0  0  0  0
   -1.2207   -0.3703   -0.8058 C   0  0  0  0  0  0  0  0  0  0  0  0
    0.1424   -0.6626   -1.1807 C   0  0  0  0  0  0  0  0  0  0  0  0
    1.5455   -0.1665   -0.9658 C   0  0  0  0  0  0  0  0  0  0  0  0
    1.6656   -0.1176    0.6288 C   0  0  0  0  0  0  0  0  0  0  0  0
   -1.0832    2.2761   -0.1280 H   0  0  0  0  0  0  0  0  0  0  0  0
    0.3856    2.2358    0.8125 H   0  0  0  0  0  0  0  0  0  0  0  0
    0.4101    2.1831   -1.0311 H   0  0  0  0  0  0  0  0  0  0  0  0
   -0.7819   -1.9608    2.1429 H   0  0  0  0  0  0  0  0  0  0  0  0
   -2.6532   -1.4937    0.3522 H   0  0  0  0  0  0  0  0  0  0  0  0
   -2.3407    0.2254    0.9709 H   0  0  0  0  0  0  0  0  0  0  0  0
   -1.9273    0.0364   -1.5262 H   0  0  0  0  0  0  0  0  0  0  0  0
    0.2193   -1.7597   -1.0336 H   0  0  0  0  0  0  0  0  0  0  0  0
    2.2639   -0.8761   -1.3555 H   0  0  0  0  0  0  0  0  0  0  0  0
    1.7830    0.8047   -1.3775 H   0  0  0  0  0  0  0  0  0  0  0  0
    1.8155    0.8843    0.9597 H   0  0  0  0  0  0  0  0  0  0  0  0
    2.4782   -0.8122    0.9060 H   0  0  0  0  0  0  0  0  0  0  0  0
  1  2  1  0
  2  3  1  0
  3  4  2  0
  4  5  1  0
  5  6  1  0
  6  7  1  0
  7  8  1  0
  8  9  1  0
  6  2  1  0
  7  2  1  0
  9  3  1  0
  1 10  1  0
  1 11  1  0
  1 12  1  0
  4 13  1  0
  5 14  1  0
  5 15  1  0
  6 16  1  0
  7 17  1  0
  8 18  1  0
  8 19  1  0
  9 20  1  0
  9 21  1  0
M  END
