
     RDKit          3D

 15 17  0  0  0  0  0  0  0  0999 V2000
   -1.9232    0.0573    0.1151 C   0  0  0  0  0  0  0  0  0  0  0  0
   -0.4818   -0.0502    0.1370 C   0  0  0  0  0  0  0  0  0  0  0  0
    0.1791   -0.5265    1.2543 O   0  0  0  0  0  0  0  0  0  0  0  0
    1.2215   -0.8807    0.3693 C   0  0  0  0  0  0  0  0  0  0  0  0
    0.1788   -1.1600   -0.6231 C   0  0  0  0  0  0  0  0  0  0  0  0
   -0.1337   -1.8370   -1.5608 O   0  0  0  0  0  0  0  0  0  0  0  0
    1.7388    0.4755   -0.0445 C   0  0  0  0  0  0  0  0  0  0  0  0
    1.3161    1.0460   -1.2227 O   0  0  0  0  0  0  0  0  0  0  0  0
    0.3655    1.1545   -0.2325 C   0  0  0  0  0  0  0  0  0  0  0  0
   -2.4617   -0.7773   -0.4126 H   0  0  0  0  0  0  0  0  0  0  0  0
   -2.2547    0.9835   -0.4386 H   0  0  0  0  0  0  0  0  0  0  0  0
   -2.3413    0.0525    1.1513 H   0  0  0  0  0  0  0  0  0  0  0  0
    1.9038   -1.6336    0.6791 H   0  0  0  0  0  0  0  0  0  0  0  0
    2.4905    0.9877    0.5546 H   0  0  0  0  0  0  0  0  0  0  0  0
    0.2024    2.1082    0.2741 H   0  0  0  0  0  0  0  0  0  0  0  0
  1  2  1  0
  2  3  1  0
  3  4  1  0
  4  5  1  0
  5  6  2  0
  4  7  1  0
  7  8  1  0
  8  9  1  0
  5  2  1  0
  9  7  1  0
  9  2  1  0
  1 10  1  0
  1 11  1  0
  1 12  1  0
  4 13  1  0
  7 14  1  0
  9 15  1  0
M  END
