
     RDKit          3D

 25 26  0  0  0  0  0  0  0  0999 V2000
   -0.5043    1.9790   -0.4394 C   0  0  0  0  0  0  0  0  0  0  0  0
   -0.0709    0.6568    0.1441 C   0  0  0  0  0  0  0  0  0  0  0  0
    1.2823    0.7326    0.8118 C   0  0  0  0  0  0  0  0  0  0  0  0
    1.9166   -0.6109    0.4882 C   0  0  0  0  0  0  0  0  0  0  0  0
    1.4709   -0.8098   -0.9464 C   0  0  0  0  0  0  0  0  0  0  0  0
    0.0432   -0.4193   -0.9113 C   0  0  0  0  0  0  0  0  0  0  0  0
   -0.8837   -1.5211   -0.4379 C   0  0  0  0  0  0  0  0  0  0  0  0
   -2.0061   -0.6639    0.1683 C   0  0  0  0  0  0  0  0  0  0  0  0
   -1.1522    0.1901    1.1103 C   0  0  0  0  0  0  0  0  0  0  0  0
   -0.3360    2.0202   -1.5369 H   0  0  0  0  0  0  0  0  0  0  0  0
    0.1174    2.7611    0.0392 H   0  0  0  0  0  0  0  0  0  0  0  0
   -1.5636    2.2077   -0.2649 H   0  0  0  0  0  0  0  0  0  0  0  0
    1.8556    1.5198    0.2964 H   0  0  0  0  0  0  0  0  0  0  0  0
    1.2269    0.8369    1.8983 H   0  0  0  0  0  0  0  0  0  0  0  0
    3.0062   -0.4954    0.5896 H   0  0  0  0  0  0  0  0  0  0  0  0
    1.5312   -1.4275    1.1122 H   0  0  0  0  0  0  0  0  0  0  0  0
    1.6604   -1.8255   -1.3155 H   0  0  0  0  0  0  0  0  0  0  0  0
    2.0139   -0.0766   -1.5984 H   0  0  0  0  0  0  0  0  0  0  0  0
   -0.3661   -0.0819   -1.8988 H   0  0  0  0  0  0  0  0  0  0  0  0
   -0.4571   -2.0694    0.4445 H   0  0  0  0  0  0  0  0  0  0  0  0
   -1.2411   -2.1708   -1.2304 H   0  0  0  0  0  0  0  0  0  0  0  0
   -2.3747    0.0098   -0.6062 H   0  0  0  0  0  0  0  0  0  0  0  0
   -2.7478   -1.2581    0.6911 H   0  0  0  0  0  0  0  0  0  0  0  0
   -0.7059   -0.5010    1.8543 H   0  0  0  0  0  0  0  0  0  0  0  0
   -1.7151    1.0172    1.5377 H   0  0  0  0  0  0  0  0  0  0  0  0
  1  2  1  0
  2  3  1  0
  3  4  1  0
  4  5  1  0
  5  6  1  0
  6  7  1  0
  7  8  1  0
  8  9  1  0
  6  2  1  0
  9  2  1  0
  1 10  1  0
  1 11  1  0
  1 12  1  0
  3 13  1  0
  3 14  1  0
  4 15  1  0
  4 16  1  0
  5 17  1  0
  5 18  1  0
  6 19  1  0
  7 20  1  0
  7 21  1  0
  8 22  1  0
  8 23  1  0
  9 24  1  0
  9 25  1  0
M  END
