
     RDKit          3D

 19 20  0  0  0  0  0  0  0  0999 V2000
   -1.0782    1.5758   -0.4710 C   0  0  0  0  0  0  0  0  0  0  0  0
   -0.0817    0.4690   -0.4275 C   0  0  0  0  0  0  0  0  0  0  0  0
    0.9039    0.4510   -1.3746 O   0  0  0  0  0  0  0  0  0  0  0  0
    1.8769    0.1349   -0.4097 C   0  0  0  0  0  0  0  0  0  0  0  0
    0.9390    0.6468    0.6452 C   0  0  0  0  0  0  0  0  0  0  0  0
    0.6166   -0.1823    1.6688 O   0  0  0  0  0  0  0  0  0  0  0  0
   -0.2905   -1.1154    1.2836 C   0  0  0  0  0  0  0  0  0  0  0  0
   -0.7193   -0.8563   -0.1237 C   0  0  0  0  0  0  0  0  0  0  0  0
   -0.3108   -1.8422   -1.0197 O   0  0  0  0  0  0  0  0  0  0  0  0
   -1.9777    1.2148   -1.0336 H   0  0  0  0  0  0  0  0  0  0  0  0
   -1.4067    1.7681    0.5877 H   0  0  0  0  0  0  0  0  0  0  0  0
   -0.6616    2.4906   -0.9144 H   0  0  0  0  0  0  0  0  0  0  0  0
    2.1566   -0.9250   -0.3561 H   0  0  0  0  0  0  0  0  0  0  0  0
    2.7543    0.8120   -0.5919 H   0  0  0  0  0  0  0  0  0  0  0  0
    1.1630    1.6839    0.9626 H   0  0  0  0  0  0  0  0  0  0  0  0
   -1.1903   -1.1078    1.9547 H   0  0  0  0  0  0  0  0  0  0  0  0
    0.1982   -2.1156    1.3065 H   0  0  0  0  0  0  0  0  0  0  0  0
   -1.8348   -0.8021   -0.2201 H   0  0  0  0  0  0  0  0  0  0  0  0
   -1.0568   -2.3002   -1.4669 H   0  0  0  0  0  0  0  0  0  0  0  0
  1  2  1  0
  2  3  1  0
  3  4  1  0
  4  5  1  0
  5  6  1  0
  6  7  1  0
  7  8  1  0
  8  9  1  0
  5  2  1  0
  8  2  1  0
  1 10  1  0
  1 11  1  0
  1 12  1  0
  4 13  1  0
  4 14  1  0
  5 15  1  0
  7 16  1  0
  7 17  1  0
  8 18  1  0
  9 19  1  0
M  END
