
     RDKit          3D

 17 19  0  0  0  0  0  0  0  0999 V2000
    1.9296    0.4180    0.8168 C   0  0  0  0  0  0  0  0  0  0  0  0
    0.5209    0.1862    0.3839 C   0  0  0  0  0  0  0  0  0  0  0  0
   -0.1116    1.3653    0.0940 O   0  0  0  0  0  0  0  0  0  0  0  0
   -1.4776    1.2484    0.3157 C   0  0  0  0  0  0  0  0  0  0  0  0
   -1.9066    0.1289   -0.3953 O   0  0  0  0  0  0  0  0  0  0  0  0
   -1.1419   -0.9665   -0.0974 C   0  0  0  0  0  0  0  0  0  0  0  0
   -0.2829   -0.8121    1.1258 C   0  0  0  0  0  0  0  0  0  0  0  0
    0.5415   -1.7834    0.5677 O   0  0  0  0  0  0  0  0  0  0  0  0
    0.2794   -0.9727   -0.5309 C   0  0  0  0  0  0  0  0  0  0  0  0
    2.4563    0.9262   -0.0416 H   0  0  0  0  0  0  0  0  0  0  0  0
    2.4911   -0.4671    1.0980 H   0  0  0  0  0  0  0  0  0  0  0  0
    1.9058    1.2038    1.6199 H   0  0  0  0  0  0  0  0  0  0  0  0
   -1.9432    2.1789   -0.0885 H   0  0  0  0  0  0  0  0  0  0  0  0
   -1.6619    1.1815    1.3944 H   0  0  0  0  0  0  0  0  0  0  0  0
   -1.6408   -1.9581   -0.2084 H   0  0  0  0  0  0  0  0  0  0  0  0
   -0.6040   -0.7809    2.0815 H   0  0  0  0  0  0  0  0  0  0  0  0
    0.6461   -1.0964   -1.4638 H   0  0  0  0  0  0  0  0  0  0  0  0
  1  2  1  0
  2  3  1  0
  3  4  1  0
  4  5  1  0
  5  6  1  0
  6  7  1  0
  7  8  1  0
  8  9  1  0
  7  2  1  0
  9  2  1  0
  9  6  1  0
  1 10  1  0
  1 11  1  0
  1 12  1  0
  4 13  1  0
  4 14  1  0
  6 15  1  0
  7 16  1  0
  9 17  1  0
M  END
