
     RDKit          3D

 21 22  0  0  0  0  0  0  0  0999 V2000
   -1.4198    1.1895    0.0024 C   0  0  0  0  0  0  0  0  0  0  0  0
   -0.8246   -0.1616    0.0887 C   0  0  0  0  0  0  0  0  0  0  0  0
   -1.0610   -1.1816   -1.0214 C   0  0  0  0  0  0  0  0  0  0  0  0
    0.4657   -1.2245   -1.1551 C   0  0  0  0  0  0  0  0  0  0  0  0
    0.5980   -0.4589    0.1135 C   0  0  0  0  0  0  0  0  0  0  0  0
    1.6741    0.5820    0.1990 C   0  0  0  0  0  0  0  0  0  0  0  0
    1.6655    1.4787   -0.8488 O   0  0  0  0  0  0  0  0  0  0  0  0
   -0.2009   -0.7071    1.3129 C   0  0  0  0  0  0  0  0  0  0  0  0
   -0.0472    0.1923    2.3600 O   0  0  0  0  0  0  0  0  0  0  0  0
   -0.9031    1.8927   -0.6780 H   0  0  0  0  0  0  0  0  0  0  0  0
   -2.4835    1.0732   -0.3535 H   0  0  0  0  0  0  0  0  0  0  0  0
   -1.5164    1.6020    1.0450 H   0  0  0  0  0  0  0  0  0  0  0  0
   -1.5933   -0.8133   -1.8968 H   0  0  0  0  0  0  0  0  0  0  0  0
   -1.3920   -2.1542   -0.5952 H   0  0  0  0  0  0  0  0  0  0  0  0
    0.8942   -2.2256   -1.2004 H   0  0  0  0  0  0  0  0  0  0  0  0
    0.7390   -0.5595   -2.0268 H   0  0  0  0  0  0  0  0  0  0  0  0
    1.5887    1.1566    1.1575 H   0  0  0  0  0  0  0  0  0  0  0  0
    2.6487    0.0360    0.2693 H   0  0  0  0  0  0  0  0  0  0  0  0
    2.6081    1.5523   -1.1837 H   0  0  0  0  0  0  0  0  0  0  0  0
   -0.5411   -1.7124    1.6176 H   0  0  0  0  0  0  0  0  0  0  0  0
   -0.8992    0.4435    2.7938 H   0  0  0  0  0  0  0  0  0  0  0  0
  1  2  1  0
  2  3  1  0
  3  4  1  0
  4  5  1  0
  5  6  1  0
  6  7  1  0
  5  8  1  0
  8  9  1  0
  5  2  1  0
  8  2  1  0
  1 10  1  0
  1 11  1  0
  1 12  1  0
  3 13  1  0
  3 14  1  0
  4 15  1  0
  4 16  1  0
  6 17  1  0
  6 18  1  0
  7 19  1  0
  8 20  1  0
  9 21  1  0
M  END
