
     RDKit          3D

 15 16  0  0  0  0  0  0  0  0999 V2000
   -1.3870   -1.2046    0.2639 C   0  0  0  0  0  0  0  0  0  0  0  0
   -0.5206   -0.0996   -0.2436 C   0  0  0  0  0  0  0  0  0  0  0  0
   -0.8152    1.3324    0.1455 C   0  0  0  0  0  0  0  0  0  0  0  0
    0.6791    1.4949    0.3014 C   0  0  0  0  0  0  0  0  0  0  0  0
    1.4236    2.3762    0.6964 O   0  0  0  0  0  0  0  0  0  0  0  0
    0.8036    0.1112   -0.2399 C   0  0  0  0  0  0  0  0  0  0  0  0
    1.9689   -0.7091    0.1098 C   0  0  0  0  0  0  0  0  0  0  0  0
    2.6243   -0.5299    1.1426 O   0  0  0  0  0  0  0  0  0  0  0  0
    0.1768   -0.2126   -1.4252 O   0  0  0  0  0  0  0  0  0  0  0  0
   -1.2774   -2.1067   -0.3504 H   0  0  0  0  0  0  0  0  0  0  0  0
   -2.4443   -0.8669    0.3284 H   0  0  0  0  0  0  0  0  0  0  0  0
   -1.0322   -1.4861    1.2913 H   0  0  0  0  0  0  0  0  0  0  0  0
   -1.3817    1.4756    1.0698 H   0  0  0  0  0  0  0  0  0  0  0  0
   -1.1306    1.9413   -0.7247 H   0  0  0  0  0  0  0  0  0  0  0  0
    2.3127   -1.5161   -0.5246 H   0  0  0  0  0  0  0  0  0  0  0  0
  1  2  1  0
  2  3  1  0
  3  4  1  0
  4  5  2  0
  4  6  1  0
  6  7  1  0
  7  8  2  0
  6  9  1  0
  6  2  1  0
  9  2  1  0
  1 10  1  0
  1 11  1  0
  1 12  1  0
  3 13  1  0
  3 14  1  0
  7 15  1  0
M  END
