
     RDKit          3D

 21 22  0  0  0  0  0  0  0  0999 V2000
   -2.4272   -0.3468   -0.1572 C   0  0  0  0  0  0  0  0  0  0  0  0
   -0.9533   -0.3239    0.2721 C   0  0  0  0  0  0  0  0  0  0  0  0
   -0.6567    0.5461    1.5194 C   0  0  0  0  0  0  0  0  0  0  0  0
   -0.2390    0.9101    0.1132 C   0  0  0  0  0  0  0  0  0  0  0  0
    1.2152    0.8578   -0.1968 C   0  0  0  0  0  0  0  0  0  0  0  0
    1.4323    1.6913   -1.3214 O   0  0  0  0  0  0  0  0  0  0  0  0
    1.7896   -0.4883   -0.3832 C   0  0  0  0  0  0  0  0  0  0  0  0
    0.8541   -1.6323   -0.3877 C   0  0  0  0  0  0  0  0  0  0  0  0
   -0.3157   -1.5016    0.2668 O   0  0  0  0  0  0  0  0  0  0  0  0
   -2.4319   -0.4086   -1.2667 H   0  0  0  0  0  0  0  0  0  0  0  0
   -2.8902   -1.2532    0.2384 H   0  0  0  0  0  0  0  0  0  0  0  0
   -2.8836    0.5973    0.2079 H   0  0  0  0  0  0  0  0  0  0  0  0
   -1.5141    1.0191    1.9949 H   0  0  0  0  0  0  0  0  0  0  0  0
    0.1447    0.2262    2.1871 H   0  0  0  0  0  0  0  0  0  0  0  0
   -0.8121    1.8004   -0.2587 H   0  0  0  0  0  0  0  0  0  0  0  0
    1.7408    1.4020    0.6441 H   0  0  0  0  0  0  0  0  0  0  0  0
    0.9645    2.5539   -1.0870 H   0  0  0  0  0  0  0  0  0  0  0  0
    2.3377   -0.4923   -1.3734 H   0  0  0  0  0  0  0  0  0  0  0  0
    2.6184   -0.6563    0.3674 H   0  0  0  0  0  0  0  0  0  0  0  0
    1.3898   -2.5216    0.0629 H   0  0  0  0  0  0  0  0  0  0  0  0
    0.6368   -1.9795   -1.4420 H   0  0  0  0  0  0  0  0  0  0  0  0
  1  2  1  0
  2  3  1  0
  3  4  1  0
  4  5  1  0
  5  6  1  0
  5  7  1  0
  7  8  1  0
  8  9  1  0
  4  2  1  0
  9  2  1  0
  1 10  1  0
  1 11  1  0
  1 12  1  0
  3 13  1  0
  3 14  1  0
  4 15  1  0
  5 16  1  0
  6 17  1  0
  7 18  1  0
  7 19  1  0
  8 20  1  0
  8 21  1  0
M  END
