
     RDKit          3D

 23 24  0  0  0  0  0  0  0  0999 V2000
   -2.0753    0.8985    0.5253 C   0  0  0  0  0  0  0  0  0  0  0  0
   -0.7954    0.3889    0.0292 C   0  0  0  0  0  0  0  0  0  0  0  0
    0.1131    1.4058   -0.6081 C   0  0  0  0  0  0  0  0  0  0  0  0
    1.5113    0.7740   -0.5158 C   0  0  0  0  0  0  0  0  0  0  0  0
    1.2573   -0.5533    0.1562 C   0  0  0  0  0  0  0  0  0  0  0  0
    2.3234   -1.1079    0.7688 O   0  0  0  0  0  0  0  0  0  0  0  0
    0.5220   -1.4177   -0.8171 C   0  0  0  0  0  0  0  0  0  0  0  0
   -0.9023   -0.8526   -0.8481 C   0  0  0  0  0  0  0  0  0  0  0  0
    0.1246   -0.1647    1.1213 C   0  0  0  0  0  0  0  0  0  0  0  0
   -2.7893    0.0672    0.6588 H   0  0  0  0  0  0  0  0  0  0  0  0
   -1.9208    1.4416    1.4783 H   0  0  0  0  0  0  0  0  0  0  0  0
   -2.5046    1.6062   -0.2131 H   0  0  0  0  0  0  0  0  0  0  0  0
   -0.2044    1.5423   -1.6464 H   0  0  0  0  0  0  0  0  0  0  0  0
    0.0783    2.3328   -0.0071 H   0  0  0  0  0  0  0  0  0  0  0  0
    1.9449    0.6604   -1.5113 H   0  0  0  0  0  0  0  0  0  0  0  0
    2.1229    1.3861    0.1763 H   0  0  0  0  0  0  0  0  0  0  0  0
    2.3149   -2.0813    0.7886 H   0  0  0  0  0  0  0  0  0  0  0  0
    0.9438   -1.2547   -1.8436 H   0  0  0  0  0  0  0  0  0  0  0  0
    0.5328   -2.4875   -0.5844 H   0  0  0  0  0  0  0  0  0  0  0  0
   -1.1898   -0.5252   -1.8458 H   0  0  0  0  0  0  0  0  0  0  0  0
   -1.5916   -1.5434   -0.3589 H   0  0  0  0  0  0  0  0  0  0  0  0
   -0.2504   -1.1043    1.5339 H   0  0  0  0  0  0  0  0  0  0  0  0
    0.4347    0.5886    1.8352 H   0  0  0  0  0  0  0  0  0  0  0  0
  1  2  1  0
  2  3  1  0
  3  4  1  0
  4  5  1  0
  5  6  1  0
  5  7  1  0
  7  8  1  0
  5  9  1  0
  8  2  1  0
  9  2  1  0
  1 10  1  0
  1 11  1  0
  1 12  1  0
  3 13  1  0
  3 14  1  0
  4 15  1  0
  4 16  1  0
  6 17  1  0
  7 18  1  0
  7 19  1  0
  8 20  1  0
  8 21  1  0
  9 22  1  0
  9 23  1  0
M  END
