
     RDKit          3D

 18 19  0  0  0  0  0  0  0  0999 V2000
    2.0712   -0.0581   -0.4180 C   0  0  0  0  0  0  0  0  0  0  0  0
    0.6019   -0.0368   -0.1399 C   0  0  0  0  0  0  0  0  0  0  0  0
   -0.0376    1.3098   -0.0658 C   0  0  0  0  0  0  0  0  0  0  0  0
   -1.5148    1.1205   -0.1432 C   0  0  0  0  0  0  0  0  0  0  0  0
   -1.9798   -0.1267    0.0188 C   0  0  0  0  0  0  0  0  0  0  0  0
   -0.9323   -1.2082   -0.0892 C   0  0  0  0  0  0  0  0  0  0  0  0
    0.1158   -0.9495    0.9461 C   0  0  0  0  0  0  0  0  0  0  0  0
   -0.0788   -0.8081   -1.1095 O   0  0  0  0  0  0  0  0  0  0  0  0
    2.2490    0.5910   -1.3091 H   0  0  0  0  0  0  0  0  0  0  0  0
    2.6850    0.3503    0.3916 H   0  0  0  0  0  0  0  0  0  0  0  0
    2.3627   -1.0797   -0.7284 H   0  0  0  0  0  0  0  0  0  0  0  0
    0.2295    1.8493    0.8668 H   0  0  0  0  0  0  0  0  0  0  0  0
    0.3275    1.8954   -0.9582 H   0  0  0  0  0  0  0  0  0  0  0  0
   -2.1951    1.9430   -0.3215 H   0  0  0  0  0  0  0  0  0  0  0  0
   -3.0173   -0.3409    0.2106 H   0  0  0  0  0  0  0  0  0  0  0  0
   -1.3144   -2.2184   -0.1870 H   0  0  0  0  0  0  0  0  0  0  0  0
    0.7782   -1.7941    1.2042 H   0  0  0  0  0  0  0  0  0  0  0  0
   -0.3507   -0.4387    1.8316 H   0  0  0  0  0  0  0  0  0  0  0  0
  1  2  1  0
  2  3  1  0
  3  4  1  0
  4  5  2  0
  5  6  1  0
  6  7  1  0
  6  8  1  0
  7  2  1  0
  8  2  1  0
  1  9  1  0
  1 10  1  0
  1 11  1  0
  3 12  1  0
  3 13  1  0
  4 14  1  0
  5 15  1  0
  6 16  1  0
  7 17  1  0
  7 18  1  0
M  END
