
     RDKit          3D

 17 19  0  0  0  0  0  0  0  0999 V2000
    1.9813    0.1162    0.2563 C   0  0  0  0  0  0  0  0  0  0  0  0
    0.5887   -0.0898   -0.0928 C   0  0  0  0  0  0  0  0  0  0  0  0
   -0.2916   -1.1070    0.6470 C   0  0  0  0  0  0  0  0  0  0  0  0
   -1.6112   -0.6768    0.0349 C   0  0  0  0  0  0  0  0  0  0  0  0
   -1.2791   -0.6715   -1.3116 O   0  0  0  0  0  0  0  0  0  0  0  0
   -0.1045    0.1180   -1.3360 C   0  0  0  0  0  0  0  0  0  0  0  0
   -0.2568    1.1445   -0.2852 C   0  0  0  0  0  0  0  0  0  0  0  0
   -1.5556    0.7817    0.3268 C   0  0  0  0  0  0  0  0  0  0  0  0
   -2.3122    1.5303    0.8950 O   0  0  0  0  0  0  0  0  0  0  0  0
    2.3169    1.1279   -0.0522 H   0  0  0  0  0  0  0  0  0  0  0  0
    2.1174    0.0786    1.3616 H   0  0  0  0  0  0  0  0  0  0  0  0
    2.7153   -0.5982   -0.1633 H   0  0  0  0  0  0  0  0  0  0  0  0
   -0.0523   -2.0965    0.2630 H   0  0  0  0  0  0  0  0  0  0  0  0
   -0.2525   -0.9768    1.7245 H   0  0  0  0  0  0  0  0  0  0  0  0
   -2.4736   -1.2004    0.3361 H   0  0  0  0  0  0  0  0  0  0  0  0
    0.3287    0.3846   -2.3016 H   0  0  0  0  0  0  0  0  0  0  0  0
    0.1411    2.1352   -0.3025 H   0  0  0  0  0  0  0  0  0  0  0  0
  1  2  1  0
  2  3  1  0
  3  4  1  0
  4  5  1  0
  5  6  1  0
  6  7  1  0
  7  8  1  0
  8  9  2  0
  6  2  1  0
  7  2  1  0
  8  4  1  0
  1 10  1  0
  1 11  1  0
  1 12  1  0
  3 13  1  0
  3 14  1  0
  4 15  1  0
  6 16  1  0
  7 17  1  0
M  END
