
     RDKit          3D

 19 21  0  0  0  0  0  0  0  0999 V2000
    2.5185   -0.2310   -0.0385 C   0  0  0  0  0  0  0  0  0  0  0  0
    1.0172   -0.1057    0.1530 C   0  0  0  0  0  0  0  0  0  0  0  0
    0.7131    0.7408    1.2575 O   0  0  0  0  0  0  0  0  0  0  0  0
   -0.7002    0.8324    1.2324 C   0  0  0  0  0  0  0  0  0  0  0  0
   -1.1225    0.7681   -0.2122 C   0  0  0  0  0  0  0  0  0  0  0  0
   -1.9340   -0.4792   -0.5402 C   0  0  0  0  0  0  0  0  0  0  0  0
   -0.9517   -1.2657   -1.1997 O   0  0  0  0  0  0  0  0  0  0  0  0
    0.1451   -1.1419   -0.3465 C   0  0  0  0  0  0  0  0  0  0  0  0
    0.1848    0.3448   -0.8191 C   0  0  0  0  0  0  0  0  0  0  0  0
    3.0556    0.6178    0.3820 H   0  0  0  0  0  0  0  0  0  0  0  0
    2.8365   -1.1899    0.4218 H   0  0  0  0  0  0  0  0  0  0  0  0
    2.7203   -0.2386   -1.1339 H   0  0  0  0  0  0  0  0  0  0  0  0
   -1.1771    0.1019    1.8732 H   0  0  0  0  0  0  0  0  0  0  0  0
   -0.9226    1.8586    1.5976 H   0  0  0  0  0  0  0  0  0  0  0  0
   -1.5455    1.6831   -0.6100 H   0  0  0  0  0  0  0  0  0  0  0  0
   -2.1640   -0.9977    0.4167 H   0  0  0  0  0  0  0  0  0  0  0  0
   -2.7931   -0.2769   -1.1691 H   0  0  0  0  0  0  0  0  0  0  0  0
   -0.3111   -1.5071    0.5896 H   0  0  0  0  0  0  0  0  0  0  0  0
    0.4308    0.4863   -1.8548 H   0  0  0  0  0  0  0  0  0  0  0  0
  1  2  1  0
  2  3  1  0
  3  4  1  0
  4  5  1  0
  5  6  1  0
  6  7  1  0
  7  8  1  0
  8  9  1  0
  8  2  1  0
  9  2  1  0
  9  5  1  0
  1 10  1  0
  1 11  1  0
  1 12  1  0
  4 13  1  0
  4 14  1  0
  5 15  1  0
  6 16  1  0
  6 17  1  0
  8 18  1  0
  9 19  1  0
M  END
