
     RDKit          3D

 19 22  0  0  0  0  0  0  0  0999 V2000
    2.2132    0.1073    0.0106 C   0  0  0  0  0  0  0  0  0  0  0  0
    0.7708    0.1506   -0.1024 C   0  0  0  0  0  0  0  0  0  0  0  0
    0.0448    0.7876    1.0977 C   0  0  0  0  0  0  0  0  0  0  0  0
   -1.3611    0.5187    0.5404 C   0  0  0  0  0  0  0  0  0  0  0  0
   -1.1337    0.7272   -0.9172 C   0  0  0  0  0  0  0  0  0  0  0  0
    0.2431    0.9817   -1.1034 O   0  0  0  0  0  0  0  0  0  0  0  0
   -1.1251   -0.7681   -1.0910 C   0  0  0  0  0  0  0  0  0  0  0  0
   -1.2826   -0.9588    0.3131 C   0  0  0  0  0  0  0  0  0  0  0  0
    0.0514   -1.1575   -0.2817 C   0  0  0  0  0  0  0  0  0  0  0  0
    2.5072    0.0644    1.1018 H   0  0  0  0  0  0  0  0  0  0  0  0
    2.6687    1.0460   -0.3644 H   0  0  0  0  0  0  0  0  0  0  0  0
    2.6827   -0.8024   -0.4335 H   0  0  0  0  0  0  0  0  0  0  0  0
    0.2864    1.8483    1.0757 H   0  0  0  0  0  0  0  0  0  0  0  0
    0.2360    0.2579    2.0216 H   0  0  0  0  0  0  0  0  0  0  0  0
   -2.1841    0.9517    1.0430 H   0  0  0  0  0  0  0  0  0  0  0  0
   -1.8191    1.3116   -1.4925 H   0  0  0  0  0  0  0  0  0  0  0  0
   -1.5195   -1.2813   -1.9316 H   0  0  0  0  0  0  0  0  0  0  0  0
   -1.8432   -1.6830    0.8662 H   0  0  0  0  0  0  0  0  0  0  0  0
    0.5642   -2.1018   -0.3524 H   0  0  0  0  0  0  0  0  0  0  0  0
  1  2  1  0
  2  3  1  0
  3  4  1  0
  4  5  1  0
  5  6  1  0
  5  7  1  0
  7  8  1  0
  8  9  1  0
  6  2  1  0
  9  7  1  0
  9  2  1  0
  8  4  1  0
  1 10  1  0
  1 11  1  0
  1 12  1  0
  3 13  1  0
  3 14  1  0
  4 15  1  0
  5 16  1  0
  7 17  1  0
  8 18  1  0
  9 19  1  0
M  END
