
     RDKit          3D

 17 18  0  0  0  0  0  0  0  0999 V2000
   -1.8266   -0.9067    0.1749 C   0  0  0  0  0  0  0  0  0  0  0  0
   -0.7235    0.0641    0.3986 C   0  0  0  0  0  0  0  0  0  0  0  0
   -0.9629    1.5374    0.0287 C   0  0  0  0  0  0  0  0  0  0  0  0
    0.4358    1.5361   -0.4670 C   0  0  0  0  0  0  0  0  0  0  0  0
    1.2025    2.3129   -0.9925 O   0  0  0  0  0  0  0  0  0  0  0  0
    0.5371    0.1417   -0.0480 C   0  0  0  0  0  0  0  0  0  0  0  0
    1.5973   -0.7769   -0.4819 C   0  0  0  0  0  0  0  0  0  0  0  0
    2.7385   -0.5364    0.3203 O   0  0  0  0  0  0  0  0  0  0  0  0
    0.2196   -0.1046    1.3808 O   0  0  0  0  0  0  0  0  0  0  0  0
   -2.1124   -1.4654    1.0905 H   0  0  0  0  0  0  0  0  0  0  0  0
   -2.7467   -0.3094   -0.0939 H   0  0  0  0  0  0  0  0  0  0  0  0
   -1.6487   -1.5849   -0.6852 H   0  0  0  0  0  0  0  0  0  0  0  0
   -1.0408    2.1339    0.9745 H   0  0  0  0  0  0  0  0  0  0  0  0
   -1.7456    1.7000   -0.7125 H   0  0  0  0  0  0  0  0  0  0  0  0
    1.2567   -1.8319   -0.2989 H   0  0  0  0  0  0  0  0  0  0  0  0
    1.9198   -0.6266   -1.5176 H   0  0  0  0  0  0  0  0  0  0  0  0
    2.9000   -1.2834    0.9292 H   0  0  0  0  0  0  0  0  0  0  0  0
  1  2  1  0
  2  3  1  0
  3  4  1  0
  4  5  2  0
  4  6  1  0
  6  7  1  0
  7  8  1  0
  6  9  1  0
  6  2  1  0
  9  2  1  0
  1 10  1  0
  1 11  1  0
  1 12  1  0
  3 13  1  0
  3 14  1  0
  7 15  1  0
  7 16  1  0
  8 17  1  0
M  END
