
     RDKit          3D

 17 18  0  0  0  0  0  0  0  0999 V2000
   -1.3025   -1.3664    0.7754 C   0  0  0  0  0  0  0  0  0  0  0  0
   -0.6170   -0.3308   -0.0842 C   0  0  0  0  0  0  0  0  0  0  0  0
   -1.1554    0.0223   -1.3066 O   0  0  0  0  0  0  0  0  0  0  0  0
   -1.1878    0.9680   -0.2963 C   0  0  0  0  0  0  0  0  0  0  0  0
   -0.0628    1.9422   -0.3098 C   0  0  0  0  0  0  0  0  0  0  0  0
    1.0701    1.3389   -0.0537 C   0  0  0  0  0  0  0  0  0  0  0  0
    0.8593   -0.1247    0.1668 C   0  0  0  0  0  0  0  0  0  0  0  0
    1.7079   -0.9491   -0.7151 C   0  0  0  0  0  0  0  0  0  0  0  0
    2.8589   -1.1520   -0.3701 O   0  0  0  0  0  0  0  0  0  0  0  0
   -2.3421   -1.0849    0.9838 H   0  0  0  0  0  0  0  0  0  0  0  0
   -1.1909   -2.3495    0.2935 H   0  0  0  0  0  0  0  0  0  0  0  0
   -0.7465   -1.3633    1.7579 H   0  0  0  0  0  0  0  0  0  0  0  0
   -2.1617    1.3220    0.0913 H   0  0  0  0  0  0  0  0  0  0  0  0
   -0.1640    3.0099   -0.5051 H   0  0  0  0  0  0  0  0  0  0  0  0
    2.0348    1.8322   -0.0071 H   0  0  0  0  0  0  0  0  0  0  0  0
    1.0442   -0.3380    1.2247 H   0  0  0  0  0  0  0  0  0  0  0  0
    1.3556   -1.3767   -1.6453 H   0  0  0  0  0  0  0  0  0  0  0  0
  1  2  1  0
  2  3  1  0
  3  4  1  0
  4  5  1  0
  5  6  2  0
  6  7  1  0
  7  8  1  0
  8  9  2  0
  4  2  1  0
  7  2  1  0
  1 10  1  0
  1 11  1  0
  1 12  1  0
  4 13  1  0
  5 14  1  0
  6 15  1  0
  7 16  1  0
  8 17  1  0
M  END
