
     RDKit          3D

 17 20  0  0  0  0  0  0  0  0999 V2000
    1.7566   -0.9141    0.2747 C   0  0  0  0  0  0  0  0  0  0  0  0
    0.6656    0.0107    0.1194 C   0  0  0  0  0  0  0  0  0  0  0  0
    0.1452    1.0171    0.9758 C   0  0  0  0  0  0  0  0  0  0  0  0
    0.5910    1.3141   -0.4486 C   0  0  0  0  0  0  0  0  0  0  0  0
   -0.8154    1.0630   -0.8807 C   0  0  0  0  0  0  0  0  0  0  0  0
   -1.2099    0.8774    0.4733 C   0  0  0  0  0  0  0  0  0  0  0  0
   -0.6730   -0.2741   -0.4479 C   0  0  0  0  0  0  0  0  0  0  0  0
   -1.4262   -1.4433   -0.4288 C   0  0  0  0  0  0  0  0  0  0  0  0
   -2.2067   -1.7491   -1.3359 O   0  0  0  0  0  0  0  0  0  0  0  0
    2.3014   -0.8001    1.2571 H   0  0  0  0  0  0  0  0  0  0  0  0
    1.4071   -1.9686    0.2674 H   0  0  0  0  0  0  0  0  0  0  0  0
    2.5084   -0.8391   -0.5627 H   0  0  0  0  0  0  0  0  0  0  0  0
    0.5153    1.5393    1.8143 H   0  0  0  0  0  0  0  0  0  0  0  0
    1.2441    2.0664   -0.7266 H   0  0  0  0  0  0  0  0  0  0  0  0
   -1.2938    1.5217   -1.7089 H   0  0  0  0  0  0  0  0  0  0  0  0
   -2.1279    0.7539    0.9685 H   0  0  0  0  0  0  0  0  0  0  0  0
   -1.3817   -2.1751    0.3895 H   0  0  0  0  0  0  0  0  0  0  0  0
  1  2  1  0
  2  3  1  0
  3  4  1  0
  4  5  1  0
  5  6  1  0
  6  7  1  0
  7  8  1  0
  8  9  2  0
  4  2  1  0
  7  5  1  0
  7  2  1  0
  6  3  1  0
  1 10  1  0
  1 11  1  0
  1 12  1  0
  3 13  1  0
  4 14  1  0
  5 15  1  0
  6 16  1  0
  8 17  1  0
M  END
