
     RDKit          3D

 19 22  0  0  0  0  0  0  0  0999 V2000
    1.6785    1.2268   -0.4712 C   0  0  0  0  0  0  0  0  0  0  0  0
    0.6879    0.1526   -0.4941 C   0  0  0  0  0  0  0  0  0  0  0  0
   -0.7718    0.3633   -0.7172 C   0  0  0  0  0  0  0  0  0  0  0  0
   -1.4162    0.7090    0.6349 C   0  0  0  0  0  0  0  0  0  0  0  0
   -0.8836   -0.6838    1.0009 C   0  0  0  0  0  0  0  0  0  0  0  0
   -1.2690   -1.0619   -0.4307 C   0  0  0  0  0  0  0  0  0  0  0  0
   -0.2828   -1.8821   -0.8920 O   0  0  0  0  0  0  0  0  0  0  0  0
    0.9087   -1.2726   -0.4437 C   0  0  0  0  0  0  0  0  0  0  0  0
    0.6039   -0.6717    0.8432 C   0  0  0  0  0  0  0  0  0  0  0  0
    1.5084    1.8592    0.4483 H   0  0  0  0  0  0  0  0  0  0  0  0
    1.5155    1.9126   -1.3296 H   0  0  0  0  0  0  0  0  0  0  0  0
    2.6893    0.8290   -0.4139 H   0  0  0  0  0  0  0  0  0  0  0  0
   -1.1417    0.8498   -1.5798 H   0  0  0  0  0  0  0  0  0  0  0  0
   -0.8381    1.5278    1.0849 H   0  0  0  0  0  0  0  0  0  0  0  0
   -2.4937    0.7947    0.5810 H   0  0  0  0  0  0  0  0  0  0  0  0
   -1.3507   -1.2000    1.7981 H   0  0  0  0  0  0  0  0  0  0  0  0
   -2.2958   -1.2606   -0.6245 H   0  0  0  0  0  0  0  0  0  0  0  0
    1.8636   -1.7836   -0.6222 H   0  0  0  0  0  0  0  0  0  0  0  0
    1.2876   -0.4084    1.6277 H   0  0  0  0  0  0  0  0  0  0  0  0
  1  2  1  0
  2  3  1  0
  3  4  1  0
  4  5  1  0
  5  6  1  0
  6  7  1  0
  7  8  1  0
  8  9  1  0
  8  2  1  0
  9  2  1  0
  6  3  1  0
  9  5  1  0
  1 10  1  0
  1 11  1  0
  1 12  1  0
  3 13  1  0
  4 14  1  0
  4 15  1  0
  5 16  1  0
  6 17  1  0
  8 18  1  0
  9 19  1  0
M  END
