
     RDKit          3D

 23 25  0  0  0  0  0  0  0  0999 V2000
   -2.2020   -0.5642   -0.3087 C   0  0  0  0  0  0  0  0  0  0  0  0
   -0.7216   -0.4878   -0.2591 C   0  0  0  0  0  0  0  0  0  0  0  0
    0.1101   -0.4199   -1.5062 C   0  0  0  0  0  0  0  0  0  0  0  0
    1.1120    0.4189   -0.7340 C   0  0  0  0  0  0  0  0  0  0  0  0
    2.0952   -0.4046    0.0916 C   0  0  0  0  0  0  0  0  0  0  0  0
    1.3011   -1.1723    1.0884 C   0  0  0  0  0  0  0  0  0  0  0  0
   -0.0527   -0.4743    1.0956 C   0  0  0  0  0  0  0  0  0  0  0  0
    0.0173    0.6854    0.2505 C   0  0  0  0  0  0  0  0  0  0  0  0
   -0.6122    1.9914    0.4374 C   0  0  0  0  0  0  0  0  0  0  0  0
   -2.7255    0.3913   -0.3513 H   0  0  0  0  0  0  0  0  0  0  0  0
   -2.5362   -1.1546   -1.2082 H   0  0  0  0  0  0  0  0  0  0  0  0
   -2.5360   -1.1897    0.5707 H   0  0  0  0  0  0  0  0  0  0  0  0
    0.4399   -1.4063   -1.8182 H   0  0  0  0  0  0  0  0  0  0  0  0
   -0.3327    0.1848   -2.3177 H   0  0  0  0  0  0  0  0  0  0  0  0
    1.5501    1.2601   -1.2575 H   0  0  0  0  0  0  0  0  0  0  0  0
    2.7759    0.3563    0.5679 H   0  0  0  0  0  0  0  0  0  0  0  0
    2.6920   -1.0737   -0.5771 H   0  0  0  0  0  0  0  0  0  0  0  0
    1.7474   -1.2396    2.0887 H   0  0  0  0  0  0  0  0  0  0  0  0
    1.0838   -2.2039    0.6805 H   0  0  0  0  0  0  0  0  0  0  0  0
   -0.7057   -0.5404    1.9547 H   0  0  0  0  0  0  0  0  0  0  0  0
   -1.6264    1.8445    0.9115 H   0  0  0  0  0  0  0  0  0  0  0  0
   -0.8036    2.5341   -0.5274 H   0  0  0  0  0  0  0  0  0  0  0  0
   -0.0705    2.6644    1.1279 H   0  0  0  0  0  0  0  0  0  0  0  0
  1  2  1  0
  2  3  1  0
  3  4  1  0
  4  5  1  0
  5  6  1  0
  6  7  1  0
  7  8  1  0
  8  9  1  0
  7  2  1  0
  8  2  1  0
  8  4  1  0
  1 10  1  0
  1 11  1  0
  1 12  1  0
  3 13  1  0
  3 14  1  0
  4 15  1  0
  5 16  1  0
  5 17  1  0
  6 18  1  0
  6 19  1  0
  7 20  1  0
  9 21  1  0
  9 22  1  0
  9 23  1  0
M  END
