
     RDKit          3D

 19 20  0  0  0  0  0  0  0  0999 V2000
   -2.1861   -0.2799   -0.3616 C   0  0  0  0  0  0  0  0  0  0  0  0
   -0.7300   -0.1179   -0.1090 C   0  0  0  0  0  0  0  0  0  0  0  0
   -0.4640    0.8723    0.9926 C   0  0  0  0  0  0  0  0  0  0  0  0
    0.6460    1.4962    0.6452 C   0  0  0  0  0  0  0  0  0  0  0  0
    1.0910    0.9216   -0.6477 C   0  0  0  0  0  0  0  0  0  0  0  0
    1.9087   -0.3167   -0.3505 C   0  0  0  0  0  0  0  0  0  0  0  0
    1.1454   -1.4486   -0.6368 O   0  0  0  0  0  0  0  0  0  0  0  0
    0.0050   -1.3816    0.1835 C   0  0  0  0  0  0  0  0  0  0  0  0
   -0.1512    0.5510   -1.2123 O   0  0  0  0  0  0  0  0  0  0  0  0
   -2.4392   -0.1236   -1.4409 H   0  0  0  0  0  0  0  0  0  0  0  0
   -2.6047   -1.2508   -0.0726 H   0  0  0  0  0  0  0  0  0  0  0  0
   -2.7154    0.5593    0.1728 H   0  0  0  0  0  0  0  0  0  0  0  0
   -1.0858    1.0048    1.8666 H   0  0  0  0  0  0  0  0  0  0  0  0
    1.1560    2.2758    1.1749 H   0  0  0  0  0  0  0  0  0  0  0  0
    1.6060    1.6369   -1.2865 H   0  0  0  0  0  0  0  0  0  0  0  0
    2.1527   -0.3917    0.7482 H   0  0  0  0  0  0  0  0  0  0  0  0
    2.8664   -0.2975   -0.8926 H   0  0  0  0  0  0  0  0  0  0  0  0
   -0.5808   -2.3036   -0.0087 H   0  0  0  0  0  0  0  0  0  0  0  0
    0.3800   -1.4060    1.2354 H   0  0  0  0  0  0  0  0  0  0  0  0
  1  2  1  0
  2  3  1  0
  3  4  2  0
  4  5  1  0
  5  6  1  0
  6  7  1  0
  7  8  1  0
  5  9  1  0
  8  2  1  0
  9  2  1  0
  1 10  1  0
  1 11  1  0
  1 12  1  0
  3 13  1  0
  4 14  1  0
  5 15  1  0
  6 16  1  0
  6 17  1  0
  8 18  1  0
  8 19  1  0
M  END
