
     RDKit          3D

 19 21  0  0  0  0  0  0  0  0999 V2000
    1.8649    0.6760    0.4209 C   0  0  0  0  0  0  0  0  0  0  0  0
    0.4886    0.2072    0.4079 C   0  0  0  0  0  0  0  0  0  0  0  0
   -0.2195   -0.6399    1.3259 C   0  0  0  0  0  0  0  0  0  0  0  0
   -1.6607   -0.2055    1.1693 C   0  0  0  0  0  0  0  0  0  0  0  0
   -1.7726    0.4106   -0.0032 C   0  0  0  0  0  0  0  0  0  0  0  0
   -0.4794    0.4507   -0.7188 C   0  0  0  0  0  0  0  0  0  0  0  0
   -0.2455    1.5277   -1.5233 O   0  0  0  0  0  0  0  0  0  0  0  0
   -0.0906   -0.9055   -1.2624 C   0  0  0  0  0  0  0  0  0  0  0  0
    0.3216   -1.3023    0.1197 C   0  0  0  0  0  0  0  0  0  0  0  0
    1.9518    1.5965   -0.2277 H   0  0  0  0  0  0  0  0  0  0  0  0
    2.5637   -0.0596   -0.0769 H   0  0  0  0  0  0  0  0  0  0  0  0
    2.2684    0.8406    1.4222 H   0  0  0  0  0  0  0  0  0  0  0  0
    0.1023   -1.0126    2.2884 H   0  0  0  0  0  0  0  0  0  0  0  0
   -2.4748   -0.3632    1.8838 H   0  0  0  0  0  0  0  0  0  0  0  0
   -2.7034    0.8243   -0.3698 H   0  0  0  0  0  0  0  0  0  0  0  0
   -1.0380    2.1446   -1.4515 H   0  0  0  0  0  0  0  0  0  0  0  0
   -0.8971   -1.4685   -1.7351 H   0  0  0  0  0  0  0  0  0  0  0  0
    0.8337   -0.7753   -1.8973 H   0  0  0  0  0  0  0  0  0  0  0  0
    1.1867   -1.9457    0.2279 H   0  0  0  0  0  0  0  0  0  0  0  0
  1  2  1  0
  2  3  1  0
  3  4  1  0
  4  5  2  0
  5  6  1  0
  6  7  1  0
  6  8  1  0
  8  9  1  0
  6  2  1  0
  9  2  1  0
  9  3  1  0
  1 10  1  0
  1 11  1  0
  1 12  1  0
  3 13  1  0
  4 14  1  0
  5 15  1  0
  7 16  1  0
  8 17  1  0
  8 18  1  0
  9 19  1  0
M  END
