
     RDKit          3D

 21 23  0  0  0  0  0  0  0  0999 V2000
   -2.0581    0.6985    0.5593 C   0  0  0  0  0  0  0  0  0  0  0  0
   -0.9551   -0.0417   -0.1892 C   0  0  0  0  0  0  0  0  0  0  0  0
   -0.4263   -1.3245    0.3641 C   0  0  0  0  0  0  0  0  0  0  0  0
    1.0621   -1.1641    0.4518 C   0  0  0  0  0  0  0  0  0  0  0  0
    1.5527   -0.5397    1.5780 O   0  0  0  0  0  0  0  0  0  0  0  0
    2.0242    0.5626    0.8726 C   0  0  0  0  0  0  0  0  0  0  0  0
    1.4224    0.0201   -0.3971 C   0  0  0  0  0  0  0  0  0  0  0  0
    0.1734    0.7362   -0.7620 C   0  0  0  0  0  0  0  0  0  0  0  0
   -0.8471    0.1876   -1.6622 C   0  0  0  0  0  0  0  0  0  0  0  0
   -3.0595    0.3933    0.1947 H   0  0  0  0  0  0  0  0  0  0  0  0
   -1.9879    1.7977    0.3489 H   0  0  0  0  0  0  0  0  0  0  0  0
   -2.0075    0.4560    1.6239 H   0  0  0  0  0  0  0  0  0  0  0  0
   -0.8140   -1.5979    1.3534 H   0  0  0  0  0  0  0  0  0  0  0  0
   -0.6217   -2.1594   -0.3556 H   0  0  0  0  0  0  0  0  0  0  0  0
    1.6192   -2.0961    0.2572 H   0  0  0  0  0  0  0  0  0  0  0  0
    1.5784    1.5184    1.1880 H   0  0  0  0  0  0  0  0  0  0  0  0
    3.1214    0.6493    0.7889 H   0  0  0  0  0  0  0  0  0  0  0  0
    2.1245   -0.2433   -1.1935 H   0  0  0  0  0  0  0  0  0  0  0  0
    0.2183    1.8452   -0.5993 H   0  0  0  0  0  0  0  0  0  0  0  0
   -1.5741    0.9371   -2.0765 H   0  0  0  0  0  0  0  0  0  0  0  0
   -0.5452   -0.6351   -2.3454 H   0  0  0  0  0  0  0  0  0  0  0  0
  1  2  1  0
  2  3  1  0
  3  4  1  0
  4  5  1  0
  5  6  1  0
  6  7  1  0
  7  8  1  0
  8  9  1  0
  8  2  1  0
  9  2  1  0
  7  4  1  0
  1 10  1  0
  1 11  1  0
  1 12  1  0
  3 13  1  0
  3 14  1  0
  4 15  1  0
  6 16  1  0
  6 17  1  0
  7 18  1  0
  8 19  1  0
  9 20  1  0
  9 21  1  0
M  END
