
     RDKit          3D

 19 21  0  0  0  0  0  0  0  0999 V2000
    2.3551   -0.6559    0.1276 C   0  0  0  0  0  0  0  0  0  0  0  0
    0.9517   -0.2341    0.3456 C   0  0  0  0  0  0  0  0  0  0  0  0
    0.7312    0.8720    1.1868 O   0  0  0  0  0  0  0  0  0  0  0  0
   -0.5974    1.2258    1.0657 C   0  0  0  0  0  0  0  0  0  0  0  0
   -1.1183    0.6444   -0.2298 C   0  0  0  0  0  0  0  0  0  0  0  0
   -1.8484    1.4544   -1.0365 O   0  0  0  0  0  0  0  0  0  0  0  0
   -1.5800   -0.7631   -0.0140 C   0  0  0  0  0  0  0  0  0  0  0  0
   -0.1370   -1.1793    0.0575 C   0  0  0  0  0  0  0  0  0  0  0  0
    0.1425    0.0859   -0.8191 C   0  0  0  0  0  0  0  0  0  0  0  0
    2.3635   -1.7475   -0.1049 H   0  0  0  0  0  0  0  0  0  0  0  0
    2.7645   -0.0837   -0.7557 H   0  0  0  0  0  0  0  0  0  0  0  0
    2.9917   -0.3830    0.9760 H   0  0  0  0  0  0  0  0  0  0  0  0
   -0.7882    2.3009    1.0485 H   0  0  0  0  0  0  0  0  0  0  0  0
   -1.1768    0.7634    1.8954 H   0  0  0  0  0  0  0  0  0  0  0  0
   -1.2110    2.1101   -1.4666 H   0  0  0  0  0  0  0  0  0  0  0  0
   -2.0721   -1.1505   -0.9522 H   0  0  0  0  0  0  0  0  0  0  0  0
   -2.1924   -0.9605    0.8763 H   0  0  0  0  0  0  0  0  0  0  0  0
    0.1322   -2.1442   -0.3594 H   0  0  0  0  0  0  0  0  0  0  0  0
    0.2893   -0.1552   -1.8412 H   0  0  0  0  0  0  0  0  0  0  0  0
  1  2  1  0
  2  3  1  0
  3  4  1  0
  4  5  1  0
  5  6  1  0
  5  7  1  0
  7  8  1  0
  8  9  1  0
  8  2  1  0
  9  2  1  0
  9  5  1  0
  1 10  1  0
  1 11  1  0
  1 12  1  0
  4 13  1  0
  4 14  1  0
  6 15  1  0
  7 16  1  0
  7 17  1  0
  8 18  1  0
  9 19  1  0
M  END
