
     RDKit          3D

 17 18  0  0  0  0  0  0  0  0999 V2000
    1.7497    0.1672    0.5670 C   0  0  0  0  0  0  0  0  0  0  0  0
    0.4200   -0.0466   -0.0971 C   0  0  0  0  0  0  0  0  0  0  0  0
    0.2541   -1.3621   -0.8206 C   0  0  0  0  0  0  0  0  0  0  0  0
   -0.7960   -1.7498    0.0189 O   0  0  0  0  0  0  0  0  0  0  0  0
   -0.6787   -0.5853    0.7555 C   0  0  0  0  0  0  0  0  0  0  0  0
   -1.7852    0.3573    0.5773 C   0  0  0  0  0  0  0  0  0  0  0  0
   -1.4807    1.3038   -0.3153 C   0  0  0  0  0  0  0  0  0  0  0  0
   -0.1407    1.0965   -0.8290 C   0  0  0  0  0  0  0  0  0  0  0  0
    0.4804    1.7311   -1.7221 O   0  0  0  0  0  0  0  0  0  0  0  0
    2.1528    1.1299    0.2003 H   0  0  0  0  0  0  0  0  0  0  0  0
    2.4935   -0.6144    0.2791 H   0  0  0  0  0  0  0  0  0  0  0  0
    1.6647    0.2607    1.6734 H   0  0  0  0  0  0  0  0  0  0  0  0
   -0.1608   -1.2662   -1.8637 H   0  0  0  0  0  0  0  0  0  0  0  0
    1.0915   -2.0759   -0.7203 H   0  0  0  0  0  0  0  0  0  0  0  0
   -0.4202   -0.7621    1.8282 H   0  0  0  0  0  0  0  0  0  0  0  0
   -2.7296    0.2892    1.1066 H   0  0  0  0  0  0  0  0  0  0  0  0
   -2.1150    2.1268   -0.6381 H   0  0  0  0  0  0  0  0  0  0  0  0
  1  2  1  0
  2  3  1  0
  3  4  1  0
  4  5  1  0
  5  6  1  0
  6  7  2  0
  7  8  1  0
  8  9  2  0
  5  2  1  0
  8  2  1  0
  1 10  1  0
  1 11  1  0
  1 12  1  0
  3 13  1  0
  3 14  1  0
  5 15  1  0
  6 16  1  0
  7 17  1  0
M  END
