
     RDKit          3D

 19 21  0  0  0  0  0  0  0  0999 V2000
   -0.8722   -1.3121   -0.9025 C   0  0  0  0  0  0  0  0  0  0  0  0
   -0.3743   -0.2782   -0.0426 C   0  0  0  0  0  0  0  0  0  0  0  0
    0.3460    0.9060   -0.5750 C   0  0  0  0  0  0  0  0  0  0  0  0
   -0.6305    1.7794    0.2230 C   0  0  0  0  0  0  0  0  0  0  0  0
   -1.0834    0.5108    0.9130 C   0  0  0  0  0  0  0  0  0  0  0  0
   -0.1530    0.1999    1.9015 O   0  0  0  0  0  0  0  0  0  0  0  0
    0.4918   -0.7343    1.0948 C   0  0  0  0  0  0  0  0  0  0  0  0
    1.8367   -0.3117    0.5596 C   0  0  0  0  0  0  0  0  0  0  0  0
    1.5926    0.9338   -0.0103 O   0  0  0  0  0  0  0  0  0  0  0  0
   -0.0739   -1.5831   -1.6586 H   0  0  0  0  0  0  0  0  0  0  0  0
   -1.0426   -2.2601   -0.3408 H   0  0  0  0  0  0  0  0  0  0  0  0
   -1.7756   -1.0881   -1.5017 H   0  0  0  0  0  0  0  0  0  0  0  0
    0.2443    1.1321   -1.6355 H   0  0  0  0  0  0  0  0  0  0  0  0
   -1.3780    2.2991   -0.3651 H   0  0  0  0  0  0  0  0  0  0  0  0
   -0.1145    2.4718    0.9173 H   0  0  0  0  0  0  0  0  0  0  0  0
   -2.1244    0.4123    1.1478 H   0  0  0  0  0  0  0  0  0  0  0  0
    0.3907   -1.7633    1.4286 H   0  0  0  0  0  0  0  0  0  0  0  0
    2.6283   -0.3127    1.2913 H   0  0  0  0  0  0  0  0  0  0  0  0
    2.0921   -1.0015   -0.2760 H   0  0  0  0  0  0  0  0  0  0  0  0
  1  2  1  0
  2  3  1  0
  3  4  1  0
  4  5  1  0
  5  6  1  0
  6  7  1  0
  7  8  1  0
  8  9  1  0
  5  2  1  0
  7  2  1  0
  9  3  1  0
  1 10  1  0
  1 11  1  0
  1 12  1  0
  3 13  1  0
  4 14  1  0
  4 15  1  0
  5 16  1  0
  7 17  1  0
  8 18  1  0
  8 19  1  0
M  END
