
     RDKit          3D

 19 21  0  0  0  0  0  0  0  0999 V2000
   -0.6310    1.4358    0.4101 C   0  0  0  0  0  0  0  0  0  0  0  0
   -0.2756   -0.0659    0.4009 C   0  0  0  0  0  0  0  0  0  0  0  0
    1.0888   -0.2695    0.9118 C   0  0  0  0  0  0  0  0  0  0  0  0
    1.8964    0.0665   -0.3638 C   0  0  0  0  0  0  0  0  0  0  0  0
    1.0314   -0.5133   -1.4534 C   0  0  0  0  0  0  0  0  0  0  0  0
   -0.1983   -0.5958   -1.0219 C   0  0  0  0  0  0  0  0  0  0  0  0
   -1.6697   -0.8398   -0.8354 C   0  0  0  0  0  0  0  0  0  0  0  0
   -1.9094   -1.9729   -0.0724 O   0  0  0  0  0  0  0  0  0  0  0  0
   -1.4167   -0.9451    0.6961 C   0  0  0  0  0  0  0  0  0  0  0  0
   -1.5635    1.6173   -0.1706 H   0  0  0  0  0  0  0  0  0  0  0  0
    0.2332    1.9776    0.0429 H   0  0  0  0  0  0  0  0  0  0  0  0
   -0.8160    1.6783    1.4770 H   0  0  0  0  0  0  0  0  0  0  0  0
    1.3702    0.4327    1.7305 H   0  0  0  0  0  0  0  0  0  0  0  0
    1.2784   -1.3018    1.2182 H   0  0  0  0  0  0  0  0  0  0  0  0
    1.9388    1.1406   -0.5176 H   0  0  0  0  0  0  0  0  0  0  0  0
    2.8832   -0.4120   -0.3128 H   0  0  0  0  0  0  0  0  0  0  0  0
    1.4125   -0.8060   -2.4369 H   0  0  0  0  0  0  0  0  0  0  0  0
   -2.4097   -0.0914   -1.0664 H   0  0  0  0  0  0  0  0  0  0  0  0
   -2.2429   -0.5353    1.3638 H   0  0  0  0  0  0  0  0  0  0  0  0
  1  2  1  0
  2  3  1  0
  3  4  1  0
  4  5  1  0
  5  6  2  0
  6  7  1  0
  7  8  1  0
  8  9  1  0
  6  2  1  0
  9  7  1  0
  9  2  1  0
  1 10  1  0
  1 11  1  0
  1 12  1  0
  3 13  1  0
  3 14  1  0
  4 15  1  0
  4 16  1  0
  5 17  1  0
  7 18  1  0
  9 19  1  0
M  END
