
     RDKit          3D

 23 24  0  0  0  0  0  0  0  0999 V2000
    2.5105    0.3177    0.0913 C   0  0  0  0  0  0  0  0  0  0  0  0
    1.0665    0.2746    0.0834 C   0  0  0  0  0  0  0  0  0  0  0  0
    0.2524    1.5230    0.0003 C   0  0  0  0  0  0  0  0  0  0  0  0
   -1.1560    0.8934   -0.0454 C   0  0  0  0  0  0  0  0  0  0  0  0
   -1.6864    1.1062   -1.3162 O   0  0  0  0  0  0  0  0  0  0  0  0
   -0.7772   -0.5464    0.0955 C   0  0  0  0  0  0  0  0  0  0  0  0
   -1.7645   -1.5892    0.1429 C   0  0  0  0  0  0  0  0  0  0  0  0
    0.3713   -0.6585   -0.9160 C   0  0  0  0  0  0  0  0  0  0  0  0
    0.3370   -0.5245    1.1455 C   0  0  0  0  0  0  0  0  0  0  0  0
    2.9064    0.3443    1.1251 H   0  0  0  0  0  0  0  0  0  0  0  0
    2.9093   -0.5650   -0.4885 H   0  0  0  0  0  0  0  0  0  0  0  0
    2.8741    1.2073   -0.4595 H   0  0  0  0  0  0  0  0  0  0  0  0
    0.2924    2.0950    0.9477 H   0  0  0  0  0  0  0  0  0  0  0  0
    0.4374    2.1249   -0.8979 H   0  0  0  0  0  0  0  0  0  0  0  0
   -1.8008    1.2837    0.7385 H   0  0  0  0  0  0  0  0  0  0  0  0
   -2.4981    1.6879   -1.2834 H   0  0  0  0  0  0  0  0  0  0  0  0
   -1.5093   -2.4212   -0.5567 H   0  0  0  0  0  0  0  0  0  0  0  0
   -2.7612   -1.2096   -0.1579 H   0  0  0  0  0  0  0  0  0  0  0  0
   -1.8877   -2.0306    1.1534 H   0  0  0  0  0  0  0  0  0  0  0  0
    0.1705   -0.2184   -1.8896 H   0  0  0  0  0  0  0  0  0  0  0  0
    0.8647   -1.6471   -0.8882 H   0  0  0  0  0  0  0  0  0  0  0  0
    0.0515    0.0561    2.0501 H   0  0  0  0  0  0  0  0  0  0  0  0
    0.7972   -1.5034    1.3257 H   0  0  0  0  0  0  0  0  0  0  0  0
  1  2  1  0
  2  3  1  0
  3  4  1  0
  4  5  1  0
  4  6  1  0
  6  7  1  0
  6  8  1  0
  6  9  1  0
  8  2  1  0
  9  2  1  0
  1 10  1  0
  1 11  1  0
  1 12  1  0
  3 13  1  0
  3 14  1  0
  4 15  1  0
  5 16  1  0
  7 17  1  0
  7 18  1  0
  7 19  1  0
  8 20  1  0
  8 21  1  0
  9 22  1  0
  9 23  1  0
M  END
