
     RDKit          3D

 17 19  0  0  0  0  0  0  0  0999 V2000
    2.0738   -0.0825    0.1537 C   0  0  0  0  0  0  0  0  0  0  0  0
    0.6426   -0.2825    0.1121 C   0  0  0  0  0  0  0  0  0  0  0  0
   -0.0975   -0.8140   -1.0658 C   0  0  0  0  0  0  0  0  0  0  0  0
    0.3370   -1.2835   -2.0717 O   0  0  0  0  0  0  0  0  0  0  0  0
   -1.5101   -0.5839   -0.6106 C   0  0  0  0  0  0  0  0  0  0  0  0
   -1.4287    0.9039   -0.3251 C   0  0  0  0  0  0  0  0  0  0  0  0
   -0.2401    0.8531    0.6269 C   0  0  0  0  0  0  0  0  0  0  0  0
   -0.2935   -0.4759    1.2107 C   0  0  0  0  0  0  0  0  0  0  0  0
   -1.4414   -1.1040    0.6726 O   0  0  0  0  0  0  0  0  0  0  0  0
    2.4404    0.2753   -0.8513 H   0  0  0  0  0  0  0  0  0  0  0  0
    2.7099   -0.9700    0.3811 H   0  0  0  0  0  0  0  0  0  0  0  0
    2.3401    0.7695    0.8476 H   0  0  0  0  0  0  0  0  0  0  0  0
   -2.2744   -0.9144   -1.2519 H   0  0  0  0  0  0  0  0  0  0  0  0
   -2.3267    1.3137    0.1294 H   0  0  0  0  0  0  0  0  0  0  0  0
   -1.0801    1.3999   -1.2372 H   0  0  0  0  0  0  0  0  0  0  0  0
    0.1863    1.7412    1.0468 H   0  0  0  0  0  0  0  0  0  0  0  0
   -0.0377   -0.7459    2.2327 H   0  0  0  0  0  0  0  0  0  0  0  0
  1  2  1  0
  2  3  1  0
  3  4  2  0
  3  5  1  0
  5  6  1  0
  6  7  1  0
  7  8  1  0
  8  9  1  0
  7  2  1  0
  8  2  1  0
  9  5  1  0
  1 10  1  0
  1 11  1  0
  1 12  1  0
  5 13  1  0
  6 14  1  0
  6 15  1  0
  7 16  1  0
  8 17  1  0
M  END
