
     RDKit          3D

 19 21  0  0  0  0  0  0  0  0999 V2000
   -1.5369    0.2029    1.4932 C   0  0  0  0  0  0  0  0  0  0  0  0
   -0.7168    0.0468    0.2421 C   0  0  0  0  0  0  0  0  0  0  0  0
   -1.4905   -0.6188   -0.8558 C   0  0  0  0  0  0  0  0  0  0  0  0
   -0.9795   -1.8576   -0.4683 O   0  0  0  0  0  0  0  0  0  0  0  0
    0.0749   -1.2164    0.1280 C   0  0  0  0  0  0  0  0  0  0  0  0
    1.2202   -0.8227   -0.7614 C   0  0  0  0  0  0  0  0  0  0  0  0
    2.2722    0.0176   -0.0706 C   0  0  0  0  0  0  0  0  0  0  0  0
    1.1591    0.6393   -0.8191 C   0  0  0  0  0  0  0  0  0  0  0  0
    0.0786    1.1022   -0.1068 O   0  0  0  0  0  0  0  0  0  0  0  0
   -1.2797   -0.5819    2.2482 H   0  0  0  0  0  0  0  0  0  0  0  0
   -2.6234    0.1680    1.2288 H   0  0  0  0  0  0  0  0  0  0  0  0
   -1.3857    1.2025    1.9731 H   0  0  0  0  0  0  0  0  0  0  0  0
   -2.5870   -0.5670   -0.6829 H   0  0  0  0  0  0  0  0  0  0  0  0
   -1.2101   -0.3762   -1.8859 H   0  0  0  0  0  0  0  0  0  0  0  0
    0.3918   -1.6658    1.1065 H   0  0  0  0  0  0  0  0  0  0  0  0
    1.5611   -1.4690   -1.5719 H   0  0  0  0  0  0  0  0  0  0  0  0
    2.3069   -0.0173    1.0311 H   0  0  0  0  0  0  0  0  0  0  0  0
    3.2946    0.0330   -0.5240 H   0  0  0  0  0  0  0  0  0  0  0  0
    1.4500    1.2339   -1.7043 H   0  0  0  0  0  0  0  0  0  0  0  0
  1  2  1  0
  2  3  1  0
  3  4  1  0
  4  5  1  0
  5  6  1  0
  6  7  1  0
  7  8  1  0
  8  9  1  0
  5  2  1  0
  8  6  1  0
  9  2  1  0
  1 10  1  0
  1 11  1  0
  1 12  1  0
  3 13  1  0
  3 14  1  0
  5 15  1  0
  6 16  1  0
  7 17  1  0
  7 18  1  0
  8 19  1  0
M  END
