
     RDKit          3D

 17 18  0  0  0  0  0  0  0  0999 V2000
    2.1650   -0.4008    0.0361 C   0  0  0  0  0  0  0  0  0  0  0  0
    0.9427    0.4220    0.3471 C   0  0  0  0  0  0  0  0  0  0  0  0
    0.3319    1.2634   -0.6950 C   0  0  0  0  0  0  0  0  0  0  0  0
   -0.9718    1.1241   -0.7003 C   0  0  0  0  0  0  0  0  0  0  0  0
   -1.3763    0.1698    0.3422 C   0  0  0  0  0  0  0  0  0  0  0  0
   -1.8451   -1.0805   -0.3730 C   0  0  0  0  0  0  0  0  0  0  0  0
   -2.7961   -1.7202    0.0042 O   0  0  0  0  0  0  0  0  0  0  0  0
   -0.1523   -0.1960    1.0697 C   0  0  0  0  0  0  0  0  0  0  0  0
    0.6736    0.7889    1.6619 O   0  0  0  0  0  0  0  0  0  0  0  0
    3.1106    0.1283    0.1719 H   0  0  0  0  0  0  0  0  0  0  0  0
    2.0981   -0.6721   -1.0478 H   0  0  0  0  0  0  0  0  0  0  0  0
    2.1555   -1.3654    0.5884 H   0  0  0  0  0  0  0  0  0  0  0  0
    0.9124    1.9055   -1.3579 H   0  0  0  0  0  0  0  0  0  0  0  0
   -1.6615    1.6630   -1.4051 H   0  0  0  0  0  0  0  0  0  0  0  0
   -2.2042    0.5513    0.9815 H   0  0  0  0  0  0  0  0  0  0  0  0
   -1.3232   -1.4301   -1.2553 H   0  0  0  0  0  0  0  0  0  0  0  0
   -0.0594   -1.1510    1.6312 H   0  0  0  0  0  0  0  0  0  0  0  0
  1  2  1  0
  2  3  1  0
  3  4  2  0
  4  5  1  0
  5  6  1  0
  6  7  2  0
  5  8  1  0
  8  9  1  0
  8  2  1  0
  9  2  1  0
  1 10  1  0
  1 11  1  0
  1 12  1  0
  3 13  1  0
  4 14  1  0
  5 15  1  0
  6 16  1  0
  8 17  1  0
M  END
