
     RDKit          3D

 19 20  0  0  0  0  0  0  0  0999 V2000
    1.7417   -1.0305    0.0123 C   0  0  0  0  0  0  0  0  0  0  0  0
    0.5881   -0.1406   -0.0896 C   0  0  0  0  0  0  0  0  0  0  0  0
    0.9454    1.3385   -0.2776 C   0  0  0  0  0  0  0  0  0  0  0  0
   -0.3130    1.8285   -0.6738 O   0  0  0  0  0  0  0  0  0  0  0  0
   -1.0941    0.7404   -0.9888 C   0  0  0  0  0  0  0  0  0  0  0  0
   -0.1674   -0.2969   -1.2796 O   0  0  0  0  0  0  0  0  0  0  0  0
   -1.6985    0.0980    0.2696 C   0  0  0  0  0  0  0  0  0  0  0  0
   -2.2428   -1.0986   -0.1177 O   0  0  0  0  0  0  0  0  0  0  0  0
   -0.4003   -0.1868    1.0287 C   0  0  0  0  0  0  0  0  0  0  0  0
    1.5923   -1.8945    0.6998 H   0  0  0  0  0  0  0  0  0  0  0  0
    1.9899   -1.4335   -1.0107 H   0  0  0  0  0  0  0  0  0  0  0  0
    2.6500   -0.4597    0.3142 H   0  0  0  0  0  0  0  0  0  0  0  0
    1.2529    1.7061    0.7053 H   0  0  0  0  0  0  0  0  0  0  0  0
    1.6973    1.4615   -1.0671 H   0  0  0  0  0  0  0  0  0  0  0  0
   -1.8190    0.8854   -1.7762 H   0  0  0  0  0  0  0  0  0  0  0  0
   -2.3538    0.7715    0.8085 H   0  0  0  0  0  0  0  0  0  0  0  0
   -1.6447   -1.8692    0.1120 H   0  0  0  0  0  0  0  0  0  0  0  0
   -0.2914    0.6877    1.7348 H   0  0  0  0  0  0  0  0  0  0  0  0
   -0.4323   -1.1071    1.5957 H   0  0  0  0  0  0  0  0  0  0  0  0
  1  2  1  0
  2  3  1  0
  3  4  1  0
  4  5  1  0
  5  6  1  0
  5  7  1  0
  7  8  1  0
  7  9  1  0
  6  2  1  0
  9  2  1  0
  1 10  1  0
  1 11  1  0
  1 12  1  0
  3 13  1  0
  3 14  1  0
  5 15  1  0
  7 16  1  0
  8 17  1  0
  9 18  1  0
  9 19  1  0
M  END
