
     RDKit          3D

 19 22  0  0  0  0  0  0  0  0999 V2000
    2.0303    0.8651    0.1963 C   0  0  0  0  0  0  0  0  0  0  0  0
    0.8298    0.2174   -0.1712 C   0  0  0  0  0  0  0  0  0  0  0  0
    0.6321   -1.0615   -0.9180 C   0  0  0  0  0  0  0  0  0  0  0  0
    0.0112   -1.6661    0.2108 C   0  0  0  0  0  0  0  0  0  0  0  0
    0.0647   -0.4712    1.0119 C   0  0  0  0  0  0  0  0  0  0  0  0
   -0.5577    0.3480    0.0234 C   0  0  0  0  0  0  0  0  0  0  0  0
   -1.4421    1.4800    0.1444 C   0  0  0  0  0  0  0  0  0  0  0  0
   -0.7622   -0.8278   -0.8646 C   0  0  0  0  0  0  0  0  0  0  0  0
   -1.8586   -1.3644   -1.3048 O   0  0  0  0  0  0  0  0  0  0  0  0
    2.4058    1.6592   -0.4930 H   0  0  0  0  0  0  0  0  0  0  0  0
    1.9702    1.3579    1.1970 H   0  0  0  0  0  0  0  0  0  0  0  0
    2.8862    0.1332    0.3020 H   0  0  0  0  0  0  0  0  0  0  0  0
    1.2788   -1.4401   -1.6682 H   0  0  0  0  0  0  0  0  0  0  0  0
   -0.3168   -2.6449    0.4302 H   0  0  0  0  0  0  0  0  0  0  0  0
    0.3866   -0.2982    2.0002 H   0  0  0  0  0  0  0  0  0  0  0  0
   -1.8936    1.5726    1.1615 H   0  0  0  0  0  0  0  0  0  0  0  0
   -0.9384    2.4552   -0.1015 H   0  0  0  0  0  0  0  0  0  0  0  0
   -2.2881    1.4097   -0.5752 H   0  0  0  0  0  0  0  0  0  0  0  0
   -2.4382   -1.7240   -0.5812 H   0  0  0  0  0  0  0  0  0  0  0  0
  1  2  1  0
  2  3  1  0
  3  4  1  0
  4  5  1  0
  5  6  1  0
  6  7  1  0
  6  8  1  0
  8  9  1  0
  5  2  1  0
  6  2  1  0
  8  3  1  0
  8  4  1  0
  1 10  1  0
  1 11  1  0
  1 12  1  0
  3 13  1  0
  4 14  1  0
  5 15  1  0
  7 16  1  0
  7 17  1  0
  7 18  1  0
  9 19  1  0
M  END
