
     RDKit          3D

 18 20  0  0  0  0  0  0  0  0999 V2000
   -1.9894   -0.6804   -0.0226 C   0  0  0  0  0  0  0  0  0  0  0  0
   -0.6526   -0.0679    0.1408 C   0  0  0  0  0  0  0  0  0  0  0  0
    0.4369   -0.8103    0.9251 C   0  0  0  0  0  0  0  0  0  0  0  0
    1.6827   -0.5273    0.1356 C   0  0  0  0  0  0  0  0  0  0  0  0
    1.4075    0.8270   -0.4595 C   0  0  0  0  0  0  0  0  0  0  0  0
    0.8784    1.7672    0.4474 O   0  0  0  0  0  0  0  0  0  0  0  0
   -0.4372    1.4067    0.1695 C   0  0  0  0  0  0  0  0  0  0  0  0
    0.0051    0.6129   -0.9583 C   0  0  0  0  0  0  0  0  0  0  0  0
   -1.9343   -1.7533    0.2788 H   0  0  0  0  0  0  0  0  0  0  0  0
   -2.8114   -0.1671    0.5002 H   0  0  0  0  0  0  0  0  0  0  0  0
   -2.2523   -0.6741   -1.1030 H   0  0  0  0  0  0  0  0  0  0  0  0
    0.2092   -1.8648    1.0602 H   0  0  0  0  0  0  0  0  0  0  0  0
    0.5527   -0.2576    1.9036 H   0  0  0  0  0  0  0  0  0  0  0  0
    1.6856   -1.2521   -0.7302 H   0  0  0  0  0  0  0  0  0  0  0  0
    2.6062   -0.5986    0.6973 H   0  0  0  0  0  0  0  0  0  0  0  0
    2.1327    1.2272   -1.1596 H   0  0  0  0  0  0  0  0  0  0  0  0
   -1.2393    2.1302    0.1561 H   0  0  0  0  0  0  0  0  0  0  0  0
   -0.2804    0.6824   -1.9815 H   0  0  0  0  0  0  0  0  0  0  0  0
  1  2  1  0
  2  3  1  0
  3  4  1  0
  4  5  1  0
  5  6  1  0
  6  7  1  0
  7  8  1  0
  7  2  1  0
  8  2  1  0
  8  5  1  0
  1  9  1  0
  1 10  1  0
  1 11  1  0
  3 12  1  0
  3 13  1  0
  4 14  1  0
  4 15  1  0
  5 16  1  0
  7 17  1  0
  8 18  1  0
M  END
