
     RDKit          3D

 21 23  0  0  0  0  0  0  0  0999 V2000
    2.6132   -0.6613    0.3199 C   0  0  0  0  0  0  0  0  0  0  0  0
    1.3905    0.1606    0.0141 C   0  0  0  0  0  0  0  0  0  0  0  0
    0.2261   -0.0788    0.9204 C   0  0  0  0  0  0  0  0  0  0  0  0
   -0.9924    0.1195    0.0582 C   0  0  0  0  0  0  0  0  0  0  0  0
   -2.0825   -0.8680    0.0415 C   0  0  0  0  0  0  0  0  0  0  0  0
   -2.2392    0.4511    0.7670 C   0  0  0  0  0  0  0  0  0  0  0  0
   -0.5597    0.7894   -1.1987 C   0  0  0  0  0  0  0  0  0  0  0  0
    0.9362    0.5337   -1.2788 C   0  0  0  0  0  0  0  0  0  0  0  0
    1.6655    1.4298   -0.4679 O   0  0  0  0  0  0  0  0  0  0  0  0
    3.2899   -0.1044    1.0158 H   0  0  0  0  0  0  0  0  0  0  0  0
    2.2978   -1.5968    0.8430 H   0  0  0  0  0  0  0  0  0  0  0  0
    3.1982   -0.9282   -0.5738 H   0  0  0  0  0  0  0  0  0  0  0  0
    0.2546   -1.1435    1.2329 H   0  0  0  0  0  0  0  0  0  0  0  0
    0.1519    0.6260    1.7648 H   0  0  0  0  0  0  0  0  0  0  0  0
   -1.8989   -1.7944    0.6367 H   0  0  0  0  0  0  0  0  0  0  0  0
   -2.6304   -0.9605   -0.9270 H   0  0  0  0  0  0  0  0  0  0  0  0
   -2.9649    1.1929    0.4206 H   0  0  0  0  0  0  0  0  0  0  0  0
   -2.2613    0.3261    1.8855 H   0  0  0  0  0  0  0  0  0  0  0  0
   -0.7289    1.8967   -1.1189 H   0  0  0  0  0  0  0  0  0  0  0  0
   -1.0420    0.3785   -2.1040 H   0  0  0  0  0  0  0  0  0  0  0  0
    1.3764    0.2314   -2.2513 H   0  0  0  0  0  0  0  0  0  0  0  0
  1  2  1  0
  2  3  1  0
  3  4  1  0
  4  5  1  0
  5  6  1  0
  4  7  1  0
  7  8  1  0
  8  9  1  0
  8  2  1  0
  9  2  1  0
  6  4  1  0
  1 10  1  0
  1 11  1  0
  1 12  1  0
  3 13  1  0
  3 14  1  0
  5 15  1  0
  5 16  1  0
  6 17  1  0
  6 18  1  0
  7 19  1  0
  7 20  1  0
  8 21  1  0
M  END
