
     RDKit          3D

 15 16  0  0  0  0  0  0  0  0999 V2000
   -1.8893   -0.1116   -0.0755 C   0  0  0  0  0  0  0  0  0  0  0  0
   -0.4409    0.0534   -0.0210 C   0  0  0  0  0  0  0  0  0  0  0  0
    0.3467   -1.1143    0.4181 C   0  0  0  0  0  0  0  0  0  0  0  0
    1.5905   -0.8724    0.0187 C   0  0  0  0  0  0  0  0  0  0  0  0
    1.4898    0.4039   -0.7707 C   0  0  0  0  0  0  0  0  0  0  0  0
    1.3079    1.4849    0.1293 O   0  0  0  0  0  0  0  0  0  0  0  0
    0.0503    1.2658    0.6833 C   0  0  0  0  0  0  0  0  0  0  0  0
   -0.5463    1.9228    1.5679 O   0  0  0  0  0  0  0  0  0  0  0  0
    0.1728    0.2871   -1.2808 O   0  0  0  0  0  0  0  0  0  0  0  0
   -2.1486   -1.1676   -0.2560 H   0  0  0  0  0  0  0  0  0  0  0  0
   -2.3130    0.4790   -0.9113 H   0  0  0  0  0  0  0  0  0  0  0  0
   -2.3541    0.2820    0.8492 H   0  0  0  0  0  0  0  0  0  0  0  0
    0.0093   -1.9829    0.9470 H   0  0  0  0  0  0  0  0  0  0  0  0
    2.4824   -1.4637    0.2173 H   0  0  0  0  0  0  0  0  0  0  0  0
    2.2426    0.5336   -1.5155 H   0  0  0  0  0  0  0  0  0  0  0  0
  1  2  1  0
  2  3  1  0
  3  4  2  0
  4  5  1  0
  5  6  1  0
  6  7  1  0
  7  8  2  0
  5  9  1  0
  7  2  1  0
  9  2  1  0
  1 10  1  0
  1 11  1  0
  1 12  1  0
  3 13  1  0
  4 14  1  0
  5 15  1  0
M  END
