
     RDKit          3D

 20 21  0  0  0  0  0  0  0  0999 V2000
   -1.8522   -0.7781    0.3430 C   0  0  0  0  0  0  0  0  0  0  0  0
   -0.8670    0.2346   -0.1226 C   0  0  0  0  0  0  0  0  0  0  0  0
   -0.3386    1.2619    0.8306 C   0  0  0  0  0  0  0  0  0  0  0  0
    1.0455    1.1129    0.2470 C   0  0  0  0  0  0  0  0  0  0  0  0
    2.0265    0.6780    1.1086 O   0  0  0  0  0  0  0  0  0  0  0  0
    0.5060   -0.0911   -0.5342 C   0  0  0  0  0  0  0  0  0  0  0  0
    1.1371   -1.4181   -0.3473 C   0  0  0  0  0  0  0  0  0  0  0  0
   -0.4853    0.2260   -1.5583 C   0  0  0  0  0  0  0  0  0  0  0  0
   -1.6726   -1.1934    1.3368 H   0  0  0  0  0  0  0  0  0  0  0  0
   -1.9763   -1.5829   -0.3978 H   0  0  0  0  0  0  0  0  0  0  0  0
   -2.8556   -0.2652    0.3961 H   0  0  0  0  0  0  0  0  0  0  0  0
   -0.3334    0.8925    1.8774 H   0  0  0  0  0  0  0  0  0  0  0  0
   -0.8018    2.2546    0.6701 H   0  0  0  0  0  0  0  0  0  0  0  0
    1.3162    1.9055   -0.4690 H   0  0  0  0  0  0  0  0  0  0  0  0
    2.3355    1.3368    1.7550 H   0  0  0  0  0  0  0  0  0  0  0  0
    1.9761   -1.2985    0.3898 H   0  0  0  0  0  0  0  0  0  0  0  0
    0.4508   -2.1860    0.0540 H   0  0  0  0  0  0  0  0  0  0  0  0
    1.6248   -1.7150   -1.2986 H   0  0  0  0  0  0  0  0  0  0  0  0
   -0.9139   -0.5657   -2.1676 H   0  0  0  0  0  0  0  0  0  0  0  0
   -0.3216    1.1911   -2.1129 H   0  0  0  0  0  0  0  0  0  0  0  0
  1  2  1  0
  2  3  1  0
  3  4  1  0
  4  5  1  0
  4  6  1  0
  6  7  1  0
  6  8  1  0
  6  2  1  0
  8  2  1  0
  1  9  1  0
  1 10  1  0
  1 11  1  0
  3 12  1  0
  3 13  1  0
  4 14  1  0
  5 15  1  0
  7 16  1  0
  7 17  1  0
  7 18  1  0
  8 19  1  0
  8 20  1  0
M  END
