
     RDKit          3D

 19 22  0  0  0  0  0  0  0  0999 V2000
    2.5038    0.2193    0.2512 C   0  0  0  0  0  0  0  0  0  0  0  0
    1.0415   -0.1534    0.1339 C   0  0  0  0  0  0  0  0  0  0  0  0
    0.8059   -1.5161    0.3108 O   0  0  0  0  0  0  0  0  0  0  0  0
   -0.4655   -1.2791   -0.2855 C   0  0  0  0  0  0  0  0  0  0  0  0
   -1.2748   -0.4273    0.5875 C   0  0  0  0  0  0  0  0  0  0  0  0
   -2.4152    0.3815    0.4153 C   0  0  0  0  0  0  0  0  0  0  0  0
   -1.3416    0.8011   -0.4122 C   0  0  0  0  0  0  0  0  0  0  0  0
    0.1394    0.8686   -0.3738 C   0  0  0  0  0  0  0  0  0  0  0  0
    0.4447   -0.3682   -1.1332 C   0  0  0  0  0  0  0  0  0  0  0  0
    2.6385    1.3041    0.0471 H   0  0  0  0  0  0  0  0  0  0  0  0
    3.1095   -0.3445   -0.5167 H   0  0  0  0  0  0  0  0  0  0  0  0
    2.9175    0.0338    1.2575 H   0  0  0  0  0  0  0  0  0  0  0  0
   -0.8917   -2.1194   -0.8086 H   0  0  0  0  0  0  0  0  0  0  0  0
   -0.7685   -0.1717    1.5778 H   0  0  0  0  0  0  0  0  0  0  0  0
   -3.3282   -0.1829    0.0501 H   0  0  0  0  0  0  0  0  0  0  0  0
   -2.7767    1.1143    1.1734 H   0  0  0  0  0  0  0  0  0  0  0  0
   -1.6337    0.5706   -1.4842 H   0  0  0  0  0  0  0  0  0  0  0  0
    0.5783    1.7934   -0.7382 H   0  0  0  0  0  0  0  0  0  0  0  0
    0.7169   -0.5241   -2.1070 H   0  0  0  0  0  0  0  0  0  0  0  0
  1  2  1  0
  2  3  1  0
  3  4  1  0
  4  5  1  0
  5  6  1  0
  6  7  1  0
  7  8  1  0
  8  9  1  0
  8  2  1  0
  9  2  1  0
  9  4  1  0
  7  5  1  0
  1 10  1  0
  1 11  1  0
  1 12  1  0
  4 13  1  0
  5 14  1  0
  6 15  1  0
  6 16  1  0
  7 17  1  0
  8 18  1  0
  9 19  1  0
M  END
