
     RDKit          3D

 21 23  0  0  0  0  0  0  0  0999 V2000
    2.2581   -0.1244   -0.4985 C   0  0  0  0  0  0  0  0  0  0  0  0
    0.7772   -0.1533   -0.3099 C   0  0  0  0  0  0  0  0  0  0  0  0
    0.5072   -0.6461    1.1080 C   0  0  0  0  0  0  0  0  0  0  0  0
   -0.9289   -0.3056    1.2926 C   0  0  0  0  0  0  0  0  0  0  0  0
   -1.7724   -0.2748    0.1233 C   0  0  0  0  0  0  0  0  0  0  0  0
   -1.2188   -0.6868   -1.1850 C   0  0  0  0  0  0  0  0  0  0  0  0
    0.1203   -0.9655   -1.2096 O   0  0  0  0  0  0  0  0  0  0  0  0
   -1.0791    0.9912    0.5738 C   0  0  0  0  0  0  0  0  0  0  0  0
    0.1364    1.2041   -0.2800 C   0  0  0  0  0  0  0  0  0  0  0  0
    2.6409   -1.1525   -0.2789 H   0  0  0  0  0  0  0  0  0  0  0  0
    2.5789    0.1629   -1.5144 H   0  0  0  0  0  0  0  0  0  0  0  0
    2.6901    0.5233    0.2962 H   0  0  0  0  0  0  0  0  0  0  0  0
    0.7647   -1.6967    1.2156 H   0  0  0  0  0  0  0  0  0  0  0  0
    1.1054    0.0298    1.7887 H   0  0  0  0  0  0  0  0  0  0  0  0
   -1.3962   -0.4675    2.2774 H   0  0  0  0  0  0  0  0  0  0  0  0
   -2.8542   -0.3319    0.2349 H   0  0  0  0  0  0  0  0  0  0  0  0
   -1.7818   -1.5905   -1.5652 H   0  0  0  0  0  0  0  0  0  0  0  0
   -1.4840    0.1165   -1.9351 H   0  0  0  0  0  0  0  0  0  0  0  0
   -1.6575    1.8256    0.9726 H   0  0  0  0  0  0  0  0  0  0  0  0
    0.7563    1.9872    0.1758 H   0  0  0  0  0  0  0  0  0  0  0  0
   -0.1627    1.5550   -1.2824 H   0  0  0  0  0  0  0  0  0  0  0  0
  1  2  1  0
  2  3  1  0
  3  4  1  0
  4  5  1  0
  5  6  1  0
  6  7  1  0
  5  8  1  0
  8  9  1  0
  7  2  1  0
  9  2  1  0
  8  4  1  0
  1 10  1  0
  1 11  1  0
  1 12  1  0
  3 13  1  0
  3 14  1  0
  4 15  1  0
  5 16  1  0
  6 17  1  0
  6 18  1  0
  8 19  1  0
  9 20  1  0
  9 21  1  0
M  END
