
     RDKit          3D

 19 21  0  0  0  0  0  0  0  0999 V2000
   -1.9961    0.5482    0.3692 C   0  0  0  0  0  0  0  0  0  0  0  0
   -0.6086    0.4315   -0.1717 C   0  0  0  0  0  0  0  0  0  0  0  0
    0.3195    1.6163    0.0597 C   0  0  0  0  0  0  0  0  0  0  0  0
    1.6738    0.9634    0.2218 C   0  0  0  0  0  0  0  0  0  0  0  0
    1.8425   -0.0895    1.0867 O   0  0  0  0  0  0  0  0  0  0  0  0
    1.6187   -0.2763   -0.3924 C   0  0  0  0  0  0  0  0  0  0  0  0
    0.1376   -0.6564   -0.5238 C   0  0  0  0  0  0  0  0  0  0  0  0
   -0.1162   -2.0792   -0.0736 C   0  0  0  0  0  0  0  0  0  0  0  0
   -0.6109   -0.0930   -1.5204 O   0  0  0  0  0  0  0  0  0  0  0  0
   -2.6935    0.9235   -0.4312 H   0  0  0  0  0  0  0  0  0  0  0  0
   -2.0279    1.3122    1.1655 H   0  0  0  0  0  0  0  0  0  0  0  0
   -2.4317   -0.3932    0.7259 H   0  0  0  0  0  0  0  0  0  0  0  0
    0.3549    2.2205   -0.8735 H   0  0  0  0  0  0  0  0  0  0  0  0
   -0.0160    2.1708    0.9327 H   0  0  0  0  0  0  0  0  0  0  0  0
    2.5354    1.6575    0.0915 H   0  0  0  0  0  0  0  0  0  0  0  0
    2.3761   -0.9321   -0.8221 H   0  0  0  0  0  0  0  0  0  0  0  0
   -1.0701   -2.4849   -0.4194 H   0  0  0  0  0  0  0  0  0  0  0  0
    0.7049   -2.7448   -0.4595 H   0  0  0  0  0  0  0  0  0  0  0  0
    0.0077   -2.0944    1.0348 H   0  0  0  0  0  0  0  0  0  0  0  0
  1  2  1  0
  2  3  1  0
  3  4  1  0
  4  5  1  0
  5  6  1  0
  6  7  1  0
  7  8  1  0
  7  9  1  0
  7  2  1  0
  9  2  1  0
  6  4  1  0
  1 10  1  0
  1 11  1  0
  1 12  1  0
  3 13  1  0
  3 14  1  0
  4 15  1  0
  6 16  1  0
  8 17  1  0
  8 18  1  0
  8 19  1  0
M  END
