
     RDKit          3D

 23 24  0  0  0  0  0  0  0  0999 V2000
   -2.0277   -0.8680   -0.5800 C   0  0  0  0  0  0  0  0  0  0  0  0
   -0.7652   -0.3161    0.0717 C   0  0  0  0  0  0  0  0  0  0  0  0
   -0.0054   -1.3943    0.7084 C   0  0  0  0  0  0  0  0  0  0  0  0
    1.2975   -1.4228    0.7859 C   0  0  0  0  0  0  0  0  0  0  0  0
    2.1021   -0.3247    0.2121 C   0  0  0  0  0  0  0  0  0  0  0  0
    1.4525    0.4273   -0.8768 C   0  0  0  0  0  0  0  0  0  0  0  0
   -0.0148    0.5870   -0.8055 C   0  0  0  0  0  0  0  0  0  0  0  0
   -0.4610    1.7933    0.0037 C   0  0  0  0  0  0  0  0  0  0  0  0
   -1.0418    0.8332    1.0249 C   0  0  0  0  0  0  0  0  0  0  0  0
   -2.8868   -0.6574    0.0696 H   0  0  0  0  0  0  0  0  0  0  0  0
   -2.1783   -0.3963   -1.5617 H   0  0  0  0  0  0  0  0  0  0  0  0
   -1.9105   -1.9645   -0.7785 H   0  0  0  0  0  0  0  0  0  0  0  0
   -0.5691   -2.2270    1.1459 H   0  0  0  0  0  0  0  0  0  0  0  0
    1.7774   -2.2701    1.2807 H   0  0  0  0  0  0  0  0  0  0  0  0
    2.4334    0.3309    1.0537 H   0  0  0  0  0  0  0  0  0  0  0  0
    3.0466   -0.7988   -0.1887 H   0  0  0  0  0  0  0  0  0  0  0  0
    1.7487   -0.0084   -1.8741 H   0  0  0  0  0  0  0  0  0  0  0  0
    1.9086    1.4609   -0.8969 H   0  0  0  0  0  0  0  0  0  0  0  0
   -0.4583    0.6688   -1.8243 H   0  0  0  0  0  0  0  0  0  0  0  0
   -1.2843    2.3819   -0.4521 H   0  0  0  0  0  0  0  0  0  0  0  0
    0.3910    2.4010    0.3750 H   0  0  0  0  0  0  0  0  0  0  0  0
   -0.4176    0.8291    1.9221 H   0  0  0  0  0  0  0  0  0  0  0  0
   -2.1370    0.9350    1.1848 H   0  0  0  0  0  0  0  0  0  0  0  0
  1  2  1  0
  2  3  1  0
  3  4  2  0
  4  5  1  0
  5  6  1  0
  6  7  1  0
  7  8  1  0
  8  9  1  0
  7  2  1  0
  9  2  1  0
  1 10  1  0
  1 11  1  0
  1 12  1  0
  3 13  1  0
  4 14  1  0
  5 15  1  0
  5 16  1  0
  6 17  1  0
  6 18  1  0
  7 19  1  0
  8 20  1  0
  8 21  1  0
  9 22  1  0
  9 23  1  0
M  END
