
     RDKit          3D

 21 22  0  0  0  0  0  0  0  0999 V2000
   -2.1342    0.0897    0.4475 C   0  0  0  0  0  0  0  0  0  0  0  0
   -0.6607    0.0503    0.2107 C   0  0  0  0  0  0  0  0  0  0  0  0
    0.0230    1.3565    0.5886 C   0  0  0  0  0  0  0  0  0  0  0  0
    1.4888    1.1934    0.3997 C   0  0  0  0  0  0  0  0  0  0  0  0
    2.0511    0.0149    0.1563 C   0  0  0  0  0  0  0  0  0  0  0  0
    1.2593   -1.2360    0.0560 C   0  0  0  0  0  0  0  0  0  0  0  0
    0.0137   -1.1159    0.9462 C   0  0  0  0  0  0  0  0  0  0  0  0
    0.6079   -1.3133   -1.1976 O   0  0  0  0  0  0  0  0  0  0  0  0
   -0.2785   -0.2502   -1.2126 C   0  0  0  0  0  0  0  0  0  0  0  0
   -2.3920   -0.6948    1.2053 H   0  0  0  0  0  0  0  0  0  0  0  0
   -2.4810    1.0599    0.8650 H   0  0  0  0  0  0  0  0  0  0  0  0
   -2.6755   -0.1478   -0.4840 H   0  0  0  0  0  0  0  0  0  0  0  0
   -0.2392    1.6981    1.5947 H   0  0  0  0  0  0  0  0  0  0  0  0
   -0.3345    2.1181   -0.1363 H   0  0  0  0  0  0  0  0  0  0  0  0
    2.1001    2.0951    0.4695 H   0  0  0  0  0  0  0  0  0  0  0  0
    3.1264   -0.0236    0.0281 H   0  0  0  0  0  0  0  0  0  0  0  0
    1.8344   -2.1332    0.2598 H   0  0  0  0  0  0  0  0  0  0  0  0
   -0.5774   -2.0091    0.7685 H   0  0  0  0  0  0  0  0  0  0  0  0
    0.2539   -0.8784    1.9745 H   0  0  0  0  0  0  0  0  0  0  0  0
    0.2253    0.6027   -1.7079 H   0  0  0  0  0  0  0  0  0  0  0  0
   -1.2110   -0.4764   -1.7652 H   0  0  0  0  0  0  0  0  0  0  0  0
  1  2  1  0
  2  3  1  0
  3  4  1  0
  4  5  2  0
  5  6  1  0
  6  7  1  0
  6  8  1  0
  8  9  1  0
  7  2  1  0
  9  2  1  0
  1 10  1  0
  1 11  1  0
  1 12  1  0
  3 13  1  0
  3 14  1  0
  4 15  1  0
  5 16  1  0
  6 17  1  0
  7 18  1  0
  7 19  1  0
  9 20  1  0
  9 21  1  0
M  END
