
     RDKit          3D

 21 23  0  0  0  0  0  0  0  0999 V2000
    1.9908    0.0357    1.0740 C   0  0  0  0  0  0  0  0  0  0  0  0
    0.9651   -0.2128    0.0083 C   0  0  0  0  0  0  0  0  0  0  0  0
    1.1379    0.3933   -1.3239 C   0  0  0  0  0  0  0  0  0  0  0  0
    0.1336    1.0358   -0.4626 C   0  0  0  0  0  0  0  0  0  0  0  0
   -1.2401    0.4675   -0.2726 C   0  0  0  0  0  0  0  0  0  0  0  0
   -2.3224    1.1961   -0.5206 O   0  0  0  0  0  0  0  0  0  0  0  0
   -1.0988   -0.1572    1.1264 C   0  0  0  0  0  0  0  0  0  0  0  0
   -0.1532   -1.1073    0.3739 C   0  0  0  0  0  0  0  0  0  0  0  0
   -1.1871   -0.9735   -0.7517 C   0  0  0  0  0  0  0  0  0  0  0  0
    2.5867    0.9333    0.7355 H   0  0  0  0  0  0  0  0  0  0  0  0
    1.5414    0.2742    2.0499 H   0  0  0  0  0  0  0  0  0  0  0  0
    2.6845   -0.8043    1.0869 H   0  0  0  0  0  0  0  0  0  0  0  0
    0.8577   -0.1020   -2.2629 H   0  0  0  0  0  0  0  0  0  0  0  0
    2.0901    0.9853   -1.4391 H   0  0  0  0  0  0  0  0  0  0  0  0
    0.3452    1.9395    0.1322 H   0  0  0  0  0  0  0  0  0  0  0  0
   -2.7782    1.0199   -1.4042 H   0  0  0  0  0  0  0  0  0  0  0  0
   -2.0025   -0.7041    1.4221 H   0  0  0  0  0  0  0  0  0  0  0  0
   -0.6164    0.4899    1.8515 H   0  0  0  0  0  0  0  0  0  0  0  0
   -0.0011   -2.0726    0.7896 H   0  0  0  0  0  0  0  0  0  0  0  0
   -0.8171   -1.1445   -1.7540 H   0  0  0  0  0  0  0  0  0  0  0  0
   -2.1161   -1.4921   -0.4587 H   0  0  0  0  0  0  0  0  0  0  0  0
  1  2  1  0
  2  3  1  0
  3  4  1  0
  4  5  1  0
  5  6  1  0
  5  7  1  0
  7  8  1  0
  8  9  1  0
  4  2  1  0
  9  5  1  0
  8  2  1  0
  1 10  1  0
  1 11  1  0
  1 12  1  0
  3 13  1  0
  3 14  1  0
  4 15  1  0
  6 16  1  0
  7 17  1  0
  7 18  1  0
  8 19  1  0
  9 20  1  0
  9 21  1  0
M  END
