
     RDKit          3D

 21 24  0  0  0  0  0  0  0  0999 V2000
   -2.5504   -0.6205   -0.1199 C   0  0  0  0  0  0  0  0  0  0  0  0
   -1.1921   -0.2115   -0.2886 C   0  0  0  0  0  0  0  0  0  0  0  0
    0.0514   -1.0387    0.0421 C   0  0  0  0  0  0  0  0  0  0  0  0
    1.2153   -0.0448    0.1551 C   0  0  0  0  0  0  0  0  0  0  0  0
    2.5643   -0.3411    0.3814 C   0  0  0  0  0  0  0  0  0  0  0  0
    0.7018    1.4641    0.0206 C   0  0  0  0  0  0  0  0  0  0  0  0
   -0.8158    1.3266   -0.5234 C   0  0  0  0  0  0  0  0  0  0  0  0
   -0.6061    0.6883    0.4213 C   0  0  0  0  0  0  0  0  0  0  0  0
    0.5778    0.5953   -0.7439 C   0  0  0  0  0  0  0  0  0  0  0  0
   -2.6532   -1.3299    0.7539 H   0  0  0  0  0  0  0  0  0  0  0  0
   -3.2084    0.2437    0.1587 H   0  0  0  0  0  0  0  0  0  0  0  0
   -2.9354   -1.1735   -1.0015 H   0  0  0  0  0  0  0  0  0  0  0  0
   -0.1550   -1.5086    1.0281 H   0  0  0  0  0  0  0  0  0  0  0  0
    0.2453   -1.7923   -0.7381 H   0  0  0  0  0  0  0  0  0  0  0  0
    3.0880    0.4531    0.9914 H   0  0  0  0  0  0  0  0  0  0  0  0
    2.6957   -1.2710    0.9635 H   0  0  0  0  0  0  0  0  0  0  0  0
    3.1717   -0.4609   -0.5500 H   0  0  0  0  0  0  0  0  0  0  0  0
    0.7958    2.0708    0.9360 H   0  0  0  0  0  0  0  0  0  0  0  0
   -0.9460    1.6742   -1.5646 H   0  0  0  0  0  0  0  0  0  0  0  0
   -0.4041    0.8139    1.4533 H   0  0  0  0  0  0  0  0  0  0  0  0
    0.3593    0.4628   -1.7755 H   0  0  0  0  0  0  0  0  0  0  0  0
  1  2  1  0
  2  3  1  0
  3  4  1  0
  4  5  1  0
  4  6  1  0
  6  7  1  0
  7  8  1  0
  8  9  1  0
  7  2  1  0
  8  2  1  0
  9  4  1  0
  9  6  1  0
  1 10  1  0
  1 11  1  0
  1 12  1  0
  3 13  1  0
  3 14  1  0
  5 15  1  0
  5 16  1  0
  5 17  1  0
  6 18  1  0
  7 19  1  0
  8 20  1  0
  9 21  1  0
M  END
