
     RDKit          3D

 19 20  0  0  0  0  0  0  0  0999 V2000
   -1.9780    0.2958   -0.5216 C   0  0  0  0  0  0  0  0  0  0  0  0
   -0.5600    0.1042   -0.2089 C   0  0  0  0  0  0  0  0  0  0  0  0
    0.1662   -1.0754   -0.7533 C   0  0  0  0  0  0  0  0  0  0  0  0
    0.9053   -1.1232    0.5896 C   0  0  0  0  0  0  0  0  0  0  0  0
   -0.3580   -0.4944    1.1904 C   0  0  0  0  0  0  0  0  0  0  0  0
    1.9307   -0.2434    0.6724 O   0  0  0  0  0  0  0  0  0  0  0  0
    1.7810    0.9617    0.0721 C   0  0  0  0  0  0  0  0  0  0  0  0
    0.3514    1.2660   -0.3092 C   0  0  0  0  0  0  0  0  0  0  0  0
    0.0196    2.3607   -0.6571 O   0  0  0  0  0  0  0  0  0  0  0  0
   -2.3436    1.2018    0.0046 H   0  0  0  0  0  0  0  0  0  0  0  0
   -2.5653   -0.5533   -0.0911 H   0  0  0  0  0  0  0  0  0  0  0  0
   -2.1215    0.3852   -1.6167 H   0  0  0  0  0  0  0  0  0  0  0  0
   -0.3987   -1.9837   -0.9513 H   0  0  0  0  0  0  0  0  0  0  0  0
    0.8808   -0.7944   -1.5744 H   0  0  0  0  0  0  0  0  0  0  0  0
    1.1352   -2.1228    0.9322 H   0  0  0  0  0  0  0  0  0  0  0  0
   -1.1354   -1.2514    1.3936 H   0  0  0  0  0  0  0  0  0  0  0  0
   -0.1686    0.2323    1.9783 H   0  0  0  0  0  0  0  0  0  0  0  0
    2.0938    1.8048    0.7185 H   0  0  0  0  0  0  0  0  0  0  0  0
    2.3651    1.0295   -0.8680 H   0  0  0  0  0  0  0  0  0  0  0  0
  1  2  1  0
  2  3  1  0
  3  4  1  0
  4  5  1  0
  4  6  1  0
  6  7  1  0
  7  8  1  0
  8  9  2  0
  5  2  1  0
  8  2  1  0
  1 10  1  0
  1 11  1  0
  1 12  1  0
  3 13  1  0
  3 14  1  0
  4 15  1  0
  5 16  1  0
  5 17  1  0
  7 18  1  0
  7 19  1  0
M  END
