
     RDKit          2D

 19 22  0  0  0  0  0  0  0  0999 V2000
    0.7500   -2.3597    0.0000 C   0  0  0  0  0  0  0  0  0  0  0  0
   -0.0000   -1.0607    0.0000 C   0  0  0  0  0  0  0  0  0  0  0  0
    1.0607    0.0000    0.0000 O   0  0  0  0  0  0  0  0  0  0  0  0
    0.0000    1.0607    0.0000 C   0  0  0  0  0  0  0  0  0  0  0  0
   -1.0607    0.0000    0.0000 C   0  0  0  0  0  0  0  0  0  0  0  0
   -1.4489   -1.4489    0.0000 C   0  0  0  0  0  0  0  0  0  0  0  0
   -1.8371    0.0000    0.0000 C   0  0  0  0  0  0  0  0  0  0  0  0
   -3.2457   -0.5156    0.0000 C   0  0  0  0  0  0  0  0  0  0  0  0
   -2.9879    0.9621    0.0000 C   0  0  0  0  0  0  0  0  0  0  0  0
    1.5000   -3.6587    0.0000 H   0  0  0  0  0  0  0  0  0  0  0  0
   -0.5490   -3.1097    0.0000 H   0  0  0  0  0  0  0  0  0  0  0  0
    2.0490   -1.6097    0.0000 H   0  0  0  0  0  0  0  0  0  0  0  0
    0.0000    2.5607    0.0000 H   0  0  0  0  0  0  0  0  0  0  0  0
   -2.1396    1.0420    0.0000 H   0  0  0  0  0  0  0  0  0  0  0  0
   -2.3723   -2.6309    0.0000 H   0  0  0  0  0  0  0  0  0  0  0  0
   -3.1645   -2.0134    0.0000 H   0  0  0  0  0  0  0  0  0  0  0  0
   -4.7457   -0.5183    0.0000 H   0  0  0  0  0  0  0  0  0  0  0  0
   -4.3984    1.4726    0.0000 H   0  0  0  0  0  0  0  0  0  0  0  0
   -2.2403    2.2625    0.0000 H   0  0  0  0  0  0  0  0  0  0  0  0
  1  2  1  0
  2  3  1  0
  3  4  1  0
  4  5  1  0
  5  6  1  0
  6  7  1  0
  7  8  1  0
  8  9  1  0
  5  2  1  0
  9  7  1  0
  6  2  1  0
  7  4  1  0
  1 10  1  0
  1 11  1  0
  1 12  1  0
  4 13  1  0
  5 14  1  0
  6 15  1  0
  8 16  1  0
  8 17  1  0
  9 18  1  0
  9 19  1  0
M  END
