
     RDKit          3D

 17 18  0  0  0  0  0  0  0  0999 V2000
   -1.7919    0.0517   -0.4989 C   0  0  0  0  0  0  0  0  0  0  0  0
   -0.5036    0.1120    0.2462 C   0  0  0  0  0  0  0  0  0  0  0  0
    0.1169   -1.0773    0.8694 C   0  0  0  0  0  0  0  0  0  0  0  0
    0.7574   -0.4433   -0.2746 C   0  0  0  0  0  0  0  0  0  0  0  0
    0.8202   -1.1641   -1.4583 O   0  0  0  0  0  0  0  0  0  0  0  0
    1.7066    0.6983   -0.1843 C   0  0  0  0  0  0  0  0  0  0  0  0
    1.1642    1.5758    0.7805 O   0  0  0  0  0  0  0  0  0  0  0  0
   -0.1941    1.4045    0.8910 C   0  0  0  0  0  0  0  0  0  0  0  0
   -1.0116    2.1629    1.4181 O   0  0  0  0  0  0  0  0  0  0  0  0
   -1.9165    1.0251   -1.0359 H   0  0  0  0  0  0  0  0  0  0  0  0
   -2.6182    0.0028    0.2433 H   0  0  0  0  0  0  0  0  0  0  0  0
   -1.8847   -0.7998   -1.1805 H   0  0  0  0  0  0  0  0  0  0  0  0
   -0.3461   -2.0706    0.7085 H   0  0  0  0  0  0  0  0  0  0  0  0
    0.5063   -0.9700    1.9179 H   0  0  0  0  0  0  0  0  0  0  0  0
    0.7683   -2.1434   -1.3124 H   0  0  0  0  0  0  0  0  0  0  0  0
    2.7470    0.4066    0.0515 H   0  0  0  0  0  0  0  0  0  0  0  0
    1.6799    1.2290   -1.1816 H   0  0  0  0  0  0  0  0  0  0  0  0
  1  2  1  0
  2  3  1  0
  3  4  1  0
  4  5  1  0
  4  6  1  0
  6  7  1  0
  7  8  1  0
  8  9  2  0
  4  2  1  0
  8  2  1  0
  1 10  1  0
  1 11  1  0
  1 12  1  0
  3 13  1  0
  3 14  1  0
  5 15  1  0
  6 16  1  0
  6 17  1  0
M  END
