
     RDKit          3D

 19 20  0  0  0  0  0  0  0  0999 V2000
   -1.6153   -0.1401    0.6996 C   0  0  0  0  0  0  0  0  0  0  0  0
   -0.8863   -0.1247   -0.6206 C   0  0  0  0  0  0  0  0  0  0  0  0
   -0.1322   -1.3403   -1.0002 C   0  0  0  0  0  0  0  0  0  0  0  0
    0.7003   -1.6704    0.0870 O   0  0  0  0  0  0  0  0  0  0  0  0
    1.4256   -0.5809    0.5393 C   0  0  0  0  0  0  0  0  0  0  0  0
    0.6686    0.3353    1.2634 O   0  0  0  0  0  0  0  0  0  0  0  0
    0.4892    1.4974    0.4735 C   0  0  0  0  0  0  0  0  0  0  0  0
    0.1030    1.0292   -0.8769 C   0  0  0  0  0  0  0  0  0  0  0  0
   -1.1402    0.9512   -1.3860 O   0  0  0  0  0  0  0  0  0  0  0  0
   -2.6909   -0.3811    0.4515 H   0  0  0  0  0  0  0  0  0  0  0  0
   -1.6601    0.8575    1.1838 H   0  0  0  0  0  0  0  0  0  0  0  0
   -1.2861   -0.9412    1.3742 H   0  0  0  0  0  0  0  0  0  0  0  0
   -0.8690   -2.1949   -1.0562 H   0  0  0  0  0  0  0  0  0  0  0  0
    0.4054   -1.2410   -1.9378 H   0  0  0  0  0  0  0  0  0  0  0  0
    2.1634   -1.0061    1.2820 H   0  0  0  0  0  0  0  0  0  0  0  0
    2.0540   -0.1092   -0.2382 H   0  0  0  0  0  0  0  0  0  0  0  0
    1.5179    1.9562    0.4207 H   0  0  0  0  0  0  0  0  0  0  0  0
   -0.1624    2.2218    0.9472 H   0  0  0  0  0  0  0  0  0  0  0  0
    0.9153    0.8813   -1.6062 H   0  0  0  0  0  0  0  0  0  0  0  0
  1  2  1  0
  2  3  1  0
  3  4  1  0
  4  5  1  0
  5  6  1  0
  6  7  1  0
  7  8  1  0
  8  9  1  0
  8  2  1  0
  9  2  1  0
  1 10  1  0
  1 11  1  0
  1 12  1  0
  3 13  1  0
  3 14  1  0
  5 15  1  0
  5 16  1  0
  7 17  1  0
  7 18  1  0
  8 19  1  0
M  END
