
     RDKit          3D

 19 20  0  0  0  0  0  0  0  0999 V2000
   -2.3346   -0.4709   -0.1161 C   0  0  0  0  0  0  0  0  0  0  0  0
   -0.9928    0.0288   -0.0768 C   0  0  0  0  0  0  0  0  0  0  0  0
   -0.7038    1.4824   -0.0655 C   0  0  0  0  0  0  0  0  0  0  0  0
    0.6505    1.4900   -0.0096 C   0  0  0  0  0  0  0  0  0  0  0  0
    0.9800    0.0650    0.0021 C   0  0  0  0  0  0  0  0  0  0  0  0
    2.3367   -0.4094    0.0279 C   0  0  0  0  0  0  0  0  0  0  0  0
    0.0360   -0.4668   -1.0882 C   0  0  0  0  0  0  0  0  0  0  0  0
   -0.0268   -0.4849    0.9492 C   0  0  0  0  0  0  0  0  0  0  0  0
   -0.0488   -1.0631    2.0218 O   0  0  0  0  0  0  0  0  0  0  0  0
   -2.6340   -0.6757   -1.1844 H   0  0  0  0  0  0  0  0  0  0  0  0
   -2.4226   -1.4467    0.4012 H   0  0  0  0  0  0  0  0  0  0  0  0
   -3.0579    0.2581    0.2945 H   0  0  0  0  0  0  0  0  0  0  0  0
   -1.3565    2.3480   -0.0928 H   0  0  0  0  0  0  0  0  0  0  0  0
    1.3271    2.3318    0.0194 H   0  0  0  0  0  0  0  0  0  0  0  0
    2.4889   -1.1945   -0.7603 H   0  0  0  0  0  0  0  0  0  0  0  0
    2.6114   -0.7750    1.0376 H   0  0  0  0  0  0  0  0  0  0  0  0
    3.0373    0.4189   -0.2723 H   0  0  0  0  0  0  0  0  0  0  0  0
   -0.0001   -1.5541   -1.1683 H   0  0  0  0  0  0  0  0  0  0  0  0
    0.1099    0.1180   -2.0018 H   0  0  0  0  0  0  0  0  0  0  0  0
  1  2  1  0
  2  3  1  0
  3  4  2  0
  4  5  1  0
  5  6  1  0
  5  7  1  0
  5  8  1  0
  8  9  2  0
  7  2  1  0
  8  2  1  0
  1 10  1  0
  1 11  1  0
  1 12  1  0
  3 13  1  0
  4 14  1  0
  6 15  1  0
  6 16  1  0
  6 17  1  0
  7 18  1  0
  7 19  1  0
M  END
