
     RDKit          3D

 18 19  0  0  0  0  0  0  0  0999 V2000
    1.9930    0.1547    0.2202 C   0  0  0  0  0  0  0  0  0  0  0  0
    0.5816   -0.0363    0.0963 C   0  0  0  0  0  0  0  0  0  0  0  0
   -0.1192    0.4288   -1.1970 C   0  0  0  0  0  0  0  0  0  0  0  0
   -1.3372    0.4636   -0.2814 C   0  0  0  0  0  0  0  0  0  0  0  0
   -1.4951   -1.0112    0.0212 C   0  0  0  0  0  0  0  0  0  0  0  0
   -0.0953   -1.2836    0.4376 C   0  0  0  0  0  0  0  0  0  0  0  0
    0.3361   -2.2747    0.9230 O   0  0  0  0  0  0  0  0  0  0  0  0
   -0.3670    0.9636    0.7823 C   0  0  0  0  0  0  0  0  0  0  0  0
    2.5546   -0.7880    0.1446 H   0  0  0  0  0  0  0  0  0  0  0  0
    2.3802    0.8190   -0.6051 H   0  0  0  0  0  0  0  0  0  0  0  0
    2.2781    0.6727    1.1817 H   0  0  0  0  0  0  0  0  0  0  0  0
   -0.1553   -0.3713   -1.9655 H   0  0  0  0  0  0  0  0  0  0  0  0
    0.2556    1.3968   -1.5253 H   0  0  0  0  0  0  0  0  0  0  0  0
   -2.1687    1.0517   -0.5459 H   0  0  0  0  0  0  0  0  0  0  0  0
   -2.2387   -1.2131    0.7950 H   0  0  0  0  0  0  0  0  0  0  0  0
   -1.6714   -1.5496   -0.9285 H   0  0  0  0  0  0  0  0  0  0  0  0
   -0.0650    1.9993    0.6894 H   0  0  0  0  0  0  0  0  0  0  0  0
   -0.6663    0.5775    1.7575 H   0  0  0  0  0  0  0  0  0  0  0  0
  1  2  1  0
  2  3  1  0
  3  4  1  0
  4  5  1  0
  5  6  1  0
  6  7  2  0
  4  8  1  0
  6  2  1  0
  8  2  1  0
  1  9  1  0
  1 10  1  0
  1 11  1  0
  3 12  1  0
  3 13  1  0
  4 14  1  0
  5 15  1  0
  5 16  1  0
  8 17  1  0
  8 18  1  0
M  END
