
     RDKit          3D

 19 20  0  0  0  0  0  0  0  0999 V2000
    2.2416   -0.2098    0.2932 C   0  0  0  0  0  0  0  0  0  0  0  0
    0.8600   -0.1225   -0.1380 C   0  0  0  0  0  0  0  0  0  0  0  0
    0.4304    1.2352   -0.6486 C   0  0  0  0  0  0  0  0  0  0  0  0
   -0.8958    1.2863   -0.5495 C   0  0  0  0  0  0  0  0  0  0  0  0
   -1.3389    0.0206    0.0228 C   0  0  0  0  0  0  0  0  0  0  0  0
   -2.5502   -0.0561    0.5667 O   0  0  0  0  0  0  0  0  0  0  0  0
   -0.9902   -1.0899   -0.9738 C   0  0  0  0  0  0  0  0  0  0  0  0
    0.4181   -1.0307   -1.0662 O   0  0  0  0  0  0  0  0  0  0  0  0
   -0.1737   -0.2437    1.0009 C   0  0  0  0  0  0  0  0  0  0  0  0
    2.3171   -0.6896    1.2945 H   0  0  0  0  0  0  0  0  0  0  0  0
    2.6826    0.8134    0.4226 H   0  0  0  0  0  0  0  0  0  0  0  0
    2.8978   -0.7103   -0.4585 H   0  0  0  0  0  0  0  0  0  0  0  0
    1.1212    1.9654   -1.0067 H   0  0  0  0  0  0  0  0  0  0  0  0
   -1.4804    2.1397   -0.8550 H   0  0  0  0  0  0  0  0  0  0  0  0
   -2.5845    0.3875    1.4386 H   0  0  0  0  0  0  0  0  0  0  0  0
   -1.2043   -2.0829   -0.5131 H   0  0  0  0  0  0  0  0  0  0  0  0
   -1.4788   -0.9316   -1.9361 H   0  0  0  0  0  0  0  0  0  0  0  0
   -0.2297   -1.2481    1.3996 H   0  0  0  0  0  0  0  0  0  0  0  0
   -0.0424    0.5670    1.7065 H   0  0  0  0  0  0  0  0  0  0  0  0
  1  2  1  0
  2  3  1  0
  3  4  2  0
  4  5  1  0
  5  6  1  0
  5  7  1  0
  7  8  1  0
  5  9  1  0
  8  2  1  0
  9  2  1  0
  1 10  1  0
  1 11  1  0
  1 12  1  0
  3 13  1  0
  4 14  1  0
  6 15  1  0
  7 16  1  0
  7 17  1  0
  9 18  1  0
  9 19  1  0
M  END
