
     RDKit          3D

 19 21  0  0  0  0  0  0  0  0999 V2000
   -2.4178    0.1142    0.3822 C   0  0  0  0  0  0  0  0  0  0  0  0
   -1.2195    0.0627   -0.4990 C   0  0  0  0  0  0  0  0  0  0  0  0
   -0.1468    1.1526   -0.3546 C   0  0  0  0  0  0  0  0  0  0  0  0
    0.7883    0.4112    0.5437 C   0  0  0  0  0  0  0  0  0  0  0  0
    2.0067   -0.2518    0.3721 C   0  0  0  0  0  0  0  0  0  0  0  0
    3.1035    0.5466   -0.0208 O   0  0  0  0  0  0  0  0  0  0  0  0
    1.0353   -0.7080   -0.5526 C   0  0  0  0  0  0  0  0  0  0  0  0
   -0.3348   -1.1972   -0.4932 C   0  0  0  0  0  0  0  0  0  0  0  0
   -1.2737   -0.7735   -1.5565 O   0  0  0  0  0  0  0  0  0  0  0  0
   -2.8091   -0.9068    0.6225 H   0  0  0  0  0  0  0  0  0  0  0  0
   -3.2149    0.6867   -0.1780 H   0  0  0  0  0  0  0  0  0  0  0  0
   -2.2511    0.7136    1.3092 H   0  0  0  0  0  0  0  0  0  0  0  0
    0.2620    1.4586   -1.3095 H   0  0  0  0  0  0  0  0  0  0  0  0
   -0.6080    1.9692    0.2433 H   0  0  0  0  0  0  0  0  0  0  0  0
    0.1878    0.0654    1.4431 H   0  0  0  0  0  0  0  0  0  0  0  0
    2.3656   -0.9943    1.1339 H   0  0  0  0  0  0  0  0  0  0  0  0
    3.9359    0.0364   -0.0339 H   0  0  0  0  0  0  0  0  0  0  0  0
    1.2654   -0.3159   -1.5955 H   0  0  0  0  0  0  0  0  0  0  0  0
   -0.6750   -2.0697    0.0752 H   0  0  0  0  0  0  0  0  0  0  0  0
  1  2  1  0
  2  3  1  0
  3  4  1  0
  4  5  1  0
  5  6  1  0
  5  7  1  0
  7  8  1  0
  8  9  1  0
  8  2  1  0
  9  2  1  0
  7  4  1  0
  1 10  1  0
  1 11  1  0
  1 12  1  0
  3 13  1  0
  3 14  1  0
  4 15  1  0
  5 16  1  0
  6 17  1  0
  7 18  1  0
  8 19  1  0
M  END
