
     RDKit          3D

 20 22  0  0  0  0  0  0  0  0999 V2000
   -1.7247   -1.1268   -0.5374 C   0  0  0  0  0  0  0  0  0  0  0  0
   -0.5753   -0.3366   -0.1492 C   0  0  0  0  0  0  0  0  0  0  0  0
   -0.4547    1.0932   -0.6256 C   0  0  0  0  0  0  0  0  0  0  0  0
    0.3784    1.2578    0.6229 C   0  0  0  0  0  0  0  0  0  0  0  0
   -0.6615    0.3127    1.2480 C   0  0  0  0  0  0  0  0  0  0  0  0
    1.5435    0.3151    0.5074 C   0  0  0  0  0  0  0  0  0  0  0  0
    1.9485   -0.1931   -0.8034 C   0  0  0  0  0  0  0  0  0  0  0  0
    0.8001   -0.8707   -0.2096 C   0  0  0  0  0  0  0  0  0  0  0  0
   -2.5744   -0.4452   -0.8334 H   0  0  0  0  0  0  0  0  0  0  0  0
   -2.1305   -1.6749    0.3633 H   0  0  0  0  0  0  0  0  0  0  0  0
   -1.5280   -1.8649   -1.3056 H   0  0  0  0  0  0  0  0  0  0  0  0
   -1.4339    1.6143   -0.4709 H   0  0  0  0  0  0  0  0  0  0  0  0
    0.0199    1.2676   -1.5800 H   0  0  0  0  0  0  0  0  0  0  0  0
    0.4961    2.2132    1.0595 H   0  0  0  0  0  0  0  0  0  0  0  0
   -1.5807    0.8826    1.4099 H   0  0  0  0  0  0  0  0  0  0  0  0
   -0.2819   -0.3085    2.0532 H   0  0  0  0  0  0  0  0  0  0  0  0
    2.0098    0.0180    1.4534 H   0  0  0  0  0  0  0  0  0  0  0  0
    1.9075    0.5072   -1.6428 H   0  0  0  0  0  0  0  0  0  0  0  0
    2.9045   -0.7913   -0.8098 H   0  0  0  0  0  0  0  0  0  0  0  0
    0.9373   -1.8697    0.2501 H   0  0  0  0  0  0  0  0  0  0  0  0
  1  2  1  0
  2  3  1  0
  3  4  1  0
  4  5  1  0
  4  6  1  0
  6  7  1  0
  7  8  1  0
  5  2  1  0
  8  6  1  0
  8  2  1  0
  1  9  1  0
  1 10  1  0
  1 11  1  0
  3 12  1  0
  3 13  1  0
  4 14  1  0
  5 15  1  0
  5 16  1  0
  6 17  1  0
  7 18  1  0
  7 19  1  0
  8 20  1  0
M  END
