
     RDKit          3D

 21 22  0  0  0  0  0  0  0  0999 V2000
   -2.4291    0.1891    0.7678 C   0  0  0  0  0  0  0  0  0  0  0  0
   -1.2259   -0.0281   -0.0900 C   0  0  0  0  0  0  0  0  0  0  0  0
   -1.2611    0.0261   -1.5561 C   0  0  0  0  0  0  0  0  0  0  0  0
   -0.7816    1.2436   -0.8596 C   0  0  0  0  0  0  0  0  0  0  0  0
    0.3287    1.2579   -0.0590 O   0  0  0  0  0  0  0  0  0  0  0  0
    0.1258    0.0242    0.5569 C   0  0  0  0  0  0  0  0  0  0  0  0
    1.1414   -0.9685    0.0142 C   0  0  0  0  0  0  0  0  0  0  0  0
    2.4148   -0.7111    0.8313 C   0  0  0  0  0  0  0  0  0  0  0  0
    2.7563    0.6309    0.5832 O   0  0  0  0  0  0  0  0  0  0  0  0
   -2.0983    0.3875    1.8279 H   0  0  0  0  0  0  0  0  0  0  0  0
   -2.9871    1.1288    0.4854 H   0  0  0  0  0  0  0  0  0  0  0  0
   -3.1670   -0.6172    0.7311 H   0  0  0  0  0  0  0  0  0  0  0  0
   -2.2413    0.1144   -2.0492 H   0  0  0  0  0  0  0  0  0  0  0  0
   -0.5312   -0.6273   -2.1156 H   0  0  0  0  0  0  0  0  0  0  0  0
   -1.4205    2.1250   -0.8012 H   0  0  0  0  0  0  0  0  0  0  0  0
    0.1227    0.0341    1.6445 H   0  0  0  0  0  0  0  0  0  0  0  0
    1.3600   -0.7695   -1.0428 H   0  0  0  0  0  0  0  0  0  0  0  0
    0.8205   -2.0226    0.2022 H   0  0  0  0  0  0  0  0  0  0  0  0
    2.1306   -0.7747    1.8903 H   0  0  0  0  0  0  0  0  0  0  0  0
    3.2204   -1.3885    0.5554 H   0  0  0  0  0  0  0  0  0  0  0  0
    3.7220    0.7459    0.6521 H   0  0  0  0  0  0  0  0  0  0  0  0
  1  2  1  0
  2  3  1  0
  3  4  1  0
  4  5  1  0
  5  6  1  0
  6  7  1  0
  7  8  1  0
  8  9  1  0
  4  2  1  0
  6  2  1  0
  1 10  1  0
  1 11  1  0
  1 12  1  0
  3 13  1  0
  3 14  1  0
  4 15  1  0
  6 16  1  0
  7 17  1  0
  7 18  1  0
  8 19  1  0
  8 20  1  0
  9 21  1  0
M  END
