
     RDKit          3D

 19 21  0  0  0  0  0  0  0  0999 V2000
    2.0901   -0.2119    0.1235 C   0  0  0  0  0  0  0  0  0  0  0  0
    0.6715   -0.0819   -0.0077 C   0  0  0  0  0  0  0  0  0  0  0  0
    0.0390    1.2168    0.4806 C   0  0  0  0  0  0  0  0  0  0  0  0
   -1.4147    0.8968    0.1253 C   0  0  0  0  0  0  0  0  0  0  0  0
   -1.5680   -0.5848    0.2295 C   0  0  0  0  0  0  0  0  0  0  0  0
   -0.2041   -1.0835    0.7188 C   0  0  0  0  0  0  0  0  0  0  0  0
   -1.3761    0.0596   -1.0852 C   0  0  0  0  0  0  0  0  0  0  0  0
    0.0681   -0.1513   -1.3545 C   0  0  0  0  0  0  0  0  0  0  0  0
    0.5749   -0.3294   -2.4138 O   0  0  0  0  0  0  0  0  0  0  0  0
    2.5072    0.3918    0.9666 H   0  0  0  0  0  0  0  0  0  0  0  0
    2.4160   -1.2495    0.2625 H   0  0  0  0  0  0  0  0  0  0  0  0
    2.6213    0.1650   -0.7915 H   0  0  0  0  0  0  0  0  0  0  0  0
    0.1787    1.3782    1.5489 H   0  0  0  0  0  0  0  0  0  0  0  0
    0.3856    2.0432   -0.1507 H   0  0  0  0  0  0  0  0  0  0  0  0
   -2.2143    1.5522    0.4176 H   0  0  0  0  0  0  0  0  0  0  0  0
   -2.4745   -1.0689    0.5580 H   0  0  0  0  0  0  0  0  0  0  0  0
   -0.1783   -0.8905    1.8090 H   0  0  0  0  0  0  0  0  0  0  0  0
   -0.0114   -2.1183    0.4384 H   0  0  0  0  0  0  0  0  0  0  0  0
   -2.1110    0.0665   -1.8754 H   0  0  0  0  0  0  0  0  0  0  0  0
  1  2  1  0
  2  3  1  0
  3  4  1  0
  4  5  1  0
  5  6  1  0
  5  7  1  0
  7  8  1  0
  8  9  2  0
  6  2  1  0
  8  2  1  0
  7  4  1  0
  1 10  1  0
  1 11  1  0
  1 12  1  0
  3 13  1  0
  3 14  1  0
  4 15  1  0
  5 16  1  0
  6 17  1  0
  6 18  1  0
  7 19  1  0
M  END
