
     RDKit          3D

 17 18  0  0  0  0  0  0  0  0999 V2000
    1.9485   -0.3458    0.5276 C   0  0  0  0  0  0  0  0  0  0  0  0
    0.7310   -0.1757   -0.3103 C   0  0  0  0  0  0  0  0  0  0  0  0
    0.7281   -0.3443   -1.6617 O   0  0  0  0  0  0  0  0  0  0  0  0
    0.4166    0.8919   -1.0978 C   0  0  0  0  0  0  0  0  0  0  0  0
   -0.9277    1.0714   -0.4283 C   0  0  0  0  0  0  0  0  0  0  0  0
   -0.6425   -0.2209    0.3342 C   0  0  0  0  0  0  0  0  0  0  0  0
   -0.6669   -0.1085    1.7028 O   0  0  0  0  0  0  0  0  0  0  0  0
   -1.5158   -1.3280   -0.2053 C   0  0  0  0  0  0  0  0  0  0  0  0
   -2.1746   -2.0458    0.5229 O   0  0  0  0  0  0  0  0  0  0  0  0
    1.9626    0.4617    1.3083 H   0  0  0  0  0  0  0  0  0  0  0  0
    2.0225   -1.3513    1.0064 H   0  0  0  0  0  0  0  0  0  0  0  0
    2.8352   -0.1697   -0.1015 H   0  0  0  0  0  0  0  0  0  0  0  0
    0.9478    1.7286   -1.5362 H   0  0  0  0  0  0  0  0  0  0  0  0
   -1.8052    1.0246   -1.0970 H   0  0  0  0  0  0  0  0  0  0  0  0
   -0.9050    1.9194    0.2864 H   0  0  0  0  0  0  0  0  0  0  0  0
   -1.3765    0.5058    2.0189 H   0  0  0  0  0  0  0  0  0  0  0  0
   -1.5781   -1.5132   -1.2695 H   0  0  0  0  0  0  0  0  0  0  0  0
  1  2  1  0
  2  3  1  0
  3  4  1  0
  4  5  1  0
  5  6  1  0
  6  7  1  0
  6  8  1  0
  8  9  2  0
  4  2  1  0
  6  2  1  0
  1 10  1  0
  1 11  1  0
  1 12  1  0
  4 13  1  0
  5 14  1  0
  5 15  1  0
  7 16  1  0
  8 17  1  0
M  END
