
     RDKit          3D

 21 22  0  0  0  0  0  0  0  0999 V2000
   -1.9142    0.4933    0.8389 C   0  0  0  0  0  0  0  0  0  0  0  0
   -0.7539    0.2041   -0.0549 C   0  0  0  0  0  0  0  0  0  0  0  0
   -1.1768   -0.0927   -1.4568 C   0  0  0  0  0  0  0  0  0  0  0  0
   -0.1724   -1.0458   -1.5283 O   0  0  0  0  0  0  0  0  0  0  0  0
   -0.2672   -1.1953   -0.1255 C   0  0  0  0  0  0  0  0  0  0  0  0
    1.1291   -1.2253    0.4461 C   0  0  0  0  0  0  0  0  0  0  0  0
    1.6437    0.1824    0.3001 C   0  0  0  0  0  0  0  0  0  0  0  0
    2.5198    0.3311   -0.7569 O   0  0  0  0  0  0  0  0  0  0  0  0
    0.4304    1.0781    0.1405 C   0  0  0  0  0  0  0  0  0  0  0  0
   -1.6393    0.2960    1.8918 H   0  0  0  0  0  0  0  0  0  0  0  0
   -2.0981    1.6035    0.7860 H   0  0  0  0  0  0  0  0  0  0  0  0
   -2.8485    0.0199    0.5163 H   0  0  0  0  0  0  0  0  0  0  0  0
   -2.1756   -0.5638   -1.4688 H   0  0  0  0  0  0  0  0  0  0  0  0
   -1.1250    0.7305   -2.1811 H   0  0  0  0  0  0  0  0  0  0  0  0
   -0.9439   -1.9992    0.2010 H   0  0  0  0  0  0  0  0  0  0  0  0
    1.1842   -1.6199    1.4646 H   0  0  0  0  0  0  0  0  0  0  0  0
    1.7708   -1.8788   -0.1987 H   0  0  0  0  0  0  0  0  0  0  0  0
    2.1995    0.4203    1.2382 H   0  0  0  0  0  0  0  0  0  0  0  0
    3.3482    0.8225   -0.4915 H   0  0  0  0  0  0  0  0  0  0  0  0
    0.2955    1.6224    1.1117 H   0  0  0  0  0  0  0  0  0  0  0  0
    0.5937    1.8164   -0.6726 H   0  0  0  0  0  0  0  0  0  0  0  0
  1  2  1  0
  2  3  1  0
  3  4  1  0
  4  5  1  0
  5  6  1  0
  6  7  1  0
  7  8  1  0
  7  9  1  0
  5  2  1  0
  9  2  1  0
  1 10  1  0
  1 11  1  0
  1 12  1  0
  3 13  1  0
  3 14  1  0
  5 15  1  0
  6 16  1  0
  6 17  1  0
  7 18  1  0
  8 19  1  0
  9 20  1  0
  9 21  1  0
M  END
