
     RDKit          3D

 19 21  0  0  0  0  0  0  0  0999 V2000
    2.1258   -0.5125    0.1745 C   0  0  0  0  0  0  0  0  0  0  0  0
    0.7220   -0.2362    0.6219 C   0  0  0  0  0  0  0  0  0  0  0  0
    0.4442    0.5505    1.6999 O   0  0  0  0  0  0  0  0  0  0  0  0
    0.3687    1.2504    0.5224 C   0  0  0  0  0  0  0  0  0  0  0  0
   -0.8799    1.2574   -0.3091 C   0  0  0  0  0  0  0  0  0  0  0  0
   -0.6136    0.0603   -1.2385 C   0  0  0  0  0  0  0  0  0  0  0  0
   -0.4121   -0.9190   -0.0683 C   0  0  0  0  0  0  0  0  0  0  0  0
   -1.7035   -0.5832    0.6792 C   0  0  0  0  0  0  0  0  0  0  0  0
   -1.9135    0.7701    0.4810 O   0  0  0  0  0  0  0  0  0  0  0  0
    2.8341   -0.7163    0.9730 H   0  0  0  0  0  0  0  0  0  0  0  0
    2.5592    0.3219   -0.4424 H   0  0  0  0  0  0  0  0  0  0  0  0
    2.1145   -1.3915   -0.5237 H   0  0  0  0  0  0  0  0  0  0  0  0
    1.1591    1.9862    0.3641 H   0  0  0  0  0  0  0  0  0  0  0  0
   -1.1008    2.1649   -0.8360 H   0  0  0  0  0  0  0  0  0  0  0  0
   -1.5095   -0.2594   -1.7648 H   0  0  0  0  0  0  0  0  0  0  0  0
    0.2871    0.1864   -1.8231 H   0  0  0  0  0  0  0  0  0  0  0  0
   -0.2973   -1.9334   -0.3533 H   0  0  0  0  0  0  0  0  0  0  0  0
   -2.5234   -1.1160    0.1179 H   0  0  0  0  0  0  0  0  0  0  0  0
   -1.6611   -0.8805    1.7255 H   0  0  0  0  0  0  0  0  0  0  0  0
  1  2  1  0
  2  3  1  0
  3  4  1  0
  4  5  1  0
  5  6  1  0
  6  7  1  0
  7  8  1  0
  8  9  1  0
  4  2  1  0
  9  5  1  0
  7  2  1  0
  1 10  1  0
  1 11  1  0
  1 12  1  0
  4 13  1  0
  5 14  1  0
  6 15  1  0
  6 16  1  0
  7 17  1  0
  8 18  1  0
  8 19  1  0
M  END
