
     RDKit          3D

 19 20  0  0  0  0  0  0  0  0999 V2000
   -0.8359   -1.7494   -0.2744 C   0  0  0  0  0  0  0  0  0  0  0  0
   -0.3650   -0.3875    0.1358 C   0  0  0  0  0  0  0  0  0  0  0  0
    0.5561   -0.3700    1.2547 C   0  0  0  0  0  0  0  0  0  0  0  0
    1.7539   -0.0090    0.8418 C   0  0  0  0  0  0  0  0  0  0  0  0
    1.7465    0.2495   -0.5903 C   0  0  0  0  0  0  0  0  0  0  0  0
    2.7631    0.3012   -1.3058 O   0  0  0  0  0  0  0  0  0  0  0  0
    0.3241    0.4194   -0.9341 C   0  0  0  0  0  0  0  0  0  0  0  0
   -0.3303    1.6350   -0.2601 C   0  0  0  0  0  0  0  0  0  0  0  0
   -1.4299    0.6836    0.1630 C   0  0  0  0  0  0  0  0  0  0  0  0
   -1.3131   -1.7606   -1.2527 H   0  0  0  0  0  0  0  0  0  0  0  0
    0.0693   -2.3997   -0.3474 H   0  0  0  0  0  0  0  0  0  0  0  0
   -1.4535   -2.1566    0.5345 H   0  0  0  0  0  0  0  0  0  0  0  0
    0.2371   -0.6306    2.2727 H   0  0  0  0  0  0  0  0  0  0  0  0
    2.5967    0.0652    1.5406 H   0  0  0  0  0  0  0  0  0  0  0  0
    0.0228    0.2465   -1.9608 H   0  0  0  0  0  0  0  0  0  0  0  0
   -0.6169    2.4354   -0.9366 H   0  0  0  0  0  0  0  0  0  0  0  0
    0.2918    1.9053    0.6193 H   0  0  0  0  0  0  0  0  0  0  0  0
   -1.8493    0.9286    1.1461 H   0  0  0  0  0  0  0  0  0  0  0  0
   -2.1676    0.5938   -0.6463 H   0  0  0  0  0  0  0  0  0  0  0  0
  1  2  1  0
  2  3  1  0
  3  4  2  0
  4  5  1  0
  5  6  2  0
  5  7  1  0
  7  8  1  0
  8  9  1  0
  7  2  1  0
  9  2  1  0
  1 10  1  0
  1 11  1  0
  1 12  1  0
  3 13  1  0
  4 14  1  0
  7 15  1  0
  8 16  1  0
  8 17  1  0
  9 18  1  0
  9 19  1  0
M  END
