
     RDKit          3D

 20 21  0  0  0  0  0  0  0  0999 V2000
    1.2209   -1.1906   -1.1215 C   0  0  0  0  0  0  0  0  0  0  0  0
    0.5308   -0.3860   -0.0705 C   0  0  0  0  0  0  0  0  0  0  0  0
   -0.8049   -0.9275    0.3348 C   0  0  0  0  0  0  0  0  0  0  0  0
   -1.7896    0.2007    0.3119 C   0  0  0  0  0  0  0  0  0  0  0  0
   -1.0238    1.4680    0.0514 C   0  0  0  0  0  0  0  0  0  0  0  0
    0.3420    1.0620   -0.4221 C   0  0  0  0  0  0  0  0  0  0  0  0
    1.3027    1.4111    0.5085 O   0  0  0  0  0  0  0  0  0  0  0  0
    1.3753    0.1194    1.0584 C   0  0  0  0  0  0  0  0  0  0  0  0
    1.4576   -0.5959   -2.0364 H   0  0  0  0  0  0  0  0  0  0  0  0
    0.5465   -2.0175   -1.4690 H   0  0  0  0  0  0  0  0  0  0  0  0
    2.1400   -1.7021   -0.7425 H   0  0  0  0  0  0  0  0  0  0  0  0
   -0.6855   -1.3882    1.3404 H   0  0  0  0  0  0  0  0  0  0  0  0
   -1.1251   -1.7316   -0.3788 H   0  0  0  0  0  0  0  0  0  0  0  0
   -2.3340    0.2631    1.2846 H   0  0  0  0  0  0  0  0  0  0  0  0
   -2.5187    0.0703   -0.5156 H   0  0  0  0  0  0  0  0  0  0  0  0
   -1.5463    2.1069   -0.7089 H   0  0  0  0  0  0  0  0  0  0  0  0
   -0.9769    2.1094    0.9707 H   0  0  0  0  0  0  0  0  0  0  0  0
    0.5807    1.3048   -1.4771 H   0  0  0  0  0  0  0  0  0  0  0  0
    2.4458   -0.1934    1.0472 H   0  0  0  0  0  0  0  0  0  0  0  0
    0.8626    0.0170    2.0345 H   0  0  0  0  0  0  0  0  0  0  0  0
  1  2  1  0
  2  3  1  0
  3  4  1  0
  4  5  1  0
  5  6  1  0
  6  7  1  0
  7  8  1  0
  6  2  1  0
  8  2  1  0
  1  9  1  0
  1 10  1  0
  1 11  1  0
  3 12  1  0
  3 13  1  0
  4 14  1  0
  4 15  1  0
  5 16  1  0
  5 17  1  0
  6 18  1  0
  8 19  1  0
  8 20  1  0
M  END
