
     RDKit          3D

 19 20  0  0  0  0  0  0  0  0999 V2000
   -0.0955    1.3062    1.1016 C   0  0  0  0  0  0  0  0  0  0  0  0
   -0.2134    0.4775   -0.1570 C   0  0  0  0  0  0  0  0  0  0  0  0
   -1.5108   -0.2020   -0.4012 C   0  0  0  0  0  0  0  0  0  0  0  0
   -2.2286   -0.3592    0.8062 O   0  0  0  0  0  0  0  0  0  0  0  0
   -0.8199   -1.5388   -0.6910 C   0  0  0  0  0  0  0  0  0  0  0  0
    0.4288   -0.9383   -0.1186 C   0  0  0  0  0  0  0  0  0  0  0  0
    1.0155    0.1863   -0.9202 C   0  0  0  0  0  0  0  0  0  0  0  0
    2.2813    0.7261   -0.3846 C   0  0  0  0  0  0  0  0  0  0  0  0
    3.1549    1.0339   -1.1584 O   0  0  0  0  0  0  0  0  0  0  0  0
    0.7302    2.0568    1.0359 H   0  0  0  0  0  0  0  0  0  0  0  0
    0.0257    0.6510    1.9913 H   0  0  0  0  0  0  0  0  0  0  0  0
   -1.0486    1.9017    1.1676 H   0  0  0  0  0  0  0  0  0  0  0  0
   -2.1372    0.1365   -1.2245 H   0  0  0  0  0  0  0  0  0  0  0  0
   -1.7583   -1.0309    1.3951 H   0  0  0  0  0  0  0  0  0  0  0  0
   -0.7362   -1.7224   -1.7943 H   0  0  0  0  0  0  0  0  0  0  0  0
   -1.2401   -2.3986   -0.1663 H   0  0  0  0  0  0  0  0  0  0  0  0
    0.8109   -1.2140    0.8610 H   0  0  0  0  0  0  0  0  0  0  0  0
    0.8937    0.0756   -2.0076 H   0  0  0  0  0  0  0  0  0  0  0  0
    2.4475    0.8525    0.6650 H   0  0  0  0  0  0  0  0  0  0  0  0
  1  2  1  0
  2  3  1  0
  3  4  1  0
  3  5  1  0
  5  6  1  0
  6  7  1  0
  7  8  1  0
  8  9  2  0
  6  2  1  0
  7  2  1  0
  1 10  1  0
  1 11  1  0
  1 12  1  0
  3 13  1  0
  4 14  1  0
  5 15  1  0
  5 16  1  0
  6 17  1  0
  7 18  1  0
  8 19  1  0
M  END
