
     RDKit          3D

 19 21  0  0  0  0  0  0  0  0999 V2000
   -2.1941    0.0665    0.1880 C   0  0  0  0  0  0  0  0  0  0  0  0
   -0.7192    0.1167   -0.0412 C   0  0  0  0  0  0  0  0  0  0  0  0
   -0.0933    1.4416   -0.2337 C   0  0  0  0  0  0  0  0  0  0  0  0
    1.2028    1.4478   -0.6455 O   0  0  0  0  0  0  0  0  0  0  0  0
    1.7643    0.1906   -0.6349 C   0  0  0  0  0  0  0  0  0  0  0  0
    1.6016   -0.4550    0.7325 C   0  0  0  0  0  0  0  0  0  0  0  0
    0.1426   -0.8109    0.7106 C   0  0  0  0  0  0  0  0  0  0  0  0
   -0.1129   -1.0184   -0.7477 C   0  0  0  0  0  0  0  0  0  0  0  0
    0.9972   -0.6532   -1.4525 O   0  0  0  0  0  0  0  0  0  0  0  0
   -2.4614   -1.0168    0.3493 H   0  0  0  0  0  0  0  0  0  0  0  0
   -2.4402    0.6022    1.1024 H   0  0  0  0  0  0  0  0  0  0  0  0
   -2.7793    0.3832   -0.7036 H   0  0  0  0  0  0  0  0  0  0  0  0
   -0.1520    1.9963    0.7486 H   0  0  0  0  0  0  0  0  0  0  0  0
   -0.6934    2.0265   -0.9875 H   0  0  0  0  0  0  0  0  0  0  0  0
    2.7849    0.1631   -1.0097 H   0  0  0  0  0  0  0  0  0  0  0  0
    1.9061    0.1868    1.5558 H   0  0  0  0  0  0  0  0  0  0  0  0
    2.2411   -1.3855    0.7075 H   0  0  0  0  0  0  0  0  0  0  0  0
   -0.3194   -1.4107    1.4837 H   0  0  0  0  0  0  0  0  0  0  0  0
   -0.6754   -1.8707   -1.1220 H   0  0  0  0  0  0  0  0  0  0  0  0
  1  2  1  0
  2  3  1  0
  3  4  1  0
  4  5  1  0
  5  6  1  0
  6  7  1  0
  7  8  1  0
  8  9  1  0
  7  2  1  0
  8  2  1  0
  9  5  1  0
  1 10  1  0
  1 11  1  0
  1 12  1  0
  3 13  1  0
  3 14  1  0
  5 15  1  0
  6 16  1  0
  6 17  1  0
  7 18  1  0
  8 19  1  0
M  END
