
     RDKit          3D

 19 21  0  0  0  0  0  0  0  0999 V2000
    2.3295   -0.2910    0.0594 C   0  0  0  0  0  0  0  0  0  0  0  0
    0.8360   -0.0149   -0.1652 C   0  0  0  0  0  0  0  0  0  0  0  0
    0.3972    1.3339    0.1897 C   0  0  0  0  0  0  0  0  0  0  0  0
   -0.8584    1.6468    0.3669 C   0  0  0  0  0  0  0  0  0  0  0  0
   -1.9279    0.6470    0.2181 C   0  0  0  0  0  0  0  0  0  0  0  0
   -1.4875   -0.7647    0.0649 C   0  0  0  0  0  0  0  0  0  0  0  0
   -1.1785   -1.0215   -1.2790 O   0  0  0  0  0  0  0  0  0  0  0  0
    0.1810   -0.8786   -1.1351 C   0  0  0  0  0  0  0  0  0  0  0  0
   -0.0606   -1.0479    0.3916 C   0  0  0  0  0  0  0  0  0  0  0  0
    2.5411   -0.2553    1.1453 H   0  0  0  0  0  0  0  0  0  0  0  0
    2.8966    0.5284   -0.4652 H   0  0  0  0  0  0  0  0  0  0  0  0
    2.6389   -1.2268   -0.4231 H   0  0  0  0  0  0  0  0  0  0  0  0
    1.1329    2.1462    0.3213 H   0  0  0  0  0  0  0  0  0  0  0  0
   -1.1601    2.6551    0.6304 H   0  0  0  0  0  0  0  0  0  0  0  0
   -2.5192    0.9819   -0.6922 H   0  0  0  0  0  0  0  0  0  0  0  0
   -2.6621    0.7730    1.0718 H   0  0  0  0  0  0  0  0  0  0  0  0
   -2.1439   -1.5390    0.5293 H   0  0  0  0  0  0  0  0  0  0  0  0
    0.7721   -1.6755   -1.6325 H   0  0  0  0  0  0  0  0  0  0  0  0
    0.2728   -1.9971    0.8036 H   0  0  0  0  0  0  0  0  0  0  0  0
  1  2  1  0
  2  3  1  0
  3  4  2  0
  4  5  1  0
  5  6  1  0
  6  7  1  0
  7  8  1  0
  8  9  1  0
  8  2  1  0
  9  2  1  0
  9  6  1  0
  1 10  1  0
  1 11  1  0
  1 12  1  0
  3 13  1  0
  4 14  1  0
  5 15  1  0
  5 16  1  0
  6 17  1  0
  8 18  1  0
  9 19  1  0
M  END
