
     RDKit          3D

 17 19  0  0  0  0  0  0  0  0999 V2000
    2.0213   -0.2347    0.5232 C   0  0  0  0  0  0  0  0  0  0  0  0
    0.6028   -0.2254    0.0751 C   0  0  0  0  0  0  0  0  0  0  0  0
   -0.4049   -1.1146    0.6993 C   0  0  0  0  0  0  0  0  0  0  0  0
   -0.1784   -2.0287    1.4382 O   0  0  0  0  0  0  0  0  0  0  0  0
   -1.7229   -0.6440    0.2263 C   0  0  0  0  0  0  0  0  0  0  0  0
   -1.4762    0.7272   -0.4063 C   0  0  0  0  0  0  0  0  0  0  0  0
   -0.9866    0.5445   -1.6958 O   0  0  0  0  0  0  0  0  0  0  0  0
    0.3066    0.3520   -1.2544 C   0  0  0  0  0  0  0  0  0  0  0  0
   -0.0962    1.0616    0.0373 C   0  0  0  0  0  0  0  0  0  0  0  0
    2.7368   -0.2091   -0.3498 H   0  0  0  0  0  0  0  0  0  0  0  0
    2.2825    0.6723    1.1192 H   0  0  0  0  0  0  0  0  0  0  0  0
    2.2998   -1.1681    1.0750 H   0  0  0  0  0  0  0  0  0  0  0  0
   -2.4952   -0.5998    0.9964 H   0  0  0  0  0  0  0  0  0  0  0  0
   -2.0742   -1.3703   -0.5572 H   0  0  0  0  0  0  0  0  0  0  0  0
   -2.2661    1.4579   -0.2706 H   0  0  0  0  0  0  0  0  0  0  0  0
    1.1464    0.7370   -1.8281 H   0  0  0  0  0  0  0  0  0  0  0  0
    0.3045    2.0419    0.1720 H   0  0  0  0  0  0  0  0  0  0  0  0
  1  2  1  0
  2  3  1  0
  3  4  2  0
  3  5  1  0
  5  6  1  0
  6  7  1  0
  7  8  1  0
  8  9  1  0
  8  2  1  0
  9  2  1  0
  9  6  1  0
  1 10  1  0
  1 11  1  0
  1 12  1  0
  5 13  1  0
  5 14  1  0
  6 15  1  0
  8 16  1  0
  9 17  1  0
M  END
