
     RDKit          3D

 19 20  0  0  0  0  0  0  0  0999 V2000
   -1.4069   -1.2136    0.4990 C   0  0  0  0  0  0  0  0  0  0  0  0
   -0.7410    0.1245    0.6184 C   0  0  0  0  0  0  0  0  0  0  0  0
   -1.4932    1.2638    0.8714 O   0  0  0  0  0  0  0  0  0  0  0  0
   -1.0401    1.9531   -0.2690 C   0  0  0  0  0  0  0  0  0  0  0  0
   -0.1421    0.7751   -0.5669 C   0  0  0  0  0  0  0  0  0  0  0  0
   -0.1538    0.2145   -1.8153 O   0  0  0  0  0  0  0  0  0  0  0  0
    0.7097    0.3081    0.5340 C   0  0  0  0  0  0  0  0  0  0  0  0
    1.6657   -0.8050    0.2810 C   0  0  0  0  0  0  0  0  0  0  0  0
    2.9773   -0.2909    0.2603 O   0  0  0  0  0  0  0  0  0  0  0  0
   -1.1667   -1.8763    1.3429 H   0  0  0  0  0  0  0  0  0  0  0  0
   -1.2515   -1.6998   -0.4902 H   0  0  0  0  0  0  0  0  0  0  0  0
   -2.5121   -1.0247    0.5596 H   0  0  0  0  0  0  0  0  0  0  0  0
   -1.8223    2.1684   -1.0001 H   0  0  0  0  0  0  0  0  0  0  0  0
   -0.4687    2.8636   -0.0184 H   0  0  0  0  0  0  0  0  0  0  0  0
   -0.8932   -0.3819   -2.0163 H   0  0  0  0  0  0  0  0  0  0  0  0
    1.1293    1.1124    1.2048 H   0  0  0  0  0  0  0  0  0  0  0  0
    1.5002   -1.3719   -0.6368 H   0  0  0  0  0  0  0  0  0  0  0  0
    1.6427   -1.4743    1.1904 H   0  0  0  0  0  0  0  0  0  0  0  0
    3.4668   -0.6450   -0.5489 H   0  0  0  0  0  0  0  0  0  0  0  0
  1  2  1  0
  2  3  1  0
  3  4  1  0
  4  5  1  0
  5  6  1  0
  5  7  1  0
  7  8  1  0
  8  9  1  0
  5  2  1  0
  7  2  1  0
  1 10  1  0
  1 11  1  0
  1 12  1  0
  4 13  1  0
  4 14  1  0
  6 15  1  0
  7 16  1  0
  8 17  1  0
  8 18  1  0
  9 19  1  0
M  END
