
     RDKit          3D

 19 20  0  0  0  0  0  0  0  0999 V2000
   -2.0293    0.3154   -0.0612 C   0  0  0  0  0  0  0  0  0  0  0  0
   -0.5341    0.1733   -0.1553 C   0  0  0  0  0  0  0  0  0  0  0  0
    0.2472    1.3774    0.3331 C   0  0  0  0  0  0  0  0  0  0  0  0
    1.6904    1.1022   -0.0262 C   0  0  0  0  0  0  0  0  0  0  0  0
    1.9843   -0.0559   -0.6021 C   0  0  0  0  0  0  0  0  0  0  0  0
    0.8557   -0.9916   -0.8488 C   0  0  0  0  0  0  0  0  0  0  0  0
   -0.1659   -0.2384   -1.4258 O   0  0  0  0  0  0  0  0  0  0  0  0
    0.0657   -1.0459    0.4490 C   0  0  0  0  0  0  0  0  0  0  0  0
   -0.8439   -2.0907    0.4905 O   0  0  0  0  0  0  0  0  0  0  0  0
   -2.3787    0.5491    0.9594 H   0  0  0  0  0  0  0  0  0  0  0  0
   -2.4922   -0.5996   -0.4322 H   0  0  0  0  0  0  0  0  0  0  0  0
   -2.3116    1.1880   -0.7144 H   0  0  0  0  0  0  0  0  0  0  0  0
   -0.1170    2.3044   -0.1302 H   0  0  0  0  0  0  0  0  0  0  0  0
    0.1279    1.4087    1.4528 H   0  0  0  0  0  0  0  0  0  0  0  0
    2.4534    1.8408    0.1871 H   0  0  0  0  0  0  0  0  0  0  0  0
    2.9747   -0.3585   -0.8987 H   0  0  0  0  0  0  0  0  0  0  0  0
    1.0920   -1.9434   -1.3121 H   0  0  0  0  0  0  0  0  0  0  0  0
    0.6696   -0.8853    1.3605 H   0  0  0  0  0  0  0  0  0  0  0  0
   -1.2882   -2.0501    1.3747 H   0  0  0  0  0  0  0  0  0  0  0  0
  1  2  1  0
  2  3  1  0
  3  4  1  0
  4  5  2  0
  5  6  1  0
  6  7  1  0
  6  8  1  0
  8  9  1  0
  7  2  1  0
  8  2  1  0
  1 10  1  0
  1 11  1  0
  1 12  1  0
  3 13  1  0
  3 14  1  0
  4 15  1  0
  5 16  1  0
  6 17  1  0
  8 18  1  0
  9 19  1  0
M  END
