
     RDKit          3D

 15 16  0  0  0  0  0  0  0  0999 V2000
    1.8465    0.2352   -0.0839 C   0  0  0  0  0  0  0  0  0  0  0  0
    0.4267    0.0560   -0.1034 C   0  0  0  0  0  0  0  0  0  0  0  0
   -0.5012    1.2003   -0.3269 C   0  0  0  0  0  0  0  0  0  0  0  0
   -1.6695    0.5656   -0.4439 C   0  0  0  0  0  0  0  0  0  0  0  0
   -1.2182   -0.8646   -0.2621 C   0  0  0  0  0  0  0  0  0  0  0  0
   -0.2940   -0.7587    0.9188 C   0  0  0  0  0  0  0  0  0  0  0  0
   -0.0746   -0.8605   -1.0621 O   0  0  0  0  0  0  0  0  0  0  0  0
    2.3388   -0.1826   -1.0075 H   0  0  0  0  0  0  0  0  0  0  0  0
    2.3171   -0.3436    0.7575 H   0  0  0  0  0  0  0  0  0  0  0  0
    2.2081    1.2815   -0.0153 H   0  0  0  0  0  0  0  0  0  0  0  0
   -0.3200    2.2642   -0.3851 H   0  0  0  0  0  0  0  0  0  0  0  0
   -2.6765    0.9044   -0.6170 H   0  0  0  0  0  0  0  0  0  0  0  0
   -1.9269   -1.6378   -0.3387 H   0  0  0  0  0  0  0  0  0  0  0  0
    0.2632   -1.6566    1.1857 H   0  0  0  0  0  0  0  0  0  0  0  0
   -0.7196   -0.2027    1.7839 H   0  0  0  0  0  0  0  0  0  0  0  0
  1  2  1  0
  2  3  1  0
  3  4  2  0
  4  5  1  0
  5  6  1  0
  5  7  1  0
  6  2  1  0
  7  2  1  0
  1  8  1  0
  1  9  1  0
  1 10  1  0
  3 11  1  0
  4 12  1  0
  5 13  1  0
  6 14  1  0
  6 15  1  0
M  END
