
     RDKit          3D

 21 23  0  0  0  0  0  0  0  0999 V2000
   -0.6704    1.8957    0.3420 C   0  0  0  0  0  0  0  0  0  0  0  0
    0.1290    0.7312   -0.1831 C   0  0  0  0  0  0  0  0  0  0  0  0
    1.4980    0.5721    0.3794 C   0  0  0  0  0  0  0  0  0  0  0  0
    1.8295   -0.8875    0.4279 C   0  0  0  0  0  0  0  0  0  0  0  0
    1.8624   -1.5155   -0.8032 O   0  0  0  0  0  0  0  0  0  0  0  0
    0.6754   -1.6280   -0.0559 C   0  0  0  0  0  0  0  0  0  0  0  0
   -0.4227   -0.6227   -0.2888 C   0  0  0  0  0  0  0  0  0  0  0  0
   -1.7519   -0.9914    0.2838 C   0  0  0  0  0  0  0  0  0  0  0  0
   -0.2747    0.2090   -1.4987 C   0  0  0  0  0  0  0  0  0  0  0  0
   -1.7581    1.7545    0.2750 H   0  0  0  0  0  0  0  0  0  0  0  0
   -0.4413    2.7815   -0.3173 H   0  0  0  0  0  0  0  0  0  0  0  0
   -0.3465    2.2019    1.3548 H   0  0  0  0  0  0  0  0  0  0  0  0
    1.4699    0.9493    1.4382 H   0  0  0  0  0  0  0  0  0  0  0  0
    2.2168    1.1292   -0.2369 H   0  0  0  0  0  0  0  0  0  0  0  0
    2.3788   -1.3162    1.2931 H   0  0  0  0  0  0  0  0  0  0  0  0
    0.4708   -2.6176    0.3422 H   0  0  0  0  0  0  0  0  0  0  0  0
   -2.2730   -1.8020   -0.2545 H   0  0  0  0  0  0  0  0  0  0  0  0
   -2.4610   -0.1579    0.3793 H   0  0  0  0  0  0  0  0  0  0  0  0
   -1.5614   -1.3475    1.3384 H   0  0  0  0  0  0  0  0  0  0  0  0
    0.5651   -0.0091   -2.2091 H   0  0  0  0  0  0  0  0  0  0  0  0
   -1.1348    0.6711   -2.0066 H   0  0  0  0  0  0  0  0  0  0  0  0
  1  2  1  0
  2  3  1  0
  3  4  1  0
  4  5  1  0
  5  6  1  0
  6  7  1  0
  7  8  1  0
  7  9  1  0
  7  2  1  0
  9  2  1  0
  6  4  1  0
  1 10  1  0
  1 11  1  0
  1 12  1  0
  3 13  1  0
  3 14  1  0
  4 15  1  0
  6 16  1  0
  8 17  1  0
  8 18  1  0
  8 19  1  0
  9 20  1  0
  9 21  1  0
M  END
