
     RDKit          3D

 21 22  0  0  0  0  0  0  0  0999 V2000
    1.9817   -0.9628    0.0350 C   0  0  0  0  0  0  0  0  0  0  0  0
    0.7483   -0.1297   -0.2503 C   0  0  0  0  0  0  0  0  0  0  0  0
    1.0048    1.3545   -0.1276 C   0  0  0  0  0  0  0  0  0  0  0  0
   -0.1918    2.1584   -0.4653 C   0  0  0  0  0  0  0  0  0  0  0  0
   -1.4175    1.7063   -0.2082 C   0  0  0  0  0  0  0  0  0  0  0  0
   -1.5453    0.3858    0.4209 C   0  0  0  0  0  0  0  0  0  0  0  0
   -0.5190   -0.5904   -0.0566 C   0  0  0  0  0  0  0  0  0  0  0  0
   -0.8424   -2.0330    0.2579 C   0  0  0  0  0  0  0  0  0  0  0  0
   -0.0241   -0.4457   -1.3787 O   0  0  0  0  0  0  0  0  0  0  0  0
    2.6541   -1.0307   -0.8406 H   0  0  0  0  0  0  0  0  0  0  0  0
    2.4878   -0.4723    0.9021 H   0  0  0  0  0  0  0  0  0  0  0  0
    1.7026   -1.9838    0.4112 H   0  0  0  0  0  0  0  0  0  0  0  0
    1.7889    1.5927   -0.8760 H   0  0  0  0  0  0  0  0  0  0  0  0
    1.4340    1.6266    0.8631 H   0  0  0  0  0  0  0  0  0  0  0  0
   -0.0338    3.1256   -0.9271 H   0  0  0  0  0  0  0  0  0  0  0  0
   -2.2737    2.2898   -0.4539 H   0  0  0  0  0  0  0  0  0  0  0  0
   -1.4605    0.5504    1.5343 H   0  0  0  0  0  0  0  0  0  0  0  0
   -2.5838   -0.0056    0.2809 H   0  0  0  0  0  0  0  0  0  0  0  0
   -0.1165   -2.7041   -0.2220 H   0  0  0  0  0  0  0  0  0  0  0  0
   -0.9629   -2.1922    1.3385 H   0  0  0  0  0  0  0  0  0  0  0  0
   -1.8311   -2.2398   -0.2376 H   0  0  0  0  0  0  0  0  0  0  0  0
  1  2  1  0
  2  3  1  0
  3  4  1  0
  4  5  2  0
  5  6  1  0
  6  7  1  0
  7  8  1  0
  7  9  1  0
  7  2  1  0
  9  2  1  0
  1 10  1  0
  1 11  1  0
  1 12  1  0
  3 13  1  0
  3 14  1  0
  4 15  1  0
  5 16  1  0
  6 17  1  0
  6 18  1  0
  8 19  1  0
  8 20  1  0
  8 21  1  0
M  END
