
     RDKit          3D

 17 18  0  0  0  0  0  0  0  0999 V2000
    1.9856    0.5846    0.1725 C   0  0  0  0  0  0  0  0  0  0  0  0
    0.5748    0.1332    0.4125 C   0  0  0  0  0  0  0  0  0  0  0  0
    0.2263   -0.5644    1.5402 O   0  0  0  0  0  0  0  0  0  0  0  0
    0.3092   -1.3100    0.3830 C   0  0  0  0  0  0  0  0  0  0  0  0
   -0.8104   -1.4560   -0.5393 C   0  0  0  0  0  0  0  0  0  0  0  0
   -1.0788   -2.4667   -1.1480 O   0  0  0  0  0  0  0  0  0  0  0  0
   -1.5552   -0.1804   -0.6074 C   0  0  0  0  0  0  0  0  0  0  0  0
   -0.5491    0.8631   -0.2518 C   0  0  0  0  0  0  0  0  0  0  0  0
   -1.0803    1.7421    0.7165 O   0  0  0  0  0  0  0  0  0  0  0  0
    2.6929   -0.1768    0.5393 H   0  0  0  0  0  0  0  0  0  0  0  0
    2.1116    0.7220   -0.9218 H   0  0  0  0  0  0  0  0  0  0  0  0
    2.2132    1.5659    0.6412 H   0  0  0  0  0  0  0  0  0  0  0  0
    1.1925   -1.9814    0.3394 H   0  0  0  0  0  0  0  0  0  0  0  0
   -2.4015   -0.2310    0.1117 H   0  0  0  0  0  0  0  0  0  0  0  0
   -1.9612    0.0102   -1.6433 H   0  0  0  0  0  0  0  0  0  0  0  0
   -0.2286    1.4792   -1.1109 H   0  0  0  0  0  0  0  0  0  0  0  0
   -1.6410    1.2664    1.3662 H   0  0  0  0  0  0  0  0  0  0  0  0
  1  2  1  0
  2  3  1  0
  3  4  1  0
  4  5  1  0
  5  6  2  0
  5  7  1  0
  7  8  1  0
  8  9  1  0
  4  2  1  0
  8  2  1  0
  1 10  1  0
  1 11  1  0
  1 12  1  0
  4 13  1  0
  7 14  1  0
  7 15  1  0
  8 16  1  0
  9 17  1  0
M  END
