
     RDKit          3D

 21 23  0  0  0  0  0  0  0  0999 V2000
   -2.1210    1.2092   -0.0976 C   0  0  0  0  0  0  0  0  0  0  0  0
   -0.9027    0.3747    0.0659 C   0  0  0  0  0  0  0  0  0  0  0  0
   -1.0174   -0.9865    0.7138 C   0  0  0  0  0  0  0  0  0  0  0  0
    0.0917   -1.4389   -0.2450 C   0  0  0  0  0  0  0  0  0  0  0  0
    1.4277   -1.1314    0.3981 C   0  0  0  0  0  0  0  0  0  0  0  0
    1.7048    0.3063    0.0300 C   0  0  0  0  0  0  0  0  0  0  0  0
    2.3234    1.0260    1.0165 O   0  0  0  0  0  0  0  0  0  0  0  0
    0.3886    0.8800   -0.4224 C   0  0  0  0  0  0  0  0  0  0  0  0
   -0.2387   -0.2484   -1.0902 C   0  0  0  0  0  0  0  0  0  0  0  0
   -2.1390    1.9788    0.6959 H   0  0  0  0  0  0  0  0  0  0  0  0
   -2.1806    1.7254   -1.0844 H   0  0  0  0  0  0  0  0  0  0  0  0
   -3.0729    0.6312   -0.0129 H   0  0  0  0  0  0  0  0  0  0  0  0
   -1.9784   -1.5112    0.5540 H   0  0  0  0  0  0  0  0  0  0  0  0
   -0.7097   -0.9933    1.7758 H   0  0  0  0  0  0  0  0  0  0  0  0
   -0.0344   -2.4266   -0.6727 H   0  0  0  0  0  0  0  0  0  0  0  0
    1.3178   -1.1866    1.5167 H   0  0  0  0  0  0  0  0  0  0  0  0
    2.2208   -1.8248    0.1212 H   0  0  0  0  0  0  0  0  0  0  0  0
    2.3538    0.2629   -0.8943 H   0  0  0  0  0  0  0  0  0  0  0  0
    2.7834    1.8092    0.6268 H   0  0  0  0  0  0  0  0  0  0  0  0
    0.3991    1.8480   -0.9084 H   0  0  0  0  0  0  0  0  0  0  0  0
   -0.6164   -0.3040   -2.0867 H   0  0  0  0  0  0  0  0  0  0  0  0
  1  2  1  0
  2  3  1  0
  3  4  1  0
  4  5  1  0
  5  6  1  0
  6  7  1  0
  6  8  1  0
  8  9  1  0
  8  2  1  0
  9  2  1  0
  9  4  1  0
  1 10  1  0
  1 11  1  0
  1 12  1  0
  3 13  1  0
  3 14  1  0
  4 15  1  0
  5 16  1  0
  5 17  1  0
  6 18  1  0
  7 19  1  0
  8 20  1  0
  9 21  1  0
M  END
