
     RDKit          3D

 19 20  0  0  0  0  0  0  0  0999 V2000
    2.0380    0.5244    0.1954 C   0  0  0  0  0  0  0  0  0  0  0  0
    0.7363   -0.1741    0.6409 C   0  0  0  0  0  0  0  0  0  0  0  0
    0.6371   -1.5004    0.1859 C   0  0  0  0  0  0  0  0  0  0  0  0
   -0.2076   -0.6392   -0.5514 C   0  0  0  0  0  0  0  0  0  0  0  0
   -1.6857   -0.7959   -0.2000 C   0  0  0  0  0  0  0  0  0  0  0  0
   -2.2004    0.1938    0.5647 O   0  0  0  0  0  0  0  0  0  0  0  0
   -0.0025    0.5073   -1.2389 O   0  0  0  0  0  0  0  0  0  0  0  0
   -0.2070    1.4928   -0.2401 C   0  0  0  0  0  0  0  0  0  0  0  0
   -0.1669    0.7846    0.9898 O   0  0  0  0  0  0  0  0  0  0  0  0
    2.2493    1.4102    0.7990 H   0  0  0  0  0  0  0  0  0  0  0  0
    2.8477   -0.2172    0.4599 H   0  0  0  0  0  0  0  0  0  0  0  0
    2.0826    0.6555   -0.8813 H   0  0  0  0  0  0  0  0  0  0  0  0
    0.2187   -2.2492    0.9236 H   0  0  0  0  0  0  0  0  0  0  0  0
    1.4636   -2.0020   -0.3633 H   0  0  0  0  0  0  0  0  0  0  0  0
   -2.2288   -0.7804   -1.1852 H   0  0  0  0  0  0  0  0  0  0  0  0
   -1.9103   -1.7842    0.2434 H   0  0  0  0  0  0  0  0  0  0  0  0
   -3.1654    0.3393    0.3645 H   0  0  0  0  0  0  0  0  0  0  0  0
    0.6294    2.1901   -0.3308 H   0  0  0  0  0  0  0  0  0  0  0  0
   -1.1280    2.0448   -0.3758 H   0  0  0  0  0  0  0  0  0  0  0  0
  1  2  1  0
  2  3  1  0
  3  4  1  0
  4  5  1  0
  5  6  1  0
  4  7  1  0
  7  8  1  0
  8  9  1  0
  4  2  1  0
  9  2  1  0
  1 10  1  0
  1 11  1  0
  1 12  1  0
  3 13  1  0
  3 14  1  0
  5 15  1  0
  5 16  1  0
  6 17  1  0
  8 18  1  0
  8 19  1  0
M  END
