
     RDKit          3D

 18 19  0  0  0  0  0  0  0  0999 V2000
    2.2982   -0.1516    0.1829 C   0  0  0  0  0  0  0  0  0  0  0  0
    0.8380    0.1209   -0.1363 C   0  0  0  0  0  0  0  0  0  0  0  0
    0.0006   -1.1040   -0.2474 C   0  0  0  0  0  0  0  0  0  0  0  0
   -1.4253   -0.8201   -0.6447 C   0  0  0  0  0  0  0  0  0  0  0  0
   -2.0140    0.2949    0.1274 C   0  0  0  0  0  0  0  0  0  0  0  0
   -1.2710    1.2556    0.5764 C   0  0  0  0  0  0  0  0  0  0  0  0
    0.1858    1.2958    0.3482 C   0  0  0  0  0  0  0  0  0  0  0  0
    0.6475    1.1889   -1.0037 O   0  0  0  0  0  0  0  0  0  0  0  0
    2.4812   -1.2069    0.4591 H   0  0  0  0  0  0  0  0  0  0  0  0
    2.5750    0.5106    1.0180 H   0  0  0  0  0  0  0  0  0  0  0  0
    2.9273    0.1591   -0.6967 H   0  0  0  0  0  0  0  0  0  0  0  0
    0.4027   -1.8470   -0.9711 H   0  0  0  0  0  0  0  0  0  0  0  0
   -0.0259   -1.6176    0.7411 H   0  0  0  0  0  0  0  0  0  0  0  0
   -2.0130   -1.7317   -0.4124 H   0  0  0  0  0  0  0  0  0  0  0  0
   -1.5253   -0.6697   -1.7566 H   0  0  0  0  0  0  0  0  0  0  0  0
   -3.1123    0.2466    0.2862 H   0  0  0  0  0  0  0  0  0  0  0  0
   -1.7573    2.0682    1.1498 H   0  0  0  0  0  0  0  0  0  0  0  0
    0.7879    2.0079    0.9797 H   0  0  0  0  0  0  0  0  0  0  0  0
  1  2  1  0
  2  3  1  0
  3  4  1  0
  4  5  1  0
  5  6  2  0
  6  7  1  0
  7  8  1  0
  7  2  1  0
  8  2  1  0
  1  9  1  0
  1 10  1  0
  1 11  1  0
  3 12  1  0
  3 13  1  0
  4 14  1  0
  4 15  1  0
  5 16  1  0
  6 17  1  0
  7 18  1  0
M  END
