
     RDKit          3D

 19 20  0  0  0  0  0  0  0  0999 V2000
    2.1844   -0.2803   -0.3050 C   0  0  0  0  0  0  0  0  0  0  0  0
    0.7375   -0.3685   -0.2134 C   0  0  0  0  0  0  0  0  0  0  0  0
    0.2201   -1.4037    0.5481 O   0  0  0  0  0  0  0  0  0  0  0  0
   -0.9430   -0.9462    1.1781 C   0  0  0  0  0  0  0  0  0  0  0  0
   -1.3232    0.2173    0.2920 C   0  0  0  0  0  0  0  0  0  0  0  0
   -1.2917   -0.2855   -1.1264 C   0  0  0  0  0  0  0  0  0  0  0  0
    0.0656   -0.4296   -1.4559 O   0  0  0  0  0  0  0  0  0  0  0  0
    0.0586    0.9043    0.3262 C   0  0  0  0  0  0  0  0  0  0  0  0
    0.1442    1.9183   -0.5821 O   0  0  0  0  0  0  0  0  0  0  0  0
    2.5883    0.2529    0.5998 H   0  0  0  0  0  0  0  0  0  0  0  0
    2.5574    0.1874   -1.2120 H   0  0  0  0  0  0  0  0  0  0  0  0
    2.6345   -1.3009   -0.2533 H   0  0  0  0  0  0  0  0  0  0  0  0
   -1.7125   -1.7064    1.2717 H   0  0  0  0  0  0  0  0  0  0  0  0
   -0.6114   -0.5049    2.1512 H   0  0  0  0  0  0  0  0  0  0  0  0
   -2.1312    0.8235    0.5925 H   0  0  0  0  0  0  0  0  0  0  0  0
   -1.8481    0.3225   -1.8336 H   0  0  0  0  0  0  0  0  0  0  0  0
   -1.7040   -1.3210   -1.1186 H   0  0  0  0  0  0  0  0  0  0  0  0
    0.3771    1.1277    1.3394 H   0  0  0  0  0  0  0  0  0  0  0  0
   -0.0025    2.7930   -0.1986 H   0  0  0  0  0  0  0  0  0  0  0  0
  1  2  1  0
  2  3  1  0
  3  4  1  0
  4  5  1  0
  5  6  1  0
  6  7  1  0
  5  8  1  0
  8  9  1  0
  7  2  1  0
  8  2  1  0
  1 10  1  0
  1 11  1  0
  1 12  1  0
  4 13  1  0
  4 14  1  0
  5 15  1  0
  6 16  1  0
  6 17  1  0
  8 18  1  0
  9 19  1  0
M  END
