
     RDKit          2D

 21 23  0  0  0  0  0  0  0  0999 V2000
   -3.4204   -0.3107    0.0000 C   0  0  0  0  0  0  0  0  0  0  0  0
   -2.1213   -1.0607    0.0000 C   0  0  0  0  0  0  0  0  0  0  0  0
   -2.5095   -2.5095    0.0000 C   0  0  0  0  0  0  0  0  0  0  0  0
   -1.0607   -2.1213    0.0000 C   0  0  0  0  0  0  0  0  0  0  0  0
   -0.3107   -3.4204    0.0000 C   0  0  0  0  0  0  0  0  0  0  0  0
   -0.0000   -1.0607    0.0000 C   0  0  0  0  0  0  0  0  0  0  0  0
    1.0607    0.0000    0.0000 O   0  0  0  0  0  0  0  0  0  0  0  0
    0.0000    1.0607    0.0000 C   0  0  0  0  0  0  0  0  0  0  0  0
   -1.0607    0.0000    0.0000 C   0  0  0  0  0  0  0  0  0  0  0  0
   -4.7194    0.4393    0.0000 H   0  0  0  0  0  0  0  0  0  0  0  0
   -4.3231   -1.5086    0.0000 H   0  0  0  0  0  0  0  0  0  0  0  0
   -2.8929    0.9320    0.0000 H   0  0  0  0  0  0  0  0  0  0  0  0
   -4.0086   -2.5619    0.0000 H   0  0  0  0  0  0  0  0  0  0  0  0
   -2.5619   -4.0086    0.0000 H   0  0  0  0  0  0  0  0  0  0  0  0
    0.4393   -4.7194    0.0000 H   0  0  0  0  0  0  0  0  0  0  0  0
    0.9320   -2.8929    0.0000 H   0  0  0  0  0  0  0  0  0  0  0  0
   -1.5086   -4.3231    0.0000 H   0  0  0  0  0  0  0  0  0  0  0  0
    1.0638   -1.8918    0.0000 H   0  0  0  0  0  0  0  0  0  0  0  0
   -1.0607    2.1213    0.0000 H   0  0  0  0  0  0  0  0  0  0  0  0
    1.0607    2.1213    0.0000 H   0  0  0  0  0  0  0  0  0  0  0  0
   -1.8918    1.0638    0.0000 H   0  0  0  0  0  0  0  0  0  0  0  0
  1  2  1  0
  2  3  1  0
  3  4  1  0
  4  5  1  0
  4  6  1  0
  6  7  1  0
  7  8  1  0
  8  9  1  0
  4  2  1  0
  9  6  1  0
  9  2  1  0
  1 10  1  0
  1 11  1  0
  1 12  1  0
  3 13  1  0
  3 14  1  0
  5 15  1  0
  5 16  1  0
  5 17  1  0
  6 18  1  0
  8 19  1  0
  8 20  1  0
  9 21  1  0
M  END
