
     RDKit          3D

 17 18  0  0  0  0  0  0  0  0999 V2000
    0.2589   -1.3270    0.8765 C   0  0  0  0  0  0  0  0  0  0  0  0
    0.1726   -0.4514   -0.3465 C   0  0  0  0  0  0  0  0  0  0  0  0
   -1.2201   -0.3003   -0.8410 C   0  0  0  0  0  0  0  0  0  0  0  0
   -1.6995    0.6855    0.2246 C   0  0  0  0  0  0  0  0  0  0  0  0
   -2.7633    0.6650    0.8490 O   0  0  0  0  0  0  0  0  0  0  0  0
   -0.5522    1.6080    0.2605 C   0  0  0  0  0  0  0  0  0  0  0  0
    0.5506    0.9910   -0.0697 C   0  0  0  0  0  0  0  0  0  0  0  0
    1.9375    0.4822   -0.4271 C   0  0  0  0  0  0  0  0  0  0  0  0
    1.2454   -0.5211   -1.2061 O   0  0  0  0  0  0  0  0  0  0  0  0
   -0.2800   -0.8509    1.7355 H   0  0  0  0  0  0  0  0  0  0  0  0
    1.2767   -1.6376    1.1285 H   0  0  0  0  0  0  0  0  0  0  0  0
   -0.3273   -2.2520    0.6494 H   0  0  0  0  0  0  0  0  0  0  0  0
   -1.8306   -1.2071   -0.8308 H   0  0  0  0  0  0  0  0  0  0  0  0
   -1.1880    0.2191   -1.8225 H   0  0  0  0  0  0  0  0  0  0  0  0
   -0.6096    2.6630    0.5289 H   0  0  0  0  0  0  0  0  0  0  0  0
    2.5231    0.0912    0.3900 H   0  0  0  0  0  0  0  0  0  0  0  0
    2.5058    1.1426   -1.0991 H   0  0  0  0  0  0  0  0  0  0  0  0
  1  2  1  0
  2  3  1  0
  3  4  1  0
  4  5  2  0
  4  6  1  0
  6  7  2  0
  7  8  1  0
  8  9  1  0
  7  2  1  0
  9  2  1  0
  1 10  1  0
  1 11  1  0
  1 12  1  0
  3 13  1  0
  3 14  1  0
  6 15  1  0
  8 16  1  0
  8 17  1  0
M  END
