
     RDKit          3D

 21 23  0  0  0  0  0  0  0  0999 V2000
   -1.6517    1.3234    0.4143 C   0  0  0  0  0  0  0  0  0  0  0  0
   -0.4636    0.4979    0.2437 C   0  0  0  0  0  0  0  0  0  0  0  0
    0.8910    1.0656    0.5088 C   0  0  0  0  0  0  0  0  0  0  0  0
    1.7581   -0.1185    0.0373 C   0  0  0  0  0  0  0  0  0  0  0  0
    2.6783   -0.4876    0.9852 O   0  0  0  0  0  0  0  0  0  0  0  0
    0.6749   -1.1309   -0.1752 C   0  0  0  0  0  0  0  0  0  0  0  0
   -0.3664   -0.4071   -0.9579 C   0  0  0  0  0  0  0  0  0  0  0  0
   -1.3645   -1.2844   -0.2507 C   0  0  0  0  0  0  0  0  0  0  0  0
   -0.4115   -0.8716    0.8343 C   0  0  0  0  0  0  0  0  0  0  0  0
   -1.3699    2.4104    0.5221 H   0  0  0  0  0  0  0  0  0  0  0  0
   -2.3753    1.0113    1.1925 H   0  0  0  0  0  0  0  0  0  0  0  0
   -2.2442    1.3021   -0.5488 H   0  0  0  0  0  0  0  0  0  0  0  0
    1.1298    1.9844   -0.0253 H   0  0  0  0  0  0  0  0  0  0  0  0
    1.0381    1.1066    1.6036 H   0  0  0  0  0  0  0  0  0  0  0  0
    2.1980    0.1097   -0.9595 H   0  0  0  0  0  0  0  0  0  0  0  0
    3.3896    0.2052    1.0040 H   0  0  0  0  0  0  0  0  0  0  0  0
    0.9292   -2.1407   -0.4180 H   0  0  0  0  0  0  0  0  0  0  0  0
   -0.3639   -0.1392   -1.9187 H   0  0  0  0  0  0  0  0  0  0  0  0
   -1.2660   -2.3687   -0.4640 H   0  0  0  0  0  0  0  0  0  0  0  0
   -2.3875   -0.9257   -0.1806 H   0  0  0  0  0  0  0  0  0  0  0  0
   -0.4224   -1.1419    1.7960 H   0  0  0  0  0  0  0  0  0  0  0  0
  1  2  1  0
  2  3  1  0
  3  4  1  0
  4  5  1  0
  4  6  1  0
  6  7  1  0
  7  8  1  0
  8  9  1  0
  7  2  1  0
  9  2  1  0
  9  6  1  0
  1 10  1  0
  1 11  1  0
  1 12  1  0
  3 13  1  0
  3 14  1  0
  4 15  1  0
  5 16  1  0
  6 17  1  0
  7 18  1  0
  8 19  1  0
  8 20  1  0
  9 21  1  0
M  END
