
     RDKit          3D

 21 23  0  0  0  0  0  0  0  0999 V2000
   -2.2858   -0.0124    0.3160 C   0  0  0  0  0  0  0  0  0  0  0  0
   -0.7982   -0.0093    0.2405 C   0  0  0  0  0  0  0  0  0  0  0  0
   -0.3208    1.2926   -0.3512 C   0  0  0  0  0  0  0  0  0  0  0  0
    1.1649    1.2775   -0.4045 C   0  0  0  0  0  0  0  0  0  0  0  0
    1.8066    0.0335    0.1001 C   0  0  0  0  0  0  0  0  0  0  0  0
    1.1481   -1.2294   -0.2092 C   0  0  0  0  0  0  0  0  0  0  0  0
   -0.2893   -1.1509   -0.6153 C   0  0  0  0  0  0  0  0  0  0  0  0
    1.1090   -0.6541    1.2018 C   0  0  0  0  0  0  0  0  0  0  0  0
   -0.1727   -0.2411    1.4411 O   0  0  0  0  0  0  0  0  0  0  0  0
   -2.6925   -0.5504   -0.5624 H   0  0  0  0  0  0  0  0  0  0  0  0
   -2.6890   -0.4132    1.2467 H   0  0  0  0  0  0  0  0  0  0  0  0
   -2.6574    1.0377    0.2244 H   0  0  0  0  0  0  0  0  0  0  0  0
   -0.6929    1.3117   -1.4164 H   0  0  0  0  0  0  0  0  0  0  0  0
   -0.7629    2.1159    0.2277 H   0  0  0  0  0  0  0  0  0  0  0  0
    1.5826    1.5205   -1.4166 H   0  0  0  0  0  0  0  0  0  0  0  0
    1.5288    2.1251    0.2481 H   0  0  0  0  0  0  0  0  0  0  0  0
    2.9058    0.0467    0.1025 H   0  0  0  0  0  0  0  0  0  0  0  0
    1.7215   -2.1335   -0.4111 H   0  0  0  0  0  0  0  0  0  0  0  0
   -0.4698   -1.0235   -1.6785 H   0  0  0  0  0  0  0  0  0  0  0  0
   -0.7907   -2.0758   -0.2099 H   0  0  0  0  0  0  0  0  0  0  0  0
    1.6545   -1.2678    1.9261 H   0  0  0  0  0  0  0  0  0  0  0  0
  1  2  1  0
  2  3  1  0
  3  4  1  0
  4  5  1  0
  5  6  1  0
  6  7  1  0
  6  8  1  0
  8  9  1  0
  7  2  1  0
  9  2  1  0
  8  5  1  0
  1 10  1  0
  1 11  1  0
  1 12  1  0
  3 13  1  0
  3 14  1  0
  4 15  1  0
  4 16  1  0
  5 17  1  0
  6 18  1  0
  7 19  1  0
  7 20  1  0
  8 21  1  0
M  END
