
     RDKit          3D

 21 23  0  0  0  0  0  0  0  0999 V2000
    1.9840   -0.4935   -0.3974 C   0  0  0  0  0  0  0  0  0  0  0  0
    0.7918   -0.1676    0.4325 C   0  0  0  0  0  0  0  0  0  0  0  0
    0.9499    1.0904    1.3465 C   0  0  0  0  0  0  0  0  0  0  0  0
    0.1734    1.2495    0.1420 C   0  0  0  0  0  0  0  0  0  0  0  0
   -1.3033    0.8602    0.0252 C   0  0  0  0  0  0  0  0  0  0  0  0
   -1.8926    1.7598   -0.8617 O   0  0  0  0  0  0  0  0  0  0  0  0
   -1.1249   -0.4584   -0.6492 C   0  0  0  0  0  0  0  0  0  0  0  0
   -1.2052   -1.7965   -0.2478 C   0  0  0  0  0  0  0  0  0  0  0  0
   -0.3581   -1.0511    0.6040 C   0  0  0  0  0  0  0  0  0  0  0  0
    1.7492   -1.0211   -1.3342 H   0  0  0  0  0  0  0  0  0  0  0  0
    2.7518   -1.0007    0.2157 H   0  0  0  0  0  0  0  0  0  0  0  0
    2.4661    0.4774   -0.7175 H   0  0  0  0  0  0  0  0  0  0  0  0
    0.4148    0.9011    2.3121 H   0  0  0  0  0  0  0  0  0  0  0  0
    1.9406    1.5552    1.3763 H   0  0  0  0  0  0  0  0  0  0  0  0
    0.5906    1.7832   -0.7205 H   0  0  0  0  0  0  0  0  0  0  0  0
   -1.8005    0.7952    0.9884 H   0  0  0  0  0  0  0  0  0  0  0  0
   -1.8488    1.4287   -1.7907 H   0  0  0  0  0  0  0  0  0  0  0  0
   -0.4802   -0.2890   -1.5682 H   0  0  0  0  0  0  0  0  0  0  0  0
   -2.2183   -2.1634    0.0876 H   0  0  0  0  0  0  0  0  0  0  0  0
   -0.7331   -2.6098   -0.8542 H   0  0  0  0  0  0  0  0  0  0  0  0
   -0.8472   -0.8498    1.6109 H   0  0  0  0  0  0  0  0  0  0  0  0
  1  2  1  0
  2  3  1  0
  3  4  1  0
  4  5  1  0
  5  6  1  0
  5  7  1  0
  7  8  1  0
  8  9  1  0
  4  2  1  0
  9  7  1  0
  9  2  1  0
  1 10  1  0
  1 11  1  0
  1 12  1  0
  3 13  1  0
  3 14  1  0
  4 15  1  0
  5 16  1  0
  6 17  1  0
  7 18  1  0
  8 19  1  0
  8 20  1  0
  9 21  1  0
M  END
