
     RDKit          3D

 19 21  0  0  0  0  0  0  0  0999 V2000
    2.2263    0.1621    0.2038 C   0  0  0  0  0  0  0  0  0  0  0  0
    0.8182   -0.2081   -0.1949 C   0  0  0  0  0  0  0  0  0  0  0  0
    0.7297   -1.2112   -1.1322 O   0  0  0  0  0  0  0  0  0  0  0  0
    0.2145   -1.4420    0.2041 C   0  0  0  0  0  0  0  0  0  0  0  0
   -1.2882   -1.2860    0.2095 C   0  0  0  0  0  0  0  0  0  0  0  0
   -1.5246    0.2268    0.2325 C   0  0  0  0  0  0  0  0  0  0  0  0
   -1.3624    0.9286   -1.0477 C   0  0  0  0  0  0  0  0  0  0  0  0
   -0.2386    0.8436   -0.0717 C   0  0  0  0  0  0  0  0  0  0  0  0
    0.1014    2.0101    0.5913 O   0  0  0  0  0  0  0  0  0  0  0  0
    2.9853   -0.4719   -0.3230 H   0  0  0  0  0  0  0  0  0  0  0  0
    2.3593    0.0466    1.2795 H   0  0  0  0  0  0  0  0  0  0  0  0
    2.3980    1.2002   -0.1664 H   0  0  0  0  0  0  0  0  0  0  0  0
    0.7021   -2.2264    0.7828 H   0  0  0  0  0  0  0  0  0  0  0  0
   -1.7765   -1.7427    1.0691 H   0  0  0  0  0  0  0  0  0  0  0  0
   -1.7421   -1.6213   -0.7688 H   0  0  0  0  0  0  0  0  0  0  0  0
   -2.2434    0.5825    0.9714 H   0  0  0  0  0  0  0  0  0  0  0  0
   -1.2149    0.4086   -2.0108 H   0  0  0  0  0  0  0  0  0  0  0  0
   -1.8642    1.9148   -1.1703 H   0  0  0  0  0  0  0  0  0  0  0  0
    0.7201    1.8858    1.3417 H   0  0  0  0  0  0  0  0  0  0  0  0
  1  2  1  0
  2  3  1  0
  3  4  1  0
  4  5  1  0
  5  6  1  0
  6  7  1  0
  7  8  1  0
  8  9  1  0
  4  2  1  0
  8  6  1  0
  8  2  1  0
  1 10  1  0
  1 11  1  0
  1 12  1  0
  4 13  1  0
  5 14  1  0
  5 15  1  0
  6 16  1  0
  7 17  1  0
  7 18  1  0
  9 19  1  0
M  END
