
     RDKit          3D

 19 20  0  0  0  0  0  0  0  0999 V2000
    2.2677   -0.2877   -0.1062 C   0  0  0  0  0  0  0  0  0  0  0  0
    0.8878   -0.3102   -0.0035 C   0  0  0  0  0  0  0  0  0  0  0  0
   -0.0379   -1.2942   -0.6461 C   0  0  0  0  0  0  0  0  0  0  0  0
   -0.8512   -0.3591    0.1890 C   0  0  0  0  0  0  0  0  0  0  0  0
   -2.2175   -0.4010    0.3922 C   0  0  0  0  0  0  0  0  0  0  0  0
    0.1400   -0.4726    1.1489 O   0  0  0  0  0  0  0  0  0  0  0  0
   -0.0632    0.7665   -0.3988 C   0  0  0  0  0  0  0  0  0  0  0  0
    0.0133    2.0068    0.3919 C   0  0  0  0  0  0  0  0  0  0  0  0
   -0.3551    2.0901    1.5487 O   0  0  0  0  0  0  0  0  0  0  0  0
    2.6966    0.7434   -0.0260 H   0  0  0  0  0  0  0  0  0  0  0  0
    2.6559   -0.6985   -1.0589 H   0  0  0  0  0  0  0  0  0  0  0  0
    2.7691   -0.8688    0.7154 H   0  0  0  0  0  0  0  0  0  0  0  0
   -0.1680   -1.2264   -1.7303 H   0  0  0  0  0  0  0  0  0  0  0  0
    0.0234   -2.3273   -0.3055 H   0  0  0  0  0  0  0  0  0  0  0  0
   -2.6845   -1.3779    0.1636 H   0  0  0  0  0  0  0  0  0  0  0  0
   -2.7696    0.3967   -0.1784 H   0  0  0  0  0  0  0  0  0  0  0  0
   -2.4979   -0.1955    1.4677 H   0  0  0  0  0  0  0  0  0  0  0  0
   -0.2278    0.9268   -1.4804 H   0  0  0  0  0  0  0  0  0  0  0  0
    0.4190    2.8890   -0.0833 H   0  0  0  0  0  0  0  0  0  0  0  0
  1  2  1  0
  2  3  1  0
  3  4  1  0
  4  5  1  0
  4  6  1  0
  4  7  1  0
  7  8  1  0
  8  9  2  0
  6  2  1  0
  7  2  1  0
  1 10  1  0
  1 11  1  0
  1 12  1  0
  3 13  1  0
  3 14  1  0
  5 15  1  0
  5 16  1  0
  5 17  1  0
  7 18  1  0
  8 19  1  0
M  END
