
     RDKit          3D

 19 22  0  0  0  0  0  0  0  0999 V2000
    1.6447   -0.5796    0.7504 C   0  0  0  0  0  0  0  0  0  0  0  0
    0.6797    0.0270    0.0043 C   0  0  0  0  0  0  0  0  0  0  0  0
    0.8458    0.9791   -1.1525 C   0  0  0  0  0  0  0  0  0  0  0  0
   -0.6470    0.8314   -1.0218 C   0  0  0  0  0  0  0  0  0  0  0  0
   -0.3880   -0.6304   -0.8396 C   0  0  0  0  0  0  0  0  0  0  0  0
   -1.4611   -1.1180    0.0847 C   0  0  0  0  0  0  0  0  0  0  0  0
   -2.5679   -0.2906    0.2972 O   0  0  0  0  0  0  0  0  0  0  0  0
   -1.4887    0.0603    1.0714 C   0  0  0  0  0  0  0  0  0  0  0  0
   -0.4304    0.9297    0.4604 C   0  0  0  0  0  0  0  0  0  0  0  0
    2.6707   -0.1060    0.6965 H   0  0  0  0  0  0  0  0  0  0  0  0
    1.4438   -0.6195    1.8639 H   0  0  0  0  0  0  0  0  0  0  0  0
    1.8513   -1.6612    0.4926 H   0  0  0  0  0  0  0  0  0  0  0  0
    1.1634    1.9903   -0.9065 H   0  0  0  0  0  0  0  0  0  0  0  0
    1.2934    0.5388   -2.0721 H   0  0  0  0  0  0  0  0  0  0  0  0
   -1.3532    1.2761   -1.5709 H   0  0  0  0  0  0  0  0  0  0  0  0
   -0.0880   -1.2283   -1.6732 H   0  0  0  0  0  0  0  0  0  0  0  0
   -1.4506   -2.1304    0.4815 H   0  0  0  0  0  0  0  0  0  0  0  0
   -1.5215   -0.1437    2.1347 H   0  0  0  0  0  0  0  0  0  0  0  0
   -0.1964    1.8750    0.8991 H   0  0  0  0  0  0  0  0  0  0  0  0
  1  2  1  0
  2  3  1  0
  3  4  1  0
  4  5  1  0
  5  6  1  0
  6  7  1  0
  7  8  1  0
  8  9  1  0
  5  2  1  0
  8  6  1  0
  9  2  1  0
  9  4  1  0
  1 10  1  0
  1 11  1  0
  1 12  1  0
  3 13  1  0
  3 14  1  0
  4 15  1  0
  5 16  1  0
  6 17  1  0
  8 18  1  0
  9 19  1  0
M  END
