
     RDKit          3D

 19 20  0  0  0  0  0  0  0  0999 V2000
    0.6166    1.6156    0.8146 C   0  0  0  0  0  0  0  0  0  0  0  0
   -0.0122    0.7721   -0.3219 C   0  0  0  0  0  0  0  0  0  0  0  0
    0.9833   -0.2496   -0.7346 C   0  0  0  0  0  0  0  0  0  0  0  0
    1.0045   -1.0184    0.6069 C   0  0  0  0  0  0  0  0  0  0  0  0
   -0.2128   -0.6977    1.2062 O   0  0  0  0  0  0  0  0  0  0  0  0
   -0.9920   -0.3651    0.1696 C   0  0  0  0  0  0  0  0  0  0  0  0
   -1.2911   -1.5079   -0.7099 C   0  0  0  0  0  0  0  0  0  0  0  0
   -0.8736   -2.5977   -0.4176 O   0  0  0  0  0  0  0  0  0  0  0  0
   -1.4099    0.8872   -0.3816 C   0  0  0  0  0  0  0  0  0  0  0  0
    1.6903    1.7318    0.7127 H   0  0  0  0  0  0  0  0  0  0  0  0
    0.3757    1.2109    1.7935 H   0  0  0  0  0  0  0  0  0  0  0  0
    0.1073    2.6150    0.7365 H   0  0  0  0  0  0  0  0  0  0  0  0
    1.9889    0.1974   -0.8664 H   0  0  0  0  0  0  0  0  0  0  0  0
    0.7558   -0.8709   -1.5784 H   0  0  0  0  0  0  0  0  0  0  0  0
    1.8640   -0.6513    1.2197 H   0  0  0  0  0  0  0  0  0  0  0  0
    1.1500   -2.0854    0.4436 H   0  0  0  0  0  0  0  0  0  0  0  0
   -1.8725   -1.4694   -1.6321 H   0  0  0  0  0  0  0  0  0  0  0  0
   -1.9792    1.5518    0.3170 H   0  0  0  0  0  0  0  0  0  0  0  0
   -1.8931    0.9314   -1.3779 H   0  0  0  0  0  0  0  0  0  0  0  0
  1  2  1  0
  2  3  1  0
  3  4  1  0
  4  5  1  0
  5  6  1  0
  6  7  1  0
  7  8  2  0
  6  9  1  0
  6  2  1  0
  9  2  1  0
  1 10  1  0
  1 11  1  0
  1 12  1  0
  3 13  1  0
  3 14  1  0
  4 15  1  0
  4 16  1  0
  7 17  1  0
  9 18  1  0
  9 19  1  0
M  END
