
     RDKit          3D

 21 24  0  0  0  0  0  0  0  0999 V2000
   -1.7960   -0.5597   -0.9337 C   0  0  0  0  0  0  0  0  0  0  0  0
   -0.6803    0.0754   -0.3072 C   0  0  0  0  0  0  0  0  0  0  0  0
    0.6389    0.2426   -1.0127 C   0  0  0  0  0  0  0  0  0  0  0  0
    1.4877   -0.8077   -0.3862 C   0  0  0  0  0  0  0  0  0  0  0  0
    0.7902   -1.2729    0.8818 C   0  0  0  0  0  0  0  0  0  0  0  0
   -0.2936   -0.2630    1.1188 C   0  0  0  0  0  0  0  0  0  0  0  0
    0.2699    1.1648    1.1801 C   0  0  0  0  0  0  0  0  0  0  0  0
    0.7709    1.5284   -0.1687 C   0  0  0  0  0  0  0  0  0  0  0  0
   -0.6376    1.4961    0.0596 C   0  0  0  0  0  0  0  0  0  0  0  0
   -1.7328   -0.5752   -2.0201 H   0  0  0  0  0  0  0  0  0  0  0  0
   -2.7639   -0.0457   -0.6567 H   0  0  0  0  0  0  0  0  0  0  0  0
   -1.9379   -1.6090   -0.5401 H   0  0  0  0  0  0  0  0  0  0  0  0
    0.6436    0.3792   -2.0740 H   0  0  0  0  0  0  0  0  0  0  0  0
    1.7952   -1.6231   -1.0344 H   0  0  0  0  0  0  0  0  0  0  0  0
    2.4356   -0.3027   -0.0386 H   0  0  0  0  0  0  0  0  0  0  0  0
    0.3416   -2.2686    0.7115 H   0  0  0  0  0  0  0  0  0  0  0  0
    1.4626   -1.3448    1.7379 H   0  0  0  0  0  0  0  0  0  0  0  0
   -1.0822   -0.4943    1.8111 H   0  0  0  0  0  0  0  0  0  0  0  0
    0.2429    1.7612    2.0521 H   0  0  0  0  0  0  0  0  0  0  0  0
    1.4435    2.3016   -0.4207 H   0  0  0  0  0  0  0  0  0  0  0  0
   -1.3983    2.2172    0.0401 H   0  0  0  0  0  0  0  0  0  0  0  0
  1  2  1  0
  2  3  1  0
  3  4  1  0
  4  5  1  0
  5  6  1  0
  6  7  1  0
  7  8  1  0
  8  9  1  0
  6  2  1  0
  9  7  1  0
  9  2  1  0
  8  3  1  0
  1 10  1  0
  1 11  1  0
  1 12  1  0
  3 13  1  0
  4 14  1  0
  4 15  1  0
  5 16  1  0
  5 17  1  0
  6 18  1  0
  7 19  1  0
  8 20  1  0
  9 21  1  0
M  END
