
     RDKit          3D

 19 20  0  0  0  0  0  0  0  0999 V2000
    1.7921    0.8207    0.0404 C   0  0  0  0  0  0  0  0  0  0  0  0
    0.8123   -0.1299    0.1803 C   0  0  0  0  0  0  0  0  0  0  0  0
    0.6974   -1.4571   -0.4919 C   0  0  0  0  0  0  0  0  0  0  0  0
   -0.4270   -1.3495    0.4857 C   0  0  0  0  0  0  0  0  0  0  0  0
    0.4836   -0.8005    1.3777 O   0  0  0  0  0  0  0  0  0  0  0  0
   -0.6644    0.0420   -0.0002 C   0  0  0  0  0  0  0  0  0  0  0  0
   -1.3436    0.9527    0.9961 C   0  0  0  0  0  0  0  0  0  0  0  0
   -1.1613    0.2006   -1.3671 C   0  0  0  0  0  0  0  0  0  0  0  0
   -2.0152   -0.5345   -1.8230 O   0  0  0  0  0  0  0  0  0  0  0  0
    1.4156    1.8876   -0.0006 H   0  0  0  0  0  0  0  0  0  0  0  0
    2.4081    0.7325   -0.9035 H   0  0  0  0  0  0  0  0  0  0  0  0
    2.5451    0.8505    0.8845 H   0  0  0  0  0  0  0  0  0  0  0  0
    0.4359   -1.4395   -1.5644 H   0  0  0  0  0  0  0  0  0  0  0  0
    1.4356   -2.2275   -0.2044 H   0  0  0  0  0  0  0  0  0  0  0  0
   -1.1236   -2.0518    0.6952 H   0  0  0  0  0  0  0  0  0  0  0  0
   -0.6346    1.7744    1.2470 H   0  0  0  0  0  0  0  0  0  0  0  0
   -2.2641    1.3587    0.5259 H   0  0  0  0  0  0  0  0  0  0  0  0
   -1.6414    0.3749    1.8992 H   0  0  0  0  0  0  0  0  0  0  0  0
   -0.7505    0.9955   -1.9770 H   0  0  0  0  0  0  0  0  0  0  0  0
  1  2  1  0
  2  3  1  0
  3  4  1  0
  4  5  1  0
  4  6  1  0
  6  7  1  0
  6  8  1  0
  8  9  2  0
  5  2  1  0
  6  2  1  0
  1 10  1  0
  1 11  1  0
  1 12  1  0
  3 13  1  0
  3 14  1  0
  4 15  1  0
  7 16  1  0
  7 17  1  0
  7 18  1  0
  8 19  1  0
M  END
