
     RDKit          3D

 21 22  0  0  0  0  0  0  0  0999 V2000
   -0.2201    1.1923    1.2439 C   0  0  0  0  0  0  0  0  0  0  0  0
   -0.1111    0.4696   -0.0767 C   0  0  0  0  0  0  0  0  0  0  0  0
    0.8872    1.1145   -0.9125 C   0  0  0  0  0  0  0  0  0  0  0  0
    2.0609    0.4982   -0.7502 C   0  0  0  0  0  0  0  0  0  0  0  0
    1.8981   -0.6389    0.2434 C   0  0  0  0  0  0  0  0  0  0  0  0
    0.4508   -0.9102    0.0994 C   0  0  0  0  0  0  0  0  0  0  0  0
   -0.5103   -1.8021    0.0526 C   0  0  0  0  0  0  0  0  0  0  0  0
   -1.8307   -1.1050   -0.1636 C   0  0  0  0  0  0  0  0  0  0  0  0
   -1.4676    0.2637   -0.7084 C   0  0  0  0  0  0  0  0  0  0  0  0
    0.7787    1.4109    1.6293 H   0  0  0  0  0  0  0  0  0  0  0  0
   -0.8063    0.6423    1.9937 H   0  0  0  0  0  0  0  0  0  0  0  0
   -0.7319    2.1552    1.0386 H   0  0  0  0  0  0  0  0  0  0  0  0
    0.6803    1.9717   -1.5645 H   0  0  0  0  0  0  0  0  0  0  0  0
    2.9555    0.8030   -1.2702 H   0  0  0  0  0  0  0  0  0  0  0  0
    2.5285   -1.5017   -0.0381 H   0  0  0  0  0  0  0  0  0  0  0  0
    2.0733   -0.3001    1.2721 H   0  0  0  0  0  0  0  0  0  0  0  0
   -0.4688   -2.8778    0.1427 H   0  0  0  0  0  0  0  0  0  0  0  0
   -2.3029   -1.0300    0.8320 H   0  0  0  0  0  0  0  0  0  0  0  0
   -2.4000   -1.6691   -0.9041 H   0  0  0  0  0  0  0  0  0  0  0  0
   -1.3300    0.2549   -1.7879 H   0  0  0  0  0  0  0  0  0  0  0  0
   -2.1338    1.0586   -0.3716 H   0  0  0  0  0  0  0  0  0  0  0  0
  1  2  1  0
  2  3  1  0
  3  4  2  0
  4  5  1  0
  5  6  1  0
  6  7  2  0
  7  8  1  0
  8  9  1  0
  6  2  1  0
  9  2  1  0
  1 10  1  0
  1 11  1  0
  1 12  1  0
  3 13  1  0
  4 14  1  0
  5 15  1  0
  5 16  1  0
  7 17  1  0
  8 18  1  0
  8 19  1  0
  9 20  1  0
  9 21  1  0
M  END
