
     RDKit          3D

 16 17  0  0  0  0  0  0  0  0999 V2000
   -1.1293    1.0482    0.0627 C   0  0  0  0  0  0  0  0  0  0  0  0
   -0.2893   -0.1519   -0.0623 C   0  0  0  0  0  0  0  0  0  0  0  0
   -0.9252   -1.5444    0.0507 C   0  0  0  0  0  0  0  0  0  0  0  0
   -0.2409   -1.0814   -1.1657 C   0  0  0  0  0  0  0  0  0  0  0  0
    1.1495   -1.0886   -1.1232 O   0  0  0  0  0  0  0  0  0  0  0  0
    1.1954   -0.1262   -0.1138 C   0  0  0  0  0  0  0  0  0  0  0  0
    1.8239    1.1047   -0.5979 C   0  0  0  0  0  0  0  0  0  0  0  0
    2.2296    1.2230   -1.7204 O   0  0  0  0  0  0  0  0  0  0  0  0
   -0.8789    1.8917   -0.5842 H   0  0  0  0  0  0  0  0  0  0  0  0
   -1.1268    1.3583    1.1466 H   0  0  0  0  0  0  0  0  0  0  0  0
   -2.1961    0.7584   -0.1378 H   0  0  0  0  0  0  0  0  0  0  0  0
   -2.0314   -1.5917    0.1040 H   0  0  0  0  0  0  0  0  0  0  0  0
   -0.4261   -2.1538    0.8285 H   0  0  0  0  0  0  0  0  0  0  0  0
   -0.7771   -1.0070   -2.1123 H   0  0  0  0  0  0  0  0  0  0  0  0
    1.6894   -0.5881    0.7808 H   0  0  0  0  0  0  0  0  0  0  0  0
    1.9333    1.9487    0.0726 H   0  0  0  0  0  0  0  0  0  0  0  0
  1  2  1  0
  2  3  1  0
  3  4  1  0
  4  5  1  0
  5  6  1  0
  6  7  1  0
  7  8  2  0
  4  2  1  0
  6  2  1  0
  1  9  1  0
  1 10  1  0
  1 11  1  0
  3 12  1  0
  3 13  1  0
  4 14  1  0
  6 15  1  0
  7 16  1  0
M  END
