
     RDKit          3D

 23 24  0  0  0  0  0  0  0  0999 V2000
    2.2533    0.2876   -0.0634 C   0  0  0  0  0  0  0  0  0  0  0  0
    0.7809    0.1383   -0.1246 C   0  0  0  0  0  0  0  0  0  0  0  0
    0.0579    0.7432   -1.2825 C   0  0  0  0  0  0  0  0  0  0  0  0
   -1.0325    1.1245   -0.2751 C   0  0  0  0  0  0  0  0  0  0  0  0
   -1.8623   -0.0605    0.0787 C   0  0  0  0  0  0  0  0  0  0  0  0
   -1.0936   -1.0992    0.8661 C   0  0  0  0  0  0  0  0  0  0  0  0
    0.2827   -1.2126    0.2703 C   0  0  0  0  0  0  0  0  0  0  0  0
    0.2969   -2.1299   -0.7837 O   0  0  0  0  0  0  0  0  0  0  0  0
    0.1102    1.2109    0.7464 C   0  0  0  0  0  0  0  0  0  0  0  0
    2.7960   -0.5085   -0.6118 H   0  0  0  0  0  0  0  0  0  0  0  0
    2.5897    1.3032   -0.3283 H   0  0  0  0  0  0  0  0  0  0  0  0
    2.5625    0.1483    1.0152 H   0  0  0  0  0  0  0  0  0  0  0  0
    0.5791    1.6666   -1.6222 H   0  0  0  0  0  0  0  0  0  0  0  0
   -0.2772    0.0796   -2.0827 H   0  0  0  0  0  0  0  0  0  0  0  0
   -1.5119    2.0770   -0.4368 H   0  0  0  0  0  0  0  0  0  0  0  0
   -2.2715   -0.6036   -0.8194 H   0  0  0  0  0  0  0  0  0  0  0  0
   -2.6892    0.2829    0.7349 H   0  0  0  0  0  0  0  0  0  0  0  0
   -1.0916   -0.9053    1.9523 H   0  0  0  0  0  0  0  0  0  0  0  0
   -1.5779   -2.1123    0.7495 H   0  0  0  0  0  0  0  0  0  0  0  0
    0.9526   -1.5952    1.0748 H   0  0  0  0  0  0  0  0  0  0  0  0
   -0.3988   -1.8734   -1.4451 H   0  0  0  0  0  0  0  0  0  0  0  0
    0.6902    2.1472    0.6334 H   0  0  0  0  0  0  0  0  0  0  0  0
   -0.1456    0.8912    1.7540 H   0  0  0  0  0  0  0  0  0  0  0  0
  1  2  1  0
  2  3  1  0
  3  4  1  0
  4  5  1  0
  5  6  1  0
  6  7  1  0
  7  8  1  0
  4  9  1  0
  7  2  1  0
  9  2  1  0
  1 10  1  0
  1 11  1  0
  1 12  1  0
  3 13  1  0
  3 14  1  0
  4 15  1  0
  5 16  1  0
  5 17  1  0
  6 18  1  0
  6 19  1  0
  7 20  1  0
  8 21  1  0
  9 22  1  0
  9 23  1  0
M  END
