
     RDKit          3D

 21 22  0  0  0  0  0  0  0  0999 V2000
   -0.8104   -1.7400   -0.0655 C   0  0  0  0  0  0  0  0  0  0  0  0
   -0.5898   -0.2769    0.2131 C   0  0  0  0  0  0  0  0  0  0  0  0
   -1.6105    0.4237    0.9750 C   0  0  0  0  0  0  0  0  0  0  0  0
   -1.5591    0.7239   -0.4721 C   0  0  0  0  0  0  0  0  0  0  0  0
   -0.3722    1.5683   -0.8967 C   0  0  0  0  0  0  0  0  0  0  0  0
    0.4792    0.3707   -0.5902 C   0  0  0  0  0  0  0  0  0  0  0  0
    1.7431    0.6256    0.1780 C   0  0  0  0  0  0  0  0  0  0  0  0
    2.2419   -0.6956    0.6537 C   0  0  0  0  0  0  0  0  0  0  0  0
    1.7766   -1.2544    1.6452 O   0  0  0  0  0  0  0  0  0  0  0  0
   -1.1466   -2.2185    0.8743 H   0  0  0  0  0  0  0  0  0  0  0  0
    0.1448   -2.2229   -0.3435 H   0  0  0  0  0  0  0  0  0  0  0  0
   -1.5033   -1.9147   -0.9125 H   0  0  0  0  0  0  0  0  0  0  0  0
   -1.3901    1.2949    1.6396 H   0  0  0  0  0  0  0  0  0  0  0  0
   -2.4840   -0.1538    1.3142 H   0  0  0  0  0  0  0  0  0  0  0  0
   -2.1955    0.2572   -1.2143 H   0  0  0  0  0  0  0  0  0  0  0  0
   -0.2349    2.4353   -0.1924 H   0  0  0  0  0  0  0  0  0  0  0  0
   -0.4017    1.8910   -1.9370 H   0  0  0  0  0  0  0  0  0  0  0  0
    0.7085   -0.1850   -1.5287 H   0  0  0  0  0  0  0  0  0  0  0  0
    2.5349    1.0180   -0.5171 H   0  0  0  0  0  0  0  0  0  0  0  0
    1.6182    1.2901    1.0353 H   0  0  0  0  0  0  0  0  0  0  0  0
    3.0511   -1.2369    0.1415 H   0  0  0  0  0  0  0  0  0  0  0  0
  1  2  1  0
  2  3  1  0
  3  4  1  0
  4  5  1  0
  5  6  1  0
  6  7  1  0
  7  8  1  0
  8  9  2  0
  4  2  1  0
  6  2  1  0
  1 10  1  0
  1 11  1  0
  1 12  1  0
  3 13  1  0
  3 14  1  0
  4 15  1  0
  5 16  1  0
  5 17  1  0
  6 18  1  0
  7 19  1  0
  7 20  1  0
  8 21  1  0
M  END
