
     RDKit          3D

 19 21  0  0  0  0  0  0  0  0999 V2000
   -0.1365    1.7449    0.5734 C   0  0  0  0  0  0  0  0  0  0  0  0
   -0.2610    0.4223    0.0509 C   0  0  0  0  0  0  0  0  0  0  0  0
   -1.6161   -0.1526   -0.3150 C   0  0  0  0  0  0  0  0  0  0  0  0
   -0.8048   -1.4598   -0.2588 C   0  0  0  0  0  0  0  0  0  0  0  0
    0.0143   -1.2983   -1.3457 O   0  0  0  0  0  0  0  0  0  0  0  0
    0.6752   -0.0878   -1.0291 C   0  0  0  0  0  0  0  0  0  0  0  0
    1.8434   -0.4916   -0.1585 C   0  0  0  0  0  0  0  0  0  0  0  0
    1.2594   -1.0763    0.9583 O   0  0  0  0  0  0  0  0  0  0  0  0
   -0.0965   -0.7993    0.9368 C   0  0  0  0  0  0  0  0  0  0  0  0
   -1.1362    2.2730    0.5338 H   0  0  0  0  0  0  0  0  0  0  0  0
    0.2483    1.8855    1.6057 H   0  0  0  0  0  0  0  0  0  0  0  0
    0.5154    2.3789   -0.0999 H   0  0  0  0  0  0  0  0  0  0  0  0
   -1.9280    0.1465   -1.3151 H   0  0  0  0  0  0  0  0  0  0  0  0
   -2.3578   -0.0488    0.4848 H   0  0  0  0  0  0  0  0  0  0  0  0
   -1.3354   -2.3549   -0.0800 H   0  0  0  0  0  0  0  0  0  0  0  0
    0.8702    0.5607   -1.8407 H   0  0  0  0  0  0  0  0  0  0  0  0
    2.3913    0.4272    0.1318 H   0  0  0  0  0  0  0  0  0  0  0  0
    2.5024   -1.2311   -0.6800 H   0  0  0  0  0  0  0  0  0  0  0  0
   -0.6478   -0.8387    1.8471 H   0  0  0  0  0  0  0  0  0  0  0  0
  1  2  1  0
  2  3  1  0
  3  4  1  0
  4  5  1  0
  5  6  1  0
  6  7  1  0
  7  8  1  0
  8  9  1  0
  6  2  1  0
  9  2  1  0
  9  4  1  0
  1 10  1  0
  1 11  1  0
  1 12  1  0
  3 13  1  0
  3 14  1  0
  4 15  1  0
  6 16  1  0
  7 17  1  0
  7 18  1  0
  9 19  1  0
M  END
