
     RDKit          3D

 21 22  0  0  0  0  0  0  0  0999 V2000
   -2.3819    0.4407   -0.1664 C   0  0  0  0  0  0  0  0  0  0  0  0
   -0.9167    0.2343   -0.1241 C   0  0  0  0  0  0  0  0  0  0  0  0
   -0.5402   -1.2247    0.1727 C   0  0  0  0  0  0  0  0  0  0  0  0
    0.6862   -0.6209    0.8740 C   0  0  0  0  0  0  0  0  0  0  0  0
   -0.2066    0.5808    1.1581 C   0  0  0  0  0  0  0  0  0  0  0  0
    1.6723   -0.3549   -0.2240 C   0  0  0  0  0  0  0  0  0  0  0  0
    2.8397    0.2520    0.2464 O   0  0  0  0  0  0  0  0  0  0  0  0
    1.0419    0.3688   -1.3573 C   0  0  0  0  0  0  0  0  0  0  0  0
   -0.2505    0.7520   -1.1865 O   0  0  0  0  0  0  0  0  0  0  0  0
   -2.8889   -0.5502   -0.2622 H   0  0  0  0  0  0  0  0  0  0  0  0
   -2.6569    0.9944   -1.1105 H   0  0  0  0  0  0  0  0  0  0  0  0
   -2.8147    1.0051    0.6621 H   0  0  0  0  0  0  0  0  0  0  0  0
   -1.1963   -1.6457    0.9448 H   0  0  0  0  0  0  0  0  0  0  0  0
   -0.2978   -1.8255   -0.6959 H   0  0  0  0  0  0  0  0  0  0  0  0
    1.0097   -1.1956    1.7278 H   0  0  0  0  0  0  0  0  0  0  0  0
    0.2935    1.5456    1.2078 H   0  0  0  0  0  0  0  0  0  0  0  0
   -0.7875    0.3532    2.0957 H   0  0  0  0  0  0  0  0  0  0  0  0
    2.0011   -1.3647   -0.6059 H   0  0  0  0  0  0  0  0  0  0  0  0
    2.6696    1.1797    0.5649 H   0  0  0  0  0  0  0  0  0  0  0  0
    1.0848   -0.2229   -2.3201 H   0  0  0  0  0  0  0  0  0  0  0  0
    1.6390    1.2982   -1.6014 H   0  0  0  0  0  0  0  0  0  0  0  0
  1  2  1  0
  2  3  1  0
  3  4  1  0
  4  5  1  0
  4  6  1  0
  6  7  1  0
  6  8  1  0
  8  9  1  0
  5  2  1  0
  9  2  1  0
  1 10  1  0
  1 11  1  0
  1 12  1  0
  3 13  1  0
  3 14  1  0
  4 15  1  0
  5 16  1  0
  5 17  1  0
  6 18  1  0
  7 19  1  0
  8 20  1  0
  8 21  1  0
M  END
