
     RDKit          3D

 17 18  0  0  0  0  0  0  0  0999 V2000
   -1.7617   -0.3378   -0.3091 C   0  0  0  0  0  0  0  0  0  0  0  0
   -0.4379    0.0836    0.2619 C   0  0  0  0  0  0  0  0  0  0  0  0
    0.4707   -1.0038    0.7110 C   0  0  0  0  0  0  0  0  0  0  0  0
    1.6758   -0.8196   -0.1354 C   0  0  0  0  0  0  0  0  0  0  0  0
    1.5837    0.2422   -0.9191 C   0  0  0  0  0  0  0  0  0  0  0  0
    0.3114    0.9354   -0.7253 C   0  0  0  0  0  0  0  0  0  0  0  0
    0.2989    1.9846    0.2272 O   0  0  0  0  0  0  0  0  0  0  0  0
   -0.4298    1.2434    1.1427 C   0  0  0  0  0  0  0  0  0  0  0  0
   -0.8776    1.5240    2.2748 O   0  0  0  0  0  0  0  0  0  0  0  0
   -2.3511    0.5746   -0.4971 H   0  0  0  0  0  0  0  0  0  0  0  0
   -2.2964   -1.0771    0.3066 H   0  0  0  0  0  0  0  0  0  0  0  0
   -1.5618   -0.7988   -1.3005 H   0  0  0  0  0  0  0  0  0  0  0  0
    0.0148   -2.0141    0.5382 H   0  0  0  0  0  0  0  0  0  0  0  0
    0.7416   -0.8694    1.7902 H   0  0  0  0  0  0  0  0  0  0  0  0
    2.5222   -1.4944   -0.0959 H   0  0  0  0  0  0  0  0  0  0  0  0
    2.3474    0.5914   -1.6388 H   0  0  0  0  0  0  0  0  0  0  0  0
   -0.2503    1.2358   -1.6315 H   0  0  0  0  0  0  0  0  0  0  0  0
  1  2  1  0
  2  3  1  0
  3  4  1  0
  4  5  2  0
  5  6  1  0
  6  7  1  0
  7  8  1  0
  8  9  2  0
  6  2  1  0
  8  2  1  0
  1 10  1  0
  1 11  1  0
  1 12  1  0
  3 13  1  0
  3 14  1  0
  4 15  1  0
  5 16  1  0
  6 17  1  0
M  END
