
     RDKit          3D

 21 23  0  0  0  0  0  0  0  0999 V2000
   -2.1689    0.7140    0.3244 C   0  0  0  0  0  0  0  0  0  0  0  0
   -1.3378   -0.2716   -0.4834 C   0  0  0  0  0  0  0  0  0  0  0  0
   -0.1647    0.4450   -1.0985 C   0  0  0  0  0  0  0  0  0  0  0  0
    0.2714    0.4747    0.3824 C   0  0  0  0  0  0  0  0  0  0  0  0
    1.7435    0.7478    0.4354 C   0  0  0  0  0  0  0  0  0  0  0  0
    2.7561   -0.0884   -0.1635 C   0  0  0  0  0  0  0  0  0  0  0  0
    2.5544    0.0338    1.3162 O   0  0  0  0  0  0  0  0  0  0  0  0
   -0.1228   -0.9704    0.2605 C   0  0  0  0  0  0  0  0  0  0  0  0
   -1.3862   -1.5823    0.0903 C   0  0  0  0  0  0  0  0  0  0  0  0
   -3.2299    0.5367   -0.0383 H   0  0  0  0  0  0  0  0  0  0  0  0
   -2.2164    0.4616    1.3996 H   0  0  0  0  0  0  0  0  0  0  0  0
   -1.9803    1.7662    0.1182 H   0  0  0  0  0  0  0  0  0  0  0  0
    0.5386   -0.1661   -1.6651 H   0  0  0  0  0  0  0  0  0  0  0  0
   -0.4214    1.4286   -1.4805 H   0  0  0  0  0  0  0  0  0  0  0  0
   -0.3134    1.0737    1.0508 H   0  0  0  0  0  0  0  0  0  0  0  0
    1.9711    1.8513    0.4709 H   0  0  0  0  0  0  0  0  0  0  0  0
    3.7243    0.3620   -0.4711 H   0  0  0  0  0  0  0  0  0  0  0  0
    2.6665   -1.1434   -0.4045 H   0  0  0  0  0  0  0  0  0  0  0  0
    0.6474   -1.4141   -0.4572 H   0  0  0  0  0  0  0  0  0  0  0  0
   -1.5922   -2.4192   -0.6467 H   0  0  0  0  0  0  0  0  0  0  0  0
   -1.9394   -1.8399    1.0450 H   0  0  0  0  0  0  0  0  0  0  0  0
  1  2  1  0
  2  3  1  0
  3  4  1  0
  4  5  1  0
  5  6  1  0
  6  7  1  0
  4  8  1  0
  8  9  1  0
  8  2  1  0
  9  2  1  0
  7  5  1  0
  1 10  1  0
  1 11  1  0
  1 12  1  0
  3 13  1  0
  3 14  1  0
  4 15  1  0
  5 16  1  0
  6 17  1  0
  6 18  1  0
  8 19  1  0
  9 20  1  0
  9 21  1  0
M  END
