
     RDKit          3D

 21 23  0  0  0  0  0  0  0  0999 V2000
    2.2617    0.2002    0.4478 C   0  0  0  0  0  0  0  0  0  0  0  0
    0.8087    0.0246    0.0632 C   0  0  0  0  0  0  0  0  0  0  0  0
    0.3624    0.9295   -1.0473 C   0  0  0  0  0  0  0  0  0  0  0  0
   -1.0945    1.1864   -0.8993 C   0  0  0  0  0  0  0  0  0  0  0  0
   -1.4851    0.4462    0.3761 C   0  0  0  0  0  0  0  0  0  0  0  0
   -2.0860   -0.7222    0.0101 O   0  0  0  0  0  0  0  0  0  0  0  0
   -1.1424   -1.7205   -0.0687 C   0  0  0  0  0  0  0  0  0  0  0  0
    0.1567   -1.2272    0.4108 C   0  0  0  0  0  0  0  0  0  0  0  0
   -0.2236    0.0955    1.0764 C   0  0  0  0  0  0  0  0  0  0  0  0
    2.9236   -0.4690   -0.1631 H   0  0  0  0  0  0  0  0  0  0  0  0
    2.6103    1.2455    0.2849 H   0  0  0  0  0  0  0  0  0  0  0  0
    2.4442   -0.1087    1.5086 H   0  0  0  0  0  0  0  0  0  0  0  0
    0.8920    1.9119   -0.8874 H   0  0  0  0  0  0  0  0  0  0  0  0
    0.6755    0.5907   -2.0468 H   0  0  0  0  0  0  0  0  0  0  0  0
   -1.6394    0.7593   -1.7846 H   0  0  0  0  0  0  0  0  0  0  0  0
   -1.3768    2.2533   -0.8646 H   0  0  0  0  0  0  0  0  0  0  0  0
   -2.1672    1.0797    0.9544 H   0  0  0  0  0  0  0  0  0  0  0  0
   -1.4923   -2.5490    0.5840 H   0  0  0  0  0  0  0  0  0  0  0  0
   -1.1063   -2.1703   -1.1035 H   0  0  0  0  0  0  0  0  0  0  0  0
    0.7610   -1.9532    0.9991 H   0  0  0  0  0  0  0  0  0  0  0  0
   -0.0823    0.1972    2.1498 H   0  0  0  0  0  0  0  0  0  0  0  0
  1  2  1  0
  2  3  1  0
  3  4  1  0
  4  5  1  0
  5  6  1  0
  6  7  1  0
  7  8  1  0
  8  9  1  0
  8  2  1  0
  9  2  1  0
  9  5  1  0
  1 10  1  0
  1 11  1  0
  1 12  1  0
  3 13  1  0
  3 14  1  0
  4 15  1  0
  4 16  1  0
  5 17  1  0
  7 18  1  0
  7 19  1  0
  8 20  1  0
  9 21  1  0
M  END
