
     RDKit          3D

 21 24  0  0  0  0  0  0  0  0999 V2000
    2.1793    0.1425   -0.3707 C   0  0  0  0  0  0  0  0  0  0  0  0
    0.7636    0.0548   -0.1013 C   0  0  0  0  0  0  0  0  0  0  0  0
    0.3025   -1.2154    0.6198 C   0  0  0  0  0  0  0  0  0  0  0  0
   -1.1925   -0.8428    0.6408 C   0  0  0  0  0  0  0  0  0  0  0  0
   -1.2615    0.6408    0.7693 C   0  0  0  0  0  0  0  0  0  0  0  0
    0.2068    1.0765    0.8912 C   0  0  0  0  0  0  0  0  0  0  0  0
   -1.4345    0.7270   -0.7175 C   0  0  0  0  0  0  0  0  0  0  0  0
   -1.4067   -0.6956   -0.8237 C   0  0  0  0  0  0  0  0  0  0  0  0
   -0.1883    0.1284   -1.2385 C   0  0  0  0  0  0  0  0  0  0  0  0
    2.3465    0.8136   -1.2611 H   0  0  0  0  0  0  0  0  0  0  0  0
    2.5760   -0.8467   -0.6870 H   0  0  0  0  0  0  0  0  0  0  0  0
    2.7320    0.5607    0.4924 H   0  0  0  0  0  0  0  0  0  0  0  0
    0.7012   -1.2863    1.6352 H   0  0  0  0  0  0  0  0  0  0  0  0
    0.4075   -2.1049    0.0002 H   0  0  0  0  0  0  0  0  0  0  0  0
   -1.8301   -1.4682    1.2254 H   0  0  0  0  0  0  0  0  0  0  0  0
   -1.9636    1.1036    1.4186 H   0  0  0  0  0  0  0  0  0  0  0  0
    0.5277    0.8733    1.9156 H   0  0  0  0  0  0  0  0  0  0  0  0
    0.3441    2.1083    0.5521 H   0  0  0  0  0  0  0  0  0  0  0  0
   -2.0387    1.4580   -1.2116 H   0  0  0  0  0  0  0  0  0  0  0  0
   -1.8842   -1.3801   -1.4703 H   0  0  0  0  0  0  0  0  0  0  0  0
    0.1128    0.1524   -2.2791 H   0  0  0  0  0  0  0  0  0  0  0  0
  1  2  1  0
  2  3  1  0
  3  4  1  0
  4  5  1  0
  5  6  1  0
  5  7  1  0
  7  8  1  0
  8  9  1  0
  6  2  1  0
  9  7  1  0
  9  2  1  0
  8  4  1  0
  1 10  1  0
  1 11  1  0
  1 12  1  0
  3 13  1  0
  3 14  1  0
  4 15  1  0
  5 16  1  0
  6 17  1  0
  6 18  1  0
  7 19  1  0
  8 20  1  0
  9 21  1  0
M  END
