
     RDKit          3D

 21 23  0  0  0  0  0  0  0  0999 V2000
    2.1142    0.5536   -0.1079 C   0  0  0  0  0  0  0  0  0  0  0  0
    0.7104    0.1767    0.0780 C   0  0  0  0  0  0  0  0  0  0  0  0
   -0.2375    1.2960    0.3895 C   0  0  0  0  0  0  0  0  0  0  0  0
   -1.6175    0.7647   -0.0335 C   0  0  0  0  0  0  0  0  0  0  0  0
   -1.3262   -0.6254   -0.5381 C   0  0  0  0  0  0  0  0  0  0  0  0
    0.0493   -0.3953   -1.1879 C   0  0  0  0  0  0  0  0  0  0  0  0
   -0.9338   -1.4680    0.6408 C   0  0  0  0  0  0  0  0  0  0  0  0
   -0.6885   -0.8776    1.8712 O   0  0  0  0  0  0  0  0  0  0  0  0
    0.4501   -0.9409    1.0448 C   0  0  0  0  0  0  0  0  0  0  0  0
    2.2274    1.0654   -1.0974 H   0  0  0  0  0  0  0  0  0  0  0  0
    2.7550   -0.3400   -0.0634 H   0  0  0  0  0  0  0  0  0  0  0  0
    2.4088    1.3000    0.6497 H   0  0  0  0  0  0  0  0  0  0  0  0
    0.0513    2.1569   -0.2758 H   0  0  0  0  0  0  0  0  0  0  0  0
   -0.2289    1.5531    1.4515 H   0  0  0  0  0  0  0  0  0  0  0  0
   -2.0000    1.3533   -0.8657 H   0  0  0  0  0  0  0  0  0  0  0  0
   -2.2647    0.7483    0.8646 H   0  0  0  0  0  0  0  0  0  0  0  0
   -2.0515   -1.0453   -1.2064 H   0  0  0  0  0  0  0  0  0  0  0  0
   -0.0019    0.3440   -1.9882 H   0  0  0  0  0  0  0  0  0  0  0  0
    0.4515   -1.3696   -1.4588 H   0  0  0  0  0  0  0  0  0  0  0  0
   -1.0767   -2.5547    0.5622 H   0  0  0  0  0  0  0  0  0  0  0  0
    1.2095   -1.6950    1.2708 H   0  0  0  0  0  0  0  0  0  0  0  0
  1  2  1  0
  2  3  1  0
  3  4  1  0
  4  5  1  0
  5  6  1  0
  5  7  1  0
  7  8  1  0
  8  9  1  0
  6  2  1  0
  9  7  1  0
  9  2  1  0
  1 10  1  0
  1 11  1  0
  1 12  1  0
  3 13  1  0
  3 14  1  0
  4 15  1  0
  4 16  1  0
  5 17  1  0
  6 18  1  0
  6 19  1  0
  7 20  1  0
  9 21  1  0
M  END
