
     RDKit          3D

 23 25  0  0  0  0  0  0  0  0999 V2000
   -0.3457    1.9768   -0.5219 C   0  0  0  0  0  0  0  0  0  0  0  0
   -0.4461    0.5775   -0.2065 C   0  0  0  0  0  0  0  0  0  0  0  0
   -1.0489   -0.3906   -1.2030 C   0  0  0  0  0  0  0  0  0  0  0  0
   -0.9974   -1.6707   -0.3464 C   0  0  0  0  0  0  0  0  0  0  0  0
   -0.3334   -1.1090    0.8871 C   0  0  0  0  0  0  0  0  0  0  0  0
   -1.1767    0.1651    1.0824 C   0  0  0  0  0  0  0  0  0  0  0  0
    0.6915   -0.1976    0.3456 C   0  0  0  0  0  0  0  0  0  0  0  0
    1.9099   -0.5371   -0.3260 C   0  0  0  0  0  0  0  0  0  0  0  0
    1.8595    0.3134    0.9870 C   0  0  0  0  0  0  0  0  0  0  0  0
   -1.1220    2.2659   -1.2804 H   0  0  0  0  0  0  0  0  0  0  0  0
   -0.4999    2.6535    0.3374 H   0  0  0  0  0  0  0  0  0  0  0  0
    0.6330    2.1923   -1.0439 H   0  0  0  0  0  0  0  0  0  0  0  0
   -2.0718   -0.1401   -1.4952 H   0  0  0  0  0  0  0  0  0  0  0  0
   -0.3612   -0.4989   -2.0782 H   0  0  0  0  0  0  0  0  0  0  0  0
   -0.4360   -2.4647   -0.8352 H   0  0  0  0  0  0  0  0  0  0  0  0
   -2.0544   -1.9491   -0.1212 H   0  0  0  0  0  0  0  0  0  0  0  0
   -0.1750   -1.7223    1.7333 H   0  0  0  0  0  0  0  0  0  0  0  0
   -0.8764    0.7428    1.9652 H   0  0  0  0  0  0  0  0  0  0  0  0
   -2.2375    0.0331    0.8828 H   0  0  0  0  0  0  0  0  0  0  0  0
    2.1801    0.0490   -1.2454 H   0  0  0  0  0  0  0  0  0  0  0  0
    2.4335   -1.5047   -0.2437 H   0  0  0  0  0  0  0  0  0  0  0  0
    2.3532   -0.1658    1.8504 H   0  0  0  0  0  0  0  0  0  0  0  0
    2.1217    1.3812    0.8757 H   0  0  0  0  0  0  0  0  0  0  0  0
  1  2  1  0
  2  3  1  0
  3  4  1  0
  4  5  1  0
  5  6  1  0
  5  7  1  0
  7  8  1  0
  8  9  1  0
  6  2  1  0
  9  7  1  0
  7  2  1  0
  1 10  1  0
  1 11  1  0
  1 12  1  0
  3 13  1  0
  3 14  1  0
  4 15  1  0
  4 16  1  0
  5 17  1  0
  6 18  1  0
  6 19  1  0
  8 20  1  0
  8 21  1  0
  9 22  1  0
  9 23  1  0
M  END
