
     RDKit          3D

 17 18  0  0  0  0  0  0  0  0999 V2000
    1.4772    0.3309   -0.3573 C   0  0  0  0  0  0  0  0  0  0  0  0
   -0.0535    0.4655   -0.4651 C   0  0  0  0  0  0  0  0  0  0  0  0
   -0.5493   -0.5388   -1.2346 O   0  0  0  0  0  0  0  0  0  0  0  0
   -0.1574   -1.6818   -0.4845 C   0  0  0  0  0  0  0  0  0  0  0  0
   -0.0458   -1.1724    0.9452 C   0  0  0  0  0  0  0  0  0  0  0  0
    0.5723   -1.6917    1.8495 O   0  0  0  0  0  0  0  0  0  0  0  0
   -0.8647    0.0314    0.8297 C   0  0  0  0  0  0  0  0  0  0  0  0
   -0.6192    1.3655    0.4548 C   0  0  0  0  0  0  0  0  0  0  0  0
   -1.6822    2.1724   -0.0283 O   0  0  0  0  0  0  0  0  0  0  0  0
    1.7701   -0.1094    0.6172 H   0  0  0  0  0  0  0  0  0  0  0  0
    1.9193   -0.1349   -1.2300 H   0  0  0  0  0  0  0  0  0  0  0  0
    1.8779    1.3875   -0.3225 H   0  0  0  0  0  0  0  0  0  0  0  0
   -1.0152   -2.3931   -0.5034 H   0  0  0  0  0  0  0  0  0  0  0  0
    0.7792   -2.1022   -0.8359 H   0  0  0  0  0  0  0  0  0  0  0  0
   -1.9276   -0.3183    0.6269 H   0  0  0  0  0  0  0  0  0  0  0  0
    0.0241    1.9927    1.1119 H   0  0  0  0  0  0  0  0  0  0  0  0
   -1.5052    2.3968   -0.9737 H   0  0  0  0  0  0  0  0  0  0  0  0
  1  2  1  0
  2  3  1  0
  3  4  1  0
  4  5  1  0
  5  6  2  0
  5  7  1  0
  7  8  1  0
  8  9  1  0
  7  2  1  0
  8  2  1  0
  1 10  1  0
  1 11  1  0
  1 12  1  0
  4 13  1  0
  4 14  1  0
  7 15  1  0
  8 16  1  0
  9 17  1  0
M  END
