
     RDKit          3D

 21 22  0  0  0  0  0  0  0  0999 V2000
   -1.3685   -1.5156    0.1897 C   0  0  0  0  0  0  0  0  0  0  0  0
   -0.2541   -0.7422    0.0701 C   0  0  0  0  0  0  0  0  0  0  0  0
    1.0723   -0.9124    0.7786 C   0  0  0  0  0  0  0  0  0  0  0  0
    1.2879    0.2903   -0.1245 C   0  0  0  0  0  0  0  0  0  0  0  0
    2.3315    0.9683   -0.2394 O   0  0  0  0  0  0  0  0  0  0  0  0
    0.5970   -0.5440   -1.1730 C   0  0  0  0  0  0  0  0  0  0  0  0
   -0.0832    0.7266    0.3010 C   0  0  0  0  0  0  0  0  0  0  0  0
   -0.8175    1.6480   -0.6034 C   0  0  0  0  0  0  0  0  0  0  0  0
   -0.1047    1.1511    1.6143 O   0  0  0  0  0  0  0  0  0  0  0  0
   -1.8699   -1.7989   -0.7841 H   0  0  0  0  0  0  0  0  0  0  0  0
   -2.2135   -1.0627    0.7871 H   0  0  0  0  0  0  0  0  0  0  0  0
   -1.2120   -2.5178    0.6923 H   0  0  0  0  0  0  0  0  0  0  0  0
    1.5902   -1.7960    0.4068 H   0  0  0  0  0  0  0  0  0  0  0  0
    1.0781   -0.7116    1.8476 H   0  0  0  0  0  0  0  0  0  0  0  0
    2.3412    1.9425   -0.1043 H   0  0  0  0  0  0  0  0  0  0  0  0
    0.1299   -0.0166   -1.9999 H   0  0  0  0  0  0  0  0  0  0  0  0
    1.1587   -1.4425   -1.4789 H   0  0  0  0  0  0  0  0  0  0  0  0
   -1.5635    2.2305    0.0139 H   0  0  0  0  0  0  0  0  0  0  0  0
   -1.4263    1.1493   -1.3831 H   0  0  0  0  0  0  0  0  0  0  0  0
   -0.1575    2.4499   -1.0437 H   0  0  0  0  0  0  0  0  0  0  0  0
   -0.5162    0.5039    2.2330 H   0  0  0  0  0  0  0  0  0  0  0  0
  1  2  1  0
  2  3  1  0
  3  4  1  0
  4  5  1  0
  4  6  1  0
  4  7  1  0
  7  8  1  0
  7  9  1  0
  6  2  1  0
  7  2  1  0
  1 10  1  0
  1 11  1  0
  1 12  1  0
  3 13  1  0
  3 14  1  0
  5 15  1  0
  6 16  1  0
  6 17  1  0
  8 18  1  0
  8 19  1  0
  8 20  1  0
  9 21  1  0
M  END
