
     RDKit          3D

 19 20  0  0  0  0  0  0  0  0999 V2000
    1.3311   -0.6877   -0.6800 C   0  0  0  0  0  0  0  0  0  0  0  0
    0.7543    0.2220    0.3799 C   0  0  0  0  0  0  0  0  0  0  0  0
   -0.1384   -0.5348    1.2685 C   0  0  0  0  0  0  0  0  0  0  0  0
   -1.1669   -0.9789    0.2307 C   0  0  0  0  0  0  0  0  0  0  0  0
   -1.1608    0.1670   -0.7930 C   0  0  0  0  0  0  0  0  0  0  0  0
   -0.4196    1.1940   -0.0482 C   0  0  0  0  0  0  0  0  0  0  0  0
    0.9163    1.5977    0.0666 C   0  0  0  0  0  0  0  0  0  0  0  0
    1.2023   -0.3208   -1.7069 H   0  0  0  0  0  0  0  0  0  0  0  0
    2.4541   -0.6342   -0.5134 H   0  0  0  0  0  0  0  0  0  0  0  0
    1.1066   -1.7621   -0.5518 H   0  0  0  0  0  0  0  0  0  0  0  0
    0.3067   -1.4322    1.7111 H   0  0  0  0  0  0  0  0  0  0  0  0
   -0.6893    0.0878    2.0183 H   0  0  0  0  0  0  0  0  0  0  0  0
   -2.1481   -1.0834    0.7285 H   0  0  0  0  0  0  0  0  0  0  0  0
   -0.9025   -1.8954   -0.2875 H   0  0  0  0  0  0  0  0  0  0  0  0
   -2.2453    0.4404   -0.9167 H   0  0  0  0  0  0  0  0  0  0  0  0
   -0.8158   -0.1295   -1.7695 H   0  0  0  0  0  0  0  0  0  0  0  0
   -1.0762    1.5597    0.8062 H   0  0  0  0  0  0  0  0  0  0  0  0
    1.2552    2.2581    0.9162 H   0  0  0  0  0  0  0  0  0  0  0  0
    1.4364    1.9322   -0.8591 H   0  0  0  0  0  0  0  0  0  0  0  0
  1  2  1  0
  2  3  1  0
  3  4  1  0
  4  5  1  0
  5  6  1  0
  6  7  1  0
  6  2  1  0
  7  2  1  0
  1  8  1  0
  1  9  1  0
  1 10  1  0
  3 11  1  0
  3 12  1  0
  4 13  1  0
  4 14  1  0
  5 15  1  0
  5 16  1  0
  6 17  1  0
  7 18  1  0
  7 19  1  0
M  END
