
     RDKit          3D

 17 19  0  0  0  0  0  0  0  0999 V2000
    1.8709    0.4640    0.2170 C   0  0  0  0  0  0  0  0  0  0  0  0
    0.7538   -0.1430   -0.3023 C   0  0  0  0  0  0  0  0  0  0  0  0
    0.7366   -1.0164   -1.4098 O   0  0  0  0  0  0  0  0  0  0  0  0
   -0.6105   -0.9119   -1.1200 C   0  0  0  0  0  0  0  0  0  0  0  0
   -0.2267   -1.0407    0.3277 C   0  0  0  0  0  0  0  0  0  0  0  0
   -1.1636   -0.1466    1.1175 C   0  0  0  0  0  0  0  0  0  0  0  0
   -1.3410    0.9214    0.0989 C   0  0  0  0  0  0  0  0  0  0  0  0
   -2.0719    1.8622    0.1460 O   0  0  0  0  0  0  0  0  0  0  0  0
   -0.4139    0.5463   -0.9644 C   0  0  0  0  0  0  0  0  0  0  0  0
    2.8091    0.3452   -0.4023 H   0  0  0  0  0  0  0  0  0  0  0  0
    2.1858    0.1010    1.2384 H   0  0  0  0  0  0  0  0  0  0  0  0
    1.7856    1.5808    0.3498 H   0  0  0  0  0  0  0  0  0  0  0  0
   -1.3699   -1.4005   -1.5775 H   0  0  0  0  0  0  0  0  0  0  0  0
    0.0365   -1.9946    0.7246 H   0  0  0  0  0  0  0  0  0  0  0  0
   -2.0827   -0.6723    1.3695 H   0  0  0  0  0  0  0  0  0  0  0  0
   -0.6600    0.3250    1.9866 H   0  0  0  0  0  0  0  0  0  0  0  0
   -0.2382    1.1800   -1.7997 H   0  0  0  0  0  0  0  0  0  0  0  0
  1  2  1  0
  2  3  1  0
  3  4  1  0
  4  5  1  0
  5  6  1  0
  6  7  1  0
  7  8  2  0
  7  9  1  0
  5  2  1  0
  9  2  1  0
  9  4  1  0
  1 10  1  0
  1 11  1  0
  1 12  1  0
  4 13  1  0
  5 14  1  0
  6 15  1  0
  6 16  1  0
  9 17  1  0
M  END
