
     RDKit          3D

 17 19  0  0  0  0  0  0  0  0999 V2000
   -1.2752   -1.5396   -0.1088 C   0  0  0  0  0  0  0  0  0  0  0  0
   -0.6455   -0.2321    0.3361 C   0  0  0  0  0  0  0  0  0  0  0  0
   -1.4650    0.4581    1.2034 O   0  0  0  0  0  0  0  0  0  0  0  0
   -1.2723    1.0594   -0.0338 C   0  0  0  0  0  0  0  0  0  0  0  0
   -0.1701    2.0513   -0.0212 C   0  0  0  0  0  0  0  0  0  0  0  0
    1.0002    1.4620    0.1062 C   0  0  0  0  0  0  0  0  0  0  0  0
    0.7974   -0.0009    0.1917 C   0  0  0  0  0  0  0  0  0  0  0  0
    1.8587   -0.8718    0.1869 C   0  0  0  0  0  0  0  0  0  0  0  0
    1.2419   -0.5758   -1.1308 O   0  0  0  0  0  0  0  0  0  0  0  0
   -1.3450   -2.1728    0.8113 H   0  0  0  0  0  0  0  0  0  0  0  0
   -2.3261   -1.3693   -0.4268 H   0  0  0  0  0  0  0  0  0  0  0  0
   -0.6897   -2.0295   -0.8972 H   0  0  0  0  0  0  0  0  0  0  0  0
   -2.0780    1.1184   -0.7673 H   0  0  0  0  0  0  0  0  0  0  0  0
   -0.2936    3.1205   -0.1045 H   0  0  0  0  0  0  0  0  0  0  0  0
    1.9839    1.9873    0.1433 H   0  0  0  0  0  0  0  0  0  0  0  0
    2.9033   -0.4989    0.1697 H   0  0  0  0  0  0  0  0  0  0  0  0
    1.7752   -1.9663    0.3418 H   0  0  0  0  0  0  0  0  0  0  0  0
  1  2  1  0
  2  3  1  0
  3  4  1  0
  4  5  1  0
  5  6  2  0
  6  7  1  0
  7  8  1  0
  8  9  1  0
  4  2  1  0
  9  7  1  0
  7  2  1  0
  1 10  1  0
  1 11  1  0
  1 12  1  0
  4 13  1  0
  5 14  1  0
  6 15  1  0
  8 16  1  0
  8 17  1  0
M  END
