
     RDKit          3D

 19 20  0  0  0  0  0  0  0  0999 V2000
   -1.7055   -0.6265    0.8902 C   0  0  0  0  0  0  0  0  0  0  0  0
   -0.5988   -0.2374   -0.0525 C   0  0  0  0  0  0  0  0  0  0  0  0
   -0.1915   -1.1878   -1.1006 C   0  0  0  0  0  0  0  0  0  0  0  0
    1.0971   -1.0862   -1.3771 C   0  0  0  0  0  0  0  0  0  0  0  0
    1.7562   -0.0485   -0.5547 C   0  0  0  0  0  0  0  0  0  0  0  0
    0.6549    0.3673    0.3989 C   0  0  0  0  0  0  0  0  0  0  0  0
    0.9662    0.5447    1.7317 O   0  0  0  0  0  0  0  0  0  0  0  0
   -0.3991    1.2251   -0.2491 C   0  0  0  0  0  0  0  0  0  0  0  0
   -1.0264    2.1058    0.5958 O   0  0  0  0  0  0  0  0  0  0  0  0
   -1.4308   -1.4079    1.6032 H   0  0  0  0  0  0  0  0  0  0  0  0
   -2.5519   -1.0316    0.2624 H   0  0  0  0  0  0  0  0  0  0  0  0
   -2.1177    0.2466    1.4139 H   0  0  0  0  0  0  0  0  0  0  0  0
   -0.8705   -1.8954   -1.5945 H   0  0  0  0  0  0  0  0  0  0  0  0
    1.6433   -1.6791   -2.1163 H   0  0  0  0  0  0  0  0  0  0  0  0
    2.0231    0.8562   -1.1380 H   0  0  0  0  0  0  0  0  0  0  0  0
    2.6476   -0.4227   -0.0511 H   0  0  0  0  0  0  0  0  0  0  0  0
    1.1131   -0.2974    2.2294 H   0  0  0  0  0  0  0  0  0  0  0  0
   -0.2725    1.5453   -1.3123 H   0  0  0  0  0  0  0  0  0  0  0  0
   -0.7369    3.0297    0.4206 H   0  0  0  0  0  0  0  0  0  0  0  0
  1  2  1  0
  2  3  1  0
  3  4  2  0
  4  5  1  0
  5  6  1  0
  6  7  1  0
  6  8  1  0
  8  9  1  0
  6  2  1  0
  8  2  1  0
  1 10  1  0
  1 11  1  0
  1 12  1  0
  3 13  1  0
  4 14  1  0
  5 15  1  0
  5 16  1  0
  7 17  1  0
  8 18  1  0
  9 19  1  0
M  END
