
     RDKit          3D

 16 18  0  0  0  0  0  0  0  0999 V2000
   -1.6803    0.5978   -0.3069 C   0  0  0  0  0  0  0  0  0  0  0  0
   -0.6917   -0.0923    0.5673 C   0  0  0  0  0  0  0  0  0  0  0  0
   -1.1287   -0.9795    1.5311 O   0  0  0  0  0  0  0  0  0  0  0  0
   -0.5405   -1.6174    0.4610 C   0  0  0  0  0  0  0  0  0  0  0  0
    0.9481   -1.3444    0.1975 C   0  0  0  0  0  0  0  0  0  0  0  0
    1.5736   -0.6552    1.2356 O   0  0  0  0  0  0  0  0  0  0  0  0
    0.7680   -0.0257    0.1982 C   0  0  0  0  0  0  0  0  0  0  0  0
    1.3926    1.1794   -0.3445 C   0  0  0  0  0  0  0  0  0  0  0  0
   -2.5152    0.9575    0.3396 H   0  0  0  0  0  0  0  0  0  0  0  0
   -1.1998    1.5232   -0.7247 H   0  0  0  0  0  0  0  0  0  0  0  0
   -2.0181    0.0177   -1.1764 H   0  0  0  0  0  0  0  0  0  0  0  0
   -1.1199   -2.1541   -0.2870 H   0  0  0  0  0  0  0  0  0  0  0  0
    1.5494   -2.1046   -0.2945 H   0  0  0  0  0  0  0  0  0  0  0  0
    1.2844    1.3367   -1.4441 H   0  0  0  0  0  0  0  0  0  0  0  0
    2.4708    1.2771   -0.0810 H   0  0  0  0  0  0  0  0  0  0  0  0
    0.9075    2.0838    0.1288 H   0  0  0  0  0  0  0  0  0  0  0  0
  1  2  1  0
  2  3  1  0
  3  4  1  0
  4  5  1  0
  5  6  1  0
  6  7  1  0
  7  8  1  0
  4  2  1  0
  7  5  1  0
  7  2  1  0
  1  9  1  0
  1 10  1  0
  1 11  1  0
  4 12  1  0
  5 13  1  0
  8 14  1  0
  8 15  1  0
  8 16  1  0
M  END
