
     RDKit          3D

 21 23  0  0  0  0  0  0  0  0999 V2000
    2.0373   -0.1147   -0.6495 C   0  0  0  0  0  0  0  0  0  0  0  0
    0.8651   -0.0803    0.2575 C   0  0  0  0  0  0  0  0  0  0  0  0
    0.4008   -1.2216    1.0526 C   0  0  0  0  0  0  0  0  0  0  0  0
   -0.4466   -0.6024   -0.0461 C   0  0  0  0  0  0  0  0  0  0  0  0
   -0.7752   -1.4927   -1.1970 C   0  0  0  0  0  0  0  0  0  0  0  0
   -1.1003    0.7088    0.1624 C   0  0  0  0  0  0  0  0  0  0  0  0
   -2.1186    0.7499    1.0787 O   0  0  0  0  0  0  0  0  0  0  0  0
   -0.5605    1.9785   -0.3733 C   0  0  0  0  0  0  0  0  0  0  0  0
    0.2888    1.2602    0.6042 C   0  0  0  0  0  0  0  0  0  0  0  0
    1.7678    0.2667   -1.6765 H   0  0  0  0  0  0  0  0  0  0  0  0
    2.4902   -1.0985   -0.7650 H   0  0  0  0  0  0  0  0  0  0  0  0
    2.7821    0.6387   -0.2686 H   0  0  0  0  0  0  0  0  0  0  0  0
    0.7402   -2.2471    0.8920 H   0  0  0  0  0  0  0  0  0  0  0  0
    0.0055   -0.9771    2.0719 H   0  0  0  0  0  0  0  0  0  0  0  0
    0.0706   -1.6434   -1.9050 H   0  0  0  0  0  0  0  0  0  0  0  0
   -0.9702   -2.5197   -0.7697 H   0  0  0  0  0  0  0  0  0  0  0  0
   -1.6535   -1.1620   -1.7863 H   0  0  0  0  0  0  0  0  0  0  0  0
   -2.9599    1.0886    0.6799 H   0  0  0  0  0  0  0  0  0  0  0  0
   -0.9984    2.9118   -0.0184 H   0  0  0  0  0  0  0  0  0  0  0  0
   -0.1760    2.0163   -1.4146 H   0  0  0  0  0  0  0  0  0  0  0  0
    0.3106    1.5400    1.6789 H   0  0  0  0  0  0  0  0  0  0  0  0
  1  2  1  0
  2  3  1  0
  3  4  1  0
  4  5  1  0
  4  6  1  0
  6  7  1  0
  6  8  1  0
  8  9  1  0
  4  2  1  0
  9  6  1  0
  9  2  1  0
  1 10  1  0
  1 11  1  0
  1 12  1  0
  3 13  1  0
  3 14  1  0
  5 15  1  0
  5 16  1  0
  5 17  1  0
  7 18  1  0
  8 19  1  0
  8 20  1  0
  9 21  1  0
M  END
