
     RDKit          3D

 17 20  0  0  0  0  0  0  0  0999 V2000
   -1.7702   -0.8831    0.4073 C   0  0  0  0  0  0  0  0  0  0  0  0
   -0.5879   -0.1137    0.2861 C   0  0  0  0  0  0  0  0  0  0  0  0
    0.7365   -0.2469    0.8832 C   0  0  0  0  0  0  0  0  0  0  0  0
    1.1331    1.0044    0.2350 C   0  0  0  0  0  0  0  0  0  0  0  0
    1.3864   -0.2695   -0.3965 C   0  0  0  0  0  0  0  0  0  0  0  0
    2.5148   -0.8323   -0.7908 O   0  0  0  0  0  0  0  0  0  0  0  0
    0.1128   -0.1494   -1.1125 C   0  0  0  0  0  0  0  0  0  0  0  0
   -0.2064    1.0586   -0.4261 C   0  0  0  0  0  0  0  0  0  0  0  0
   -0.8687    2.1435   -0.7785 O   0  0  0  0  0  0  0  0  0  0  0  0
   -1.9489   -1.3439    1.4068 H   0  0  0  0  0  0  0  0  0  0  0  0
   -1.7924   -1.7430   -0.3235 H   0  0  0  0  0  0  0  0  0  0  0  0
   -2.6916   -0.2861    0.1538 H   0  0  0  0  0  0  0  0  0  0  0  0
    1.0203   -0.6221    1.8270 H   0  0  0  0  0  0  0  0  0  0  0  0
    1.7380    1.7858    0.5572 H   0  0  0  0  0  0  0  0  0  0  0  0
    2.9928   -1.2471   -0.0043 H   0  0  0  0  0  0  0  0  0  0  0  0
   -0.2947   -0.7012   -1.8946 H   0  0  0  0  0  0  0  0  0  0  0  0
   -1.4741    2.4461   -0.0298 H   0  0  0  0  0  0  0  0  0  0  0  0
  1  2  1  0
  2  3  1  0
  3  4  1  0
  4  5  1  0
  5  6  1  0
  5  7  1  0
  7  8  1  0
  8  9  1  0
  7  2  1  0
  8  2  1  0
  5  3  1  0
  8  4  1  0
  1 10  1  0
  1 11  1  0
  1 12  1  0
  3 13  1  0
  4 14  1  0
  6 15  1  0
  7 16  1  0
  9 17  1  0
M  END
