
     RDKit          3D

 18 19  0  0  0  0  0  0  0  0999 V2000
   -1.9651   -0.1964    0.4248 C   0  0  0  0  0  0  0  0  0  0  0  0
   -0.5437    0.0545    0.1920 C   0  0  0  0  0  0  0  0  0  0  0  0
    0.1197   -0.8168   -0.8385 C   0  0  0  0  0  0  0  0  0  0  0  0
    1.5582   -0.8457   -0.3091 C   0  0  0  0  0  0  0  0  0  0  0  0
    1.4833    0.2890    0.7146 C   0  0  0  0  0  0  0  0  0  0  0  0
    1.1819    1.4936    0.1208 O   0  0  0  0  0  0  0  0  0  0  0  0
   -0.1921    1.4875   -0.1645 C   0  0  0  0  0  0  0  0  0  0  0  0
    0.2688   -0.0938    1.3432 O   0  0  0  0  0  0  0  0  0  0  0  0
   -2.6681    0.4078   -0.1448 H   0  0  0  0  0  0  0  0  0  0  0  0
   -2.1669   -0.1335    1.5350 H   0  0  0  0  0  0  0  0  0  0  0  0
   -2.1989   -1.2740    0.1791 H   0  0  0  0  0  0  0  0  0  0  0  0
   -0.3097   -1.8080   -0.9437 H   0  0  0  0  0  0  0  0  0  0  0  0
    0.1962   -0.2566   -1.8162 H   0  0  0  0  0  0  0  0  0  0  0  0
    2.2950   -0.6743   -1.0820 H   0  0  0  0  0  0  0  0  0  0  0  0
    1.6519   -1.7836    0.2530 H   0  0  0  0  0  0  0  0  0  0  0  0
    2.3212    0.3016    1.4002 H   0  0  0  0  0  0  0  0  0  0  0  0
   -0.7506    2.2276    0.4043 H   0  0  0  0  0  0  0  0  0  0  0  0
   -0.2813    1.6211   -1.2682 H   0  0  0  0  0  0  0  0  0  0  0  0
  1  2  1  0
  2  3  1  0
  3  4  1  0
  4  5  1  0
  5  6  1  0
  6  7  1  0
  5  8  1  0
  7  2  1  0
  8  2  1  0
  1  9  1  0
  1 10  1  0
  1 11  1  0
  3 12  1  0
  3 13  1  0
  4 14  1  0
  4 15  1  0
  5 16  1  0
  7 17  1  0
  7 18  1  0
M  END
