
     RDKit          3D

 16 17  0  0  0  0  0  0  0  0999 V2000
   -1.9527   -0.2149   -0.1285 C   0  0  0  0  0  0  0  0  0  0  0  0
   -0.5254    0.0363    0.2484 C   0  0  0  0  0  0  0  0  0  0  0  0
   -0.0559    1.3750    0.6391 C   0  0  0  0  0  0  0  0  0  0  0  0
    0.4281    0.7305   -0.6297 C   0  0  0  0  0  0  0  0  0  0  0  0
    1.3446   -0.4867   -0.4874 C   0  0  0  0  0  0  0  0  0  0  0  0
    2.5697   -0.1173    0.0256 O   0  0  0  0  0  0  0  0  0  0  0  0
    0.3992   -1.0981    0.4691 C   0  0  0  0  0  0  0  0  0  0  0  0
    0.3441   -2.0813    1.1573 O   0  0  0  0  0  0  0  0  0  0  0  0
   -2.6410    0.1290    0.6728 H   0  0  0  0  0  0  0  0  0  0  0  0
   -2.1069   -1.3186   -0.2143 H   0  0  0  0  0  0  0  0  0  0  0  0
   -2.2408    0.2675   -1.0892 H   0  0  0  0  0  0  0  0  0  0  0  0
   -0.7623    2.2088    0.4672 H   0  0  0  0  0  0  0  0  0  0  0  0
    0.6688    1.4504    1.4819 H   0  0  0  0  0  0  0  0  0  0  0  0
    0.1897    1.1226   -1.6109 H   0  0  0  0  0  0  0  0  0  0  0  0
    1.3616   -1.0599   -1.4358 H   0  0  0  0  0  0  0  0  0  0  0  0
    2.9792   -0.9436    0.4343 H   0  0  0  0  0  0  0  0  0  0  0  0
  1  2  1  0
  2  3  1  0
  3  4  1  0
  4  5  1  0
  5  6  1  0
  5  7  1  0
  7  8  2  0
  4  2  1  0
  7  2  1  0
  1  9  1  0
  1 10  1  0
  1 11  1  0
  3 12  1  0
  3 13  1  0
  4 14  1  0
  5 15  1  0
  6 16  1  0
M  END
