
     RDKit          3D

 21 22  0  0  0  0  0  0  0  0999 V2000
   -0.6695    1.8090    0.2283 C   0  0  0  0  0  0  0  0  0  0  0  0
   -0.5171    0.4635   -0.4276 C   0  0  0  0  0  0  0  0  0  0  0  0
   -1.6932   -0.4555   -0.3160 C   0  0  0  0  0  0  0  0  0  0  0  0
   -1.1899   -1.6400    0.3862 C   0  0  0  0  0  0  0  0  0  0  0  0
   -1.8051   -2.5685    0.8800 O   0  0  0  0  0  0  0  0  0  0  0  0
    0.3104   -1.5816    0.4373 C   0  0  0  0  0  0  0  0  0  0  0  0
    0.7177   -0.2680   -0.1164 C   0  0  0  0  0  0  0  0  0  0  0  0
    1.8713    0.4222    0.6170 C   0  0  0  0  0  0  0  0  0  0  0  0
    0.4530    0.1849   -1.4765 C   0  0  0  0  0  0  0  0  0  0  0  0
   -0.2173    1.7110    1.2537 H   0  0  0  0  0  0  0  0  0  0  0  0
   -1.7462    2.0242    0.4147 H   0  0  0  0  0  0  0  0  0  0  0  0
   -0.1362    2.6196   -0.2704 H   0  0  0  0  0  0  0  0  0  0  0  0
   -2.5929   -0.0090    0.1046 H   0  0  0  0  0  0  0  0  0  0  0  0
   -1.9547   -0.7763   -1.3604 H   0  0  0  0  0  0  0  0  0  0  0  0
    0.7716   -2.4270   -0.0743 H   0  0  0  0  0  0  0  0  0  0  0  0
    0.5550   -1.5784    1.5406 H   0  0  0  0  0  0  0  0  0  0  0  0
    2.2871    1.2305   -0.0168 H   0  0  0  0  0  0  0  0  0  0  0  0
    2.6961   -0.3323    0.7140 H   0  0  0  0  0  0  0  0  0  0  0  0
    1.5732    0.7847    1.6065 H   0  0  0  0  0  0  0  0  0  0  0  0
    1.0814    0.9868   -1.8991 H   0  0  0  0  0  0  0  0  0  0  0  0
    0.2053   -0.5998   -2.2254 H   0  0  0  0  0  0  0  0  0  0  0  0
  1  2  1  0
  2  3  1  0
  3  4  1  0
  4  5  2  0
  4  6  1  0
  6  7  1  0
  7  8  1  0
  7  9  1  0
  7  2  1  0
  9  2  1  0
  1 10  1  0
  1 11  1  0
  1 12  1  0
  3 13  1  0
  3 14  1  0
  6 15  1  0
  6 16  1  0
  8 17  1  0
  8 18  1  0
  8 19  1  0
  9 20  1  0
  9 21  1  0
M  END
