
     RDKit          3D

 23 25  0  0  0  0  0  0  0  0999 V2000
    2.2604   -0.3059   -0.2685 C   0  0  0  0  0  0  0  0  0  0  0  0
    0.8634    0.1304   -0.0949 C   0  0  0  0  0  0  0  0  0  0  0  0
    0.3804    0.4452    1.2851 C   0  0  0  0  0  0  0  0  0  0  0  0
   -1.0680   -0.0465    1.2050 C   0  0  0  0  0  0  0  0  0  0  0  0
   -1.7831    0.6797    0.1108 C   0  0  0  0  0  0  0  0  0  0  0  0
   -0.9509    0.2952   -1.1130 C   0  0  0  0  0  0  0  0  0  0  0  0
    0.3268    1.1452   -1.0861 C   0  0  0  0  0  0  0  0  0  0  0  0
   -0.1114   -0.8641   -0.7044 C   0  0  0  0  0  0  0  0  0  0  0  0
   -0.8134   -1.4009    0.5204 C   0  0  0  0  0  0  0  0  0  0  0  0
    2.5136   -0.2543   -1.3568 H   0  0  0  0  0  0  0  0  0  0  0  0
    2.3927   -1.3970   -0.0078 H   0  0  0  0  0  0  0  0  0  0  0  0
    3.0157    0.2821    0.2553 H   0  0  0  0  0  0  0  0  0  0  0  0
    0.8678   -0.1882    2.0556 H   0  0  0  0  0  0  0  0  0  0  0  0
    0.3682    1.5144    1.5351 H   0  0  0  0  0  0  0  0  0  0  0  0
   -1.5628   -0.1246    2.1490 H   0  0  0  0  0  0  0  0  0  0  0  0
   -2.7842    0.2036   -0.0083 H   0  0  0  0  0  0  0  0  0  0  0  0
   -1.8400    1.7564    0.2597 H   0  0  0  0  0  0  0  0  0  0  0  0
   -1.4757    0.2653   -2.0584 H   0  0  0  0  0  0  0  0  0  0  0  0
    0.1413    2.1552   -0.6715 H   0  0  0  0  0  0  0  0  0  0  0  0
    0.8830    1.1621   -2.0310 H   0  0  0  0  0  0  0  0  0  0  0  0
    0.2590   -1.5515   -1.4315 H   0  0  0  0  0  0  0  0  0  0  0  0
   -0.1249   -2.0064    1.1609 H   0  0  0  0  0  0  0  0  0  0  0  0
   -1.7578   -1.8952    0.2953 H   0  0  0  0  0  0  0  0  0  0  0  0
  1  2  1  0
  2  3  1  0
  3  4  1  0
  4  5  1  0
  5  6  1  0
  6  7  1  0
  6  8  1  0
  8  9  1  0
  7  2  1  0
  8  2  1  0
  9  4  1  0
  1 10  1  0
  1 11  1  0
  1 12  1  0
  3 13  1  0
  3 14  1  0
  4 15  1  0
  5 16  1  0
  5 17  1  0
  6 18  1  0
  7 19  1  0
  7 20  1  0
  8 21  1  0
  9 22  1  0
  9 23  1  0
M  END
