
     RDKit          3D

 19 21  0  0  0  0  0  0  0  0999 V2000
   -1.2729    1.4144    0.5811 C   0  0  0  0  0  0  0  0  0  0  0  0
   -0.5682    0.2013    0.1940 C   0  0  0  0  0  0  0  0  0  0  0  0
   -1.3173   -0.8531   -0.5985 C   0  0  0  0  0  0  0  0  0  0  0  0
   -0.2650   -1.6740    0.0615 C   0  0  0  0  0  0  0  0  0  0  0  0
    1.0553   -1.2126   -0.5801 C   0  0  0  0  0  0  0  0  0  0  0  0
    0.8065    0.2629   -0.3669 C   0  0  0  0  0  0  0  0  0  0  0  0
    1.7976    1.1118    0.3491 C   0  0  0  0  0  0  0  0  0  0  0  0
    1.3814    1.2507   -1.0162 O   0  0  0  0  0  0  0  0  0  0  0  0
   -0.4182   -0.8129    1.1720 O   0  0  0  0  0  0  0  0  0  0  0  0
   -0.5670    2.2202    0.8198 H   0  0  0  0  0  0  0  0  0  0  0  0
   -1.8935    1.7787   -0.2823 H   0  0  0  0  0  0  0  0  0  0  0  0
   -1.9938    1.2396    1.4023 H   0  0  0  0  0  0  0  0  0  0  0  0
   -1.2705   -0.7451   -1.6917 H   0  0  0  0  0  0  0  0  0  0  0  0
   -2.3131   -0.9897   -0.1848 H   0  0  0  0  0  0  0  0  0  0  0  0
   -0.3928   -2.7145    0.2185 H   0  0  0  0  0  0  0  0  0  0  0  0
    1.9157   -1.5345    0.0191 H   0  0  0  0  0  0  0  0  0  0  0  0
    1.0656   -1.5119   -1.6258 H   0  0  0  0  0  0  0  0  0  0  0  0
    1.4746    1.9344    1.0110 H   0  0  0  0  0  0  0  0  0  0  0  0
    2.7758    0.6342    0.5180 H   0  0  0  0  0  0  0  0  0  0  0  0
  1  2  1  0
  2  3  1  0
  3  4  1  0
  4  5  1  0
  5  6  1  0
  6  7  1  0
  7  8  1  0
  4  9  1  0
  6  2  1  0
  9  2  1  0
  8  6  1  0
  1 10  1  0
  1 11  1  0
  1 12  1  0
  3 13  1  0
  3 14  1  0
  4 15  1  0
  5 16  1  0
  5 17  1  0
  7 18  1  0
  7 19  1  0
M  END
