
     RDKit          3D

 17 18  0  0  0  0  0  0  0  0999 V2000
    1.8073   -0.8991    0.1638 C   0  0  0  0  0  0  0  0  0  0  0  0
    0.6258   -0.0431    0.3476 C   0  0  0  0  0  0  0  0  0  0  0  0
    0.7276    1.3845   -0.2085 C   0  0  0  0  0  0  0  0  0  0  0  0
   -0.8042    1.3419   -0.2879 C   0  0  0  0  0  0  0  0  0  0  0  0
   -0.6861   -0.0983    0.2325 C   0  0  0  0  0  0  0  0  0  0  0  0
   -1.7341   -1.0784   -0.1094 C   0  0  0  0  0  0  0  0  0  0  0  0
   -0.1175   -0.1959    1.4964 O   0  0  0  0  0  0  0  0  0  0  0  0
    2.5469   -0.6471    0.9810 H   0  0  0  0  0  0  0  0  0  0  0  0
    1.6305   -1.9734    0.2300 H   0  0  0  0  0  0  0  0  0  0  0  0
    2.3559   -0.6108   -0.7801 H   0  0  0  0  0  0  0  0  0  0  0  0
    1.1322    2.0996    0.5073 H   0  0  0  0  0  0  0  0  0  0  0  0
    1.2179    1.3275   -1.1947 H   0  0  0  0  0  0  0  0  0  0  0  0
   -1.2058    1.3034   -1.3088 H   0  0  0  0  0  0  0  0  0  0  0  0
   -1.3181    1.9842    0.4285 H   0  0  0  0  0  0  0  0  0  0  0  0
   -2.5581   -0.5282   -0.6531 H   0  0  0  0  0  0  0  0  0  0  0  0
   -1.3987   -1.9516   -0.6959 H   0  0  0  0  0  0  0  0  0  0  0  0
   -2.2214   -1.4150    0.8514 H   0  0  0  0  0  0  0  0  0  0  0  0
  1  2  1  0
  2  3  1  0
  3  4  1  0
  4  5  1  0
  5  6  1  0
  5  7  1  0
  5  2  1  0
  7  2  1  0
  1  8  1  0
  1  9  1  0
  1 10  1  0
  3 11  1  0
  3 12  1  0
  4 13  1  0
  4 14  1  0
  6 15  1  0
  6 16  1  0
  6 17  1  0
M  END
