
     RDKit          3D

 18 20  0  0  0  0  0  0  0  0999 V2000
   -1.2623   -1.2070   -0.4736 C   0  0  0  0  0  0  0  0  0  0  0  0
   -0.4825   -0.0525   -0.0874 C   0  0  0  0  0  0  0  0  0  0  0  0
   -1.1362    1.2580    0.2009 C   0  0  0  0  0  0  0  0  0  0  0  0
   -0.0018    2.0605    0.4834 O   0  0  0  0  0  0  0  0  0  0  0  0
    1.0381    1.1512    0.4016 C   0  0  0  0  0  0  0  0  0  0  0  0
    0.7827    0.2907   -0.8060 C   0  0  0  0  0  0  0  0  0  0  0  0
    1.4258   -0.8215   -0.0371 C   0  0  0  0  0  0  0  0  0  0  0  0
    0.5524   -0.1485    0.9830 C   0  0  0  0  0  0  0  0  0  0  0  0
   -0.8684   -2.1687   -0.1248 H   0  0  0  0  0  0  0  0  0  0  0  0
   -2.3406   -1.0596   -0.1851 H   0  0  0  0  0  0  0  0  0  0  0  0
   -1.2981   -1.2857   -1.6000 H   0  0  0  0  0  0  0  0  0  0  0  0
   -1.7354    1.6661   -0.6160 H   0  0  0  0  0  0  0  0  0  0  0  0
   -1.7337    1.1716    1.1562 H   0  0  0  0  0  0  0  0  0  0  0  0
    2.0376    1.4727    0.6088 H   0  0  0  0  0  0  0  0  0  0  0  0
    0.9076    0.5378   -1.7656 H   0  0  0  0  0  0  0  0  0  0  0  0
    2.5025   -0.6387    0.2288 H   0  0  0  0  0  0  0  0  0  0  0  0
    1.1716   -1.8455   -0.3143 H   0  0  0  0  0  0  0  0  0  0  0  0
    0.4407   -0.3806    1.9473 H   0  0  0  0  0  0  0  0  0  0  0  0
  1  2  1  0
  2  3  1  0
  3  4  1  0
  4  5  1  0
  5  6  1  0
  6  7  1  0
  7  8  1  0
  6  2  1  0
  8  2  1  0
  8  5  1  0
  1  9  1  0
  1 10  1  0
  1 11  1  0
  3 12  1  0
  3 13  1  0
  5 14  1  0
  6 15  1  0
  7 16  1  0
  7 17  1  0
  8 18  1  0
M  END
