
     RDKit          3D

 21 22  0  0  0  0  0  0  0  0999 V2000
   -1.4208   -1.2269   -0.1780 C   0  0  0  0  0  0  0  0  0  0  0  0
   -0.6974   -0.1067    0.4832 C   0  0  0  0  0  0  0  0  0  0  0  0
   -1.3826    0.9749    1.2162 C   0  0  0  0  0  0  0  0  0  0  0  0
   -0.7114    1.2731   -0.0486 C   0  0  0  0  0  0  0  0  0  0  0  0
   -1.5016    1.6501   -1.1134 O   0  0  0  0  0  0  0  0  0  0  0  0
    0.7591    1.2049   -0.2473 C   0  0  0  0  0  0  0  0  0  0  0  0
    0.8043   -0.0803    0.5532 C   0  0  0  0  0  0  0  0  0  0  0  0
    1.5142   -1.1610   -0.2254 C   0  0  0  0  0  0  0  0  0  0  0  0
    2.8913   -0.9551   -0.0264 O   0  0  0  0  0  0  0  0  0  0  0  0
   -1.0208   -2.1930    0.2092 H   0  0  0  0  0  0  0  0  0  0  0  0
   -2.4927   -1.1363    0.0084 H   0  0  0  0  0  0  0  0  0  0  0  0
   -1.1984   -1.2216   -1.2643 H   0  0  0  0  0  0  0  0  0  0  0  0
   -2.4718    0.9536    1.2227 H   0  0  0  0  0  0  0  0  0  0  0  0
   -0.9322    1.2592    2.1878 H   0  0  0  0  0  0  0  0  0  0  0  0
   -1.5468    2.6588   -1.1136 H   0  0  0  0  0  0  0  0  0  0  0  0
    1.3798    2.0132    0.1427 H   0  0  0  0  0  0  0  0  0  0  0  0
    0.9882    1.0460   -1.3408 H   0  0  0  0  0  0  0  0  0  0  0  0
    1.1530    0.0328    1.5810 H   0  0  0  0  0  0  0  0  0  0  0  0
    1.2663   -1.1178   -1.2931 H   0  0  0  0  0  0  0  0  0  0  0  0
    1.1953   -2.1386    0.1853 H   0  0  0  0  0  0  0  0  0  0  0  0
    3.4249   -1.7294   -0.3217 H   0  0  0  0  0  0  0  0  0  0  0  0
  1  2  1  0
  2  3  1  0
  3  4  1  0
  4  5  1  0
  4  6  1  0
  6  7  1  0
  7  8  1  0
  8  9  1  0
  4  2  1  0
  7  2  1  0
  1 10  1  0
  1 11  1  0
  1 12  1  0
  3 13  1  0
  3 14  1  0
  5 15  1  0
  6 16  1  0
  6 17  1  0
  7 18  1  0
  8 19  1  0
  8 20  1  0
  9 21  1  0
M  END
