
     RDKit          3D

 19 21  0  0  0  0  0  0  0  0999 V2000
    1.5733   -1.1698    0.8718 C   0  0  0  0  0  0  0  0  0  0  0  0
    0.7115   -0.4615   -0.1301 C   0  0  0  0  0  0  0  0  0  0  0  0
   -0.0259   -1.2873   -0.9317 O   0  0  0  0  0  0  0  0  0  0  0  0
   -1.3645   -1.1658   -0.6657 C   0  0  0  0  0  0  0  0  0  0  0  0
   -1.4889    0.1410    0.1169 C   0  0  0  0  0  0  0  0  0  0  0  0
   -0.7564    1.3470   -0.3082 C   0  0  0  0  0  0  0  0  0  0  0  0
    0.6454    1.6831   -0.6190 C   0  0  0  0  0  0  0  0  0  0  0  0
    1.3537    0.4989   -0.8613 O   0  0  0  0  0  0  0  0  0  0  0  0
   -0.3003    0.3835    0.6569 C   0  0  0  0  0  0  0  0  0  0  0  0
    2.3203   -1.8094    0.3775 H   0  0  0  0  0  0  0  0  0  0  0  0
    0.8759   -1.7766    1.5181 H   0  0  0  0  0  0  0  0  0  0  0  0
    2.0188   -0.4007    1.5365 H   0  0  0  0  0  0  0  0  0  0  0  0
   -1.6911   -1.9636    0.0651 H   0  0  0  0  0  0  0  0  0  0  0  0
   -2.0054   -1.1668   -1.5688 H   0  0  0  0  0  0  0  0  0  0  0  0
   -2.4679    0.3551    0.6147 H   0  0  0  0  0  0  0  0  0  0  0  0
   -1.3406    1.5648   -1.1633 H   0  0  0  0  0  0  0  0  0  0  0  0
    1.1567    2.1384    0.2807 H   0  0  0  0  0  0  0  0  0  0  0  0
    0.8264    2.3526   -1.4428 H   0  0  0  0  0  0  0  0  0  0  0  0
   -0.0411    0.7372    1.6526 H   0  0  0  0  0  0  0  0  0  0  0  0
  1  2  1  0
  2  3  1  0
  3  4  1  0
  4  5  1  0
  5  6  1  0
  6  7  1  0
  7  8  1  0
  6  9  1  0
  8  2  1  0
  9  2  1  0
  9  5  1  0
  1 10  1  0
  1 11  1  0
  1 12  1  0
  4 13  1  0
  4 14  1  0
  5 15  1  0
  6 16  1  0
  7 17  1  0
  7 18  1  0
  9 19  1  0
M  END
