
     RDKit          3D

 21 22  0  0  0  0  0  0  0  0999 V2000
   -1.3923   -0.9906    0.9127 C   0  0  0  0  0  0  0  0  0  0  0  0
   -0.5057   -0.2034    0.0092 C   0  0  0  0  0  0  0  0  0  0  0  0
   -1.3002    0.9153   -0.6684 C   0  0  0  0  0  0  0  0  0  0  0  0
   -0.0601    1.7810   -0.5184 C   0  0  0  0  0  0  0  0  0  0  0  0
    0.3430    0.8544    0.6400 C   0  0  0  0  0  0  0  0  0  0  0  0
    1.6820    0.6401    0.5931 O   0  0  0  0  0  0  0  0  0  0  0  0
    2.1187   -0.6336    0.4831 C   0  0  0  0  0  0  0  0  0  0  0  0
    1.5197   -1.4204   -0.4539 O   0  0  0  0  0  0  0  0  0  0  0  0
    0.3387   -0.9780   -0.9598 C   0  0  0  0  0  0  0  0  0  0  0  0
   -2.2154   -1.4261    0.2864 H   0  0  0  0  0  0  0  0  0  0  0  0
   -1.8663   -0.3075    1.6279 H   0  0  0  0  0  0  0  0  0  0  0  0
   -0.8840   -1.8487    1.3798 H   0  0  0  0  0  0  0  0  0  0  0  0
   -1.4949    0.6540   -1.7222 H   0  0  0  0  0  0  0  0  0  0  0  0
   -2.1597    1.2832   -0.0838 H   0  0  0  0  0  0  0  0  0  0  0  0
    0.6207    1.6370   -1.3980 H   0  0  0  0  0  0  0  0  0  0  0  0
   -0.2288    2.8189   -0.2388 H   0  0  0  0  0  0  0  0  0  0  0  0
   -0.0194    1.2468    1.6046 H   0  0  0  0  0  0  0  0  0  0  0  0
    2.1034   -1.1962    1.4624 H   0  0  0  0  0  0  0  0  0  0  0  0
    3.2191   -0.5950    0.2237 H   0  0  0  0  0  0  0  0  0  0  0  0
    0.4391   -0.3599   -1.8955 H   0  0  0  0  0  0  0  0  0  0  0  0
   -0.2578   -1.8711   -1.2839 H   0  0  0  0  0  0  0  0  0  0  0  0
  1  2  1  0
  2  3  1  0
  3  4  1  0
  4  5  1  0
  5  6  1  0
  6  7  1  0
  7  8  1  0
  8  9  1  0
  5  2  1  0
  9  2  1  0
  1 10  1  0
  1 11  1  0
  1 12  1  0
  3 13  1  0
  3 14  1  0
  4 15  1  0
  4 16  1  0
  5 17  1  0
  7 18  1  0
  7 19  1  0
  9 20  1  0
  9 21  1  0
M  END
