
     RDKit          3D

 17 19  0  0  0  0  0  0  0  0999 V2000
    1.6530   -0.5064   -0.4668 C   0  0  0  0  0  0  0  0  0  0  0  0
    0.8839    0.2668    0.6202 C   0  0  0  0  0  0  0  0  0  0  0  0
    1.4047    1.4588    0.7684 O   0  0  0  0  0  0  0  0  0  0  0  0
    0.2773    1.6179    0.1187 C   0  0  0  0  0  0  0  0  0  0  0  0
   -0.4261    0.9165   -0.9359 C   0  0  0  0  0  0  0  0  0  0  0  0
   -0.3122    0.9877   -2.1301 O   0  0  0  0  0  0  0  0  0  0  0  0
   -1.3721    0.0403   -0.2069 C   0  0  0  0  0  0  0  0  0  0  0  0
   -1.1216   -1.3273    0.2045 C   0  0  0  0  0  0  0  0  0  0  0  0
   -0.4346   -0.3122    1.0097 C   0  0  0  0  0  0  0  0  0  0  0  0
    1.6897    0.0390   -1.4179 H   0  0  0  0  0  0  0  0  0  0  0  0
    2.7195   -0.4900   -0.0890 H   0  0  0  0  0  0  0  0  0  0  0  0
    1.2905   -1.5069   -0.6328 H   0  0  0  0  0  0  0  0  0  0  0  0
   -0.4821    2.0930    0.8263 H   0  0  0  0  0  0  0  0  0  0  0  0
   -2.2980    0.6006    0.0939 H   0  0  0  0  0  0  0  0  0  0  0  0
   -2.0040   -1.8083    0.7267 H   0  0  0  0  0  0  0  0  0  0  0  0
   -0.6582   -2.0326   -0.4855 H   0  0  0  0  0  0  0  0  0  0  0  0
   -0.8097   -0.0368    1.9965 H   0  0  0  0  0  0  0  0  0  0  0  0
  1  2  1  0
  2  3  1  0
  3  4  1  0
  4  5  1  0
  5  6  2  0
  5  7  1  0
  7  8  1  0
  8  9  1  0
  4  2  1  0
  9  7  1  0
  9  2  1  0
  1 10  1  0
  1 11  1  0
  1 12  1  0
  4 13  1  0
  7 14  1  0
  8 15  1  0
  8 16  1  0
  9 17  1  0
M  END
