
     RDKit          3D

 23 25  0  0  0  0  0  0  0  0999 V2000
   -1.3560   -1.5356    0.5701 C   0  0  0  0  0  0  0  0  0  0  0  0
   -0.5504   -0.4768   -0.0733 C   0  0  0  0  0  0  0  0  0  0  0  0
   -1.4075    0.5386   -0.7694 C   0  0  0  0  0  0  0  0  0  0  0  0
   -0.9415    1.6372    0.1395 C   0  0  0  0  0  0  0  0  0  0  0  0
   -0.0852    0.6563    0.8629 C   0  0  0  0  0  0  0  0  0  0  0  0
    1.3683    0.6981    0.4571 C   0  0  0  0  0  0  0  0  0  0  0  0
    1.7011   -0.8045    0.4942 C   0  0  0  0  0  0  0  0  0  0  0  0
    0.7402   -0.8346   -0.7025 C   0  0  0  0  0  0  0  0  0  0  0  0
    1.3579    0.5333   -1.0251 C   0  0  0  0  0  0  0  0  0  0  0  0
   -2.0275   -1.9987   -0.2108 H   0  0  0  0  0  0  0  0  0  0  0  0
   -2.0483   -1.0633    1.3053 H   0  0  0  0  0  0  0  0  0  0  0  0
   -0.7799   -2.3518    1.0179 H   0  0  0  0  0  0  0  0  0  0  0  0
   -2.5105    0.3793   -0.6115 H   0  0  0  0  0  0  0  0  0  0  0  0
   -1.2167    0.6473   -1.8334 H   0  0  0  0  0  0  0  0  0  0  0  0
   -1.7187    2.0497    0.8350 H   0  0  0  0  0  0  0  0  0  0  0  0
   -0.3370    2.4142   -0.3757 H   0  0  0  0  0  0  0  0  0  0  0  0
   -0.2767    0.4750    1.9162 H   0  0  0  0  0  0  0  0  0  0  0  0
    2.0377    1.3588    0.9388 H   0  0  0  0  0  0  0  0  0  0  0  0
    1.3519   -1.3258    1.3814 H   0  0  0  0  0  0  0  0  0  0  0  0
    2.7310   -0.9804    0.1542 H   0  0  0  0  0  0  0  0  0  0  0  0
    0.8462   -1.6089   -1.4081 H   0  0  0  0  0  0  0  0  0  0  0  0
    2.3836    0.4004   -1.4423 H   0  0  0  0  0  0  0  0  0  0  0  0
    0.7380    1.1924   -1.6204 H   0  0  0  0  0  0  0  0  0  0  0  0
  1  2  1  0
  2  3  1  0
  3  4  1  0
  4  5  1  0
  5  6  1  0
  6  7  1  0
  7  8  1  0
  8  9  1  0
  5  2  1  0
  9  6  1  0
  8  2  1  0
  1 10  1  0
  1 11  1  0
  1 12  1  0
  3 13  1  0
  3 14  1  0
  4 15  1  0
  4 16  1  0
  5 17  1  0
  6 18  1  0
  7 19  1  0
  7 20  1  0
  8 21  1  0
  9 22  1  0
  9 23  1  0
M  END
