
     RDKit          3D

 19 21  0  0  0  0  0  0  0  0999 V2000
   -2.0628    0.6558    0.0142 C   0  0  0  0  0  0  0  0  0  0  0  0
   -0.6270    0.2818    0.1588 C   0  0  0  0  0  0  0  0  0  0  0  0
    0.0889    0.8136    1.3465 C   0  0  0  0  0  0  0  0  0  0  0  0
    0.4674    1.2566   -0.0528 C   0  0  0  0  0  0  0  0  0  0  0  0
    1.6253    0.5589   -0.6185 C   0  0  0  0  0  0  0  0  0  0  0  0
    2.7180    1.0323   -0.8045 O   0  0  0  0  0  0  0  0  0  0  0  0
    1.2382   -0.8294   -0.9278 C   0  0  0  0  0  0  0  0  0  0  0  0
    0.8995   -1.8223    0.0888 C   0  0  0  0  0  0  0  0  0  0  0  0
   -0.1844   -1.0004   -0.4936 C   0  0  0  0  0  0  0  0  0  0  0  0
   -2.4746    1.0027    0.9924 H   0  0  0  0  0  0  0  0  0  0  0  0
   -2.6710   -0.2536   -0.2452 H   0  0  0  0  0  0  0  0  0  0  0  0
   -2.2422    1.4741   -0.7040 H   0  0  0  0  0  0  0  0  0  0  0  0
   -0.4223    1.5755    1.9356 H   0  0  0  0  0  0  0  0  0  0  0  0
    0.8047    0.1973    1.9228 H   0  0  0  0  0  0  0  0  0  0  0  0
    0.1894    2.2719   -0.3896 H   0  0  0  0  0  0  0  0  0  0  0  0
    1.4947   -1.1816   -1.9467 H   0  0  0  0  0  0  0  0  0  0  0  0
    1.0890   -1.6904    1.1669 H   0  0  0  0  0  0  0  0  0  0  0  0
    0.9360   -2.8863   -0.2251 H   0  0  0  0  0  0  0  0  0  0  0  0
   -0.8668   -1.4567   -1.2182 H   0  0  0  0  0  0  0  0  0  0  0  0
  1  2  1  0
  2  3  1  0
  3  4  1  0
  4  5  1  0
  5  6  2  0
  5  7  1  0
  7  8  1  0
  8  9  1  0
  4  2  1  0
  9  7  1  0
  9  2  1  0
  1 10  1  0
  1 11  1  0
  1 12  1  0
  3 13  1  0
  3 14  1  0
  4 15  1  0
  7 16  1  0
  8 17  1  0
  8 18  1  0
  9 19  1  0
M  END
