
     RDKit          3D

 21 22  0  0  0  0  0  0  0  0999 V2000
   -2.5340   -0.0121   -0.3547 C   0  0  0  0  0  0  0  0  0  0  0  0
   -1.1881    0.0135    0.1252 C   0  0  0  0  0  0  0  0  0  0  0  0
   -0.8524   -0.1073    1.5604 C   0  0  0  0  0  0  0  0  0  0  0  0
    0.5043   -0.0553    1.5465 C   0  0  0  0  0  0  0  0  0  0  0  0
    0.8127    0.0835    0.1240 C   0  0  0  0  0  0  0  0  0  0  0  0
    2.1532    0.1822   -0.3772 C   0  0  0  0  0  0  0  0  0  0  0  0
    2.9861   -0.8837   -0.1096 O   0  0  0  0  0  0  0  0  0  0  0  0
   -0.2257    1.1087   -0.3161 C   0  0  0  0  0  0  0  0  0  0  0  0
   -0.1433   -0.9326   -0.4903 C   0  0  0  0  0  0  0  0  0  0  0  0
   -3.2648    0.0269    0.4994 H   0  0  0  0  0  0  0  0  0  0  0  0
   -2.8222   -0.9317   -0.9389 H   0  0  0  0  0  0  0  0  0  0  0  0
   -2.7680    0.9086   -0.9604 H   0  0  0  0  0  0  0  0  0  0  0  0
   -1.5029   -0.2112    2.4182 H   0  0  0  0  0  0  0  0  0  0  0  0
    1.1911   -0.1043    2.3806 H   0  0  0  0  0  0  0  0  0  0  0  0
    2.1138    0.2934   -1.5029 H   0  0  0  0  0  0  0  0  0  0  0  0
    2.6412    1.1064   -0.0242 H   0  0  0  0  0  0  0  0  0  0  0  0
    3.7005   -0.8915   -0.8033 H   0  0  0  0  0  0  0  0  0  0  0  0
   -0.2344    2.0193    0.2822 H   0  0  0  0  0  0  0  0  0  0  0  0
   -0.2825    1.2331   -1.4201 H   0  0  0  0  0  0  0  0  0  0  0  0
   -0.1605   -0.9191   -1.5998 H   0  0  0  0  0  0  0  0  0  0  0  0
   -0.1243   -1.9267   -0.0390 H   0  0  0  0  0  0  0  0  0  0  0  0
  1  2  1  0
  2  3  1  0
  3  4  2  0
  4  5  1  0
  5  6  1  0
  6  7  1  0
  5  8  1  0
  5  9  1  0
  8  2  1  0
  9  2  1  0
  1 10  1  0
  1 11  1  0
  1 12  1  0
  3 13  1  0
  4 14  1  0
  6 15  1  0
  6 16  1  0
  7 17  1  0
  8 18  1  0
  8 19  1  0
  9 20  1  0
  9 21  1  0
M  END
