
     RDKit          3D

 19 21  0  0  0  0  0  0  0  0999 V2000
   -1.7329    0.2652    0.8205 C   0  0  0  0  0  0  0  0  0  0  0  0
   -0.5099    0.0738    0.0142 C   0  0  0  0  0  0  0  0  0  0  0  0
   -0.5221   -1.0863   -0.9172 C   0  0  0  0  0  0  0  0  0  0  0  0
    0.8249   -1.3133   -1.1899 O   0  0  0  0  0  0  0  0  0  0  0  0
    1.5598   -0.9395   -0.0970 C   0  0  0  0  0  0  0  0  0  0  0  0
    1.7874    0.4742    0.2645 C   0  0  0  0  0  0  0  0  0  0  0  0
    1.2617    1.5318   -0.4091 O   0  0  0  0  0  0  0  0  0  0  0  0
   -0.0452    1.2916   -0.7342 C   0  0  0  0  0  0  0  0  0  0  0  0
    0.6852   -0.2413    0.8806 C   0  0  0  0  0  0  0  0  0  0  0  0
   -1.6600    1.2350    1.3542 H   0  0  0  0  0  0  0  0  0  0  0  0
   -1.7775   -0.5616    1.5835 H   0  0  0  0  0  0  0  0  0  0  0  0
   -2.6441    0.3059    0.2105 H   0  0  0  0  0  0  0  0  0  0  0  0
   -1.0068   -0.8547   -1.8960 H   0  0  0  0  0  0  0  0  0  0  0  0
   -1.0178   -1.9877   -0.5069 H   0  0  0  0  0  0  0  0  0  0  0  0
    2.3292   -1.6645    0.2241 H   0  0  0  0  0  0  0  0  0  0  0  0
    2.6881    0.7088    0.8788 H   0  0  0  0  0  0  0  0  0  0  0  0
   -0.7204    2.1611   -0.5494 H   0  0  0  0  0  0  0  0  0  0  0  0
   -0.0842    1.1273   -1.8479 H   0  0  0  0  0  0  0  0  0  0  0  0
    0.5848   -0.5257    1.9168 H   0  0  0  0  0  0  0  0  0  0  0  0
  1  2  1  0
  2  3  1  0
  3  4  1  0
  4  5  1  0
  5  6  1  0
  6  7  1  0
  7  8  1  0
  6  9  1  0
  8  2  1  0
  9  2  1  0
  9  5  1  0
  1 10  1  0
  1 11  1  0
  1 12  1  0
  3 13  1  0
  3 14  1  0
  5 15  1  0
  6 16  1  0
  8 17  1  0
  8 18  1  0
  9 19  1  0
M  END
