
     RDKit          3D

 18 19  0  0  0  0  0  0  0  0999 V2000
   -1.5225    0.6637   -0.6328 C   0  0  0  0  0  0  0  0  0  0  0  0
   -0.7609   -0.0953    0.4778 C   0  0  0  0  0  0  0  0  0  0  0  0
    0.0442    0.8284    1.2231 C   0  0  0  0  0  0  0  0  0  0  0  0
    1.1517    1.0338    0.5122 C   0  0  0  0  0  0  0  0  0  0  0  0
    0.9887    0.1616   -0.7386 C   0  0  0  0  0  0  0  0  0  0  0  0
    2.2816   -0.1112   -1.1775 O   0  0  0  0  0  0  0  0  0  0  0  0
    0.4149   -1.0099   -0.0005 C   0  0  0  0  0  0  0  0  0  0  0  0
   -0.8555   -1.4855    0.3465 C   0  0  0  0  0  0  0  0  0  0  0  0
   -2.5880    0.6588   -0.2473 H   0  0  0  0  0  0  0  0  0  0  0  0
   -1.5842    0.0593   -1.5633 H   0  0  0  0  0  0  0  0  0  0  0  0
   -1.2057    1.6873   -0.7701 H   0  0  0  0  0  0  0  0  0  0  0  0
   -0.1258    1.3161    2.1786 H   0  0  0  0  0  0  0  0  0  0  0  0
    2.0018    1.6678    0.7331 H   0  0  0  0  0  0  0  0  0  0  0  0
    0.3628    0.6253   -1.4855 H   0  0  0  0  0  0  0  0  0  0  0  0
    2.7068   -0.6939   -0.4895 H   0  0  0  0  0  0  0  0  0  0  0  0
    1.2025   -1.2875    0.7732 H   0  0  0  0  0  0  0  0  0  0  0  0
   -1.0306   -2.0607    1.3063 H   0  0  0  0  0  0  0  0  0  0  0  0
   -1.4818   -1.9578   -0.4456 H   0  0  0  0  0  0  0  0  0  0  0  0
  1  2  1  0
  2  3  1  0
  3  4  2  0
  4  5  1  0
  5  6  1  0
  5  7  1  0
  7  8  1  0
  7  2  1  0
  8  2  1  0
  1  9  1  0
  1 10  1  0
  1 11  1  0
  3 12  1  0
  4 13  1  0
  5 14  1  0
  6 15  1  0
  7 16  1  0
  8 17  1  0
  8 18  1  0
M  END
