
     RDKit          3D

 21 22  0  0  0  0  0  0  0  0999 V2000
    1.7143   -1.2400   -0.0942 C   0  0  0  0  0  0  0  0  0  0  0  0
    0.7442   -0.0881   -0.0834 C   0  0  0  0  0  0  0  0  0  0  0  0
    0.1001    0.2494   -1.3902 C   0  0  0  0  0  0  0  0  0  0  0  0
   -1.2573    0.7976   -0.9284 C   0  0  0  0  0  0  0  0  0  0  0  0
   -1.5854   -0.2498    0.1423 C   0  0  0  0  0  0  0  0  0  0  0  0
   -2.7098    0.0859    0.8502 O   0  0  0  0  0  0  0  0  0  0  0  0
   -0.3068   -0.1341    0.9706 C   0  0  0  0  0  0  0  0  0  0  0  0
   -0.0811    1.2088    1.2530 O   0  0  0  0  0  0  0  0  0  0  0  0
    1.2030    1.0667    0.7500 C   0  0  0  0  0  0  0  0  0  0  0  0
    2.4353   -1.0758   -0.9011 H   0  0  0  0  0  0  0  0  0  0  0  0
    2.2320   -1.2225    0.9080 H   0  0  0  0  0  0  0  0  0  0  0  0
    1.1972   -2.1960   -0.2738 H   0  0  0  0  0  0  0  0  0  0  0  0
    0.6462    0.9633   -2.0078 H   0  0  0  0  0  0  0  0  0  0  0  0
   -0.1325   -0.7017   -1.9083 H   0  0  0  0  0  0  0  0  0  0  0  0
   -1.9898    0.8321   -1.7241 H   0  0  0  0  0  0  0  0  0  0  0  0
   -1.0652    1.7311   -0.3952 H   0  0  0  0  0  0  0  0  0  0  0  0
   -1.5894   -1.2679   -0.2728 H   0  0  0  0  0  0  0  0  0  0  0  0
   -2.8339   -0.5579    1.5679 H   0  0  0  0  0  0  0  0  0  0  0  0
   -0.2035   -0.8404    1.7855 H   0  0  0  0  0  0  0  0  0  0  0  0
    1.8755    0.7096    1.5574 H   0  0  0  0  0  0  0  0  0  0  0  0
    1.6071    1.9296    0.1943 H   0  0  0  0  0  0  0  0  0  0  0  0
  1  2  1  0
  2  3  1  0
  3  4  1  0
  4  5  1  0
  5  6  1  0
  5  7  1  0
  7  8  1  0
  8  9  1  0
  7  2  1  0
  9  2  1  0
  1 10  1  0
  1 11  1  0
  1 12  1  0
  3 13  1  0
  3 14  1  0
  4 15  1  0
  4 16  1  0
  5 17  1  0
  6 18  1  0
  7 19  1  0
  9 20  1  0
  9 21  1  0
M  END
