
     RDKit          3D

 19 22  0  0  0  0  0  0  0  0999 V2000
    2.0192    0.4893    0.6570 C   0  0  0  0  0  0  0  0  0  0  0  0
    0.7084    0.1785    0.1097 C   0  0  0  0  0  0  0  0  0  0  0  0
   -0.5826    0.7574    0.5818 C   0  0  0  0  0  0  0  0  0  0  0  0
   -1.2908   -0.5375    1.0172 C   0  0  0  0  0  0  0  0  0  0  0  0
   -1.1240   -1.2258   -0.3500 C   0  0  0  0  0  0  0  0  0  0  0  0
   -1.8145   -0.2737   -1.1250 O   0  0  0  0  0  0  0  0  0  0  0  0
   -1.0264    0.8663   -0.8345 C   0  0  0  0  0  0  0  0  0  0  0  0
    0.3146    0.3477   -1.2640 C   0  0  0  0  0  0  0  0  0  0  0  0
    0.3286   -1.0048   -0.6657 C   0  0  0  0  0  0  0  0  0  0  0  0
    2.7283    0.7260   -0.1905 H   0  0  0  0  0  0  0  0  0  0  0  0
    1.9569    1.3989    1.3006 H   0  0  0  0  0  0  0  0  0  0  0  0
    2.4889   -0.3636    1.1863 H   0  0  0  0  0  0  0  0  0  0  0  0
   -0.6124    1.5817    1.2437 H   0  0  0  0  0  0  0  0  0  0  0  0
   -0.7231   -1.0366    1.7999 H   0  0  0  0  0  0  0  0  0  0  0  0
   -2.3512   -0.3660    1.2288 H   0  0  0  0  0  0  0  0  0  0  0  0
   -1.4937   -2.2162   -0.3952 H   0  0  0  0  0  0  0  0  0  0  0  0
   -1.3738    1.8026   -1.2221 H   0  0  0  0  0  0  0  0  0  0  0  0
    0.8600    0.6815   -2.1094 H   0  0  0  0  0  0  0  0  0  0  0  0
    0.9877   -1.8057   -0.9688 H   0  0  0  0  0  0  0  0  0  0  0  0
  1  2  1  0
  2  3  1  0
  3  4  1  0
  4  5  1  0
  5  6  1  0
  6  7  1  0
  7  8  1  0
  8  9  1  0
  8  2  1  0
  9  2  1  0
  7  3  1  0
  9  5  1  0
  1 10  1  0
  1 11  1  0
  1 12  1  0
  3 13  1  0
  4 14  1  0
  4 15  1  0
  5 16  1  0
  7 17  1  0
  8 18  1  0
  9 19  1  0
M  END
