
     RDKit          3D

 19 20  0  0  0  0  0  0  0  0999 V2000
    2.0970    0.4894    0.0286 C   0  0  0  0  0  0  0  0  0  0  0  0
    0.6806    0.1945   -0.1468 C   0  0  0  0  0  0  0  0  0  0  0  0
    0.3366   -1.2759   -0.3465 C   0  0  0  0  0  0  0  0  0  0  0  0
   -1.0993   -1.3458    0.0539 C   0  0  0  0  0  0  0  0  0  0  0  0
   -1.8355   -2.3125    0.0999 O   0  0  0  0  0  0  0  0  0  0  0  0
   -1.4830    0.0328    0.3999 C   0  0  0  0  0  0  0  0  0  0  0  0
   -1.3515    0.8513   -0.8634 C   0  0  0  0  0  0  0  0  0  0  0  0
    0.0152    0.9248   -1.1060 O   0  0  0  0  0  0  0  0  0  0  0  0
   -0.1832    0.4858    1.0944 C   0  0  0  0  0  0  0  0  0  0  0  0
    2.7112   -0.3743    0.3543 H   0  0  0  0  0  0  0  0  0  0  0  0
    2.5527    0.8248   -0.9480 H   0  0  0  0  0  0  0  0  0  0  0  0
    2.2261    1.3750    0.7063 H   0  0  0  0  0  0  0  0  0  0  0  0
    0.4945   -1.5492   -1.4022 H   0  0  0  0  0  0  0  0  0  0  0  0
    0.9293   -1.9363    0.3188 H   0  0  0  0  0  0  0  0  0  0  0  0
   -2.3615    0.1781    0.9771 H   0  0  0  0  0  0  0  0  0  0  0  0
   -1.7890    0.2417   -1.6839 H   0  0  0  0  0  0  0  0  0  0  0  0
   -1.7703    1.8536   -0.7878 H   0  0  0  0  0  0  0  0  0  0  0  0
    0.0342   -0.2019    1.9101 H   0  0  0  0  0  0  0  0  0  0  0  0
   -0.2039    1.5442    1.3415 H   0  0  0  0  0  0  0  0  0  0  0  0
  1  2  1  0
  2  3  1  0
  3  4  1  0
  4  5  2  0
  4  6  1  0
  6  7  1  0
  7  8  1  0
  6  9  1  0
  8  2  1  0
  9  2  1  0
  1 10  1  0
  1 11  1  0
  1 12  1  0
  3 13  1  0
  3 14  1  0
  6 15  1  0
  7 16  1  0
  7 17  1  0
  9 18  1  0
  9 19  1  0
M  END
