
     RDKit          3D

 21 22  0  0  0  0  0  0  0  0999 V2000
   -1.8178    1.2501   -0.4100 C   0  0  0  0  0  0  0  0  0  0  0  0
   -0.8150    0.2962    0.2200 C   0  0  0  0  0  0  0  0  0  0  0  0
   -1.4754   -0.8765    0.9452 C   0  0  0  0  0  0  0  0  0  0  0  0
   -1.2836   -1.6329   -0.1895 O   0  0  0  0  0  0  0  0  0  0  0  0
   -0.3451   -0.7274   -0.7307 C   0  0  0  0  0  0  0  0  0  0  0  0
    1.0646   -1.1529   -0.6060 C   0  0  0  0  0  0  0  0  0  0  0  0
    1.9947   -0.1510   -0.0266 C   0  0  0  0  0  0  0  0  0  0  0  0
    1.3591    1.0015    0.6544 C   0  0  0  0  0  0  0  0  0  0  0  0
    0.0755    0.8830    1.0274 O   0  0  0  0  0  0  0  0  0  0  0  0
   -2.5172    1.6801    0.3008 H   0  0  0  0  0  0  0  0  0  0  0  0
   -1.2098    2.0109   -0.9530 H   0  0  0  0  0  0  0  0  0  0  0  0
   -2.3442    0.6769   -1.2240 H   0  0  0  0  0  0  0  0  0  0  0  0
   -0.8488   -1.2709    1.7932 H   0  0  0  0  0  0  0  0  0  0  0  0
   -2.5031   -0.6104    1.2085 H   0  0  0  0  0  0  0  0  0  0  0  0
   -0.6716   -0.5252   -1.7913 H   0  0  0  0  0  0  0  0  0  0  0  0
    1.4377   -1.4289   -1.6368 H   0  0  0  0  0  0  0  0  0  0  0  0
    1.0782   -2.1407   -0.0573 H   0  0  0  0  0  0  0  0  0  0  0  0
    2.6943   -0.7071    0.6660 H   0  0  0  0  0  0  0  0  0  0  0  0
    2.6897    0.2586   -0.8196 H   0  0  0  0  0  0  0  0  0  0  0  0
    1.9669    1.2199    1.5834 H   0  0  0  0  0  0  0  0  0  0  0  0
    1.4711    1.9465    0.0458 H   0  0  0  0  0  0  0  0  0  0  0  0
  1  2  1  0
  2  3  1  0
  3  4  1  0
  4  5  1  0
  5  6  1  0
  6  7  1  0
  7  8  1  0
  8  9  1  0
  5  2  1  0
  9  2  1  0
  1 10  1  0
  1 11  1  0
  1 12  1  0
  3 13  1  0
  3 14  1  0
  5 15  1  0
  6 16  1  0
  6 17  1  0
  7 18  1  0
  7 19  1  0
  8 20  1  0
  8 21  1  0
M  END
