
     RDKit          3D

 21 22  0  0  0  0  0  0  0  0999 V2000
    2.2670   -0.3519   -0.5900 C   0  0  0  0  0  0  0  0  0  0  0  0
    0.7766   -0.1986   -0.2560 C   0  0  0  0  0  0  0  0  0  0  0  0
    0.4181   -0.9203    0.9724 C   0  0  0  0  0  0  0  0  0  0  0  0
   -0.8194   -1.4609    1.0676 O   0  0  0  0  0  0  0  0  0  0  0  0
   -1.8198   -0.9239    0.3439 C   0  0  0  0  0  0  0  0  0  0  0  0
   -1.7606    0.5664    0.1569 C   0  0  0  0  0  0  0  0  0  0  0  0
   -0.7182    0.8556   -0.8928 C   0  0  0  0  0  0  0  0  0  0  0  0
    0.5168    1.3104   -0.1777 C   0  0  0  0  0  0  0  0  0  0  0  0
   -0.0688   -0.3264   -1.3182 O   0  0  0  0  0  0  0  0  0  0  0  0
    2.7942    0.1587    0.2690 H   0  0  0  0  0  0  0  0  0  0  0  0
    2.5479    0.1995   -1.4874 H   0  0  0  0  0  0  0  0  0  0  0  0
    2.5763   -1.3974   -0.5503 H   0  0  0  0  0  0  0  0  0  0  0  0
    1.1549   -1.7685    1.1112 H   0  0  0  0  0  0  0  0  0  0  0  0
    0.6347   -0.2471    1.8536 H   0  0  0  0  0  0  0  0  0  0  0  0
   -2.7967   -1.1336    0.8706 H   0  0  0  0  0  0  0  0  0  0  0  0
   -1.9586   -1.3927   -0.6713 H   0  0  0  0  0  0  0  0  0  0  0  0
   -1.4736    0.9956    1.1624 H   0  0  0  0  0  0  0  0  0  0  0  0
   -2.7235    1.0115   -0.0939 H   0  0  0  0  0  0  0  0  0  0  0  0
   -1.0340    1.4188   -1.7675 H   0  0  0  0  0  0  0  0  0  0  0  0
    0.3379    1.6887    0.8369 H   0  0  0  0  0  0  0  0  0  0  0  0
    1.1487    1.9161   -0.8393 H   0  0  0  0  0  0  0  0  0  0  0  0
  1  2  1  0
  2  3  1  0
  3  4  1  0
  4  5  1  0
  5  6  1  0
  6  7  1  0
  7  8  1  0
  7  9  1  0
  8  2  1  0
  9  2  1  0
  1 10  1  0
  1 11  1  0
  1 12  1  0
  3 13  1  0
  3 14  1  0
  5 15  1  0
  5 16  1  0
  6 17  1  0
  6 18  1  0
  7 19  1  0
  8 20  1  0
  8 21  1  0
M  END
