
     RDKit          3D

 23 25  0  0  0  0  0  0  0  0999 V2000
    2.3582    0.3016    0.5676 C   0  0  0  0  0  0  0  0  0  0  0  0
    1.1377   -0.3689    0.0360 C   0  0  0  0  0  0  0  0  0  0  0  0
    0.1801   -1.0753    0.9749 C   0  0  0  0  0  0  0  0  0  0  0  0
   -0.9410   -0.4173    0.3183 C   0  0  0  0  0  0  0  0  0  0  0  0
   -2.2933   -0.2546    0.6662 C   0  0  0  0  0  0  0  0  0  0  0  0
   -1.9530   -1.3242   -0.3635 C   0  0  0  0  0  0  0  0  0  0  0  0
   -0.0330    0.4381   -0.4645 C   0  0  0  0  0  0  0  0  0  0  0  0
   -0.0347    1.9141   -0.4167 C   0  0  0  0  0  0  0  0  0  0  0  0
    0.8622   -0.3198   -1.4196 C   0  0  0  0  0  0  0  0  0  0  0  0
    2.6073    1.1482   -0.1318 H   0  0  0  0  0  0  0  0  0  0  0  0
    3.2316   -0.4049    0.4870 H   0  0  0  0  0  0  0  0  0  0  0  0
    2.2694    0.6913    1.5840 H   0  0  0  0  0  0  0  0  0  0  0  0
    0.1962   -2.1765    0.9320 H   0  0  0  0  0  0  0  0  0  0  0  0
    0.4266   -0.7627    2.0316 H   0  0  0  0  0  0  0  0  0  0  0  0
   -2.8783    0.6102    0.2853 H   0  0  0  0  0  0  0  0  0  0  0  0
   -2.7049   -0.6473    1.6191 H   0  0  0  0  0  0  0  0  0  0  0  0
   -2.0151   -2.3794   -0.0300 H   0  0  0  0  0  0  0  0  0  0  0  0
   -2.0798   -1.0929   -1.4348 H   0  0  0  0  0  0  0  0  0  0  0  0
   -0.9407    2.2838    0.0819 H   0  0  0  0  0  0  0  0  0  0  0  0
   -0.0932    2.3014   -1.4744 H   0  0  0  0  0  0  0  0  0  0  0  0
    0.8446    2.3659    0.0980 H   0  0  0  0  0  0  0  0  0  0  0  0
    1.5241    0.3219   -2.0101 H   0  0  0  0  0  0  0  0  0  0  0  0
    0.3289   -1.1526   -1.9365 H   0  0  0  0  0  0  0  0  0  0  0  0
  1  2  1  0
  2  3  1  0
  3  4  1  0
  4  5  1  0
  5  6  1  0
  4  7  1  0
  7  8  1  0
  7  9  1  0
  7  2  1  0
  9  2  1  0
  6  4  1  0
  1 10  1  0
  1 11  1  0
  1 12  1  0
  3 13  1  0
  3 14  1  0
  5 15  1  0
  5 16  1  0
  6 17  1  0
  6 18  1  0
  8 19  1  0
  8 20  1  0
  8 21  1  0
  9 22  1  0
  9 23  1  0
M  END
