
     RDKit          2D

 21 23  0  0  0  0  0  0  0  0999 V2000
    0.6118    3.9766    0.0000 C   0  0  0  0  0  0  0  0  0  0  0  0
   -0.0692    2.6401    0.0000 C   0  0  0  0  0  0  0  0  0  0  0  0
   -1.4958    2.1766    0.0000 C   0  0  0  0  0  0  0  0  0  0  0  0
   -1.0323    0.7500    0.0000 C   0  0  0  0  0  0  0  0  0  0  0  0
   -2.5138    0.5153    0.0000 C   0  0  0  0  0  0  0  0  0  0  0  0
    0.3943    1.2135    0.0000 C   0  0  0  0  0  0  0  0  0  0  0  0
    1.2760    0.0000    0.0000 C   0  0  0  0  0  0  0  0  0  0  0  0
    0.3943   -1.2135    0.0000 O   0  0  0  0  0  0  0  0  0  0  0  0
   -1.0323   -0.7500    0.0000 C   0  0  0  0  0  0  0  0  0  0  0  0
    1.2927    5.3131    0.0000 H   0  0  0  0  0  0  0  0  0  0  0  0
    1.9483    3.2956    0.0000 H   0  0  0  0  0  0  0  0  0  0  0  0
   -0.7248    4.6576    0.0000 H   0  0  0  0  0  0  0  0  0  0  0  0
   -2.2783    2.0245    0.0000 H   0  0  0  0  0  0  0  0  0  0  0  0
   -1.9593    3.6032    0.0000 H   0  0  0  0  0  0  0  0  0  0  0  0
   -3.9954    0.2807    0.0000 H   0  0  0  0  0  0  0  0  0  0  0  0
   -2.7336    1.2816    0.0000 H   0  0  0  0  0  0  0  0  0  0  0  0
   -2.4615   -0.9837    0.0000 H   0  0  0  0  0  0  0  0  0  0  0  0
    1.7308    1.8945    0.0000 H   0  0  0  0  0  0  0  0  0  0  0  0
    2.3907    1.0037    0.0000 H   0  0  0  0  0  0  0  0  0  0  0  0
    2.3907   -1.0037    0.0000 H   0  0  0  0  0  0  0  0  0  0  0  0
   -2.1293   -1.7730    0.0000 H   0  0  0  0  0  0  0  0  0  0  0  0
  1  2  1  0
  2  3  1  0
  3  4  1  0
  4  5  1  0
  4  6  1  0
  6  7  1  0
  7  8  1  0
  8  9  1  0
  6  2  1  0
  9  2  1  0
  9  4  1  0
  1 10  1  0
  1 11  1  0
  1 12  1  0
  3 13  1  0
  3 14  1  0
  5 15  1  0
  5 16  1  0
  5 17  1  0
  6 18  1  0
  7 19  1  0
  7 20  1  0
  9 21  1  0
M  END
