
     RDKit          3D

 19 21  0  0  0  0  0  0  0  0999 V2000
   -2.3267    0.0353    0.1877 C   0  0  0  0  0  0  0  0  0  0  0  0
   -1.0235   -0.3931    0.7644 C   0  0  0  0  0  0  0  0  0  0  0  0
   -0.7622   -1.6809    1.1316 O   0  0  0  0  0  0  0  0  0  0  0  0
   -0.2043   -1.3093   -0.0855 C   0  0  0  0  0  0  0  0  0  0  0  0
    0.8421   -0.2855   -0.1962 C   0  0  0  0  0  0  0  0  0  0  0  0
    2.2607   -0.7252   -0.0127 C   0  0  0  0  0  0  0  0  0  0  0  0
    0.5906    1.1481   -0.4287 C   0  0  0  0  0  0  0  0  0  0  0  0
   -0.3552    1.5555   -1.3619 O   0  0  0  0  0  0  0  0  0  0  0  0
    0.1475    0.5488    0.8315 C   0  0  0  0  0  0  0  0  0  0  0  0
   -2.6016   -0.5392   -0.7454 H   0  0  0  0  0  0  0  0  0  0  0  0
   -3.1941   -0.0885    0.8632 H   0  0  0  0  0  0  0  0  0  0  0  0
   -2.2778    1.0857   -0.1167 H   0  0  0  0  0  0  0  0  0  0  0  0
   -0.6215   -1.8378   -0.9462 H   0  0  0  0  0  0  0  0  0  0  0  0
    2.7743   -0.5715   -1.0076 H   0  0  0  0  0  0  0  0  0  0  0  0
    2.8212   -0.0960    0.6987 H   0  0  0  0  0  0  0  0  0  0  0  0
    2.3476   -1.8102    0.1856 H   0  0  0  0  0  0  0  0  0  0  0  0
    1.4685    1.8175   -0.3792 H   0  0  0  0  0  0  0  0  0  0  0  0
   -0.5648    2.5243   -1.1656 H   0  0  0  0  0  0  0  0  0  0  0  0
    0.6792    0.6221    1.7831 H   0  0  0  0  0  0  0  0  0  0  0  0
  1  2  1  0
  2  3  1  0
  3  4  1  0
  4  5  1  0
  5  6  1  0
  5  7  1  0
  7  8  1  0
  7  9  1  0
  4  2  1  0
  9  5  1  0
  9  2  1  0
  1 10  1  0
  1 11  1  0
  1 12  1  0
  4 13  1  0
  6 14  1  0
  6 15  1  0
  6 16  1  0
  7 17  1  0
  8 18  1  0
  9 19  1  0
M  END
