
     RDKit          3D

 20 21  0  0  0  0  0  0  0  0999 V2000
   -1.5589   -0.8800   -0.7145 C   0  0  0  0  0  0  0  0  0  0  0  0
   -0.5881   -0.0130    0.0005 C   0  0  0  0  0  0  0  0  0  0  0  0
   -0.7157    1.4729   -0.2575 C   0  0  0  0  0  0  0  0  0  0  0  0
    0.6649    1.9679    0.1112 C   0  0  0  0  0  0  0  0  0  0  0  0
    1.5434    0.9301   -0.0488 O   0  0  0  0  0  0  0  0  0  0  0  0
    0.8428   -0.2513    0.0842 C   0  0  0  0  0  0  0  0  0  0  0  0
    1.5118   -1.5259   -0.3046 C   0  0  0  0  0  0  0  0  0  0  0  0
   -0.0560   -0.3882    1.3224 C   0  0  0  0  0  0  0  0  0  0  0  0
   -2.5773   -0.6731   -0.2880 H   0  0  0  0  0  0  0  0  0  0  0  0
   -1.3497   -1.9394   -0.4665 H   0  0  0  0  0  0  0  0  0  0  0  0
   -1.6286   -0.6986   -1.7938 H   0  0  0  0  0  0  0  0  0  0  0  0
   -0.9927    1.7089   -1.2949 H   0  0  0  0  0  0  0  0  0  0  0  0
   -1.4495    1.8576    0.4931 H   0  0  0  0  0  0  0  0  0  0  0  0
    0.9029    2.7908   -0.6144 H   0  0  0  0  0  0  0  0  0  0  0  0
    0.6761    2.4018    1.1407 H   0  0  0  0  0  0  0  0  0  0  0  0
    1.8962   -1.5421   -1.3442 H   0  0  0  0  0  0  0  0  0  0  0  0
    0.7316   -2.3401   -0.2301 H   0  0  0  0  0  0  0  0  0  0  0  0
    2.3054   -1.8500    0.4206 H   0  0  0  0  0  0  0  0  0  0  0  0
    0.1457    0.3745    2.1091 H   0  0  0  0  0  0  0  0  0  0  0  0
   -0.3042   -1.4027    1.6756 H   0  0  0  0  0  0  0  0  0  0  0  0
  1  2  1  0
  2  3  1  0
  3  4  1  0
  4  5  1  0
  5  6  1  0
  6  7  1  0
  6  8  1  0
  6  2  1  0
  8  2  1  0
  1  9  1  0
  1 10  1  0
  1 11  1  0
  3 12  1  0
  3 13  1  0
  4 14  1  0
  4 15  1  0
  7 16  1  0
  7 17  1  0
  7 18  1  0
  8 19  1  0
  8 20  1  0
M  END
