
     RDKit          3D

 15 16  0  0  0  0  0  0  0  0999 V2000
    2.0659    0.0245   -0.0574 C   0  0  0  0  0  0  0  0  0  0  0  0
    0.5876   -0.1494    0.0429 C   0  0  0  0  0  0  0  0  0  0  0  0
   -0.1200    0.9307    0.7924 C   0  0  0  0  0  0  0  0  0  0  0  0
   -1.4098    0.8349    0.5326 C   0  0  0  0  0  0  0  0  0  0  0  0
   -1.7113   -0.2814   -0.3896 C   0  0  0  0  0  0  0  0  0  0  0  0
   -0.3087   -0.7862   -0.7621 C   0  0  0  0  0  0  0  0  0  0  0  0
    0.2268   -1.4841    0.4367 O   0  0  0  0  0  0  0  0  0  0  0  0
    2.6097   -0.9123   -0.3115 H   0  0  0  0  0  0  0  0  0  0  0  0
    2.2769    0.8416   -0.8046 H   0  0  0  0  0  0  0  0  0  0  0  0
    2.4348    0.3160    0.9632 H   0  0  0  0  0  0  0  0  0  0  0  0
    0.3212    1.6779    1.4439 H   0  0  0  0  0  0  0  0  0  0  0  0
   -2.2001    1.4869    0.9332 H   0  0  0  0  0  0  0  0  0  0  0  0
   -2.2754    0.0379   -1.2659 H   0  0  0  0  0  0  0  0  0  0  0  0
   -2.2680   -1.1140    0.0992 H   0  0  0  0  0  0  0  0  0  0  0  0
   -0.2297   -1.4231   -1.6528 H   0  0  0  0  0  0  0  0  0  0  0  0
  1  2  1  0
  2  3  1  0
  3  4  2  0
  4  5  1  0
  5  6  1  0
  6  7  1  0
  6  2  1  0
  7  2  1  0
  1  8  1  0
  1  9  1  0
  1 10  1  0
  3 11  1  0
  4 12  1  0
  5 13  1  0
  5 14  1  0
  6 15  1  0
M  END
