
     RDKit          3D

 23 24  0  0  0  0  0  0  0  0999 V2000
   -0.6854    1.9170   -0.3102 C   0  0  0  0  0  0  0  0  0  0  0  0
   -0.2963    0.5283   -0.7017 C   0  0  0  0  0  0  0  0  0  0  0  0
    1.1236    0.3508   -1.1611 C   0  0  0  0  0  0  0  0  0  0  0  0
    1.7490   -0.5879   -0.1737 C   0  0  0  0  0  0  0  0  0  0  0  0
    2.5551    0.1570    0.6738 O   0  0  0  0  0  0  0  0  0  0  0  0
    0.6280   -1.2915    0.5165 C   0  0  0  0  0  0  0  0  0  0  0  0
   -0.6307   -0.5445    0.2569 C   0  0  0  0  0  0  0  0  0  0  0  0
   -1.5911   -0.2653    1.4108 C   0  0  0  0  0  0  0  0  0  0  0  0
   -1.2562   -0.5007   -1.1039 C   0  0  0  0  0  0  0  0  0  0  0  0
   -0.2185    2.1204    0.6978 H   0  0  0  0  0  0  0  0  0  0  0  0
   -0.2289    2.6319   -1.0099 H   0  0  0  0  0  0  0  0  0  0  0  0
   -1.7652    2.0660   -0.1727 H   0  0  0  0  0  0  0  0  0  0  0  0
    1.6631    1.2992   -1.2754 H   0  0  0  0  0  0  0  0  0  0  0  0
    1.0906   -0.1162   -2.1754 H   0  0  0  0  0  0  0  0  0  0  0  0
    2.3238   -1.3610   -0.7457 H   0  0  0  0  0  0  0  0  0  0  0  0
    3.0166   -0.3567    1.3556 H   0  0  0  0  0  0  0  0  0  0  0  0
    0.5035   -2.3522    0.2029 H   0  0  0  0  0  0  0  0  0  0  0  0
    0.7980   -1.3139    1.6138 H   0  0  0  0  0  0  0  0  0  0  0  0
   -1.9608    0.7685    1.4079 H   0  0  0  0  0  0  0  0  0  0  0  0
   -2.4535   -0.9656    1.2791 H   0  0  0  0  0  0  0  0  0  0  0  0
   -1.1378   -0.5214    2.3819 H   0  0  0  0  0  0  0  0  0  0  0  0
   -2.3366   -0.3449   -1.1864 H   0  0  0  0  0  0  0  0  0  0  0  0
   -0.8905   -1.3173   -1.7810 H   0  0  0  0  0  0  0  0  0  0  0  0
  1  2  1  0
  2  3  1  0
  3  4  1  0
  4  5  1  0
  4  6  1  0
  6  7  1  0
  7  8  1  0
  7  9  1  0
  7  2  1  0
  9  2  1  0
  1 10  1  0
  1 11  1  0
  1 12  1  0
  3 13  1  0
  3 14  1  0
  4 15  1  0
  5 16  1  0
  6 17  1  0
  6 18  1  0
  8 19  1  0
  8 20  1  0
  8 21  1  0
  9 22  1  0
  9 23  1  0
M  END
