
     RDKit          3D

 23 24  0  0  0  0  0  0  0  0999 V2000
   -1.5462    1.0812    1.1287 C   0  0  0  0  0  0  0  0  0  0  0  0
   -0.9069    0.2567    0.0516 C   0  0  0  0  0  0  0  0  0  0  0  0
   -1.1595   -1.2090    0.1302 C   0  0  0  0  0  0  0  0  0  0  0  0
   -0.1847   -1.8799   -0.8137 C   0  0  0  0  0  0  0  0  0  0  0  0
    1.0372   -1.0023   -0.6663 C   0  0  0  0  0  0  0  0  0  0  0  0
    0.5226    0.3577   -0.2831 C   0  0  0  0  0  0  0  0  0  0  0  0
    1.3766    1.1519    0.6620 C   0  0  0  0  0  0  0  0  0  0  0  0
    2.6765    1.1301    0.1803 O   0  0  0  0  0  0  0  0  0  0  0  0
   -0.4689    0.9435   -1.1745 C   0  0  0  0  0  0  0  0  0  0  0  0
   -1.0761    2.0744    1.2401 H   0  0  0  0  0  0  0  0  0  0  0  0
   -2.6232    1.2662    0.9235 H   0  0  0  0  0  0  0  0  0  0  0  0
   -1.5053    0.4805    2.0639 H   0  0  0  0  0  0  0  0  0  0  0  0
   -0.8712   -1.5411    1.1575 H   0  0  0  0  0  0  0  0  0  0  0  0
   -2.1995   -1.5160   -0.0210 H   0  0  0  0  0  0  0  0  0  0  0  0
    0.0819   -2.8751   -0.4322 H   0  0  0  0  0  0  0  0  0  0  0  0
   -0.5750   -1.8785   -1.8416 H   0  0  0  0  0  0  0  0  0  0  0  0
    1.5135   -0.9395   -1.6623 H   0  0  0  0  0  0  0  0  0  0  0  0
    1.7657   -1.4167    0.0601 H   0  0  0  0  0  0  0  0  0  0  0  0
    1.0282    2.1637    0.8435 H   0  0  0  0  0  0  0  0  0  0  0  0
    1.3229    0.6169    1.6560 H   0  0  0  0  0  0  0  0  0  0  0  0
    2.9897    0.2112    0.1789 H   0  0  0  0  0  0  0  0  0  0  0  0
   -0.6397    0.4872   -2.1885 H   0  0  0  0  0  0  0  0  0  0  0  0
   -0.5587    2.0371   -1.1931 H   0  0  0  0  0  0  0  0  0  0  0  0
  1  2  1  0
  2  3  1  0
  3  4  1  0
  4  5  1  0
  5  6  1  0
  6  7  1  0
  7  8  1  0
  6  9  1  0
  6  2  1  0
  9  2  1  0
  1 10  1  0
  1 11  1  0
  1 12  1  0
  3 13  1  0
  3 14  1  0
  4 15  1  0
  4 16  1  0
  5 17  1  0
  5 18  1  0
  7 19  1  0
  7 20  1  0
  8 21  1  0
  9 22  1  0
  9 23  1  0
M  END
