
     RDKit          3D

 21 23  0  0  0  0  0  0  0  0999 V2000
    2.0936    0.5991   -0.0661 C   0  0  0  0  0  0  0  0  0  0  0  0
    0.8215   -0.1552   -0.0198 C   0  0  0  0  0  0  0  0  0  0  0  0
    0.4126   -0.9442    1.1984 C   0  0  0  0  0  0  0  0  0  0  0  0
   -1.0370   -0.6538    0.7990 C   0  0  0  0  0  0  0  0  0  0  0  0
   -1.4540   -1.6464   -0.2166 C   0  0  0  0  0  0  0  0  0  0  0  0
   -0.8967   -1.4067   -1.3948 C   0  0  0  0  0  0  0  0  0  0  0  0
   -0.0300   -0.1925   -1.2638 C   0  0  0  0  0  0  0  0  0  0  0  0
   -0.5055    0.4533   -0.0552 C   0  0  0  0  0  0  0  0  0  0  0  0
   -0.8233    1.8638    0.1371 C   0  0  0  0  0  0  0  0  0  0  0  0
    2.3634    0.7713   -1.1425 H   0  0  0  0  0  0  0  0  0  0  0  0
    2.1181    1.5287    0.5137 H   0  0  0  0  0  0  0  0  0  0  0  0
    2.9134   -0.0616    0.3251 H   0  0  0  0  0  0  0  0  0  0  0  0
    0.6751   -2.0128    1.1989 H   0  0  0  0  0  0  0  0  0  0  0  0
    0.5978   -0.4105    2.1702 H   0  0  0  0  0  0  0  0  0  0  0  0
   -1.7161   -0.4197    1.5999 H   0  0  0  0  0  0  0  0  0  0  0  0
   -2.1285   -2.4632   -0.0194 H   0  0  0  0  0  0  0  0  0  0  0  0
   -1.0072   -1.9560   -2.3322 H   0  0  0  0  0  0  0  0  0  0  0  0
    0.3756    0.2779   -2.1453 H   0  0  0  0  0  0  0  0  0  0  0  0
   -1.4434    1.9844    1.0641 H   0  0  0  0  0  0  0  0  0  0  0  0
    0.0925    2.4959    0.3280 H   0  0  0  0  0  0  0  0  0  0  0  0
   -1.4221    2.3482   -0.6789 H   0  0  0  0  0  0  0  0  0  0  0  0
  1  2  1  0
  2  3  1  0
  3  4  1  0
  4  5  1  0
  5  6  2  0
  6  7  1  0
  7  8  1  0
  8  9  1  0
  7  2  1  0
  8  2  1  0
  8  4  1  0
  1 10  1  0
  1 11  1  0
  1 12  1  0
  3 13  1  0
  3 14  1  0
  4 15  1  0
  5 16  1  0
  6 17  1  0
  7 18  1  0
  9 19  1  0
  9 20  1  0
  9 21  1  0
M  END
