
     RDKit          3D

 21 23  0  0  0  0  0  0  0  0999 V2000
    2.3401    0.2735   -0.4493 C   0  0  0  0  0  0  0  0  0  0  0  0
    0.8678    0.2565   -0.2711 C   0  0  0  0  0  0  0  0  0  0  0  0
    0.1576    1.2656    0.5717 C   0  0  0  0  0  0  0  0  0  0  0  0
   -0.6580    2.0746   -0.2297 O   0  0  0  0  0  0  0  0  0  0  0  0
   -0.6075    0.1255    1.2313 C   0  0  0  0  0  0  0  0  0  0  0  0
   -1.8641   -0.1528    0.4188 C   0  0  0  0  0  0  0  0  0  0  0  0
   -1.4066   -0.8683   -0.8326 C   0  0  0  0  0  0  0  0  0  0  0  0
    0.0961   -0.9105   -0.7633 C   0  0  0  0  0  0  0  0  0  0  0  0
    0.3688   -0.8269    0.6761 C   0  0  0  0  0  0  0  0  0  0  0  0
    2.8774    0.4760    0.5232 H   0  0  0  0  0  0  0  0  0  0  0  0
    2.7359    0.9785   -1.1701 H   0  0  0  0  0  0  0  0  0  0  0  0
    2.6970   -0.7591   -0.7346 H   0  0  0  0  0  0  0  0  0  0  0  0
    0.8381    1.8194    1.2395 H   0  0  0  0  0  0  0  0  0  0  0  0
   -0.8350    1.6363   -1.0987 H   0  0  0  0  0  0  0  0  0  0  0  0
   -0.7388    0.2028    2.3059 H   0  0  0  0  0  0  0  0  0  0  0  0
   -2.5295   -0.8234    1.0077 H   0  0  0  0  0  0  0  0  0  0  0  0
   -2.4261    0.7653    0.2215 H   0  0  0  0  0  0  0  0  0  0  0  0
   -1.8096   -0.4563   -1.7549 H   0  0  0  0  0  0  0  0  0  0  0  0
   -1.7504   -1.9414   -0.7887 H   0  0  0  0  0  0  0  0  0  0  0  0
    0.5931   -1.7043   -1.3374 H   0  0  0  0  0  0  0  0  0  0  0  0
    1.0536   -1.4309    1.2346 H   0  0  0  0  0  0  0  0  0  0  0  0
  1  2  1  0
  2  3  1  0
  3  4  1  0
  3  5  1  0
  5  6  1  0
  6  7  1  0
  7  8  1  0
  8  9  1  0
  8  2  1  0
  9  2  1  0
  9  5  1  0
  1 10  1  0
  1 11  1  0
  1 12  1  0
  3 13  1  0
  4 14  1  0
  5 15  1  0
  6 16  1  0
  6 17  1  0
  7 18  1  0
  7 19  1  0
  8 20  1  0
  9 21  1  0
M  END
