
     RDKit          3D

 23 25  0  0  0  0  0  0  0  0999 V2000
    2.5058   -0.3373    0.2042 C   0  0  0  0  0  0  0  0  0  0  0  0
    0.9947   -0.1554   -0.0162 C   0  0  0  0  0  0  0  0  0  0  0  0
    0.2990   -1.4535   -0.2041 C   0  0  0  0  0  0  0  0  0  0  0  0
   -1.1720   -1.4357   -0.2278 C   0  0  0  0  0  0  0  0  0  0  0  0
   -1.8671   -0.2942    0.3798 C   0  0  0  0  0  0  0  0  0  0  0  0
   -1.1020    0.9601    0.5565 C   0  0  0  0  0  0  0  0  0  0  0  0
   -0.7768    1.6112   -0.7525 C   0  0  0  0  0  0  0  0  0  0  0  0
    0.6132    1.0927   -0.6605 C   0  0  0  0  0  0  0  0  0  0  0  0
    0.3346    0.8279    0.8490 C   0  0  0  0  0  0  0  0  0  0  0  0
    2.6608   -1.2274    0.8501 H   0  0  0  0  0  0  0  0  0  0  0  0
    2.8848    0.5961    0.6192 H   0  0  0  0  0  0  0  0  0  0  0  0
    2.9139   -0.5393   -0.8283 H   0  0  0  0  0  0  0  0  0  0  0  0
    0.6739   -2.1392    0.6138 H   0  0  0  0  0  0  0  0  0  0  0  0
    0.7198   -1.9198   -1.1438 H   0  0  0  0  0  0  0  0  0  0  0  0
   -1.5429   -2.3779    0.2799 H   0  0  0  0  0  0  0  0  0  0  0  0
   -1.5063   -1.5816   -1.2985 H   0  0  0  0  0  0  0  0  0  0  0  0
   -2.7720   -0.0368   -0.2477 H   0  0  0  0  0  0  0  0  0  0  0  0
   -2.3148   -0.5640    1.3812 H   0  0  0  0  0  0  0  0  0  0  0  0
   -1.6436    1.6518    1.2575 H   0  0  0  0  0  0  0  0  0  0  0  0
   -1.3234    1.2515   -1.6315 H   0  0  0  0  0  0  0  0  0  0  0  0
   -0.8433    2.7351   -0.6622 H   0  0  0  0  0  0  0  0  0  0  0  0
    1.4000    1.8627   -0.8747 H   0  0  0  0  0  0  0  0  0  0  0  0
    0.8639    1.4732    1.5566 H   0  0  0  0  0  0  0  0  0  0  0  0
  1  2  1  0
  2  3  1  0
  3  4  1  0
  4  5  1  0
  5  6  1  0
  6  7  1  0
  7  8  1  0
  8  9  1  0
  8  2  1  0
  9  2  1  0
  9  6  1  0
  1 10  1  0
  1 11  1  0
  1 12  1  0
  3 13  1  0
  3 14  1  0
  4 15  1  0
  4 16  1  0
  5 17  1  0
  5 18  1  0
  6 19  1  0
  7 20  1  0
  7 21  1  0
  8 22  1  0
  9 23  1  0
M  END
