
     RDKit          3D

 19 20  0  0  0  0  0  0  0  0999 V2000
   -1.6484    1.1481    0.2349 C   0  0  0  0  0  0  0  0  0  0  0  0
   -0.8252    0.0641    0.1302 C   0  0  0  0  0  0  0  0  0  0  0  0
   -1.1206   -1.2440   -0.5599 C   0  0  0  0  0  0  0  0  0  0  0  0
    0.2880   -1.3874   -0.0459 C   0  0  0  0  0  0  0  0  0  0  0  0
   -0.1896   -0.7375    1.1635 C   0  0  0  0  0  0  0  0  0  0  0  0
   -0.1115   -0.8108    2.3372 O   0  0  0  0  0  0  0  0  0  0  0  0
    0.5043   -0.0022   -0.5890 C   0  0  0  0  0  0  0  0  0  0  0  0
    1.5384    0.7517    0.1843 C   0  0  0  0  0  0  0  0  0  0  0  0
    2.7956    0.7379   -0.4150 O   0  0  0  0  0  0  0  0  0  0  0  0
   -1.5922    1.6897    1.2236 H   0  0  0  0  0  0  0  0  0  0  0  0
   -1.4482    1.9593   -0.5250 H   0  0  0  0  0  0  0  0  0  0  0  0
   -2.7442    0.9276    0.1026 H   0  0  0  0  0  0  0  0  0  0  0  0
   -1.8239   -1.8848    0.0063 H   0  0  0  0  0  0  0  0  0  0  0  0
   -1.2499   -1.2076   -1.6444 H   0  0  0  0  0  0  0  0  0  0  0  0
    0.8859   -2.1822   -0.1548 H   0  0  0  0  0  0  0  0  0  0  0  0
    0.4862    0.1244   -1.6669 H   0  0  0  0  0  0  0  0  0  0  0  0
    1.2367    1.8046    0.3978 H   0  0  0  0  0  0  0  0  0  0  0  0
    1.6737    0.2790    1.1894 H   0  0  0  0  0  0  0  0  0  0  0  0
    3.3449   -0.0298   -0.0777 H   0  0  0  0  0  0  0  0  0  0  0  0
  1  2  1  0
  2  3  1  0
  3  4  1  0
  4  5  1  0
  5  6  2  0
  4  7  1  0
  7  8  1  0
  8  9  1  0
  5  2  1  0
  7  2  1  0
  1 10  1  0
  1 11  1  0
  1 12  1  0
  3 13  1  0
  3 14  1  0
  4 15  1  0
  7 16  1  0
  8 17  1  0
  8 18  1  0
  9 19  1  0
M  END
