
     RDKit          3D

 21 23  0  0  0  0  0  0  0  0999 V2000
   -1.7947    1.4635   -0.0781 C   0  0  0  0  0  0  0  0  0  0  0  0
   -1.1180    0.2336    0.4112 C   0  0  0  0  0  0  0  0  0  0  0  0
   -1.9207   -1.0768    0.4473 C   0  0  0  0  0  0  0  0  0  0  0  0
   -0.6259   -1.7475   -0.0362 C   0  0  0  0  0  0  0  0  0  0  0  0
    0.0237   -0.3952    0.1125 C   0  0  0  0  0  0  0  0  0  0  0  0
    1.2496   -0.0588   -0.6595 C   0  0  0  0  0  0  0  0  0  0  0  0
    2.0662    1.1542   -0.1816 C   0  0  0  0  0  0  0  0  0  0  0  0
    2.5961   -0.2641   -0.0230 C   0  0  0  0  0  0  0  0  0  0  0  0
   -0.1032    0.2777    1.3305 O   0  0  0  0  0  0  0  0  0  0  0  0
   -2.8834    1.2231   -0.2235 H   0  0  0  0  0  0  0  0  0  0  0  0
   -1.3418    1.8781   -0.9817 H   0  0  0  0  0  0  0  0  0  0  0  0
   -1.7724    2.2312    0.7217 H   0  0  0  0  0  0  0  0  0  0  0  0
   -2.1659   -1.3202    1.4925 H   0  0  0  0  0  0  0  0  0  0  0  0
   -2.7314   -1.0632   -0.2806 H   0  0  0  0  0  0  0  0  0  0  0  0
   -0.2803   -2.5221    0.6547 H   0  0  0  0  0  0  0  0  0  0  0  0
   -0.7588   -2.0475   -1.0796 H   0  0  0  0  0  0  0  0  0  0  0  0
    1.1921   -0.1670   -1.7523 H   0  0  0  0  0  0  0  0  0  0  0  0
    2.6238    1.7294   -0.9428 H   0  0  0  0  0  0  0  0  0  0  0  0
    1.7275    1.6969    0.7015 H   0  0  0  0  0  0  0  0  0  0  0  0
    3.3974   -0.6238   -0.6670 H   0  0  0  0  0  0  0  0  0  0  0  0
    2.6202   -0.6016    1.0342 H   0  0  0  0  0  0  0  0  0  0  0  0
  1  2  1  0
  2  3  1  0
  3  4  1  0
  4  5  1  0
  5  6  1  0
  6  7  1  0
  7  8  1  0
  5  9  1  0
  5  2  1  0
  8  6  1  0
  9  2  1  0
  1 10  1  0
  1 11  1  0
  1 12  1  0
  3 13  1  0
  3 14  1  0
  4 15  1  0
  4 16  1  0
  6 17  1  0
  7 18  1  0
  7 19  1  0
  8 20  1  0
  8 21  1  0
M  END
