
     RDKit          3D

 19 21  0  0  0  0  0  0  0  0999 V2000
    1.9432   -0.7523   -0.7136 C   0  0  0  0  0  0  0  0  0  0  0  0
    0.6751   -0.2663    0.0001 C   0  0  0  0  0  0  0  0  0  0  0  0
    0.8504    0.6555    1.1797 C   0  0  0  0  0  0  0  0  0  0  0  0
    0.3607    1.1414   -0.1435 C   0  0  0  0  0  0  0  0  0  0  0  0
   -1.0470    1.5014   -0.3201 C   0  0  0  0  0  0  0  0  0  0  0  0
   -2.0022    0.6032   -0.2342 C   0  0  0  0  0  0  0  0  0  0  0  0
   -1.7611   -0.8324    0.0436 C   0  0  0  0  0  0  0  0  0  0  0  0
   -1.2658   -1.1589    1.3128 O   0  0  0  0  0  0  0  0  0  0  0  0
   -0.4344   -1.2335    0.0818 C   0  0  0  0  0  0  0  0  0  0  0  0
    1.9228   -0.3249   -1.7573 H   0  0  0  0  0  0  0  0  0  0  0  0
    2.8497   -0.4093   -0.2183 H   0  0  0  0  0  0  0  0  0  0  0  0
    1.8913   -1.8404   -0.8235 H   0  0  0  0  0  0  0  0  0  0  0  0
    1.8769    0.8084    1.5126 H   0  0  0  0  0  0  0  0  0  0  0  0
    0.0756    0.6224    1.9737 H   0  0  0  0  0  0  0  0  0  0  0  0
    1.1051    1.8017   -0.6744 H   0  0  0  0  0  0  0  0  0  0  0  0
   -1.2970    2.5396   -0.5270 H   0  0  0  0  0  0  0  0  0  0  0  0
   -3.0362    0.9621   -0.3809 H   0  0  0  0  0  0  0  0  0  0  0  0
   -2.5704   -1.5106   -0.2942 H   0  0  0  0  0  0  0  0  0  0  0  0
   -0.1366   -2.3072   -0.0171 H   0  0  0  0  0  0  0  0  0  0  0  0
  1  2  1  0
  2  3  1  0
  3  4  1  0
  4  5  1  0
  5  6  2  0
  6  7  1  0
  7  8  1  0
  8  9  1  0
  4  2  1  0
  9  7  1  0
  9  2  1  0
  1 10  1  0
  1 11  1  0
  1 12  1  0
  3 13  1  0
  3 14  1  0
  4 15  1  0
  5 16  1  0
  6 17  1  0
  7 18  1  0
  9 19  1  0
M  END
