
     RDKit          3D

 21 23  0  0  0  0  0  0  0  0999 V2000
   -0.2158    1.9210    0.1216 C   0  0  0  0  0  0  0  0  0  0  0  0
   -0.0744    0.4329    0.0570 C   0  0  0  0  0  0  0  0  0  0  0  0
   -1.1747   -0.3329    0.7487 C   0  0  0  0  0  0  0  0  0  0  0  0
   -1.9826   -0.8464   -0.4148 C   0  0  0  0  0  0  0  0  0  0  0  0
   -1.1661   -0.9017   -1.5132 O   0  0  0  0  0  0  0  0  0  0  0  0
   -0.0371   -0.1832   -1.2974 C   0  0  0  0  0  0  0  0  0  0  0  0
    1.0997   -1.0599   -0.7741 C   0  0  0  0  0  0  0  0  0  0  0  0
    2.3499   -0.3320   -0.5376 C   0  0  0  0  0  0  0  0  0  0  0  0
    1.2622   -0.0952    0.4224 C   0  0  0  0  0  0  0  0  0  0  0  0
    0.5724    2.4068   -0.4529 H   0  0  0  0  0  0  0  0  0  0  0  0
   -1.2331    2.2449   -0.1338 H   0  0  0  0  0  0  0  0  0  0  0  0
   -0.0598    2.2229    1.1968 H   0  0  0  0  0  0  0  0  0  0  0  0
   -1.7634    0.3414    1.3775 H   0  0  0  0  0  0  0  0  0  0  0  0
   -0.7686   -1.1933    1.3335 H   0  0  0  0  0  0  0  0  0  0  0  0
   -2.7900   -0.1106   -0.6034 H   0  0  0  0  0  0  0  0  0  0  0  0
   -2.4229   -1.8513   -0.1761 H   0  0  0  0  0  0  0  0  0  0  0  0
    0.3426    0.4520   -2.1167 H   0  0  0  0  0  0  0  0  0  0  0  0
    0.8945   -2.0790   -0.4695 H   0  0  0  0  0  0  0  0  0  0  0  0
    2.6197    0.4231   -1.3252 H   0  0  0  0  0  0  0  0  0  0  0  0
    3.2060   -0.9245   -0.1718 H   0  0  0  0  0  0  0  0  0  0  0  0
    1.3414   -0.5348    1.4270 H   0  0  0  0  0  0  0  0  0  0  0  0
  1  2  1  0
  2  3  1  0
  3  4  1  0
  4  5  1  0
  5  6  1  0
  6  7  1  0
  7  8  1  0
  8  9  1  0
  6  2  1  0
  9  7  1  0
  9  2  1  0
  1 10  1  0
  1 11  1  0
  1 12  1  0
  3 13  1  0
  3 14  1  0
  4 15  1  0
  4 16  1  0
  6 17  1  0
  7 18  1  0
  8 19  1  0
  8 20  1  0
  9 21  1  0
M  END
