
     RDKit          3D

 21 23  0  0  0  0  0  0  0  0999 V2000
   -1.5188   -1.4240    0.2655 C   0  0  0  0  0  0  0  0  0  0  0  0
   -1.2804    0.0549    0.6381 C   0  0  0  0  0  0  0  0  0  0  0  0
   -2.0551    0.9757   -0.0804 C   0  0  0  0  0  0  0  0  0  0  0  0
   -0.7352    0.9553   -0.5507 C   0  0  0  0  0  0  0  0  0  0  0  0
    0.1427   -0.0166   -0.9332 O   0  0  0  0  0  0  0  0  0  0  0  0
    0.9556   -0.0529    0.2230 C   0  0  0  0  0  0  0  0  0  0  0  0
    2.1704   -0.7924    0.3272 C   0  0  0  0  0  0  0  0  0  0  0  0
    2.2076    0.7476    0.1609 C   0  0  0  0  0  0  0  0  0  0  0  0
   -0.0100    0.1558    1.4051 C   0  0  0  0  0  0  0  0  0  0  0  0
   -2.1335   -1.5166   -0.6528 H   0  0  0  0  0  0  0  0  0  0  0  0
   -2.1346   -1.8180    1.0910 H   0  0  0  0  0  0  0  0  0  0  0  0
   -0.5932   -1.9640    0.0911 H   0  0  0  0  0  0  0  0  0  0  0  0
   -2.8719    0.6180   -0.7557 H   0  0  0  0  0  0  0  0  0  0  0  0
   -2.4481    1.8768    0.4795 H   0  0  0  0  0  0  0  0  0  0  0  0
   -0.1152    1.8545   -0.2345 H   0  0  0  0  0  0  0  0  0  0  0  0
    2.5195   -1.1263    1.3131 H   0  0  0  0  0  0  0  0  0  0  0  0
    2.5519   -1.3969   -0.5174 H   0  0  0  0  0  0  0  0  0  0  0  0
    2.5807    1.0808   -0.8480 H   0  0  0  0  0  0  0  0  0  0  0  0
    2.4489    1.3450    1.0459 H   0  0  0  0  0  0  0  0  0  0  0  0
    0.1836    1.1217    1.8687 H   0  0  0  0  0  0  0  0  0  0  0  0
    0.1351   -0.6785    2.0947 H   0  0  0  0  0  0  0  0  0  0  0  0
  1  2  1  0
  2  3  1  0
  3  4  1  0
  4  5  1  0
  5  6  1  0
  6  7  1  0
  7  8  1  0
  6  9  1  0
  4  2  1  0
  8  6  1  0
  9  2  1  0
  1 10  1  0
  1 11  1  0
  1 12  1  0
  3 13  1  0
  3 14  1  0
  4 15  1  0
  7 16  1  0
  7 17  1  0
  8 18  1  0
  8 19  1  0
  9 20  1  0
  9 21  1  0
M  END
