
     RDKit          3D

 21 23  0  0  0  0  0  0  0  0999 V2000
   -1.5784   -1.3395   -0.6683 C   0  0  0  0  0  0  0  0  0  0  0  0
   -0.8701   -0.2071   -0.1527 C   0  0  0  0  0  0  0  0  0  0  0  0
   -0.1621    0.8553   -0.8877 C   0  0  0  0  0  0  0  0  0  0  0  0
    1.2955    0.4742   -0.7332 C   0  0  0  0  0  0  0  0  0  0  0  0
    1.3334   -0.4826    0.4223 C   0  0  0  0  0  0  0  0  0  0  0  0
    2.4008   -0.2572    1.2797 O   0  0  0  0  0  0  0  0  0  0  0  0
    0.0099   -0.4779    1.0917 C   0  0  0  0  0  0  0  0  0  0  0  0
   -0.9794    0.5855    1.0257 C   0  0  0  0  0  0  0  0  0  0  0  0
   -0.6308    1.8326    0.2020 C   0  0  0  0  0  0  0  0  0  0  0  0
   -2.5364   -1.0769   -1.1604 H   0  0  0  0  0  0  0  0  0  0  0  0
   -1.7231   -2.1231    0.1078 H   0  0  0  0  0  0  0  0  0  0  0  0
   -0.9691   -1.8496   -1.4722 H   0  0  0  0  0  0  0  0  0  0  0  0
   -0.5183    1.0616   -1.8842 H   0  0  0  0  0  0  0  0  0  0  0  0
    1.9490    1.3504   -0.5712 H   0  0  0  0  0  0  0  0  0  0  0  0
    1.6148    0.0101   -1.6890 H   0  0  0  0  0  0  0  0  0  0  0  0
    1.4844   -1.5091   -0.0145 H   0  0  0  0  0  0  0  0  0  0  0  0
    3.1352   -0.9116    1.1511 H   0  0  0  0  0  0  0  0  0  0  0  0
   -0.2368   -1.3748    1.6907 H   0  0  0  0  0  0  0  0  0  0  0  0
   -1.7699    0.6292    1.7628 H   0  0  0  0  0  0  0  0  0  0  0  0
   -1.4972    2.4373   -0.0864 H   0  0  0  0  0  0  0  0  0  0  0  0
    0.2487    2.3732    0.5860 H   0  0  0  0  0  0  0  0  0  0  0  0
  1  2  1  0
  2  3  1  0
  3  4  1  0
  4  5  1  0
  5  6  1  0
  5  7  1  0
  7  8  1  0
  8  9  1  0
  7  2  1  0
  8  2  1  0
  9  3  1  0
  1 10  1  0
  1 11  1  0
  1 12  1  0
  3 13  1  0
  4 14  1  0
  4 15  1  0
  5 16  1  0
  6 17  1  0
  7 18  1  0
  8 19  1  0
  9 20  1  0
  9 21  1  0
M  END
