
     RDKit          3D

 19 20  0  0  0  0  0  0  0  0999 V2000
   -1.7326    0.9577   -0.1322 C   0  0  0  0  0  0  0  0  0  0  0  0
   -0.8817   -0.1344    0.2175 C   0  0  0  0  0  0  0  0  0  0  0  0
    0.0240    0.3825    1.2180 C   0  0  0  0  0  0  0  0  0  0  0  0
    1.3172    0.6642    1.1100 C   0  0  0  0  0  0  0  0  0  0  0  0
    1.9886    0.4280   -0.2275 C   0  0  0  0  0  0  0  0  0  0  0  0
    1.3156   -0.8351   -0.7019 C   0  0  0  0  0  0  0  0  0  0  0  0
    1.8345   -1.5068   -1.5430 O   0  0  0  0  0  0  0  0  0  0  0  0
    0.0133   -1.2182   -0.1083 C   0  0  0  0  0  0  0  0  0  0  0  0
   -1.1543   -1.1665   -0.7651 C   0  0  0  0  0  0  0  0  0  0  0  0
   -1.1792    1.9004   -0.4312 H   0  0  0  0  0  0  0  0  0  0  0  0
   -2.2997    1.2933    0.7948 H   0  0  0  0  0  0  0  0  0  0  0  0
   -2.5421    0.8879   -0.8828 H   0  0  0  0  0  0  0  0  0  0  0  0
   -0.4297    0.5677    2.2178 H   0  0  0  0  0  0  0  0  0  0  0  0
    1.9443    1.0506    1.8918 H   0  0  0  0  0  0  0  0  0  0  0  0
    1.7920    1.2781   -0.8843 H   0  0  0  0  0  0  0  0  0  0  0  0
    3.0614    0.2557   -0.0537 H   0  0  0  0  0  0  0  0  0  0  0  0
    0.1442   -2.0134    0.6903 H   0  0  0  0  0  0  0  0  0  0  0  0
   -1.1757   -0.9620   -1.8826 H   0  0  0  0  0  0  0  0  0  0  0  0
   -2.0402   -1.8299   -0.5278 H   0  0  0  0  0  0  0  0  0  0  0  0
  1  2  1  0
  2  3  1  0
  3  4  2  0
  4  5  1  0
  5  6  1  0
  6  7  2  0
  6  8  1  0
  8  9  1  0
  8  2  1  0
  9  2  1  0
  1 10  1  0
  1 11  1  0
  1 12  1  0
  3 13  1  0
  4 14  1  0
  5 15  1  0
  5 16  1  0
  8 17  1  0
  9 18  1  0
  9 19  1  0
M  END
