
     RDKit          3D

 20 21  0  0  0  0  0  0  0  0999 V2000
    0.9232    1.7772    0.0468 C   0  0  0  0  0  0  0  0  0  0  0  0
    0.7130    0.4681   -0.3090 C   0  0  0  0  0  0  0  0  0  0  0  0
    1.5447   -0.7278   -0.0400 C   0  0  0  0  0  0  0  0  0  0  0  0
    0.4005   -1.1660   -0.9059 C   0  0  0  0  0  0  0  0  0  0  0  0
    0.6102   -0.0088   -1.6373 O   0  0  0  0  0  0  0  0  0  0  0  0
   -0.5088   -0.3608   -0.0352 C   0  0  0  0  0  0  0  0  0  0  0  0
   -1.7590    0.1344   -0.7237 C   0  0  0  0  0  0  0  0  0  0  0  0
   -0.6828   -0.8577    1.3614 C   0  0  0  0  0  0  0  0  0  0  0  0
    1.7707    1.9452    0.7747 H   0  0  0  0  0  0  0  0  0  0  0  0
    1.1486    2.4768   -0.8123 H   0  0  0  0  0  0  0  0  0  0  0  0
    0.0424    2.2700    0.5570 H   0  0  0  0  0  0  0  0  0  0  0  0
    2.5334   -0.6977   -0.5145 H   0  0  0  0  0  0  0  0  0  0  0  0
    1.5854   -1.1107    0.9780 H   0  0  0  0  0  0  0  0  0  0  0  0
    0.2390   -2.0931   -1.2689 H   0  0  0  0  0  0  0  0  0  0  0  0
   -2.2169    0.8924   -0.0392 H   0  0  0  0  0  0  0  0  0  0  0  0
   -2.4943   -0.6568   -0.9156 H   0  0  0  0  0  0  0  0  0  0  0  0
   -1.4582    0.6908   -1.6324 H   0  0  0  0  0  0  0  0  0  0  0  0
   -1.7172   -0.5633    1.6889 H   0  0  0  0  0  0  0  0  0  0  0  0
    0.0058   -0.4362    2.0965 H   0  0  0  0  0  0  0  0  0  0  0  0
   -0.6796   -1.9760    1.3306 H   0  0  0  0  0  0  0  0  0  0  0  0
  1  2  1  0
  2  3  1  0
  3  4  1  0
  4  5  1  0
  4  6  1  0
  6  7  1  0
  6  8  1  0
  5  2  1  0
  6  2  1  0
  1  9  1  0
  1 10  1  0
  1 11  1  0
  3 12  1  0
  3 13  1  0
  4 14  1  0
  7 15  1  0
  7 16  1  0
  7 17  1  0
  8 18  1  0
  8 19  1  0
  8 20  1  0
M  END
