
     RDKit          3D

 20 22  0  0  0  0  0  0  0  0999 V2000
   -1.0361    1.6572    0.3076 C   0  0  0  0  0  0  0  0  0  0  0  0
   -0.7631    0.1759    0.3659 C   0  0  0  0  0  0  0  0  0  0  0  0
   -1.8649   -0.6367   -0.1599 C   0  0  0  0  0  0  0  0  0  0  0  0
   -0.5942   -0.6263   -0.9127 C   0  0  0  0  0  0  0  0  0  0  0  0
    0.5115   -1.4740   -0.2810 C   0  0  0  0  0  0  0  0  0  0  0  0
    1.2984   -1.2873    0.9504 C   0  0  0  0  0  0  0  0  0  0  0  0
    0.6708   -0.2071    0.3858 C   0  0  0  0  0  0  0  0  0  0  0  0
    1.5601    0.7973   -0.3865 C   0  0  0  0  0  0  0  0  0  0  0  0
   -0.9756    2.0825   -0.6954 H   0  0  0  0  0  0  0  0  0  0  0  0
   -0.3441    2.1636    1.0406 H   0  0  0  0  0  0  0  0  0  0  0  0
   -2.0576    1.8025    0.7698 H   0  0  0  0  0  0  0  0  0  0  0  0
   -2.7255   -0.1955   -0.7033 H   0  0  0  0  0  0  0  0  0  0  0  0
   -2.1319   -1.6267    0.2925 H   0  0  0  0  0  0  0  0  0  0  0  0
   -0.4356   -0.1335   -1.8607 H   0  0  0  0  0  0  0  0  0  0  0  0
    0.0971   -2.4511   -0.1966 H   0  0  0  0  0  0  0  0  0  0  0  0
    0.9772   -1.6607    1.9678 H   0  0  0  0  0  0  0  0  0  0  0  0
    2.3993   -1.4496    0.8254 H   0  0  0  0  0  0  0  0  0  0  0  0
    1.5728    0.5384   -1.4716 H   0  0  0  0  0  0  0  0  0  0  0  0
    2.6043    0.7019   -0.0324 H   0  0  0  0  0  0  0  0  0  0  0  0
    1.2368    1.8295   -0.2057 H   0  0  0  0  0  0  0  0  0  0  0  0
  1  2  1  0
  2  3  1  0
  3  4  1  0
  4  5  1  0
  5  6  1  0
  6  7  1  0
  7  8  1  0
  4  2  1  0
  7  5  1  0
  7  2  1  0
  1  9  1  0
  1 10  1  0
  1 11  1  0
  3 12  1  0
  3 13  1  0
  4 14  1  0
  5 15  1  0
  6 16  1  0
  6 17  1  0
  8 18  1  0
  8 19  1  0
  8 20  1  0
M  END
