
     RDKit          3D

 19 21  0  0  0  0  0  0  0  0999 V2000
   -1.5701   -1.3825   -0.5866 C   0  0  0  0  0  0  0  0  0  0  0  0
   -0.6071   -0.3634   -0.1051 C   0  0  0  0  0  0  0  0  0  0  0  0
   -1.1326    1.0520    0.0360 C   0  0  0  0  0  0  0  0  0  0  0  0
   -0.0286    1.0167    1.1018 C   0  0  0  0  0  0  0  0  0  0  0  0
   -0.4190   -0.3282    1.2991 O   0  0  0  0  0  0  0  0  0  0  0  0
    1.3270    0.9833    0.4703 C   0  0  0  0  0  0  0  0  0  0  0  0
    1.8189   -0.4409    0.2200 C   0  0  0  0  0  0  0  0  0  0  0  0
    0.7115   -0.2800   -0.8264 C   0  0  0  0  0  0  0  0  0  0  0  0
    1.1577    1.0594   -0.9334 O   0  0  0  0  0  0  0  0  0  0  0  0
   -1.8436   -2.0359    0.2838 H   0  0  0  0  0  0  0  0  0  0  0  0
   -1.0978   -2.0288   -1.3766 H   0  0  0  0  0  0  0  0  0  0  0  0
   -2.4858   -0.9697   -1.0650 H   0  0  0  0  0  0  0  0  0  0  0  0
   -2.1266    1.1658    0.4524 H   0  0  0  0  0  0  0  0  0  0  0  0
   -0.8696    1.6945   -0.8307 H   0  0  0  0  0  0  0  0  0  0  0  0
   -0.1824    1.6767    1.9503 H   0  0  0  0  0  0  0  0  0  0  0  0
    2.0950    1.6452    0.8773 H   0  0  0  0  0  0  0  0  0  0  0  0
    2.8024   -0.4244   -0.2525 H   0  0  0  0  0  0  0  0  0  0  0  0
    1.6175   -1.1581    1.0073 H   0  0  0  0  0  0  0  0  0  0  0  0
    0.8332   -0.8817   -1.7222 H   0  0  0  0  0  0  0  0  0  0  0  0
  1  2  1  0
  2  3  1  0
  3  4  1  0
  4  5  1  0
  4  6  1  0
  6  7  1  0
  7  8  1  0
  8  9  1  0
  5  2  1  0
  9  6  1  0
  8  2  1  0
  1 10  1  0
  1 11  1  0
  1 12  1  0
  3 13  1  0
  3 14  1  0
  4 15  1  0
  6 16  1  0
  7 17  1  0
  7 18  1  0
  8 19  1  0
M  END
