
     RDKit          3D

 19 21  0  0  0  0  0  0  0  0999 V2000
   -2.1955    0.9324   -0.3965 C   0  0  0  0  0  0  0  0  0  0  0  0
   -1.0065    0.0860    0.0351 C   0  0  0  0  0  0  0  0  0  0  0  0
   -0.5336    0.1844    1.4248 C   0  0  0  0  0  0  0  0  0  0  0  0
    0.7820    0.0658    1.4627 C   0  0  0  0  0  0  0  0  0  0  0  0
    1.3254   -0.1233    0.1114 C   0  0  0  0  0  0  0  0  0  0  0  0
    2.6925    0.0216   -0.1578 C   0  0  0  0  0  0  0  0  0  0  0  0
    2.1609   -1.2470   -0.1307 O   0  0  0  0  0  0  0  0  0  0  0  0
    0.1720   -0.0434   -0.8207 C   0  0  0  0  0  0  0  0  0  0  0  0
   -0.8020   -1.2355   -0.7091 C   0  0  0  0  0  0  0  0  0  0  0  0
   -2.7724    0.3754   -1.1785 H   0  0  0  0  0  0  0  0  0  0  0  0
   -2.8701    1.0882    0.4494 H   0  0  0  0  0  0  0  0  0  0  0  0
   -1.8537    1.8894   -0.8620 H   0  0  0  0  0  0  0  0  0  0  0  0
   -1.1825    0.3342    2.2975 H   0  0  0  0  0  0  0  0  0  0  0  0
    1.3637    0.1057    2.3811 H   0  0  0  0  0  0  0  0  0  0  0  0
    3.0682    0.4450   -1.1228 H   0  0  0  0  0  0  0  0  0  0  0  0
    3.3862    0.2477    0.6804 H   0  0  0  0  0  0  0  0  0  0  0  0
    0.2509    0.3725   -1.8289 H   0  0  0  0  0  0  0  0  0  0  0  0
   -0.4971   -2.0900   -0.0908 H   0  0  0  0  0  0  0  0  0  0  0  0
   -1.4885   -1.4091   -1.5445 H   0  0  0  0  0  0  0  0  0  0  0  0
  1  2  1  0
  2  3  1  0
  3  4  2  0
  4  5  1  0
  5  6  1  0
  6  7  1  0
  5  8  1  0
  8  9  1  0
  8  2  1  0
  9  2  1  0
  7  5  1  0
  1 10  1  0
  1 11  1  0
  1 12  1  0
  3 13  1  0
  4 14  1  0
  6 15  1  0
  6 16  1  0
  8 17  1  0
  9 18  1  0
  9 19  1  0
M  END
