
     RDKit          3D

 21 24  0  0  0  0  0  0  0  0999 V2000
    2.6094    0.0084   -0.2113 C   0  0  0  0  0  0  0  0  0  0  0  0
    1.1843    0.0480   -0.3773 C   0  0  0  0  0  0  0  0  0  0  0  0
    0.1550   -0.4128    0.5833 C   0  0  0  0  0  0  0  0  0  0  0  0
   -0.4810   -1.2017   -0.5367 C   0  0  0  0  0  0  0  0  0  0  0  0
   -1.9128   -0.7461   -0.4504 C   0  0  0  0  0  0  0  0  0  0  0  0
   -1.9010    0.6246    0.1885 C   0  0  0  0  0  0  0  0  0  0  0  0
   -0.4676    0.9608    0.4872 C   0  0  0  0  0  0  0  0  0  0  0  0
    0.3095    1.0950   -0.8085 C   0  0  0  0  0  0  0  0  0  0  0  0
    0.3263   -0.2959   -1.4589 C   0  0  0  0  0  0  0  0  0  0  0  0
    2.9340    0.6643    0.6476 H   0  0  0  0  0  0  0  0  0  0  0  0
    3.1468    0.3561   -1.0876 H   0  0  0  0  0  0  0  0  0  0  0  0
    2.9613   -1.0433    0.0021 H   0  0  0  0  0  0  0  0  0  0  0  0
    0.3751   -0.8511    1.5076 H   0  0  0  0  0  0  0  0  0  0  0  0
   -0.2794   -2.2561   -0.5847 H   0  0  0  0  0  0  0  0  0  0  0  0
   -2.3195   -0.7137   -1.4830 H   0  0  0  0  0  0  0  0  0  0  0  0
   -2.5323   -1.4630    0.1142 H   0  0  0  0  0  0  0  0  0  0  0  0
   -2.5114    0.6749    1.1120 H   0  0  0  0  0  0  0  0  0  0  0  0
   -2.2565    1.3560   -0.5829 H   0  0  0  0  0  0  0  0  0  0  0  0
   -0.2539    1.6626    1.2731 H   0  0  0  0  0  0  0  0  0  0  0  0
    0.4543    1.9843   -1.3434 H   0  0  0  0  0  0  0  0  0  0  0  0
    0.4595   -0.4513   -2.4854 H   0  0  0  0  0  0  0  0  0  0  0  0
  1  2  1  0
  2  3  1  0
  3  4  1  0
  4  5  1  0
  5  6  1  0
  6  7  1  0
  7  8  1  0
  8  9  1  0
  8  2  1  0
  9  2  1  0
  7  3  1  0
  9  4  1  0
  1 10  1  0
  1 11  1  0
  1 12  1  0
  3 13  1  0
  4 14  1  0
  5 15  1  0
  5 16  1  0
  6 17  1  0
  6 18  1  0
  7 19  1  0
  8 20  1  0
  9 21  1  0
M  END
