
     RDKit          3D

 19 20  0  0  0  0  0  0  0  0999 V2000
   -0.9798   -1.4266   -0.7327 C   0  0  0  0  0  0  0  0  0  0  0  0
   -0.4744   -0.2149    0.0059 C   0  0  0  0  0  0  0  0  0  0  0  0
   -1.3049    1.0210    0.0559 C   0  0  0  0  0  0  0  0  0  0  0  0
   -0.0931    1.8797   -0.2582 C   0  0  0  0  0  0  0  0  0  0  0  0
    0.6343    0.6069   -0.5597 C   0  0  0  0  0  0  0  0  0  0  0  0
    0.8447   -0.2780    0.6441 C   0  0  0  0  0  0  0  0  0  0  0  0
    0.9892    0.3922    1.8933 O   0  0  0  0  0  0  0  0  0  0  0  0
    1.7985   -1.3665    0.4197 C   0  0  0  0  0  0  0  0  0  0  0  0
    2.7976   -1.4674    1.0954 O   0  0  0  0  0  0  0  0  0  0  0  0
   -1.8451   -1.2271   -1.3909 H   0  0  0  0  0  0  0  0  0  0  0  0
   -0.2067   -1.8854   -1.3585 H   0  0  0  0  0  0  0  0  0  0  0  0
   -1.2617   -2.1823    0.0329 H   0  0  0  0  0  0  0  0  0  0  0  0
   -2.0591    1.0868   -0.7526 H   0  0  0  0  0  0  0  0  0  0  0  0
   -1.7064    1.3028    1.0397 H   0  0  0  0  0  0  0  0  0  0  0  0
    0.3102    2.3991    0.6394 H   0  0  0  0  0  0  0  0  0  0  0  0
   -0.1902    2.5236   -1.1625 H   0  0  0  0  0  0  0  0  0  0  0  0
    1.0758    0.4036   -1.5199 H   0  0  0  0  0  0  0  0  0  0  0  0
    0.0610    0.5157    2.2588 H   0  0  0  0  0  0  0  0  0  0  0  0
    1.6100   -2.0830   -0.3501 H   0  0  0  0  0  0  0  0  0  0  0  0
  1  2  1  0
  2  3  1  0
  3  4  1  0
  4  5  1  0
  5  6  1  0
  6  7  1  0
  6  8  1  0
  8  9  2  0
  5  2  1  0
  6  2  1  0
  1 10  1  0
  1 11  1  0
  1 12  1  0
  3 13  1  0
  3 14  1  0
  4 15  1  0
  4 16  1  0
  5 17  1  0
  7 18  1  0
  8 19  1  0
M  END
