
     RDKit          3D

 18 19  0  0  0  0  0  0  0  0999 V2000
    2.4273   -0.0280   -0.0682 C   0  0  0  0  0  0  0  0  0  0  0  0
    0.9239    0.0137    0.1103 C   0  0  0  0  0  0  0  0  0  0  0  0
    0.2834    1.3049   -0.2216 C   0  0  0  0  0  0  0  0  0  0  0  0
   -1.0389    1.3836   -0.1754 C   0  0  0  0  0  0  0  0  0  0  0  0
   -1.9025    0.2530    0.1889 C   0  0  0  0  0  0  0  0  0  0  0  0
   -1.3056   -1.0920   -0.1332 C   0  0  0  0  0  0  0  0  0  0  0  0
    0.1746   -1.1443    0.0255 C   0  0  0  0  0  0  0  0  0  0  0  0
    0.5409   -0.5929    1.3584 O   0  0  0  0  0  0  0  0  0  0  0  0
    2.7850   -1.0035   -0.4051 H   0  0  0  0  0  0  0  0  0  0  0  0
    2.7137    0.7195   -0.8335 H   0  0  0  0  0  0  0  0  0  0  0  0
    2.8978    0.3186    0.8856 H   0  0  0  0  0  0  0  0  0  0  0  0
    0.8464    2.1864   -0.4999 H   0  0  0  0  0  0  0  0  0  0  0  0
   -1.5372    2.3313   -0.4176 H   0  0  0  0  0  0  0  0  0  0  0  0
   -2.1246    0.3511    1.2879 H   0  0  0  0  0  0  0  0  0  0  0  0
   -2.9008    0.3545   -0.3131 H   0  0  0  0  0  0  0  0  0  0  0  0
   -1.8206   -1.8433    0.5303 H   0  0  0  0  0  0  0  0  0  0  0  0
   -1.5836   -1.3695   -1.1703 H   0  0  0  0  0  0  0  0  0  0  0  0
    0.6207   -2.1431   -0.1489 H   0  0  0  0  0  0  0  0  0  0  0  0
  1  2  1  0
  2  3  1  0
  3  4  2  0
  4  5  1  0
  5  6  1  0
  6  7  1  0
  7  8  1  0
  7  2  1  0
  8  2  1  0
  1  9  1  0
  1 10  1  0
  1 11  1  0
  3 12  1  0
  4 13  1  0
  5 14  1  0
  5 15  1  0
  6 16  1  0
  6 17  1  0
  7 18  1  0
M  END
