
     RDKit          3D

 17 18  0  0  0  0  0  0  0  0999 V2000
    2.1151    0.3153   -0.3719 C   0  0  0  0  0  0  0  0  0  0  0  0
    0.7444   -0.0011   -0.0522 C   0  0  0  0  0  0  0  0  0  0  0  0
    0.1614   -1.3132   -0.4562 C   0  0  0  0  0  0  0  0  0  0  0  0
   -1.1232   -1.1517   -0.0487 C   0  0  0  0  0  0  0  0  0  0  0  0
   -1.0502    0.2366    0.5070 C   0  0  0  0  0  0  0  0  0  0  0  0
   -2.2127    0.8605    1.0124 C   0  0  0  0  0  0  0  0  0  0  0  0
   -2.5711    1.9706    0.6074 O   0  0  0  0  0  0  0  0  0  0  0  0
    0.2104    0.1676    1.3369 C   0  0  0  0  0  0  0  0  0  0  0  0
   -0.2831    0.8732   -0.4672 O   0  0  0  0  0  0  0  0  0  0  0  0
    2.4416   -0.2490   -1.2827 H   0  0  0  0  0  0  0  0  0  0  0  0
    2.1985    1.4029   -0.6664 H   0  0  0  0  0  0  0  0  0  0  0  0
    2.8464    0.1834    0.4538 H   0  0  0  0  0  0  0  0  0  0  0  0
    0.6183   -2.1678   -0.9399 H   0  0  0  0  0  0  0  0  0  0  0  0
   -1.9514   -1.8452   -0.1163 H   0  0  0  0  0  0  0  0  0  0  0  0
   -2.8237    0.3868    1.7679 H   0  0  0  0  0  0  0  0  0  0  0  0
    0.4687    1.0957    1.8555 H   0  0  0  0  0  0  0  0  0  0  0  0
    0.2105   -0.7647    1.9247 H   0  0  0  0  0  0  0  0  0  0  0  0
  1  2  1  0
  2  3  1  0
  3  4  2  0
  4  5  1  0
  5  6  1  0
  6  7  2  0
  5  8  1  0
  5  9  1  0
  8  2  1  0
  9  2  1  0
  1 10  1  0
  1 11  1  0
  1 12  1  0
  3 13  1  0
  4 14  1  0
  6 15  1  0
  8 16  1  0
  8 17  1  0
M  END
