
     RDKit          3D

 19 22  0  0  0  0  0  0  0  0999 V2000
    2.1910    0.7972   -0.1127 C   0  0  0  0  0  0  0  0  0  0  0  0
    1.0116   -0.0516   -0.1708 C   0  0  0  0  0  0  0  0  0  0  0  0
    0.7074   -1.1190   -1.1073 C   0  0  0  0  0  0  0  0  0  0  0  0
   -0.0242   -2.0998   -0.4535 O   0  0  0  0  0  0  0  0  0  0  0  0
   -0.7093   -1.4494    0.5798 C   0  0  0  0  0  0  0  0  0  0  0  0
    0.0957   -0.3101    0.9803 C   0  0  0  0  0  0  0  0  0  0  0  0
   -1.0558   -0.1362    0.0646 C   0  0  0  0  0  0  0  0  0  0  0  0
   -2.1623    0.7207    0.4636 C   0  0  0  0  0  0  0  0  0  0  0  0
   -0.1338    0.0942   -1.0645 C   0  0  0  0  0  0  0  0  0  0  0  0
    2.7578    0.6218    0.8305 H   0  0  0  0  0  0  0  0  0  0  0  0
    2.8598    0.6436   -0.9532 H   0  0  0  0  0  0  0  0  0  0  0  0
    1.8848    1.8837   -0.1394 H   0  0  0  0  0  0  0  0  0  0  0  0
    1.2587   -1.3925   -1.9937 H   0  0  0  0  0  0  0  0  0  0  0  0
   -1.2695   -2.0447    1.2852 H   0  0  0  0  0  0  0  0  0  0  0  0
    0.1936    0.1334    1.9476 H   0  0  0  0  0  0  0  0  0  0  0  0
   -2.8906    0.8706   -0.3715 H   0  0  0  0  0  0  0  0  0  0  0  0
   -1.7744    1.7493    0.7234 H   0  0  0  0  0  0  0  0  0  0  0  0
   -2.6795    0.2853    1.3451 H   0  0  0  0  0  0  0  0  0  0  0  0
   -0.2612    0.8035   -1.8538 H   0  0  0  0  0  0  0  0  0  0  0  0
  1  2  1  0
  2  3  1  0
  3  4  1  0
  4  5  1  0
  5  6  1  0
  6  7  1  0
  7  8  1  0
  7  9  1  0
  6  2  1  0
  9  2  1  0
  9  3  1  0
  7  5  1  0
  1 10  1  0
  1 11  1  0
  1 12  1  0
  3 13  1  0
  5 14  1  0
  6 15  1  0
  8 16  1  0
  8 17  1  0
  8 18  1  0
  9 19  1  0
M  END
