
     RDKit          3D

 19 20  0  0  0  0  0  0  0  0999 V2000
   -1.8679    1.0017    0.2220 C   0  0  0  0  0  0  0  0  0  0  0  0
   -0.5251    0.3699    0.0491 C   0  0  0  0  0  0  0  0  0  0  0  0
    0.5481    1.2792   -0.3696 C   0  0  0  0  0  0  0  0  0  0  0  0
    1.7628    0.7422   -0.4995 C   0  0  0  0  0  0  0  0  0  0  0  0
    1.8506   -0.6983   -0.2377 C   0  0  0  0  0  0  0  0  0  0  0  0
    2.9233   -1.3296   -0.2950 O   0  0  0  0  0  0  0  0  0  0  0  0
    0.6027   -1.3817    0.1011 C   0  0  0  0  0  0  0  0  0  0  0  0
   -0.0799   -0.5394    1.1885 C   0  0  0  0  0  0  0  0  0  0  0  0
   -0.4927   -0.8587   -0.8384 C   0  0  0  0  0  0  0  0  0  0  0  0
   -2.5782    0.2737    0.6529 H   0  0  0  0  0  0  0  0  0  0  0  0
   -2.1883    1.4205   -0.7367 H   0  0  0  0  0  0  0  0  0  0  0  0
   -1.7497    1.8323    0.9493 H   0  0  0  0  0  0  0  0  0  0  0  0
    0.3193    2.3100   -0.5493 H   0  0  0  0  0  0  0  0  0  0  0  0
    2.6299    1.3238   -0.7790 H   0  0  0  0  0  0  0  0  0  0  0  0
    0.6098   -2.4459    0.2680 H   0  0  0  0  0  0  0  0  0  0  0  0
   -0.8912   -1.1090    1.6328 H   0  0  0  0  0  0  0  0  0  0  0  0
    0.6458   -0.0704    1.8840 H   0  0  0  0  0  0  0  0  0  0  0  0
   -1.4147   -1.4766   -0.7927 H   0  0  0  0  0  0  0  0  0  0  0  0
   -0.1045   -0.6437   -1.8497 H   0  0  0  0  0  0  0  0  0  0  0  0
  1  2  1  0
  2  3  1  0
  3  4  2  0
  4  5  1  0
  5  6  2  0
  5  7  1  0
  7  8  1  0
  7  9  1  0
  8  2  1  0
  9  2  1  0
  1 10  1  0
  1 11  1  0
  1 12  1  0
  3 13  1  0
  4 14  1  0
  7 15  1  0
  8 16  1  0
  8 17  1  0
  9 18  1  0
  9 19  1  0
M  END
