
     RDKit          3D

 19 21  0  0  0  0  0  0  0  0999 V2000
    0.4930   -1.8506   -0.1575 C   0  0  0  0  0  0  0  0  0  0  0  0
   -0.0016   -0.6333   -0.8386 C   0  0  0  0  0  0  0  0  0  0  0  0
    0.7802    0.1184   -1.6717 O   0  0  0  0  0  0  0  0  0  0  0  0
    0.5912    0.7383   -0.4570 C   0  0  0  0  0  0  0  0  0  0  0  0
    1.6831    0.7983    0.5447 C   0  0  0  0  0  0  0  0  0  0  0  0
   -0.7217    1.4422   -0.2020 C   0  0  0  0  0  0  0  0  0  0  0  0
   -1.4360    0.4824    0.6931 C   0  0  0  0  0  0  0  0  0  0  0  0
   -1.4491   -0.2755   -0.6005 C   0  0  0  0  0  0  0  0  0  0  0  0
   -1.5387    0.9621   -1.2445 O   0  0  0  0  0  0  0  0  0  0  0  0
    1.5445   -1.8309    0.1513 H   0  0  0  0  0  0  0  0  0  0  0  0
    0.4102   -2.7053   -0.8918 H   0  0  0  0  0  0  0  0  0  0  0  0
   -0.1953   -2.1295    0.6736 H   0  0  0  0  0  0  0  0  0  0  0  0
    1.3700    0.7572    1.5932 H   0  0  0  0  0  0  0  0  0  0  0  0
    2.4235    0.0009    0.3323 H   0  0  0  0  0  0  0  0  0  0  0  0
    2.2416    1.7651    0.3869 H   0  0  0  0  0  0  0  0  0  0  0  0
   -0.7265    2.4841    0.0011 H   0  0  0  0  0  0  0  0  0  0  0  0
   -2.4642    0.7796    0.9766 H   0  0  0  0  0  0  0  0  0  0  0  0
   -0.8000    0.1025    1.4951 H   0  0  0  0  0  0  0  0  0  0  0  0
   -2.2042   -1.0059   -0.7843 H   0  0  0  0  0  0  0  0  0  0  0  0
  1  2  1  0
  2  3  1  0
  3  4  1  0
  4  5  1  0
  4  6  1  0
  6  7  1  0
  7  8  1  0
  8  9  1  0
  4  2  1  0
  9  6  1  0
  8  2  1  0
  1 10  1  0
  1 11  1  0
  1 12  1  0
  5 13  1  0
  5 14  1  0
  5 15  1  0
  6 16  1  0
  7 17  1  0
  7 18  1  0
  8 19  1  0
M  END
