
     RDKit          3D

 18 19  0  0  0  0  0  0  0  0999 V2000
   -2.1875    0.0676   -0.2825 C   0  0  0  0  0  0  0  0  0  0  0  0
   -0.7071    0.0895   -0.1379 C   0  0  0  0  0  0  0  0  0  0  0  0
   -0.1082   -1.1245    0.5236 C   0  0  0  0  0  0  0  0  0  0  0  0
    1.2299   -0.7077    1.0844 C   0  0  0  0  0  0  0  0  0  0  0  0
    2.0415   -0.3470    0.0497 O   0  0  0  0  0  0  0  0  0  0  0  0
    1.6108    0.6582   -0.7475 C   0  0  0  0  0  0  0  0  0  0  0  0
    0.1554    0.9287   -0.7658 C   0  0  0  0  0  0  0  0  0  0  0  0
   -0.3135    1.3664    0.5569 O   0  0  0  0  0  0  0  0  0  0  0  0
   -2.4891   -0.8250   -0.8471 H   0  0  0  0  0  0  0  0  0  0  0  0
   -2.6224   -0.0674    0.7506 H   0  0  0  0  0  0  0  0  0  0  0  0
   -2.6212    1.0075   -0.6587 H   0  0  0  0  0  0  0  0  0  0  0  0
    0.0964   -1.8596   -0.3089 H   0  0  0  0  0  0  0  0  0  0  0  0
   -0.7766   -1.5793    1.2478 H   0  0  0  0  0  0  0  0  0  0  0  0
    1.7031   -1.4654    1.7029 H   0  0  0  0  0  0  0  0  0  0  0  0
    1.0376    0.1902    1.7202 H   0  0  0  0  0  0  0  0  0  0  0  0
    1.9236    0.4144   -1.8059 H   0  0  0  0  0  0  0  0  0  0  0  0
    2.1809    1.5999   -0.5087 H   0  0  0  0  0  0  0  0  0  0  0  0
   -0.1537    1.6535   -1.5730 H   0  0  0  0  0  0  0  0  0  0  0  0
  1  2  1  0
  2  3  1  0
  3  4  1  0
  4  5  1  0
  5  6  1  0
  6  7  1  0
  7  8  1  0
  7  2  1  0
  8  2  1  0
  1  9  1  0
  1 10  1  0
  1 11  1  0
  3 12  1  0
  3 13  1  0
  4 14  1  0
  4 15  1  0
  6 16  1  0
  6 17  1  0
  7 18  1  0
M  END
