
     RDKit          3D

 21 22  0  0  0  0  0  0  0  0999 V2000
   -1.7536    0.2464    1.0154 C   0  0  0  0  0  0  0  0  0  0  0  0
   -0.6620   -0.3581    0.1585 C   0  0  0  0  0  0  0  0  0  0  0  0
   -0.9633   -1.6150   -0.5401 C   0  0  0  0  0  0  0  0  0  0  0  0
   -0.9130   -0.4024   -1.3663 C   0  0  0  0  0  0  0  0  0  0  0  0
    0.4385    0.2244   -1.6205 C   0  0  0  0  0  0  0  0  0  0  0  0
    0.4874    0.5167   -0.1346 C   0  0  0  0  0  0  0  0  0  0  0  0
    0.2268    1.8693    0.1074 O   0  0  0  0  0  0  0  0  0  0  0  0
    1.8247    0.1325    0.4347 C   0  0  0  0  0  0  0  0  0  0  0  0
    1.9242    0.3193    1.7944 O   0  0  0  0  0  0  0  0  0  0  0  0
   -1.3475    0.8809    1.8236 H   0  0  0  0  0  0  0  0  0  0  0  0
   -2.3668    0.8826    0.3722 H   0  0  0  0  0  0  0  0  0  0  0  0
   -2.3461   -0.5534    1.5309 H   0  0  0  0  0  0  0  0  0  0  0  0
   -0.1479   -2.3588   -0.6059 H   0  0  0  0  0  0  0  0  0  0  0  0
   -1.9598   -2.0526   -0.3930 H   0  0  0  0  0  0  0  0  0  0  0  0
   -1.8154    0.1197   -1.7099 H   0  0  0  0  0  0  0  0  0  0  0  0
    0.3800    1.1543   -2.2515 H   0  0  0  0  0  0  0  0  0  0  0  0
    1.1808   -0.5207   -1.9664 H   0  0  0  0  0  0  0  0  0  0  0  0
    0.4880    2.0185    1.0636 H   0  0  0  0  0  0  0  0  0  0  0  0
    2.0371   -0.9468    0.2267 H   0  0  0  0  0  0  0  0  0  0  0  0
    2.6323    0.7106   -0.0605 H   0  0  0  0  0  0  0  0  0  0  0  0
    2.6556   -0.2673    2.1214 H   0  0  0  0  0  0  0  0  0  0  0  0
  1  2  1  0
  2  3  1  0
  3  4  1  0
  4  5  1  0
  5  6  1  0
  6  7  1  0
  6  8  1  0
  8  9  1  0
  4  2  1  0
  6  2  1  0
  1 10  1  0
  1 11  1  0
  1 12  1  0
  3 13  1  0
  3 14  1  0
  4 15  1  0
  5 16  1  0
  5 17  1  0
  7 18  1  0
  8 19  1  0
  8 20  1  0
  9 21  1  0
M  END
