
     RDKit          3D

 19 20  0  0  0  0  0  0  0  0999 V2000
    1.8106   -1.0179   -0.2169 C   0  0  0  0  0  0  0  0  0  0  0  0
    0.6566   -0.1495    0.1740 C   0  0  0  0  0  0  0  0  0  0  0  0
    0.9426    1.1649    0.7731 C   0  0  0  0  0  0  0  0  0  0  0  0
    0.3111    1.0868   -0.5677 C   0  0  0  0  0  0  0  0  0  0  0  0
   -1.1705    1.1317   -0.6642 C   0  0  0  0  0  0  0  0  0  0  0  0
   -1.8861    2.0882   -0.7481 O   0  0  0  0  0  0  0  0  0  0  0  0
   -1.6071   -0.2886   -0.6356 C   0  0  0  0  0  0  0  0  0  0  0  0
   -0.6367   -0.8646    0.4002 C   0  0  0  0  0  0  0  0  0  0  0  0
   -1.1664   -0.6080    1.6558 O   0  0  0  0  0  0  0  0  0  0  0  0
    2.5400   -0.4196   -0.7805 H   0  0  0  0  0  0  0  0  0  0  0  0
    1.4185   -1.8635   -0.8254 H   0  0  0  0  0  0  0  0  0  0  0  0
    2.2699   -1.3998    0.7300 H   0  0  0  0  0  0  0  0  0  0  0  0
    2.0147    1.4791    0.7597 H   0  0  0  0  0  0  0  0  0  0  0  0
    0.3483    1.5821    1.6075 H   0  0  0  0  0  0  0  0  0  0  0  0
    0.8737    1.3167   -1.4883 H   0  0  0  0  0  0  0  0  0  0  0  0
   -1.4087   -0.7030   -1.6440 H   0  0  0  0  0  0  0  0  0  0  0  0
   -2.6482   -0.3800   -0.3247 H   0  0  0  0  0  0  0  0  0  0  0  0
   -0.5698   -1.9415    0.2003 H   0  0  0  0  0  0  0  0  0  0  0  0
   -2.0922   -0.2134    1.5949 H   0  0  0  0  0  0  0  0  0  0  0  0
  1  2  1  0
  2  3  1  0
  3  4  1  0
  4  5  1  0
  5  6  2  0
  5  7  1  0
  7  8  1  0
  8  9  1  0
  4  2  1  0
  8  2  1  0
  1 10  1  0
  1 11  1  0
  1 12  1  0
  3 13  1  0
  3 14  1  0
  4 15  1  0
  7 16  1  0
  7 17  1  0
  8 18  1  0
  9 19  1  0
M  END
