
     RDKit          3D

 19 20  0  0  0  0  0  0  0  0999 V2000
    1.5585    1.3275    0.1175 C   0  0  0  0  0  0  0  0  0  0  0  0
    0.3255    0.4948    0.2037 C   0  0  0  0  0  0  0  0  0  0  0  0
   -0.2404    0.0119   -1.1142 C   0  0  0  0  0  0  0  0  0  0  0  0
   -0.7290   -1.2014   -0.3043 C   0  0  0  0  0  0  0  0  0  0  0  0
   -1.8450   -0.8495    0.4304 O   0  0  0  0  0  0  0  0  0  0  0  0
   -1.8874    0.4886    0.7351 C   0  0  0  0  0  0  0  0  0  0  0  0
   -0.6274    1.0052    1.0425 O   0  0  0  0  0  0  0  0  0  0  0  0
    0.5458   -0.9759    0.5250 C   0  0  0  0  0  0  0  0  0  0  0  0
    1.6272   -1.4660   -0.1957 O   0  0  0  0  0  0  0  0  0  0  0  0
    1.9121    1.5248    1.1455 H   0  0  0  0  0  0  0  0  0  0  0  0
    1.2622    2.3139   -0.3018 H   0  0  0  0  0  0  0  0  0  0  0  0
    2.3732    0.8674   -0.4580 H   0  0  0  0  0  0  0  0  0  0  0  0
    0.5725   -0.3396   -1.7780 H   0  0  0  0  0  0  0  0  0  0  0  0
   -1.0304    0.6110   -1.5572 H   0  0  0  0  0  0  0  0  0  0  0  0
   -0.7652   -2.1362   -0.8519 H   0  0  0  0  0  0  0  0  0  0  0  0
   -2.5293    0.6692    1.6351 H   0  0  0  0  0  0  0  0  0  0  0  0
   -2.3228    1.1247   -0.0648 H   0  0  0  0  0  0  0  0  0  0  0  0
    0.4708   -1.2569    1.5705 H   0  0  0  0  0  0  0  0  0  0  0  0
    1.3291   -2.2134   -0.7793 H   0  0  0  0  0  0  0  0  0  0  0  0
  1  2  1  0
  2  3  1  0
  3  4  1  0
  4  5  1  0
  5  6  1  0
  6  7  1  0
  4  8  1  0
  8  9  1  0
  7  2  1  0
  8  2  1  0
  1 10  1  0
  1 11  1  0
  1 12  1  0
  3 13  1  0
  3 14  1  0
  4 15  1  0
  6 16  1  0
  6 17  1  0
  8 18  1  0
  9 19  1  0
M  END
