
     RDKit          3D

 18 19  0  0  0  0  0  0  0  0999 V2000
   -1.0392    1.5375   -0.0547 C   0  0  0  0  0  0  0  0  0  0  0  0
   -0.7271    0.1988    0.0974 C   0  0  0  0  0  0  0  0  0  0  0  0
   -1.5479   -0.9761   -0.3003 C   0  0  0  0  0  0  0  0  0  0  0  0
   -0.3414   -1.4911    0.3884 C   0  0  0  0  0  0  0  0  0  0  0  0
   -0.5143   -0.4558    1.3162 O   0  0  0  0  0  0  0  0  0  0  0  0
    0.4810   -0.5143   -0.3911 C   0  0  0  0  0  0  0  0  0  0  0  0
    1.7875   -0.1551    0.3115 C   0  0  0  0  0  0  0  0  0  0  0  0
    2.0895    1.1943    0.1802 O   0  0  0  0  0  0  0  0  0  0  0  0
   -0.5949    2.0039   -0.9545 H   0  0  0  0  0  0  0  0  0  0  0  0
   -0.6836    2.1682    0.8083 H   0  0  0  0  0  0  0  0  0  0  0  0
   -2.1482    1.7230   -0.0863 H   0  0  0  0  0  0  0  0  0  0  0  0
   -1.6653   -1.1762   -1.3683 H   0  0  0  0  0  0  0  0  0  0  0  0
   -2.4806   -1.0726    0.2665 H   0  0  0  0  0  0  0  0  0  0  0  0
   -0.1024   -2.4423    0.6177 H   0  0  0  0  0  0  0  0  0  0  0  0
    0.5963   -0.6863   -1.4596 H   0  0  0  0  0  0  0  0  0  0  0  0
    1.6570   -0.4172    1.3887 H   0  0  0  0  0  0  0  0  0  0  0  0
    2.5858   -0.7910   -0.1387 H   0  0  0  0  0  0  0  0  0  0  0  0
    2.6477    1.3523   -0.6215 H   0  0  0  0  0  0  0  0  0  0  0  0
  1  2  1  0
  2  3  1  0
  3  4  1  0
  4  5  1  0
  4  6  1  0
  6  7  1  0
  7  8  1  0
  5  2  1  0
  6  2  1  0
  1  9  1  0
  1 10  1  0
  1 11  1  0
  3 12  1  0
  3 13  1  0
  4 14  1  0
  6 15  1  0
  7 16  1  0
  7 17  1  0
  8 18  1  0
M  END
