
     RDKit          3D

 16 17  0  0  0  0  0  0  0  0999 V2000
    1.6322    0.0090   -0.0058 C   0  0  0  0  0  0  0  0  0  0  0  0
    0.1862    0.0711    0.3500 C   0  0  0  0  0  0  0  0  0  0  0  0
   -0.4721    1.4169    0.5083 C   0  0  0  0  0  0  0  0  0  0  0  0
   -1.6322    1.0204   -0.3127 C   0  0  0  0  0  0  0  0  0  0  0  0
   -2.7414    1.3875   -0.5850 O   0  0  0  0  0  0  0  0  0  0  0  0
   -0.8530   -0.1538   -0.7512 C   0  0  0  0  0  0  0  0  0  0  0  0
   -0.6095   -1.1708    0.2849 C   0  0  0  0  0  0  0  0  0  0  0  0
   -0.0139   -2.3317   -0.1370 O   0  0  0  0  0  0  0  0  0  0  0  0
    1.7656   -0.7271   -0.8394 H   0  0  0  0  0  0  0  0  0  0  0  0
    2.0923    0.9756   -0.2290 H   0  0  0  0  0  0  0  0  0  0  0  0
    2.1757   -0.4349    0.8798 H   0  0  0  0  0  0  0  0  0  0  0  0
   -0.6759    1.7285    1.5419 H   0  0  0  0  0  0  0  0  0  0  0  0
    0.1764    2.2012    0.0249 H   0  0  0  0  0  0  0  0  0  0  0  0
   -0.5070   -0.2483   -1.7882 H   0  0  0  0  0  0  0  0  0  0  0  0
   -1.4690   -1.3455    0.9953 H   0  0  0  0  0  0  0  0  0  0  0  0
    0.9457   -2.3982    0.0636 H   0  0  0  0  0  0  0  0  0  0  0  0
  1  2  1  0
  2  3  1  0
  3  4  1  0
  4  5  2  0
  4  6  1  0
  6  7  1  0
  7  8  1  0
  6  2  1  0
  7  2  1  0
  1  9  1  0
  1 10  1  0
  1 11  1  0
  3 12  1  0
  3 13  1  0
  6 14  1  0
  7 15  1  0
  8 16  1  0
M  END
