
     RDKit          3D

 17 19  0  0  0  0  0  0  0  0999 V2000
   -1.3349   -1.2749    0.3192 C   0  0  0  0  0  0  0  0  0  0  0  0
   -0.1404   -0.3935    0.2806 C   0  0  0  0  0  0  0  0  0  0  0  0
    1.0420   -0.8690    0.7645 O   0  0  0  0  0  0  0  0  0  0  0  0
    1.9992   -0.4436   -0.1313 C   0  0  0  0  0  0  0  0  0  0  0  0
    1.5024    0.6581   -0.8048 O   0  0  0  0  0  0  0  0  0  0  0  0
    0.1193    0.3878   -0.9576 C   0  0  0  0  0  0  0  0  0  0  0  0
   -0.6755    1.5222   -0.4233 C   0  0  0  0  0  0  0  0  0  0  0  0
   -1.6740    1.4235    0.4933 O   0  0  0  0  0  0  0  0  0  0  0  0
   -0.4741    0.9664    0.9004 C   0  0  0  0  0  0  0  0  0  0  0  0
   -1.4280   -1.6836    1.3519 H   0  0  0  0  0  0  0  0  0  0  0  0
   -1.3451   -2.0897   -0.4193 H   0  0  0  0  0  0  0  0  0  0  0  0
   -2.2402   -0.6166    0.1628 H   0  0  0  0  0  0  0  0  0  0  0  0
    2.1426   -1.2475   -0.8760 H   0  0  0  0  0  0  0  0  0  0  0  0
    2.9245   -0.2346    0.4216 H   0  0  0  0  0  0  0  0  0  0  0  0
   -0.1501   -0.0317   -1.9162 H   0  0  0  0  0  0  0  0  0  0  0  0
   -0.4163    2.5448   -0.7410 H   0  0  0  0  0  0  0  0  0  0  0  0
    0.1487    1.3820    1.6732 H   0  0  0  0  0  0  0  0  0  0  0  0
  1  2  1  0
  2  3  1  0
  3  4  1  0
  4  5  1  0
  5  6  1  0
  6  7  1  0
  7  8  1  0
  8  9  1  0
  6  2  1  0
  9  7  1  0
  9  2  1  0
  1 10  1  0
  1 11  1  0
  1 12  1  0
  4 13  1  0
  4 14  1  0
  6 15  1  0
  7 16  1  0
  9 17  1  0
M  END
