
     RDKit          3D

 18 20  0  0  0  0  0  0  0  0999 V2000
   -1.2315   -0.8608    1.1470 C   0  0  0  0  0  0  0  0  0  0  0  0
   -0.5099   -0.2927   -0.0322 C   0  0  0  0  0  0  0  0  0  0  0  0
   -1.1545    0.0052   -1.3100 C   0  0  0  0  0  0  0  0  0  0  0  0
   -0.8483    1.1795   -0.4253 C   0  0  0  0  0  0  0  0  0  0  0  0
    0.5781    1.5011   -0.1000 C   0  0  0  0  0  0  0  0  0  0  0  0
    1.0072    1.0941    1.2580 O   0  0  0  0  0  0  0  0  0  0  0  0
    0.9124    0.2353    0.1968 C   0  0  0  0  0  0  0  0  0  0  0  0
    2.0195   -0.6626   -0.2144 C   0  0  0  0  0  0  0  0  0  0  0  0
   -2.0752   -0.2579    1.4967 H   0  0  0  0  0  0  0  0  0  0  0  0
   -0.5140   -0.9413    1.9978 H   0  0  0  0  0  0  0  0  0  0  0  0
   -1.5464   -1.9097    0.9311 H   0  0  0  0  0  0  0  0  0  0  0  0
   -0.6085   -0.1453   -2.2591 H   0  0  0  0  0  0  0  0  0  0  0  0
   -2.2326   -0.2544   -1.3919 H   0  0  0  0  0  0  0  0  0  0  0  0
   -1.6747    1.6521    0.1074 H   0  0  0  0  0  0  0  0  0  0  0  0
    1.0431    2.4413   -0.3443 H   0  0  0  0  0  0  0  0  0  0  0  0
    2.8932   -0.1223   -0.6036 H   0  0  0  0  0  0  0  0  0  0  0  0
    2.2983   -1.3612    0.6061 H   0  0  0  0  0  0  0  0  0  0  0  0
    1.6439   -1.3004   -1.0600 H   0  0  0  0  0  0  0  0  0  0  0  0
  1  2  1  0
  2  3  1  0
  3  4  1  0
  4  5  1  0
  5  6  1  0
  6  7  1  0
  7  8  1  0
  4  2  1  0
  7  5  1  0
  7  2  1  0
  1  9  1  0
  1 10  1  0
  1 11  1  0
  3 12  1  0
  3 13  1  0
  4 14  1  0
  5 15  1  0
  8 16  1  0
  8 17  1  0
  8 18  1  0
M  END
