
     RDKit          3D

 21 23  0  0  0  0  0  0  0  0999 V2000
   -2.0748   -1.1850    0.4012 C   0  0  0  0  0  0  0  0  0  0  0  0
   -0.8083   -0.4248    0.2502 C   0  0  0  0  0  0  0  0  0  0  0  0
    0.5202   -1.1287    0.4932 C   0  0  0  0  0  0  0  0  0  0  0  0
    1.5203   -0.3597   -0.3224 C   0  0  0  0  0  0  0  0  0  0  0  0
    2.6586   -0.0436    0.3764 O   0  0  0  0  0  0  0  0  0  0  0  0
    0.8036    0.8461   -0.8858 C   0  0  0  0  0  0  0  0  0  0  0  0
    0.3963    1.8687    0.1644 C   0  0  0  0  0  0  0  0  0  0  0  0
   -0.7968    1.0360    0.4833 C   0  0  0  0  0  0  0  0  0  0  0  0
   -0.6150    0.3924   -0.9284 C   0  0  0  0  0  0  0  0  0  0  0  0
   -2.6862   -0.8984    1.2608 H   0  0  0  0  0  0  0  0  0  0  0  0
   -2.7335   -1.0495   -0.5042 H   0  0  0  0  0  0  0  0  0  0  0  0
   -1.8273   -2.2863    0.3863 H   0  0  0  0  0  0  0  0  0  0  0  0
    0.4716   -2.2027    0.2173 H   0  0  0  0  0  0  0  0  0  0  0  0
    0.8208   -1.0764    1.5635 H   0  0  0  0  0  0  0  0  0  0  0  0
    1.8033   -0.9952   -1.1847 H   0  0  0  0  0  0  0  0  0  0  0  0
    3.2445   -0.8650    0.3609 H   0  0  0  0  0  0  0  0  0  0  0  0
    1.1897    1.2595   -1.8146 H   0  0  0  0  0  0  0  0  0  0  0  0
    1.1251    2.0571    0.9534 H   0  0  0  0  0  0  0  0  0  0  0  0
    0.0813    2.8049   -0.3839 H   0  0  0  0  0  0  0  0  0  0  0  0
   -1.7514    1.5120    0.6934 H   0  0  0  0  0  0  0  0  0  0  0  0
   -1.3422    0.7387   -1.6342 H   0  0  0  0  0  0  0  0  0  0  0  0
  1  2  1  0
  2  3  1  0
  3  4  1  0
  4  5  1  0
  4  6  1  0
  6  7  1  0
  7  8  1  0
  8  9  1  0
  8  2  1  0
  9  2  1  0
  9  6  1  0
  1 10  1  0
  1 11  1  0
  1 12  1  0
  3 13  1  0
  3 14  1  0
  4 15  1  0
  5 16  1  0
  6 17  1  0
  7 18  1  0
  7 19  1  0
  8 20  1  0
  9 21  1  0
M  END
