
     RDKit          3D

 19 21  0  0  0  0  0  0  0  0999 V2000
   -2.2710    0.5526    0.0756 C   0  0  0  0  0  0  0  0  0  0  0  0
   -0.8750    0.0568    0.0836 C   0  0  0  0  0  0  0  0  0  0  0  0
   -0.6102   -1.4495   -0.0404 C   0  0  0  0  0  0  0  0  0  0  0  0
    0.5179   -1.6007   -0.7982 O   0  0  0  0  0  0  0  0  0  0  0  0
    1.2258   -0.4118   -0.8007 C   0  0  0  0  0  0  0  0  0  0  0  0
    1.5910    0.0611    0.5892 C   0  0  0  0  0  0  0  0  0  0  0  0
    2.7144    0.8600    0.6742 O   0  0  0  0  0  0  0  0  0  0  0  0
    0.2686    0.8287    0.6064 C   0  0  0  0  0  0  0  0  0  0  0  0
    0.1382    0.6156   -0.8192 C   0  0  0  0  0  0  0  0  0  0  0  0
   -2.2794    1.6347   -0.0386 H   0  0  0  0  0  0  0  0  0  0  0  0
   -2.7900    0.1005   -0.8198 H   0  0  0  0  0  0  0  0  0  0  0  0
   -2.8498    0.1854    0.9559 H   0  0  0  0  0  0  0  0  0  0  0  0
   -1.5035   -1.8476   -0.5850 H   0  0  0  0  0  0  0  0  0  0  0  0
   -0.5272   -1.9223    0.9640 H   0  0  0  0  0  0  0  0  0  0  0  0
    1.9952   -0.3592   -1.5607 H   0  0  0  0  0  0  0  0  0  0  0  0
    1.5719   -0.7100    1.3786 H   0  0  0  0  0  0  0  0  0  0  0  0
    3.4975    0.2908    0.6256 H   0  0  0  0  0  0  0  0  0  0  0  0
    0.1970    1.7851    1.1074 H   0  0  0  0  0  0  0  0  0  0  0  0
   -0.0114    1.3297   -1.5980 H   0  0  0  0  0  0  0  0  0  0  0  0
  1  2  1  0
  2  3  1  0
  3  4  1  0
  4  5  1  0
  5  6  1  0
  6  7  1  0
  6  8  1  0
  8  9  1  0
  8  2  1  0
  9  2  1  0
  9  5  1  0
  1 10  1  0
  1 11  1  0
  1 12  1  0
  3 13  1  0
  3 14  1  0
  5 15  1  0
  6 16  1  0
  7 17  1  0
  8 18  1  0
  9 19  1  0
M  END
