
     RDKit          3D

 19 20  0  0  0  0  0  0  0  0999 V2000
    2.2364   -0.1886   -0.6227 C   0  0  0  0  0  0  0  0  0  0  0  0
    0.8383   -0.0428   -0.1272 C   0  0  0  0  0  0  0  0  0  0  0  0
    0.2244   -1.2878    0.3388 C   0  0  0  0  0  0  0  0  0  0  0  0
   -1.0913   -1.3989    0.2747 C   0  0  0  0  0  0  0  0  0  0  0  0
   -1.9460   -0.2987   -0.2881 C   0  0  0  0  0  0  0  0  0  0  0  0
   -1.0867    0.9010   -0.4839 C   0  0  0  0  0  0  0  0  0  0  0  0
   -0.5302    1.4378    0.8114 C   0  0  0  0  0  0  0  0  0  0  0  0
    0.6884    0.9474    0.9613 C   0  0  0  0  0  0  0  0  0  0  0  0
    0.0704    0.5239   -1.1818 O   0  0  0  0  0  0  0  0  0  0  0  0
    2.4905    0.7563   -1.1845 H   0  0  0  0  0  0  0  0  0  0  0  0
    2.2649   -1.0139   -1.3496 H   0  0  0  0  0  0  0  0  0  0  0  0
    2.9913   -0.2911    0.1703 H   0  0  0  0  0  0  0  0  0  0  0  0
    0.8080   -2.0907    0.7215 H   0  0  0  0  0  0  0  0  0  0  0  0
   -1.6152   -2.2924    0.6267 H   0  0  0  0  0  0  0  0  0  0  0  0
   -2.2778   -0.6428   -1.2804 H   0  0  0  0  0  0  0  0  0  0  0  0
   -2.7893   -0.0655    0.3937 H   0  0  0  0  0  0  0  0  0  0  0  0
   -1.6280    1.7121   -0.9989 H   0  0  0  0  0  0  0  0  0  0  0  0
   -1.0340    2.1112    1.5087 H   0  0  0  0  0  0  0  0  0  0  0  0
    1.3862    1.2235    1.7099 H   0  0  0  0  0  0  0  0  0  0  0  0
  1  2  1  0
  2  3  1  0
  3  4  2  0
  4  5  1  0
  5  6  1  0
  6  7  1  0
  7  8  2  0
  6  9  1  0
  8  2  1  0
  9  2  1  0
  1 10  1  0
  1 11  1  0
  1 12  1  0
  3 13  1  0
  4 14  1  0
  5 15  1  0
  5 16  1  0
  6 17  1  0
  7 18  1  0
  8 19  1  0
M  END
