
     RDKit          3D

 17 19  0  0  0  0  0  0  0  0999 V2000
   -2.0466   -0.3351   -0.0117 C   0  0  0  0  0  0  0  0  0  0  0  0
   -0.9086    0.3452    0.6617 C   0  0  0  0  0  0  0  0  0  0  0  0
   -0.6241    0.1883    1.9882 O   0  0  0  0  0  0  0  0  0  0  0  0
    0.1602   -0.6280    1.1784 C   0  0  0  0  0  0  0  0  0  0  0  0
    1.0999   -0.0674    0.1883 C   0  0  0  0  0  0  0  0  0  0  0  0
    2.0800   -0.6787   -0.5320 C   0  0  0  0  0  0  0  0  0  0  0  0
    2.3965    0.2469    0.5429 O   0  0  0  0  0  0  0  0  0  0  0  0
    0.1380    1.0018   -0.1852 C   0  0  0  0  0  0  0  0  0  0  0  0
   -0.1855    1.1291   -1.5184 O   0  0  0  0  0  0  0  0  0  0  0  0
   -2.6681    0.3996   -0.5593 H   0  0  0  0  0  0  0  0  0  0  0  0
   -2.6941   -0.8717    0.6781 H   0  0  0  0  0  0  0  0  0  0  0  0
   -1.6458   -1.1023   -0.7346 H   0  0  0  0  0  0  0  0  0  0  0  0
   -0.0907   -1.6890    1.2481 H   0  0  0  0  0  0  0  0  0  0  0  0
    2.4400   -0.3191   -1.5319 H   0  0  0  0  0  0  0  0  0  0  0  0
    2.4522   -1.6988   -0.3074 H   0  0  0  0  0  0  0  0  0  0  0  0
    0.4767    1.9848    0.2394 H   0  0  0  0  0  0  0  0  0  0  0  0
   -0.3800    2.0944   -1.7433 H   0  0  0  0  0  0  0  0  0  0  0  0
  1  2  1  0
  2  3  1  0
  3  4  1  0
  4  5  1  0
  5  6  1  0
  6  7  1  0
  5  8  1  0
  8  9  1  0
  4  2  1  0
  7  5  1  0
  8  2  1  0
  1 10  1  0
  1 11  1  0
  1 12  1  0
  4 13  1  0
  6 14  1  0
  6 15  1  0
  8 16  1  0
  9 17  1  0
M  END
