
     RDKit          3D

 17 18  0  0  0  0  0  0  0  0999 V2000
    1.6333   -0.0241    0.7594 C   0  0  0  0  0  0  0  0  0  0  0  0
    0.5293    0.0751   -0.2094 C   0  0  0  0  0  0  0  0  0  0  0  0
    0.2783    1.3504   -0.9798 C   0  0  0  0  0  0  0  0  0  0  0  0
   -1.0745    1.2697   -0.6028 O   0  0  0  0  0  0  0  0  0  0  0  0
   -0.8828    0.0864    0.0666 C   0  0  0  0  0  0  0  0  0  0  0  0
   -1.4864   -0.1157    1.4023 C   0  0  0  0  0  0  0  0  0  0  0  0
   -1.3679   -1.1156    2.0513 O   0  0  0  0  0  0  0  0  0  0  0  0
   -0.2535   -1.0965   -0.6256 C   0  0  0  0  0  0  0  0  0  0  0  0
   -0.6560   -1.2548   -1.9459 O   0  0  0  0  0  0  0  0  0  0  0  0
    1.3543   -0.0823    1.8132 H   0  0  0  0  0  0  0  0  0  0  0  0
    2.3737    0.8207    0.6411 H   0  0  0  0  0  0  0  0  0  0  0  0
    2.2311   -0.9443    0.5295 H   0  0  0  0  0  0  0  0  0  0  0  0
    0.4549    1.2291   -2.0667 H   0  0  0  0  0  0  0  0  0  0  0  0
    0.7447    2.2570   -0.5986 H   0  0  0  0  0  0  0  0  0  0  0  0
   -2.0722    0.7011    1.8108 H   0  0  0  0  0  0  0  0  0  0  0  0
   -0.1722   -1.9965    0.0162 H   0  0  0  0  0  0  0  0  0  0  0  0
   -1.6342   -1.1598   -2.0614 H   0  0  0  0  0  0  0  0  0  0  0  0
  1  2  1  0
  2  3  1  0
  3  4  1  0
  4  5  1  0
  5  6  1  0
  6  7  2  0
  5  8  1  0
  8  9  1  0
  5  2  1  0
  8  2  1  0
  1 10  1  0
  1 11  1  0
  1 12  1  0
  3 13  1  0
  3 14  1  0
  6 15  1  0
  8 16  1  0
  9 17  1  0
M  END
