
     RDKit          3D

 18 20  0  0  0  0  0  0  0  0999 V2000
   -1.6842   -1.1950    0.0105 C   0  0  0  0  0  0  0  0  0  0  0  0
   -0.8930    0.0576    0.2986 C   0  0  0  0  0  0  0  0  0  0  0  0
   -1.2514    1.2575   -0.4233 C   0  0  0  0  0  0  0  0  0  0  0  0
    0.0486    0.5475   -0.8625 C   0  0  0  0  0  0  0  0  0  0  0  0
    1.2838    0.7858   -0.1077 C   0  0  0  0  0  0  0  0  0  0  0  0
    2.3399   -0.0236    0.3566 C   0  0  0  0  0  0  0  0  0  0  0  0
    1.1014   -0.5014    0.7997 C   0  0  0  0  0  0  0  0  0  0  0  0
   -0.0055    0.0385    1.4022 O   0  0  0  0  0  0  0  0  0  0  0  0
   -1.3692   -1.6964   -0.9052 H   0  0  0  0  0  0  0  0  0  0  0  0
   -1.6466   -1.9129    0.8750 H   0  0  0  0  0  0  0  0  0  0  0  0
   -2.7688   -0.8834   -0.0309 H   0  0  0  0  0  0  0  0  0  0  0  0
   -2.1125    1.2290   -1.0791 H   0  0  0  0  0  0  0  0  0  0  0  0
   -1.0079    2.2404    0.0532 H   0  0  0  0  0  0  0  0  0  0  0  0
    0.0037   -0.0628   -1.7809 H   0  0  0  0  0  0  0  0  0  0  0  0
    1.2059    1.7748    0.4487 H   0  0  0  0  0  0  0  0  0  0  0  0
    3.0695    0.3580    1.1216 H   0  0  0  0  0  0  0  0  0  0  0  0
    2.9348   -0.5818   -0.4237 H   0  0  0  0  0  0  0  0  0  0  0  0
    0.7513   -1.4318    0.2471 H   0  0  0  0  0  0  0  0  0  0  0  0
  1  2  1  0
  2  3  1  0
  3  4  1  0
  4  5  1  0
  5  6  1  0
  6  7  1  0
  7  8  1  0
  4  2  1  0
  7  5  1  0
  8  2  1  0
  1  9  1  0
  1 10  1  0
  1 11  1  0
  3 12  1  0
  3 13  1  0
  4 14  1  0
  5 15  1  0
  6 16  1  0
  6 17  1  0
  7 18  1  0
M  END
