
     RDKit          3D

 19 20  0  0  0  0  0  0  0  0999 V2000
   -1.4372    1.1130   -0.9219 C   0  0  0  0  0  0  0  0  0  0  0  0
   -0.8307    0.0314   -0.3419 C   0  0  0  0  0  0  0  0  0  0  0  0
   -1.4064   -0.9598    0.6161 C   0  0  0  0  0  0  0  0  0  0  0  0
   -0.0165   -1.4068    0.2935 C   0  0  0  0  0  0  0  0  0  0  0  0
   -0.2961   -1.0815   -1.0281 O   0  0  0  0  0  0  0  0  0  0  0  0
    0.4265    0.0076    0.4716 C   0  0  0  0  0  0  0  0  0  0  0  0
    0.3437    0.5100    1.7559 O   0  0  0  0  0  0  0  0  0  0  0  0
    1.6815    0.3067   -0.2805 C   0  0  0  0  0  0  0  0  0  0  0  0
    2.8185   -0.2041    0.3663 O   0  0  0  0  0  0  0  0  0  0  0  0
   -1.4919    1.0855   -2.0512 H   0  0  0  0  0  0  0  0  0  0  0  0
   -0.9458    2.1093   -0.7129 H   0  0  0  0  0  0  0  0  0  0  0  0
   -2.5109    1.2850   -0.6160 H   0  0  0  0  0  0  0  0  0  0  0  0
   -2.2032   -1.5605    0.1484 H   0  0  0  0  0  0  0  0  0  0  0  0
   -1.5958   -0.6221    1.6352 H   0  0  0  0  0  0  0  0  0  0  0  0
    0.4472   -2.2415    0.6200 H   0  0  0  0  0  0  0  0  0  0  0  0
    0.4794    1.4823    1.7105 H   0  0  0  0  0  0  0  0  0  0  0  0
    1.8717    1.3968   -0.4003 H   0  0  0  0  0  0  0  0  0  0  0  0
    1.6170   -0.1609   -1.2733 H   0  0  0  0  0  0  0  0  0  0  0  0
    3.0490   -1.0903    0.0088 H   0  0  0  0  0  0  0  0  0  0  0  0
  1  2  1  0
  2  3  1  0
  3  4  1  0
  4  5  1  0
  4  6  1  0
  6  7  1  0
  6  8  1  0
  8  9  1  0
  5  2  1  0
  6  2  1  0
  1 10  1  0
  1 11  1  0
  1 12  1  0
  3 13  1  0
  3 14  1  0
  4 15  1  0
  7 16  1  0
  8 17  1  0
  8 18  1  0
  9 19  1  0
M  END
