
     RDKit          3D

 19 21  0  0  0  0  0  0  0  0999 V2000
   -2.5887   -0.3439    0.4412 C   0  0  0  0  0  0  0  0  0  0  0  0
   -1.2213    0.1442    0.3710 C   0  0  0  0  0  0  0  0  0  0  0  0
   -0.1878   -0.9094   -0.0586 C   0  0  0  0  0  0  0  0  0  0  0  0
    1.0243    0.0287    0.0099 C   0  0  0  0  0  0  0  0  0  0  0  0
    2.3619   -0.4229   -0.3469 C   0  0  0  0  0  0  0  0  0  0  0  0
    0.4333    1.3360   -0.3075 C   0  0  0  0  0  0  0  0  0  0  0  0
   -0.9529    1.1504   -0.5332 O   0  0  0  0  0  0  0  0  0  0  0  0
    0.6546    0.9483    1.0833 C   0  0  0  0  0  0  0  0  0  0  0  0
   -0.6479    0.6110    1.5307 O   0  0  0  0  0  0  0  0  0  0  0  0
   -3.0611   -0.3268   -0.5581 H   0  0  0  0  0  0  0  0  0  0  0  0
   -3.2028    0.2097    1.1595 H   0  0  0  0  0  0  0  0  0  0  0  0
   -2.5814   -1.4310    0.7490 H   0  0  0  0  0  0  0  0  0  0  0  0
   -0.3952   -1.2248   -1.0818 H   0  0  0  0  0  0  0  0  0  0  0  0
   -0.1214   -1.7284    0.6570 H   0  0  0  0  0  0  0  0  0  0  0  0
    2.5636   -0.2080   -1.4376 H   0  0  0  0  0  0  0  0  0  0  0  0
    2.4752   -1.5044   -0.1642 H   0  0  0  0  0  0  0  0  0  0  0  0
    3.1458    0.1167    0.2049 H   0  0  0  0  0  0  0  0  0  0  0  0
    0.9523    2.1393   -0.8230 H   0  0  0  0  0  0  0  0  0  0  0  0
    1.3495    1.4154    1.7734 H   0  0  0  0  0  0  0  0  0  0  0  0
  1  2  1  0
  2  3  1  0
  3  4  1  0
  4  5  1  0
  4  6  1  0
  6  7  1  0
  6  8  1  0
  8  9  1  0
  7  2  1  0
  9  2  1  0
  8  4  1  0
  1 10  1  0
  1 11  1  0
  1 12  1  0
  3 13  1  0
  3 14  1  0
  5 15  1  0
  5 16  1  0
  5 17  1  0
  6 18  1  0
  8 19  1  0
M  END
