
     RDKit          3D

 19 21  0  0  0  0  0  0  0  0999 V2000
    2.4676    0.3135    0.1991 C   0  0  0  0  0  0  0  0  0  0  0  0
    1.2515   -0.3030   -0.3563 C   0  0  0  0  0  0  0  0  0  0  0  0
    0.1569    0.5758   -0.9814 C   0  0  0  0  0  0  0  0  0  0  0  0
   -0.7753   -0.1142   -0.0814 C   0  0  0  0  0  0  0  0  0  0  0  0
   -2.0834   -0.5787   -0.5278 C   0  0  0  0  0  0  0  0  0  0  0  0
   -2.6696    0.2944    0.4209 O   0  0  0  0  0  0  0  0  0  0  0  0
   -1.4250    0.6194    1.0140 C   0  0  0  0  0  0  0  0  0  0  0  0
    0.2830   -1.1086    0.2695 C   0  0  0  0  0  0  0  0  0  0  0  0
    1.1301   -1.6233   -0.6636 O   0  0  0  0  0  0  0  0  0  0  0  0
    2.7585   -0.1748    1.1448 H   0  0  0  0  0  0  0  0  0  0  0  0
    3.3040    0.4003   -0.5283 H   0  0  0  0  0  0  0  0  0  0  0  0
    2.2199    1.3784    0.4837 H   0  0  0  0  0  0  0  0  0  0  0  0
    0.3323    1.6351   -0.7572 H   0  0  0  0  0  0  0  0  0  0  0  0
    0.0097    0.3553   -2.0645 H   0  0  0  0  0  0  0  0  0  0  0  0
   -2.4365   -0.3322   -1.5406 H   0  0  0  0  0  0  0  0  0  0  0  0
   -2.2705   -1.6560   -0.2540 H   0  0  0  0  0  0  0  0  0  0  0  0
   -1.1917    1.7175    0.9607 H   0  0  0  0  0  0  0  0  0  0  0  0
   -1.3248    0.1847    2.0194 H   0  0  0  0  0  0  0  0  0  0  0  0
    0.2634   -1.5836    1.2431 H   0  0  0  0  0  0  0  0  0  0  0  0
  1  2  1  0
  2  3  1  0
  3  4  1  0
  4  5  1  0
  5  6  1  0
  6  7  1  0
  4  8  1  0
  8  9  1  0
  8  2  1  0
  9  2  1  0
  7  4  1  0
  1 10  1  0
  1 11  1  0
  1 12  1  0
  3 13  1  0
  3 14  1  0
  5 15  1  0
  5 16  1  0
  7 17  1  0
  7 18  1  0
  8 19  1  0
M  END
