
     RDKit          3D

 21 23  0  0  0  0  0  0  0  0999 V2000
    1.6603   -0.7433    0.7445 C   0  0  0  0  0  0  0  0  0  0  0  0
    0.7790    0.1521    0.0651 C   0  0  0  0  0  0  0  0  0  0  0  0
    1.2474    1.4546   -0.4703 C   0  0  0  0  0  0  0  0  0  0  0  0
    0.1353    1.9698   -1.0015 C   0  0  0  0  0  0  0  0  0  0  0  0
   -0.8886    0.9496   -0.6998 C   0  0  0  0  0  0  0  0  0  0  0  0
   -0.1571   -0.3391   -1.0166 C   0  0  0  0  0  0  0  0  0  0  0  0
   -1.0368   -1.3773   -0.3756 C   0  0  0  0  0  0  0  0  0  0  0  0
   -1.3072   -0.6678    0.9679 C   0  0  0  0  0  0  0  0  0  0  0  0
   -0.5311    0.5826    0.7396 C   0  0  0  0  0  0  0  0  0  0  0  0
    2.5793   -0.2327    1.1068 H   0  0  0  0  0  0  0  0  0  0  0  0
    1.1890   -1.2330    1.6294 H   0  0  0  0  0  0  0  0  0  0  0  0
    2.0326   -1.5570    0.0605 H   0  0  0  0  0  0  0  0  0  0  0  0
    2.2574    1.8363   -0.4124 H   0  0  0  0  0  0  0  0  0  0  0  0
   -0.0332    2.8980   -1.5317 H   0  0  0  0  0  0  0  0  0  0  0  0
   -1.8959    1.0712   -0.9661 H   0  0  0  0  0  0  0  0  0  0  0  0
    0.2180   -0.4899   -1.9996 H   0  0  0  0  0  0  0  0  0  0  0  0
   -0.5460   -2.3440   -0.2168 H   0  0  0  0  0  0  0  0  0  0  0  0
   -1.9665   -1.5440   -0.9261 H   0  0  0  0  0  0  0  0  0  0  0  0
   -0.8649   -1.2275    1.8069 H   0  0  0  0  0  0  0  0  0  0  0  0
   -2.3847   -0.5139    1.0353 H   0  0  0  0  0  0  0  0  0  0  0  0
   -0.4863    1.3553    1.4604 H   0  0  0  0  0  0  0  0  0  0  0  0
  1  2  1  0
  2  3  1  0
  3  4  2  0
  4  5  1  0
  5  6  1  0
  6  7  1  0
  7  8  1  0
  8  9  1  0
  6  2  1  0
  9  2  1  0
  9  5  1  0
  1 10  1  0
  1 11  1  0
  1 12  1  0
  3 13  1  0
  4 14  1  0
  5 15  1  0
  6 16  1  0
  7 17  1  0
  7 18  1  0
  8 19  1  0
  8 20  1  0
  9 21  1  0
M  END
