
     RDKit          3D

 19 20  0  0  0  0  0  0  0  0999 V2000
    2.1403    0.1109    0.0118 C   0  0  0  0  0  0  0  0  0  0  0  0
    0.6644   -0.0172   -0.0221 C   0  0  0  0  0  0  0  0  0  0  0  0
    0.0985   -1.3791    0.3562 C   0  0  0  0  0  0  0  0  0  0  0  0
   -1.1730   -1.5333   -0.1686 O   0  0  0  0  0  0  0  0  0  0  0  0
   -1.9574   -0.3977   -0.0918 C   0  0  0  0  0  0  0  0  0  0  0  0
   -1.1548    0.8417   -0.3800 C   0  0  0  0  0  0  0  0  0  0  0  0
   -0.1402    1.0062    0.7373 C   0  0  0  0  0  0  0  0  0  0  0  0
   -0.0157    0.4576   -1.2475 C   0  0  0  0  0  0  0  0  0  0  0  0
    0.2201    0.5188   -2.4269 O   0  0  0  0  0  0  0  0  0  0  0  0
    2.5059    0.5750   -0.9401 H   0  0  0  0  0  0  0  0  0  0  0  0
    2.5516    0.7164    0.8258 H   0  0  0  0  0  0  0  0  0  0  0  0
    2.5698   -0.9340   -0.0135 H   0  0  0  0  0  0  0  0  0  0  0  0
    0.0896   -1.3854    1.4852 H   0  0  0  0  0  0  0  0  0  0  0  0
    0.7855   -2.1317   -0.0406 H   0  0  0  0  0  0  0  0  0  0  0  0
   -2.7955   -0.5332   -0.8101 H   0  0  0  0  0  0  0  0  0  0  0  0
   -2.4250   -0.2755    0.9062 H   0  0  0  0  0  0  0  0  0  0  0  0
   -1.6839    1.7306   -0.6987 H   0  0  0  0  0  0  0  0  0  0  0  0
    0.3014    2.0051    0.8361 H   0  0  0  0  0  0  0  0  0  0  0  0
   -0.5816    0.6248    1.6812 H   0  0  0  0  0  0  0  0  0  0  0  0
  1  2  1  0
  2  3  1  0
  3  4  1  0
  4  5  1  0
  5  6  1  0
  6  7  1  0
  6  8  1  0
  8  9  2  0
  7  2  1  0
  8  2  1  0
  1 10  1  0
  1 11  1  0
  1 12  1  0
  3 13  1  0
  3 14  1  0
  5 15  1  0
  5 16  1  0
  6 17  1  0
  7 18  1  0
  7 19  1  0
M  END
