
     RDKit          3D

 23 25  0  0  0  0  0  0  0  0999 V2000
    0.6792   -1.3956    1.2171 C   0  0  0  0  0  0  0  0  0  0  0  0
    0.0777   -0.6551    0.0673 C   0  0  0  0  0  0  0  0  0  0  0  0
   -0.9622   -1.4642   -0.6296 C   0  0  0  0  0  0  0  0  0  0  0  0
   -1.9335   -0.2779   -0.5853 C   0  0  0  0  0  0  0  0  0  0  0  0
   -1.0426    0.3286    0.4570 C   0  0  0  0  0  0  0  0  0  0  0  0
   -0.4485    1.6960    0.0602 C   0  0  0  0  0  0  0  0  0  0  0  0
    0.9719    1.3768    0.2998 C   0  0  0  0  0  0  0  0  0  0  0  0
    2.0632    1.0092   -0.5000 C   0  0  0  0  0  0  0  0  0  0  0  0
    0.9467    0.1931   -0.7544 C   0  0  0  0  0  0  0  0  0  0  0  0
    0.9410   -2.4258    0.8437 H   0  0  0  0  0  0  0  0  0  0  0  0
    1.6241   -0.9189    1.5046 H   0  0  0  0  0  0  0  0  0  0  0  0
    0.0080   -1.5374    2.0738 H   0  0  0  0  0  0  0  0  0  0  0  0
   -1.3849   -2.3017   -0.0641 H   0  0  0  0  0  0  0  0  0  0  0  0
   -0.6377   -1.6949   -1.6732 H   0  0  0  0  0  0  0  0  0  0  0  0
   -1.9502    0.2485   -1.5446 H   0  0  0  0  0  0  0  0  0  0  0  0
   -2.9541   -0.5594   -0.2404 H   0  0  0  0  0  0  0  0  0  0  0  0
   -1.3671    0.2601    1.4939 H   0  0  0  0  0  0  0  0  0  0  0  0
   -0.8725    2.5073    0.6447 H   0  0  0  0  0  0  0  0  0  0  0  0
   -0.6401    1.8643   -1.0038 H   0  0  0  0  0  0  0  0  0  0  0  0
    1.0642    1.0459    1.3848 H   0  0  0  0  0  0  0  0  0  0  0  0
    2.4259    1.7493   -1.2697 H   0  0  0  0  0  0  0  0  0  0  0  0
    2.9725    0.5219   -0.0502 H   0  0  0  0  0  0  0  0  0  0  0  0
    0.4192    0.4299   -1.7319 H   0  0  0  0  0  0  0  0  0  0  0  0
  1  2  1  0
  2  3  1  0
  3  4  1  0
  4  5  1  0
  5  6  1  0
  6  7  1  0
  7  8  1  0
  8  9  1  0
  5  2  1  0
  9  7  1  0
  9  2  1  0
  1 10  1  0
  1 11  1  0
  1 12  1  0
  3 13  1  0
  3 14  1  0
  4 15  1  0
  4 16  1  0
  5 17  1  0
  6 18  1  0
  6 19  1  0
  7 20  1  0
  8 21  1  0
  8 22  1  0
  9 23  1  0
M  END
