
     RDKit          3D

 21 23  0  0  0  0  0  0  0  0999 V2000
    2.0360   -0.5185   -0.0923 C   0  0  0  0  0  0  0  0  0  0  0  0
    0.6472    0.0090    0.0021 C   0  0  0  0  0  0  0  0  0  0  0  0
    0.6287    1.4959    0.0585 C   0  0  0  0  0  0  0  0  0  0  0  0
   -0.4445    1.8879    0.8697 O   0  0  0  0  0  0  0  0  0  0  0  0
   -1.5887    1.3745    0.2307 C   0  0  0  0  0  0  0  0  0  0  0  0
   -1.4050   -0.0860    0.0611 C   0  0  0  0  0  0  0  0  0  0  0  0
   -0.3028   -0.6802    0.9075 C   0  0  0  0  0  0  0  0  0  0  0  0
   -0.3603   -1.7970   -0.1078 C   0  0  0  0  0  0  0  0  0  0  0  0
   -0.3701   -0.5373   -0.9369 C   0  0  0  0  0  0  0  0  0  0  0  0
    2.1985   -1.4941    0.3966 H   0  0  0  0  0  0  0  0  0  0  0  0
    2.6993    0.2028    0.4662 H   0  0  0  0  0  0  0  0  0  0  0  0
    2.4352   -0.4994   -1.1449 H   0  0  0  0  0  0  0  0  0  0  0  0
    0.3885    1.8760   -0.9717 H   0  0  0  0  0  0  0  0  0  0  0  0
    1.5748    1.9621    0.3523 H   0  0  0  0  0  0  0  0  0  0  0  0
   -2.4293    1.5384    0.9360 H   0  0  0  0  0  0  0  0  0  0  0  0
   -1.8016    1.9229   -0.7072 H   0  0  0  0  0  0  0  0  0  0  0  0
   -2.3125   -0.6933   -0.0349 H   0  0  0  0  0  0  0  0  0  0  0  0
   -0.2979   -0.7737    1.9025 H   0  0  0  0  0  0  0  0  0  0  0  0
    0.4946   -2.4488   -0.1884 H   0  0  0  0  0  0  0  0  0  0  0  0
   -1.3704   -2.2707   -0.0670 H   0  0  0  0  0  0  0  0  0  0  0  0
   -0.4198   -0.4705   -1.9318 H   0  0  0  0  0  0  0  0  0  0  0  0
  1  2  1  0
  2  3  1  0
  3  4  1  0
  4  5  1  0
  5  6  1  0
  6  7  1  0
  7  8  1  0
  8  9  1  0
  7  2  1  0
  9  2  1  0
  9  6  1  0
  1 10  1  0
  1 11  1  0
  1 12  1  0
  3 13  1  0
  3 14  1  0
  5 15  1  0
  5 16  1  0
  6 17  1  0
  7 18  1  0
  8 19  1  0
  8 20  1  0
  9 21  1  0
M  END
