
     RDKit          3D

 17 18  0  0  0  0  0  0  0  0999 V2000
   -1.8654   -0.3648   -0.3087 C   0  0  0  0  0  0  0  0  0  0  0  0
   -0.4758   -0.0069    0.1085 C   0  0  0  0  0  0  0  0  0  0  0  0
    0.2707   -0.9340    1.0131 C   0  0  0  0  0  0  0  0  0  0  0  0
    1.3969   -1.3690    0.2777 O   0  0  0  0  0  0  0  0  0  0  0  0
    1.8352   -0.1548   -0.2652 C   0  0  0  0  0  0  0  0  0  0  0  0
    0.5546    0.4286   -0.8622 C   0  0  0  0  0  0  0  0  0  0  0  0
   -0.1110    1.4332    0.0183 C   0  0  0  0  0  0  0  0  0  0  0  0
   -1.9645   -1.3461   -0.7902 H   0  0  0  0  0  0  0  0  0  0  0  0
   -2.4893   -0.3985    0.6253 H   0  0  0  0  0  0  0  0  0  0  0  0
   -2.2864    0.4520   -0.9376 H   0  0  0  0  0  0  0  0  0  0  0  0
   -0.3102   -1.8478    1.2311 H   0  0  0  0  0  0  0  0  0  0  0  0
    0.6761   -0.4541    1.9230 H   0  0  0  0  0  0  0  0  0  0  0  0
    2.5894   -0.2815   -1.0391 H   0  0  0  0  0  0  0  0  0  0  0  0
    2.2376    0.5277    0.5346 H   0  0  0  0  0  0  0  0  0  0  0  0
    0.3683    0.3562   -1.9277 H   0  0  0  0  0  0  0  0  0  0  0  0
   -0.8159    2.1045   -0.4855 H   0  0  0  0  0  0  0  0  0  0  0  0
    0.3895    1.8554    0.8844 H   0  0  0  0  0  0  0  0  0  0  0  0
  1  2  1  0
  2  3  1  0
  3  4  1  0
  4  5  1  0
  5  6  1  0
  6  7  1  0
  6  2  1  0
  7  2  1  0
  1  8  1  0
  1  9  1  0
  1 10  1  0
  3 11  1  0
  3 12  1  0
  5 13  1  0
  5 14  1  0
  6 15  1  0
  7 16  1  0
  7 17  1  0
M  END
