
     RDKit          3D

 17 18  0  0  0  0  0  0  0  0999 V2000
    1.9307   -0.0881   -0.0985 C   0  0  0  0  0  0  0  0  0  0  0  0
    0.4808   -0.1549   -0.0856 C   0  0  0  0  0  0  0  0  0  0  0  0
   -0.1774   -0.9911    0.9486 C   0  0  0  0  0  0  0  0  0  0  0  0
   -1.3497   -1.4425    0.3030 O   0  0  0  0  0  0  0  0  0  0  0  0
   -1.4645   -0.5545   -0.7728 C   0  0  0  0  0  0  0  0  0  0  0  0
   -0.1293   -0.6150   -1.2610 O   0  0  0  0  0  0  0  0  0  0  0  0
   -1.5583    0.8286   -0.2581 C   0  0  0  0  0  0  0  0  0  0  0  0
   -2.5528    1.4580   -0.0874 O   0  0  0  0  0  0  0  0  0  0  0  0
   -0.1617    1.2412   -0.0095 C   0  0  0  0  0  0  0  0  0  0  0  0
    2.4300   -1.0105    0.1929 H   0  0  0  0  0  0  0  0  0  0  0  0
    2.2734    0.7605    0.5329 H   0  0  0  0  0  0  0  0  0  0  0  0
    2.2891    0.1566   -1.1331 H   0  0  0  0  0  0  0  0  0  0  0  0
    0.4275   -1.8446    1.3146 H   0  0  0  0  0  0  0  0  0  0  0  0
   -0.5350   -0.4122    1.8262 H   0  0  0  0  0  0  0  0  0  0  0  0
   -2.1953   -0.8313   -1.5107 H   0  0  0  0  0  0  0  0  0  0  0  0
    0.2783    1.8032   -0.8621 H   0  0  0  0  0  0  0  0  0  0  0  0
    0.0143    1.6965    0.9607 H   0  0  0  0  0  0  0  0  0  0  0  0
  1  2  1  0
  2  3  1  0
  3  4  1  0
  4  5  1  0
  5  6  1  0
  5  7  1  0
  7  8  2  0
  7  9  1  0
  6  2  1  0
  9  2  1  0
  1 10  1  0
  1 11  1  0
  1 12  1  0
  3 13  1  0
  3 14  1  0
  5 15  1  0
  9 16  1  0
  9 17  1  0
M  END
