
     RDKit          2D

 19 22  0  0  0  0  0  0  0  0999 V2000
   -1.2669    2.2315    0.0000 C   0  0  0  0  0  0  0  0  0  0  0  0
   -1.0323    0.7500    0.0000 C   0  0  0  0  0  0  0  0  0  0  0  0
    0.3943    1.2135    0.0000 C   0  0  0  0  0  0  0  0  0  0  0  0
    1.2760    0.0000    0.0000 C   0  0  0  0  0  0  0  0  0  0  0  0
    0.3943   -1.2135    0.0000 O   0  0  0  0  0  0  0  0  0  0  0  0
   -1.0323   -0.7500    0.0000 C   0  0  0  0  0  0  0  0  0  0  0  0
   -2.5323   -0.7500    0.0000 C   0  0  0  0  0  0  0  0  0  0  0  0
   -2.5323    0.7500    0.0000 C   0  0  0  0  0  0  0  0  0  0  0  0
    0.3943   -0.2865    0.0000 C   0  0  0  0  0  0  0  0  0  0  0  0
   -1.5016    3.7131    0.0000 H   0  0  0  0  0  0  0  0  0  0  0  0
   -2.7660    2.1792    0.0000 H   0  0  0  0  0  0  0  0  0  0  0  0
    0.0308    2.6037    0.0000 H   0  0  0  0  0  0  0  0  0  0  0  0
    0.9649    2.4370    0.0000 H   0  0  0  0  0  0  0  0  0  0  0  0
    2.3907    1.0037    0.0000 H   0  0  0  0  0  0  0  0  0  0  0  0
    2.5047   -0.8603    0.0000 H   0  0  0  0  0  0  0  0  0  0  0  0
   -4.0323   -0.7500    0.0000 H   0  0  0  0  0  0  0  0  0  0  0  0
   -2.5323   -2.2500    0.0000 H   0  0  0  0  0  0  0  0  0  0  0  0
   -3.7143    1.6735    0.0000 H   0  0  0  0  0  0  0  0  0  0  0  0
    1.4913   -1.3095    0.0000 H   0  0  0  0  0  0  0  0  0  0  0  0
  1  2  1  0
  2  3  1  0
  3  4  1  0
  4  5  1  0
  5  6  1  0
  6  7  1  0
  7  8  1  0
  8  9  1  0
  6  2  1  0
  8  2  1  0
  9  3  1  0
  9  6  1  0
  1 10  1  0
  1 11  1  0
  1 12  1  0
  3 13  1  0
  4 14  1  0
  4 15  1  0
  7 16  1  0
  7 17  1  0
  8 18  1  0
  9 19  1  0
M  END
