
     RDKit          3D

 20 21  0  0  0  0  0  0  0  0999 V2000
   -2.1945   -0.0825    0.7256 C   0  0  0  0  0  0  0  0  0  0  0  0
   -0.7482   -0.0841    0.3449 C   0  0  0  0  0  0  0  0  0  0  0  0
   -0.2274    1.2246   -0.2079 C   0  0  0  0  0  0  0  0  0  0  0  0
    1.1979    1.0538   -0.6532 C   0  0  0  0  0  0  0  0  0  0  0  0
    1.8860   -0.0964    0.0260 C   0  0  0  0  0  0  0  0  0  0  0  0
    0.8663   -1.1696    0.3424 C   0  0  0  0  0  0  0  0  0  0  0  0
   -0.3018   -1.1617   -0.5999 C   0  0  0  0  0  0  0  0  0  0  0  0
    0.0347   -0.6140    1.3365 O   0  0  0  0  0  0  0  0  0  0  0  0
   -2.2335    0.0959    1.8401 H   0  0  0  0  0  0  0  0  0  0  0  0
   -2.7725    0.7624    0.2892 H   0  0  0  0  0  0  0  0  0  0  0  0
   -2.7082   -1.0459    0.5708 H   0  0  0  0  0  0  0  0  0  0  0  0
   -0.3919    2.0787    0.4599 H   0  0  0  0  0  0  0  0  0  0  0  0
   -0.8270    1.4136   -1.1466 H   0  0  0  0  0  0  0  0  0  0  0  0
    1.2775    0.8598   -1.7603 H   0  0  0  0  0  0  0  0  0  0  0  0
    1.7721    1.9795   -0.4133 H   0  0  0  0  0  0  0  0  0  0  0  0
    2.2565    0.2690    1.0293 H   0  0  0  0  0  0  0  0  0  0  0  0
    2.7542   -0.4591   -0.5237 H   0  0  0  0  0  0  0  0  0  0  0  0
    1.2747   -2.1542    0.5683 H   0  0  0  0  0  0  0  0  0  0  0  0
   -0.8739   -2.0847   -0.5989 H   0  0  0  0  0  0  0  0  0  0  0  0
   -0.0409   -0.7849   -1.6291 H   0  0  0  0  0  0  0  0  0  0  0  0
  1  2  1  0
  2  3  1  0
  3  4  1  0
  4  5  1  0
  5  6  1  0
  6  7  1  0
  6  8  1  0
  7  2  1  0
  8  2  1  0
  1  9  1  0
  1 10  1  0
  1 11  1  0
  3 12  1  0
  3 13  1  0
  4 14  1  0
  4 15  1  0
  5 16  1  0
  5 17  1  0
  6 18  1  0
  7 19  1  0
  7 20  1  0
M  END
