
     RDKit          3D

 19 20  0  0  0  0  0  0  0  0999 V2000
    2.1525    0.2053   -0.2270 C   0  0  0  0  0  0  0  0  0  0  0  0
    0.8028   -0.0157   -0.1443 C   0  0  0  0  0  0  0  0  0  0  0  0
    0.0743   -0.8527    0.8759 C   0  0  0  0  0  0  0  0  0  0  0  0
   -1.0178   -0.3208   -0.0036 C   0  0  0  0  0  0  0  0  0  0  0  0
   -2.3405   -0.5257    0.0953 C   0  0  0  0  0  0  0  0  0  0  0  0
   -2.8516   -1.5479    0.5830 O   0  0  0  0  0  0  0  0  0  0  0  0
   -0.0985   -0.6481   -1.1582 C   0  0  0  0  0  0  0  0  0  0  0  0
   -0.2864    1.0011    0.0547 C   0  0  0  0  0  0  0  0  0  0  0  0
   -0.2625    1.6268    1.2800 O   0  0  0  0  0  0  0  0  0  0  0  0
    2.5520    0.2390   -1.2592 H   0  0  0  0  0  0  0  0  0  0  0  0
    2.7613   -0.5878    0.2908 H   0  0  0  0  0  0  0  0  0  0  0  0
    2.4721    1.1580    0.2873 H   0  0  0  0  0  0  0  0  0  0  0  0
    0.2483   -1.9188    0.7093 H   0  0  0  0  0  0  0  0  0  0  0  0
    0.1162   -0.4698    1.8982 H   0  0  0  0  0  0  0  0  0  0  0  0
   -3.1036    0.1980   -0.2489 H   0  0  0  0  0  0  0  0  0  0  0  0
    0.0319   -1.7358   -1.3213 H   0  0  0  0  0  0  0  0  0  0  0  0
   -0.2024   -0.0403   -2.0546 H   0  0  0  0  0  0  0  0  0  0  0  0
   -0.5010    1.6480   -0.8058 H   0  0  0  0  0  0  0  0  0  0  0  0
   -0.5472    2.5873    1.1483 H   0  0  0  0  0  0  0  0  0  0  0  0
  1  2  1  0
  2  3  1  0
  3  4  1  0
  4  5  1  0
  5  6  2  0
  4  7  1  0
  4  8  1  0
  8  9  1  0
  7  2  1  0
  8  2  1  0
  1 10  1  0
  1 11  1  0
  1 12  1  0
  3 13  1  0
  3 14  1  0
  5 15  1  0
  7 16  1  0
  7 17  1  0
  8 18  1  0
  9 19  1  0
M  END
