
     RDKit          3D

 19 21  0  0  0  0  0  0  0  0999 V2000
   -1.9860    1.2460   -0.3479 C   0  0  0  0  0  0  0  0  0  0  0  0
   -0.8260    0.2715   -0.3912 C   0  0  0  0  0  0  0  0  0  0  0  0
    0.1709    0.5812   -1.2583 O   0  0  0  0  0  0  0  0  0  0  0  0
    1.4362    0.6507   -0.7868 C   0  0  0  0  0  0  0  0  0  0  0  0
    1.8485   -0.3691    0.2087 C   0  0  0  0  0  0  0  0  0  0  0  0
    0.7283   -1.2528    0.6937 C   0  0  0  0  0  0  0  0  0  0  0  0
    0.0634   -1.9812   -0.2650 O   0  0  0  0  0  0  0  0  0  0  0  0
   -1.0648   -1.1817   -0.1739 C   0  0  0  0  0  0  0  0  0  0  0  0
   -0.4681   -0.3584    0.8736 C   0  0  0  0  0  0  0  0  0  0  0  0
   -2.5600    1.2774   -1.2729 H   0  0  0  0  0  0  0  0  0  0  0  0
   -1.5334    2.2534   -0.1156 H   0  0  0  0  0  0  0  0  0  0  0  0
   -2.6194    1.0184    0.5590 H   0  0  0  0  0  0  0  0  0  0  0  0
    2.1245    0.5428   -1.6791 H   0  0  0  0  0  0  0  0  0  0  0  0
    1.6357    1.7051   -0.4345 H   0  0  0  0  0  0  0  0  0  0  0  0
    2.2157    0.1835    1.1249 H   0  0  0  0  0  0  0  0  0  0  0  0
    2.7503   -0.9710   -0.1088 H   0  0  0  0  0  0  0  0  0  0  0  0
    1.0297   -1.8603    1.5477 H   0  0  0  0  0  0  0  0  0  0  0  0
   -2.0498   -1.6044   -0.0168 H   0  0  0  0  0  0  0  0  0  0  0  0
   -0.8958   -0.1513    1.8432 H   0  0  0  0  0  0  0  0  0  0  0  0
  1  2  1  0
  2  3  1  0
  3  4  1  0
  4  5  1  0
  5  6  1  0
  6  7  1  0
  7  8  1  0
  8  9  1  0
  8  2  1  0
  9  2  1  0
  9  6  1  0
  1 10  1  0
  1 11  1  0
  1 12  1  0
  4 13  1  0
  4 14  1  0
  5 15  1  0
  5 16  1  0
  6 17  1  0
  8 18  1  0
  9 19  1  0
M  END
