
     RDKit          3D

 23 24  0  0  0  0  0  0  0  0999 V2000
    1.9288   -1.0764    0.3217 C   0  0  0  0  0  0  0  0  0  0  0  0
    0.7181   -0.2241    0.0625 C   0  0  0  0  0  0  0  0  0  0  0  0
    1.0996    1.2167   -0.1844 C   0  0  0  0  0  0  0  0  0  0  0  0
   -0.1908    1.9551   -0.4317 C   0  0  0  0  0  0  0  0  0  0  0  0
   -1.3623    1.4422   -0.0811 C   0  0  0  0  0  0  0  0  0  0  0  0
   -1.5334    0.1162    0.5600 C   0  0  0  0  0  0  0  0  0  0  0  0
   -1.5133   -0.9987   -0.4948 C   0  0  0  0  0  0  0  0  0  0  0  0
   -0.1149   -0.7999   -1.0659 C   0  0  0  0  0  0  0  0  0  0  0  0
   -0.2182   -0.2306    1.2734 C   0  0  0  0  0  0  0  0  0  0  0  0
    2.2029   -0.9588    1.3822 H   0  0  0  0  0  0  0  0  0  0  0  0
    2.7220   -0.7410   -0.3818 H   0  0  0  0  0  0  0  0  0  0  0  0
    1.6561   -2.1207    0.0605 H   0  0  0  0  0  0  0  0  0  0  0  0
    1.4780    1.6126    0.7897 H   0  0  0  0  0  0  0  0  0  0  0  0
    1.8001    1.3391   -1.0112 H   0  0  0  0  0  0  0  0  0  0  0  0
   -0.0854    2.9288   -0.9140 H   0  0  0  0  0  0  0  0  0  0  0  0
   -2.2400    2.0429   -0.2829 H   0  0  0  0  0  0  0  0  0  0  0  0
   -2.3942    0.0529    1.2184 H   0  0  0  0  0  0  0  0  0  0  0  0
   -1.5233   -1.9481    0.0489 H   0  0  0  0  0  0  0  0  0  0  0  0
   -2.2938   -0.8716   -1.2427 H   0  0  0  0  0  0  0  0  0  0  0  0
   -0.1465   -0.1683   -1.9522 H   0  0  0  0  0  0  0  0  0  0  0  0
    0.2932   -1.8028   -1.3539 H   0  0  0  0  0  0  0  0  0  0  0  0
   -0.3376   -1.2670    1.6539 H   0  0  0  0  0  0  0  0  0  0  0  0
    0.0550    0.5014    2.0254 H   0  0  0  0  0  0  0  0  0  0  0  0
  1  2  1  0
  2  3  1  0
  3  4  1  0
  4  5  2  0
  5  6  1  0
  6  7  1  0
  7  8  1  0
  6  9  1  0
  8  2  1  0
  9  2  1  0
  1 10  1  0
  1 11  1  0
  1 12  1  0
  3 13  1  0
  3 14  1  0
  4 15  1  0
  5 16  1  0
  6 17  1  0
  7 18  1  0
  7 19  1  0
  8 20  1  0
  8 21  1  0
  9 22  1  0
  9 23  1  0
M  END
