
     RDKit          3D

 21 22  0  0  0  0  0  0  0  0999 V2000
    2.3305   -0.3076   -0.0781 C   0  0  0  0  0  0  0  0  0  0  0  0
    0.8634   -0.0665   -0.1389 C   0  0  0  0  0  0  0  0  0  0  0  0
    0.4826    1.3540   -0.1884 C   0  0  0  0  0  0  0  0  0  0  0  0
   -0.7635    1.7158    0.0437 C   0  0  0  0  0  0  0  0  0  0  0  0
   -1.8489    0.7455    0.3667 C   0  0  0  0  0  0  0  0  0  0  0  0
   -1.3024   -0.6505    0.4861 C   0  0  0  0  0  0  0  0  0  0  0  0
   -1.0326   -1.1463   -0.9076 C   0  0  0  0  0  0  0  0  0  0  0  0
    0.1966   -0.7865   -1.2516 C   0  0  0  0  0  0  0  0  0  0  0  0
    0.1249   -0.6617    1.0546 C   0  0  0  0  0  0  0  0  0  0  0  0
    2.5937   -1.2400    0.4542 H   0  0  0  0  0  0  0  0  0  0  0  0
    2.7088   -0.3967   -1.1253 H   0  0  0  0  0  0  0  0  0  0  0  0
    2.8801    0.5424    0.3930 H   0  0  0  0  0  0  0  0  0  0  0  0
    1.2316    2.0926   -0.4157 H   0  0  0  0  0  0  0  0  0  0  0  0
   -1.0128    2.7670   -0.0018 H   0  0  0  0  0  0  0  0  0  0  0  0
   -2.4186    1.0603    1.2702 H   0  0  0  0  0  0  0  0  0  0  0  0
   -2.5646    0.7640   -0.4795 H   0  0  0  0  0  0  0  0  0  0  0  0
   -1.9385   -1.3270    1.0524 H   0  0  0  0  0  0  0  0  0  0  0  0
   -1.7765   -1.7040   -1.4791 H   0  0  0  0  0  0  0  0  0  0  0  0
    0.6447   -0.9907   -2.2072 H   0  0  0  0  0  0  0  0  0  0  0  0
    0.2087   -0.0534    1.9546 H   0  0  0  0  0  0  0  0  0  0  0  0
    0.3928   -1.7109    1.1977 H   0  0  0  0  0  0  0  0  0  0  0  0
  1  2  1  0
  2  3  1  0
  3  4  2  0
  4  5  1  0
  5  6  1  0
  6  7  1  0
  7  8  2  0
  6  9  1  0
  8  2  1  0
  9  2  1  0
  1 10  1  0
  1 11  1  0
  1 12  1  0
  3 13  1  0
  4 14  1  0
  5 15  1  0
  5 16  1  0
  6 17  1  0
  7 18  1  0
  8 19  1  0
  9 20  1  0
  9 21  1  0
M  END
