
     RDKit          3D

 19 21  0  0  0  0  0  0  0  0999 V2000
    1.9814    0.2683    0.9633 C   0  0  0  0  0  0  0  0  0  0  0  0
    0.8465   -0.2061    0.1347 C   0  0  0  0  0  0  0  0  0  0  0  0
    1.1132   -1.4798   -0.4851 O   0  0  0  0  0  0  0  0  0  0  0  0
    0.0695   -1.4122    0.3923 C   0  0  0  0  0  0  0  0  0  0  0  0
   -1.2892   -1.2034   -0.2772 C   0  0  0  0  0  0  0  0  0  0  0  0
   -0.9267   -0.2045   -1.3889 C   0  0  0  0  0  0  0  0  0  0  0  0
   -0.0365    0.7018   -0.6183 C   0  0  0  0  0  0  0  0  0  0  0  0
   -0.7691    1.7370    0.2423 C   0  0  0  0  0  0  0  0  0  0  0  0
    0.0990    2.0145   -0.7839 O   0  0  0  0  0  0  0  0  0  0  0  0
    1.7297    1.2837    1.3829 H   0  0  0  0  0  0  0  0  0  0  0  0
    2.3125   -0.4403    1.7189 H   0  0  0  0  0  0  0  0  0  0  0  0
    2.8448    0.4745    0.2644 H   0  0  0  0  0  0  0  0  0  0  0  0
    0.0930   -1.9896    1.3280 H   0  0  0  0  0  0  0  0  0  0  0  0
   -1.7177   -2.1184   -0.6664 H   0  0  0  0  0  0  0  0  0  0  0  0
   -1.9795   -0.6267    0.3976 H   0  0  0  0  0  0  0  0  0  0  0  0
   -0.3792   -0.7743   -2.1671 H   0  0  0  0  0  0  0  0  0  0  0  0
   -1.7986    0.2469   -1.8439 H   0  0  0  0  0  0  0  0  0  0  0  0
   -0.3440    1.9223    1.2669 H   0  0  0  0  0  0  0  0  0  0  0  0
   -1.8493    1.8065    0.1394 H   0  0  0  0  0  0  0  0  0  0  0  0
  1  2  1  0
  2  3  1  0
  3  4  1  0
  4  5  1  0
  5  6  1  0
  6  7  1  0
  7  8  1  0
  8  9  1  0
  4  2  1  0
  9  7  1  0
  7  2  1  0
  1 10  1  0
  1 11  1  0
  1 12  1  0
  4 13  1  0
  5 14  1  0
  5 15  1  0
  6 16  1  0
  6 17  1  0
  8 18  1  0
  8 19  1  0
M  END
