
     RDKit          3D

 21 23  0  0  0  0  0  0  0  0999 V2000
   -1.3908   -1.4460    0.0396 C   0  0  0  0  0  0  0  0  0  0  0  0
   -0.2249   -0.5813   -0.0024 C   0  0  0  0  0  0  0  0  0  0  0  0
    1.1255   -1.1528   -0.2898 C   0  0  0  0  0  0  0  0  0  0  0  0
    1.9826    0.1118   -0.0711 C   0  0  0  0  0  0  0  0  0  0  0  0
    0.8859    1.0956    0.1589 C   0  0  0  0  0  0  0  0  0  0  0  0
   -0.2457    0.6845   -0.7951 C   0  0  0  0  0  0  0  0  0  0  0  0
   -1.3875    1.4408   -0.1934 C   0  0  0  0  0  0  0  0  0  0  0  0
   -1.1465    1.1870    1.1820 O   0  0  0  0  0  0  0  0  0  0  0  0
   -0.0348    0.3906    1.1637 C   0  0  0  0  0  0  0  0  0  0  0  0
   -2.2993   -0.8519    0.2337 H   0  0  0  0  0  0  0  0  0  0  0  0
   -1.3017   -2.1373    0.9289 H   0  0  0  0  0  0  0  0  0  0  0  0
   -1.4501   -2.0699   -0.8468 H   0  0  0  0  0  0  0  0  0  0  0  0
    1.1876   -1.3629   -1.3753 H   0  0  0  0  0  0  0  0  0  0  0  0
    1.4340   -1.9702    0.3563 H   0  0  0  0  0  0  0  0  0  0  0  0
    2.5437   -0.0685    0.8605 H   0  0  0  0  0  0  0  0  0  0  0  0
    2.6090    0.3306   -0.9332 H   0  0  0  0  0  0  0  0  0  0  0  0
    1.0727    2.1266    0.2925 H   0  0  0  0  0  0  0  0  0  0  0  0
   -0.0526    0.6971   -1.8301 H   0  0  0  0  0  0  0  0  0  0  0  0
   -2.3413    1.0386   -0.5293 H   0  0  0  0  0  0  0  0  0  0  0  0
   -1.3712    2.5194   -0.4032 H   0  0  0  0  0  0  0  0  0  0  0  0
    0.4053    0.0183    2.0537 H   0  0  0  0  0  0  0  0  0  0  0  0
  1  2  1  0
  2  3  1  0
  3  4  1  0
  4  5  1  0
  5  6  1  0
  6  7  1  0
  7  8  1  0
  8  9  1  0
  6  2  1  0
  9  2  1  0
  9  5  1  0
  1 10  1  0
  1 11  1  0
  1 12  1  0
  3 13  1  0
  3 14  1  0
  4 15  1  0
  4 16  1  0
  5 17  1  0
  6 18  1  0
  7 19  1  0
  7 20  1  0
  9 21  1  0
M  END
