
     RDKit          3D

 21 22  0  0  0  0  0  0  0  0999 V2000
   -1.9036   -0.9076    1.2575 C   0  0  0  0  0  0  0  0  0  0  0  0
   -0.8037   -0.3833    0.3093 C   0  0  0  0  0  0  0  0  0  0  0  0
    0.0324   -1.4260   -0.1949 C   0  0  0  0  0  0  0  0  0  0  0  0
    1.2994   -1.4717   -0.5706 C   0  0  0  0  0  0  0  0  0  0  0  0
    2.2543   -0.3797   -0.5688 C   0  0  0  0  0  0  0  0  0  0  0  0
    1.9663    0.8917   -0.3211 C   0  0  0  0  0  0  0  0  0  0  0  0
    0.7620    1.6263    0.0042 C   0  0  0  0  0  0  0  0  0  0  0  0
   -0.4614    0.9733    0.3938 C   0  0  0  0  0  0  0  0  0  0  0  0
   -1.3533    0.5498   -0.8163 C   0  0  0  0  0  0  0  0  0  0  0  0
   -1.4305   -1.0719    2.2469 H   0  0  0  0  0  0  0  0  0  0  0  0
   -2.2761   -1.8606    0.8691 H   0  0  0  0  0  0  0  0  0  0  0  0
   -2.6976   -0.1583    1.3719 H   0  0  0  0  0  0  0  0  0  0  0  0
   -0.4405   -2.4048   -0.3094 H   0  0  0  0  0  0  0  0  0  0  0  0
    1.6849   -2.4137   -0.9197 H   0  0  0  0  0  0  0  0  0  0  0  0
    3.2843   -0.6272   -0.7879 H   0  0  0  0  0  0  0  0  0  0  0  0
    2.8536    1.5162   -0.3818 H   0  0  0  0  0  0  0  0  0  0  0  0
    1.0687    2.3905    0.7871 H   0  0  0  0  0  0  0  0  0  0  0  0
    0.5454    2.2935   -0.8894 H   0  0  0  0  0  0  0  0  0  0  0  0
   -1.0923    1.6058    1.1029 H   0  0  0  0  0  0  0  0  0  0  0  0
   -2.4184    0.7587   -0.7852 H   0  0  0  0  0  0  0  0  0  0  0  0
   -0.8737    0.4991   -1.7977 H   0  0  0  0  0  0  0  0  0  0  0  0
  1  2  1  0
  2  3  1  0
  3  4  2  0
  4  5  1  0
  5  6  2  0
  6  7  1  0
  7  8  1  0
  8  9  1  0
  8  2  1  0
  9  2  1  0
  1 10  1  0
  1 11  1  0
  1 12  1  0
  3 13  1  0
  4 14  1  0
  5 15  1  0
  6 16  1  0
  7 17  1  0
  7 18  1  0
  8 19  1  0
  9 20  1  0
  9 21  1  0
M  END
