
     RDKit          3D

 19 22  0  0  0  0  0  0  0  0999 V2000
    1.6833   -0.6859    0.7525 C   0  0  0  0  0  0  0  0  0  0  0  0
    0.5531    0.0320    0.1760 C   0  0  0  0  0  0  0  0  0  0  0  0
   -0.7647    0.0429    0.8666 C   0  0  0  0  0  0  0  0  0  0  0  0
   -0.9019   -1.3942    0.4078 C   0  0  0  0  0  0  0  0  0  0  0  0
   -0.3544   -0.6763   -0.7907 C   0  0  0  0  0  0  0  0  0  0  0  0
   -1.3419    0.4061   -0.4631 C   0  0  0  0  0  0  0  0  0  0  0  0
   -0.6741    1.6748   -0.8963 C   0  0  0  0  0  0  0  0  0  0  0  0
   -0.0541    2.4600    0.0576 O   0  0  0  0  0  0  0  0  0  0  0  0
    0.7558    1.4085   -0.3880 C   0  0  0  0  0  0  0  0  0  0  0  0
    1.6152   -0.8042    1.8491 H   0  0  0  0  0  0  0  0  0  0  0  0
    2.6423   -0.1874    0.5255 H   0  0  0  0  0  0  0  0  0  0  0  0
    1.7484   -1.7110    0.2830 H   0  0  0  0  0  0  0  0  0  0  0  0
   -1.0049    0.4011    1.7690 H   0  0  0  0  0  0  0  0  0  0  0  0
   -0.2414   -2.0985    0.9188 H   0  0  0  0  0  0  0  0  0  0  0  0
   -1.9443   -1.7170    0.2438 H   0  0  0  0  0  0  0  0  0  0  0  0
   -0.1250   -1.0515   -1.6849 H   0  0  0  0  0  0  0  0  0  0  0  0
   -2.3800    0.2512   -0.6600 H   0  0  0  0  0  0  0  0  0  0  0  0
   -0.8030    2.0355   -1.9145 H   0  0  0  0  0  0  0  0  0  0  0  0
    1.5915    1.6137   -1.0521 H   0  0  0  0  0  0  0  0  0  0  0  0
  1  2  1  0
  2  3  1  0
  3  4  1  0
  4  5  1  0
  5  6  1  0
  6  7  1  0
  7  8  1  0
  8  9  1  0
  5  2  1  0
  9  7  1  0
  9  2  1  0
  6  3  1  0
  1 10  1  0
  1 11  1  0
  1 12  1  0
  3 13  1  0
  4 14  1  0
  4 15  1  0
  5 16  1  0
  6 17  1  0
  7 18  1  0
  9 19  1  0
M  END
