
     RDKit          3D

 21 22  0  0  0  0  0  0  0  0999 V2000
   -2.5150   -0.2537   -0.5536 C   0  0  0  0  0  0  0  0  0  0  0  0
   -1.1987   -0.0095    0.1667 C   0  0  0  0  0  0  0  0  0  0  0  0
   -0.1238   -1.0197    0.0020 C   0  0  0  0  0  0  0  0  0  0  0  0
    1.1367   -0.2719   -0.0008 C   0  0  0  0  0  0  0  0  0  0  0  0
    2.4637   -0.9996    0.0095 C   0  0  0  0  0  0  0  0  0  0  0  0
    3.5279   -0.1398    0.0052 O   0  0  0  0  0  0  0  0  0  0  0  0
    0.9453    1.0160   -0.0126 C   0  0  0  0  0  0  0  0  0  0  0  0
   -0.5041    1.3029   -0.0187 C   0  0  0  0  0  0  0  0  0  0  0  0
   -1.2212    0.9715    1.2530 C   0  0  0  0  0  0  0  0  0  0  0  0
   -2.8659    0.6552   -1.0688 H   0  0  0  0  0  0  0  0  0  0  0  0
   -3.2737   -0.4648    0.2529 H   0  0  0  0  0  0  0  0  0  0  0  0
   -2.4102   -1.1015   -1.2485 H   0  0  0  0  0  0  0  0  0  0  0  0
   -0.1698   -1.5332   -1.0084 H   0  0  0  0  0  0  0  0  0  0  0  0
   -0.1380   -1.8073    0.8062 H   0  0  0  0  0  0  0  0  0  0  0  0
    2.4740   -1.5767   -0.9510 H   0  0  0  0  0  0  0  0  0  0  0  0
    2.4386   -1.6621    0.8828 H   0  0  0  0  0  0  0  0  0  0  0  0
    3.3653    0.6768   -0.4920 H   0  0  0  0  0  0  0  0  0  0  0  0
    1.7124    1.7742   -0.0173 H   0  0  0  0  0  0  0  0  0  0  0  0
   -0.9138    2.0476   -0.7260 H   0  0  0  0  0  0  0  0  0  0  0  0
   -2.1405    1.5318    1.4277 H   0  0  0  0  0  0  0  0  0  0  0  0
   -0.5890    0.8637    2.1729 H   0  0  0  0  0  0  0  0  0  0  0  0
  1  2  1  0
  2  3  1  0
  3  4  1  0
  4  5  1  0
  5  6  1  0
  4  7  2  0
  7  8  1  0
  8  9  1  0
  8  2  1  0
  9  2  1  0
  1 10  1  0
  1 11  1  0
  1 12  1  0
  3 13  1  0
  3 14  1  0
  5 15  1  0
  5 16  1  0
  6 17  1  0
  7 18  1  0
  8 19  1  0
  9 20  1  0
  9 21  1  0
M  END
