
     RDKit          3D

 18 20  0  0  0  0  0  0  0  0999 V2000
   -1.4730    1.0373   -0.4747 C   0  0  0  0  0  0  0  0  0  0  0  0
   -0.2658    0.0757   -0.4278 C   0  0  0  0  0  0  0  0  0  0  0  0
   -0.8214   -1.2309   -0.0381 C   0  0  0  0  0  0  0  0  0  0  0  0
   -2.0846   -1.4904    0.4177 O   0  0  0  0  0  0  0  0  0  0  0  0
    0.1130   -0.6430    0.8873 C   0  0  0  0  0  0  0  0  0  0  0  0
    1.5491   -0.5468    0.3518 C   0  0  0  0  0  0  0  0  0  0  0  0
    2.2951    0.6477   -0.0297 C   0  0  0  0  0  0  0  0  0  0  0  0
    0.9053    0.8322    0.0607 C   0  0  0  0  0  0  0  0  0  0  0  0
   -1.1735    1.9693   -1.0078 H   0  0  0  0  0  0  0  0  0  0  0  0
   -1.7622    1.3163    0.5558 H   0  0  0  0  0  0  0  0  0  0  0  0
   -2.3014    0.6022   -1.0582 H   0  0  0  0  0  0  0  0  0  0  0  0
   -0.4367   -2.0833   -0.6795 H   0  0  0  0  0  0  0  0  0  0  0  0
   -2.5729   -2.1768   -0.0786 H   0  0  0  0  0  0  0  0  0  0  0  0
   -0.1322   -0.1316    1.8198 H   0  0  0  0  0  0  0  0  0  0  0  0
    1.7288   -1.3074   -0.4131 H   0  0  0  0  0  0  0  0  0  0  0  0
    3.0399    0.9742    0.7419 H   0  0  0  0  0  0  0  0  0  0  0  0
    2.7558    0.8185   -1.0506 H   0  0  0  0  0  0  0  0  0  0  0  0
    0.6366    1.3369    1.0579 H   0  0  0  0  0  0  0  0  0  0  0  0
  1  2  1  0
  2  3  1  0
  3  4  1  0
  3  5  1  0
  5  6  1  0
  6  7  1  0
  7  8  1  0
  5  2  1  0
  8  6  1  0
  8  2  1  0
  1  9  1  0
  1 10  1  0
  1 11  1  0
  3 12  1  0
  4 13  1  0
  5 14  1  0
  6 15  1  0
  7 16  1  0
  7 17  1  0
  8 18  1  0
M  END
