
     RDKit          3D

 17 18  0  0  0  0  0  0  0  0999 V2000
   -1.5727   -0.4875    0.6680 C   0  0  0  0  0  0  0  0  0  0  0  0
   -0.4393   -0.0809   -0.0970 C   0  0  0  0  0  0  0  0  0  0  0  0
    0.4983   -1.1381   -0.6918 C   0  0  0  0  0  0  0  0  0  0  0  0
    1.4625    0.0528   -0.7357 C   0  0  0  0  0  0  0  0  0  0  0  0
    0.8408    1.0056   -1.5671 O   0  0  0  0  0  0  0  0  0  0  0  0
   -0.5105    0.9062   -1.1749 C   0  0  0  0  0  0  0  0  0  0  0  0
   -1.5266    1.4890   -1.6080 O   0  0  0  0  0  0  0  0  0  0  0  0
    0.8355    0.3843    0.6248 C   0  0  0  0  0  0  0  0  0  0  0  0
    0.8508    1.7144    0.9493 O   0  0  0  0  0  0  0  0  0  0  0  0
   -1.9044   -1.5486    0.4821 H   0  0  0  0  0  0  0  0  0  0  0  0
   -1.3866   -0.3888    1.7693 H   0  0  0  0  0  0  0  0  0  0  0  0
   -2.4734    0.1513    0.4452 H   0  0  0  0  0  0  0  0  0  0  0  0
    0.8612   -1.8430    0.0739 H   0  0  0  0  0  0  0  0  0  0  0  0
    0.2024   -1.5352   -1.6557 H   0  0  0  0  0  0  0  0  0  0  0  0
    2.4963   -0.1322   -0.7826 H   0  0  0  0  0  0  0  0  0  0  0  0
    1.1048   -0.3462    1.3846 H   0  0  0  0  0  0  0  0  0  0  0  0
    0.6609    1.7971    1.9155 H   0  0  0  0  0  0  0  0  0  0  0  0
  1  2  1  0
  2  3  1  0
  3  4  1  0
  4  5  1  0
  5  6  1  0
  6  7  2  0
  4  8  1  0
  8  9  1  0
  6  2  1  0
  8  2  1  0
  1 10  1  0
  1 11  1  0
  1 12  1  0
  3 13  1  0
  3 14  1  0
  4 15  1  0
  8 16  1  0
  9 17  1  0
M  END
