
     RDKit          3D

 23 25  0  0  0  0  0  0  0  0999 V2000
   -2.2204   -0.8260    0.7482 C   0  0  0  0  0  0  0  0  0  0  0  0
   -1.0282   -0.1768    0.0439 C   0  0  0  0  0  0  0  0  0  0  0  0
   -1.3127    0.5614   -1.1783 C   0  0  0  0  0  0  0  0  0  0  0  0
   -0.8164    1.2747    0.1041 C   0  0  0  0  0  0  0  0  0  0  0  0
    0.6594    1.5591    0.1633 C   0  0  0  0  0  0  0  0  0  0  0  0
    1.2304    0.3151    0.7698 C   0  0  0  0  0  0  0  0  0  0  0  0
    2.2915   -0.3461   -0.0724 C   0  0  0  0  0  0  0  0  0  0  0  0
    1.1931   -1.1317   -0.7631 C   0  0  0  0  0  0  0  0  0  0  0  0
    0.2856   -0.7975    0.3664 C   0  0  0  0  0  0  0  0  0  0  0  0
   -1.9102   -1.2666    1.7317 H   0  0  0  0  0  0  0  0  0  0  0  0
   -2.5591   -1.6745    0.1004 H   0  0  0  0  0  0  0  0  0  0  0  0
   -3.0542   -0.1439    0.8854 H   0  0  0  0  0  0  0  0  0  0  0  0
   -2.3713    0.7109   -1.4543 H   0  0  0  0  0  0  0  0  0  0  0  0
   -0.6214    0.6679   -2.0266 H   0  0  0  0  0  0  0  0  0  0  0  0
   -1.5387    1.9736    0.5485 H   0  0  0  0  0  0  0  0  0  0  0  0
    0.9200    2.4832    0.6866 H   0  0  0  0  0  0  0  0  0  0  0  0
    1.0269    1.6475   -0.8933 H   0  0  0  0  0  0  0  0  0  0  0  0
    1.4355    0.3504    1.8593 H   0  0  0  0  0  0  0  0  0  0  0  0
    2.9441   -0.9838    0.5350 H   0  0  0  0  0  0  0  0  0  0  0  0
    2.8328    0.3239   -0.7592 H   0  0  0  0  0  0  0  0  0  0  0  0
    0.9619   -0.7324   -1.7539 H   0  0  0  0  0  0  0  0  0  0  0  0
    1.3943   -2.2301   -0.8006 H   0  0  0  0  0  0  0  0  0  0  0  0
    0.2573   -1.5585    1.1592 H   0  0  0  0  0  0  0  0  0  0  0  0
  1  2  1  0
  2  3  1  0
  3  4  1  0
  4  5  1  0
  5  6  1  0
  6  7  1  0
  7  8  1  0
  8  9  1  0
  4  2  1  0
  9  6  1  0
  9  2  1  0
  1 10  1  0
  1 11  1  0
  1 12  1  0
  3 13  1  0
  3 14  1  0
  4 15  1  0
  5 16  1  0
  5 17  1  0
  6 18  1  0
  7 19  1  0
  7 20  1  0
  8 21  1  0
  8 22  1  0
  9 23  1  0
M  END
