
     RDKit          3D

 17 20  0  0  0  0  0  0  0  0999 V2000
    1.9616   -0.4362   -0.2778 C   0  0  0  0  0  0  0  0  0  0  0  0
    0.5775   -0.3649    0.1708 C   0  0  0  0  0  0  0  0  0  0  0  0
   -0.5856   -0.8744   -0.6515 C   0  0  0  0  0  0  0  0  0  0  0  0
   -0.9216    0.1153   -1.5983 O   0  0  0  0  0  0  0  0  0  0  0  0
   -1.2186    0.9136   -0.4754 C   0  0  0  0  0  0  0  0  0  0  0  0
   -1.7400   -0.3479    0.1726 C   0  0  0  0  0  0  0  0  0  0  0  0
   -1.2956   -0.3587    1.4676 O   0  0  0  0  0  0  0  0  0  0  0  0
    0.0198    0.1269    1.3925 C   0  0  0  0  0  0  0  0  0  0  0  0
    0.0425    1.1053    0.3272 C   0  0  0  0  0  0  0  0  0  0  0  0
    2.6607   -0.9685    0.3821 H   0  0  0  0  0  0  0  0  0  0  0  0
    1.9872   -0.9196   -1.2990 H   0  0  0  0  0  0  0  0  0  0  0  0
    2.4293    0.5754   -0.4565 H   0  0  0  0  0  0  0  0  0  0  0  0
   -0.5956   -1.8909   -0.9653 H   0  0  0  0  0  0  0  0  0  0  0  0
   -1.8843    1.7371   -0.6118 H   0  0  0  0  0  0  0  0  0  0  0  0
   -2.7258   -0.6752   -0.0654 H   0  0  0  0  0  0  0  0  0  0  0  0
    0.5591    0.3531    2.3255 H   0  0  0  0  0  0  0  0  0  0  0  0
    0.7292    1.9096    0.1628 H   0  0  0  0  0  0  0  0  0  0  0  0
  1  2  1  0
  2  3  1  0
  3  4  1  0
  4  5  1  0
  5  6  1  0
  6  7  1  0
  7  8  1  0
  8  9  1  0
  8  2  1  0
  9  2  1  0
  6  3  1  0
  9  5  1  0
  1 10  1  0
  1 11  1  0
  1 12  1  0
  3 13  1  0
  5 14  1  0
  6 15  1  0
  8 16  1  0
  9 17  1  0
M  END
