
     RDKit          3D

 19 20  0  0  0  0  0  0  0  0999 V2000
    0.7916    1.6387    1.0563 C   0  0  0  0  0  0  0  0  0  0  0  0
    0.0671    0.4828    0.4153 C   0  0  0  0  0  0  0  0  0  0  0  0
   -0.7572    0.8246   -0.7928 C   0  0  0  0  0  0  0  0  0  0  0  0
   -1.6733   -0.1788   -0.1106 C   0  0  0  0  0  0  0  0  0  0  0  0
   -1.2463   -1.5608   -0.3696 C   0  0  0  0  0  0  0  0  0  0  0  0
    0.0376   -1.8563   -0.2251 C   0  0  0  0  0  0  0  0  0  0  0  0
    0.9263   -0.6929    0.1024 C   0  0  0  0  0  0  0  0  0  0  0  0
    1.6163   -0.4042   -1.0962 O   0  0  0  0  0  0  0  0  0  0  0  0
   -1.0952    0.2060    1.0972 O   0  0  0  0  0  0  0  0  0  0  0  0
    0.6611    1.5435    2.1561 H   0  0  0  0  0  0  0  0  0  0  0  0
    1.8723    1.5527    0.8515 H   0  0  0  0  0  0  0  0  0  0  0  0
    0.3662    2.5684    0.6439 H   0  0  0  0  0  0  0  0  0  0  0  0
   -0.3996    0.4828   -1.7600 H   0  0  0  0  0  0  0  0  0  0  0  0
   -1.1716    1.8424   -0.7236 H   0  0  0  0  0  0  0  0  0  0  0  0
   -2.7181    0.0690   -0.2621 H   0  0  0  0  0  0  0  0  0  0  0  0
   -1.9513   -2.3166   -0.6686 H   0  0  0  0  0  0  0  0  0  0  0  0
    0.4606   -2.8401   -0.3250 H   0  0  0  0  0  0  0  0  0  0  0  0
    1.6087   -0.9023    0.9344 H   0  0  0  0  0  0  0  0  0  0  0  0
    2.6046   -0.4589   -0.9237 H   0  0  0  0  0  0  0  0  0  0  0  0
  1  2  1  0
  2  3  1  0
  3  4  1  0
  4  5  1  0
  5  6  2  0
  6  7  1  0
  7  8  1  0
  4  9  1  0
  7  2  1  0
  9  2  1  0
  1 10  1  0
  1 11  1  0
  1 12  1  0
  3 13  1  0
  3 14  1  0
  4 15  1  0
  5 16  1  0
  6 17  1  0
  7 18  1  0
  8 19  1  0
M  END
