
     RDKit          3D

 17 20  0  0  0  0  0  0  0  0999 V2000
    2.1067   -0.2527   -0.0959 C   0  0  0  0  0  0  0  0  0  0  0  0
    0.6641   -0.0277    0.0102 C   0  0  0  0  0  0  0  0  0  0  0  0
   -0.0132    1.2550    0.1963 C   0  0  0  0  0  0  0  0  0  0  0  0
   -1.2670    1.0153    0.9394 C   0  0  0  0  0  0  0  0  0  0  0  0
   -1.8947    1.7889    1.5856 O   0  0  0  0  0  0  0  0  0  0  0  0
   -1.5867   -0.4078    0.7112 C   0  0  0  0  0  0  0  0  0  0  0  0
   -1.2113   -0.6056   -0.6996 C   0  0  0  0  0  0  0  0  0  0  0  0
   -0.3320   -1.0868    0.3622 C   0  0  0  0  0  0  0  0  0  0  0  0
   -0.2235    0.4628   -1.0339 C   0  0  0  0  0  0  0  0  0  0  0  0
    2.6829    0.6030    0.2802 H   0  0  0  0  0  0  0  0  0  0  0  0
    2.4482   -1.1769    0.4574 H   0  0  0  0  0  0  0  0  0  0  0  0
    2.3800   -0.3692   -1.1864 H   0  0  0  0  0  0  0  0  0  0  0  0
    0.4713    2.2283    0.1948 H   0  0  0  0  0  0  0  0  0  0  0  0
   -2.4458   -0.8864    1.1552 H   0  0  0  0  0  0  0  0  0  0  0  0
   -1.7403   -1.1958   -1.4238 H   0  0  0  0  0  0  0  0  0  0  0  0
   -0.0746   -2.1090    0.5777 H   0  0  0  0  0  0  0  0  0  0  0  0
    0.0358    0.7646   -2.0305 H   0  0  0  0  0  0  0  0  0  0  0  0
  1  2  1  0
  2  3  1  0
  3  4  1  0
  4  5  2  0
  4  6  1  0
  6  7  1  0
  7  8  1  0
  7  9  1  0
  8  2  1  0
  9  2  1  0
  9  3  1  0
  8  6  1  0
  1 10  1  0
  1 11  1  0
  1 12  1  0
  3 13  1  0
  6 14  1  0
  7 15  1  0
  8 16  1  0
  9 17  1  0
M  END
