
     RDKit          3D

 23 24  0  0  0  0  0  0  0  0999 V2000
   -2.0758    1.1834   -0.0222 C   0  0  0  0  0  0  0  0  0  0  0  0
   -0.8405    0.3594    0.0149 C   0  0  0  0  0  0  0  0  0  0  0  0
    0.2493    0.9269    0.8495 C   0  0  0  0  0  0  0  0  0  0  0  0
    1.5863    0.3402    0.4848 C   0  0  0  0  0  0  0  0  0  0  0  0
    2.1530    1.0873   -0.5505 O   0  0  0  0  0  0  0  0  0  0  0  0
    1.4270   -1.1073    0.1521 C   0  0  0  0  0  0  0  0  0  0  0  0
    0.1219   -1.4010   -0.5256 C   0  0  0  0  0  0  0  0  0  0  0  0
   -0.3918   -0.1868   -1.3099 C   0  0  0  0  0  0  0  0  0  0  0  0
   -1.0346   -1.0987    0.4395 C   0  0  0  0  0  0  0  0  0  0  0  0
   -2.2755    1.6149    0.9730 H   0  0  0  0  0  0  0  0  0  0  0  0
   -2.9466    0.6852   -0.4686 H   0  0  0  0  0  0  0  0  0  0  0  0
   -1.8641    2.0708   -0.6895 H   0  0  0  0  0  0  0  0  0  0  0  0
    0.0770    0.6911    1.9357 H   0  0  0  0  0  0  0  0  0  0  0  0
    0.2887    2.0439    0.8085 H   0  0  0  0  0  0  0  0  0  0  0  0
    2.2937    0.4358    1.3470 H   0  0  0  0  0  0  0  0  0  0  0  0
    3.0682    0.8121   -0.7368 H   0  0  0  0  0  0  0  0  0  0  0  0
    2.2658   -1.4394   -0.4629 H   0  0  0  0  0  0  0  0  0  0  0  0
    1.4753   -1.7087    1.1000 H   0  0  0  0  0  0  0  0  0  0  0  0
    0.0459   -2.3462   -1.0554 H   0  0  0  0  0  0  0  0  0  0  0  0
    0.3581    0.3645   -1.8616 H   0  0  0  0  0  0  0  0  0  0  0  0
   -1.2467   -0.4525   -1.9400 H   0  0  0  0  0  0  0  0  0  0  0  0
   -0.7777   -1.3128    1.4800 H   0  0  0  0  0  0  0  0  0  0  0  0
   -1.9568   -1.5621    0.0379 H   0  0  0  0  0  0  0  0  0  0  0  0
  1  2  1  0
  2  3  1  0
  3  4  1  0
  4  5  1  0
  4  6  1  0
  6  7  1  0
  7  8  1  0
  7  9  1  0
  8  2  1  0
  9  2  1  0
  1 10  1  0
  1 11  1  0
  1 12  1  0
  3 13  1  0
  3 14  1  0
  4 15  1  0
  5 16  1  0
  6 17  1  0
  6 18  1  0
  7 19  1  0
  8 20  1  0
  8 21  1  0
  9 22  1  0
  9 23  1  0
M  END
