
     RDKit          3D

 17 18  0  0  0  0  0  0  0  0999 V2000
    2.0377   -0.6862   -0.0546 C   0  0  0  0  0  0  0  0  0  0  0  0
    0.6791   -0.2784    0.4899 C   0  0  0  0  0  0  0  0  0  0  0  0
    0.6279    0.5118    1.6257 O   0  0  0  0  0  0  0  0  0  0  0  0
    0.2924    1.0810    0.4156 C   0  0  0  0  0  0  0  0  0  0  0  0
   -1.1260    1.4215    0.0907 C   0  0  0  0  0  0  0  0  0  0  0  0
   -2.0244    0.4067    0.2549 O   0  0  0  0  0  0  0  0  0  0  0  0
   -1.6073   -0.7009   -0.4968 C   0  0  0  0  0  0  0  0  0  0  0  0
   -0.4072   -1.2164    0.1806 C   0  0  0  0  0  0  0  0  0  0  0  0
   -0.3213   -2.3756    0.4717 O   0  0  0  0  0  0  0  0  0  0  0  0
    2.0129   -1.6955   -0.5258 H   0  0  0  0  0  0  0  0  0  0  0  0
    2.3024    0.0263   -0.8604 H   0  0  0  0  0  0  0  0  0  0  0  0
    2.7919   -0.5918    0.7405 H   0  0  0  0  0  0  0  0  0  0  0  0
    1.0318    1.8201    0.0063 H   0  0  0  0  0  0  0  0  0  0  0  0
   -1.1573    1.7491   -0.9785 H   0  0  0  0  0  0  0  0  0  0  0  0
   -1.4142    2.2935    0.7427 H   0  0  0  0  0  0  0  0  0  0  0  0
   -1.3068   -0.3097   -1.5058 H   0  0  0  0  0  0  0  0  0  0  0  0
   -2.4118   -1.4555   -0.5968 H   0  0  0  0  0  0  0  0  0  0  0  0
  1  2  1  0
  2  3  1  0
  3  4  1  0
  4  5  1  0
  5  6  1  0
  6  7  1  0
  7  8  1  0
  8  9  2  0
  4  2  1  0
  8  2  1  0
  1 10  1  0
  1 11  1  0
  1 12  1  0
  4 13  1  0
  5 14  1  0
  5 15  1  0
  7 16  1  0
  7 17  1  0
M  END
