
     RDKit          3D

 19 20  0  0  0  0  0  0  0  0999 V2000
    2.0722    0.5738   -0.2749 C   0  0  0  0  0  0  0  0  0  0  0  0
    0.6897    0.1796    0.2290 C   0  0  0  0  0  0  0  0  0  0  0  0
    0.4881    0.0413    1.5928 O   0  0  0  0  0  0  0  0  0  0  0  0
    0.4817   -1.0954    0.8149 C   0  0  0  0  0  0  0  0  0  0  0  0
   -0.8448   -1.6950    0.3719 C   0  0  0  0  0  0  0  0  0  0  0  0
   -1.8243   -0.7721    0.6971 O   0  0  0  0  0  0  0  0  0  0  0  0
   -1.7823    0.2400   -0.2420 C   0  0  0  0  0  0  0  0  0  0  0  0
   -0.4334    0.7754   -0.5301 C   0  0  0  0  0  0  0  0  0  0  0  0
   -0.4438    2.1625   -0.2615 O   0  0  0  0  0  0  0  0  0  0  0  0
    2.0105    0.4764   -1.3973 H   0  0  0  0  0  0  0  0  0  0  0  0
    2.8589   -0.1044    0.0525 H   0  0  0  0  0  0  0  0  0  0  0  0
    2.2464    1.6386   -0.0648 H   0  0  0  0  0  0  0  0  0  0  0  0
    1.2335   -1.8373    1.0671 H   0  0  0  0  0  0  0  0  0  0  0  0
   -1.0155   -2.6993    0.7553 H   0  0  0  0  0  0  0  0  0  0  0  0
   -0.7585   -1.7947   -0.7496 H   0  0  0  0  0  0  0  0  0  0  0  0
   -2.4900    1.0387    0.1199 H   0  0  0  0  0  0  0  0  0  0  0  0
   -2.2905   -0.1700   -1.1643 H   0  0  0  0  0  0  0  0  0  0  0  0
   -0.2252    0.6843   -1.6153 H   0  0  0  0  0  0  0  0  0  0  0  0
    0.0273    2.3573    0.5994 H   0  0  0  0  0  0  0  0  0  0  0  0
  1  2  1  0
  2  3  1  0
  3  4  1  0
  4  5  1  0
  5  6  1  0
  6  7  1  0
  7  8  1  0
  8  9  1  0
  4  2  1  0
  8  2  1  0
  1 10  1  0
  1 11  1  0
  1 12  1  0
  4 13  1  0
  5 14  1  0
  5 15  1  0
  7 16  1  0
  7 17  1  0
  8 18  1  0
  9 19  1  0
M  END
