
     RDKit          3D

 23 25  0  0  0  0  0  0  0  0999 V2000
    1.9185   -0.5963   -0.3742 C   0  0  0  0  0  0  0  0  0  0  0  0
    0.5647   -0.7004    0.2310 C   0  0  0  0  0  0  0  0  0  0  0  0
    0.3524   -0.3397    1.6419 C   0  0  0  0  0  0  0  0  0  0  0  0
   -0.1336    0.6345    0.6653 C   0  0  0  0  0  0  0  0  0  0  0  0
    0.6337    1.8975    0.4509 C   0  0  0  0  0  0  0  0  0  0  0  0
   -1.4197    0.4703   -0.0805 C   0  0  0  0  0  0  0  0  0  0  0  0
   -1.8285   -0.9806    0.0752 C   0  0  0  0  0  0  0  0  0  0  0  0
   -0.5097   -1.2400   -0.6493 C   0  0  0  0  0  0  0  0  0  0  0  0
   -0.8981    0.0119   -1.4539 C   0  0  0  0  0  0  0  0  0  0  0  0
    2.0176   -1.4466   -1.1126 H   0  0  0  0  0  0  0  0  0  0  0  0
    2.7386   -0.8070    0.3743 H   0  0  0  0  0  0  0  0  0  0  0  0
    2.1262    0.3131   -0.9321 H   0  0  0  0  0  0  0  0  0  0  0  0
    1.2776   -0.0455    2.1938 H   0  0  0  0  0  0  0  0  0  0  0  0
   -0.3677   -0.8579    2.3017 H   0  0  0  0  0  0  0  0  0  0  0  0
    1.7227    1.7811    0.4257 H   0  0  0  0  0  0  0  0  0  0  0  0
    0.2489    2.4922   -0.4208 H   0  0  0  0  0  0  0  0  0  0  0  0
    0.4212    2.5600    1.3415 H   0  0  0  0  0  0  0  0  0  0  0  0
   -2.1629    1.2249   -0.0689 H   0  0  0  0  0  0  0  0  0  0  0  0
   -2.6546   -1.2697   -0.5730 H   0  0  0  0  0  0  0  0  0  0  0  0
   -1.9135   -1.3703    1.0781 H   0  0  0  0  0  0  0  0  0  0  0  0
   -0.3944   -2.1472   -1.1813 H   0  0  0  0  0  0  0  0  0  0  0  0
   -0.0596    0.6332   -1.7549 H   0  0  0  0  0  0  0  0  0  0  0  0
   -1.6798   -0.2173   -2.1780 H   0  0  0  0  0  0  0  0  0  0  0  0
  1  2  1  0
  2  3  1  0
  3  4  1  0
  4  5  1  0
  4  6  1  0
  6  7  1  0
  7  8  1  0
  8  9  1  0
  4  2  1  0
  9  6  1  0
  8  2  1  0
  1 10  1  0
  1 11  1  0
  1 12  1  0
  3 13  1  0
  3 14  1  0
  5 15  1  0
  5 16  1  0
  5 17  1  0
  6 18  1  0
  7 19  1  0
  7 20  1  0
  8 21  1  0
  9 22  1  0
  9 23  1  0
M  END
