
     RDKit          3D

 21 22  0  0  0  0  0  0  0  0999 V2000
   -1.4739   -1.6672   -0.4878 C   0  0  0  0  0  0  0  0  0  0  0  0
   -0.3176   -0.9120   -0.3614 C   0  0  0  0  0  0  0  0  0  0  0  0
    0.9844   -1.3108    0.2120 C   0  0  0  0  0  0  0  0  0  0  0  0
    1.1214    0.0969   -0.2966 C   0  0  0  0  0  0  0  0  0  0  0  0
    2.2540    0.8754   -0.3013 C   0  0  0  0  0  0  0  0  0  0  0  0
    0.4000   -0.3375   -1.4037 O   0  0  0  0  0  0  0  0  0  0  0  0
   -0.1961    0.4085    0.3342 C   0  0  0  0  0  0  0  0  0  0  0  0
   -0.9648    1.4745   -0.4145 C   0  0  0  0  0  0  0  0  0  0  0  0
   -2.3198    1.1485   -0.4964 O   0  0  0  0  0  0  0  0  0  0  0  0
   -1.3053   -2.7604   -0.5278 H   0  0  0  0  0  0  0  0  0  0  0  0
   -2.0783   -1.3751   -1.3880 H   0  0  0  0  0  0  0  0  0  0  0  0
   -2.1826   -1.5146    0.3746 H   0  0  0  0  0  0  0  0  0  0  0  0
    1.0743   -1.4373    1.2903 H   0  0  0  0  0  0  0  0  0  0  0  0
    1.5114   -2.0722   -0.4105 H   0  0  0  0  0  0  0  0  0  0  0  0
    2.1014    1.9167    0.1135 H   0  0  0  0  0  0  0  0  0  0  0  0
    3.0964    0.4680    0.3323 H   0  0  0  0  0  0  0  0  0  0  0  0
    2.7218    1.0467   -1.2989 H   0  0  0  0  0  0  0  0  0  0  0  0
   -0.2610    0.4256    1.4178 H   0  0  0  0  0  0  0  0  0  0  0  0
   -0.9084    2.4710    0.0956 H   0  0  0  0  0  0  0  0  0  0  0  0
   -0.5220    1.6353   -1.4216 H   0  0  0  0  0  0  0  0  0  0  0  0
   -2.7351    1.4198    0.3399 H   0  0  0  0  0  0  0  0  0  0  0  0
  1  2  1  0
  2  3  1  0
  3  4  1  0
  4  5  1  0
  4  6  1  0
  4  7  1  0
  7  8  1  0
  8  9  1  0
  6  2  1  0
  7  2  1  0
  1 10  1  0
  1 11  1  0
  1 12  1  0
  3 13  1  0
  3 14  1  0
  5 15  1  0
  5 16  1  0
  5 17  1  0
  7 18  1  0
  8 19  1  0
  8 20  1  0
  9 21  1  0
M  END
