
     RDKit          3D

 23 24  0  0  0  0  0  0  0  0999 V2000
   -0.9140    1.1419    1.5134 C   0  0  0  0  0  0  0  0  0  0  0  0
   -0.4543    0.4638    0.2381 C   0  0  0  0  0  0  0  0  0  0  0  0
   -1.6010    0.2031   -0.6787 C   0  0  0  0  0  0  0  0  0  0  0  0
   -1.1867   -0.9752   -1.4676 C   0  0  0  0  0  0  0  0  0  0  0  0
   -0.2758   -1.6380   -0.7776 C   0  0  0  0  0  0  0  0  0  0  0  0
    0.0038   -0.9716    0.5244 C   0  0  0  0  0  0  0  0  0  0  0  0
    1.5030   -0.8342    0.6472 C   0  0  0  0  0  0  0  0  0  0  0  0
    1.7876    0.1371   -0.5030 C   0  0  0  0  0  0  0  0  0  0  0  0
    0.7057    1.1671   -0.3789 C   0  0  0  0  0  0  0  0  0  0  0  0
   -1.7466    1.8373    1.1994 H   0  0  0  0  0  0  0  0  0  0  0  0
   -1.3298    0.4366    2.2467 H   0  0  0  0  0  0  0  0  0  0  0  0
   -0.1209    1.8004    1.9266 H   0  0  0  0  0  0  0  0  0  0  0  0
   -1.8648    1.0708   -1.3163 H   0  0  0  0  0  0  0  0  0  0  0  0
   -2.4582   -0.1257   -0.0478 H   0  0  0  0  0  0  0  0  0  0  0  0
   -1.5863   -1.2403   -2.4691 H   0  0  0  0  0  0  0  0  0  0  0  0
    0.1922   -2.5437   -1.1317 H   0  0  0  0  0  0  0  0  0  0  0  0
   -0.4897   -1.4178    1.3805 H   0  0  0  0  0  0  0  0  0  0  0  0
    1.9957   -1.7918    0.3758 H   0  0  0  0  0  0  0  0  0  0  0  0
    1.8243   -0.4226    1.6044 H   0  0  0  0  0  0  0  0  0  0  0  0
    2.8026    0.5199   -0.3768 H   0  0  0  0  0  0  0  0  0  0  0  0
    1.6779   -0.4180   -1.4598 H   0  0  0  0  0  0  0  0  0  0  0  0
    0.4285    1.6323   -1.3555 H   0  0  0  0  0  0  0  0  0  0  0  0
    1.1070    1.9687    0.3064 H   0  0  0  0  0  0  0  0  0  0  0  0
  1  2  1  0
  2  3  1  0
  3  4  1  0
  4  5  2  0
  5  6  1  0
  6  7  1  0
  7  8  1  0
  8  9  1  0
  6  2  1  0
  9  2  1  0
  1 10  1  0
  1 11  1  0
  1 12  1  0
  3 13  1  0
  3 14  1  0
  4 15  1  0
  5 16  1  0
  6 17  1  0
  7 18  1  0
  7 19  1  0
  8 20  1  0
  8 21  1  0
  9 22  1  0
  9 23  1  0
M  END
