
     RDKit          3D

 21 22  0  0  0  0  0  0  0  0999 V2000
   -0.7121    1.6273    0.8769 C   0  0  0  0  0  0  0  0  0  0  0  0
   -0.1961    0.4570    0.2093 C   0  0  0  0  0  0  0  0  0  0  0  0
   -0.8121    0.0092   -1.1024 C   0  0  0  0  0  0  0  0  0  0  0  0
   -0.2536   -1.3574   -0.6781 C   0  0  0  0  0  0  0  0  0  0  0  0
    1.2137   -1.0909   -0.7659 C   0  0  0  0  0  0  0  0  0  0  0  0
    1.2654    0.2598   -0.0185 C   0  0  0  0  0  0  0  0  0  0  0  0
    1.8382    1.1991   -0.8518 O   0  0  0  0  0  0  0  0  0  0  0  0
   -0.6142   -0.9253    0.7315 C   0  0  0  0  0  0  0  0  0  0  0  0
   -1.9493   -1.0279    1.0349 O   0  0  0  0  0  0  0  0  0  0  0  0
   -1.6812    1.3718    1.3967 H   0  0  0  0  0  0  0  0  0  0  0  0
   -1.0219    2.4015    0.1142 H   0  0  0  0  0  0  0  0  0  0  0  0
    0.0209    2.0632    1.5626 H   0  0  0  0  0  0  0  0  0  0  0  0
   -0.3359    0.4464   -1.9810 H   0  0  0  0  0  0  0  0  0  0  0  0
   -1.9155   -0.0534   -1.1075 H   0  0  0  0  0  0  0  0  0  0  0  0
   -0.6918   -2.2234   -1.0890 H   0  0  0  0  0  0  0  0  0  0  0  0
    1.8475   -1.8362   -0.2692 H   0  0  0  0  0  0  0  0  0  0  0  0
    1.4681   -0.9200   -1.8335 H   0  0  0  0  0  0  0  0  0  0  0  0
    1.8137    0.0986    0.9218 H   0  0  0  0  0  0  0  0  0  0  0  0
    2.7727    1.4255   -0.5700 H   0  0  0  0  0  0  0  0  0  0  0  0
    0.0539   -1.3155    1.5134 H   0  0  0  0  0  0  0  0  0  0  0  0
   -2.1105   -0.6093    1.9056 H   0  0  0  0  0  0  0  0  0  0  0  0
  1  2  1  0
  2  3  1  0
  3  4  1  0
  4  5  1  0
  5  6  1  0
  6  7  1  0
  4  8  1  0
  8  9  1  0
  6  2  1  0
  8  2  1  0
  1 10  1  0
  1 11  1  0
  1 12  1  0
  3 13  1  0
  3 14  1  0
  4 15  1  0
  5 16  1  0
  5 17  1  0
  6 18  1  0
  7 19  1  0
  8 20  1  0
  9 21  1  0
M  END
