
     RDKit          3D

 16 18  0  0  0  0  0  0  0  0999 V2000
    1.8874   -0.2836    0.0232 C   0  0  0  0  0  0  0  0  0  0  0  0
    0.4714    0.0109   -0.2636 C   0  0  0  0  0  0  0  0  0  0  0  0
    0.0128    1.4506    0.0104 C   0  0  0  0  0  0  0  0  0  0  0  0
   -1.3633    1.4123   -0.0470 O   0  0  0  0  0  0  0  0  0  0  0  0
   -1.7678    0.1120    0.2895 C   0  0  0  0  0  0  0  0  0  0  0  0
   -1.2326   -0.9094   -0.7362 C   0  0  0  0  0  0  0  0  0  0  0  0
   -0.0903   -0.5330   -1.4105 O   0  0  0  0  0  0  0  0  0  0  0  0
   -0.5790   -0.6985    0.5352 C   0  0  0  0  0  0  0  0  0  0  0  0
    1.9962   -1.2263    0.6131 H   0  0  0  0  0  0  0  0  0  0  0  0
    2.4522   -0.4915   -0.9329 H   0  0  0  0  0  0  0  0  0  0  0  0
    2.4409    0.5562    0.4964 H   0  0  0  0  0  0  0  0  0  0  0  0
    0.2849    1.6292    1.0853 H   0  0  0  0  0  0  0  0  0  0  0  0
    0.4773    2.1661   -0.6632 H   0  0  0  0  0  0  0  0  0  0  0  0
   -2.7581   -0.0662    0.6919 H   0  0  0  0  0  0  0  0  0  0  0  0
   -1.8430   -1.7497   -1.0179 H   0  0  0  0  0  0  0  0  0  0  0  0
   -0.3890   -1.3792    1.3264 H   0  0  0  0  0  0  0  0  0  0  0  0
  1  2  1  0
  2  3  1  0
  3  4  1  0
  4  5  1  0
  5  6  1  0
  6  7  1  0
  6  8  1  0
  7  2  1  0
  8  2  1  0
  8  5  1  0
  1  9  1  0
  1 10  1  0
  1 11  1  0
  3 12  1  0
  3 13  1  0
  5 14  1  0
  6 15  1  0
  8 16  1  0
M  END
