
     RDKit          3D

 16 17  0  0  0  0  0  0  0  0999 V2000
   -1.6446   -0.9912    0.4823 C   0  0  0  0  0  0  0  0  0  0  0  0
   -0.5041   -0.2430   -0.1215 C   0  0  0  0  0  0  0  0  0  0  0  0
   -0.7632    1.2436   -0.3238 C   0  0  0  0  0  0  0  0  0  0  0  0
    0.2609    0.7831    0.6171 C   0  0  0  0  0  0  0  0  0  0  0  0
    1.6338    0.6533    0.0568 C   0  0  0  0  0  0  0  0  0  0  0  0
    2.5407    1.4234    0.1892 O   0  0  0  0  0  0  0  0  0  0  0  0
    1.6245   -0.6293   -0.6932 C   0  0  0  0  0  0  0  0  0  0  0  0
    0.3154   -0.9076   -0.9894 O   0  0  0  0  0  0  0  0  0  0  0  0
   -2.5995   -0.7502   -0.0481 H   0  0  0  0  0  0  0  0  0  0  0  0
   -1.4294   -2.0844    0.4227 H   0  0  0  0  0  0  0  0  0  0  0  0
   -1.7196   -0.7340    1.5701 H   0  0  0  0  0  0  0  0  0  0  0  0
   -0.4668    1.6983   -1.2916 H   0  0  0  0  0  0  0  0  0  0  0  0
   -1.6790    1.6700    0.0985 H   0  0  0  0  0  0  0  0  0  0  0  0
    0.1353    0.8157    1.7118 H   0  0  0  0  0  0  0  0  0  0  0  0
    2.1928   -0.5624   -1.6448 H   0  0  0  0  0  0  0  0  0  0  0  0
    2.1029   -1.3853   -0.0361 H   0  0  0  0  0  0  0  0  0  0  0  0
  1  2  1  0
  2  3  1  0
  3  4  1  0
  4  5  1  0
  5  6  2  0
  5  7  1  0
  7  8  1  0
  4  2  1  0
  8  2  1  0
  1  9  1  0
  1 10  1  0
  1 11  1  0
  3 12  1  0
  3 13  1  0
  4 14  1  0
  7 15  1  0
  7 16  1  0
M  END
