
     RDKit          3D

 18 19  0  0  0  0  0  0  0  0999 V2000
    0.5539    1.5779    0.0115 C   0  0  0  0  0  0  0  0  0  0  0  0
    0.3895    0.1665    0.5207 C   0  0  0  0  0  0  0  0  0  0  0  0
   -0.9380   -0.1171    1.1300 C   0  0  0  0  0  0  0  0  0  0  0  0
   -1.7743   -0.2224   -0.1899 C   0  0  0  0  0  0  0  0  0  0  0  0
   -0.7971   -1.0632   -0.9836 C   0  0  0  0  0  0  0  0  0  0  0  0
    0.4390   -0.8667   -0.5976 C   0  0  0  0  0  0  0  0  0  0  0  0
    1.9418   -0.8515   -0.3589 C   0  0  0  0  0  0  0  0  0  0  0  0
    1.5349   -0.4405    0.9737 O   0  0  0  0  0  0  0  0  0  0  0  0
    0.3777    1.6736   -1.0730 H   0  0  0  0  0  0  0  0  0  0  0  0
   -0.2413    2.1937    0.5225 H   0  0  0  0  0  0  0  0  0  0  0  0
    1.5096    2.0389    0.2932 H   0  0  0  0  0  0  0  0  0  0  0  0
   -1.2774    0.7508    1.6909 H   0  0  0  0  0  0  0  0  0  0  0  0
   -0.9538   -1.0732    1.6432 H   0  0  0  0  0  0  0  0  0  0  0  0
   -1.9682    0.7485   -0.6186 H   0  0  0  0  0  0  0  0  0  0  0  0
   -2.6313   -0.8509    0.0710 H   0  0  0  0  0  0  0  0  0  0  0  0
   -1.0922   -1.7538   -1.7859 H   0  0  0  0  0  0  0  0  0  0  0  0
    2.4311   -1.8207   -0.3643 H   0  0  0  0  0  0  0  0  0  0  0  0
    2.4962   -0.0898   -0.8850 H   0  0  0  0  0  0  0  0  0  0  0  0
  1  2  1  0
  2  3  1  0
  3  4  1  0
  4  5  1  0
  5  6  2  0
  6  7  1  0
  7  8  1  0
  6  2  1  0
  8  2  1  0
  1  9  1  0
  1 10  1  0
  1 11  1  0
  3 12  1  0
  3 13  1  0
  4 14  1  0
  4 15  1  0
  5 16  1  0
  7 17  1  0
  7 18  1  0
M  END
