
     RDKit          3D

 21 23  0  0  0  0  0  0  0  0999 V2000
    1.8787   -0.6956    0.6716 C   0  0  0  0  0  0  0  0  0  0  0  0
    0.5840   -0.4972   -0.0076 C   0  0  0  0  0  0  0  0  0  0  0  0
    0.6143    0.3481   -1.2375 C   0  0  0  0  0  0  0  0  0  0  0  0
    0.0222    1.7236   -0.8599 C   0  0  0  0  0  0  0  0  0  0  0  0
   -1.0860    1.2190    0.1097 C   0  0  0  0  0  0  0  0  0  0  0  0
   -1.6581   -0.1014    0.0109 C   0  0  0  0  0  0  0  0  0  0  0  0
   -1.3721   -1.4964    0.4928 C   0  0  0  0  0  0  0  0  0  0  0  0
   -0.0956   -1.7012   -0.0985 O   0  0  0  0  0  0  0  0  0  0  0  0
   -0.3811    0.2990    0.8273 C   0  0  0  0  0  0  0  0  0  0  0  0
    1.9380   -1.7352    1.1093 H   0  0  0  0  0  0  0  0  0  0  0  0
    2.7752   -0.5872    0.0499 H   0  0  0  0  0  0  0  0  0  0  0  0
    1.8996   -0.0277    1.5827 H   0  0  0  0  0  0  0  0  0  0  0  0
    1.6776    0.5810   -1.5143 H   0  0  0  0  0  0  0  0  0  0  0  0
    0.1227   -0.0779   -2.1181 H   0  0  0  0  0  0  0  0  0  0  0  0
   -0.4682    2.1932   -1.7245 H   0  0  0  0  0  0  0  0  0  0  0  0
    0.7424    2.3473   -0.3405 H   0  0  0  0  0  0  0  0  0  0  0  0
   -1.6346    2.0619    0.5361 H   0  0  0  0  0  0  0  0  0  0  0  0
   -1.6342   -0.2547   -1.1027 H   0  0  0  0  0  0  0  0  0  0  0  0
   -2.1346   -2.1689    0.1267 H   0  0  0  0  0  0  0  0  0  0  0  0
   -1.3355   -1.6151    1.5915 H   0  0  0  0  0  0  0  0  0  0  0  0
   -0.4547    0.1852    1.8949 H   0  0  0  0  0  0  0  0  0  0  0  0
  1  2  1  0
  2  3  1  0
  3  4  1  0
  4  5  1  0
  5  6  1  0
  6  7  1  0
  7  8  1  0
  6  9  1  0
  8  2  1  0
  9  2  1  0
  9  5  1  0
  1 10  1  0
  1 11  1  0
  1 12  1  0
  3 13  1  0
  3 14  1  0
  4 15  1  0
  4 16  1  0
  5 17  1  0
  6 18  1  0
  7 19  1  0
  7 20  1  0
  9 21  1  0
M  END
