
     RDKit          3D

 19 20  0  0  0  0  0  0  0  0999 V2000
    1.5879    1.1548   -0.0592 C   0  0  0  0  0  0  0  0  0  0  0  0
    0.4622    0.2186    0.2706 C   0  0  0  0  0  0  0  0  0  0  0  0
    0.8925   -1.2031    0.4252 C   0  0  0  0  0  0  0  0  0  0  0  0
    0.5173   -1.8130   -0.7925 O   0  0  0  0  0  0  0  0  0  0  0  0
   -0.8170   -1.3824   -0.8787 C   0  0  0  0  0  0  0  0  0  0  0  0
   -0.6220    0.1305   -0.7846 C   0  0  0  0  0  0  0  0  0  0  0  0
   -1.5817    0.8141    0.1535 C   0  0  0  0  0  0  0  0  0  0  0  0
   -0.5428    0.7166    1.2156 C   0  0  0  0  0  0  0  0  0  0  0  0
   -0.5270    0.9558    2.4077 O   0  0  0  0  0  0  0  0  0  0  0  0
    2.0038    1.6220    0.8790 H   0  0  0  0  0  0  0  0  0  0  0  0
    2.4201    0.5328   -0.4652 H   0  0  0  0  0  0  0  0  0  0  0  0
    1.2630    1.9271   -0.7676 H   0  0  0  0  0  0  0  0  0  0  0  0
    0.3060   -1.7233    1.2119 H   0  0  0  0  0  0  0  0  0  0  0  0
    1.9830   -1.2559    0.5858 H   0  0  0  0  0  0  0  0  0  0  0  0
   -1.3375   -1.7561    0.0074 H   0  0  0  0  0  0  0  0  0  0  0  0
   -1.2830   -1.6275   -1.8385 H   0  0  0  0  0  0  0  0  0  0  0  0
   -0.3966    0.6358   -1.7204 H   0  0  0  0  0  0  0  0  0  0  0  0
   -2.4980    0.2156    0.3287 H   0  0  0  0  0  0  0  0  0  0  0  0
   -1.8302    1.8375   -0.1786 H   0  0  0  0  0  0  0  0  0  0  0  0
  1  2  1  0
  2  3  1  0
  3  4  1  0
  4  5  1  0
  5  6  1  0
  6  7  1  0
  7  8  1  0
  8  9  2  0
  6  2  1  0
  8  2  1  0
  1 10  1  0
  1 11  1  0
  1 12  1  0
  3 13  1  0
  3 14  1  0
  5 15  1  0
  5 16  1  0
  6 17  1  0
  7 18  1  0
  7 19  1  0
M  END
