
     RDKit          2D

 19 22  0  0  0  0  0  0  0  0999 V2000
   -2.8323    2.8576    0.0000 C   0  0  0  0  0  0  0  0  0  0  0  0
   -1.4958    2.1766    0.0000 C   0  0  0  0  0  0  0  0  0  0  0  0
   -0.0692    2.6401    0.0000 C   0  0  0  0  0  0  0  0  0  0  0  0
    0.3943    1.2135    0.0000 C   0  0  0  0  0  0  0  0  0  0  0  0
    1.2760    0.0000    0.0000 O   0  0  0  0  0  0  0  0  0  0  0  0
    0.3943   -1.2135    0.0000 C   0  0  0  0  0  0  0  0  0  0  0  0
   -1.0323   -0.7500    0.0000 C   0  0  0  0  0  0  0  0  0  0  0  0
   -1.0323    0.7500    0.0000 C   0  0  0  0  0  0  0  0  0  0  0  0
    0.3943   -0.2865    0.0000 C   0  0  0  0  0  0  0  0  0  0  0  0
   -4.1688    3.5386    0.0000 H   0  0  0  0  0  0  0  0  0  0  0  0
   -2.1513    4.1941    0.0000 H   0  0  0  0  0  0  0  0  0  0  0  0
   -3.5133    1.5211    0.0000 H   0  0  0  0  0  0  0  0  0  0  0  0
    1.3574    3.1036    0.0000 H   0  0  0  0  0  0  0  0  0  0  0  0
   -0.5328    4.0667    0.0000 H   0  0  0  0  0  0  0  0  0  0  0  0
    1.5922   -2.1163    0.0000 H   0  0  0  0  0  0  0  0  0  0  0  0
   -0.2158   -2.5838    0.0000 H   0  0  0  0  0  0  0  0  0  0  0  0
   -2.2458   -1.6317    0.0000 H   0  0  0  0  0  0  0  0  0  0  0  0
   -2.5138    0.5153    0.0000 H   0  0  0  0  0  0  0  0  0  0  0  0
    1.7062   -1.0137    0.0000 H   0  0  0  0  0  0  0  0  0  0  0  0
  1  2  1  0
  2  3  1  0
  3  4  1  0
  4  5  1  0
  5  6  1  0
  6  7  1  0
  7  8  1  0
  7  9  1  0
  8  2  1  0
  9  2  1  0
  8  4  1  0
  9  4  1  0
  1 10  1  0
  1 11  1  0
  1 12  1  0
  3 13  1  0
  3 14  1  0
  6 15  1  0
  6 16  1  0
  7 17  1  0
  8 18  1  0
  9 19  1  0
M  END
