
     RDKit          3D

 18 19  0  0  0  0  0  0  0  0999 V2000
    1.9573    0.3936    0.3823 C   0  0  0  0  0  0  0  0  0  0  0  0
    0.5482    0.1519    0.2233 C   0  0  0  0  0  0  0  0  0  0  0  0
   -0.1760   -0.5444    1.3056 C   0  0  0  0  0  0  0  0  0  0  0  0
   -1.3312   -0.9435    0.7750 C   0  0  0  0  0  0  0  0  0  0  0  0
   -1.3493   -0.5675   -0.6755 C   0  0  0  0  0  0  0  0  0  0  0  0
   -1.4175    0.9004   -0.7215 C   0  0  0  0  0  0  0  0  0  0  0  0
   -0.3011    1.3437   -0.1399 C   0  0  0  0  0  0  0  0  0  0  0  0
    0.1576   -0.7552   -0.9639 C   0  0  0  0  0  0  0  0  0  0  0  0
    2.1809    1.4952    0.2638 H   0  0  0  0  0  0  0  0  0  0  0  0
    2.6172   -0.0897   -0.3978 H   0  0  0  0  0  0  0  0  0  0  0  0
    2.4036    0.1260    1.3664 H   0  0  0  0  0  0  0  0  0  0  0  0
    0.0956   -0.7345    2.3306 H   0  0  0  0  0  0  0  0  0  0  0  0
   -2.1275   -1.4550    1.3004 H   0  0  0  0  0  0  0  0  0  0  0  0
   -1.9891   -1.1290   -1.3005 H   0  0  0  0  0  0  0  0  0  0  0  0
   -2.1635    1.5731   -1.1170 H   0  0  0  0  0  0  0  0  0  0  0  0
    0.0230    2.3505    0.0744 H   0  0  0  0  0  0  0  0  0  0  0  0
    0.4320   -1.7922   -0.7885 H   0  0  0  0  0  0  0  0  0  0  0  0
    0.4398   -0.3236   -1.9172 H   0  0  0  0  0  0  0  0  0  0  0  0
  1  2  1  0
  2  3  1  0
  3  4  2  0
  4  5  1  0
  5  6  1  0
  6  7  2  0
  5  8  1  0
  7  2  1  0
  8  2  1  0
  1  9  1  0
  1 10  1  0
  1 11  1  0
  3 12  1  0
  4 13  1  0
  5 14  1  0
  6 15  1  0
  7 16  1  0
  8 17  1  0
  8 18  1  0
M  END
