
     RDKit          3D

 21 23  0  0  0  0  0  0  0  0999 V2000
   -0.4483    2.0284    0.5476 C   0  0  0  0  0  0  0  0  0  0  0  0
   -0.0600    0.6033    0.3762 C   0  0  0  0  0  0  0  0  0  0  0  0
   -0.9959   -0.5149    0.7140 C   0  0  0  0  0  0  0  0  0  0  0  0
   -2.3059   -0.5108    0.0530 C   0  0  0  0  0  0  0  0  0  0  0  0
   -1.0870   -0.9122   -0.7753 C   0  0  0  0  0  0  0  0  0  0  0  0
   -0.0342    0.1013   -1.0720 C   0  0  0  0  0  0  0  0  0  0  0  0
    1.2115    0.2008   -0.2884 C   0  0  0  0  0  0  0  0  0  0  0  0
    1.8296   -1.0401    0.3343 C   0  0  0  0  0  0  0  0  0  0  0  0
    3.0003   -1.4187   -0.2707 O   0  0  0  0  0  0  0  0  0  0  0  0
   -1.5606    2.1700    0.4198 H   0  0  0  0  0  0  0  0  0  0  0  0
    0.0276    2.6825   -0.2264 H   0  0  0  0  0  0  0  0  0  0  0  0
   -0.1730    2.4094    1.5604 H   0  0  0  0  0  0  0  0  0  0  0  0
   -0.6144   -1.3100    1.3473 H   0  0  0  0  0  0  0  0  0  0  0  0
   -2.7469    0.5043   -0.1312 H   0  0  0  0  0  0  0  0  0  0  0  0
   -3.0520   -1.3063    0.1795 H   0  0  0  0  0  0  0  0  0  0  0  0
   -0.9750   -1.9634   -1.0404 H   0  0  0  0  0  0  0  0  0  0  0  0
   -0.2663    0.8116   -1.8621 H   0  0  0  0  0  0  0  0  0  0  0  0
    1.9048    0.9976   -0.5489 H   0  0  0  0  0  0  0  0  0  0  0  0
    2.0383   -0.7686    1.4003 H   0  0  0  0  0  0  0  0  0  0  0  0
    1.0914   -1.8773    0.3770 H   0  0  0  0  0  0  0  0  0  0  0  0
    3.2158   -0.8868   -1.0940 H   0  0  0  0  0  0  0  0  0  0  0  0
  1  2  1  0
  2  3  1  0
  3  4  1  0
  4  5  1  0
  5  6  1  0
  6  7  1  0
  7  8  1  0
  8  9  1  0
  6  2  1  0
  7  2  1  0
  5  3  1  0
  1 10  1  0
  1 11  1  0
  1 12  1  0
  3 13  1  0
  4 14  1  0
  4 15  1  0
  5 16  1  0
  6 17  1  0
  7 18  1  0
  8 19  1  0
  8 20  1  0
  9 21  1  0
M  END
