
     RDKit          3D

 17 18  0  0  0  0  0  0  0  0999 V2000
   -1.4710    1.5500   -0.1905 C   0  0  0  0  0  0  0  0  0  0  0  0
   -0.7834    0.2618    0.1528 C   0  0  0  0  0  0  0  0  0  0  0  0
   -1.3761   -0.6625    1.0085 O   0  0  0  0  0  0  0  0  0  0  0  0
   -1.0611   -1.7221    0.1658 C   0  0  0  0  0  0  0  0  0  0  0  0
   -1.1658   -2.9747    0.1233 O   0  0  0  0  0  0  0  0  0  0  0  0
   -0.4689   -0.7741   -0.8272 C   0  0  0  0  0  0  0  0  0  0  0  0
    0.6011    0.1071   -0.3174 C   0  0  0  0  0  0  0  0  0  0  0  0
    1.5735   -0.4032    0.7443 C   0  0  0  0  0  0  0  0  0  0  0  0
    2.8440   -0.4979    0.1491 O   0  0  0  0  0  0  0  0  0  0  0  0
   -2.1225    1.8479    0.6696 H   0  0  0  0  0  0  0  0  0  0  0  0
   -1.9979    1.5311   -1.1502 H   0  0  0  0  0  0  0  0  0  0  0  0
   -0.6878    2.3377   -0.2480 H   0  0  0  0  0  0  0  0  0  0  0  0
   -0.8063   -0.7807   -1.8618 H   0  0  0  0  0  0  0  0  0  0  0  0
    0.9911    0.8547   -1.0199 H   0  0  0  0  0  0  0  0  0  0  0  0
    1.2646   -1.3884    1.1451 H   0  0  0  0  0  0  0  0  0  0  0  0
    1.6808    0.3160    1.5819 H   0  0  0  0  0  0  0  0  0  0  0  0
    2.9857    0.3973   -0.2923 H   0  0  0  0  0  0  0  0  0  0  0  0
  1  2  1  0
  2  3  1  0
  3  4  1  0
  4  5  2  0
  4  6  1  0
  6  7  1  0
  7  8  1  0
  8  9  1  0
  6  2  1  0
  7  2  1  0
  1 10  1  0
  1 11  1  0
  1 12  1  0
  6 13  1  0
  7 14  1  0
  8 15  1  0
  8 16  1  0
  9 17  1  0
M  END
