
     RDKit          3D

 19 21  0  0  0  0  0  0  0  0999 V2000
    0.0228    1.8405   -0.1521 C   0  0  0  0  0  0  0  0  0  0  0  0
   -0.1520    0.3864    0.1605 C   0  0  0  0  0  0  0  0  0  0  0  0
    0.8722   -0.2500    1.0371 C   0  0  0  0  0  0  0  0  0  0  0  0
    1.7150   -1.0243    0.0193 C   0  0  0  0  0  0  0  0  0  0  0  0
    0.8168   -1.4385   -0.9246 O   0  0  0  0  0  0  0  0  0  0  0  0
   -0.2066   -0.5453   -1.0243 C   0  0  0  0  0  0  0  0  0  0  0  0
   -1.5245   -1.0385   -0.4138 C   0  0  0  0  0  0  0  0  0  0  0  0
   -2.5123    0.0603   -0.5696 O   0  0  0  0  0  0  0  0  0  0  0  0
   -1.5761   -0.0445    0.4606 C   0  0  0  0  0  0  0  0  0  0  0  0
    1.1122    2.0245   -0.2526 H   0  0  0  0  0  0  0  0  0  0  0  0
   -0.3786    2.4620    0.6785 H   0  0  0  0  0  0  0  0  0  0  0  0
   -0.4831    2.0751   -1.1221 H   0  0  0  0  0  0  0  0  0  0  0  0
    1.4992    0.4747    1.5536 H   0  0  0  0  0  0  0  0  0  0  0  0
    0.3769   -0.9717    1.7447 H   0  0  0  0  0  0  0  0  0  0  0  0
    2.4337   -0.3034   -0.4335 H   0  0  0  0  0  0  0  0  0  0  0  0
    2.2310   -1.8846    0.4917 H   0  0  0  0  0  0  0  0  0  0  0  0
   -0.3690   -0.0549   -2.0035 H   0  0  0  0  0  0  0  0  0  0  0  0
   -1.9412   -1.9804   -0.6939 H   0  0  0  0  0  0  0  0  0  0  0  0
   -1.9368    0.2127    1.4439 H   0  0  0  0  0  0  0  0  0  0  0  0
  1  2  1  0
  2  3  1  0
  3  4  1  0
  4  5  1  0
  5  6  1  0
  6  7  1  0
  7  8  1  0
  8  9  1  0
  6  2  1  0
  9  7  1  0
  9  2  1  0
  1 10  1  0
  1 11  1  0
  1 12  1  0
  3 13  1  0
  3 14  1  0
  4 15  1  0
  4 16  1  0
  6 17  1  0
  7 18  1  0
  9 19  1  0
M  END
