
     RDKit          3D

 21 23  0  0  0  0  0  0  0  0999 V2000
    1.6478   -1.2568    0.0557 C   0  0  0  0  0  0  0  0  0  0  0  0
    0.7406   -0.1005   -0.1270 C   0  0  0  0  0  0  0  0  0  0  0  0
    1.3216    1.2476    0.3322 C   0  0  0  0  0  0  0  0  0  0  0  0
    0.9459    0.9777   -1.0931 C   0  0  0  0  0  0  0  0  0  0  0  0
   -0.2656    1.4301   -1.5493 O   0  0  0  0  0  0  0  0  0  0  0  0
   -1.2651    0.9428   -0.7467 C   0  0  0  0  0  0  0  0  0  0  0  0
   -1.6671   -0.4813   -1.0425 C   0  0  0  0  0  0  0  0  0  0  0  0
   -0.7322   -0.1998    0.0535 C   0  0  0  0  0  0  0  0  0  0  0  0
   -1.1904   -0.4266    1.4721 C   0  0  0  0  0  0  0  0  0  0  0  0
    2.2435   -1.0849    0.9874 H   0  0  0  0  0  0  0  0  0  0  0  0
    2.2650   -1.5218   -0.8053 H   0  0  0  0  0  0  0  0  0  0  0  0
    1.0113   -2.1573    0.3008 H   0  0  0  0  0  0  0  0  0  0  0  0
    0.6681    1.9504    0.8555 H   0  0  0  0  0  0  0  0  0  0  0  0
    2.3796    1.2626    0.6432 H   0  0  0  0  0  0  0  0  0  0  0  0
    1.7832    1.0309   -1.8027 H   0  0  0  0  0  0  0  0  0  0  0  0
   -1.9970    1.6412   -0.2969 H   0  0  0  0  0  0  0  0  0  0  0  0
   -1.3728   -0.9461   -1.9979 H   0  0  0  0  0  0  0  0  0  0  0  0
   -2.7064   -0.7274   -0.7467 H   0  0  0  0  0  0  0  0  0  0  0  0
   -1.9359    0.2921    1.8009 H   0  0  0  0  0  0  0  0  0  0  0  0
   -0.3348   -0.3794    2.1881 H   0  0  0  0  0  0  0  0  0  0  0  0
   -1.5392   -1.4935    1.5190 H   0  0  0  0  0  0  0  0  0  0  0  0
  1  2  1  0
  2  3  1  0
  3  4  1  0
  4  5  1  0
  5  6  1  0
  6  7  1  0
  7  8  1  0
  8  9  1  0
  4  2  1  0
  8  6  1  0
  8  2  1  0
  1 10  1  0
  1 11  1  0
  1 12  1  0
  3 13  1  0
  3 14  1  0
  4 15  1  0
  6 16  1  0
  7 17  1  0
  7 18  1  0
  9 19  1  0
  9 20  1  0
  9 21  1  0
M  END
