
     RDKit          3D

 21 23  0  0  0  0  0  0  0  0999 V2000
   -1.4024   -1.6652    0.4114 C   0  0  0  0  0  0  0  0  0  0  0  0
   -0.7361   -0.3976    0.1073 C   0  0  0  0  0  0  0  0  0  0  0  0
   -1.2580    0.5275   -0.9944 C   0  0  0  0  0  0  0  0  0  0  0  0
    0.1831    1.0443   -1.1083 C   0  0  0  0  0  0  0  0  0  0  0  0
    0.4248    2.1418   -0.3254 O   0  0  0  0  0  0  0  0  0  0  0  0
    0.3057    1.8116    0.9922 C   0  0  0  0  0  0  0  0  0  0  0  0
    0.1309    0.3253    1.1125 C   0  0  0  0  0  0  0  0  0  0  0  0
    0.5963   -0.1202   -0.2701 C   0  0  0  0  0  0  0  0  0  0  0  0
    1.7803   -0.9163   -0.4286 C   0  0  0  0  0  0  0  0  0  0  0  0
   -1.1382   -1.9960    1.4348 H   0  0  0  0  0  0  0  0  0  0  0  0
   -1.2643   -2.4739   -0.3373 H   0  0  0  0  0  0  0  0  0  0  0  0
   -2.5176   -1.4898    0.4391 H   0  0  0  0  0  0  0  0  0  0  0  0
   -1.9631    1.2360   -0.5515 H   0  0  0  0  0  0  0  0  0  0  0  0
   -1.5550    0.0138   -1.9197 H   0  0  0  0  0  0  0  0  0  0  0  0
    0.5952    1.0554   -2.1110 H   0  0  0  0  0  0  0  0  0  0  0  0
   -0.4838    2.3897    1.5101 H   0  0  0  0  0  0  0  0  0  0  0  0
    1.2861    2.0592    1.4896 H   0  0  0  0  0  0  0  0  0  0  0  0
    0.5867   -0.2435    1.9252 H   0  0  0  0  0  0  0  0  0  0  0  0
    1.7261   -1.5908   -1.2923 H   0  0  0  0  0  0  0  0  0  0  0  0
    2.6805   -0.2585   -0.6081 H   0  0  0  0  0  0  0  0  0  0  0  0
    2.0228   -1.4530    0.5243 H   0  0  0  0  0  0  0  0  0  0  0  0
  1  2  1  0
  2  3  1  0
  3  4  1  0
  4  5  1  0
  5  6  1  0
  6  7  1  0
  7  8  1  0
  8  9  1  0
  7  2  1  0
  8  2  1  0
  8  4  1  0
  1 10  1  0
  1 11  1  0
  1 12  1  0
  3 13  1  0
  3 14  1  0
  4 15  1  0
  6 16  1  0
  6 17  1  0
  7 18  1  0
  9 19  1  0
  9 20  1  0
  9 21  1  0
M  END
