
     RDKit          3D

 19 21  0  0  0  0  0  0  0  0999 V2000
    2.0589   -0.2030    0.6165 C   0  0  0  0  0  0  0  0  0  0  0  0
    0.7249   -0.1543    0.0166 C   0  0  0  0  0  0  0  0  0  0  0  0
   -0.0045    1.1879   -0.1442 C   0  0  0  0  0  0  0  0  0  0  0  0
   -0.1977    1.8258    1.0390 O   0  0  0  0  0  0  0  0  0  0  0  0
   -1.2562    0.6452   -0.7838 C   0  0  0  0  0  0  0  0  0  0  0  0
   -1.6325   -0.4562    0.1770 C   0  0  0  0  0  0  0  0  0  0  0  0
   -0.2920   -1.2073    0.1643 C   0  0  0  0  0  0  0  0  0  0  0  0
    0.2575   -0.9059   -1.1469 C   0  0  0  0  0  0  0  0  0  0  0  0
   -0.7023   -0.1140   -1.8260 O   0  0  0  0  0  0  0  0  0  0  0  0
    2.0290    0.3449    1.6049 H   0  0  0  0  0  0  0  0  0  0  0  0
    2.8150    0.3441    0.0159 H   0  0  0  0  0  0  0  0  0  0  0  0
    2.3380   -1.2290    0.8527 H   0  0  0  0  0  0  0  0  0  0  0  0
    0.5332    1.7698   -0.9191 H   0  0  0  0  0  0  0  0  0  0  0  0
   -1.0609    1.7287    1.4633 H   0  0  0  0  0  0  0  0  0  0  0  0
   -2.0089    1.3359   -1.0508 H   0  0  0  0  0  0  0  0  0  0  0  0
   -2.4026   -1.1155   -0.2339 H   0  0  0  0  0  0  0  0  0  0  0  0
   -1.8915   -0.1121    1.1762 H   0  0  0  0  0  0  0  0  0  0  0  0
   -0.1783   -2.1111    0.7330 H   0  0  0  0  0  0  0  0  0  0  0  0
    0.8709   -1.5738   -1.7547 H   0  0  0  0  0  0  0  0  0  0  0  0
  1  2  1  0
  2  3  1  0
  3  4  1  0
  3  5  1  0
  5  6  1  0
  6  7  1  0
  7  8  1  0
  8  9  1  0
  7  2  1  0
  8  2  1  0
  9  5  1  0
  1 10  1  0
  1 11  1  0
  1 12  1  0
  3 13  1  0
  4 14  1  0
  5 15  1  0
  6 16  1  0
  6 17  1  0
  7 18  1  0
  8 19  1  0
M  END
