
     RDKit          3D

 21 23  0  0  0  0  0  0  0  0999 V2000
    2.2812   -0.6951   -0.0139 C   0  0  0  0  0  0  0  0  0  0  0  0
    0.8428   -0.2261   -0.1485 C   0  0  0  0  0  0  0  0  0  0  0  0
    0.6360    1.0480   -0.8685 C   0  0  0  0  0  0  0  0  0  0  0  0
   -0.5290    1.8609   -0.4465 C   0  0  0  0  0  0  0  0  0  0  0  0
   -1.4983    1.4045    0.3303 C   0  0  0  0  0  0  0  0  0  0  0  0
   -1.4440    0.0069    0.8223 C   0  0  0  0  0  0  0  0  0  0  0  0
   -1.6267   -1.0325   -0.2484 C   0  0  0  0  0  0  0  0  0  0  0  0
   -0.1510   -1.3198   -0.1396 C   0  0  0  0  0  0  0  0  0  0  0  0
   -0.0096   -0.4186    1.0157 C   0  0  0  0  0  0  0  0  0  0  0  0
    2.4120   -1.5276   -0.7366 H   0  0  0  0  0  0  0  0  0  0  0  0
    2.9851    0.1083   -0.3048 H   0  0  0  0  0  0  0  0  0  0  0  0
    2.4885   -1.0116    1.0343 H   0  0  0  0  0  0  0  0  0  0  0  0
    1.5348    1.7057   -0.6586 H   0  0  0  0  0  0  0  0  0  0  0  0
    0.6601    0.9275   -1.9767 H   0  0  0  0  0  0  0  0  0  0  0  0
   -0.6215    2.9191   -0.7851 H   0  0  0  0  0  0  0  0  0  0  0  0
   -2.3297    2.0580    0.6034 H   0  0  0  0  0  0  0  0  0  0  0  0
   -2.0312   -0.2030    1.7290 H   0  0  0  0  0  0  0  0  0  0  0  0
   -1.8654   -0.6525   -1.2605 H   0  0  0  0  0  0  0  0  0  0  0  0
   -2.2545   -1.8695    0.0766 H   0  0  0  0  0  0  0  0  0  0  0  0
    0.1546   -2.3532   -0.0119 H   0  0  0  0  0  0  0  0  0  0  0  0
    0.3659   -0.7294    1.9881 H   0  0  0  0  0  0  0  0  0  0  0  0
  1  2  1  0
  2  3  1  0
  3  4  1  0
  4  5  2  0
  5  6  1  0
  6  7  1  0
  7  8  1  0
  8  9  1  0
  8  2  1  0
  9  2  1  0
  9  6  1  0
  1 10  1  0
  1 11  1  0
  1 12  1  0
  3 13  1  0
  3 14  1  0
  4 15  1  0
  5 16  1  0
  6 17  1  0
  7 18  1  0
  7 19  1  0
  8 20  1  0
  9 21  1  0
M  END
