
     RDKit          3D

 21 22  0  0  0  0  0  0  0  0999 V2000
   -1.6706    1.0239    0.4831 C   0  0  0  0  0  0  0  0  0  0  0  0
   -0.6007    0.1899   -0.0320 C   0  0  0  0  0  0  0  0  0  0  0  0
   -0.8480   -0.5442   -1.3171 C   0  0  0  0  0  0  0  0  0  0  0  0
    0.1797   -1.4785   -1.3636 O   0  0  0  0  0  0  0  0  0  0  0  0
    0.8272   -1.4976   -0.1521 C   0  0  0  0  0  0  0  0  0  0  0  0
    1.7421   -0.2910    0.0351 C   0  0  0  0  0  0  0  0  0  0  0  0
    0.7595    0.8459   -0.1505 C   0  0  0  0  0  0  0  0  0  0  0  0
    0.9187    1.8486    0.7931 O   0  0  0  0  0  0  0  0  0  0  0  0
   -0.2851   -1.0546    0.8171 C   0  0  0  0  0  0  0  0  0  0  0  0
   -1.5825    1.0782    1.6078 H   0  0  0  0  0  0  0  0  0  0  0  0
   -2.6580    0.6554    0.1707 H   0  0  0  0  0  0  0  0  0  0  0  0
   -1.5535    2.0692    0.1390 H   0  0  0  0  0  0  0  0  0  0  0  0
   -1.7956   -1.1135   -1.2648 H   0  0  0  0  0  0  0  0  0  0  0  0
   -0.8192    0.1281   -2.1969 H   0  0  0  0  0  0  0  0  0  0  0  0
    1.2765   -2.4352    0.1284 H   0  0  0  0  0  0  0  0  0  0  0  0
    2.5683   -0.2741   -0.6857 H   0  0  0  0  0  0  0  0  0  0  0  0
    2.0493   -0.2850    1.0911 H   0  0  0  0  0  0  0  0  0  0  0  0
    0.8211    1.2713   -1.1714 H   0  0  0  0  0  0  0  0  0  0  0  0
    1.6779    2.4326    0.4959 H   0  0  0  0  0  0  0  0  0  0  0  0
    0.0996   -0.8011    1.7950 H   0  0  0  0  0  0  0  0  0  0  0  0
   -1.1065   -1.7682    0.7777 H   0  0  0  0  0  0  0  0  0  0  0  0
  1  2  1  0
  2  3  1  0
  3  4  1  0
  4  5  1  0
  5  6  1  0
  6  7  1  0
  7  8  1  0
  5  9  1  0
  7  2  1  0
  9  2  1  0
  1 10  1  0
  1 11  1  0
  1 12  1  0
  3 13  1  0
  3 14  1  0
  5 15  1  0
  6 16  1  0
  6 17  1  0
  7 18  1  0
  8 19  1  0
  9 20  1  0
  9 21  1  0
M  END
