
     RDKit          3D

 19 20  0  0  0  0  0  0  0  0999 V2000
   -2.1826    0.6267    0.3441 C   0  0  0  0  0  0  0  0  0  0  0  0
   -0.8331    0.3391   -0.2394 C   0  0  0  0  0  0  0  0  0  0  0  0
   -0.7170   -0.8588   -1.0697 C   0  0  0  0  0  0  0  0  0  0  0  0
   -0.0811   -0.9236    0.2365 C   0  0  0  0  0  0  0  0  0  0  0  0
    1.1966   -0.1229    0.3549 C   0  0  0  0  0  0  0  0  0  0  0  0
    1.8968   -0.3386    1.5363 O   0  0  0  0  0  0  0  0  0  0  0  0
    2.0485   -0.1547   -0.8614 C   0  0  0  0  0  0  0  0  0  0  0  0
    3.2673   -0.3763   -0.7940 O   0  0  0  0  0  0  0  0  0  0  0  0
    0.3125    1.0886    0.3354 C   0  0  0  0  0  0  0  0  0  0  0  0
   -2.1625    1.1755    1.2939 H   0  0  0  0  0  0  0  0  0  0  0  0
   -2.7997   -0.3113    0.4027 H   0  0  0  0  0  0  0  0  0  0  0  0
   -2.7163    1.2728   -0.3954 H   0  0  0  0  0  0  0  0  0  0  0  0
   -0.1025   -0.9091   -1.9745 H   0  0  0  0  0  0  0  0  0  0  0  0
   -1.6365   -1.5091   -1.1636 H   0  0  0  0  0  0  0  0  0  0  0  0
   -0.5444   -1.3483    1.1431 H   0  0  0  0  0  0  0  0  0  0  0  0
    2.5852   -1.0109    1.3440 H   0  0  0  0  0  0  0  0  0  0  0  0
    1.6878    0.0073   -1.8671 H   0  0  0  0  0  0  0  0  0  0  0  0
    0.0902    1.4023    1.3833 H   0  0  0  0  0  0  0  0  0  0  0  0
    0.6909    1.9512   -0.2429 H   0  0  0  0  0  0  0  0  0  0  0  0
  1  2  1  0
  2  3  1  0
  3  4  1  0
  4  5  1  0
  5  6  1  0
  5  7  1  0
  7  8  2  0
  5  9  1  0
  4  2  1  0
  9  2  1  0
  1 10  1  0
  1 11  1  0
  1 12  1  0
  3 13  1  0
  3 14  1  0
  4 15  1  0
  6 16  1  0
  7 17  1  0
  9 18  1  0
  9 19  1  0
M  END
