
     RDKit          3D

 21 23  0  0  0  0  0  0  0  0999 V2000
    2.3112   -0.2872   -0.0035 C   0  0  0  0  0  0  0  0  0  0  0  0
    0.9494   -0.3029   -0.0150 C   0  0  0  0  0  0  0  0  0  0  0  0
    0.0417   -1.5004   -0.2010 C   0  0  0  0  0  0  0  0  0  0  0  0
   -0.9048   -0.3550   -0.0642 C   0  0  0  0  0  0  0  0  0  0  0  0
   -2.2771   -0.3721   -0.0830 C   0  0  0  0  0  0  0  0  0  0  0  0
   -0.0123    0.1487    1.0367 C   0  0  0  0  0  0  0  0  0  0  0  0
   -0.1124    1.6186    0.8899 C   0  0  0  0  0  0  0  0  0  0  0  0
   -0.0797    1.7874   -0.4547 C   0  0  0  0  0  0  0  0  0  0  0  0
    0.0178    0.4120   -0.9614 C   0  0  0  0  0  0  0  0  0  0  0  0
    2.7929    0.1569   -0.9260 H   0  0  0  0  0  0  0  0  0  0  0  0
    2.7857    0.2991    0.8384 H   0  0  0  0  0  0  0  0  0  0  0  0
    2.8095   -1.2997    0.0795 H   0  0  0  0  0  0  0  0  0  0  0  0
    0.0484   -2.2176    0.6371 H   0  0  0  0  0  0  0  0  0  0  0  0
    0.0992   -1.9852   -1.1870 H   0  0  0  0  0  0  0  0  0  0  0  0
   -2.7219   -1.3371    0.2412 H   0  0  0  0  0  0  0  0  0  0  0  0
   -2.7316    0.3925    0.6146 H   0  0  0  0  0  0  0  0  0  0  0  0
   -2.7328   -0.1462   -1.0707 H   0  0  0  0  0  0  0  0  0  0  0  0
   -0.0335   -0.3025    1.9933 H   0  0  0  0  0  0  0  0  0  0  0  0
   -0.1920    2.3788    1.6537 H   0  0  0  0  0  0  0  0  0  0  0  0
   -0.1162    2.7054   -1.0193 H   0  0  0  0  0  0  0  0  0  0  0  0
    0.0584    0.2065   -1.9986 H   0  0  0  0  0  0  0  0  0  0  0  0
  1  2  1  0
  2  3  1  0
  3  4  1  0
  4  5  1  0
  4  6  1  0
  6  7  1  0
  7  8  2  0
  8  9  1  0
  6  2  1  0
  9  2  1  0
  9  4  1  0
  1 10  1  0
  1 11  1  0
  1 12  1  0
  3 13  1  0
  3 14  1  0
  5 15  1  0
  5 16  1  0
  5 17  1  0
  6 18  1  0
  7 19  1  0
  8 20  1  0
  9 21  1  0
M  END
