
     RDKit          3D

 21 23  0  0  0  0  0  0  0  0999 V2000
   -1.9566    0.8484    1.1172 C   0  0  0  0  0  0  0  0  0  0  0  0
   -1.0039    0.2329    0.0932 C   0  0  0  0  0  0  0  0  0  0  0  0
    0.1340    1.0948   -0.3400 C   0  0  0  0  0  0  0  0  0  0  0  0
    1.2475    0.2191   -0.8006 C   0  0  0  0  0  0  0  0  0  0  0  0
    2.4755    0.1719    0.0468 C   0  0  0  0  0  0  0  0  0  0  0  0
    2.0305   -0.9677    0.7343 O   0  0  0  0  0  0  0  0  0  0  0  0
    0.9940   -1.1145   -0.1637 C   0  0  0  0  0  0  0  0  0  0  0  0
   -0.3955   -1.0639    0.4125 C   0  0  0  0  0  0  0  0  0  0  0  0
   -1.4778   -0.9301   -0.6601 C   0  0  0  0  0  0  0  0  0  0  0  0
   -1.3699    1.2473    1.9629 H   0  0  0  0  0  0  0  0  0  0  0  0
   -2.6609    0.0581    1.4831 H   0  0  0  0  0  0  0  0  0  0  0  0
   -2.5791    1.6170    0.6185 H   0  0  0  0  0  0  0  0  0  0  0  0
   -0.1533    1.7835   -1.1759 H   0  0  0  0  0  0  0  0  0  0  0  0
    0.4732    1.6731    0.5619 H   0  0  0  0  0  0  0  0  0  0  0  0
    1.4781    0.2220   -1.8762 H   0  0  0  0  0  0  0  0  0  0  0  0
    2.6076    1.0006    0.7756 H   0  0  0  0  0  0  0  0  0  0  0  0
    3.3940   -0.0850   -0.5151 H   0  0  0  0  0  0  0  0  0  0  0  0
    1.1029   -1.9962   -0.8136 H   0  0  0  0  0  0  0  0  0  0  0  0
   -0.6384   -1.5955    1.3462 H   0  0  0  0  0  0  0  0  0  0  0  0
   -2.4967   -1.2981   -0.4092 H   0  0  0  0  0  0  0  0  0  0  0  0
   -1.2052   -1.1177   -1.7106 H   0  0  0  0  0  0  0  0  0  0  0  0
  1  2  1  0
  2  3  1  0
  3  4  1  0
  4  5  1  0
  5  6  1  0
  6  7  1  0
  7  8  1  0
  8  9  1  0
  8  2  1  0
  9  2  1  0
  7  4  1  0
  1 10  1  0
  1 11  1  0
  1 12  1  0
  3 13  1  0
  3 14  1  0
  4 15  1  0
  5 16  1  0
  5 17  1  0
  7 18  1  0
  8 19  1  0
  9 20  1  0
  9 21  1  0
M  END
