
     RDKit          3D

 17 18  0  0  0  0  0  0  0  0999 V2000
   -1.5187    1.3217   -0.1185 C   0  0  0  0  0  0  0  0  0  0  0  0
   -0.4076    0.3836   -0.1463 C   0  0  0  0  0  0  0  0  0  0  0  0
   -0.6876   -0.9827   -0.7467 C   0  0  0  0  0  0  0  0  0  0  0  0
    0.3222   -1.8046   -0.2244 O   0  0  0  0  0  0  0  0  0  0  0  0
    1.1042   -1.0128    0.6220 C   0  0  0  0  0  0  0  0  0  0  0  0
    1.8143    0.0238   -0.2564 C   0  0  0  0  0  0  0  0  0  0  0  0
    0.7642    0.8088   -0.7586 O   0  0  0  0  0  0  0  0  0  0  0  0
    0.0767   -0.1046    1.1707 C   0  0  0  0  0  0  0  0  0  0  0  0
   -0.3080    0.2027    2.2352 O   0  0  0  0  0  0  0  0  0  0  0  0
   -2.1846    1.1663   -0.9869 H   0  0  0  0  0  0  0  0  0  0  0  0
   -2.0844    1.1827    0.8492 H   0  0  0  0  0  0  0  0  0  0  0  0
   -1.1249    2.3658   -0.0953 H   0  0  0  0  0  0  0  0  0  0  0  0
   -0.6613   -0.9401   -1.8536 H   0  0  0  0  0  0  0  0  0  0  0  0
   -1.6501   -1.3412   -0.3400 H   0  0  0  0  0  0  0  0  0  0  0  0
    1.7193   -1.5340    1.3078 H   0  0  0  0  0  0  0  0  0  0  0  0
    2.4133    0.7037    0.3863 H   0  0  0  0  0  0  0  0  0  0  0  0
    2.4132   -0.4392   -1.0444 H   0  0  0  0  0  0  0  0  0  0  0  0
  1  2  1  0
  2  3  1  0
  3  4  1  0
  4  5  1  0
  5  6  1  0
  6  7  1  0
  5  8  1  0
  8  9  2  0
  7  2  1  0
  8  2  1  0
  1 10  1  0
  1 11  1  0
  1 12  1  0
  3 13  1  0
  3 14  1  0
  5 15  1  0
  6 16  1  0
  6 17  1  0
M  END
