
     RDKit          3D

 23 25  0  0  0  0  0  0  0  0999 V2000
    0.5583    1.9712    0.6016 C   0  0  0  0  0  0  0  0  0  0  0  0
    0.4718    0.6120    0.1078 C   0  0  0  0  0  0  0  0  0  0  0  0
    1.4613    0.1126   -0.9049 C   0  0  0  0  0  0  0  0  0  0  0  0
    1.0874   -1.2494   -0.3552 C   0  0  0  0  0  0  0  0  0  0  0  0
    1.0511   -0.5065    0.9939 C   0  0  0  0  0  0  0  0  0  0  0  0
   -0.3505   -1.4063   -0.6845 C   0  0  0  0  0  0  0  0  0  0  0  0
   -1.1004   -0.5176   -1.5768 C   0  0  0  0  0  0  0  0  0  0  0  0
   -0.8590    0.0048   -0.2226 C   0  0  0  0  0  0  0  0  0  0  0  0
   -1.8957   -0.0885    0.8617 C   0  0  0  0  0  0  0  0  0  0  0  0
    1.4716    2.0881    1.2445 H   0  0  0  0  0  0  0  0  0  0  0  0
    0.7185    2.6794   -0.2626 H   0  0  0  0  0  0  0  0  0  0  0  0
   -0.3629    2.2890    1.0853 H   0  0  0  0  0  0  0  0  0  0  0  0
    2.4978    0.3493   -0.5978 H   0  0  0  0  0  0  0  0  0  0  0  0
    1.2910    0.3016   -1.9485 H   0  0  0  0  0  0  0  0  0  0  0  0
    1.7774   -2.0507   -0.4463 H   0  0  0  0  0  0  0  0  0  0  0  0
    0.2841   -0.9242    1.6588 H   0  0  0  0  0  0  0  0  0  0  0  0
    2.0305   -0.2821    1.4146 H   0  0  0  0  0  0  0  0  0  0  0  0
   -0.8393   -2.2814   -0.2622 H   0  0  0  0  0  0  0  0  0  0  0  0
   -0.6700    0.0398   -2.4172 H   0  0  0  0  0  0  0  0  0  0  0  0
   -2.1495   -0.8551   -1.8096 H   0  0  0  0  0  0  0  0  0  0  0  0
   -1.6522    0.6625    1.6563 H   0  0  0  0  0  0  0  0  0  0  0  0
   -1.9005   -1.0819    1.3756 H   0  0  0  0  0  0  0  0  0  0  0  0
   -2.9207    0.1334    0.4881 H   0  0  0  0  0  0  0  0  0  0  0  0
  1  2  1  0
  2  3  1  0
  3  4  1  0
  4  5  1  0
  4  6  1  0
  6  7  1  0
  7  8  1  0
  8  9  1  0
  5  2  1  0
  8  6  1  0
  8  2  1  0
  1 10  1  0
  1 11  1  0
  1 12  1  0
  3 13  1  0
  3 14  1  0
  4 15  1  0
  5 16  1  0
  5 17  1  0
  6 18  1  0
  7 19  1  0
  7 20  1  0
  9 21  1  0
  9 22  1  0
  9 23  1  0
M  END
