
     RDKit          3D

 21 22  0  0  0  0  0  0  0  0999 V2000
    1.8976   -0.1128    1.0041 C   0  0  0  0  0  0  0  0  0  0  0  0
    0.5618   -0.0946    0.3264 C   0  0  0  0  0  0  0  0  0  0  0  0
    0.0245   -1.4384   -0.0212 C   0  0  0  0  0  0  0  0  0  0  0  0
   -1.4571   -1.3896   -0.1360 C   0  0  0  0  0  0  0  0  0  0  0  0
   -2.0251   -0.1629   -0.2280 O   0  0  0  0  0  0  0  0  0  0  0  0
   -1.3554    0.8826    0.3276 C   0  0  0  0  0  0  0  0  0  0  0  0
   -0.5510    1.6855   -0.7048 C   0  0  0  0  0  0  0  0  0  0  0  0
    0.6323    0.7640   -0.8995 C   0  0  0  0  0  0  0  0  0  0  0  0
   -0.3439    0.5112    1.2051 O   0  0  0  0  0  0  0  0  0  0  0  0
    2.2401    0.9524    1.0747 H   0  0  0  0  0  0  0  0  0  0  0  0
    2.5848   -0.7172    0.4156 H   0  0  0  0  0  0  0  0  0  0  0  0
    1.7454   -0.4478    2.0445 H   0  0  0  0  0  0  0  0  0  0  0  0
    0.4983   -1.7470   -0.9983 H   0  0  0  0  0  0  0  0  0  0  0  0
    0.3653   -2.2353    0.7037 H   0  0  0  0  0  0  0  0  0  0  0  0
   -1.7461   -1.9599   -1.0685 H   0  0  0  0  0  0  0  0  0  0  0  0
   -1.8796   -2.0243    0.6976 H   0  0  0  0  0  0  0  0  0  0  0  0
   -2.0501    1.5821    0.8304 H   0  0  0  0  0  0  0  0  0  0  0  0
   -0.1725    2.5895   -0.1795 H   0  0  0  0  0  0  0  0  0  0  0  0
   -1.1155    1.8863   -1.6100 H   0  0  0  0  0  0  0  0  0  0  0  0
    0.5485    0.1739   -1.8415 H   0  0  0  0  0  0  0  0  0  0  0  0
    1.5978    1.3024   -0.9423 H   0  0  0  0  0  0  0  0  0  0  0  0
  1  2  1  0
  2  3  1  0
  3  4  1  0
  4  5  1  0
  5  6  1  0
  6  7  1  0
  7  8  1  0
  6  9  1  0
  8  2  1  0
  9  2  1  0
  1 10  1  0
  1 11  1  0
  1 12  1  0
  3 13  1  0
  3 14  1  0
  4 15  1  0
  4 16  1  0
  6 17  1  0
  7 18  1  0
  7 19  1  0
  8 20  1  0
  8 21  1  0
M  END
