
     RDKit          3D

 15 16  0  0  0  0  0  0  0  0999 V2000
    1.7827   -0.3955    0.2445 C   0  0  0  0  0  0  0  0  0  0  0  0
    0.5757    0.4815    0.2378 C   0  0  0  0  0  0  0  0  0  0  0  0
    0.5655    1.6735   -0.5365 O   0  0  0  0  0  0  0  0  0  0  0  0
   -0.6871    1.4582   -1.0896 C   0  0  0  0  0  0  0  0  0  0  0  0
   -1.5391    2.0402   -1.8020 O   0  0  0  0  0  0  0  0  0  0  0  0
   -0.6744    0.1165   -0.4636 C   0  0  0  0  0  0  0  0  0  0  0  0
   -0.8034   -1.0131   -1.2279 O   0  0  0  0  0  0  0  0  0  0  0  0
   -0.6554    0.0978    1.0134 C   0  0  0  0  0  0  0  0  0  0  0  0
   -0.6078   -1.1430    1.6012 O   0  0  0  0  0  0  0  0  0  0  0  0
    1.6822   -1.1255    1.0657 H   0  0  0  0  0  0  0  0  0  0  0  0
    2.6584    0.2560    0.5316 H   0  0  0  0  0  0  0  0  0  0  0  0
    1.9380   -0.8740   -0.7325 H   0  0  0  0  0  0  0  0  0  0  0  0
   -1.5601   -0.8524   -1.8667 H   0  0  0  0  0  0  0  0  0  0  0  0
   -1.2085    0.9367    1.5009 H   0  0  0  0  0  0  0  0  0  0  0  0
   -1.4667   -1.6571    1.5236 H   0  0  0  0  0  0  0  0  0  0  0  0
  1  2  1  0
  2  3  1  0
  3  4  1  0
  4  5  2  0
  4  6  1  0
  6  7  1  0
  6  8  1  0
  8  9  1  0
  6  2  1  0
  8  2  1  0
  1 10  1  0
  1 11  1  0
  1 12  1  0
  7 13  1  0
  8 14  1  0
  9 15  1  0
M  END
