
     RDKit          3D

 19 21  0  0  0  0  0  0  0  0999 V2000
   -1.9898   -0.5812    0.2409 C   0  0  0  0  0  0  0  0  0  0  0  0
   -0.5383   -0.2391    0.4148 C   0  0  0  0  0  0  0  0  0  0  0  0
   -0.0603    0.6534    1.4873 C   0  0  0  0  0  0  0  0  0  0  0  0
   -0.2017    1.2029    0.1331 C   0  0  0  0  0  0  0  0  0  0  0  0
    0.8738    1.2189   -0.8802 C   0  0  0  0  0  0  0  0  0  0  0  0
    2.1129    0.6711   -0.6664 O   0  0  0  0  0  0  0  0  0  0  0  0
    1.1158   -0.1493   -1.2599 C   0  0  0  0  0  0  0  0  0  0  0  0
    0.4927   -1.0873   -0.2615 C   0  0  0  0  0  0  0  0  0  0  0  0
    1.4877   -1.4627    0.6659 O   0  0  0  0  0  0  0  0  0  0  0  0
   -2.6206    0.1749    0.7371 H   0  0  0  0  0  0  0  0  0  0  0  0
   -2.1978   -0.5315   -0.8673 H   0  0  0  0  0  0  0  0  0  0  0  0
   -2.2464   -1.5974    0.5640 H   0  0  0  0  0  0  0  0  0  0  0  0
   -0.7385    1.0182    2.2776 H   0  0  0  0  0  0  0  0  0  0  0  0
    0.9927    0.5138    1.8412 H   0  0  0  0  0  0  0  0  0  0  0  0
   -1.0300    1.9287   -0.0180 H   0  0  0  0  0  0  0  0  0  0  0  0
    0.8508    2.0176   -1.6434 H   0  0  0  0  0  0  0  0  0  0  0  0
    1.2090   -0.4114   -2.3116 H   0  0  0  0  0  0  0  0  0  0  0  0
    0.1120   -2.0160   -0.6933 H   0  0  0  0  0  0  0  0  0  0  0  0
    2.3760   -1.3235    0.2397 H   0  0  0  0  0  0  0  0  0  0  0  0
  1  2  1  0
  2  3  1  0
  3  4  1  0
  4  5  1  0
  5  6  1  0
  6  7  1  0
  7  8  1  0
  8  9  1  0
  4  2  1  0
  7  5  1  0
  8  2  1  0
  1 10  1  0
  1 11  1  0
  1 12  1  0
  3 13  1  0
  3 14  1  0
  4 15  1  0
  5 16  1  0
  7 17  1  0
  8 18  1  0
  9 19  1  0
M  END
