
     RDKit          3D

 21 23  0  0  0  0  0  0  0  0999 V2000
   -0.5738    1.8513    1.0372 C   0  0  0  0  0  0  0  0  0  0  0  0
   -0.3034    0.6492    0.2114 C   0  0  0  0  0  0  0  0  0  0  0  0
   -1.5317   -0.1493   -0.2215 C   0  0  0  0  0  0  0  0  0  0  0  0
   -1.0320   -1.5593   -0.4786 C   0  0  0  0  0  0  0  0  0  0  0  0
    0.4228   -1.5706   -0.0106 C   0  0  0  0  0  0  0  0  0  0  0  0
    0.6471   -0.3697    0.7540 C   0  0  0  0  0  0  0  0  0  0  0  0
    1.2607   -0.4976   -0.5966 C   0  0  0  0  0  0  0  0  0  0  0  0
    2.5931   -0.7518   -0.7794 O   0  0  0  0  0  0  0  0  0  0  0  0
    0.6724    0.8344   -0.9421 C   0  0  0  0  0  0  0  0  0  0  0  0
   -1.5350    1.6876    1.5822 H   0  0  0  0  0  0  0  0  0  0  0  0
    0.1849    2.0698    1.7930 H   0  0  0  0  0  0  0  0  0  0  0  0
   -0.7778    2.7071    0.3451 H   0  0  0  0  0  0  0  0  0  0  0  0
   -1.9022    0.3315   -1.1495 H   0  0  0  0  0  0  0  0  0  0  0  0
   -2.2636   -0.1232    0.6005 H   0  0  0  0  0  0  0  0  0  0  0  0
   -1.5742   -2.3073    0.1074 H   0  0  0  0  0  0  0  0  0  0  0  0
   -1.0646   -1.7716   -1.5776 H   0  0  0  0  0  0  0  0  0  0  0  0
    0.8956   -2.4993    0.2802 H   0  0  0  0  0  0  0  0  0  0  0  0
    1.2726   -0.2124    1.6083 H   0  0  0  0  0  0  0  0  0  0  0  0
    3.1030   -0.9565    0.0228 H   0  0  0  0  0  0  0  0  0  0  0  0
    1.3385    1.7042   -0.6837 H   0  0  0  0  0  0  0  0  0  0  0  0
    0.1677    0.9337   -1.9023 H   0  0  0  0  0  0  0  0  0  0  0  0
  1  2  1  0
  2  3  1  0
  3  4  1  0
  4  5  1  0
  5  6  1  0
  6  7  1  0
  7  8  1  0
  7  9  1  0
  6  2  1  0
  9  2  1  0
  7  5  1  0
  1 10  1  0
  1 11  1  0
  1 12  1  0
  3 13  1  0
  3 14  1  0
  4 15  1  0
  4 16  1  0
  5 17  1  0
  6 18  1  0
  8 19  1  0
  9 20  1  0
  9 21  1  0
M  END
