
     RDKit          3D

 19 21  0  0  0  0  0  0  0  0999 V2000
   -1.4820   -0.2442    1.0600 C   0  0  0  0  0  0  0  0  0  0  0  0
   -1.0821    0.2535   -0.3148 C   0  0  0  0  0  0  0  0  0  0  0  0
   -0.1835    1.3564   -0.1781 C   0  0  0  0  0  0  0  0  0  0  0  0
    1.0092    0.9059    0.1547 C   0  0  0  0  0  0  0  0  0  0  0  0
    2.3967    0.5309    0.5309 C   0  0  0  0  0  0  0  0  0  0  0  0
    2.2550   -0.6056   -0.2534 O   0  0  0  0  0  0  0  0  0  0  0  0
    0.8993   -0.6060    0.0476 C   0  0  0  0  0  0  0  0  0  0  0  0
   -0.0288   -0.6239   -1.1103 C   0  0  0  0  0  0  0  0  0  0  0  0
   -1.4037   -0.6936   -1.3210 C   0  0  0  0  0  0  0  0  0  0  0  0
   -2.6048   -0.1108    1.1149 H   0  0  0  0  0  0  0  0  0  0  0  0
   -1.2972   -1.2931    1.2318 H   0  0  0  0  0  0  0  0  0  0  0  0
   -1.0906    0.3618    1.8936 H   0  0  0  0  0  0  0  0  0  0  0  0
   -0.3758    2.4323   -0.3109 H   0  0  0  0  0  0  0  0  0  0  0  0
    3.1811    1.2317    0.2030 H   0  0  0  0  0  0  0  0  0  0  0  0
    2.4226    0.2389    1.5993 H   0  0  0  0  0  0  0  0  0  0  0  0
    0.7133   -1.1566    0.9432 H   0  0  0  0  0  0  0  0  0  0  0  0
    0.4978   -0.0688   -1.9601 H   0  0  0  0  0  0  0  0  0  0  0  0
   -1.9180   -1.6552   -1.0957 H   0  0  0  0  0  0  0  0  0  0  0  0
   -1.9082   -0.2535   -2.2346 H   0  0  0  0  0  0  0  0  0  0  0  0
  1  2  1  0
  2  3  1  0
  3  4  2  0
  4  5  1  0
  5  6  1  0
  6  7  1  0
  7  8  1  0
  8  9  1  0
  8  2  1  0
  9  2  1  0
  7  4  1  0
  1 10  1  0
  1 11  1  0
  1 12  1  0
  3 13  1  0
  5 14  1  0
  5 15  1  0
  7 16  1  0
  8 17  1  0
  9 18  1  0
  9 19  1  0
M  END
