
     RDKit          3D

 16 18  0  0  0  0  0  0  0  0999 V2000
    1.7543   -0.5650   -0.2176 C   0  0  0  0  0  0  0  0  0  0  0  0
    0.5349   -0.0087    0.3193 C   0  0  0  0  0  0  0  0  0  0  0  0
    0.0714    1.4336    0.0597 C   0  0  0  0  0  0  0  0  0  0  0  0
   -1.3258    0.8075    0.2331 C   0  0  0  0  0  0  0  0  0  0  0  0
   -1.5185    0.2500    1.4913 O   0  0  0  0  0  0  0  0  0  0  0  0
   -0.4714   -0.6559    1.1790 C   0  0  0  0  0  0  0  0  0  0  0  0
   -0.7669   -0.4497   -0.2178 C   0  0  0  0  0  0  0  0  0  0  0  0
   -1.0219   -1.2713   -1.1928 O   0  0  0  0  0  0  0  0  0  0  0  0
    2.3490   -1.2049    0.4420 H   0  0  0  0  0  0  0  0  0  0  0  0
    2.4466    0.2701   -0.5341 H   0  0  0  0  0  0  0  0  0  0  0  0
    1.5314   -1.1639   -1.1465 H   0  0  0  0  0  0  0  0  0  0  0  0
    0.2889    2.0574    0.9327 H   0  0  0  0  0  0  0  0  0  0  0  0
    0.2600    1.8087   -0.9297 H   0  0  0  0  0  0  0  0  0  0  0  0
   -2.1345    1.3121   -0.2431 H   0  0  0  0  0  0  0  0  0  0  0  0
   -0.3562   -1.5741    1.7196 H   0  0  0  0  0  0  0  0  0  0  0  0
   -1.6411   -1.0459   -1.8950 H   0  0  0  0  0  0  0  0  0  0  0  0
  1  2  1  0
  2  3  1  0
  3  4  1  0
  4  5  1  0
  5  6  1  0
  6  7  1  0
  7  8  1  0
  6  2  1  0
  7  2  1  0
  7  4  1  0
  1  9  1  0
  1 10  1  0
  1 11  1  0
  3 12  1  0
  3 13  1  0
  4 14  1  0
  6 15  1  0
  8 16  1  0
M  END
