
     RDKit          3D

 19 20  0  0  0  0  0  0  0  0999 V2000
   -1.2495    1.1977   -0.8809 C   0  0  0  0  0  0  0  0  0  0  0  0
   -0.7348    0.1454   -0.1694 C   0  0  0  0  0  0  0  0  0  0  0  0
   -1.0945   -1.3141   -0.3186 C   0  0  0  0  0  0  0  0  0  0  0  0
   -0.0653   -1.2922    0.7844 C   0  0  0  0  0  0  0  0  0  0  0  0
   -0.8108   -0.0963    1.3079 C   0  0  0  0  0  0  0  0  0  0  0  0
    0.6792   -0.3219   -0.0871 C   0  0  0  0  0  0  0  0  0  0  0  0
    1.5883    0.5209    0.5608 O   0  0  0  0  0  0  0  0  0  0  0  0
    2.8276    0.8070    0.0637 C   0  0  0  0  0  0  0  0  0  0  0  0
    3.1642    0.2778   -1.0423 O   0  0  0  0  0  0  0  0  0  0  0  0
   -1.6487    0.8967   -1.8917 H   0  0  0  0  0  0  0  0  0  0  0  0
   -0.5214    2.0043   -1.0959 H   0  0  0  0  0  0  0  0  0  0  0  0
   -2.1457    1.6648   -0.3769 H   0  0  0  0  0  0  0  0  0  0  0  0
   -0.7598   -1.7600   -1.2573 H   0  0  0  0  0  0  0  0  0  0  0  0
   -2.1080   -1.5957    0.0342 H   0  0  0  0  0  0  0  0  0  0  0  0
    0.2942   -2.0670    1.2954 H   0  0  0  0  0  0  0  0  0  0  0  0
   -0.2336    0.6287    1.8835 H   0  0  0  0  0  0  0  0  0  0  0  0
   -1.7831   -0.3949    1.7150 H   0  0  0  0  0  0  0  0  0  0  0  0
    1.0370   -0.7499   -1.0475 H   0  0  0  0  0  0  0  0  0  0  0  0
    3.5648    1.4488    0.5226 H   0  0  0  0  0  0  0  0  0  0  0  0
  1  2  1  0
  2  3  1  0
  3  4  1  0
  4  5  1  0
  4  6  1  0
  6  7  1  0
  7  8  1  0
  8  9  2  0
  5  2  1  0
  6  2  1  0
  1 10  1  0
  1 11  1  0
  1 12  1  0
  3 13  1  0
  3 14  1  0
  4 15  1  0
  5 16  1  0
  5 17  1  0
  6 18  1  0
  8 19  1  0
M  END
