
     RDKit          3D

 17 18  0  0  0  0  0  0  0  0999 V2000
    1.8816    0.0022   -0.1704 C   0  0  0  0  0  0  0  0  0  0  0  0
    0.5810    0.4535    0.3949 C   0  0  0  0  0  0  0  0  0  0  0  0
    0.1159    1.8204    0.0600 C   0  0  0  0  0  0  0  0  0  0  0  0
   -1.1565    1.7498   -0.2888 C   0  0  0  0  0  0  0  0  0  0  0  0
   -1.6265    0.3731   -0.2165 C   0  0  0  0  0  0  0  0  0  0  0  0
   -2.7305   -0.0852   -0.5857 O   0  0  0  0  0  0  0  0  0  0  0  0
   -0.5563   -0.4314    0.3839 C   0  0  0  0  0  0  0  0  0  0  0  0
   -0.5052   -1.9028    0.1410 C   0  0  0  0  0  0  0  0  0  0  0  0
    0.0665   -0.0361    1.5582 O   0  0  0  0  0  0  0  0  0  0  0  0
    2.0373   -1.0653   -0.0005 H   0  0  0  0  0  0  0  0  0  0  0  0
    2.7322    0.5927    0.1971 H   0  0  0  0  0  0  0  0  0  0  0  0
    1.8211    0.1487   -1.2887 H   0  0  0  0  0  0  0  0  0  0  0  0
    0.7366    2.6941    0.1053 H   0  0  0  0  0  0  0  0  0  0  0  0
   -1.8203    2.5652   -0.5977 H   0  0  0  0  0  0  0  0  0  0  0  0
    0.3902   -2.2094   -0.3978 H   0  0  0  0  0  0  0  0  0  0  0  0
   -1.4146   -2.2215   -0.4198 H   0  0  0  0  0  0  0  0  0  0  0  0
   -0.5525   -2.4481    1.1255 H   0  0  0  0  0  0  0  0  0  0  0  0
  1  2  1  0
  2  3  1  0
  3  4  2  0
  4  5  1  0
  5  6  2  0
  5  7  1  0
  7  8  1  0
  7  9  1  0
  7  2  1  0
  9  2  1  0
  1 10  1  0
  1 11  1  0
  1 12  1  0
  3 13  1  0
  4 14  1  0
  8 15  1  0
  8 16  1  0
  8 17  1  0
M  END
