
     RDKit          3D

 19 20  0  0  0  0  0  0  0  0999 V2000
   -1.9835   -0.0758    0.4862 C   0  0  0  0  0  0  0  0  0  0  0  0
   -0.5679   -0.4160    0.2102 C   0  0  0  0  0  0  0  0  0  0  0  0
    0.2322   -0.9507    1.3098 C   0  0  0  0  0  0  0  0  0  0  0  0
    1.5196   -0.6383    1.1775 C   0  0  0  0  0  0  0  0  0  0  0  0
    1.7676    0.1542   -0.0354 C   0  0  0  0  0  0  0  0  0  0  0  0
    0.3681    0.4238   -0.5465 C   0  0  0  0  0  0  0  0  0  0  0  0
    0.0632    1.7839   -0.9811 C   0  0  0  0  0  0  0  0  0  0  0  0
   -0.8621    2.4168   -0.5149 O   0  0  0  0  0  0  0  0  0  0  0  0
   -0.2560   -0.7598   -1.2184 C   0  0  0  0  0  0  0  0  0  0  0  0
   -2.0890    0.3207    1.5302 H   0  0  0  0  0  0  0  0  0  0  0  0
   -2.5761   -1.0229    0.4792 H   0  0  0  0  0  0  0  0  0  0  0  0
   -2.4661    0.5814   -0.2606 H   0  0  0  0  0  0  0  0  0  0  0  0
   -0.1226   -1.5337    2.1519 H   0  0  0  0  0  0  0  0  0  0  0  0
    2.3322   -0.9202    1.8709 H   0  0  0  0  0  0  0  0  0  0  0  0
    2.3341   -0.4943   -0.7480 H   0  0  0  0  0  0  0  0  0  0  0  0
    2.3350    1.0850    0.1447 H   0  0  0  0  0  0  0  0  0  0  0  0
    0.6614    2.2735   -1.7416 H   0  0  0  0  0  0  0  0  0  0  0  0
    0.3086   -1.7009   -1.3386 H   0  0  0  0  0  0  0  0  0  0  0  0
   -0.9990   -0.5269   -1.9754 H   0  0  0  0  0  0  0  0  0  0  0  0
  1  2  1  0
  2  3  1  0
  3  4  2  0
  4  5  1  0
  5  6  1  0
  6  7  1  0
  7  8  2  0
  6  9  1  0
  6  2  1  0
  9  2  1  0
  1 10  1  0
  1 11  1  0
  1 12  1  0
  3 13  1  0
  4 14  1  0
  5 15  1  0
  5 16  1  0
  7 17  1  0
  9 18  1  0
  9 19  1  0
M  END
