
     RDKit          2D

 21 23  0  0  0  0  0  0  0  0999 V2000
   -0.0000   -2.5607    0.0000 C   0  0  0  0  0  0  0  0  0  0  0  0
   -0.0000   -1.0607    0.0000 C   0  0  0  0  0  0  0  0  0  0  0  0
    1.0607    0.0000    0.0000 C   0  0  0  0  0  0  0  0  0  0  0  0
    0.0000    1.0607    0.0000 C   0  0  0  0  0  0  0  0  0  0  0  0
   -1.0607    0.0000    0.0000 O   0  0  0  0  0  0  0  0  0  0  0  0
    0.3393   -0.0000    0.0000 C   0  0  0  0  0  0  0  0  0  0  0  0
   -2.1213   -1.0607    0.0000 C   0  0  0  0  0  0  0  0  0  0  0  0
   -3.4808   -1.6946    0.0000 C   0  0  0  0  0  0  0  0  0  0  0  0
   -3.3500   -0.2003    0.0000 C   0  0  0  0  0  0  0  0  0  0  0  0
   -0.0000   -4.0607    0.0000 H   0  0  0  0  0  0  0  0  0  0  0  0
   -0.9768   -2.6806    0.0000 H   0  0  0  0  0  0  0  0  0  0  0  0
    1.5000   -2.5607    0.0000 H   0  0  0  0  0  0  0  0  0  0  0  0
    2.1213    1.0607    0.0000 H   0  0  0  0  0  0  0  0  0  0  0  0
    2.1213   -1.0607    0.0000 H   0  0  0  0  0  0  0  0  0  0  0  0
    0.0000    2.5607    0.0000 H   0  0  0  0  0  0  0  0  0  0  0  0
   -1.7518    1.0638    0.0000 H   0  0  0  0  0  0  0  0  0  0  0  0
   -1.6593   -1.9296    0.0000 H   0  0  0  0  0  0  0  0  0  0  0  0
   -3.0926   -3.1435    0.0000 H   0  0  0  0  0  0  0  0  0  0  0  0
   -4.9751   -1.8253    0.0000 H   0  0  0  0  0  0  0  0  0  0  0  0
   -4.7989    0.1879    0.0000 H   0  0  0  0  0  0  0  0  0  0  0  0
   -2.9329    1.0836    0.0000 H   0  0  0  0  0  0  0  0  0  0  0  0
  1  2  1  0
  2  3  1  0
  3  4  1  0
  4  5  1  0
  4  6  1  0
  6  7  1  0
  7  8  1  0
  8  9  1  0
  5  2  1  0
  9  7  1  0
  6  2  1  0
  1 10  1  0
  1 11  1  0
  1 12  1  0
  3 13  1  0
  3 14  1  0
  4 15  1  0
  6 16  1  0
  7 17  1  0
  8 18  1  0
  8 19  1  0
  9 20  1  0
  9 21  1  0
M  END
