
     RDKit          3D

 19 20  0  0  0  0  0  0  0  0999 V2000
   -0.4998    1.3700    0.7566 C   0  0  0  0  0  0  0  0  0  0  0  0
   -0.1757    0.3829   -0.3041 C   0  0  0  0  0  0  0  0  0  0  0  0
    1.1279    0.7329   -0.9552 C   0  0  0  0  0  0  0  0  0  0  0  0
    2.1346    0.1287   -0.0395 C   0  0  0  0  0  0  0  0  0  0  0  0
    1.5523   -0.8610    0.6567 C   0  0  0  0  0  0  0  0  0  0  0  0
    0.1637   -0.9736    0.2602 C   0  0  0  0  0  0  0  0  0  0  0  0
   -0.9193   -1.7109    0.1623 C   0  0  0  0  0  0  0  0  0  0  0  0
   -1.9390   -0.8305   -0.4606 C   0  0  0  0  0  0  0  0  0  0  0  0
   -1.1987    0.1323   -1.1973 O   0  0  0  0  0  0  0  0  0  0  0  0
   -1.5758    1.4481    0.9978 H   0  0  0  0  0  0  0  0  0  0  0  0
    0.1069    1.1698    1.6696 H   0  0  0  0  0  0  0  0  0  0  0  0
   -0.1627    2.3905    0.4127 H   0  0  0  0  0  0  0  0  0  0  0  0
    1.1444    0.2390   -1.9524 H   0  0  0  0  0  0  0  0  0  0  0  0
    1.2597    1.8337   -1.0459 H   0  0  0  0  0  0  0  0  0  0  0  0
    3.1573    0.4090    0.0724 H   0  0  0  0  0  0  0  0  0  0  0  0
    1.9890   -1.5151    1.4102 H   0  0  0  0  0  0  0  0  0  0  0  0
   -1.0716   -2.7378    0.4604 H   0  0  0  0  0  0  0  0  0  0  0  0
   -2.5096   -0.2380    0.2757 H   0  0  0  0  0  0  0  0  0  0  0  0
   -2.5836   -1.3700   -1.1798 H   0  0  0  0  0  0  0  0  0  0  0  0
  1  2  1  0
  2  3  1  0
  3  4  1  0
  4  5  2  0
  5  6  1  0
  6  7  2  0
  7  8  1  0
  8  9  1  0
  6  2  1  0
  9  2  1  0
  1 10  1  0
  1 11  1  0
  1 12  1  0
  3 13  1  0
  3 14  1  0
  4 15  1  0
  5 16  1  0
  7 17  1  0
  8 18  1  0
  8 19  1  0
M  END
