
     RDKit          3D

 16 17  0  0  0  0  0  0  0  0999 V2000
    1.4538   -0.4117   -0.2464 C   0  0  0  0  0  0  0  0  0  0  0  0
   -0.0713   -0.6007   -0.1009 C   0  0  0  0  0  0  0  0  0  0  0  0
   -0.7305    0.0079   -1.2936 C   0  0  0  0  0  0  0  0  0  0  0  0
   -0.3297    1.3838   -1.0752 O   0  0  0  0  0  0  0  0  0  0  0  0
   -0.0399    1.5259    0.2976 C   0  0  0  0  0  0  0  0  0  0  0  0
    0.6901    2.4465    0.7195 O   0  0  0  0  0  0  0  0  0  0  0  0
   -0.7657    0.4229    0.8956 C   0  0  0  0  0  0  0  0  0  0  0  0
   -0.5102   -0.9222    1.1911 C   0  0  0  0  0  0  0  0  0  0  0  0
    1.7587   -0.8739   -1.2032 H   0  0  0  0  0  0  0  0  0  0  0  0
    1.7445    0.6375   -0.2922 H   0  0  0  0  0  0  0  0  0  0  0  0
    1.9771   -0.9416    0.5763 H   0  0  0  0  0  0  0  0  0  0  0  0
   -1.8311   -0.0854   -1.1541 H   0  0  0  0  0  0  0  0  0  0  0  0
   -0.3699   -0.3626   -2.2578 H   0  0  0  0  0  0  0  0  0  0  0  0
   -1.8664    0.6356    0.6861 H   0  0  0  0  0  0  0  0  0  0  0  0
    0.2472   -1.1937    1.9795 H   0  0  0  0  0  0  0  0  0  0  0  0
   -1.3567   -1.6683    1.2777 H   0  0  0  0  0  0  0  0  0  0  0  0
  1  2  1  0
  2  3  1  0
  3  4  1  0
  4  5  1  0
  5  6  2  0
  5  7  1  0
  7  8  1  0
  7  2  1  0
  8  2  1  0
  1  9  1  0
  1 10  1  0
  1 11  1  0
  3 12  1  0
  3 13  1  0
  7 14  1  0
  8 15  1  0
  8 16  1  0
M  END
