
     RDKit          3D

 25 26  0  0  0  0  0  0  0  0999 V2000
    2.5871   -0.0245   -0.6799 C   0  0  0  0  0  0  0  0  0  0  0  0
    1.2419    0.0604   -0.1789 C   0  0  0  0  0  0  0  0  0  0  0  0
    0.6943    1.4260    0.2475 C   0  0  0  0  0  0  0  0  0  0  0  0
   -0.2960    0.5619    1.0407 C   0  0  0  0  0  0  0  0  0  0  0  0
    0.9359   -0.3222    1.2541 C   0  0  0  0  0  0  0  0  0  0  0  0
   -1.0606   -0.1294   -0.0247 C   0  0  0  0  0  0  0  0  0  0  0  0
   -2.0465    0.7259   -0.7552 C   0  0  0  0  0  0  0  0  0  0  0  0
   -1.7537   -1.3419    0.5387 C   0  0  0  0  0  0  0  0  0  0  0  0
    0.0956   -0.5573   -0.9485 C   0  0  0  0  0  0  0  0  0  0  0  0
    3.2235   -0.6559    0.0072 H   0  0  0  0  0  0  0  0  0  0  0  0
    3.1120    0.9678   -0.8018 H   0  0  0  0  0  0  0  0  0  0  0  0
    2.6169   -0.5375   -1.6766 H   0  0  0  0  0  0  0  0  0  0  0  0
    1.3432    1.9555    0.9484 H   0  0  0  0  0  0  0  0  0  0  0  0
    0.2758    1.9599   -0.5956 H   0  0  0  0  0  0  0  0  0  0  0  0
   -0.7580    0.9910    1.8902 H   0  0  0  0  0  0  0  0  0  0  0  0
    0.7399   -1.3642    1.4554 H   0  0  0  0  0  0  0  0  0  0  0  0
    1.6371    0.2166    1.9254 H   0  0  0  0  0  0  0  0  0  0  0  0
   -2.2913    0.2879   -1.7452 H   0  0  0  0  0  0  0  0  0  0  0  0
   -1.7269    1.7567   -0.9267 H   0  0  0  0  0  0  0  0  0  0  0  0
   -2.9724    0.7704   -0.1420 H   0  0  0  0  0  0  0  0  0  0  0  0
   -2.3117   -1.0775    1.4519 H   0  0  0  0  0  0  0  0  0  0  0  0
   -1.0396   -2.1476    0.8379 H   0  0  0  0  0  0  0  0  0  0  0  0
   -2.4595   -1.7367   -0.2402 H   0  0  0  0  0  0  0  0  0  0  0  0
    0.0125   -0.1181   -1.9398 H   0  0  0  0  0  0  0  0  0  0  0  0
    0.2007   -1.6672   -0.9424 H   0  0  0  0  0  0  0  0  0  0  0  0
  1  2  1  0
  2  3  1  0
  3  4  1  0
  4  5  1  0
  4  6  1  0
  6  7  1  0
  6  8  1  0
  6  9  1  0
  5  2  1  0
  9  2  1  0
  1 10  1  0
  1 11  1  0
  1 12  1  0
  3 13  1  0
  3 14  1  0
  4 15  1  0
  5 16  1  0
  5 17  1  0
  7 18  1  0
  7 19  1  0
  7 20  1  0
  8 21  1  0
  8 22  1  0
  8 23  1  0
  9 24  1  0
  9 25  1  0
M  END
