
     RDKit          3D

 23 24  0  0  0  0  0  0  0  0999 V2000
   -0.8251   -1.6575    0.7473 C   0  0  0  0  0  0  0  0  0  0  0  0
   -0.3670   -0.4840   -0.0555 C   0  0  0  0  0  0  0  0  0  0  0  0
    0.7745   -0.9159   -0.9373 C   0  0  0  0  0  0  0  0  0  0  0  0
    1.9593   -0.2675   -0.2101 C   0  0  0  0  0  0  0  0  0  0  0  0
    1.3400    1.1267   -0.0220 C   0  0  0  0  0  0  0  0  0  0  0  0
    0.0949    0.6807    0.7583 C   0  0  0  0  0  0  0  0  0  0  0  0
   -1.0020    1.6804    0.6452 C   0  0  0  0  0  0  0  0  0  0  0  0
   -2.0673    1.0134    0.0647 O   0  0  0  0  0  0  0  0  0  0  0  0
   -1.5313    0.0761   -0.8210 C   0  0  0  0  0  0  0  0  0  0  0  0
   -1.9103   -1.5919    1.0143 H   0  0  0  0  0  0  0  0  0  0  0  0
   -0.7661   -2.5561    0.0645 H   0  0  0  0  0  0  0  0  0  0  0  0
   -0.1875   -1.9051    1.6077 H   0  0  0  0  0  0  0  0  0  0  0  0
    0.6740   -0.3720   -1.8992 H   0  0  0  0  0  0  0  0  0  0  0  0
    0.8994   -1.9891   -1.0260 H   0  0  0  0  0  0  0  0  0  0  0  0
    2.8615   -0.2490   -0.8039 H   0  0  0  0  0  0  0  0  0  0  0  0
    2.0535   -0.7321    0.7910 H   0  0  0  0  0  0  0  0  0  0  0  0
    1.0610    1.4601   -1.0371 H   0  0  0  0  0  0  0  0  0  0  0  0
    1.9726    1.7956    0.5395 H   0  0  0  0  0  0  0  0  0  0  0  0
    0.4084    0.4400    1.7771 H   0  0  0  0  0  0  0  0  0  0  0  0
   -1.2598    2.0361    1.6560 H   0  0  0  0  0  0  0  0  0  0  0  0
   -0.7136    2.5139   -0.0433 H   0  0  0  0  0  0  0  0  0  0  0  0
   -1.1798    0.5724   -1.7420 H   0  0  0  0  0  0  0  0  0  0  0  0
   -2.2894   -0.6751   -1.0683 H   0  0  0  0  0  0  0  0  0  0  0  0
  1  2  1  0
  2  3  1  0
  3  4  1  0
  4  5  1  0
  5  6  1  0
  6  7  1  0
  7  8  1  0
  8  9  1  0
  6  2  1  0
  9  2  1  0
  1 10  1  0
  1 11  1  0
  1 12  1  0
  3 13  1  0
  3 14  1  0
  4 15  1  0
  4 16  1  0
  5 17  1  0
  5 18  1  0
  6 19  1  0
  7 20  1  0
  7 21  1  0
  9 22  1  0
  9 23  1  0
M  END
