
     RDKit          3D

 23 24  0  0  0  0  0  0  0  0999 V2000
    2.2083    0.9710   -0.5216 C   0  0  0  0  0  0  0  0  0  0  0  0
    0.9253    0.3336    0.0288 C   0  0  0  0  0  0  0  0  0  0  0  0
   -0.2642    1.1985   -0.0708 C   0  0  0  0  0  0  0  0  0  0  0  0
   -1.5875    0.5831    0.0775 C   0  0  0  0  0  0  0  0  0  0  0  0
   -2.3920    0.7751   -1.0717 O   0  0  0  0  0  0  0  0  0  0  0  0
   -1.6333   -0.8574    0.4144 C   0  0  0  0  0  0  0  0  0  0  0  0
   -0.5507   -1.6926   -0.1685 C   0  0  0  0  0  0  0  0  0  0  0  0
    0.8017   -1.0880   -0.1221 C   0  0  0  0  0  0  0  0  0  0  0  0
    1.1761   -0.5091    1.2469 C   0  0  0  0  0  0  0  0  0  0  0  0
    2.0356    2.0096   -0.8637 H   0  0  0  0  0  0  0  0  0  0  0  0
    2.5945    0.4042   -1.3882 H   0  0  0  0  0  0  0  0  0  0  0  0
    2.9800    1.0471    0.2858 H   0  0  0  0  0  0  0  0  0  0  0  0
   -0.2242    1.7164   -1.0757 H   0  0  0  0  0  0  0  0  0  0  0  0
   -0.1080    2.0502    0.6586 H   0  0  0  0  0  0  0  0  0  0  0  0
   -2.1519    1.1310    0.8909 H   0  0  0  0  0  0  0  0  0  0  0  0
   -2.4768    1.7531   -1.2347 H   0  0  0  0  0  0  0  0  0  0  0  0
   -2.6145   -1.2903    0.0582 H   0  0  0  0  0  0  0  0  0  0  0  0
   -1.6705   -0.9868    1.5273 H   0  0  0  0  0  0  0  0  0  0  0  0
   -0.5141   -2.6459    0.4383 H   0  0  0  0  0  0  0  0  0  0  0  0
   -0.7485   -2.0391   -1.2102 H   0  0  0  0  0  0  0  0  0  0  0  0
    1.5832   -1.6417   -0.6794 H   0  0  0  0  0  0  0  0  0  0  0  0
    2.2180   -0.7225    1.5668 H   0  0  0  0  0  0  0  0  0  0  0  0
    0.4136   -0.4992    2.0402 H   0  0  0  0  0  0  0  0  0  0  0  0
  1  2  1  0
  2  3  1  0
  3  4  1  0
  4  5  1  0
  4  6  1  0
  6  7  1  0
  7  8  1  0
  8  9  1  0
  8  2  1  0
  9  2  1  0
  1 10  1  0
  1 11  1  0
  1 12  1  0
  3 13  1  0
  3 14  1  0
  4 15  1  0
  5 16  1  0
  6 17  1  0
  6 18  1  0
  7 19  1  0
  7 20  1  0
  8 21  1  0
  9 22  1  0
  9 23  1  0
M  END
