
     RDKit          3D

 19 20  0  0  0  0  0  0  0  0999 V2000
   -1.7611    0.9446   -0.7770 C   0  0  0  0  0  0  0  0  0  0  0  0
   -0.6856    0.1373   -0.1963 C   0  0  0  0  0  0  0  0  0  0  0  0
   -1.0289   -0.5854    1.0531 C   0  0  0  0  0  0  0  0  0  0  0  0
   -0.1520   -1.5688    1.1248 C   0  0  0  0  0  0  0  0  0  0  0  0
    0.6812   -1.4789   -0.1075 C   0  0  0  0  0  0  0  0  0  0  0  0
    1.6018   -0.3017    0.0139 C   0  0  0  0  0  0  0  0  0  0  0  0
    0.6109    0.8578    0.0564 C   0  0  0  0  0  0  0  0  0  0  0  0
    0.8915    1.8246   -0.8841 O   0  0  0  0  0  0  0  0  0  0  0  0
   -0.2842   -0.9564   -1.0057 O   0  0  0  0  0  0  0  0  0  0  0  0
   -1.5885    1.0749   -1.8646 H   0  0  0  0  0  0  0  0  0  0  0  0
   -1.7421    1.9603   -0.3293 H   0  0  0  0  0  0  0  0  0  0  0  0
   -2.7348    0.4435   -0.6232 H   0  0  0  0  0  0  0  0  0  0  0  0
   -1.8080   -0.3702    1.7488 H   0  0  0  0  0  0  0  0  0  0  0  0
   -0.0853   -2.2768    1.9341 H   0  0  0  0  0  0  0  0  0  0  0  0
    1.1200   -2.3987   -0.4330 H   0  0  0  0  0  0  0  0  0  0  0  0
    2.2057   -0.3638    0.9228 H   0  0  0  0  0  0  0  0  0  0  0  0
    2.2653   -0.2265   -0.8594 H   0  0  0  0  0  0  0  0  0  0  0  0
    0.6211    1.2772    1.0851 H   0  0  0  0  0  0  0  0  0  0  0  0
    1.8730    2.0070   -0.8588 H   0  0  0  0  0  0  0  0  0  0  0  0
  1  2  1  0
  2  3  1  0
  3  4  2  0
  4  5  1  0
  5  6  1  0
  6  7  1  0
  7  8  1  0
  5  9  1  0
  7  2  1  0
  9  2  1  0
  1 10  1  0
  1 11  1  0
  1 12  1  0
  3 13  1  0
  4 14  1  0
  5 15  1  0
  6 16  1  0
  6 17  1  0
  7 18  1  0
  8 19  1  0
M  END
