
     RDKit          3D

 21 22  0  0  0  0  0  0  0  0999 V2000
    2.3387   -0.6074   -0.0887 C   0  0  0  0  0  0  0  0  0  0  0  0
    1.1223   -0.2780   -0.8988 C   0  0  0  0  0  0  0  0  0  0  0  0
   -0.0287   -1.2278   -0.8631 C   0  0  0  0  0  0  0  0  0  0  0  0
   -1.0127   -0.0905   -0.6915 C   0  0  0  0  0  0  0  0  0  0  0  0
   -1.9537   -0.3122    0.4699 C   0  0  0  0  0  0  0  0  0  0  0  0
   -2.8470    0.7156    0.6291 O   0  0  0  0  0  0  0  0  0  0  0  0
    0.1644    0.7980   -0.4050 C   0  0  0  0  0  0  0  0  0  0  0  0
    0.4020    1.3809    0.9320 C   0  0  0  0  0  0  0  0  0  0  0  0
    1.0326    0.9667   -1.4569 O   0  0  0  0  0  0  0  0  0  0  0  0
    2.5243    0.1917    0.6761 H   0  0  0  0  0  0  0  0  0  0  0  0
    2.1467   -1.5276    0.4746 H   0  0  0  0  0  0  0  0  0  0  0  0
    3.2515   -0.6763   -0.7280 H   0  0  0  0  0  0  0  0  0  0  0  0
   -0.1904   -1.8585   -1.7510 H   0  0  0  0  0  0  0  0  0  0  0  0
    0.0044   -1.8453    0.0490 H   0  0  0  0  0  0  0  0  0  0  0  0
   -1.5152    0.2494   -1.6191 H   0  0  0  0  0  0  0  0  0  0  0  0
   -1.3852   -0.5350    1.3918 H   0  0  0  0  0  0  0  0  0  0  0  0
   -2.5198   -1.2529    0.2306 H   0  0  0  0  0  0  0  0  0  0  0  0
   -3.0130    1.2381   -0.1930 H   0  0  0  0  0  0  0  0  0  0  0  0
   -0.5159    1.8557    1.3263 H   0  0  0  0  0  0  0  0  0  0  0  0
    0.8067    0.6453    1.6788 H   0  0  0  0  0  0  0  0  0  0  0  0
    1.1879    2.1700    0.8367 H   0  0  0  0  0  0  0  0  0  0  0  0
  1  2  1  0
  2  3  1  0
  3  4  1  0
  4  5  1  0
  5  6  1  0
  4  7  1  0
  7  8  1  0
  7  9  1  0
  7  2  1  0
  9  2  1  0
  1 10  1  0
  1 11  1  0
  1 12  1  0
  3 13  1  0
  3 14  1  0
  4 15  1  0
  5 16  1  0
  5 17  1  0
  6 18  1  0
  8 19  1  0
  8 20  1  0
  8 21  1  0
M  END
