
     RDKit          3D

 16 17  0  0  0  0  0  0  0  0999 V2000
   -0.9761    1.0914    0.5249 C   0  0  0  0  0  0  0  0  0  0  0  0
   -0.4798   -0.0634   -0.3814 C   0  0  0  0  0  0  0  0  0  0  0  0
    0.8213    0.3790   -0.9599 C   0  0  0  0  0  0  0  0  0  0  0  0
    1.6009    0.4510    0.3426 C   0  0  0  0  0  0  0  0  0  0  0  0
    2.6560    1.1257    0.5585 O   0  0  0  0  0  0  0  0  0  0  0  0
    0.8966   -0.3833    1.2279 O   0  0  0  0  0  0  0  0  0  0  0  0
    0.2042   -1.2573    0.4127 C   0  0  0  0  0  0  0  0  0  0  0  0
   -1.0833   -1.3000   -0.1425 C   0  0  0  0  0  0  0  0  0  0  0  0
   -0.3117    1.2081    1.3911 H   0  0  0  0  0  0  0  0  0  0  0  0
   -2.0282    0.8862    0.8289 H   0  0  0  0  0  0  0  0  0  0  0  0
   -1.0178    1.9780   -0.1380 H   0  0  0  0  0  0  0  0  0  0  0  0
    0.7330    1.4048   -1.3656 H   0  0  0  0  0  0  0  0  0  0  0  0
    1.2810   -0.3349   -1.6451 H   0  0  0  0  0  0  0  0  0  0  0  0
    0.9758   -1.8536   -0.1735 H   0  0  0  0  0  0  0  0  0  0  0  0
   -1.2997   -1.9685   -1.0268 H   0  0  0  0  0  0  0  0  0  0  0  0
   -1.9722   -1.3632    0.5462 H   0  0  0  0  0  0  0  0  0  0  0  0
  1  2  1  0
  2  3  1  0
  3  4  1  0
  4  5  2  0
  4  6  1  0
  6  7  1  0
  7  8  1  0
  7  2  1  0
  8  2  1  0
  1  9  1  0
  1 10  1  0
  1 11  1  0
  3 12  1  0
  3 13  1  0
  7 14  1  0
  8 15  1  0
  8 16  1  0
M  END
