
     RDKit          3D

 21 23  0  0  0  0  0  0  0  0999 V2000
    2.2702    0.0300    0.5818 C   0  0  0  0  0  0  0  0  0  0  0  0
    0.9386    0.0981   -0.1323 C   0  0  0  0  0  0  0  0  0  0  0  0
    0.3509    1.3974   -0.3592 C   0  0  0  0  0  0  0  0  0  0  0  0
   -0.9713    1.6564   -0.0588 O   0  0  0  0  0  0  0  0  0  0  0  0
   -1.6970    0.5536   -0.3405 C   0  0  0  0  0  0  0  0  0  0  0  0
   -2.5516   -0.2852    0.4180 C   0  0  0  0  0  0  0  0  0  0  0  0
   -1.1848   -0.4188    0.7721 C   0  0  0  0  0  0  0  0  0  0  0  0
   -0.0358   -1.0741    0.1705 C   0  0  0  0  0  0  0  0  0  0  0  0
    0.5673   -0.9824   -1.1206 C   0  0  0  0  0  0  0  0  0  0  0  0
    2.6557    1.0598    0.7541 H   0  0  0  0  0  0  0  0  0  0  0  0
    2.0462   -0.3679    1.6116 H   0  0  0  0  0  0  0  0  0  0  0  0
    2.9859   -0.6416    0.1054 H   0  0  0  0  0  0  0  0  0  0  0  0
    0.9479    2.1906    0.1820 H   0  0  0  0  0  0  0  0  0  0  0  0
    0.4785    1.6850   -1.4466 H   0  0  0  0  0  0  0  0  0  0  0  0
   -1.5231    0.2442   -1.4004 H   0  0  0  0  0  0  0  0  0  0  0  0
   -3.0559   -1.1491   -0.0850 H   0  0  0  0  0  0  0  0  0  0  0  0
   -3.2692    0.1871    1.1336 H   0  0  0  0  0  0  0  0  0  0  0  0
   -0.9007    0.0541    1.7649 H   0  0  0  0  0  0  0  0  0  0  0  0
    0.3938   -1.8616    0.8727 H   0  0  0  0  0  0  0  0  0  0  0  0
    1.4494   -1.6608   -1.3332 H   0  0  0  0  0  0  0  0  0  0  0  0
    0.1047   -0.7148   -2.0901 H   0  0  0  0  0  0  0  0  0  0  0  0
  1  2  1  0
  2  3  1  0
  3  4  1  0
  4  5  1  0
  5  6  1  0
  6  7  1  0
  7  8  1  0
  8  9  1  0
  8  2  1  0
  9  2  1  0
  7  5  1  0
  1 10  1  0
  1 11  1  0
  1 12  1  0
  3 13  1  0
  3 14  1  0
  5 15  1  0
  6 16  1  0
  6 17  1  0
  7 18  1  0
  8 19  1  0
  9 20  1  0
  9 21  1  0
M  END
