
     RDKit          3D

 21 23  0  0  0  0  0  0  0  0999 V2000
   -1.0275   -1.6778   -0.8458 C   0  0  0  0  0  0  0  0  0  0  0  0
   -0.6639   -0.3261   -0.4264 C   0  0  0  0  0  0  0  0  0  0  0  0
   -1.5833    0.4581    0.4393 C   0  0  0  0  0  0  0  0  0  0  0  0
   -0.8359    1.5677   -0.2536 C   0  0  0  0  0  0  0  0  0  0  0  0
   -0.8165    0.7106   -1.3788 O   0  0  0  0  0  0  0  0  0  0  0  0
    0.5923    1.4847    0.2132 C   0  0  0  0  0  0  0  0  0  0  0  0
    1.6080    0.8824   -0.7353 C   0  0  0  0  0  0  0  0  0  0  0  0
    0.7493   -0.0676    0.0433 C   0  0  0  0  0  0  0  0  0  0  0  0
    1.3307   -0.8213    1.1784 C   0  0  0  0  0  0  0  0  0  0  0  0
   -1.3046   -2.2813    0.0609 H   0  0  0  0  0  0  0  0  0  0  0  0
   -0.1556   -2.1729   -1.3156 H   0  0  0  0  0  0  0  0  0  0  0  0
   -1.8855   -1.6409   -1.5633 H   0  0  0  0  0  0  0  0  0  0  0  0
   -2.6137    0.4068    0.0767 H   0  0  0  0  0  0  0  0  0  0  0  0
   -1.4362    0.3941    1.5295 H   0  0  0  0  0  0  0  0  0  0  0  0
   -1.3000    2.5202   -0.3709 H   0  0  0  0  0  0  0  0  0  0  0  0
    0.9053    1.9064    1.1632 H   0  0  0  0  0  0  0  0  0  0  0  0
    2.6566    0.9113   -0.4510 H   0  0  0  0  0  0  0  0  0  0  0  0
    1.3067    0.9954   -1.8039 H   0  0  0  0  0  0  0  0  0  0  0  0
    2.3374   -1.2550    0.9049 H   0  0  0  0  0  0  0  0  0  0  0  0
    1.4287   -0.2662    2.1203 H   0  0  0  0  0  0  0  0  0  0  0  0
    0.7077   -1.7287    1.4149 H   0  0  0  0  0  0  0  0  0  0  0  0
  1  2  1  0
  2  3  1  0
  3  4  1  0
  4  5  1  0
  4  6  1  0
  6  7  1  0
  7  8  1  0
  8  9  1  0
  5  2  1  0
  8  6  1  0
  8  2  1  0
  1 10  1  0
  1 11  1  0
  1 12  1  0
  3 13  1  0
  3 14  1  0
  4 15  1  0
  6 16  1  0
  7 17  1  0
  7 18  1  0
  9 19  1  0
  9 20  1  0
  9 21  1  0
M  END
