
     RDKit          3D

 21 23  0  0  0  0  0  0  0  0999 V2000
    1.9269    1.2346    0.5822 C   0  0  0  0  0  0  0  0  0  0  0  0
    0.9561    0.2206    0.0810 C   0  0  0  0  0  0  0  0  0  0  0  0
    1.4670   -1.1744   -0.0099 C   0  0  0  0  0  0  0  0  0  0  0  0
    0.5008   -2.0560    0.2086 C   0  0  0  0  0  0  0  0  0  0  0  0
   -0.7655   -1.2875    0.4663 C   0  0  0  0  0  0  0  0  0  0  0  0
   -0.2895    0.0106    0.8785 C   0  0  0  0  0  0  0  0  0  0  0  0
   -1.0434   -0.1348   -0.4348 C   0  0  0  0  0  0  0  0  0  0  0  0
   -2.4082    0.4302   -0.5023 C   0  0  0  0  0  0  0  0  0  0  0  0
    0.1166    0.5799   -1.0909 C   0  0  0  0  0  0  0  0  0  0  0  0
    2.9513    0.7632    0.5300 H   0  0  0  0  0  0  0  0  0  0  0  0
    1.7348    1.4252    1.6496 H   0  0  0  0  0  0  0  0  0  0  0  0
    1.9846    2.1431   -0.0300 H   0  0  0  0  0  0  0  0  0  0  0  0
    2.4958   -1.4872   -0.2261 H   0  0  0  0  0  0  0  0  0  0  0  0
    0.5528   -3.1399    0.2137 H   0  0  0  0  0  0  0  0  0  0  0  0
   -1.6201   -1.7848    0.9128 H   0  0  0  0  0  0  0  0  0  0  0  0
   -0.6375    0.6515    1.6562 H   0  0  0  0  0  0  0  0  0  0  0  0
   -3.1465   -0.3084   -0.1695 H   0  0  0  0  0  0  0  0  0  0  0  0
   -2.6136    0.7252   -1.5611 H   0  0  0  0  0  0  0  0  0  0  0  0
   -2.4543    1.3789    0.0794 H   0  0  0  0  0  0  0  0  0  0  0  0
   -0.1276    1.6630   -1.1811 H   0  0  0  0  0  0  0  0  0  0  0  0
    0.4195    0.1469   -2.0526 H   0  0  0  0  0  0  0  0  0  0  0  0
  1  2  1  0
  2  3  1  0
  3  4  2  0
  4  5  1  0
  5  6  1  0
  6  7  1  0
  7  8  1  0
  7  9  1  0
  6  2  1  0
  9  2  1  0
  7  5  1  0
  1 10  1  0
  1 11  1  0
  1 12  1  0
  3 13  1  0
  4 14  1  0
  5 15  1  0
  6 16  1  0
  8 17  1  0
  8 18  1  0
  8 19  1  0
  9 20  1  0
  9 21  1  0
M  END
