
     RDKit          3D

 19 21  0  0  0  0  0  0  0  0999 V2000
    2.0160   -1.0210    0.4264 C   0  0  0  0  0  0  0  0  0  0  0  0
    0.7553   -0.1622    0.5226 C   0  0  0  0  0  0  0  0  0  0  0  0
    0.6285    0.4796    1.7299 O   0  0  0  0  0  0  0  0  0  0  0  0
    0.8240    1.2227    0.4334 C   0  0  0  0  0  0  0  0  0  0  0  0
   -0.4689    1.9297    0.1226 C   0  0  0  0  0  0  0  0  0  0  0  0
   -1.5720    1.2078    0.5740 O   0  0  0  0  0  0  0  0  0  0  0  0
   -1.6800    0.0033   -0.0763 C   0  0  0  0  0  0  0  0  0  0  0  0
   -1.5891   -1.2995    0.5684 C   0  0  0  0  0  0  0  0  0  0  0  0
   -0.4296   -0.7740   -0.1657 C   0  0  0  0  0  0  0  0  0  0  0  0
    2.0531   -1.5779    1.4086 H   0  0  0  0  0  0  0  0  0  0  0  0
    1.9681   -1.7337   -0.4087 H   0  0  0  0  0  0  0  0  0  0  0  0
    2.8719   -0.3453    0.4011 H   0  0  0  0  0  0  0  0  0  0  0  0
    1.7540    1.7909    0.4204 H   0  0  0  0  0  0  0  0  0  0  0  0
   -0.5245    2.9237    0.6567 H   0  0  0  0  0  0  0  0  0  0  0  0
   -0.5542    2.1801   -0.9571 H   0  0  0  0  0  0  0  0  0  0  0  0
   -2.2748    0.0684   -1.0284 H   0  0  0  0  0  0  0  0  0  0  0  0
   -1.4600   -1.4588    1.6482 H   0  0  0  0  0  0  0  0  0  0  0  0
   -2.1543   -2.1502    0.0881 H   0  0  0  0  0  0  0  0  0  0  0  0
   -0.1635   -1.2838   -1.1249 H   0  0  0  0  0  0  0  0  0  0  0  0
  1  2  1  0
  2  3  1  0
  3  4  1  0
  4  5  1  0
  5  6  1  0
  6  7  1  0
  7  8  1  0
  8  9  1  0
  4  2  1  0
  9  7  1  0
  9  2  1  0
  1 10  1  0
  1 11  1  0
  1 12  1  0
  4 13  1  0
  5 14  1  0
  5 15  1  0
  7 16  1  0
  8 17  1  0
  8 18  1  0
  9 19  1  0
M  END
