
     RDKit          3D

 19 21  0  0  0  0  0  0  0  0999 V2000
    2.1494    0.2079    0.0872 C   0  0  0  0  0  0  0  0  0  0  0  0
    0.7023   -0.0054   -0.0870 C   0  0  0  0  0  0  0  0  0  0  0  0
    0.1461   -1.4113   -0.3323 C   0  0  0  0  0  0  0  0  0  0  0  0
   -1.3088   -0.9922   -0.5601 C   0  0  0  0  0  0  0  0  0  0  0  0
   -1.5340   -0.1718    0.7139 C   0  0  0  0  0  0  0  0  0  0  0  0
   -0.3563    0.7702    0.5411 C   0  0  0  0  0  0  0  0  0  0  0  0
   -0.2300    1.9059    1.2457 O   0  0  0  0  0  0  0  0  0  0  0  0
   -0.1765    0.8167   -0.9236 C   0  0  0  0  0  0  0  0  0  0  0  0
   -1.1667   -0.0150   -1.4975 O   0  0  0  0  0  0  0  0  0  0  0  0
    2.5566   -0.5649    0.7706 H   0  0  0  0  0  0  0  0  0  0  0  0
    2.3165    1.1845    0.5837 H   0  0  0  0  0  0  0  0  0  0  0  0
    2.7035    0.1004   -0.8655 H   0  0  0  0  0  0  0  0  0  0  0  0
    0.2616   -2.0568    0.5360 H   0  0  0  0  0  0  0  0  0  0  0  0
    0.5398   -1.7918   -1.2733 H   0  0  0  0  0  0  0  0  0  0  0  0
   -1.9905   -1.7821   -0.7178 H   0  0  0  0  0  0  0  0  0  0  0  0
   -2.5017    0.3362    0.7015 H   0  0  0  0  0  0  0  0  0  0  0  0
   -1.3935   -0.8552    1.5764 H   0  0  0  0  0  0  0  0  0  0  0  0
   -0.8701    2.6261    0.9697 H   0  0  0  0  0  0  0  0  0  0  0  0
    0.1525    1.6987   -1.4689 H   0  0  0  0  0  0  0  0  0  0  0  0
  1  2  1  0
  2  3  1  0
  3  4  1  0
  4  5  1  0
  5  6  1  0
  6  7  1  0
  6  8  1  0
  8  9  1  0
  6  2  1  0
  8  2  1  0
  9  4  1  0
  1 10  1  0
  1 11  1  0
  1 12  1  0
  3 13  1  0
  3 14  1  0
  4 15  1  0
  5 16  1  0
  5 17  1  0
  7 18  1  0
  8 19  1  0
M  END
