
     RDKit          3D

 21 22  0  0  0  0  0  0  0  0999 V2000
    0.4197   -1.8051   -0.0950 C   0  0  0  0  0  0  0  0  0  0  0  0
   -0.3917   -0.5566    0.0953 C   0  0  0  0  0  0  0  0  0  0  0  0
   -1.8473   -0.7827    0.2631 C   0  0  0  0  0  0  0  0  0  0  0  0
   -1.3107   -0.0631   -0.9528 C   0  0  0  0  0  0  0  0  0  0  0  0
   -1.3660    1.4105   -0.8405 C   0  0  0  0  0  0  0  0  0  0  0  0
   -0.4692    1.8239    0.0284 C   0  0  0  0  0  0  0  0  0  0  0  0
    0.2875    0.6625    0.5941 C   0  0  0  0  0  0  0  0  0  0  0  0
    1.7046    0.7880    0.0620 C   0  0  0  0  0  0  0  0  0  0  0  0
    2.4873   -0.2985    0.4414 O   0  0  0  0  0  0  0  0  0  0  0  0
   -0.2364   -2.7109   -0.2357 H   0  0  0  0  0  0  0  0  0  0  0  0
    1.1919   -1.7346   -0.8659 H   0  0  0  0  0  0  0  0  0  0  0  0
    0.9471   -1.9999    0.8691 H   0  0  0  0  0  0  0  0  0  0  0  0
   -2.2629   -1.7646    0.0530 H   0  0  0  0  0  0  0  0  0  0  0  0
   -2.3451   -0.2059    1.0609 H   0  0  0  0  0  0  0  0  0  0  0  0
   -1.3678   -0.5451   -1.9453 H   0  0  0  0  0  0  0  0  0  0  0  0
   -2.0378    2.0273   -1.3888 H   0  0  0  0  0  0  0  0  0  0  0  0
   -0.2436    2.8482    0.3488 H   0  0  0  0  0  0  0  0  0  0  0  0
    0.3345    0.7009    1.7001 H   0  0  0  0  0  0  0  0  0  0  0  0
    1.7063    0.8503   -1.0456 H   0  0  0  0  0  0  0  0  0  0  0  0
    2.2117    1.6905    0.4263 H   0  0  0  0  0  0  0  0  0  0  0  0
    2.5879   -0.3350    1.4272 H   0  0  0  0  0  0  0  0  0  0  0  0
  1  2  1  0
  2  3  1  0
  3  4  1  0
  4  5  1  0
  5  6  2  0
  6  7  1  0
  7  8  1  0
  8  9  1  0
  4  2  1  0
  7  2  1  0
  1 10  1  0
  1 11  1  0
  1 12  1  0
  3 13  1  0
  3 14  1  0
  4 15  1  0
  5 16  1  0
  6 17  1  0
  7 18  1  0
  8 19  1  0
  8 20  1  0
  9 21  1  0
M  END
