
     RDKit          3D

 21 22  0  0  0  0  0  0  0  0999 V2000
   -1.9713   -0.5554   -0.5015 C   0  0  0  0  0  0  0  0  0  0  0  0
   -0.6680   -0.1045    0.1018 C   0  0  0  0  0  0  0  0  0  0  0  0
    0.0670   -1.1467    0.8688 C   0  0  0  0  0  0  0  0  0  0  0  0
    1.4235   -1.4883    0.2447 C   0  0  0  0  0  0  0  0  0  0  0  0
    2.2564   -0.2334    0.1563 C   0  0  0  0  0  0  0  0  0  0  0  0
    1.5981    0.8577   -0.2333 C   0  0  0  0  0  0  0  0  0  0  0  0
    0.1731    0.9059   -0.5663 C   0  0  0  0  0  0  0  0  0  0  0  0
   -0.7108    1.3267    0.5863 C   0  0  0  0  0  0  0  0  0  0  0  0
   -1.7736    2.1376    0.2005 O   0  0  0  0  0  0  0  0  0  0  0  0
   -2.5145    0.2952   -0.9480 H   0  0  0  0  0  0  0  0  0  0  0  0
   -1.8900   -1.3879   -1.1929 H   0  0  0  0  0  0  0  0  0  0  0  0
   -2.6252   -0.9072    0.3506 H   0  0  0  0  0  0  0  0  0  0  0  0
   -0.4795   -2.1363    0.8677 H   0  0  0  0  0  0  0  0  0  0  0  0
    0.1643   -0.8572    1.9188 H   0  0  0  0  0  0  0  0  0  0  0  0
    1.9551   -2.1821    0.8878 H   0  0  0  0  0  0  0  0  0  0  0  0
    1.2371   -1.8924   -0.7656 H   0  0  0  0  0  0  0  0  0  0  0  0
    3.3065   -0.2181    0.3905 H   0  0  0  0  0  0  0  0  0  0  0  0
    2.1633    1.7820   -0.3093 H   0  0  0  0  0  0  0  0  0  0  0  0
   -0.0553    1.2653   -1.5870 H   0  0  0  0  0  0  0  0  0  0  0  0
   -0.2600    1.5379    1.5711 H   0  0  0  0  0  0  0  0  0  0  0  0
   -1.3962    3.0012   -0.1635 H   0  0  0  0  0  0  0  0  0  0  0  0
  1  2  1  0
  2  3  1  0
  3  4  1  0
  4  5  1  0
  5  6  2  0
  6  7  1  0
  7  8  1  0
  8  9  1  0
  7  2  1  0
  8  2  1  0
  1 10  1  0
  1 11  1  0
  1 12  1  0
  3 13  1  0
  3 14  1  0
  4 15  1  0
  4 16  1  0
  5 17  1  0
  6 18  1  0
  7 19  1  0
  8 20  1  0
  9 21  1  0
M  END
