
     RDKit          3D

 21 23  0  0  0  0  0  0  0  0999 V2000
    2.2748   -0.8609   -0.1744 C   0  0  0  0  0  0  0  0  0  0  0  0
    0.9725   -0.1005   -0.2929 C   0  0  0  0  0  0  0  0  0  0  0  0
    0.6352    0.2351   -1.5834 O   0  0  0  0  0  0  0  0  0  0  0  0
    0.8624    1.2670   -0.6490 C   0  0  0  0  0  0  0  0  0  0  0  0
   -0.4446    1.7994   -0.0752 C   0  0  0  0  0  0  0  0  0  0  0  0
   -1.1423    0.6503    0.5473 C   0  0  0  0  0  0  0  0  0  0  0  0
   -1.8475   -0.3152   -0.3322 C   0  0  0  0  0  0  0  0  0  0  0  0
   -1.0843   -1.4382    0.3860 C   0  0  0  0  0  0  0  0  0  0  0  0
   -0.0487   -0.3875    0.7469 C   0  0  0  0  0  0  0  0  0  0  0  0
    2.9317   -0.4052    0.5707 H   0  0  0  0  0  0  0  0  0  0  0  0
    1.9869   -1.9015    0.1541 H   0  0  0  0  0  0  0  0  0  0  0  0
    2.7696   -1.0086   -1.1613 H   0  0  0  0  0  0  0  0  0  0  0  0
    1.7005    1.9520   -0.8019 H   0  0  0  0  0  0  0  0  0  0  0  0
   -1.0781    2.2487   -0.8658 H   0  0  0  0  0  0  0  0  0  0  0  0
   -0.2593    2.5804    0.6992 H   0  0  0  0  0  0  0  0  0  0  0  0
   -1.7263    0.8852    1.4528 H   0  0  0  0  0  0  0  0  0  0  0  0
   -1.6261   -0.3262   -1.3946 H   0  0  0  0  0  0  0  0  0  0  0  0
   -2.9408   -0.4619   -0.1499 H   0  0  0  0  0  0  0  0  0  0  0  0
   -0.6871   -2.2144   -0.2615 H   0  0  0  0  0  0  0  0  0  0  0  0
   -1.6167   -1.7532    1.3056 H   0  0  0  0  0  0  0  0  0  0  0  0
    0.3681   -0.4449    1.7502 H   0  0  0  0  0  0  0  0  0  0  0  0
  1  2  1  0
  2  3  1  0
  3  4  1  0
  4  5  1  0
  5  6  1  0
  6  7  1  0
  7  8  1  0
  8  9  1  0
  4  2  1  0
  9  6  1  0
  9  2  1  0
  1 10  1  0
  1 11  1  0
  1 12  1  0
  4 13  1  0
  5 14  1  0
  5 15  1  0
  6 16  1  0
  7 17  1  0
  7 18  1  0
  8 19  1  0
  8 20  1  0
  9 21  1  0
M  END
