
     RDKit          3D

 14 15  0  0  0  0  0  0  0  0999 V2000
    1.6434   -0.4850    0.0049 C   0  0  0  0  0  0  0  0  0  0  0  0
    0.2329   -0.2860    0.4173 C   0  0  0  0  0  0  0  0  0  0  0  0
   -0.8910   -1.0555   -0.1879 C   0  0  0  0  0  0  0  0  0  0  0  0
   -1.5230   -0.0871   -1.0056 O   0  0  0  0  0  0  0  0  0  0  0  0
   -1.3730    1.1521   -0.4114 C   0  0  0  0  0  0  0  0  0  0  0  0
   -2.1452    2.1139   -0.6067 O   0  0  0  0  0  0  0  0  0  0  0  0
   -0.2026    1.1795    0.4640 C   0  0  0  0  0  0  0  0  0  0  0  0
   -0.0935    0.3961    1.5817 O   0  0  0  0  0  0  0  0  0  0  0  0
    2.3752   -0.3369    0.8154 H   0  0  0  0  0  0  0  0  0  0  0  0
    1.8753    0.2298   -0.8120 H   0  0  0  0  0  0  0  0  0  0  0  0
    1.7624   -1.5010   -0.4387 H   0  0  0  0  0  0  0  0  0  0  0  0
   -1.6669   -1.3406    0.5837 H   0  0  0  0  0  0  0  0  0  0  0  0
   -0.5634   -1.9426   -0.7639 H   0  0  0  0  0  0  0  0  0  0  0  0
    0.5694    1.9633    0.3592 H   0  0  0  0  0  0  0  0  0  0  0  0
  1  2  1  0
  2  3  1  0
  3  4  1  0
  4  5  1  0
  5  6  2  0
  5  7  1  0
  7  8  1  0
  7  2  1  0
  8  2  1  0
  1  9  1  0
  1 10  1  0
  1 11  1  0
  3 12  1  0
  3 13  1  0
  7 14  1  0
M  END
