
     RDKit          3D

 23 25  0  0  0  0  0  0  0  0999 V2000
   -1.1589    1.8460   -0.8060 C   0  0  0  0  0  0  0  0  0  0  0  0
   -0.4744    0.5844   -0.3860 C   0  0  0  0  0  0  0  0  0  0  0  0
    0.1356    0.4477    0.9742 C   0  0  0  0  0  0  0  0  0  0  0  0
   -0.4056   -0.8129    1.5726 C   0  0  0  0  0  0  0  0  0  0  0  0
   -0.9363   -1.6022    0.4162 C   0  0  0  0  0  0  0  0  0  0  0  0
   -0.8874   -0.7478   -0.8045 C   0  0  0  0  0  0  0  0  0  0  0  0
    0.3339   -0.1618   -1.3533 C   0  0  0  0  0  0  0  0  0  0  0  0
    1.6836   -0.2959   -0.7174 C   0  0  0  0  0  0  0  0  0  0  0  0
    1.5950    0.2385    0.6802 C   0  0  0  0  0  0  0  0  0  0  0  0
   -0.9320    2.0615   -1.8901 H   0  0  0  0  0  0  0  0  0  0  0  0
   -0.7033    2.6865   -0.2435 H   0  0  0  0  0  0  0  0  0  0  0  0
   -2.2351    1.8269   -0.6032 H   0  0  0  0  0  0  0  0  0  0  0  0
   -0.0806    1.3476    1.5472 H   0  0  0  0  0  0  0  0  0  0  0  0
   -1.1731   -0.5700    2.3366 H   0  0  0  0  0  0  0  0  0  0  0  0
    0.4147   -1.3294    2.1161 H   0  0  0  0  0  0  0  0  0  0  0  0
   -0.4391   -2.5863    0.3074 H   0  0  0  0  0  0  0  0  0  0  0  0
   -2.0082   -1.8349    0.6453 H   0  0  0  0  0  0  0  0  0  0  0  0
   -1.7209   -0.9370   -1.5300 H   0  0  0  0  0  0  0  0  0  0  0  0
    0.3373    0.1468   -2.4064 H   0  0  0  0  0  0  0  0  0  0  0  0
    2.1021   -1.3174   -0.7679 H   0  0  0  0  0  0  0  0  0  0  0  0
    2.4063    0.3593   -1.2692 H   0  0  0  0  0  0  0  0  0  0  0  0
    2.0362   -0.5500    1.3528 H   0  0  0  0  0  0  0  0  0  0  0  0
    2.1100    1.2004    0.8286 H   0  0  0  0  0  0  0  0  0  0  0  0
  1  2  1  0
  2  3  1  0
  3  4  1  0
  4  5  1  0
  5  6  1  0
  6  7  1  0
  7  8  1  0
  8  9  1  0
  6  2  1  0
  7  2  1  0
  9  3  1  0
  1 10  1  0
  1 11  1  0
  1 12  1  0
  3 13  1  0
  4 14  1  0
  4 15  1  0
  5 16  1  0
  5 17  1  0
  6 18  1  0
  7 19  1  0
  8 20  1  0
  8 21  1  0
  9 22  1  0
  9 23  1  0
M  END
