
     RDKit          3D

 21 23  0  0  0  0  0  0  0  0999 V2000
    2.6418    0.7846    0.2854 C   0  0  0  0  0  0  0  0  0  0  0  0
    1.2343    0.2822    0.3656 C   0  0  0  0  0  0  0  0  0  0  0  0
    1.0380   -1.1430   -0.0721 C   0  0  0  0  0  0  0  0  0  0  0  0
   -0.3147   -1.1425   -0.7204 C   0  0  0  0  0  0  0  0  0  0  0  0
   -1.0466    0.0031   -0.1112 C   0  0  0  0  0  0  0  0  0  0  0  0
   -2.2803    0.4460   -0.7895 C   0  0  0  0  0  0  0  0  0  0  0  0
   -2.2877   -0.0821    0.6281 C   0  0  0  0  0  0  0  0  0  0  0  0
    0.0392    0.9491    0.2911 C   0  0  0  0  0  0  0  0  0  0  0  0
    0.6273    0.5473    1.6205 O   0  0  0  0  0  0  0  0  0  0  0  0
    3.2397    0.2851    1.0809 H   0  0  0  0  0  0  0  0  0  0  0  0
    3.1217    0.5281   -0.6786 H   0  0  0  0  0  0  0  0  0  0  0  0
    2.7402    1.8759    0.4491 H   0  0  0  0  0  0  0  0  0  0  0  0
    1.8120   -1.4515   -0.7876 H   0  0  0  0  0  0  0  0  0  0  0  0
    1.0660   -1.8405    0.7864 H   0  0  0  0  0  0  0  0  0  0  0  0
   -0.8349   -2.1006   -0.6961 H   0  0  0  0  0  0  0  0  0  0  0  0
   -0.1436   -0.8816   -1.8070 H   0  0  0  0  0  0  0  0  0  0  0  0
   -2.7528   -0.2845   -1.5082 H   0  0  0  0  0  0  0  0  0  0  0  0
   -2.3784    1.5099   -0.9944 H   0  0  0  0  0  0  0  0  0  0  0  0
   -2.8319   -1.0096    0.8693 H   0  0  0  0  0  0  0  0  0  0  0  0
   -2.4805    0.7184    1.4014 H   0  0  0  0  0  0  0  0  0  0  0  0
   -0.2091    2.0062    0.3873 H   0  0  0  0  0  0  0  0  0  0  0  0
  1  2  1  0
  2  3  1  0
  3  4  1  0
  4  5  1  0
  5  6  1  0
  6  7  1  0
  5  8  1  0
  8  9  1  0
  8  2  1  0
  9  2  1  0
  7  5  1  0
  1 10  1  0
  1 11  1  0
  1 12  1  0
  3 13  1  0
  3 14  1  0
  4 15  1  0
  4 16  1  0
  6 17  1  0
  6 18  1  0
  7 19  1  0
  7 20  1  0
  8 21  1  0
M  END
