
     RDKit          3D

 19 20  0  0  0  0  0  0  0  0999 V2000
   -1.3096   -0.5223    0.6022 C   0  0  0  0  0  0  0  0  0  0  0  0
   -0.4149   -0.1363   -0.5960 C   0  0  0  0  0  0  0  0  0  0  0  0
   -1.0120    0.7587   -1.4809 C   0  0  0  0  0  0  0  0  0  0  0  0
   -0.0442    1.3955   -0.6935 C   0  0  0  0  0  0  0  0  0  0  0  0
    0.3255    1.4984    0.6951 C   0  0  0  0  0  0  0  0  0  0  0  0
    0.9614    0.3940    1.0299 C   0  0  0  0  0  0  0  0  0  0  0  0
    1.0038   -0.4852   -0.2141 C   0  0  0  0  0  0  0  0  0  0  0  0
    1.1859   -1.8985    0.1247 C   0  0  0  0  0  0  0  0  0  0  0  0
    2.0514   -2.1867    0.9494 O   0  0  0  0  0  0  0  0  0  0  0  0
   -2.3780   -0.4165    0.3471 H   0  0  0  0  0  0  0  0  0  0  0  0
   -1.0790   -1.5682    0.8265 H   0  0  0  0  0  0  0  0  0  0  0  0
   -1.1029    0.0950    1.4799 H   0  0  0  0  0  0  0  0  0  0  0  0
   -2.0820    1.0819   -1.3393 H   0  0  0  0  0  0  0  0  0  0  0  0
   -0.8512    0.6022   -2.5838 H   0  0  0  0  0  0  0  0  0  0  0  0
    0.9074    1.6333   -1.2882 H   0  0  0  0  0  0  0  0  0  0  0  0
    0.1273    2.3201    1.3555 H   0  0  0  0  0  0  0  0  0  0  0  0
    1.3673    0.1557    1.9775 H   0  0  0  0  0  0  0  0  0  0  0  0
    1.7678   -0.0410   -0.8558 H   0  0  0  0  0  0  0  0  0  0  0  0
    0.5760   -2.6800   -0.3361 H   0  0  0  0  0  0  0  0  0  0  0  0
  1  2  1  0
  2  3  1  0
  3  4  1  0
  4  5  1  0
  5  6  2  0
  6  7  1  0
  7  8  1  0
  8  9  2  0
  4  2  1  0
  7  2  1  0
  1 10  1  0
  1 11  1  0
  1 12  1  0
  3 13  1  0
  3 14  1  0
  4 15  1  0
  5 16  1  0
  6 17  1  0
  7 18  1  0
  8 19  1  0
M  END
