
     RDKit          3D

 19 21  0  0  0  0  0  0  0  0999 V2000
   -1.8019   -1.4393   -0.2341 C   0  0  0  0  0  0  0  0  0  0  0  0
   -0.6214   -0.6288    0.1701 C   0  0  0  0  0  0  0  0  0  0  0  0
    0.4937   -1.4404    0.5611 O   0  0  0  0  0  0  0  0  0  0  0  0
    1.6729   -1.0546   -0.1245 C   0  0  0  0  0  0  0  0  0  0  0  0
    1.9668    0.4088    0.2452 C   0  0  0  0  0  0  0  0  0  0  0  0
    0.9419    1.2258    0.2101 C   0  0  0  0  0  0  0  0  0  0  0  0
   -0.2401    2.0597    0.1457 C   0  0  0  0  0  0  0  0  0  0  0  0
   -0.8725    0.7175    0.7146 C   0  0  0  0  0  0  0  0  0  0  0  0
   -0.1179    0.3965   -0.5972 C   0  0  0  0  0  0  0  0  0  0  0  0
   -2.2525   -1.1408   -1.1967 H   0  0  0  0  0  0  0  0  0  0  0  0
   -1.5870   -2.5274   -0.3173 H   0  0  0  0  0  0  0  0  0  0  0  0
   -2.5795   -1.3280    0.5649 H   0  0  0  0  0  0  0  0  0  0  0  0
    2.4807   -1.6832    0.2139 H   0  0  0  0  0  0  0  0  0  0  0  0
    1.4223   -1.0892   -1.1910 H   0  0  0  0  0  0  0  0  0  0  0  0
    2.9642    0.7281    0.5173 H   0  0  0  0  0  0  0  0  0  0  0  0
   -0.3410    2.8784    0.8732 H   0  0  0  0  0  0  0  0  0  0  0  0
   -0.6734    2.3640   -0.8014 H   0  0  0  0  0  0  0  0  0  0  0  0
   -0.3418    0.7026    1.7167 H   0  0  0  0  0  0  0  0  0  0  0  0
   -0.5135    0.8503   -1.4706 H   0  0  0  0  0  0  0  0  0  0  0  0
  1  2  1  0
  2  3  1  0
  3  4  1  0
  4  5  1  0
  5  6  2  0
  6  7  1  0
  7  8  1  0
  8  9  1  0
  8  2  1  0
  9  2  1  0
  9  6  1  0
  1 10  1  0
  1 11  1  0
  1 12  1  0
  4 13  1  0
  4 14  1  0
  5 15  1  0
  7 16  1  0
  7 17  1  0
  8 18  1  0
  9 19  1  0
M  END
