
     RDKit          3D

 18 20  0  0  0  0  0  0  0  0999 V2000
    1.6874   -0.9995    0.3021 C   0  0  0  0  0  0  0  0  0  0  0  0
    0.4869   -0.2180    0.1104 C   0  0  0  0  0  0  0  0  0  0  0  0
   -0.5891   -0.1957    1.1556 C   0  0  0  0  0  0  0  0  0  0  0  0
   -1.4784    0.2070   -0.0296 C   0  0  0  0  0  0  0  0  0  0  0  0
   -0.6039   -0.7804   -0.8156 C   0  0  0  0  0  0  0  0  0  0  0  0
   -0.9321    1.5048   -0.5142 C   0  0  0  0  0  0  0  0  0  0  0  0
   -0.0459    1.5295   -1.5951 O   0  0  0  0  0  0  0  0  0  0  0  0
    0.5748    1.1995   -0.3992 C   0  0  0  0  0  0  0  0  0  0  0  0
    1.8939   -1.3711    1.3195 H   0  0  0  0  0  0  0  0  0  0  0  0
    1.6703   -1.9060   -0.3631 H   0  0  0  0  0  0  0  0  0  0  0  0
    2.5886   -0.4208   -0.0577 H   0  0  0  0  0  0  0  0  0  0  0  0
   -0.8991   -1.2238    1.4627 H   0  0  0  0  0  0  0  0  0  0  0  0
   -0.5134    0.5406    1.9489 H   0  0  0  0  0  0  0  0  0  0  0  0
   -2.5126    0.0152    0.0337 H   0  0  0  0  0  0  0  0  0  0  0  0
   -0.4014   -0.4333   -1.8416 H   0  0  0  0  0  0  0  0  0  0  0  0
   -0.8393   -1.8282   -0.6610 H   0  0  0  0  0  0  0  0  0  0  0  0
   -1.2996    2.4701   -0.1798 H   0  0  0  0  0  0  0  0  0  0  0  0
    1.2128    1.9100    0.1240 H   0  0  0  0  0  0  0  0  0  0  0  0
  1  2  1  0
  2  3  1  0
  3  4  1  0
  4  5  1  0
  4  6  1  0
  6  7  1  0
  7  8  1  0
  5  2  1  0
  8  6  1  0
  8  2  1  0
  1  9  1  0
  1 10  1  0
  1 11  1  0
  3 12  1  0
  3 13  1  0
  4 14  1  0
  5 15  1  0
  5 16  1  0
  6 17  1  0
  8 18  1  0
M  END
