
     RDKit          3D

 21 22  0  0  0  0  0  0  0  0999 V2000
    0.6276    0.8748   -1.4136 C   0  0  0  0  0  0  0  0  0  0  0  0
    0.2726    0.3919   -0.0367 C   0  0  0  0  0  0  0  0  0  0  0  0
    1.3198    0.5582    0.9984 C   0  0  0  0  0  0  0  0  0  0  0  0
    1.7833   -0.8504    0.5286 C   0  0  0  0  0  0  0  0  0  0  0  0
    0.3752   -1.1282    0.1108 C   0  0  0  0  0  0  0  0  0  0  0  0
   -0.7976   -1.6380   -0.2117 C   0  0  0  0  0  0  0  0  0  0  0  0
   -1.7652   -0.5406   -0.5897 C   0  0  0  0  0  0  0  0  0  0  0  0
   -1.1694    0.5699    0.3135 C   0  0  0  0  0  0  0  0  0  0  0  0
   -1.4010    0.2677    1.6505 O   0  0  0  0  0  0  0  0  0  0  0  0
    1.3528    1.7278   -1.2707 H   0  0  0  0  0  0  0  0  0  0  0  0
    1.1207    0.1148   -2.0360 H   0  0  0  0  0  0  0  0  0  0  0  0
   -0.2484    1.2471   -1.9442 H   0  0  0  0  0  0  0  0  0  0  0  0
    0.9094    0.5228    2.0286 H   0  0  0  0  0  0  0  0  0  0  0  0
    2.0791    1.3334    0.8217 H   0  0  0  0  0  0  0  0  0  0  0  0
    2.4941   -0.7988   -0.3115 H   0  0  0  0  0  0  0  0  0  0  0  0
    2.1213   -1.3893    1.4169 H   0  0  0  0  0  0  0  0  0  0  0  0
   -1.0824   -2.6815   -0.2223 H   0  0  0  0  0  0  0  0  0  0  0  0
   -2.7903   -0.7738   -0.3105 H   0  0  0  0  0  0  0  0  0  0  0  0
   -1.6056   -0.2440   -1.6338 H   0  0  0  0  0  0  0  0  0  0  0  0
   -1.5884    1.5463    0.0102 H   0  0  0  0  0  0  0  0  0  0  0  0
   -2.0076    0.8898    2.1017 H   0  0  0  0  0  0  0  0  0  0  0  0
  1  2  1  0
  2  3  1  0
  3  4  1  0
  4  5  1  0
  5  6  2  0
  6  7  1  0
  7  8  1  0
  8  9  1  0
  5  2  1  0
  8  2  1  0
  1 10  1  0
  1 11  1  0
  1 12  1  0
  3 13  1  0
  3 14  1  0
  4 15  1  0
  4 16  1  0
  6 17  1  0
  7 18  1  0
  7 19  1  0
  8 20  1  0
  9 21  1  0
M  END
