
     RDKit          3D

 19 20  0  0  0  0  0  0  0  0999 V2000
   -1.6817   -0.8289    0.3437 C   0  0  0  0  0  0  0  0  0  0  0  0
   -0.5075    0.0126   -0.0717 C   0  0  0  0  0  0  0  0  0  0  0  0
    0.4418   -0.6892   -0.9614 C   0  0  0  0  0  0  0  0  0  0  0  0
    1.8126   -0.5058   -0.3733 C   0  0  0  0  0  0  0  0  0  0  0  0
    1.6512    0.2628    0.8794 C   0  0  0  0  0  0  0  0  0  0  0  0
    2.5364    0.5073    1.6607 O   0  0  0  0  0  0  0  0  0  0  0  0
    0.2460    0.6871    1.0329 C   0  0  0  0  0  0  0  0  0  0  0  0
    0.0568    1.9325    0.4374 O   0  0  0  0  0  0  0  0  0  0  0  0
   -0.8958    1.4086   -0.4042 C   0  0  0  0  0  0  0  0  0  0  0  0
   -1.4644   -1.9107    0.3598 H   0  0  0  0  0  0  0  0  0  0  0  0
   -2.1331   -0.4607    1.2967 H   0  0  0  0  0  0  0  0  0  0  0  0
   -2.4771   -0.6837   -0.4304 H   0  0  0  0  0  0  0  0  0  0  0  0
    0.3778   -0.4223   -2.0299 H   0  0  0  0  0  0  0  0  0  0  0  0
    0.2232   -1.7940   -0.9152 H   0  0  0  0  0  0  0  0  0  0  0  0
    2.3419   -1.4846   -0.2086 H   0  0  0  0  0  0  0  0  0  0  0  0
    2.4248    0.0269   -1.1295 H   0  0  0  0  0  0  0  0  0  0  0  0
   -0.1832    0.5927    2.0486 H   0  0  0  0  0  0  0  0  0  0  0  0
   -0.8243    1.7005   -1.4715 H   0  0  0  0  0  0  0  0  0  0  0  0
   -1.9456    1.6489   -0.0635 H   0  0  0  0  0  0  0  0  0  0  0  0
  1  2  1  0
  2  3  1  0
  3  4  1  0
  4  5  1  0
  5  6  2  0
  5  7  1  0
  7  8  1  0
  8  9  1  0
  7  2  1  0
  9  2  1  0
  1 10  1  0
  1 11  1  0
  1 12  1  0
  3 13  1  0
  3 14  1  0
  4 15  1  0
  4 16  1  0
  7 17  1  0
  9 18  1  0
  9 19  1  0
M  END
