
     RDKit          3D

 19 21  0  0  0  0  0  0  0  0999 V2000
    1.3874    0.9412   -0.6123 C   0  0  0  0  0  0  0  0  0  0  0  0
    0.1612    0.5319   -0.0367 C   0  0  0  0  0  0  0  0  0  0  0  0
   -0.6711   -0.6555   -0.8545 C   0  0  0  0  0  0  0  0  0  0  0  0
   -0.0364   -1.6588   -0.2839 C   0  0  0  0  0  0  0  0  0  0  0  0
    0.8968   -1.1053    0.7201 C   0  0  0  0  0  0  0  0  0  0  0  0
   -0.1774   -0.0463    1.2627 C   0  0  0  0  0  0  0  0  0  0  0  0
   -1.1851   -0.9117    1.6221 O   0  0  0  0  0  0  0  0  0  0  0  0
   -1.0203    0.8520    0.3952 C   0  0  0  0  0  0  0  0  0  0  0  0
   -1.2360    0.6645   -1.2112 C   0  0  0  0  0  0  0  0  0  0  0  0
    2.1739    1.2179    0.1330 H   0  0  0  0  0  0  0  0  0  0  0  0
    1.8637    0.2577   -1.3741 H   0  0  0  0  0  0  0  0  0  0  0  0
    1.2648    1.9115   -1.1891 H   0  0  0  0  0  0  0  0  0  0  0  0
   -0.2034   -2.7226   -0.5413 H   0  0  0  0  0  0  0  0  0  0  0  0
    1.0672   -1.8271    1.5288 H   0  0  0  0  0  0  0  0  0  0  0  0
    1.8100   -0.6893    0.4429 H   0  0  0  0  0  0  0  0  0  0  0  0
   -1.7868   -0.4660    2.2849 H   0  0  0  0  0  0  0  0  0  0  0  0
   -1.4860    1.6754    0.8460 H   0  0  0  0  0  0  0  0  0  0  0  0
   -0.5260    1.3055   -1.7057 H   0  0  0  0  0  0  0  0  0  0  0  0
   -2.2965    0.7250   -1.4267 H   0  0  0  0  0  0  0  0  0  0  0  0
  1  2  1  0
  2  3  1  0
  3  4  2  0
  4  5  1  0
  5  6  1  0
  6  7  1  0
  6  8  1  0
  8  9  1  0
  6  2  1  0
  8  2  1  0
  9  3  1  0
  1 10  1  0
  1 11  1  0
  1 12  1  0
  4 13  1  0
  5 14  1  0
  5 15  1  0
  7 16  1  0
  8 17  1  0
  9 18  1  0
  9 19  1  0
M  END
