
     RDKit          3D

 21 22  0  0  0  0  0  0  0  0999 V2000
    2.5425    0.0285    0.0306 C   0  0  0  0  0  0  0  0  0  0  0  0
    1.1369   -0.0719   -0.5294 C   0  0  0  0  0  0  0  0  0  0  0  0
    0.3462   -1.2215   -0.0177 C   0  0  0  0  0  0  0  0  0  0  0  0
   -1.0747   -1.1949   -0.5930 C   0  0  0  0  0  0  0  0  0  0  0  0
   -1.6993    0.0870   -0.1387 C   0  0  0  0  0  0  0  0  0  0  0  0
   -1.7806    0.0221    1.2713 O   0  0  0  0  0  0  0  0  0  0  0  0
   -0.9657    1.3098   -0.5471 C   0  0  0  0  0  0  0  0  0  0  0  0
    0.4662    1.1313   -0.8795 C   0  0  0  0  0  0  0  0  0  0  0  0
    0.9030    0.2643   -1.8465 O   0  0  0  0  0  0  0  0  0  0  0  0
    3.0340   -0.9513    0.1305 H   0  0  0  0  0  0  0  0  0  0  0  0
    2.4483    0.4923    1.0534 H   0  0  0  0  0  0  0  0  0  0  0  0
    3.1024    0.7208   -0.6183 H   0  0  0  0  0  0  0  0  0  0  0  0
    0.3038   -1.3242    1.0640 H   0  0  0  0  0  0  0  0  0  0  0  0
    0.8008   -2.1587   -0.4283 H   0  0  0  0  0  0  0  0  0  0  0  0
   -1.6312   -2.0282   -0.0874 H   0  0  0  0  0  0  0  0  0  0  0  0
   -1.0678   -1.3376   -1.6742 H   0  0  0  0  0  0  0  0  0  0  0  0
   -2.7268    0.1303   -0.5398 H   0  0  0  0  0  0  0  0  0  0  0  0
   -2.7161    0.1111    1.5671 H   0  0  0  0  0  0  0  0  0  0  0  0
   -1.4574    1.8540   -1.4004 H   0  0  0  0  0  0  0  0  0  0  0  0
   -1.0247    2.0447    0.3071 H   0  0  0  0  0  0  0  0  0  0  0  0
    1.0602    2.0921   -0.8497 H   0  0  0  0  0  0  0  0  0  0  0  0
  1  2  1  0
  2  3  1  0
  3  4  1  0
  4  5  1  0
  5  6  1  0
  5  7  1  0
  7  8  1  0
  8  9  1  0
  8  2  1  0
  9  2  1  0
  1 10  1  0
  1 11  1  0
  1 12  1  0
  3 13  1  0
  3 14  1  0
  4 15  1  0
  4 16  1  0
  5 17  1  0
  6 18  1  0
  7 19  1  0
  7 20  1  0
  8 21  1  0
M  END
