
     RDKit          3D

 16 18  0  0  0  0  0  0  0  0999 V2000
   -2.0209   -0.2751    0.0590 C   0  0  0  0  0  0  0  0  0  0  0  0
   -0.5566   -0.1983    0.2438 C   0  0  0  0  0  0  0  0  0  0  0  0
   -0.0232    1.0620    0.8563 C   0  0  0  0  0  0  0  0  0  0  0  0
    1.2116    1.2967    0.4224 C   0  0  0  0  0  0  0  0  0  0  0  0
    1.5953    0.1935   -0.5242 C   0  0  0  0  0  0  0  0  0  0  0  0
    1.1585   -1.1739   -0.1304 C   0  0  0  0  0  0  0  0  0  0  0  0
    0.0961   -1.2918    0.7715 O   0  0  0  0  0  0  0  0  0  0  0  0
    0.3153   -0.3247   -0.9672 C   0  0  0  0  0  0  0  0  0  0  0  0
   -2.2806    0.2633   -0.8895 H   0  0  0  0  0  0  0  0  0  0  0  0
   -2.5386    0.2594    0.8776 H   0  0  0  0  0  0  0  0  0  0  0  0
   -2.3337   -1.3276   -0.0310 H   0  0  0  0  0  0  0  0  0  0  0  0
   -0.5878    1.6763    1.5528 H   0  0  0  0  0  0  0  0  0  0  0  0
    1.8817    2.1126    0.6621 H   0  0  0  0  0  0  0  0  0  0  0  0
    2.4369    0.3092   -1.1901 H   0  0  0  0  0  0  0  0  0  0  0  0
    1.6807   -2.0675   -0.4914 H   0  0  0  0  0  0  0  0  0  0  0  0
   -0.0348   -0.5143   -1.9532 H   0  0  0  0  0  0  0  0  0  0  0  0
  1  2  1  0
  2  3  1  0
  3  4  2  0
  4  5  1  0
  5  6  1  0
  6  7  1  0
  6  8  1  0
  7  2  1  0
  8  2  1  0
  8  5  1  0
  1  9  1  0
  1 10  1  0
  1 11  1  0
  3 12  1  0
  4 13  1  0
  5 14  1  0
  6 15  1  0
  8 16  1  0
M  END
