
     RDKit          3D

 21 22  0  0  0  0  0  0  0  0999 V2000
   -1.9770    0.8141    0.2355 C   0  0  0  0  0  0  0  0  0  0  0  0
   -0.7272    0.2667   -0.4047 C   0  0  0  0  0  0  0  0  0  0  0  0
    0.2512    1.3558   -0.6302 C   0  0  0  0  0  0  0  0  0  0  0  0
    1.4478    1.4198   -0.0897 C   0  0  0  0  0  0  0  0  0  0  0  0
    1.8742    0.3066    0.8345 C   0  0  0  0  0  0  0  0  0  0  0  0
    1.3189   -0.9680    0.1831 C   0  0  0  0  0  0  0  0  0  0  0  0
   -0.1767   -0.9006    0.3361 C   0  0  0  0  0  0  0  0  0  0  0  0
   -0.9508   -1.6205   -0.7658 C   0  0  0  0  0  0  0  0  0  0  0  0
   -0.9373   -0.4777   -1.5609 O   0  0  0  0  0  0  0  0  0  0  0  0
   -1.6475    1.4271    1.1066 H   0  0  0  0  0  0  0  0  0  0  0  0
   -2.5532    1.4830   -0.4157 H   0  0  0  0  0  0  0  0  0  0  0  0
   -2.5669   -0.0475    0.6253 H   0  0  0  0  0  0  0  0  0  0  0  0
   -0.0618    2.1546   -1.2968 H   0  0  0  0  0  0  0  0  0  0  0  0
    2.1425    2.2364   -0.2777 H   0  0  0  0  0  0  0  0  0  0  0  0
    1.3502    0.5103    1.7935 H   0  0  0  0  0  0  0  0  0  0  0  0
    2.9625    0.2645    0.9556 H   0  0  0  0  0  0  0  0  0  0  0  0
    1.7502   -1.8739    0.6199 H   0  0  0  0  0  0  0  0  0  0  0  0
    1.5250   -0.8799   -0.9209 H   0  0  0  0  0  0  0  0  0  0  0  0
   -0.5743   -1.1118    1.3312 H   0  0  0  0  0  0  0  0  0  0  0  0
   -0.4633   -2.5043   -1.1816 H   0  0  0  0  0  0  0  0  0  0  0  0
   -1.9864   -1.8545   -0.4775 H   0  0  0  0  0  0  0  0  0  0  0  0
  1  2  1  0
  2  3  1  0
  3  4  2  0
  4  5  1  0
  5  6  1  0
  6  7  1  0
  7  8  1  0
  8  9  1  0
  7  2  1  0
  9  2  1  0
  1 10  1  0
  1 11  1  0
  1 12  1  0
  3 13  1  0
  4 14  1  0
  5 15  1  0
  5 16  1  0
  6 17  1  0
  6 18  1  0
  7 19  1  0
  8 20  1  0
  8 21  1  0
M  END
