
     RDKit          3D

 21 22  0  0  0  0  0  0  0  0999 V2000
   -2.2884    0.2301    0.2509 C   0  0  0  0  0  0  0  0  0  0  0  0
   -0.8210    0.1810    0.0206 C   0  0  0  0  0  0  0  0  0  0  0  0
   -0.4547   -0.3693   -1.3483 C   0  0  0  0  0  0  0  0  0  0  0  0
    0.7945   -0.9266   -1.2497 O   0  0  0  0  0  0  0  0  0  0  0  0
    1.1472   -1.0367    0.0705 C   0  0  0  0  0  0  0  0  0  0  0  0
    1.9361    0.2345    0.4246 C   0  0  0  0  0  0  0  0  0  0  0  0
    1.1162    1.3851   -0.1725 C   0  0  0  0  0  0  0  0  0  0  0  0
   -0.1772    1.3728    0.2765 O   0  0  0  0  0  0  0  0  0  0  0  0
   -0.1480   -0.8966    0.8859 C   0  0  0  0  0  0  0  0  0  0  0  0
   -2.4967    0.8277    1.1442 H   0  0  0  0  0  0  0  0  0  0  0  0
   -2.6229   -0.8229    0.4870 H   0  0  0  0  0  0  0  0  0  0  0  0
   -2.8643    0.5720   -0.6291 H   0  0  0  0  0  0  0  0  0  0  0  0
   -1.1963   -1.1905   -1.5446 H   0  0  0  0  0  0  0  0  0  0  0  0
   -0.5865    0.3586   -2.1514 H   0  0  0  0  0  0  0  0  0  0  0  0
    1.6959   -1.9439    0.3236 H   0  0  0  0  0  0  0  0  0  0  0  0
    2.9383    0.2288    0.0045 H   0  0  0  0  0  0  0  0  0  0  0  0
    1.8929    0.3886    1.5246 H   0  0  0  0  0  0  0  0  0  0  0  0
    1.2383    1.3959   -1.2619 H   0  0  0  0  0  0  0  0  0  0  0  0
    1.5996    2.3123    0.2117 H   0  0  0  0  0  0  0  0  0  0  0  0
    0.0400   -0.4888    1.8822 H   0  0  0  0  0  0  0  0  0  0  0  0
   -0.7431   -1.8119    0.8508 H   0  0  0  0  0  0  0  0  0  0  0  0
  1  2  1  0
  2  3  1  0
  3  4  1  0
  4  5  1  0
  5  6  1  0
  6  7  1  0
  7  8  1  0
  5  9  1  0
  8  2  1  0
  9  2  1  0
  1 10  1  0
  1 11  1  0
  1 12  1  0
  3 13  1  0
  3 14  1  0
  5 15  1  0
  6 16  1  0
  6 17  1  0
  7 18  1  0
  7 19  1  0
  9 20  1  0
  9 21  1  0
M  END
