
     RDKit          3D

 19 20  0  0  0  0  0  0  0  0999 V2000
   -2.1800   -0.7398    0.5850 C   0  0  0  0  0  0  0  0  0  0  0  0
   -0.8212   -0.3048    0.2255 C   0  0  0  0  0  0  0  0  0  0  0  0
    0.0474   -1.3371   -0.4508 C   0  0  0  0  0  0  0  0  0  0  0  0
    1.3553   -1.2116   -0.6674 C   0  0  0  0  0  0  0  0  0  0  0  0
    2.1817   -0.0074   -0.3811 C   0  0  0  0  0  0  0  0  0  0  0  0
    1.7584    1.1150    0.1999 C   0  0  0  0  0  0  0  0  0  0  0  0
    0.3341    1.3959    0.6267 C   0  0  0  0  0  0  0  0  0  0  0  0
   -0.6421    1.0126   -0.4630 C   0  0  0  0  0  0  0  0  0  0  0  0
   -0.1234    0.2526    1.3240 O   0  0  0  0  0  0  0  0  0  0  0  0
   -2.8441    0.1287    0.6951 H   0  0  0  0  0  0  0  0  0  0  0  0
   -2.1318   -1.3708    1.5146 H   0  0  0  0  0  0  0  0  0  0  0  0
   -2.5733   -1.4340   -0.2023 H   0  0  0  0  0  0  0  0  0  0  0  0
   -0.4784   -2.2155   -0.7590 H   0  0  0  0  0  0  0  0  0  0  0  0
    1.8530   -2.0662   -1.0893 H   0  0  0  0  0  0  0  0  0  0  0  0
    3.2201   -0.0393   -0.6681 H   0  0  0  0  0  0  0  0  0  0  0  0
    2.4664    1.9043    0.3941 H   0  0  0  0  0  0  0  0  0  0  0  0
    0.1918    2.3455    1.1218 H   0  0  0  0  0  0  0  0  0  0  0  0
   -0.0954    0.9258   -1.4320 H   0  0  0  0  0  0  0  0  0  0  0  0
   -1.5184    1.6462   -0.5736 H   0  0  0  0  0  0  0  0  0  0  0  0
  1  2  1  0
  2  3  1  0
  3  4  2  0
  4  5  1  0
  5  6  2  0
  6  7  1  0
  7  8  1  0
  7  9  1  0
  8  2  1  0
  9  2  1  0
  1 10  1  0
  1 11  1  0
  1 12  1  0
  3 13  1  0
  4 14  1  0
  5 15  1  0
  6 16  1  0
  7 17  1  0
  8 18  1  0
  8 19  1  0
M  END
