
     RDKit          3D

 17 18  0  0  0  0  0  0  0  0999 V2000
    2.1025    0.0175   -0.1718 C   0  0  0  0  0  0  0  0  0  0  0  0
    0.6142   -0.2415   -0.3362 C   0  0  0  0  0  0  0  0  0  0  0  0
    0.1061   -1.5982   -0.0075 C   0  0  0  0  0  0  0  0  0  0  0  0
   -1.1932   -1.5322    0.2362 C   0  0  0  0  0  0  0  0  0  0  0  0
   -1.6854   -0.1434    0.0982 C   0  0  0  0  0  0  0  0  0  0  0  0
   -0.4250    0.6361   -0.1919 C   0  0  0  0  0  0  0  0  0  0  0  0
   -0.4443    2.0060    0.3506 C   0  0  0  0  0  0  0  0  0  0  0  0
   -0.0202    2.9076   -0.3329 O   0  0  0  0  0  0  0  0  0  0  0  0
    0.0788    0.4161   -1.4721 O   0  0  0  0  0  0  0  0  0  0  0  0
    2.5633    0.3450   -1.1025 H   0  0  0  0  0  0  0  0  0  0  0  0
    2.3066    0.7174    0.6710 H   0  0  0  0  0  0  0  0  0  0  0  0
    2.5797   -0.9587    0.1342 H   0  0  0  0  0  0  0  0  0  0  0  0
    0.7084   -2.5052    0.0275 H   0  0  0  0  0  0  0  0  0  0  0  0
   -1.8665   -2.3677    0.5094 H   0  0  0  0  0  0  0  0  0  0  0  0
   -2.3919   -0.0877   -0.7603 H   0  0  0  0  0  0  0  0  0  0  0  0
   -2.1996    0.2207    1.0109 H   0  0  0  0  0  0  0  0  0  0  0  0
   -0.8336    2.1682    1.3371 H   0  0  0  0  0  0  0  0  0  0  0  0
  1  2  1  0
  2  3  1  0
  3  4  2  0
  4  5  1  0
  5  6  1  0
  6  7  1  0
  7  8  2  0
  6  9  1  0
  6  2  1  0
  9  2  1  0
  1 10  1  0
  1 11  1  0
  1 12  1  0
  3 13  1  0
  4 14  1  0
  5 15  1  0
  5 16  1  0
  7 17  1  0
M  END
