
     RDKit          3D

 19 21  0  0  0  0  0  0  0  0999 V2000
    1.9090   -0.3882   -0.2899 C   0  0  0  0  0  0  0  0  0  0  0  0
    0.7023    0.2649    0.2745 C   0  0  0  0  0  0  0  0  0  0  0  0
    0.4391    1.6720   -0.1097 C   0  0  0  0  0  0  0  0  0  0  0  0
   -0.2355    1.9603   -1.3133 O   0  0  0  0  0  0  0  0  0  0  0  0
   -0.9877    1.3502   -0.3418 C   0  0  0  0  0  0  0  0  0  0  0  0
   -0.6757   -0.0996   -0.0793 C   0  0  0  0  0  0  0  0  0  0  0  0
   -1.0416   -1.1620   -1.0399 C   0  0  0  0  0  0  0  0  0  0  0  0
   -0.0810   -0.4800    1.2676 C   0  0  0  0  0  0  0  0  0  0  0  0
   -0.7204    0.1263    2.3339 O   0  0  0  0  0  0  0  0  0  0  0  0
    2.6731    0.4166   -0.4779 H   0  0  0  0  0  0  0  0  0  0  0  0
    2.3706   -1.1195    0.4379 H   0  0  0  0  0  0  0  0  0  0  0  0
    1.6819   -0.8540   -1.2503 H   0  0  0  0  0  0  0  0  0  0  0  0
    0.7868    2.5290    0.4569 H   0  0  0  0  0  0  0  0  0  0  0  0
   -1.7113    1.8890    0.2738 H   0  0  0  0  0  0  0  0  0  0  0  0
   -1.2212   -0.7108   -2.0384 H   0  0  0  0  0  0  0  0  0  0  0  0
   -0.3114   -2.0040   -1.0869 H   0  0  0  0  0  0  0  0  0  0  0  0
   -2.0454   -1.5748   -0.7284 H   0  0  0  0  0  0  0  0  0  0  0  0
    0.1212   -1.5520    1.3607 H   0  0  0  0  0  0  0  0  0  0  0  0
   -1.6528   -0.2634    2.3504 H   0  0  0  0  0  0  0  0  0  0  0  0
  1  2  1  0
  2  3  1  0
  3  4  1  0
  4  5  1  0
  5  6  1  0
  6  7  1  0
  6  8  1  0
  8  9  1  0
  6  2  1  0
  8  2  1  0
  5  3  1  0
  1 10  1  0
  1 11  1  0
  1 12  1  0
  3 13  1  0
  5 14  1  0
  7 15  1  0
  7 16  1  0
  7 17  1  0
  8 18  1  0
  9 19  1  0
M  END
