
     RDKit          3D

 23 24  0  0  0  0  0  0  0  0999 V2000
    2.4016   -0.5596    0.9161 C   0  0  0  0  0  0  0  0  0  0  0  0
    1.1192   -0.2502    0.3184 C   0  0  0  0  0  0  0  0  0  0  0  0
    1.0537    0.9307   -0.6637 C   0  0  0  0  0  0  0  0  0  0  0  0
   -0.1964    0.1614   -1.1199 C   0  0  0  0  0  0  0  0  0  0  0  0
    0.6792   -1.0769   -0.9006 C   0  0  0  0  0  0  0  0  0  0  0  0
   -1.0079    0.1798    0.1215 C   0  0  0  0  0  0  0  0  0  0  0  0
   -1.6542    1.5193    0.3733 C   0  0  0  0  0  0  0  0  0  0  0  0
   -2.0060   -0.9305    0.2393 C   0  0  0  0  0  0  0  0  0  0  0  0
   -0.0051   -0.0808    1.0936 O   0  0  0  0  0  0  0  0  0  0  0  0
    2.3184   -0.4602    2.0388 H   0  0  0  0  0  0  0  0  0  0  0  0
    2.7731   -1.6154    0.7744 H   0  0  0  0  0  0  0  0  0  0  0  0
    3.2096    0.1708    0.6433 H   0  0  0  0  0  0  0  0  0  0  0  0
    0.8396    1.8952   -0.1997 H   0  0  0  0  0  0  0  0  0  0  0  0
    1.7958    0.9032   -1.4620 H   0  0  0  0  0  0  0  0  0  0  0  0
   -0.5839    0.3502   -2.0734 H   0  0  0  0  0  0  0  0  0  0  0  0
    0.1459   -1.9918   -0.6701 H   0  0  0  0  0  0  0  0  0  0  0  0
    1.4573   -1.0919   -1.6714 H   0  0  0  0  0  0  0  0  0  0  0  0
   -1.6916    1.7797    1.4594 H   0  0  0  0  0  0  0  0  0  0  0  0
   -2.7017    1.4519   -0.0119 H   0  0  0  0  0  0  0  0  0  0  0  0
   -1.1603    2.3481   -0.1720 H   0  0  0  0  0  0  0  0  0  0  0  0
   -1.5206   -1.8908    0.5593 H   0  0  0  0  0  0  0  0  0  0  0  0
   -2.6807   -0.6628    1.1042 H   0  0  0  0  0  0  0  0  0  0  0  0
   -2.5848   -1.0793   -0.6970 H   0  0  0  0  0  0  0  0  0  0  0  0
  1  2  1  0
  2  3  1  0
  3  4  1  0
  4  5  1  0
  4  6  1  0
  6  7  1  0
  6  8  1  0
  6  9  1  0
  5  2  1  0
  9  2  1  0
  1 10  1  0
  1 11  1  0
  1 12  1  0
  3 13  1  0
  3 14  1  0
  4 15  1  0
  5 16  1  0
  5 17  1  0
  7 18  1  0
  7 19  1  0
  7 20  1  0
  8 21  1  0
  8 22  1  0
  8 23  1  0
M  END
