
     RDKit          3D

 23 25  0  0  0  0  0  0  0  0999 V2000
    1.6132   -1.5788   -0.1311 C   0  0  0  0  0  0  0  0  0  0  0  0
    0.7036   -0.4307   -0.0801 C   0  0  0  0  0  0  0  0  0  0  0  0
    1.3507    0.9447    0.1514 C   0  0  0  0  0  0  0  0  0  0  0  0
    0.1044    1.7821    0.1715 C   0  0  0  0  0  0  0  0  0  0  0  0
   -0.5153    1.3692   -1.1646 C   0  0  0  0  0  0  0  0  0  0  0  0
   -0.3989   -0.1516   -0.9873 C   0  0  0  0  0  0  0  0  0  0  0  0
   -0.6160   -0.3782    0.5098 C   0  0  0  0  0  0  0  0  0  0  0  0
   -1.4831   -1.4976    0.8691 C   0  0  0  0  0  0  0  0  0  0  0  0
   -0.7754    0.9972    1.1199 C   0  0  0  0  0  0  0  0  0  0  0  0
    1.3000   -2.4221   -0.7575 H   0  0  0  0  0  0  0  0  0  0  0  0
    2.6267   -1.2126   -0.4638 H   0  0  0  0  0  0  0  0  0  0  0  0
    1.7908   -1.9458    0.9177 H   0  0  0  0  0  0  0  0  0  0  0  0
    1.9420    0.9770    1.0617 H   0  0  0  0  0  0  0  0  0  0  0  0
    1.8958    1.1740   -0.7791 H   0  0  0  0  0  0  0  0  0  0  0  0
    0.1978    2.8181    0.3392 H   0  0  0  0  0  0  0  0  0  0  0  0
   -1.5533    1.6904   -1.2606 H   0  0  0  0  0  0  0  0  0  0  0  0
    0.1440    1.6277   -1.9938 H   0  0  0  0  0  0  0  0  0  0  0  0
   -0.8443   -0.8176   -1.7036 H   0  0  0  0  0  0  0  0  0  0  0  0
   -1.1338   -2.4229    0.4162 H   0  0  0  0  0  0  0  0  0  0  0  0
   -1.5712   -1.5931    1.9661 H   0  0  0  0  0  0  0  0  0  0  0  0
   -2.5304   -1.2777    0.5103 H   0  0  0  0  0  0  0  0  0  0  0  0
   -0.4198    1.0535    2.1620 H   0  0  0  0  0  0  0  0  0  0  0  0
   -1.8275    1.2948    1.0480 H   0  0  0  0  0  0  0  0  0  0  0  0
  1  2  1  0
  2  3  1  0
  3  4  1  0
  4  5  1  0
  5  6  1  0
  6  7  1  0
  7  8  1  0
  7  9  1  0
  6  2  1  0
  7  2  1  0
  9  4  1  0
  1 10  1  0
  1 11  1  0
  1 12  1  0
  3 13  1  0
  3 14  1  0
  4 15  1  0
  5 16  1  0
  5 17  1  0
  6 18  1  0
  8 19  1  0
  8 20  1  0
  8 21  1  0
  9 22  1  0
  9 23  1  0
M  END
