
     RDKit          3D

 23 24  0  0  0  0  0  0  0  0999 V2000
   -1.8748    1.4627   -0.0350 C   0  0  0  0  0  0  0  0  0  0  0  0
   -1.4131    0.0838    0.2318 C   0  0  0  0  0  0  0  0  0  0  0  0
   -1.8163   -1.0417   -0.7197 C   0  0  0  0  0  0  0  0  0  0  0  0
   -0.3342   -1.2938   -0.9176 C   0  0  0  0  0  0  0  0  0  0  0  0
   -0.0236   -0.3558    0.1972 C   0  0  0  0  0  0  0  0  0  0  0  0
    1.1282    0.6046    0.0458 C   0  0  0  0  0  0  0  0  0  0  0  0
    2.4553   -0.1246    0.0414 C   0  0  0  0  0  0  0  0  0  0  0  0
    3.4466    0.8518   -0.1028 O   0  0  0  0  0  0  0  0  0  0  0  0
   -0.7688   -0.3529    1.4758 C   0  0  0  0  0  0  0  0  0  0  0  0
   -2.5477    1.4301   -0.9406 H   0  0  0  0  0  0  0  0  0  0  0  0
   -1.1041    2.1998   -0.2586 H   0  0  0  0  0  0  0  0  0  0  0  0
   -2.5236    1.7949    0.8127 H   0  0  0  0  0  0  0  0  0  0  0  0
   -2.2525   -1.8899   -0.1600 H   0  0  0  0  0  0  0  0  0  0  0  0
   -2.3709   -0.7283   -1.6033 H   0  0  0  0  0  0  0  0  0  0  0  0
   -0.0408   -0.8904   -1.9242 H   0  0  0  0  0  0  0  0  0  0  0  0
    0.0037   -2.3238   -0.7314 H   0  0  0  0  0  0  0  0  0  0  0  0
    1.0999    1.3097    0.8936 H   0  0  0  0  0  0  0  0  0  0  0  0
    1.0796    1.2018   -0.8804 H   0  0  0  0  0  0  0  0  0  0  0  0
    2.6032   -0.7354    0.9543 H   0  0  0  0  0  0  0  0  0  0  0  0
    2.5160   -0.7664   -0.8802 H   0  0  0  0  0  0  0  0  0  0  0  0
    4.2773    0.5796    0.3630 H   0  0  0  0  0  0  0  0  0  0  0  0
   -0.4111    0.3248    2.2492 H   0  0  0  0  0  0  0  0  0  0  0  0
   -1.1284   -1.3407    1.8891 H   0  0  0  0  0  0  0  0  0  0  0  0
  1  2  1  0
  2  3  1  0
  3  4  1  0
  4  5  1  0
  5  6  1  0
  6  7  1  0
  7  8  1  0
  5  9  1  0
  5  2  1  0
  9  2  1  0
  1 10  1  0
  1 11  1  0
  1 12  1  0
  3 13  1  0
  3 14  1  0
  4 15  1  0
  4 16  1  0
  6 17  1  0
  6 18  1  0
  7 19  1  0
  7 20  1  0
  8 21  1  0
  9 22  1  0
  9 23  1  0
M  END
