
     RDKit          3D

 16 17  0  0  0  0  0  0  0  0999 V2000
   -2.0499    0.5716    0.0744 C   0  0  0  0  0  0  0  0  0  0  0  0
   -0.6045    0.2906    0.0405 C   0  0  0  0  0  0  0  0  0  0  0  0
   -0.1391   -0.6771    1.0706 C   0  0  0  0  0  0  0  0  0  0  0  0
    0.8977   -1.3083    0.5187 C   0  0  0  0  0  0  0  0  0  0  0  0
    1.0967   -0.5911   -0.7879 C   0  0  0  0  0  0  0  0  0  0  0  0
    1.4684    0.8177   -0.4580 C   0  0  0  0  0  0  0  0  0  0  0  0
    0.2212    1.3790   -0.0901 O   0  0  0  0  0  0  0  0  0  0  0  0
   -0.2671   -0.4271   -1.1385 O   0  0  0  0  0  0  0  0  0  0  0  0
   -2.3370    1.1172   -0.8397 H   0  0  0  0  0  0  0  0  0  0  0  0
   -2.3230    1.1301    0.9724 H   0  0  0  0  0  0  0  0  0  0  0  0
   -2.6024   -0.3902    0.0507 H   0  0  0  0  0  0  0  0  0  0  0  0
   -0.5095   -0.8809    2.0695 H   0  0  0  0  0  0  0  0  0  0  0  0
    1.4578   -2.1409    0.9246 H   0  0  0  0  0  0  0  0  0  0  0  0
    1.6828   -1.1087   -1.5071 H   0  0  0  0  0  0  0  0  0  0  0  0
    2.1467    0.8894    0.4338 H   0  0  0  0  0  0  0  0  0  0  0  0
    1.8613    1.3288   -1.3339 H   0  0  0  0  0  0  0  0  0  0  0  0
  1  2  1  0
  2  3  1  0
  3  4  2  0
  4  5  1  0
  5  6  1  0
  6  7  1  0
  5  8  1  0
  7  2  1  0
  8  2  1  0
  1  9  1  0
  1 10  1  0
  1 11  1  0
  3 12  1  0
  4 13  1  0
  5 14  1  0
  6 15  1  0
  6 16  1  0
M  END
