
     RDKit          3D

 23 25  0  0  0  0  0  0  0  0999 V2000
   -0.1638    2.2353    0.4581 C   0  0  0  0  0  0  0  0  0  0  0  0
   -0.3094    0.8051    0.1788 C   0  0  0  0  0  0  0  0  0  0  0  0
   -1.6123    0.3485   -0.4092 C   0  0  0  0  0  0  0  0  0  0  0  0
   -1.4334   -1.1244   -0.7173 C   0  0  0  0  0  0  0  0  0  0  0  0
   -0.0024   -1.4619   -0.3746 C   0  0  0  0  0  0  0  0  0  0  0  0
    0.1267   -1.5764    1.1468 C   0  0  0  0  0  0  0  0  0  0  0  0
    0.4046   -0.1164    1.1774 C   0  0  0  0  0  0  0  0  0  0  0  0
    0.6732   -0.1360   -0.2852 C   0  0  0  0  0  0  0  0  0  0  0  0
    1.9905    0.1386   -0.8666 C   0  0  0  0  0  0  0  0  0  0  0  0
    0.6426    2.7701   -0.0395 H   0  0  0  0  0  0  0  0  0  0  0  0
   -0.0320    2.3835    1.5706 H   0  0  0  0  0  0  0  0  0  0  0  0
   -1.1242    2.7852    0.2350 H   0  0  0  0  0  0  0  0  0  0  0  0
   -1.6997    0.8561   -1.4142 H   0  0  0  0  0  0  0  0  0  0  0  0
   -2.4906    0.5577    0.2017 H   0  0  0  0  0  0  0  0  0  0  0  0
   -1.7028   -1.3750   -1.7519 H   0  0  0  0  0  0  0  0  0  0  0  0
   -2.1297   -1.6907   -0.0530 H   0  0  0  0  0  0  0  0  0  0  0  0
    0.4725   -2.2537   -0.9392 H   0  0  0  0  0  0  0  0  0  0  0  0
   -0.8279   -1.8355    1.6580 H   0  0  0  0  0  0  0  0  0  0  0  0
    1.0004   -2.1704    1.4807 H   0  0  0  0  0  0  0  0  0  0  0  0
    1.1760    0.3268    1.8007 H   0  0  0  0  0  0  0  0  0  0  0  0
    2.7322   -0.6226   -0.5174 H   0  0  0  0  0  0  0  0  0  0  0  0
    1.9394    0.0444   -1.9695 H   0  0  0  0  0  0  0  0  0  0  0  0
    2.3701    1.1119   -0.5703 H   0  0  0  0  0  0  0  0  0  0  0  0
  1  2  1  0
  2  3  1  0
  3  4  1  0
  4  5  1  0
  5  6  1  0
  6  7  1  0
  7  8  1  0
  8  9  1  0
  7  2  1  0
  8  2  1  0
  8  5  1  0
  1 10  1  0
  1 11  1  0
  1 12  1  0
  3 13  1  0
  3 14  1  0
  4 15  1  0
  4 16  1  0
  5 17  1  0
  6 18  1  0
  6 19  1  0
  7 20  1  0
  9 21  1  0
  9 22  1  0
  9 23  1  0
M  END
