
     RDKit          3D

 18 19  0  0  0  0  0  0  0  0999 V2000
   -1.7881   -0.1332   -0.3818 C   0  0  0  0  0  0  0  0  0  0  0  0
   -0.4882   -0.2802   -0.0096 C   0  0  0  0  0  0  0  0  0  0  0  0
    0.1035   -1.2074    1.0194 C   0  0  0  0  0  0  0  0  0  0  0  0
    1.2951   -0.4587    0.4845 C   0  0  0  0  0  0  0  0  0  0  0  0
    0.6886   -0.6725   -0.8770 C   0  0  0  0  0  0  0  0  0  0  0  0
    0.4333    0.7620    0.5835 C   0  0  0  0  0  0  0  0  0  0  0  0
    0.7612    1.8912   -0.2841 C   0  0  0  0  0  0  0  0  0  0  0  0
   -0.0287    2.4262   -1.0415 O   0  0  0  0  0  0  0  0  0  0  0  0
   -1.9836   -0.1742   -1.4962 H   0  0  0  0  0  0  0  0  0  0  0  0
   -2.5035   -0.9082    0.0271 H   0  0  0  0  0  0  0  0  0  0  0  0
   -2.2746    0.8427   -0.0784 H   0  0  0  0  0  0  0  0  0  0  0  0
    0.1317   -2.2745    0.7627 H   0  0  0  0  0  0  0  0  0  0  0  0
   -0.1688   -0.9324    2.0382 H   0  0  0  0  0  0  0  0  0  0  0  0
    2.2516   -0.5679    0.7493 H   0  0  0  0  0  0  0  0  0  0  0  0
    0.9620    0.0757   -1.6368 H   0  0  0  0  0  0  0  0  0  0  0  0
    0.6924   -1.7207   -1.2260 H   0  0  0  0  0  0  0  0  0  0  0  0
    0.1493    1.0418    1.6315 H   0  0  0  0  0  0  0  0  0  0  0  0
    1.7668    2.2902   -0.2648 H   0  0  0  0  0  0  0  0  0  0  0  0
  1  2  1  0
  2  3  1  0
  3  4  1  0
  4  5  1  0
  4  6  1  0
  6  7  1  0
  7  8  2  0
  5  2  1  0
  6  2  1  0
  1  9  1  0
  1 10  1  0
  1 11  1  0
  3 12  1  0
  3 13  1  0
  4 14  1  0
  5 15  1  0
  5 16  1  0
  6 17  1  0
  7 18  1  0
M  END
