
     RDKit          3D

 21 22  0  0  0  0  0  0  0  0999 V2000
   -2.3073   -0.2851    0.1446 C   0  0  0  0  0  0  0  0  0  0  0  0
   -0.8690   -0.1291   -0.3028 C   0  0  0  0  0  0  0  0  0  0  0  0
   -0.4769    1.2721   -0.6593 C   0  0  0  0  0  0  0  0  0  0  0  0
    0.1416    1.8382    0.4377 O   0  0  0  0  0  0  0  0  0  0  0  0
    1.4084    1.2516    0.5384 C   0  0  0  0  0  0  0  0  0  0  0  0
    1.3466   -0.1997    0.8802 C   0  0  0  0  0  0  0  0  0  0  0  0
    2.5178   -0.8230    0.3964 O   0  0  0  0  0  0  0  0  0  0  0  0
    0.1165   -0.9024    0.4458 C   0  0  0  0  0  0  0  0  0  0  0  0
   -0.1471   -1.2120   -0.9862 C   0  0  0  0  0  0  0  0  0  0  0  0
   -2.5242   -1.3551    0.2124 H   0  0  0  0  0  0  0  0  0  0  0  0
   -2.3429    0.1133    1.1969 H   0  0  0  0  0  0  0  0  0  0  0  0
   -3.0237    0.2600   -0.4564 H   0  0  0  0  0  0  0  0  0  0  0  0
    0.1498    1.3237   -1.5817 H   0  0  0  0  0  0  0  0  0  0  0  0
   -1.3750    1.8935   -0.8820 H   0  0  0  0  0  0  0  0  0  0  0  0
    1.9353    1.8317    1.3486 H   0  0  0  0  0  0  0  0  0  0  0  0
    2.0046    1.4262   -0.3792 H   0  0  0  0  0  0  0  0  0  0  0  0
    1.4350   -0.2760    1.9997 H   0  0  0  0  0  0  0  0  0  0  0  0
    2.3587   -1.2738   -0.4493 H   0  0  0  0  0  0  0  0  0  0  0  0
   -0.2562   -1.7020    1.1495 H   0  0  0  0  0  0  0  0  0  0  0  0
   -0.6996   -2.1249   -1.2777 H   0  0  0  0  0  0  0  0  0  0  0  0
    0.6078   -0.9273   -1.7755 H   0  0  0  0  0  0  0  0  0  0  0  0
  1  2  1  0
  2  3  1  0
  3  4  1  0
  4  5  1  0
  5  6  1  0
  6  7  1  0
  6  8  1  0
  8  9  1  0
  8  2  1  0
  9  2  1  0
  1 10  1  0
  1 11  1  0
  1 12  1  0
  3 13  1  0
  3 14  1  0
  5 15  1  0
  5 16  1  0
  6 17  1  0
  7 18  1  0
  8 19  1  0
  9 20  1  0
  9 21  1  0
M  END
