
     RDKit          3D

 21 23  0  0  0  0  0  0  0  0999 V2000
   -1.7601    0.7474    0.6415 C   0  0  0  0  0  0  0  0  0  0  0  0
   -0.9515   -0.3256   -0.0192 C   0  0  0  0  0  0  0  0  0  0  0  0
   -1.7570   -1.3261   -0.8044 C   0  0  0  0  0  0  0  0  0  0  0  0
   -0.8975   -0.3772   -1.5467 C   0  0  0  0  0  0  0  0  0  0  0  0
    0.4790   -0.6486   -1.5182 O   0  0  0  0  0  0  0  0  0  0  0  0
    0.4988   -0.2091   -0.2240 C   0  0  0  0  0  0  0  0  0  0  0  0
    1.1520    1.1154    0.0453 C   0  0  0  0  0  0  0  0  0  0  0  0
    2.3882    0.3243    0.4940 C   0  0  0  0  0  0  0  0  0  0  0  0
    1.4291   -0.8505    0.7316 C   0  0  0  0  0  0  0  0  0  0  0  0
   -2.6650    0.2398    1.0864 H   0  0  0  0  0  0  0  0  0  0  0  0
   -1.2480    1.2128    1.5176 H   0  0  0  0  0  0  0  0  0  0  0  0
   -2.0534    1.5521   -0.0677 H   0  0  0  0  0  0  0  0  0  0  0  0
   -2.8547   -1.1584   -0.9333 H   0  0  0  0  0  0  0  0  0  0  0  0
   -1.4043   -2.3724   -0.6719 H   0  0  0  0  0  0  0  0  0  0  0  0
   -1.2786    0.4601   -2.1284 H   0  0  0  0  0  0  0  0  0  0  0  0
    0.7143    1.6437    0.9308 H   0  0  0  0  0  0  0  0  0  0  0  0
    1.3090    1.7369   -0.8457 H   0  0  0  0  0  0  0  0  0  0  0  0
    3.1010    0.1542   -0.3401 H   0  0  0  0  0  0  0  0  0  0  0  0
    2.8849    0.7038    1.3818 H   0  0  0  0  0  0  0  0  0  0  0  0
    1.8383   -1.8327    0.4810 H   0  0  0  0  0  0  0  0  0  0  0  0
    1.0756   -0.7896    1.7895 H   0  0  0  0  0  0  0  0  0  0  0  0
  1  2  1  0
  2  3  1  0
  3  4  1  0
  4  5  1  0
  5  6  1  0
  6  7  1  0
  7  8  1  0
  8  9  1  0
  4  2  1  0
  9  6  1  0
  6  2  1  0
  1 10  1  0
  1 11  1  0
  1 12  1  0
  3 13  1  0
  3 14  1  0
  4 15  1  0
  7 16  1  0
  7 17  1  0
  8 18  1  0
  8 19  1  0
  9 20  1  0
  9 21  1  0
M  END
