
     RDKit          3D

 21 23  0  0  0  0  0  0  0  0999 V2000
    2.4117   -0.0463    0.0429 C   0  0  0  0  0  0  0  0  0  0  0  0
    0.9604    0.0911   -0.0982 C   0  0  0  0  0  0  0  0  0  0  0  0
    0.2497    0.7499    1.0517 C   0  0  0  0  0  0  0  0  0  0  0  0
   -1.1181    1.0072    0.4426 C   0  0  0  0  0  0  0  0  0  0  0  0
   -1.9307   -0.2637    0.3997 C   0  0  0  0  0  0  0  0  0  0  0  0
   -1.1281   -0.6615   -0.8278 C   0  0  0  0  0  0  0  0  0  0  0  0
    0.2202   -1.1941   -0.4110 C   0  0  0  0  0  0  0  0  0  0  0  0
   -0.8334    0.8065   -1.0305 C   0  0  0  0  0  0  0  0  0  0  0  0
    0.5509    0.9036   -1.1742 O   0  0  0  0  0  0  0  0  0  0  0  0
    2.8556    0.5380    0.8707 H   0  0  0  0  0  0  0  0  0  0  0  0
    2.9247    0.1818   -0.9315 H   0  0  0  0  0  0  0  0  0  0  0  0
    2.6609   -1.1169    0.2572 H   0  0  0  0  0  0  0  0  0  0  0  0
    0.7262    1.6507    1.4287 H   0  0  0  0  0  0  0  0  0  0  0  0
    0.1015   -0.0457    1.8302 H   0  0  0  0  0  0  0  0  0  0  0  0
   -1.6215    1.9185    0.7323 H   0  0  0  0  0  0  0  0  0  0  0  0
   -2.9984   -0.1513    0.1822 H   0  0  0  0  0  0  0  0  0  0  0  0
   -1.7006   -0.9465    1.2534 H   0  0  0  0  0  0  0  0  0  0  0  0
   -1.6573   -1.1809   -1.6129 H   0  0  0  0  0  0  0  0  0  0  0  0
    0.0950   -1.8048    0.5275 H   0  0  0  0  0  0  0  0  0  0  0  0
    0.6792   -1.7844   -1.1988 H   0  0  0  0  0  0  0  0  0  0  0  0
   -1.4478    1.3488   -1.7340 H   0  0  0  0  0  0  0  0  0  0  0  0
  1  2  1  0
  2  3  1  0
  3  4  1  0
  4  5  1  0
  5  6  1  0
  6  7  1  0
  6  8  1  0
  8  9  1  0
  7  2  1  0
  9  2  1  0
  8  4  1  0
  1 10  1  0
  1 11  1  0
  1 12  1  0
  3 13  1  0
  3 14  1  0
  4 15  1  0
  5 16  1  0
  5 17  1  0
  6 18  1  0
  7 19  1  0
  7 20  1  0
  8 21  1  0
M  END
