
     RDKit          3D

 21 22  0  0  0  0  0  0  0  0999 V2000
    1.8808    0.6986    0.4787 C   0  0  0  0  0  0  0  0  0  0  0  0
    0.6935    0.0075   -0.1150 C   0  0  0  0  0  0  0  0  0  0  0  0
    0.9604   -1.3758   -0.5490 C   0  0  0  0  0  0  0  0  0  0  0  0
   -0.1482   -2.0979   -0.4322 C   0  0  0  0  0  0  0  0  0  0  0  0
   -1.2595   -1.2408    0.0969 C   0  0  0  0  0  0  0  0  0  0  0  0
   -0.4438   -0.1725    0.8337 C   0  0  0  0  0  0  0  0  0  0  0  0
   -1.1813    1.1310    0.7102 C   0  0  0  0  0  0  0  0  0  0  0  0
   -0.9084    1.4793   -0.7143 C   0  0  0  0  0  0  0  0  0  0  0  0
    0.1371    0.8566   -1.1848 C   0  0  0  0  0  0  0  0  0  0  0  0
    2.0264    0.5194    1.5526 H   0  0  0  0  0  0  0  0  0  0  0  0
    2.7974    0.3557   -0.0743 H   0  0  0  0  0  0  0  0  0  0  0  0
    1.7756    1.7982    0.3098 H   0  0  0  0  0  0  0  0  0  0  0  0
    1.8959   -1.7738   -0.9100 H   0  0  0  0  0  0  0  0  0  0  0  0
   -0.3184   -3.1537   -0.6605 H   0  0  0  0  0  0  0  0  0  0  0  0
   -1.9439   -1.7725    0.7468 H   0  0  0  0  0  0  0  0  0  0  0  0
   -1.7094   -0.7341   -0.7680 H   0  0  0  0  0  0  0  0  0  0  0  0
   -0.1824   -0.4620    1.8422 H   0  0  0  0  0  0  0  0  0  0  0  0
   -2.2653    0.9569    0.8655 H   0  0  0  0  0  0  0  0  0  0  0  0
   -0.8326    1.8815    1.4154 H   0  0  0  0  0  0  0  0  0  0  0  0
   -1.5308    2.1756   -1.2635 H   0  0  0  0  0  0  0  0  0  0  0  0
    0.5569    0.9227   -2.1803 H   0  0  0  0  0  0  0  0  0  0  0  0
  1  2  1  0
  2  3  1  0
  3  4  2  0
  4  5  1  0
  5  6  1  0
  6  7  1  0
  7  8  1  0
  8  9  2  0
  6  2  1  0
  9  2  1  0
  1 10  1  0
  1 11  1  0
  1 12  1  0
  3 13  1  0
  4 14  1  0
  5 15  1  0
  5 16  1  0
  6 17  1  0
  7 18  1  0
  7 19  1  0
  8 20  1  0
  9 21  1  0
M  END
