
     RDKit          3D

 19 20  0  0  0  0  0  0  0  0999 V2000
   -1.6491    1.3598   -0.1891 C   0  0  0  0  0  0  0  0  0  0  0  0
   -0.9274    0.1197   -0.4232 C   0  0  0  0  0  0  0  0  0  0  0  0
   -1.2487   -1.1900    0.2409 C   0  0  0  0  0  0  0  0  0  0  0  0
    0.1451   -1.6479   -0.1977 C   0  0  0  0  0  0  0  0  0  0  0  0
    0.2577   -0.2932   -0.8929 C   0  0  0  0  0  0  0  0  0  0  0  0
    1.5961    0.3618   -1.0066 C   0  0  0  0  0  0  0  0  0  0  0  0
    2.1497    0.7722    0.2990 C   0  0  0  0  0  0  0  0  0  0  0  0
    2.3073   -0.0522    1.2115 O   0  0  0  0  0  0  0  0  0  0  0  0
   -0.7033   -0.1100   -1.8774 O   0  0  0  0  0  0  0  0  0  0  0  0
   -2.4382    1.1756    0.5949 H   0  0  0  0  0  0  0  0  0  0  0  0
   -2.2195    1.7205   -1.0730 H   0  0  0  0  0  0  0  0  0  0  0  0
   -1.0473    2.2306    0.1783 H   0  0  0  0  0  0  0  0  0  0  0  0
   -1.4234   -1.1305    1.3088 H   0  0  0  0  0  0  0  0  0  0  0  0
   -2.0800   -1.6822   -0.3297 H   0  0  0  0  0  0  0  0  0  0  0  0
    0.8306   -1.7669    0.6584 H   0  0  0  0  0  0  0  0  0  0  0  0
    0.1201   -2.4929   -0.8949 H   0  0  0  0  0  0  0  0  0  0  0  0
    1.5946    1.2153   -1.7156 H   0  0  0  0  0  0  0  0  0  0  0  0
    2.2799   -0.3929   -1.4706 H   0  0  0  0  0  0  0  0  0  0  0  0
    2.4559    1.8035    0.5508 H   0  0  0  0  0  0  0  0  0  0  0  0
  1  2  1  0
  2  3  1  0
  3  4  1  0
  4  5  1  0
  5  6  1  0
  6  7  1  0
  7  8  2  0
  5  9  1  0
  5  2  1  0
  9  2  1  0
  1 10  1  0
  1 11  1  0
  1 12  1  0
  3 13  1  0
  3 14  1  0
  4 15  1  0
  4 16  1  0
  6 17  1  0
  6 18  1  0
  7 19  1  0
M  END
