
     RDKit          3D

 21 22  0  0  0  0  0  0  0  0999 V2000
   -2.2425   -0.4189    0.3114 C   0  0  0  0  0  0  0  0  0  0  0  0
   -0.9011   -0.1348   -0.0971 C   0  0  0  0  0  0  0  0  0  0  0  0
   -0.5746    0.4051   -1.4510 C   0  0  0  0  0  0  0  0  0  0  0  0
    0.8349    0.5225   -1.3451 O   0  0  0  0  0  0  0  0  0  0  0  0
    1.0906    0.0048   -0.1038 C   0  0  0  0  0  0  0  0  0  0  0  0
    2.4369   -0.1023    0.4117 C   0  0  0  0  0  0  0  0  0  0  0  0
    0.1733   -1.2247    0.0145 C   0  0  0  0  0  0  0  0  0  0  0  0
    0.0286    0.6582    0.7955 C   0  0  0  0  0  0  0  0  0  0  0  0
   -0.0477    2.0149    0.7155 O   0  0  0  0  0  0  0  0  0  0  0  0
   -2.3670   -1.2843    0.9795 H   0  0  0  0  0  0  0  0  0  0  0  0
   -2.9192   -0.5691   -0.5538 H   0  0  0  0  0  0  0  0  0  0  0  0
   -2.6857    0.4554    0.8729 H   0  0  0  0  0  0  0  0  0  0  0  0
   -1.0512    1.3446   -1.7116 H   0  0  0  0  0  0  0  0  0  0  0  0
   -0.7980   -0.4074   -2.1957 H   0  0  0  0  0  0  0  0  0  0  0  0
    3.1804   -0.0334   -0.4278 H   0  0  0  0  0  0  0  0  0  0  0  0
    2.7024    0.7560    1.0849 H   0  0  0  0  0  0  0  0  0  0  0  0
    2.6966   -1.0613    0.9368 H   0  0  0  0  0  0  0  0  0  0  0  0
    0.2531   -1.8637   -0.8652 H   0  0  0  0  0  0  0  0  0  0  0  0
    0.2616   -1.6774    1.0007 H   0  0  0  0  0  0  0  0  0  0  0  0
    0.0891    0.2583    1.8090 H   0  0  0  0  0  0  0  0  0  0  0  0
   -0.1603    2.3574   -0.1811 H   0  0  0  0  0  0  0  0  0  0  0  0
  1  2  1  0
  2  3  1  0
  3  4  1  0
  4  5  1  0
  5  6  1  0
  5  7  1  0
  5  8  1  0
  8  9  1  0
  7  2  1  0
  8  2  1  0
  1 10  1  0
  1 11  1  0
  1 12  1  0
  3 13  1  0
  3 14  1  0
  6 15  1  0
  6 16  1  0
  6 17  1  0
  7 18  1  0
  7 19  1  0
  8 20  1  0
  9 21  1  0
M  END
