
     RDKit          3D

 19 20  0  0  0  0  0  0  0  0999 V2000
    1.6881    0.0897   -1.0131 C   0  0  0  0  0  0  0  0  0  0  0  0
    0.5076    0.0152   -0.0756 C   0  0  0  0  0  0  0  0  0  0  0  0
    0.6619   -0.4815    1.3125 C   0  0  0  0  0  0  0  0  0  0  0  0
   -0.0101   -1.3262    0.3293 C   0  0  0  0  0  0  0  0  0  0  0  0
   -1.4543   -1.2666    0.0186 C   0  0  0  0  0  0  0  0  0  0  0  0
   -1.8120   -0.0022   -0.3327 O   0  0  0  0  0  0  0  0  0  0  0  0
   -0.7095    0.7987   -0.4147 C   0  0  0  0  0  0  0  0  0  0  0  0
   -0.8831    2.0176    0.4107 C   0  0  0  0  0  0  0  0  0  0  0  0
   -0.0223    2.8781    0.4889 O   0  0  0  0  0  0  0  0  0  0  0  0
    2.5420    0.5920   -0.5149 H   0  0  0  0  0  0  0  0  0  0  0  0
    1.9461   -0.8827   -1.4553 H   0  0  0  0  0  0  0  0  0  0  0  0
    1.4046    0.7563   -1.8786 H   0  0  0  0  0  0  0  0  0  0  0  0
    1.6847   -0.7521    1.6106 H   0  0  0  0  0  0  0  0  0  0  0  0
    0.1171    0.1012    2.0879 H   0  0  0  0  0  0  0  0  0  0  0  0
    0.5383   -2.2517   -0.0104 H   0  0  0  0  0  0  0  0  0  0  0  0
   -1.6522   -1.9316   -0.8730 H   0  0  0  0  0  0  0  0  0  0  0  0
   -2.1105   -1.6844    0.8216 H   0  0  0  0  0  0  0  0  0  0  0  0
   -0.6417    1.1598   -1.4828 H   0  0  0  0  0  0  0  0  0  0  0  0
   -1.7946    2.1705    0.9709 H   0  0  0  0  0  0  0  0  0  0  0  0
  1  2  1  0
  2  3  1  0
  3  4  1  0
  4  5  1  0
  5  6  1  0
  6  7  1  0
  7  8  1  0
  8  9  2  0
  4  2  1  0
  7  2  1  0
  1 10  1  0
  1 11  1  0
  1 12  1  0
  3 13  1  0
  3 14  1  0
  4 15  1  0
  5 16  1  0
  5 17  1  0
  7 18  1  0
  8 19  1  0
M  END
