
     RDKit          3D

 17 20  0  0  0  0  0  0  0  0999 V2000
    2.2954    0.3081   -0.0560 C   0  0  0  0  0  0  0  0  0  0  0  0
    0.8439    0.0714   -0.2671 C   0  0  0  0  0  0  0  0  0  0  0  0
    0.4496   -1.1199   -0.8478 O   0  0  0  0  0  0  0  0  0  0  0  0
   -0.5911   -1.2881    0.0690 C   0  0  0  0  0  0  0  0  0  0  0  0
   -1.8284   -0.5859   -0.4642 C   0  0  0  0  0  0  0  0  0  0  0  0
   -2.4887    0.2521    0.5426 O   0  0  0  0  0  0  0  0  0  0  0  0
   -1.5704    0.7881   -0.4832 C   0  0  0  0  0  0  0  0  0  0  0  0
   -0.2057    1.0156    0.1705 C   0  0  0  0  0  0  0  0  0  0  0  0
    0.0242   -0.2222    0.9067 C   0  0  0  0  0  0  0  0  0  0  0  0
    2.4243    1.1599    0.6402 H   0  0  0  0  0  0  0  0  0  0  0  0
    2.8729    0.4050   -0.9787 H   0  0  0  0  0  0  0  0  0  0  0  0
    2.7049   -0.5877    0.4951 H   0  0  0  0  0  0  0  0  0  0  0  0
   -0.7300   -2.2760    0.4859 H   0  0  0  0  0  0  0  0  0  0  0  0
   -2.5303   -1.1771   -1.0410 H   0  0  0  0  0  0  0  0  0  0  0  0
   -2.0598    1.6025   -1.0104 H   0  0  0  0  0  0  0  0  0  0  0  0
    0.0397    1.9942    0.5746 H   0  0  0  0  0  0  0  0  0  0  0  0
    0.3492   -0.3400    1.9158 H   0  0  0  0  0  0  0  0  0  0  0  0
  1  2  1  0
  2  3  1  0
  3  4  1  0
  4  5  1  0
  5  6  1  0
  6  7  1  0
  7  8  1  0
  8  9  1  0
  8  2  1  0
  9  2  1  0
  9  4  1  0
  7  5  1  0
  1 10  1  0
  1 11  1  0
  1 12  1  0
  4 13  1  0
  5 14  1  0
  7 15  1  0
  8 16  1  0
  9 17  1  0
M  END
