
     RDKit          3D

 25 26  0  0  0  0  0  0  0  0999 V2000
    2.4276   -0.2305    0.7093 C   0  0  0  0  0  0  0  0  0  0  0  0
    1.1017   -0.1972    0.1069 C   0  0  0  0  0  0  0  0  0  0  0  0
    0.5898   -1.4681   -0.4966 C   0  0  0  0  0  0  0  0  0  0  0  0
   -0.8648   -1.0837   -0.7737 C   0  0  0  0  0  0  0  0  0  0  0  0
   -1.1153    0.1762    0.0294 C   0  0  0  0  0  0  0  0  0  0  0  0
   -2.4678    0.3435    0.5431 C   0  0  0  0  0  0  0  0  0  0  0  0
   -0.5313    1.3872   -0.6820 C   0  0  0  0  0  0  0  0  0  0  0  0
    0.8965    0.9317   -0.8998 C   0  0  0  0  0  0  0  0  0  0  0  0
   -0.0399    0.0148    1.1196 C   0  0  0  0  0  0  0  0  0  0  0  0
    2.9286    0.7698    0.5416 H   0  0  0  0  0  0  0  0  0  0  0  0
    2.4132   -0.3477    1.8171 H   0  0  0  0  0  0  0  0  0  0  0  0
    3.1319   -0.9698    0.2439 H   0  0  0  0  0  0  0  0  0  0  0  0
    1.1126   -1.8076   -1.3795 H   0  0  0  0  0  0  0  0  0  0  0  0
    0.5441   -2.2297    0.3288 H   0  0  0  0  0  0  0  0  0  0  0  0
   -1.0186   -0.8823   -1.8551 H   0  0  0  0  0  0  0  0  0  0  0  0
   -1.5513   -1.8678   -0.4394 H   0  0  0  0  0  0  0  0  0  0  0  0
   -3.0518    1.0047   -0.1633 H   0  0  0  0  0  0  0  0  0  0  0  0
   -3.0250   -0.5950    0.6124 H   0  0  0  0  0  0  0  0  0  0  0  0
   -2.4492    0.9225    1.5012 H   0  0  0  0  0  0  0  0  0  0  0  0
   -1.0576    1.6543   -1.5910 H   0  0  0  0  0  0  0  0  0  0  0  0
   -0.5010    2.1995    0.0876 H   0  0  0  0  0  0  0  0  0  0  0  0
    1.0068    0.5303   -1.9466 H   0  0  0  0  0  0  0  0  0  0  0  0
    1.6338    1.7286   -0.8015 H   0  0  0  0  0  0  0  0  0  0  0  0
    0.0900    0.9220    1.7010 H   0  0  0  0  0  0  0  0  0  0  0  0
   -0.2028   -0.9056    1.6865 H   0  0  0  0  0  0  0  0  0  0  0  0
  1  2  1  0
  2  3  1  0
  3  4  1  0
  4  5  1  0
  5  6  1  0
  5  7  1  0
  7  8  1  0
  5  9  1  0
  8  2  1  0
  9  2  1  0
  1 10  1  0
  1 11  1  0
  1 12  1  0
  3 13  1  0
  3 14  1  0
  4 15  1  0
  4 16  1  0
  6 17  1  0
  6 18  1  0
  6 19  1  0
  7 20  1  0
  7 21  1  0
  8 22  1  0
  8 23  1  0
  9 24  1  0
  9 25  1  0
M  END
