
     RDKit          3D

 17 19  0  0  0  0  0  0  0  0999 V2000
   -2.0632   -0.4893   -0.6437 C   0  0  0  0  0  0  0  0  0  0  0  0
   -0.8002   -0.3058    0.1568 C   0  0  0  0  0  0  0  0  0  0  0  0
   -0.7444    0.8260    1.1015 C   0  0  0  0  0  0  0  0  0  0  0  0
    0.0756    0.9170   -0.1428 C   0  0  0  0  0  0  0  0  0  0  0  0
    1.2292   -0.0270   -0.2170 C   0  0  0  0  0  0  0  0  0  0  0  0
    2.5364    0.1219    0.1929 C   0  0  0  0  0  0  0  0  0  0  0  0
    2.2144    0.0890   -1.1523 O   0  0  0  0  0  0  0  0  0  0  0  0
    0.3440   -1.1796   -0.1170 C   0  0  0  0  0  0  0  0  0  0  0  0
    0.4346   -2.4064   -0.2095 O   0  0  0  0  0  0  0  0  0  0  0  0
   -2.9037   -0.1288    0.0182 H   0  0  0  0  0  0  0  0  0  0  0  0
   -2.2750   -1.5530   -0.8666 H   0  0  0  0  0  0  0  0  0  0  0  0
   -2.0434    0.0980   -1.5864 H   0  0  0  0  0  0  0  0  0  0  0  0
   -1.6208    1.4818    1.1304 H   0  0  0  0  0  0  0  0  0  0  0  0
   -0.2210    0.6484    2.0634 H   0  0  0  0  0  0  0  0  0  0  0  0
   -0.2058    1.5626   -0.9826 H   0  0  0  0  0  0  0  0  0  0  0  0
    2.9100    1.0842    0.6441 H   0  0  0  0  0  0  0  0  0  0  0  0
    3.1333   -0.7389    0.6106 H   0  0  0  0  0  0  0  0  0  0  0  0
  1  2  1  0
  2  3  1  0
  3  4  1  0
  4  5  1  0
  5  6  1  0
  6  7  1  0
  5  8  1  0
  8  9  2  0
  4  2  1  0
  7  5  1  0
  8  2  1  0
  1 10  1  0
  1 11  1  0
  1 12  1  0
  3 13  1  0
  3 14  1  0
  4 15  1  0
  6 16  1  0
  6 17  1  0
M  END
