
     RDKit          3D

 19 20  0  0  0  0  0  0  0  0999 V2000
    2.1771    0.0110    0.2544 C   0  0  0  0  0  0  0  0  0  0  0  0
    0.7427   -0.0644    0.4060 C   0  0  0  0  0  0  0  0  0  0  0  0
   -0.0321   -1.0060   -0.5323 C   0  0  0  0  0  0  0  0  0  0  0  0
   -1.1720   -0.0445   -0.1605 C   0  0  0  0  0  0  0  0  0  0  0  0
   -2.2527   -0.0098   -0.9122 O   0  0  0  0  0  0  0  0  0  0  0  0
   -1.2306   -0.2720    1.3186 C   0  0  0  0  0  0  0  0  0  0  0  0
    0.1569   -0.3304    1.6170 O   0  0  0  0  0  0  0  0  0  0  0  0
   -0.1124    1.0255   -0.2623 C   0  0  0  0  0  0  0  0  0  0  0  0
    0.3030    1.2382   -1.5637 O   0  0  0  0  0  0  0  0  0  0  0  0
    2.5080   -0.6211   -0.6211 H   0  0  0  0  0  0  0  0  0  0  0  0
    2.7027   -0.3881    1.1438 H   0  0  0  0  0  0  0  0  0  0  0  0
    2.6091    1.0266    0.0806 H   0  0  0  0  0  0  0  0  0  0  0  0
    0.2455   -0.9180   -1.5790 H   0  0  0  0  0  0  0  0  0  0  0  0
   -0.1848   -1.9928   -0.0983 H   0  0  0  0  0  0  0  0  0  0  0  0
   -2.6202   -0.9412   -1.0104 H   0  0  0  0  0  0  0  0  0  0  0  0
   -1.6242    0.5769    1.8859 H   0  0  0  0  0  0  0  0  0  0  0  0
   -1.7401   -1.1970    1.6080 H   0  0  0  0  0  0  0  0  0  0  0  0
   -0.2606    1.9141    0.3526 H   0  0  0  0  0  0  0  0  0  0  0  0
   -0.2152    1.9928   -1.9271 H   0  0  0  0  0  0  0  0  0  0  0  0
  1  2  1  0
  2  3  1  0
  3  4  1  0
  4  5  1  0
  4  6  1  0
  6  7  1  0
  4  8  1  0
  8  9  1  0
  7  2  1  0
  8  2  1  0
  1 10  1  0
  1 11  1  0
  1 12  1  0
  3 13  1  0
  3 14  1  0
  5 15  1  0
  6 16  1  0
  6 17  1  0
  8 18  1  0
  9 19  1  0
M  END
