
     RDKit          3D

 19 21  0  0  0  0  0  0  0  0999 V2000
    1.9203   -0.7507   -0.1029 C   0  0  0  0  0  0  0  0  0  0  0  0
    0.7279    0.0917   -0.0139 C   0  0  0  0  0  0  0  0  0  0  0  0
    0.8476    1.3953    0.4252 O   0  0  0  0  0  0  0  0  0  0  0  0
   -0.4865    1.8687    0.3422 C   0  0  0  0  0  0  0  0  0  0  0  0
   -1.1932    0.6541   -0.1216 C   0  0  0  0  0  0  0  0  0  0  0  0
   -0.2563    0.0820   -1.1475 C   0  0  0  0  0  0  0  0  0  0  0  0
   -0.6849   -1.2672   -0.6681 C   0  0  0  0  0  0  0  0  0  0  0  0
   -0.5190   -0.4872    0.6015 C   0  0  0  0  0  0  0  0  0  0  0  0
   -0.6987   -0.8585    1.7824 O   0  0  0  0  0  0  0  0  0  0  0  0
    2.8226   -0.0883   -0.2324 H   0  0  0  0  0  0  0  0  0  0  0  0
    2.1130   -1.2696    0.8810 H   0  0  0  0  0  0  0  0  0  0  0  0
    1.9442   -1.4815   -0.9055 H   0  0  0  0  0  0  0  0  0  0  0  0
   -0.4644    2.6294   -0.4824 H   0  0  0  0  0  0  0  0  0  0  0  0
   -0.8330    2.2951    1.2840 H   0  0  0  0  0  0  0  0  0  0  0  0
   -2.2393    0.6295   -0.2806 H   0  0  0  0  0  0  0  0  0  0  0  0
   -0.1125    0.3967   -2.0856 H   0  0  0  0  0  0  0  0  0  0  0  0
   -0.0013   -2.1025   -0.8401 H   0  0  0  0  0  0  0  0  0  0  0  0
   -1.7562   -1.5240   -0.8340 H   0  0  0  0  0  0  0  0  0  0  0  0
   -1.1302   -0.2131    2.3982 H   0  0  0  0  0  0  0  0  0  0  0  0
  1  2  1  0
  2  3  1  0
  3  4  1  0
  4  5  1  0
  5  6  1  0
  6  7  1  0
  7  8  1  0
  8  9  1  0
  6  2  1  0
  8  2  1  0
  8  5  1  0
  1 10  1  0
  1 11  1  0
  1 12  1  0
  4 13  1  0
  4 14  1  0
  5 15  1  0
  6 16  1  0
  7 17  1  0
  7 18  1  0
  9 19  1  0
M  END
