
     RDKit          3D

 17 19  0  0  0  0  0  0  0  0999 V2000
    2.2763   -0.0870   -0.0817 C   0  0  0  0  0  0  0  0  0  0  0  0
    0.8045   -0.0017    0.2144 C   0  0  0  0  0  0  0  0  0  0  0  0
    0.3394   -0.2776    1.4886 O   0  0  0  0  0  0  0  0  0  0  0  0
   -0.8566   -0.8330    0.9813 C   0  0  0  0  0  0  0  0  0  0  0  0
   -1.8245    0.2591    0.7510 C   0  0  0  0  0  0  0  0  0  0  0  0
   -2.8297    0.4909    1.3985 O   0  0  0  0  0  0  0  0  0  0  0  0
   -1.3997    1.0679   -0.4136 C   0  0  0  0  0  0  0  0  0  0  0  0
   -0.1317    0.3889   -0.8847 C   0  0  0  0  0  0  0  0  0  0  0  0
   -0.1657   -0.9501   -0.3359 C   0  0  0  0  0  0  0  0  0  0  0  0
    2.7209   -1.0599    0.1769 H   0  0  0  0  0  0  0  0  0  0  0  0
    2.7841    0.7435    0.4525 H   0  0  0  0  0  0  0  0  0  0  0  0
    2.3927    0.0226   -1.1943 H   0  0  0  0  0  0  0  0  0  0  0  0
   -1.2064   -1.7311    1.4718 H   0  0  0  0  0  0  0  0  0  0  0  0
   -1.1523    2.1197   -0.1386 H   0  0  0  0  0  0  0  0  0  0  0  0
   -2.1270    1.0854   -1.2276 H   0  0  0  0  0  0  0  0  0  0  0  0
    0.3238    0.6430   -1.8328 H   0  0  0  0  0  0  0  0  0  0  0  0
    0.0518   -1.8807   -0.8259 H   0  0  0  0  0  0  0  0  0  0  0  0
  1  2  1  0
  2  3  1  0
  3  4  1  0
  4  5  1  0
  5  6  2  0
  5  7  1  0
  7  8  1  0
  8  9  1  0
  8  2  1  0
  9  2  1  0
  9  4  1  0
  1 10  1  0
  1 11  1  0
  1 12  1  0
  4 13  1  0
  7 14  1  0
  7 15  1  0
  8 16  1  0
  9 17  1  0
M  END
