
     RDKit          3D

 21 22  0  0  0  0  0  0  0  0999 V2000
   -1.1953   -0.6248    1.1796 C   0  0  0  0  0  0  0  0  0  0  0  0
   -0.5688   -0.1720   -0.0957 C   0  0  0  0  0  0  0  0  0  0  0  0
   -1.2046    1.0818   -0.6863 C   0  0  0  0  0  0  0  0  0  0  0  0
   -0.0318    2.0531   -0.6150 C   0  0  0  0  0  0  0  0  0  0  0  0
    1.0648    1.2505   -0.9611 O   0  0  0  0  0  0  0  0  0  0  0  0
    0.8635    0.0563   -0.2685 C   0  0  0  0  0  0  0  0  0  0  0  0
    1.9089   -0.3982    0.6886 C   0  0  0  0  0  0  0  0  0  0  0  0
    0.1564   -1.0739   -1.0046 C   0  0  0  0  0  0  0  0  0  0  0  0
    0.4307   -2.3720   -0.6197 O   0  0  0  0  0  0  0  0  0  0  0  0
   -2.2488   -0.2302    1.2794 H   0  0  0  0  0  0  0  0  0  0  0  0
   -1.3082   -1.7317    1.2608 H   0  0  0  0  0  0  0  0  0  0  0  0
   -0.6751   -0.2278    2.0939 H   0  0  0  0  0  0  0  0  0  0  0  0
   -1.5391    0.9358   -1.7159 H   0  0  0  0  0  0  0  0  0  0  0  0
   -2.0636    1.4349   -0.0984 H   0  0  0  0  0  0  0  0  0  0  0  0
   -0.2249    2.8495   -1.3410 H   0  0  0  0  0  0  0  0  0  0  0  0
    0.1368    2.3901    0.4122 H   0  0  0  0  0  0  0  0  0  0  0  0
    2.0714    0.3492    1.5026 H   0  0  0  0  0  0  0  0  0  0  0  0
    2.8985   -0.4283    0.1433 H   0  0  0  0  0  0  0  0  0  0  0  0
    1.6598   -1.3953    1.0770 H   0  0  0  0  0  0  0  0  0  0  0  0
    0.1474   -0.9271   -2.1010 H   0  0  0  0  0  0  0  0  0  0  0  0
   -0.2781   -2.8197   -0.1300 H   0  0  0  0  0  0  0  0  0  0  0  0
  1  2  1  0
  2  3  1  0
  3  4  1  0
  4  5  1  0
  5  6  1  0
  6  7  1  0
  6  8  1  0
  8  9  1  0
  6  2  1  0
  8  2  1  0
  1 10  1  0
  1 11  1  0
  1 12  1  0
  3 13  1  0
  3 14  1  0
  4 15  1  0
  4 16  1  0
  7 17  1  0
  7 18  1  0
  7 19  1  0
  8 20  1  0
  9 21  1  0
M  END
