
     RDKit          3D

 19 20  0  0  0  0  0  0  0  0999 V2000
    2.1030    0.9000   -0.2444 C   0  0  0  0  0  0  0  0  0  0  0  0
    0.7694    0.1904   -0.0231 C   0  0  0  0  0  0  0  0  0  0  0  0
   -0.1438    0.9743    0.8439 C   0  0  0  0  0  0  0  0  0  0  0  0
   -1.4952    1.0072    0.2155 C   0  0  0  0  0  0  0  0  0  0  0  0
   -1.8626   -0.0711   -0.4443 C   0  0  0  0  0  0  0  0  0  0  0  0
   -0.8213   -1.0207   -0.8858 C   0  0  0  0  0  0  0  0  0  0  0  0
   -0.1822   -1.7637    0.2672 C   0  0  0  0  0  0  0  0  0  0  0  0
    0.9883   -1.0733    0.5635 O   0  0  0  0  0  0  0  0  0  0  0  0
    0.2621   -0.1851   -1.2566 O   0  0  0  0  0  0  0  0  0  0  0  0
    2.0705    1.5306   -1.1746 H   0  0  0  0  0  0  0  0  0  0  0  0
    2.8490    0.0985   -0.4241 H   0  0  0  0  0  0  0  0  0  0  0  0
    2.4149    1.4763    0.6440 H   0  0  0  0  0  0  0  0  0  0  0  0
    0.2138    2.0233    1.0382 H   0  0  0  0  0  0  0  0  0  0  0  0
   -0.2612    0.4916    1.8576 H   0  0  0  0  0  0  0  0  0  0  0  0
   -2.1462    1.8953    0.3054 H   0  0  0  0  0  0  0  0  0  0  0  0
   -2.8843   -0.2732   -0.6659 H   0  0  0  0  0  0  0  0  0  0  0  0
   -1.1248   -1.6747   -1.7022 H   0  0  0  0  0  0  0  0  0  0  0  0
    0.0752   -2.7703   -0.0871 H   0  0  0  0  0  0  0  0  0  0  0  0
   -0.8245   -1.7554    1.1726 H   0  0  0  0  0  0  0  0  0  0  0  0
  1  2  1  0
  2  3  1  0
  3  4  1  0
  4  5  2  0
  5  6  1  0
  6  7  1  0
  7  8  1  0
  6  9  1  0
  8  2  1  0
  9  2  1  0
  1 10  1  0
  1 11  1  0
  1 12  1  0
  3 13  1  0
  3 14  1  0
  4 15  1  0
  5 16  1  0
  6 17  1  0
  7 18  1  0
  7 19  1  0
M  END
