
     RDKit          3D

 16 17  0  0  0  0  0  0  0  0999 V2000
   -1.8778    0.2002   -0.0025 C   0  0  0  0  0  0  0  0  0  0  0  0
   -0.4665    0.0389   -0.0963 C   0  0  0  0  0  0  0  0  0  0  0  0
    0.1450   -1.1387   -0.7800 C   0  0  0  0  0  0  0  0  0  0  0  0
    1.4521   -0.9199   -0.6036 C   0  0  0  0  0  0  0  0  0  0  0  0
    1.4799    0.3492    0.1486 C   0  0  0  0  0  0  0  0  0  0  0  0
    0.3912    0.0673    1.1825 C   0  0  0  0  0  0  0  0  0  0  0  0
    0.4273    1.1292   -0.5487 C   0  0  0  0  0  0  0  0  0  0  0  0
    0.3178    2.1459   -1.1789 O   0  0  0  0  0  0  0  0  0  0  0  0
   -2.4589   -0.4088   -0.7286 H   0  0  0  0  0  0  0  0  0  0  0  0
   -2.2391    1.2569   -0.1266 H   0  0  0  0  0  0  0  0  0  0  0  0
   -2.2773   -0.1058    1.0082 H   0  0  0  0  0  0  0  0  0  0  0  0
   -0.3438   -1.9682   -1.2935 H   0  0  0  0  0  0  0  0  0  0  0  0
    2.3231   -1.4784   -0.9029 H   0  0  0  0  0  0  0  0  0  0  0  0
    2.3760    0.7984    0.4535 H   0  0  0  0  0  0  0  0  0  0  0  0
    0.5318   -0.9064    1.6549 H   0  0  0  0  0  0  0  0  0  0  0  0
    0.2192    0.9400    1.8138 H   0  0  0  0  0  0  0  0  0  0  0  0
  1  2  1  0
  2  3  1  0
  3  4  2  0
  4  5  1  0
  5  6  1  0
  5  7  1  0
  7  8  2  0
  6  2  1  0
  7  2  1  0
  1  9  1  0
  1 10  1  0
  1 11  1  0
  3 12  1  0
  4 13  1  0
  5 14  1  0
  6 15  1  0
  6 16  1  0
M  END
