
     RDKit          3D

 21 22  0  0  0  0  0  0  0  0999 V2000
   -2.1568   -0.2096    0.4356 C   0  0  0  0  0  0  0  0  0  0  0  0
   -0.6803   -0.2027    0.1972 C   0  0  0  0  0  0  0  0  0  0  0  0
   -0.3461    1.0271   -0.6191 C   0  0  0  0  0  0  0  0  0  0  0  0
    0.8734    1.5685    0.1349 C   0  0  0  0  0  0  0  0  0  0  0  0
    1.3233    0.2743    0.8291 C   0  0  0  0  0  0  0  0  0  0  0  0
    1.7772   -0.6598   -0.2581 C   0  0  0  0  0  0  0  0  0  0  0  0
    0.9944   -1.8303   -0.2960 O   0  0  0  0  0  0  0  0  0  0  0  0
   -0.3199   -1.4841   -0.5225 C   0  0  0  0  0  0  0  0  0  0  0  0
    0.0774   -0.1483    1.3512 O   0  0  0  0  0  0  0  0  0  0  0  0
   -2.5276   -1.2695    0.4832 H   0  0  0  0  0  0  0  0  0  0  0  0
   -2.6361    0.1996   -0.5013 H   0  0  0  0  0  0  0  0  0  0  0  0
   -2.4819    0.3775    1.2992 H   0  0  0  0  0  0  0  0  0  0  0  0
   -1.1467    1.7994   -0.5708 H   0  0  0  0  0  0  0  0  0  0  0  0
   -0.0610    0.7770   -1.6663 H   0  0  0  0  0  0  0  0  0  0  0  0
    1.6888    1.8471   -0.5366 H   0  0  0  0  0  0  0  0  0  0  0  0
    0.5934    2.3366    0.8712 H   0  0  0  0  0  0  0  0  0  0  0  0
    2.0577    0.4583    1.6099 H   0  0  0  0  0  0  0  0  0  0  0  0
    1.6854   -0.2185   -1.2797 H   0  0  0  0  0  0  0  0  0  0  0  0
    2.8520   -0.9080   -0.1382 H   0  0  0  0  0  0  0  0  0  0  0  0
   -0.6210   -1.4464   -1.5670 H   0  0  0  0  0  0  0  0  0  0  0  0
   -0.9457   -2.2881   -0.0351 H   0  0  0  0  0  0  0  0  0  0  0  0
  1  2  1  0
  2  3  1  0
  3  4  1  0
  4  5  1  0
  5  6  1  0
  6  7  1  0
  7  8  1  0
  5  9  1  0
  8  2  1  0
  9  2  1  0
  1 10  1  0
  1 11  1  0
  1 12  1  0
  3 13  1  0
  3 14  1  0
  4 15  1  0
  4 16  1  0
  5 17  1  0
  6 18  1  0
  6 19  1  0
  8 20  1  0
  8 21  1  0
M  END
