
     RDKit          3D

 17 19  0  0  0  0  0  0  0  0999 V2000
   -2.0545    0.3395    0.3740 C   0  0  0  0  0  0  0  0  0  0  0  0
   -0.8322   -0.1215   -0.2864 C   0  0  0  0  0  0  0  0  0  0  0  0
   -1.0031   -1.3355   -1.0364 O   0  0  0  0  0  0  0  0  0  0  0  0
   -0.0851   -1.3401   -0.0183 C   0  0  0  0  0  0  0  0  0  0  0  0
    1.3361   -0.9390   -0.4003 C   0  0  0  0  0  0  0  0  0  0  0  0
    1.8453    0.0313    0.5875 C   0  0  0  0  0  0  0  0  0  0  0  0
    1.1821    1.1725    0.3409 C   0  0  0  0  0  0  0  0  0  0  0  0
    0.2424    0.8296   -0.7606 C   0  0  0  0  0  0  0  0  0  0  0  0
    1.0587   -0.0741   -1.4885 O   0  0  0  0  0  0  0  0  0  0  0  0
   -2.9954   -0.1710    0.0191 H   0  0  0  0  0  0  0  0  0  0  0  0
   -2.2289    1.4244    0.1083 H   0  0  0  0  0  0  0  0  0  0  0  0
   -2.0769    0.2962    1.4667 H   0  0  0  0  0  0  0  0  0  0  0  0
   -0.2085   -1.9714    0.8718 H   0  0  0  0  0  0  0  0  0  0  0  0
    1.9801   -1.7565   -0.6481 H   0  0  0  0  0  0  0  0  0  0  0  0
    2.5975   -0.1507    1.3482 H   0  0  0  0  0  0  0  0  0  0  0  0
    1.3461    2.1049    0.8681 H   0  0  0  0  0  0  0  0  0  0  0  0
   -0.1034    1.6613   -1.3459 H   0  0  0  0  0  0  0  0  0  0  0  0
  1  2  1  0
  2  3  1  0
  3  4  1  0
  4  5  1  0
  5  6  1  0
  6  7  2  0
  7  8  1  0
  8  9  1  0
  4  2  1  0
  9  5  1  0
  8  2  1  0
  1 10  1  0
  1 11  1  0
  1 12  1  0
  4 13  1  0
  5 14  1  0
  6 15  1  0
  7 16  1  0
  8 17  1  0
M  END
