
     RDKit          3D

 16 17  0  0  0  0  0  0  0  0999 V2000
   -1.7514    0.7106    0.0630 C   0  0  0  0  0  0  0  0  0  0  0  0
   -0.4914   -0.0535    0.2846 C   0  0  0  0  0  0  0  0  0  0  0  0
   -0.3866   -1.4449   -0.3408 C   0  0  0  0  0  0  0  0  0  0  0  0
    1.0653   -1.1030   -0.6398 C   0  0  0  0  0  0  0  0  0  0  0  0
    0.8120    0.2305    0.0345 C   0  0  0  0  0  0  0  0  0  0  0  0
    1.5105    1.4278   -0.4053 C   0  0  0  0  0  0  0  0  0  0  0  0
    1.6718    2.3617    0.3524 O   0  0  0  0  0  0  0  0  0  0  0  0
    0.3542    0.2161    1.3300 O   0  0  0  0  0  0  0  0  0  0  0  0
   -1.9659    0.7471   -1.0297 H   0  0  0  0  0  0  0  0  0  0  0  0
   -1.6648    1.7022    0.5220 H   0  0  0  0  0  0  0  0  0  0  0  0
   -2.6062    0.1822    0.5511 H   0  0  0  0  0  0  0  0  0  0  0  0
   -1.0366   -1.5210   -1.2216 H   0  0  0  0  0  0  0  0  0  0  0  0
   -0.4322   -2.2538    0.4004 H   0  0  0  0  0  0  0  0  0  0  0  0
    1.2220   -0.9923   -1.7240 H   0  0  0  0  0  0  0  0  0  0  0  0
    1.8013   -1.7230   -0.0963 H   0  0  0  0  0  0  0  0  0  0  0  0
    1.8979    1.5134   -1.4053 H   0  0  0  0  0  0  0  0  0  0  0  0
  1  2  1  0
  2  3  1  0
  3  4  1  0
  4  5  1  0
  5  6  1  0
  6  7  2  0
  5  8  1  0
  5  2  1  0
  8  2  1  0
  1  9  1  0
  1 10  1  0
  1 11  1  0
  3 12  1  0
  3 13  1  0
  4 14  1  0
  4 15  1  0
  6 16  1  0
M  END
