
     RDKit          3D

 19 21  0  0  0  0  0  0  0  0999 V2000
    1.9829   -0.1036    0.2129 C   0  0  0  0  0  0  0  0  0  0  0  0
    0.5890   -0.0383   -0.0015 C   0  0  0  0  0  0  0  0  0  0  0  0
   -0.2917   -1.0983    0.6954 C   0  0  0  0  0  0  0  0  0  0  0  0
   -1.5451   -0.6434   -0.0893 C   0  0  0  0  0  0  0  0  0  0  0  0
   -1.0318   -1.0562   -1.3509 O   0  0  0  0  0  0  0  0  0  0  0  0
    0.0134   -0.0882   -1.3807 C   0  0  0  0  0  0  0  0  0  0  0  0
   -0.8742    1.0211   -1.4818 O   0  0  0  0  0  0  0  0  0  0  0  0
   -1.4551    0.8333   -0.1988 C   0  0  0  0  0  0  0  0  0  0  0  0
   -0.1687    1.1737    0.5842 C   0  0  0  0  0  0  0  0  0  0  0  0
    2.3183    0.5774    1.0494 H   0  0  0  0  0  0  0  0  0  0  0  0
    2.5781    0.2105   -0.6749 H   0  0  0  0  0  0  0  0  0  0  0  0
    2.3641   -1.1180    0.5351 H   0  0  0  0  0  0  0  0  0  0  0  0
    0.0098   -2.1061    0.4176 H   0  0  0  0  0  0  0  0  0  0  0  0
   -0.3941   -0.8985    1.7623 H   0  0  0  0  0  0  0  0  0  0  0  0
   -2.4422   -1.1000    0.2056 H   0  0  0  0  0  0  0  0  0  0  0  0
    0.6811   -0.1907   -2.1977 H   0  0  0  0  0  0  0  0  0  0  0  0
   -2.2849    1.4343    0.0202 H   0  0  0  0  0  0  0  0  0  0  0  0
   -0.3110    1.0771    1.6581 H   0  0  0  0  0  0  0  0  0  0  0  0
    0.2621    2.1140    0.2348 H   0  0  0  0  0  0  0  0  0  0  0  0
  1  2  1  0
  2  3  1  0
  3  4  1  0
  4  5  1  0
  5  6  1  0
  6  7  1  0
  7  8  1  0
  8  9  1  0
  6  2  1  0
  9  2  1  0
  8  4  1  0
  1 10  1  0
  1 11  1  0
  1 12  1  0
  3 13  1  0
  3 14  1  0
  4 15  1  0
  6 16  1  0
  8 17  1  0
  9 18  1  0
  9 19  1  0
M  END
