
     RDKit          3D

 19 20  0  0  0  0  0  0  0  0999 V2000
    0.7842    1.5372   -0.1072 C   0  0  0  0  0  0  0  0  0  0  0  0
    0.2033    0.2761    0.4217 C   0  0  0  0  0  0  0  0  0  0  0  0
   -1.0408    0.4406    1.2271 C   0  0  0  0  0  0  0  0  0  0  0  0
   -1.8933   -0.6118    0.8532 O   0  0  0  0  0  0  0  0  0  0  0  0
   -1.7164   -0.6896   -0.5235 C   0  0  0  0  0  0  0  0  0  0  0  0
   -0.2423   -0.5979   -0.7558 C   0  0  0  0  0  0  0  0  0  0  0  0
    0.4347   -1.7857   -0.4540 O   0  0  0  0  0  0  0  0  0  0  0  0
    1.6618   -1.2444   -0.0037 C   0  0  0  0  0  0  0  0  0  0  0  0
    1.1919   -0.4675    1.0729 O   0  0  0  0  0  0  0  0  0  0  0  0
    1.7805    1.7456    0.3601 H   0  0  0  0  0  0  0  0  0  0  0  0
    0.9877    1.4821   -1.2084 H   0  0  0  0  0  0  0  0  0  0  0  0
    0.0982    2.3866    0.0297 H   0  0  0  0  0  0  0  0  0  0  0  0
   -0.8727    0.3242    2.3286 H   0  0  0  0  0  0  0  0  0  0  0  0
   -1.5314    1.4062    0.9785 H   0  0  0  0  0  0  0  0  0  0  0  0
   -2.1114   -1.6163   -0.9614 H   0  0  0  0  0  0  0  0  0  0  0  0
   -2.1910    0.1849   -1.0120 H   0  0  0  0  0  0  0  0  0  0  0  0
    0.0521   -0.1831   -1.7195 H   0  0  0  0  0  0  0  0  0  0  0  0
    2.3728   -2.0084    0.2969 H   0  0  0  0  0  0  0  0  0  0  0  0
    2.0321   -0.5788   -0.8233 H   0  0  0  0  0  0  0  0  0  0  0  0
  1  2  1  0
  2  3  1  0
  3  4  1  0
  4  5  1  0
  5  6  1  0
  6  7  1  0
  7  8  1  0
  8  9  1  0
  6  2  1  0
  9  2  1  0
  1 10  1  0
  1 11  1  0
  1 12  1  0
  3 13  1  0
  3 14  1  0
  5 15  1  0
  5 16  1  0
  6 17  1  0
  8 18  1  0
  8 19  1  0
M  END
