
     RDKit          3D

 18 19  0  0  0  0  0  0  0  0999 V2000
    2.1434    0.0301   -0.3554 C   0  0  0  0  0  0  0  0  0  0  0  0
    0.7210   -0.2091   -0.1745 C   0  0  0  0  0  0  0  0  0  0  0  0
   -0.2543    0.8654   -0.6703 C   0  0  0  0  0  0  0  0  0  0  0  0
   -1.5432    0.1040   -0.3073 C   0  0  0  0  0  0  0  0  0  0  0  0
   -2.2851    0.7928    0.6293 O   0  0  0  0  0  0  0  0  0  0  0  0
   -0.8768   -1.1250    0.2832 C   0  0  0  0  0  0  0  0  0  0  0  0
    0.1987   -0.6039    1.1799 C   0  0  0  0  0  0  0  0  0  0  0  0
    0.1352   -1.3526   -0.6759 O   0  0  0  0  0  0  0  0  0  0  0  0
    2.4307   -0.1907   -1.4160 H   0  0  0  0  0  0  0  0  0  0  0  0
    2.7370   -0.5342    0.3780 H   0  0  0  0  0  0  0  0  0  0  0  0
    2.3441    1.1339   -0.2325 H   0  0  0  0  0  0  0  0  0  0  0  0
   -0.1465    0.9614   -1.7480 H   0  0  0  0  0  0  0  0  0  0  0  0
   -0.1355    1.7695   -0.0844 H   0  0  0  0  0  0  0  0  0  0  0  0
   -2.0996   -0.1933   -1.2005 H   0  0  0  0  0  0  0  0  0  0  0  0
   -2.6195    1.6140    0.2067 H   0  0  0  0  0  0  0  0  0  0  0  0
   -1.4795   -1.9479    0.5746 H   0  0  0  0  0  0  0  0  0  0  0  0
   -0.0839    0.2605    1.8329 H   0  0  0  0  0  0  0  0  0  0  0  0
    0.8138   -1.3748    1.6353 H   0  0  0  0  0  0  0  0  0  0  0  0
  1  2  1  0
  2  3  1  0
  3  4  1  0
  4  5  1  0
  4  6  1  0
  6  7  1  0
  6  8  1  0
  7  2  1  0
  8  2  1  0
  1  9  1  0
  1 10  1  0
  1 11  1  0
  3 12  1  0
  3 13  1  0
  4 14  1  0
  5 15  1  0
  6 16  1  0
  7 17  1  0
  7 18  1  0
M  END
