
     RDKit          3D

 18 19  0  0  0  0  0  0  0  0999 V2000
    2.0831   -0.1542   -0.0840 C   0  0  0  0  0  0  0  0  0  0  0  0
    0.6784    0.1108   -0.0359 C   0  0  0  0  0  0  0  0  0  0  0  0
    0.1436    1.4730    0.1760 C   0  0  0  0  0  0  0  0  0  0  0  0
   -1.1986    1.2663    0.1465 C   0  0  0  0  0  0  0  0  0  0  0  0
   -1.3033   -0.1858   -0.0743 C   0  0  0  0  0  0  0  0  0  0  0  0
   -2.4516   -0.8112   -0.1705 O   0  0  0  0  0  0  0  0  0  0  0  0
   -0.2313   -0.3999   -1.1547 C   0  0  0  0  0  0  0  0  0  0  0  0
   -0.2230   -0.7146    0.8753 C   0  0  0  0  0  0  0  0  0  0  0  0
    2.3253   -1.0155   -0.7395 H   0  0  0  0  0  0  0  0  0  0  0  0
    2.4703   -0.4537    0.9346 H   0  0  0  0  0  0  0  0  0  0  0  0
    2.6713    0.7130   -0.3957 H   0  0  0  0  0  0  0  0  0  0  0  0
    0.6596    2.4173    0.3214 H   0  0  0  0  0  0  0  0  0  0  0  0
   -1.9715    2.0254    0.2630 H   0  0  0  0  0  0  0  0  0  0  0  0
   -2.8706   -1.0173    0.6759 H   0  0  0  0  0  0  0  0  0  0  0  0
   -0.0567   -1.4474   -1.4033 H   0  0  0  0  0  0  0  0  0  0  0  0
   -0.3813    0.3066   -1.9794 H   0  0  0  0  0  0  0  0  0  0  0  0
   -0.2417   -0.3032    1.8798 H   0  0  0  0  0  0  0  0  0  0  0  0
   -0.1019   -1.8097    0.7646 H   0  0  0  0  0  0  0  0  0  0  0  0
  1  2  1  0
  2  3  1  0
  3  4  2  0
  4  5  1  0
  5  6  1  0
  5  7  1  0
  5  8  1  0
  7  2  1  0
  8  2  1  0
  1  9  1  0
  1 10  1  0
  1 11  1  0
  3 12  1  0
  4 13  1  0
  6 14  1  0
  7 15  1  0
  7 16  1  0
  8 17  1  0
  8 18  1  0
M  END
