
     RDKit          3D

 18 20  0  0  0  0  0  0  0  0999 V2000
    2.2319   -0.2998   -0.6167 C   0  0  0  0  0  0  0  0  0  0  0  0
    0.8130    0.0885   -0.4013 C   0  0  0  0  0  0  0  0  0  0  0  0
    0.4390    1.4181   -0.5354 O   0  0  0  0  0  0  0  0  0  0  0  0
   -0.7609    1.6179    0.0894 C   0  0  0  0  0  0  0  0  0  0  0  0
   -1.1082    0.3733    0.8700 C   0  0  0  0  0  0  0  0  0  0  0  0
   -1.6572   -0.6752   -0.0695 C   0  0  0  0  0  0  0  0  0  0  0  0
   -0.2749   -0.8979   -0.5779 C   0  0  0  0  0  0  0  0  0  0  0  0
    0.1873   -0.3773    0.8233 C   0  0  0  0  0  0  0  0  0  0  0  0
    2.7351   -0.5990    0.3504 H   0  0  0  0  0  0  0  0  0  0  0  0
    2.7909    0.5978   -0.9540 H   0  0  0  0  0  0  0  0  0  0  0  0
    2.3412   -1.1592   -1.2846 H   0  0  0  0  0  0  0  0  0  0  0  0
   -1.5364    1.8688   -0.6713 H   0  0  0  0  0  0  0  0  0  0  0  0
   -0.6477    2.5161    0.7526 H   0  0  0  0  0  0  0  0  0  0  0  0
   -1.5906    0.4935    1.8305 H   0  0  0  0  0  0  0  0  0  0  0  0
   -2.0154   -1.5453    0.5552 H   0  0  0  0  0  0  0  0  0  0  0  0
   -2.4018   -0.3389   -0.7898 H   0  0  0  0  0  0  0  0  0  0  0  0
   -0.0099   -1.9118   -0.8474 H   0  0  0  0  0  0  0  0  0  0  0  0
    0.4646   -1.1696    1.4766 H   0  0  0  0  0  0  0  0  0  0  0  0
  1  2  1  0
  2  3  1  0
  3  4  1  0
  4  5  1  0
  5  6  1  0
  6  7  1  0
  7  8  1  0
  7  2  1  0
  8  2  1  0
  8  5  1  0
  1  9  1  0
  1 10  1  0
  1 11  1  0
  4 12  1  0
  4 13  1  0
  5 14  1  0
  6 15  1  0
  6 16  1  0
  7 17  1  0
  8 18  1  0
M  END
