
     RDKit          3D

 21 23  0  0  0  0  0  0  0  0999 V2000
    0.2142   -1.6943    1.1638 C   0  0  0  0  0  0  0  0  0  0  0  0
    0.1317   -0.5994    0.0992 C   0  0  0  0  0  0  0  0  0  0  0  0
    1.2863   -0.5885   -0.8330 C   0  0  0  0  0  0  0  0  0  0  0  0
    1.6699    0.8382   -0.9681 C   0  0  0  0  0  0  0  0  0  0  0  0
    1.0274    1.5492   -0.0708 C   0  0  0  0  0  0  0  0  0  0  0  0
    0.1575    0.7451    0.7613 C   0  0  0  0  0  0  0  0  0  0  0  0
   -1.3251    0.8374    0.5106 C   0  0  0  0  0  0  0  0  0  0  0  0
   -1.8069    0.8374   -0.8911 C   0  0  0  0  0  0  0  0  0  0  0  0
   -1.2309   -0.4110   -0.4323 C   0  0  0  0  0  0  0  0  0  0  0  0
    0.0814   -1.2823    2.1801 H   0  0  0  0  0  0  0  0  0  0  0  0
    1.2202   -2.1449    1.1216 H   0  0  0  0  0  0  0  0  0  0  0  0
   -0.5285   -2.4850    0.9312 H   0  0  0  0  0  0  0  0  0  0  0  0
    1.0546   -0.9743   -1.8448 H   0  0  0  0  0  0  0  0  0  0  0  0
    2.1588   -1.1164   -0.3830 H   0  0  0  0  0  0  0  0  0  0  0  0
    2.3978    1.2393   -1.7238 H   0  0  0  0  0  0  0  0  0  0  0  0
    1.1786    2.6477   -0.0078 H   0  0  0  0  0  0  0  0  0  0  0  0
    0.4304    0.7578    1.8294 H   0  0  0  0  0  0  0  0  0  0  0  0
   -1.9686    0.6971    1.3766 H   0  0  0  0  0  0  0  0  0  0  0  0
   -2.9092    0.9072   -0.9948 H   0  0  0  0  0  0  0  0  0  0  0  0
   -1.2824    1.4776   -1.6396 H   0  0  0  0  0  0  0  0  0  0  0  0
   -1.9571   -1.2378   -0.1847 H   0  0  0  0  0  0  0  0  0  0  0  0
  1  2  1  0
  2  3  1  0
  3  4  1  0
  4  5  2  0
  5  6  1  0
  6  7  1  0
  7  8  1  0
  8  9  1  0
  6  2  1  0
  9  7  1  0
  9  2  1  0
  1 10  1  0
  1 11  1  0
  1 12  1  0
  3 13  1  0
  3 14  1  0
  4 15  1  0
  5 16  1  0
  6 17  1  0
  7 18  1  0
  8 19  1  0
  8 20  1  0
  9 21  1  0
M  END
