
     RDKit          3D

 17 18  0  0  0  0  0  0  0  0999 V2000
    2.0820   -0.2112   -0.2061 C   0  0  0  0  0  0  0  0  0  0  0  0
    0.5976   -0.0548   -0.1838 C   0  0  0  0  0  0  0  0  0  0  0  0
   -0.1979   -1.2760    0.1462 C   0  0  0  0  0  0  0  0  0  0  0  0
   -1.5227   -0.9581    0.3251 O   0  0  0  0  0  0  0  0  0  0  0  0
   -1.9635    0.1115   -0.4233 C   0  0  0  0  0  0  0  0  0  0  0  0
   -0.8737    1.1583   -0.4827 C   0  0  0  0  0  0  0  0  0  0  0  0
    0.1379    0.6095   -1.3060 O   0  0  0  0  0  0  0  0  0  0  0  0
    0.0710    1.0704    0.6381 C   0  0  0  0  0  0  0  0  0  0  0  0
    0.3923    1.5401    1.6910 O   0  0  0  0  0  0  0  0  0  0  0  0
    2.3417   -0.8185   -1.1045 H   0  0  0  0  0  0  0  0  0  0  0  0
    2.4840   -0.6193    0.7236 H   0  0  0  0  0  0  0  0  0  0  0  0
    2.5142    0.8076   -0.4165 H   0  0  0  0  0  0  0  0  0  0  0  0
    0.1803   -1.6493    1.1412 H   0  0  0  0  0  0  0  0  0  0  0  0
   -0.0436   -2.1206   -0.5546 H   0  0  0  0  0  0  0  0  0  0  0  0
   -2.1038   -0.2456   -1.4795 H   0  0  0  0  0  0  0  0  0  0  0  0
   -2.9141    0.4930   -0.0300 H   0  0  0  0  0  0  0  0  0  0  0  0
   -1.1818    2.1630   -0.7678 H   0  0  0  0  0  0  0  0  0  0  0  0
  1  2  1  0
  2  3  1  0
  3  4  1  0
  4  5  1  0
  5  6  1  0
  6  7  1  0
  6  8  1  0
  8  9  2  0
  7  2  1  0
  8  2  1  0
  1 10  1  0
  1 11  1  0
  1 12  1  0
  3 13  1  0
  3 14  1  0
  5 15  1  0
  5 16  1  0
  6 17  1  0
M  END
