
     RDKit          3D

 19 21  0  0  0  0  0  0  0  0999 V2000
   -2.4410   -0.5563   -0.4077 C   0  0  0  0  0  0  0  0  0  0  0  0
   -1.0639   -0.4006    0.1909 C   0  0  0  0  0  0  0  0  0  0  0  0
   -0.8235    0.9594    0.8025 C   0  0  0  0  0  0  0  0  0  0  0  0
    0.6410    1.2038    0.5933 C   0  0  0  0  0  0  0  0  0  0  0  0
    1.4421    0.4358    1.4498 O   0  0  0  0  0  0  0  0  0  0  0  0
    1.2819   -0.0700    0.1732 C   0  0  0  0  0  0  0  0  0  0  0  0
    2.5279   -0.0936   -0.6549 C   0  0  0  0  0  0  0  0  0  0  0  0
    0.1261   -0.9515   -0.1715 C   0  0  0  0  0  0  0  0  0  0  0  0
   -0.6083   -1.5340    0.8467 O   0  0  0  0  0  0  0  0  0  0  0  0
   -3.0638   -1.0680    0.3680 H   0  0  0  0  0  0  0  0  0  0  0  0
   -2.9404    0.4213   -0.5912 H   0  0  0  0  0  0  0  0  0  0  0  0
   -2.4254   -1.1382   -1.3322 H   0  0  0  0  0  0  0  0  0  0  0  0
   -1.0247    0.8387    1.9021 H   0  0  0  0  0  0  0  0  0  0  0  0
   -1.4851    1.7123    0.3963 H   0  0  0  0  0  0  0  0  0  0  0  0
    1.0230    2.1091    0.1359 H   0  0  0  0  0  0  0  0  0  0  0  0
    3.1662   -0.9663   -0.3444 H   0  0  0  0  0  0  0  0  0  0  0  0
    3.1153    0.8474   -0.5094 H   0  0  0  0  0  0  0  0  0  0  0  0
    2.2716   -0.2254   -1.7161 H   0  0  0  0  0  0  0  0  0  0  0  0
    0.2809   -1.5239   -1.1312 H   0  0  0  0  0  0  0  0  0  0  0  0
  1  2  1  0
  2  3  1  0
  3  4  1  0
  4  5  1  0
  5  6  1  0
  6  7  1  0
  6  8  1  0
  8  9  1  0
  8  2  1  0
  9  2  1  0
  6  4  1  0
  1 10  1  0
  1 11  1  0
  1 12  1  0
  3 13  1  0
  3 14  1  0
  4 15  1  0
  7 16  1  0
  7 17  1  0
  7 18  1  0
  8 19  1  0
M  END
