
     RDKit          3D

 19 20  0  0  0  0  0  0  0  0999 V2000
   -1.6091    0.1888    0.9740 C   0  0  0  0  0  0  0  0  0  0  0  0
   -0.7133   -0.0947   -0.1970 C   0  0  0  0  0  0  0  0  0  0  0  0
   -0.5274   -1.4981   -0.6784 C   0  0  0  0  0  0  0  0  0  0  0  0
    0.9681   -1.2381   -0.8242 C   0  0  0  0  0  0  0  0  0  0  0  0
    0.7492    0.0582   -0.1269 C   0  0  0  0  0  0  0  0  0  0  0  0
    1.4707    0.4674    1.0553 C   0  0  0  0  0  0  0  0  0  0  0  0
    2.3518   -0.2191    1.5265 O   0  0  0  0  0  0  0  0  0  0  0  0
   -0.0877    1.0564   -0.8575 C   0  0  0  0  0  0  0  0  0  0  0  0
   -0.1935    2.2826   -0.2400 O   0  0  0  0  0  0  0  0  0  0  0  0
   -1.3485   -0.3780    1.8843 H   0  0  0  0  0  0  0  0  0  0  0  0
   -1.5913    1.2472    1.2161 H   0  0  0  0  0  0  0  0  0  0  0  0
   -2.6445   -0.0968    0.7037 H   0  0  0  0  0  0  0  0  0  0  0  0
   -0.6852   -2.2784    0.0964 H   0  0  0  0  0  0  0  0  0  0  0  0
   -1.0304   -1.7367   -1.6521 H   0  0  0  0  0  0  0  0  0  0  0  0
    1.2518   -1.0380   -1.8994 H   0  0  0  0  0  0  0  0  0  0  0  0
    1.6143   -1.9552   -0.3116 H   0  0  0  0  0  0  0  0  0  0  0  0
    1.2448    1.3966    1.5520 H   0  0  0  0  0  0  0  0  0  0  0  0
    0.1053    1.0928   -1.9482 H   0  0  0  0  0  0  0  0  0  0  0  0
    0.6749    2.7430   -0.2729 H   0  0  0  0  0  0  0  0  0  0  0  0
  1  2  1  0
  2  3  1  0
  3  4  1  0
  4  5  1  0
  5  6  1  0
  6  7  2  0
  5  8  1  0
  8  9  1  0
  5  2  1  0
  8  2  1  0
  1 10  1  0
  1 11  1  0
  1 12  1  0
  3 13  1  0
  3 14  1  0
  4 15  1  0
  4 16  1  0
  6 17  1  0
  8 18  1  0
  9 19  1  0
M  END
