
     RDKit          3D

 20 21  0  0  0  0  0  0  0  0999 V2000
    1.8767    0.4443   -0.6729 C   0  0  0  0  0  0  0  0  0  0  0  0
    0.5966    0.1254   -0.0575 C   0  0  0  0  0  0  0  0  0  0  0  0
   -0.4002    1.2648    0.0437 C   0  0  0  0  0  0  0  0  0  0  0  0
   -1.7354    0.5316    0.2622 C   0  0  0  0  0  0  0  0  0  0  0  0
   -1.3459   -0.9331    0.2447 C   0  0  0  0  0  0  0  0  0  0  0  0
   -0.2636   -0.8770   -0.8500 C   0  0  0  0  0  0  0  0  0  0  0  0
   -0.6257   -1.1817    1.3975 O   0  0  0  0  0  0  0  0  0  0  0  0
    0.6501   -0.6507    1.2422 C   0  0  0  0  0  0  0  0  0  0  0  0
    2.0614   -0.2369   -1.5365 H   0  0  0  0  0  0  0  0  0  0  0  0
    1.9485    1.4934   -1.0856 H   0  0  0  0  0  0  0  0  0  0  0  0
    2.7762    0.3180   -0.0077 H   0  0  0  0  0  0  0  0  0  0  0  0
   -0.1974    1.9416    0.8841 H   0  0  0  0  0  0  0  0  0  0  0  0
   -0.4607    1.7583   -0.9294 H   0  0  0  0  0  0  0  0  0  0  0  0
   -2.4205    0.6947   -0.5991 H   0  0  0  0  0  0  0  0  0  0  0  0
   -2.1847    0.7819    1.2251 H   0  0  0  0  0  0  0  0  0  0  0  0
   -2.1386   -1.6160    0.0230 H   0  0  0  0  0  0  0  0  0  0  0  0
    0.2425   -1.8295   -0.9768 H   0  0  0  0  0  0  0  0  0  0  0  0
   -0.6984   -0.4294   -1.7365 H   0  0  0  0  0  0  0  0  0  0  0  0
    1.3216   -1.5317    1.0388 H   0  0  0  0  0  0  0  0  0  0  0  0
    0.9976   -0.0682    2.0906 H   0  0  0  0  0  0  0  0  0  0  0  0
  1  2  1  0
  2  3  1  0
  3  4  1  0
  4  5  1  0
  5  6  1  0
  5  7  1  0
  7  8  1  0
  6  2  1  0
  8  2  1  0
  1  9  1  0
  1 10  1  0
  1 11  1  0
  3 12  1  0
  3 13  1  0
  4 14  1  0
  4 15  1  0
  5 16  1  0
  6 17  1  0
  6 18  1  0
  8 19  1  0
  8 20  1  0
M  END
