
     RDKit          3D

 21 23  0  0  0  0  0  0  0  0999 V2000
   -2.3617   -0.6297    0.2407 C   0  0  0  0  0  0  0  0  0  0  0  0
   -0.9913   -0.1249    0.0431 C   0  0  0  0  0  0  0  0  0  0  0  0
   -0.6197    1.0227   -0.8394 C   0  0  0  0  0  0  0  0  0  0  0  0
    0.4184    1.4594    0.1594 C   0  0  0  0  0  0  0  0  0  0  0  0
    1.8309    1.0683   -0.1465 C   0  0  0  0  0  0  0  0  0  0  0  0
    2.2039   -0.1661   -0.4100 C   0  0  0  0  0  0  0  0  0  0  0  0
    1.1941   -1.2402   -0.4114 C   0  0  0  0  0  0  0  0  0  0  0  0
    0.1224   -0.9779    0.5677 C   0  0  0  0  0  0  0  0  0  0  0  0
   -0.0933    0.3621    1.0780 C   0  0  0  0  0  0  0  0  0  0  0  0
   -2.3925   -1.7027   -0.0641 H   0  0  0  0  0  0  0  0  0  0  0  0
   -3.1511   -0.0654   -0.2926 H   0  0  0  0  0  0  0  0  0  0  0  0
   -2.5670   -0.6506    1.3525 H   0  0  0  0  0  0  0  0  0  0  0  0
   -0.1758    0.7489   -1.8189 H   0  0  0  0  0  0  0  0  0  0  0  0
   -1.4389    1.7702   -0.8794 H   0  0  0  0  0  0  0  0  0  0  0  0
    0.2998    2.4441    0.6053 H   0  0  0  0  0  0  0  0  0  0  0  0
    2.5807    1.8483   -0.1493 H   0  0  0  0  0  0  0  0  0  0  0  0
    3.2622   -0.4224   -0.6322 H   0  0  0  0  0  0  0  0  0  0  0  0
    0.7360   -1.2988   -1.4469 H   0  0  0  0  0  0  0  0  0  0  0  0
    1.6540   -2.2508   -0.2867 H   0  0  0  0  0  0  0  0  0  0  0  0
   -0.1112   -1.8176    1.2475 H   0  0  0  0  0  0  0  0  0  0  0  0
   -0.3997    0.6232    2.0832 H   0  0  0  0  0  0  0  0  0  0  0  0
  1  2  1  0
  2  3  1  0
  3  4  1  0
  4  5  1  0
  5  6  2  0
  6  7  1  0
  7  8  1  0
  8  9  1  0
  8  2  1  0
  9  2  1  0
  9  4  1  0
  1 10  1  0
  1 11  1  0
  1 12  1  0
  3 13  1  0
  3 14  1  0
  4 15  1  0
  5 16  1  0
  6 17  1  0
  7 18  1  0
  7 19  1  0
  8 20  1  0
  9 21  1  0
M  END
