
     RDKit          3D

 17 18  0  0  0  0  0  0  0  0999 V2000
   -1.8470   -0.1946   -0.5858 C   0  0  0  0  0  0  0  0  0  0  0  0
   -0.5062   -0.0814    0.1152 C   0  0  0  0  0  0  0  0  0  0  0  0
    0.0171    1.3015    0.2338 C   0  0  0  0  0  0  0  0  0  0  0  0
    1.4886    1.1909    0.3572 C   0  0  0  0  0  0  0  0  0  0  0  0
    2.2000    2.0432    0.9337 O   0  0  0  0  0  0  0  0  0  0  0  0
    1.8493   -0.0515   -0.3062 C   0  0  0  0  0  0  0  0  0  0  0  0
    2.9912   -0.3552   -0.7134 O   0  0  0  0  0  0  0  0  0  0  0  0
    0.6488   -0.8959   -0.4206 C   0  0  0  0  0  0  0  0  0  0  0  0
   -0.0168   -1.2286    0.8734 C   0  0  0  0  0  0  0  0  0  0  0  0
   -2.2386    0.7772   -0.9206 H   0  0  0  0  0  0  0  0  0  0  0  0
   -2.5426   -0.6675    0.1660 H   0  0  0  0  0  0  0  0  0  0  0  0
   -1.8063   -0.8653   -1.4693 H   0  0  0  0  0  0  0  0  0  0  0  0
   -0.1908    1.8562   -0.7225 H   0  0  0  0  0  0  0  0  0  0  0  0
   -0.4046    1.8485    1.1105 H   0  0  0  0  0  0  0  0  0  0  0  0
    0.4196   -1.4317   -1.3454 H   0  0  0  0  0  0  0  0  0  0  0  0
   -0.6594   -2.1286    0.8923 H   0  0  0  0  0  0  0  0  0  0  0  0
    0.5976   -1.1172    1.8018 H   0  0  0  0  0  0  0  0  0  0  0  0
  1  2  1  0
  2  3  1  0
  3  4  1  0
  4  5  2  0
  4  6  1  0
  6  7  2  0
  6  8  1  0
  8  9  1  0
  8  2  1  0
  9  2  1  0
  1 10  1  0
  1 11  1  0
  1 12  1  0
  3 13  1  0
  3 14  1  0
  8 15  1  0
  9 16  1  0
  9 17  1  0
M  END
