
     RDKit          3D

 19 21  0  0  0  0  0  0  0  0999 V2000
    2.1366    0.2309   -0.0223 C   0  0  0  0  0  0  0  0  0  0  0  0
    0.6558    0.2231   -0.1319 C   0  0  0  0  0  0  0  0  0  0  0  0
   -0.1933    1.0238    0.8448 C   0  0  0  0  0  0  0  0  0  0  0  0
   -1.2831   -0.0136    0.5997 C   0  0  0  0  0  0  0  0  0  0  0  0
   -1.9789    0.3459   -0.6936 C   0  0  0  0  0  0  0  0  0  0  0  0
   -1.2342   -0.1727   -1.7295 O   0  0  0  0  0  0  0  0  0  0  0  0
    0.0199   -0.4981   -1.2572 C   0  0  0  0  0  0  0  0  0  0  0  0
   -0.1962   -0.9245    0.1218 C   0  0  0  0  0  0  0  0  0  0  0  0
    0.1279   -2.0915    0.6826 O   0  0  0  0  0  0  0  0  0  0  0  0
    2.5287    0.5136    0.9694 H   0  0  0  0  0  0  0  0  0  0  0  0
    2.5820   -0.7277   -0.3863 H   0  0  0  0  0  0  0  0  0  0  0  0
    2.5193    1.0218   -0.7300 H   0  0  0  0  0  0  0  0  0  0  0  0
   -0.4158    2.0169    0.4423 H   0  0  0  0  0  0  0  0  0  0  0  0
    0.1304    0.9654    1.9009 H   0  0  0  0  0  0  0  0  0  0  0  0
   -1.8851   -0.3031    1.4399 H   0  0  0  0  0  0  0  0  0  0  0  0
   -3.0291    0.0302   -0.7261 H   0  0  0  0  0  0  0  0  0  0  0  0
   -1.9885    1.4642   -0.8186 H   0  0  0  0  0  0  0  0  0  0  0  0
    0.6630   -1.0890   -1.8915 H   0  0  0  0  0  0  0  0  0  0  0  0
    0.8407   -2.0156    1.3858 H   0  0  0  0  0  0  0  0  0  0  0  0
  1  2  1  0
  2  3  1  0
  3  4  1  0
  4  5  1  0
  5  6  1  0
  6  7  1  0
  7  8  1  0
  8  9  1  0
  7  2  1  0
  8  2  1  0
  8  4  1  0
  1 10  1  0
  1 11  1  0
  1 12  1  0
  3 13  1  0
  3 14  1  0
  4 15  1  0
  5 16  1  0
  5 17  1  0
  7 18  1  0
  9 19  1  0
M  END
