
     RDKit          3D

 21 22  0  0  0  0  0  0  0  0999 V2000
    2.4531   -0.3330   -0.0903 C   0  0  0  0  0  0  0  0  0  0  0  0
    1.0158   -0.1073   -0.1396 C   0  0  0  0  0  0  0  0  0  0  0  0
    0.4966    1.2623   -0.5084 C   0  0  0  0  0  0  0  0  0  0  0  0
   -1.0014    0.9494   -0.3131 C   0  0  0  0  0  0  0  0  0  0  0  0
   -1.3808    1.5856    0.8468 O   0  0  0  0  0  0  0  0  0  0  0  0
   -0.8388   -0.5216   -0.0430 C   0  0  0  0  0  0  0  0  0  0  0  0
   -2.0153   -1.3685    0.0646 C   0  0  0  0  0  0  0  0  0  0  0  0
    0.1813   -0.5284    1.0658 C   0  0  0  0  0  0  0  0  0  0  0  0
    0.2108   -0.9472   -0.8875 O   0  0  0  0  0  0  0  0  0  0  0  0
    2.9699    0.5476    0.3056 H   0  0  0  0  0  0  0  0  0  0  0  0
    2.6861   -1.1838    0.5835 H   0  0  0  0  0  0  0  0  0  0  0  0
    2.8214   -0.5981   -1.1231 H   0  0  0  0  0  0  0  0  0  0  0  0
    0.6319    1.4611   -1.5767 H   0  0  0  0  0  0  0  0  0  0  0  0
    0.8380    2.0518    0.1568 H   0  0  0  0  0  0  0  0  0  0  0  0
   -1.5885    1.1919   -1.1898 H   0  0  0  0  0  0  0  0  0  0  0  0
   -1.0607    2.5399    0.7713 H   0  0  0  0  0  0  0  0  0  0  0  0
   -2.8047   -1.0348   -0.6161 H   0  0  0  0  0  0  0  0  0  0  0  0
   -1.7560   -2.4145   -0.2303 H   0  0  0  0  0  0  0  0  0  0  0  0
   -2.4103   -1.3317    1.1132 H   0  0  0  0  0  0  0  0  0  0  0  0
    0.4878   -1.5065    1.4360 H   0  0  0  0  0  0  0  0  0  0  0  0
    0.0638    0.2859    1.7999 H   0  0  0  0  0  0  0  0  0  0  0  0
  1  2  1  0
  2  3  1  0
  3  4  1  0
  4  5  1  0
  4  6  1  0
  6  7  1  0
  6  8  1  0
  6  9  1  0
  8  2  1  0
  9  2  1  0
  1 10  1  0
  1 11  1  0
  1 12  1  0
  3 13  1  0
  3 14  1  0
  4 15  1  0
  5 16  1  0
  7 17  1  0
  7 18  1  0
  7 19  1  0
  8 20  1  0
  8 21  1  0
M  END
