
     RDKit          3D

 19 20  0  0  0  0  0  0  0  0999 V2000
    1.9898    0.3071   -0.3973 C   0  0  0  0  0  0  0  0  0  0  0  0
    0.5700    0.0731   -0.0401 C   0  0  0  0  0  0  0  0  0  0  0  0
   -0.4112    0.8551   -0.8718 C   0  0  0  0  0  0  0  0  0  0  0  0
   -1.7904    0.3957   -0.5701 C   0  0  0  0  0  0  0  0  0  0  0  0
   -1.9618   -0.2914    0.5896 O   0  0  0  0  0  0  0  0  0  0  0  0
   -0.8200   -0.7877    1.1735 C   0  0  0  0  0  0  0  0  0  0  0  0
    0.1413   -1.3708    0.1283 C   0  0  0  0  0  0  0  0  0  0  0  0
    0.1971    0.2799    1.3881 C   0  0  0  0  0  0  0  0  0  0  0  0
    0.5012    0.9507    2.3383 O   0  0  0  0  0  0  0  0  0  0  0  0
    2.0349    0.5090   -1.5082 H   0  0  0  0  0  0  0  0  0  0  0  0
    2.6304   -0.5953   -0.2525 H   0  0  0  0  0  0  0  0  0  0  0  0
    2.4399    1.2053    0.0716 H   0  0  0  0  0  0  0  0  0  0  0  0
   -0.1641    0.6863   -1.9295 H   0  0  0  0  0  0  0  0  0  0  0  0
   -0.2823    1.9332   -0.6724 H   0  0  0  0  0  0  0  0  0  0  0  0
   -2.1587   -0.2417   -1.4258 H   0  0  0  0  0  0  0  0  0  0  0  0
   -2.4619    1.3043   -0.6113 H   0  0  0  0  0  0  0  0  0  0  0  0
   -1.0348   -1.4362    2.0156 H   0  0  0  0  0  0  0  0  0  0  0  0
   -0.3349   -1.8322   -0.7306 H   0  0  0  0  0  0  0  0  0  0  0  0
    0.9155   -1.9443    0.6568 H   0  0  0  0  0  0  0  0  0  0  0  0
  1  2  1  0
  2  3  1  0
  3  4  1  0
  4  5  1  0
  5  6  1  0
  6  7  1  0
  6  8  1  0
  8  9  2  0
  7  2  1  0
  8  2  1  0
  1 10  1  0
  1 11  1  0
  1 12  1  0
  3 13  1  0
  3 14  1  0
  4 15  1  0
  4 16  1  0
  6 17  1  0
  7 18  1  0
  7 19  1  0
M  END
