
     RDKit          3D

 19 21  0  0  0  0  0  0  0  0999 V2000
   -2.3251   -0.2586   -0.5991 C   0  0  0  0  0  0  0  0  0  0  0  0
   -0.9494    0.0960   -0.3282 C   0  0  0  0  0  0  0  0  0  0  0  0
   -0.6144    0.9741    0.8499 C   0  0  0  0  0  0  0  0  0  0  0  0
    0.5990    1.1917   -0.0605 C   0  0  0  0  0  0  0  0  0  0  0  0
   -0.3024    1.0376   -1.1264 O   0  0  0  0  0  0  0  0  0  0  0  0
    1.2894   -0.1142    0.0119 C   0  0  0  0  0  0  0  0  0  0  0  0
    2.5989   -0.4258    0.0977 C   0  0  0  0  0  0  0  0  0  0  0  0
    1.8398   -0.3348    1.3741 O   0  0  0  0  0  0  0  0  0  0  0  0
    0.0963   -1.0305   -0.2946 C   0  0  0  0  0  0  0  0  0  0  0  0
   -2.3803   -1.2237   -1.1621 H   0  0  0  0  0  0  0  0  0  0  0  0
   -2.9070   -0.4598    0.3475 H   0  0  0  0  0  0  0  0  0  0  0  0
   -2.8759    0.5350   -1.1462 H   0  0  0  0  0  0  0  0  0  0  0  0
   -1.2894    1.8326    0.8864 H   0  0  0  0  0  0  0  0  0  0  0  0
   -0.3823    0.4546    1.7866 H   0  0  0  0  0  0  0  0  0  0  0  0
    1.1213    2.1131    0.0314 H   0  0  0  0  0  0  0  0  0  0  0  0
    3.4044    0.3091    0.0817 H   0  0  0  0  0  0  0  0  0  0  0  0
    2.9817   -1.4777    0.0446 H   0  0  0  0  0  0  0  0  0  0  0  0
   -0.0937   -1.7473    0.5000 H   0  0  0  0  0  0  0  0  0  0  0  0
    0.1891   -1.4711   -1.2946 H   0  0  0  0  0  0  0  0  0  0  0  0
  1  2  1  0
  2  3  1  0
  3  4  1  0
  4  5  1  0
  4  6  1  0
  6  7  1  0
  7  8  1  0
  6  9  1  0
  5  2  1  0
  8  6  1  0
  9  2  1  0
  1 10  1  0
  1 11  1  0
  1 12  1  0
  3 13  1  0
  3 14  1  0
  4 15  1  0
  7 16  1  0
  7 17  1  0
  9 18  1  0
  9 19  1  0
M  END
