
     RDKit          3D

 19 20  0  0  0  0  0  0  0  0999 V2000
   -1.5072   -0.3449    1.2213 C   0  0  0  0  0  0  0  0  0  0  0  0
   -0.4642   -0.2205    0.1449 C   0  0  0  0  0  0  0  0  0  0  0  0
    0.3413   -1.4272   -0.2663 C   0  0  0  0  0  0  0  0  0  0  0  0
    1.6502   -1.3527    0.1539 O   0  0  0  0  0  0  0  0  0  0  0  0
    2.3152   -0.2160   -0.2089 C   0  0  0  0  0  0  0  0  0  0  0  0
    1.5521    0.8272   -0.6249 O   0  0  0  0  0  0  0  0  0  0  0  0
    0.3476    0.9916   -0.0082 C   0  0  0  0  0  0  0  0  0  0  0  0
   -0.8532    0.7808   -0.9449 C   0  0  0  0  0  0  0  0  0  0  0  0
   -1.9742    1.5646   -0.7597 O   0  0  0  0  0  0  0  0  0  0  0  0
   -2.4487   -0.6860    0.7091 H   0  0  0  0  0  0  0  0  0  0  0  0
   -1.2280   -1.0039    2.0480 H   0  0  0  0  0  0  0  0  0  0  0  0
   -1.6805    0.6931    1.6142 H   0  0  0  0  0  0  0  0  0  0  0  0
   -0.1017   -2.3389    0.1937 H   0  0  0  0  0  0  0  0  0  0  0  0
    0.2765   -1.5797   -1.3619 H   0  0  0  0  0  0  0  0  0  0  0  0
    2.9866    0.0699    0.6456 H   0  0  0  0  0  0  0  0  0  0  0  0
    3.0302   -0.4601   -1.0496 H   0  0  0  0  0  0  0  0  0  0  0  0
    0.2419    1.8839    0.6315 H   0  0  0  0  0  0  0  0  0  0  0  0
   -0.6674    0.4878   -1.9814 H   0  0  0  0  0  0  0  0  0  0  0  0
   -1.8166    2.3311   -0.1563 H   0  0  0  0  0  0  0  0  0  0  0  0
  1  2  1  0
  2  3  1  0
  3  4  1  0
  4  5  1  0
  5  6  1  0
  6  7  1  0
  7  8  1  0
  8  9  1  0
  7  2  1  0
  8  2  1  0
  1 10  1  0
  1 11  1  0
  1 12  1  0
  3 13  1  0
  3 14  1  0
  5 15  1  0
  5 16  1  0
  7 17  1  0
  8 18  1  0
  9 19  1  0
M  END
