
     RDKit          3D

 21 23  0  0  0  0  0  0  0  0999 V2000
    1.8670   -0.8999   -0.0773 C   0  0  0  0  0  0  0  0  0  0  0  0
    0.4885   -0.3569    0.0662 C   0  0  0  0  0  0  0  0  0  0  0  0
   -0.4725   -1.1444    0.9088 C   0  0  0  0  0  0  0  0  0  0  0  0
   -1.5056   -0.9828   -0.1779 C   0  0  0  0  0  0  0  0  0  0  0  0
   -1.5335    0.3681   -0.8528 C   0  0  0  0  0  0  0  0  0  0  0  0
   -1.0354    1.4557    0.1020 C   0  0  0  0  0  0  0  0  0  0  0  0
    0.4211    1.1356    0.1954 C   0  0  0  0  0  0  0  0  0  0  0  0
    1.0622    1.6534    1.2780 O   0  0  0  0  0  0  0  0  0  0  0  0
   -0.4497   -0.5730   -1.0926 C   0  0  0  0  0  0  0  0  0  0  0  0
    2.4025   -0.7631    0.8677 H   0  0  0  0  0  0  0  0  0  0  0  0
    1.8855   -1.9621   -0.3318 H   0  0  0  0  0  0  0  0  0  0  0  0
    2.3898   -0.3088   -0.8582 H   0  0  0  0  0  0  0  0  0  0  0  0
   -0.7420   -0.7168    1.8786 H   0  0  0  0  0  0  0  0  0  0  0  0
   -0.1400   -2.2108    0.9485 H   0  0  0  0  0  0  0  0  0  0  0  0
   -2.2574   -1.7347   -0.3726 H   0  0  0  0  0  0  0  0  0  0  0  0
   -2.2542    0.6088   -1.6210 H   0  0  0  0  0  0  0  0  0  0  0  0
   -1.2686    2.4622   -0.2536 H   0  0  0  0  0  0  0  0  0  0  0  0
   -1.4844    1.2475    1.1091 H   0  0  0  0  0  0  0  0  0  0  0  0
    0.9078    1.5599   -0.7278 H   0  0  0  0  0  0  0  0  0  0  0  0
    1.8771    2.1922    1.0229 H   0  0  0  0  0  0  0  0  0  0  0  0
   -0.1581   -1.0303   -2.0114 H   0  0  0  0  0  0  0  0  0  0  0  0
  1  2  1  0
  2  3  1  0
  3  4  1  0
  4  5  1  0
  5  6  1  0
  6  7  1  0
  7  8  1  0
  5  9  1  0
  7  2  1  0
  9  2  1  0
  9  4  1  0
  1 10  1  0
  1 11  1  0
  1 12  1  0
  3 13  1  0
  3 14  1  0
  4 15  1  0
  5 16  1  0
  6 17  1  0
  6 18  1  0
  7 19  1  0
  8 20  1  0
  9 21  1  0
M  END
