
     RDKit          3D

 23 24  0  0  0  0  0  0  0  0999 V2000
   -1.5289   -1.2991   -0.7190 C   0  0  0  0  0  0  0  0  0  0  0  0
   -0.4228   -0.5024   -0.1152 C   0  0  0  0  0  0  0  0  0  0  0  0
    0.8041   -1.3173    0.0930 C   0  0  0  0  0  0  0  0  0  0  0  0
    1.9573   -0.5204    0.6770 C   0  0  0  0  0  0  0  0  0  0  0  0
    2.2399    0.4787   -0.2728 O   0  0  0  0  0  0  0  0  0  0  0  0
    1.2024    1.3646   -0.3310 C   0  0  0  0  0  0  0  0  0  0  0  0
   -0.0926    0.7971   -0.8100 C   0  0  0  0  0  0  0  0  0  0  0  0
   -1.2422    1.4131    0.0053 C   0  0  0  0  0  0  0  0  0  0  0  0
   -0.9114    0.3237    1.0388 C   0  0  0  0  0  0  0  0  0  0  0  0
   -1.8185   -2.0850    0.0391 H   0  0  0  0  0  0  0  0  0  0  0  0
   -2.4513   -0.7283   -0.9092 H   0  0  0  0  0  0  0  0  0  0  0  0
   -1.1851   -1.8832   -1.6103 H   0  0  0  0  0  0  0  0  0  0  0  0
    1.1619   -1.6344   -0.9324 H   0  0  0  0  0  0  0  0  0  0  0  0
    0.6117   -2.2426    0.6381 H   0  0  0  0  0  0  0  0  0  0  0  0
    2.8528   -1.2069    0.6549 H   0  0  0  0  0  0  0  0  0  0  0  0
    1.7504   -0.1205    1.6675 H   0  0  0  0  0  0  0  0  0  0  0  0
    1.1022    1.8307    0.6863 H   0  0  0  0  0  0  0  0  0  0  0  0
    1.4930    2.2023   -1.0029 H   0  0  0  0  0  0  0  0  0  0  0  0
   -0.2751    0.8248   -1.8935 H   0  0  0  0  0  0  0  0  0  0  0  0
   -2.1987    1.2551   -0.5025 H   0  0  0  0  0  0  0  0  0  0  0  0
   -0.9967    2.4292    0.3196 H   0  0  0  0  0  0  0  0  0  0  0  0
   -0.1795    0.6213    1.7850 H   0  0  0  0  0  0  0  0  0  0  0  0
   -1.8729   -0.0005    1.4944 H   0  0  0  0  0  0  0  0  0  0  0  0
  1  2  1  0
  2  3  1  0
  3  4  1  0
  4  5  1  0
  5  6  1  0
  6  7  1  0
  7  8  1  0
  8  9  1  0
  7  2  1  0
  9  2  1  0
  1 10  1  0
  1 11  1  0
  1 12  1  0
  3 13  1  0
  3 14  1  0
  4 15  1  0
  4 16  1  0
  6 17  1  0
  6 18  1  0
  7 19  1  0
  8 20  1  0
  8 21  1  0
  9 22  1  0
  9 23  1  0
M  END
