
     RDKit          3D

 21 22  0  0  0  0  0  0  0  0999 V2000
   -0.3181    1.6777    1.0753 C   0  0  0  0  0  0  0  0  0  0  0  0
   -0.1952    0.7004   -0.0355 C   0  0  0  0  0  0  0  0  0  0  0  0
   -1.4774    0.3369   -0.7577 C   0  0  0  0  0  0  0  0  0  0  0  0
   -1.4743   -0.9778   -0.0012 C   0  0  0  0  0  0  0  0  0  0  0  0
   -0.0432   -0.7449    0.3319 C   0  0  0  0  0  0  0  0  0  0  0  0
    0.2977   -1.0290    1.6297 O   0  0  0  0  0  0  0  0  0  0  0  0
    0.9739   -1.2104   -0.6801 C   0  0  0  0  0  0  0  0  0  0  0  0
    1.7996    0.0785   -0.8197 C   0  0  0  0  0  0  0  0  0  0  0  0
    0.7862    1.0184   -0.9498 O   0  0  0  0  0  0  0  0  0  0  0  0
   -0.8626    2.5799    0.6726 H   0  0  0  0  0  0  0  0  0  0  0  0
    0.7066    2.0299    1.3329 H   0  0  0  0  0  0  0  0  0  0  0  0
   -0.8631    1.3297    1.9526 H   0  0  0  0  0  0  0  0  0  0  0  0
   -1.3624    0.1626   -1.8484 H   0  0  0  0  0  0  0  0  0  0  0  0
   -2.3471    0.9932   -0.5271 H   0  0  0  0  0  0  0  0  0  0  0  0
   -2.1059   -0.8547    0.9143 H   0  0  0  0  0  0  0  0  0  0  0  0
   -1.7281   -1.8688   -0.5936 H   0  0  0  0  0  0  0  0  0  0  0  0
    1.2762   -1.0715    1.7511 H   0  0  0  0  0  0  0  0  0  0  0  0
    1.6674   -1.9760   -0.2825 H   0  0  0  0  0  0  0  0  0  0  0  0
    0.5350   -1.4698   -1.6571 H   0  0  0  0  0  0  0  0  0  0  0  0
    2.4664    0.0587   -1.6702 H   0  0  0  0  0  0  0  0  0  0  0  0
    2.2683    0.2372    0.1624 H   0  0  0  0  0  0  0  0  0  0  0  0
  1  2  1  0
  2  3  1  0
  3  4  1  0
  4  5  1  0
  5  6  1  0
  5  7  1  0
  7  8  1  0
  8  9  1  0
  5  2  1  0
  9  2  1  0
  1 10  1  0
  1 11  1  0
  1 12  1  0
  3 13  1  0
  3 14  1  0
  4 15  1  0
  4 16  1  0
  6 17  1  0
  7 18  1  0
  7 19  1  0
  8 20  1  0
  8 21  1  0
M  END
