
     RDKit          3D

 21 23  0  0  0  0  0  0  0  0999 V2000
   -0.7982   -0.8565    1.6304 C   0  0  0  0  0  0  0  0  0  0  0  0
   -0.5539   -0.5885    0.1527 C   0  0  0  0  0  0  0  0  0  0  0  0
   -1.6819   -0.4338   -0.7587 C   0  0  0  0  0  0  0  0  0  0  0  0
   -0.9450    0.8372   -0.3184 C   0  0  0  0  0  0  0  0  0  0  0  0
    0.0023    1.3489   -1.3629 C   0  0  0  0  0  0  0  0  0  0  0  0
    1.3486    1.3976   -0.9567 O   0  0  0  0  0  0  0  0  0  0  0  0
    1.4648    0.6481    0.1538 C   0  0  0  0  0  0  0  0  0  0  0  0
    2.0730   -0.6049    0.4237 C   0  0  0  0  0  0  0  0  0  0  0  0
    0.8481   -0.7193   -0.2965 C   0  0  0  0  0  0  0  0  0  0  0  0
   -1.5505   -1.6697    1.6762 H   0  0  0  0  0  0  0  0  0  0  0  0
    0.1309   -1.1057    2.1413 H   0  0  0  0  0  0  0  0  0  0  0  0
   -1.2765    0.0325    2.0975 H   0  0  0  0  0  0  0  0  0  0  0  0
   -1.5480   -0.7999   -1.7885 H   0  0  0  0  0  0  0  0  0  0  0  0
   -2.7123   -0.5291   -0.3175 H   0  0  0  0  0  0  0  0  0  0  0  0
   -1.4287    1.4978    0.4008 H   0  0  0  0  0  0  0  0  0  0  0  0
   -0.1052    0.8278   -2.3456 H   0  0  0  0  0  0  0  0  0  0  0  0
   -0.2863    2.4038   -1.5512 H   0  0  0  0  0  0  0  0  0  0  0  0
    0.9778    1.1608    1.0350 H   0  0  0  0  0  0  0  0  0  0  0  0
    2.1119   -0.9807    1.4705 H   0  0  0  0  0  0  0  0  0  0  0  0
    3.0208   -0.8900   -0.1098 H   0  0  0  0  0  0  0  0  0  0  0  0
    0.9082   -0.9765   -1.3762 H   0  0  0  0  0  0  0  0  0  0  0  0
  1  2  1  0
  2  3  1  0
  3  4  1  0
  4  5  1  0
  5  6  1  0
  6  7  1  0
  7  8  1  0
  8  9  1  0
  4  2  1  0
  9  7  1  0
  9  2  1  0
  1 10  1  0
  1 11  1  0
  1 12  1  0
  3 13  1  0
  3 14  1  0
  4 15  1  0
  5 16  1  0
  5 17  1  0
  7 18  1  0
  8 19  1  0
  8 20  1  0
  9 21  1  0
M  END
