
     RDKit          3D

 20 22  0  0  0  0  0  0  0  0999 V2000
    2.1030   -0.1890   -1.0212 C   0  0  0  0  0  0  0  0  0  0  0  0
    1.1804   -0.1331    0.1481 C   0  0  0  0  0  0  0  0  0  0  0  0
    0.9683   -1.2262    1.0852 C   0  0  0  0  0  0  0  0  0  0  0  0
   -0.0908   -1.0209    0.0846 C   0  0  0  0  0  0  0  0  0  0  0  0
   -0.8736    0.2353    0.0258 C   0  0  0  0  0  0  0  0  0  0  0  0
   -2.1956    0.4451    0.5659 C   0  0  0  0  0  0  0  0  0  0  0  0
   -1.9136    0.5240   -0.9419 C   0  0  0  0  0  0  0  0  0  0  0  0
    0.3139    1.0944    0.2864 C   0  0  0  0  0  0  0  0  0  0  0  0
    2.7688    0.7145   -0.9615 H   0  0  0  0  0  0  0  0  0  0  0  0
    2.7247   -1.0855   -1.0249 H   0  0  0  0  0  0  0  0  0  0  0  0
    1.6050   -0.1231   -2.0054 H   0  0  0  0  0  0  0  0  0  0  0  0
    1.6192   -2.1138    0.9865 H   0  0  0  0  0  0  0  0  0  0  0  0
    0.6910   -0.9211    2.1375 H   0  0  0  0  0  0  0  0  0  0  0  0
   -0.1558   -1.7174   -0.7885 H   0  0  0  0  0  0  0  0  0  0  0  0
   -2.8122   -0.4054    0.9301 H   0  0  0  0  0  0  0  0  0  0  0  0
   -2.4301    1.4076    1.0564 H   0  0  0  0  0  0  0  0  0  0  0  0
   -2.3060   -0.3392   -1.5353 H   0  0  0  0  0  0  0  0  0  0  0  0
   -2.0583    1.4971   -1.4390 H   0  0  0  0  0  0  0  0  0  0  0  0
    0.5228    1.9163   -0.3996 H   0  0  0  0  0  0  0  0  0  0  0  0
    0.3388    1.4406    1.3415 H   0  0  0  0  0  0  0  0  0  0  0  0
  1  2  1  0
  2  3  1  0
  3  4  1  0
  4  5  1  0
  5  6  1  0
  6  7  1  0
  5  8  1  0
  4  2  1  0
  7  5  1  0
  8  2  1  0
  1  9  1  0
  1 10  1  0
  1 11  1  0
  3 12  1  0
  3 13  1  0
  4 14  1  0
  6 15  1  0
  6 16  1  0
  7 17  1  0
  7 18  1  0
  8 19  1  0
  8 20  1  0
M  END
