
     RDKit          3D

 19 21  0  0  0  0  0  0  0  0999 V2000
   -2.3105    0.2467   -0.3327 C   0  0  0  0  0  0  0  0  0  0  0  0
   -0.8165    0.3465   -0.4759 C   0  0  0  0  0  0  0  0  0  0  0  0
   -0.2974    0.2029   -1.7380 O   0  0  0  0  0  0  0  0  0  0  0  0
   -0.0401   -0.8994   -0.9054 C   0  0  0  0  0  0  0  0  0  0  0  0
    1.1693   -0.8640   -0.0196 C   0  0  0  0  0  0  0  0  0  0  0  0
    1.9414    0.3929   -0.3606 C   0  0  0  0  0  0  0  0  0  0  0  0
    1.1856    1.4537    0.1097 O   0  0  0  0  0  0  0  0  0  0  0  0
    0.0027    0.9300    0.6350 C   0  0  0  0  0  0  0  0  0  0  0  0
    0.5305   -0.3633    1.2893 C   0  0  0  0  0  0  0  0  0  0  0  0
   -2.7337   -0.6796   -0.7719 H   0  0  0  0  0  0  0  0  0  0  0  0
   -2.5663    0.3053    0.7454 H   0  0  0  0  0  0  0  0  0  0  0  0
   -2.7364    1.1659   -0.8309 H   0  0  0  0  0  0  0  0  0  0  0  0
   -0.5670   -1.8153   -1.1397 H   0  0  0  0  0  0  0  0  0  0  0  0
    1.7368   -1.7590    0.0820 H   0  0  0  0  0  0  0  0  0  0  0  0
    2.9228    0.4342    0.1752 H   0  0  0  0  0  0  0  0  0  0  0  0
    2.0944    0.4793   -1.4455 H   0  0  0  0  0  0  0  0  0  0  0  0
   -0.5050    1.5745    1.3235 H   0  0  0  0  0  0  0  0  0  0  0  0
   -0.2957   -1.0027    1.6077 H   0  0  0  0  0  0  0  0  0  0  0  0
    1.2852   -0.1486    2.0523 H   0  0  0  0  0  0  0  0  0  0  0  0
  1  2  1  0
  2  3  1  0
  3  4  1  0
  4  5  1  0
  5  6  1  0
  6  7  1  0
  7  8  1  0
  8  9  1  0
  4  2  1  0
  9  5  1  0
  8  2  1  0
  1 10  1  0
  1 11  1  0
  1 12  1  0
  4 13  1  0
  5 14  1  0
  6 15  1  0
  6 16  1  0
  8 17  1  0
  9 18  1  0
  9 19  1  0
M  END
