
     RDKit          3D

 21 23  0  0  0  0  0  0  0  0999 V2000
   -2.2313   -0.5624    0.2993 C   0  0  0  0  0  0  0  0  0  0  0  0
   -1.2235    0.5109    0.1007 C   0  0  0  0  0  0  0  0  0  0  0  0
   -1.2428    1.4529   -1.0284 C   0  0  0  0  0  0  0  0  0  0  0  0
   -0.2421    0.3801   -1.0894 C   0  0  0  0  0  0  0  0  0  0  0  0
    0.8281    0.1727   -0.0940 C   0  0  0  0  0  0  0  0  0  0  0  0
    1.3990   -1.2005    0.0473 C   0  0  0  0  0  0  0  0  0  0  0  0
    2.6608   -0.3933    0.1714 C   0  0  0  0  0  0  0  0  0  0  0  0
    2.0335    0.7739   -0.2665 O   0  0  0  0  0  0  0  0  0  0  0  0
   -0.0401    0.6463    1.0353 C   0  0  0  0  0  0  0  0  0  0  0  0
   -2.5503   -0.6371    1.3437 H   0  0  0  0  0  0  0  0  0  0  0  0
   -3.1405   -0.2842   -0.3090 H   0  0  0  0  0  0  0  0  0  0  0  0
   -1.8857   -1.5611   -0.0696 H   0  0  0  0  0  0  0  0  0  0  0  0
   -0.8746    2.4911   -0.7795 H   0  0  0  0  0  0  0  0  0  0  0  0
   -2.0305    1.4599   -1.7761 H   0  0  0  0  0  0  0  0  0  0  0  0
   -0.4220   -0.4365   -1.8058 H   0  0  0  0  0  0  0  0  0  0  0  0
    1.1280   -1.6822    1.0186 H   0  0  0  0  0  0  0  0  0  0  0  0
    1.3220   -1.8663   -0.8213 H   0  0  0  0  0  0  0  0  0  0  0  0
    3.4722   -0.7721   -0.4606 H   0  0  0  0  0  0  0  0  0  0  0  0
    3.0040   -0.2671    1.2247 H   0  0  0  0  0  0  0  0  0  0  0  0
   -0.0632    0.0450    1.9423 H   0  0  0  0  0  0  0  0  0  0  0  0
    0.0991    1.7299    1.2720 H   0  0  0  0  0  0  0  0  0  0  0  0
  1  2  1  0
  2  3  1  0
  3  4  1  0
  4  5  1  0
  5  6  1  0
  6  7  1  0
  7  8  1  0
  5  9  1  0
  4  2  1  0
  8  5  1  0
  9  2  1  0
  1 10  1  0
  1 11  1  0
  1 12  1  0
  3 13  1  0
  3 14  1  0
  4 15  1  0
  6 16  1  0
  6 17  1  0
  7 18  1  0
  7 19  1  0
  9 20  1  0
  9 21  1  0
M  END
