
     RDKit          3D

 15 16  0  0  0  0  0  0  0  0999 V2000
    1.9538    0.1677    0.2480 C   0  0  0  0  0  0  0  0  0  0  0  0
    0.4594    0.2013    0.1224 C   0  0  0  0  0  0  0  0  0  0  0  0
   -0.1659   -0.9639   -0.5827 C   0  0  0  0  0  0  0  0  0  0  0  0
   -1.6138   -0.7637   -0.3534 C   0  0  0  0  0  0  0  0  0  0  0  0
   -1.8088    0.3203    0.3724 C   0  0  0  0  0  0  0  0  0  0  0  0
   -0.4990    0.9393    0.6910 C   0  0  0  0  0  0  0  0  0  0  0  0
    0.0773    1.4434   -0.6041 O   0  0  0  0  0  0  0  0  0  0  0  0
    2.3868    0.9706    0.8357 H   0  0  0  0  0  0  0  0  0  0  0  0
    2.3610    0.2725   -0.8007 H   0  0  0  0  0  0  0  0  0  0  0  0
    2.2795   -0.8414    0.5964 H   0  0  0  0  0  0  0  0  0  0  0  0
    0.0782   -0.9304   -1.6863 H   0  0  0  0  0  0  0  0  0  0  0  0
    0.2001   -1.9287   -0.1685 H   0  0  0  0  0  0  0  0  0  0  0  0
   -2.4409   -1.4069   -0.7205 H   0  0  0  0  0  0  0  0  0  0  0  0
   -2.7791    0.6924    0.6824 H   0  0  0  0  0  0  0  0  0  0  0  0
   -0.4884    1.8277    1.3679 H   0  0  0  0  0  0  0  0  0  0  0  0
  1  2  1  0
  2  3  1  0
  3  4  1  0
  4  5  2  0
  5  6  1  0
  6  7  1  0
  6  2  1  0
  7  2  1  0
  1  8  1  0
  1  9  1  0
  1 10  1  0
  3 11  1  0
  3 12  1  0
  4 13  1  0
  5 14  1  0
  6 15  1  0
M  END
