
     RDKit          3D

 21 23  0  0  0  0  0  0  0  0999 V2000
    2.4509    0.8045    0.0843 C   0  0  0  0  0  0  0  0  0  0  0  0
    1.5070    0.0005   -0.6749 C   0  0  0  0  0  0  0  0  0  0  0  0
    1.6892   -1.4119   -0.4817 C   0  0  0  0  0  0  0  0  0  0  0  0
    0.4345   -0.9094   -0.0328 C   0  0  0  0  0  0  0  0  0  0  0  0
   -0.0461    0.4954    0.2040 C   0  0  0  0  0  0  0  0  0  0  0  0
   -1.5189    0.7180    0.2814 C   0  0  0  0  0  0  0  0  0  0  0  0
   -2.4570    0.4018   -0.7970 C   0  0  0  0  0  0  0  0  0  0  0  0
   -2.4265   -0.4637    0.4718 C   0  0  0  0  0  0  0  0  0  0  0  0
    0.3953    0.6724   -1.1131 O   0  0  0  0  0  0  0  0  0  0  0  0
    2.4470    0.7410    1.1809 H   0  0  0  0  0  0  0  0  0  0  0  0
    3.5346    0.5978   -0.1902 H   0  0  0  0  0  0  0  0  0  0  0  0
    2.3256    1.8750   -0.1787 H   0  0  0  0  0  0  0  0  0  0  0  0
    2.3502   -1.8369    0.3330 H   0  0  0  0  0  0  0  0  0  0  0  0
    1.9146   -1.9943   -1.4268 H   0  0  0  0  0  0  0  0  0  0  0  0
   -0.3471   -1.3336   -0.7429 H   0  0  0  0  0  0  0  0  0  0  0  0
    0.4571    1.0664    0.9722 H   0  0  0  0  0  0  0  0  0  0  0  0
   -1.8354    1.5957    0.9194 H   0  0  0  0  0  0  0  0  0  0  0  0
   -3.3656    1.0228   -0.9287 H   0  0  0  0  0  0  0  0  0  0  0  0
   -2.2003   -0.1804   -1.6942 H   0  0  0  0  0  0  0  0  0  0  0  0
   -2.0016   -1.4699    0.4227 H   0  0  0  0  0  0  0  0  0  0  0  0
   -3.3077   -0.3912    1.1452 H   0  0  0  0  0  0  0  0  0  0  0  0
  1  2  1  0
  2  3  1  0
  3  4  1  0
  4  5  1  0
  5  6  1  0
  6  7  1  0
  7  8  1  0
  5  9  1  0
  4  2  1  0
  8  6  1  0
  9  2  1  0
  1 10  1  0
  1 11  1  0
  1 12  1  0
  3 13  1  0
  3 14  1  0
  4 15  1  0
  5 16  1  0
  6 17  1  0
  7 18  1  0
  7 19  1  0
  8 20  1  0
  8 21  1  0
M  END
