
     RDKit          3D

 18 19  0  0  0  0  0  0  0  0999 V2000
    1.1623   -1.0508    0.6896 C   0  0  0  0  0  0  0  0  0  0  0  0
    0.7993   -0.0122   -0.3381 C   0  0  0  0  0  0  0  0  0  0  0  0
    1.0675    1.3117    0.1041 C   0  0  0  0  0  0  0  0  0  0  0  0
   -0.3063    1.0613    0.0368 C   0  0  0  0  0  0  0  0  0  0  0  0
   -0.9518    1.6557   -1.0909 O   0  0  0  0  0  0  0  0  0  0  0  0
   -1.2205    0.0233    0.5553 C   0  0  0  0  0  0  0  0  0  0  0  0
   -1.1016   -0.9562   -0.6300 C   0  0  0  0  0  0  0  0  0  0  0  0
    0.0502   -0.5359   -1.3289 O   0  0  0  0  0  0  0  0  0  0  0  0
    0.9787   -0.7481    1.7295 H   0  0  0  0  0  0  0  0  0  0  0  0
    0.8291   -2.0808    0.4570 H   0  0  0  0  0  0  0  0  0  0  0  0
    2.2954   -1.1248    0.6265 H   0  0  0  0  0  0  0  0  0  0  0  0
    1.5213    1.5266    1.0978 H   0  0  0  0  0  0  0  0  0  0  0  0
    1.5693    1.9871   -0.6517 H   0  0  0  0  0  0  0  0  0  0  0  0
   -0.3307    1.8341   -1.8086 H   0  0  0  0  0  0  0  0  0  0  0  0
   -2.2834    0.3767    0.5877 H   0  0  0  0  0  0  0  0  0  0  0  0
   -1.0120   -0.4283    1.5049 H   0  0  0  0  0  0  0  0  0  0  0  0
   -2.0057   -0.8669   -1.2773 H   0  0  0  0  0  0  0  0  0  0  0  0
   -1.0612   -1.9725   -0.2636 H   0  0  0  0  0  0  0  0  0  0  0  0
  1  2  1  0
  2  3  1  0
  3  4  1  0
  4  5  1  0
  4  6  1  0
  6  7  1  0
  7  8  1  0
  4  2  1  0
  8  2  1  0
  1  9  1  0
  1 10  1  0
  1 11  1  0
  3 12  1  0
  3 13  1  0
  5 14  1  0
  6 15  1  0
  6 16  1  0
  7 17  1  0
  7 18  1  0
M  END
