
     RDKit          3D

 21 23  0  0  0  0  0  0  0  0999 V2000
    1.8859   -1.0539    0.2378 C   0  0  0  0  0  0  0  0  0  0  0  0
    0.8358   -0.0654   -0.1596 C   0  0  0  0  0  0  0  0  0  0  0  0
    1.2574    1.2742   -0.6457 C   0  0  0  0  0  0  0  0  0  0  0  0
    0.5547    1.1516    0.6424 C   0  0  0  0  0  0  0  0  0  0  0  0
   -0.9219    0.8281    0.5636 C   0  0  0  0  0  0  0  0  0  0  0  0
   -1.7989    1.6941   -0.0290 O   0  0  0  0  0  0  0  0  0  0  0  0
   -1.3270   -0.4173    1.2329 C   0  0  0  0  0  0  0  0  0  0  0  0
   -0.5894   -0.4671   -0.0511 C   0  0  0  0  0  0  0  0  0  0  0  0
   -1.2656   -0.9982   -1.2667 C   0  0  0  0  0  0  0  0  0  0  0  0
    2.3841   -1.4393   -0.6992 H   0  0  0  0  0  0  0  0  0  0  0  0
    2.6683   -0.6187    0.8850 H   0  0  0  0  0  0  0  0  0  0  0  0
    1.4024   -1.9143    0.7093 H   0  0  0  0  0  0  0  0  0  0  0  0
    0.8032    1.7160   -1.5469 H   0  0  0  0  0  0  0  0  0  0  0  0
    2.3507    1.4654   -0.5804 H   0  0  0  0  0  0  0  0  0  0  0  0
    1.0343    1.3360    1.6037 H   0  0  0  0  0  0  0  0  0  0  0  0
   -1.9186    2.5162    0.4957 H   0  0  0  0  0  0  0  0  0  0  0  0
   -2.3799   -0.6780    1.2318 H   0  0  0  0  0  0  0  0  0  0  0  0
   -0.7439   -0.7043    2.1354 H   0  0  0  0  0  0  0  0  0  0  0  0
   -1.0693   -0.4115   -2.1852 H   0  0  0  0  0  0  0  0  0  0  0  0
   -2.3449   -1.1990   -1.0993 H   0  0  0  0  0  0  0  0  0  0  0  0
   -0.8173   -2.0148   -1.4741 H   0  0  0  0  0  0  0  0  0  0  0  0
  1  2  1  0
  2  3  1  0
  3  4  1  0
  4  5  1  0
  5  6  1  0
  5  7  1  0
  7  8  1  0
  8  9  1  0
  4  2  1  0
  8  5  1  0
  8  2  1  0
  1 10  1  0
  1 11  1  0
  1 12  1  0
  3 13  1  0
  3 14  1  0
  4 15  1  0
  6 16  1  0
  7 17  1  0
  7 18  1  0
  9 19  1  0
  9 20  1  0
  9 21  1  0
M  END
