
     RDKit          3D

 18 19  0  0  0  0  0  0  0  0999 V2000
   -1.3934   -1.4937   -0.2826 C   0  0  0  0  0  0  0  0  0  0  0  0
   -0.9444   -0.1090   -0.0869 C   0  0  0  0  0  0  0  0  0  0  0  0
   -2.0557    0.8190   -0.0797 O   0  0  0  0  0  0  0  0  0  0  0  0
   -0.8264    1.0296   -0.7596 C   0  0  0  0  0  0  0  0  0  0  0  0
    0.1950    1.6076    0.2382 C   0  0  0  0  0  0  0  0  0  0  0  0
    0.1890    0.1971    0.8407 C   0  0  0  0  0  0  0  0  0  0  0  0
    1.4519   -0.5201    0.3832 C   0  0  0  0  0  0  0  0  0  0  0  0
    1.8034   -0.1126   -0.8944 O   0  0  0  0  0  0  0  0  0  0  0  0
   -0.6153   -2.2358    0.0665 H   0  0  0  0  0  0  0  0  0  0  0  0
   -2.2505   -1.6746    0.4303 H   0  0  0  0  0  0  0  0  0  0  0  0
   -1.7778   -1.7461   -1.2789 H   0  0  0  0  0  0  0  0  0  0  0  0
   -0.8475    1.4214   -1.7686 H   0  0  0  0  0  0  0  0  0  0  0  0
    1.1259    1.9055   -0.2374 H   0  0  0  0  0  0  0  0  0  0  0  0
   -0.2570    2.3304    0.9553 H   0  0  0  0  0  0  0  0  0  0  0  0
   -0.0263    0.1435    1.9012 H   0  0  0  0  0  0  0  0  0  0  0  0
    2.2286   -0.3045    1.1322 H   0  0  0  0  0  0  0  0  0  0  0  0
    1.3131   -1.6193    0.3509 H   0  0  0  0  0  0  0  0  0  0  0  0
    2.6874    0.3614   -0.9103 H   0  0  0  0  0  0  0  0  0  0  0  0
  1  2  1  0
  2  3  1  0
  3  4  1  0
  4  5  1  0
  5  6  1  0
  6  7  1  0
  7  8  1  0
  4  2  1  0
  6  2  1  0
  1  9  1  0
  1 10  1  0
  1 11  1  0
  4 12  1  0
  5 13  1  0
  5 14  1  0
  6 15  1  0
  7 16  1  0
  7 17  1  0
  8 18  1  0
M  END
