
     RDKit          3D

 17 19  0  0  0  0  0  0  0  0999 V2000
    1.9799    0.2465    0.1985 C   0  0  0  0  0  0  0  0  0  0  0  0
    0.5501   -0.0105    0.2097 C   0  0  0  0  0  0  0  0  0  0  0  0
   -0.2516    0.6461    1.1502 O   0  0  0  0  0  0  0  0  0  0  0  0
   -1.3185    0.3704    0.2615 C   0  0  0  0  0  0  0  0  0  0  0  0
   -1.4504   -1.1294    0.2578 C   0  0  0  0  0  0  0  0  0  0  0  0
   -0.8080   -1.8346   -0.7303 O   0  0  0  0  0  0  0  0  0  0  0  0
    0.0608   -1.4450    0.2521 C   0  0  0  0  0  0  0  0  0  0  0  0
   -0.3235    0.6159   -0.8482 C   0  0  0  0  0  0  0  0  0  0  0  0
   -0.1473    1.9747   -1.0363 O   0  0  0  0  0  0  0  0  0  0  0  0
    2.5224   -0.4830    0.7977 H   0  0  0  0  0  0  0  0  0  0  0  0
    2.1966    1.2523    0.6198 H   0  0  0  0  0  0  0  0  0  0  0  0
    2.3734    0.1515   -0.8499 H   0  0  0  0  0  0  0  0  0  0  0  0
   -2.1868    0.9807    0.3285 H   0  0  0  0  0  0  0  0  0  0  0  0
   -2.0741   -1.6409    0.9918 H   0  0  0  0  0  0  0  0  0  0  0  0
    0.3930   -2.1173    1.0501 H   0  0  0  0  0  0  0  0  0  0  0  0
   -0.4670    0.0206   -1.7621 H   0  0  0  0  0  0  0  0  0  0  0  0
   -1.0491    2.4019   -0.8909 H   0  0  0  0  0  0  0  0  0  0  0  0
  1  2  1  0
  2  3  1  0
  3  4  1  0
  4  5  1  0
  5  6  1  0
  6  7  1  0
  4  8  1  0
  8  9  1  0
  7  2  1  0
  8  2  1  0
  7  5  1  0
  1 10  1  0
  1 11  1  0
  1 12  1  0
  4 13  1  0
  5 14  1  0
  7 15  1  0
  8 16  1  0
  9 17  1  0
M  END
