
     RDKit          3D

 21 23  0  0  0  0  0  0  0  0999 V2000
   -2.0402    0.7582   -0.6639 C   0  0  0  0  0  0  0  0  0  0  0  0
   -0.6732    0.3766   -0.2111 C   0  0  0  0  0  0  0  0  0  0  0  0
   -0.1065   -0.9736   -0.4397 C   0  0  0  0  0  0  0  0  0  0  0  0
    1.3266   -1.0113   -0.8284 C   0  0  0  0  0  0  0  0  0  0  0  0
    2.0879    0.2022   -0.4526 C   0  0  0  0  0  0  0  0  0  0  0  0
    1.5560    1.2275    0.2021 C   0  0  0  0  0  0  0  0  0  0  0  0
    0.1536    1.2724    0.6266 C   0  0  0  0  0  0  0  0  0  0  0  0
   -0.5111    0.1675    1.3326 C   0  0  0  0  0  0  0  0  0  0  0  0
   -0.2755   -1.2687    1.0343 C   0  0  0  0  0  0  0  0  0  0  0  0
   -1.9669    1.7787   -1.1289 H   0  0  0  0  0  0  0  0  0  0  0  0
   -2.7221    0.8101    0.1977 H   0  0  0  0  0  0  0  0  0  0  0  0
   -2.3772    0.0229   -1.4419 H   0  0  0  0  0  0  0  0  0  0  0  0
   -0.7273   -1.5785   -1.1203 H   0  0  0  0  0  0  0  0  0  0  0  0
    1.8036   -1.8639   -0.2623 H   0  0  0  0  0  0  0  0  0  0  0  0
    1.4207   -1.1763   -1.9234 H   0  0  0  0  0  0  0  0  0  0  0  0
    3.1222    0.2344   -0.7336 H   0  0  0  0  0  0  0  0  0  0  0  0
    2.2237    2.0543    0.4154 H   0  0  0  0  0  0  0  0  0  0  0  0
   -0.2760    2.2808    0.7963 H   0  0  0  0  0  0  0  0  0  0  0  0
   -1.4027    0.3807    1.9385 H   0  0  0  0  0  0  0  0  0  0  0  0
   -1.1869   -1.9250    1.1539 H   0  0  0  0  0  0  0  0  0  0  0  0
    0.5713   -1.7691    1.5085 H   0  0  0  0  0  0  0  0  0  0  0  0
  1  2  1  0
  2  3  1  0
  3  4  1  0
  4  5  1  0
  5  6  2  0
  6  7  1  0
  7  8  1  0
  8  9  1  0
  7  2  1  0
  8  2  1  0
  9  3  1  0
  1 10  1  0
  1 11  1  0
  1 12  1  0
  3 13  1  0
  4 14  1  0
  4 15  1  0
  5 16  1  0
  6 17  1  0
  7 18  1  0
  8 19  1  0
  9 20  1  0
  9 21  1  0
M  END
