
     RDKit          3D

 19 20  0  0  0  0  0  0  0  0999 V2000
   -1.8009    0.6445    0.2361 C   0  0  0  0  0  0  0  0  0  0  0  0
   -0.4883    0.1227   -0.0335 C   0  0  0  0  0  0  0  0  0  0  0  0
   -0.0454   -1.1464    0.7125 C   0  0  0  0  0  0  0  0  0  0  0  0
    0.9282   -1.2619   -0.4385 C   0  0  0  0  0  0  0  0  0  0  0  0
   -0.2096   -0.6702   -1.2803 C   0  0  0  0  0  0  0  0  0  0  0  0
    1.7785   -0.0759   -0.2283 C   0  0  0  0  0  0  0  0  0  0  0  0
    2.9674    0.0458   -0.2945 O   0  0  0  0  0  0  0  0  0  0  0  0
    0.7368    0.9824    0.1028 C   0  0  0  0  0  0  0  0  0  0  0  0
    0.8554    1.4090    1.4066 O   0  0  0  0  0  0  0  0  0  0  0  0
   -1.8647    1.7265    0.0431 H   0  0  0  0  0  0  0  0  0  0  0  0
   -2.5684    0.1111   -0.3597 H   0  0  0  0  0  0  0  0  0  0  0  0
   -2.0874    0.4574    1.3103 H   0  0  0  0  0  0  0  0  0  0  0  0
   -0.7695   -1.9646    0.6710 H   0  0  0  0  0  0  0  0  0  0  0  0
    0.3768   -0.8743    1.6766 H   0  0  0  0  0  0  0  0  0  0  0  0
    1.3265   -2.1938   -0.7119 H   0  0  0  0  0  0  0  0  0  0  0  0
    0.2513   -0.0652   -2.0937 H   0  0  0  0  0  0  0  0  0  0  0  0
   -0.9695   -1.3942   -1.5888 H   0  0  0  0  0  0  0  0  0  0  0  0
    0.7426    1.7754   -0.6486 H   0  0  0  0  0  0  0  0  0  0  0  0
    0.8401    2.3717    1.5190 H   0  0  0  0  0  0  0  0  0  0  0  0
  1  2  1  0
  2  3  1  0
  3  4  1  0
  4  5  1  0
  4  6  1  0
  6  7  2  0
  6  8  1  0
  8  9  1  0
  5  2  1  0
  8  2  1  0
  1 10  1  0
  1 11  1  0
  1 12  1  0
  3 13  1  0
  3 14  1  0
  4 15  1  0
  5 16  1  0
  5 17  1  0
  8 18  1  0
  9 19  1  0
M  END
