
     RDKit          3D

 19 21  0  0  0  0  0  0  0  0999 V2000
   -0.4440    2.0032   -0.0493 C   0  0  0  0  0  0  0  0  0  0  0  0
   -0.1873    0.5489   -0.2313 C   0  0  0  0  0  0  0  0  0  0  0  0
    0.7963    0.2253   -1.1942 O   0  0  0  0  0  0  0  0  0  0  0  0
    1.7359    0.3425   -0.1754 C   0  0  0  0  0  0  0  0  0  0  0  0
    0.6543   -0.1373    0.7859 C   0  0  0  0  0  0  0  0  0  0  0  0
    0.3430   -1.5814    0.5951 C   0  0  0  0  0  0  0  0  0  0  0  0
   -1.0517   -1.6943    0.0552 C   0  0  0  0  0  0  0  0  0  0  0  0
   -1.3498   -1.3237   -1.2359 O   0  0  0  0  0  0  0  0  0  0  0  0
   -1.4197   -0.3145   -0.2986 C   0  0  0  0  0  0  0  0  0  0  0  0
    0.2797    2.5641   -0.6873 H   0  0  0  0  0  0  0  0  0  0  0  0
   -1.4753    2.2121   -0.4576 H   0  0  0  0  0  0  0  0  0  0  0  0
   -0.4515    2.3309    0.9952 H   0  0  0  0  0  0  0  0  0  0  0  0
    2.5605   -0.3719   -0.1798 H   0  0  0  0  0  0  0  0  0  0  0  0
    2.0080    1.4108   -0.0565 H   0  0  0  0  0  0  0  0  0  0  0  0
    0.6957    0.2668    1.7856 H   0  0  0  0  0  0  0  0  0  0  0  0
    0.3324   -2.0570    1.6128 H   0  0  0  0  0  0  0  0  0  0  0  0
    1.1018   -2.1155    0.0011 H   0  0  0  0  0  0  0  0  0  0  0  0
   -1.7622   -2.3926    0.5099 H   0  0  0  0  0  0  0  0  0  0  0  0
   -2.3662    0.0838    0.0623 H   0  0  0  0  0  0  0  0  0  0  0  0
  1  2  1  0
  2  3  1  0
  3  4  1  0
  4  5  1  0
  5  6  1  0
  6  7  1  0
  7  8  1  0
  8  9  1  0
  5  2  1  0
  9  7  1  0
  9  2  1  0
  1 10  1  0
  1 11  1  0
  1 12  1  0
  4 13  1  0
  4 14  1  0
  5 15  1  0
  6 16  1  0
  6 17  1  0
  7 18  1  0
  9 19  1  0
M  END
