
     RDKit          3D

 21 22  0  0  0  0  0  0  0  0999 V2000
   -1.4626   -1.2352   -0.1795 C   0  0  0  0  0  0  0  0  0  0  0  0
   -0.5172   -0.1299    0.2127 C   0  0  0  0  0  0  0  0  0  0  0  0
    0.4552   -0.4613    1.2580 C   0  0  0  0  0  0  0  0  0  0  0  0
    1.6808   -0.7799    0.8854 C   0  0  0  0  0  0  0  0  0  0  0  0
    1.9212   -0.7605   -0.5832 C   0  0  0  0  0  0  0  0  0  0  0  0
    1.3867    0.3393   -1.2169 O   0  0  0  0  0  0  0  0  0  0  0  0
    0.0545    0.5563   -0.9806 C   0  0  0  0  0  0  0  0  0  0  0  0
   -0.2857    1.8920   -0.3530 C   0  0  0  0  0  0  0  0  0  0  0  0
   -1.2370    1.1664    0.5967 C   0  0  0  0  0  0  0  0  0  0  0  0
   -2.3165   -1.3501    0.5053 H   0  0  0  0  0  0  0  0  0  0  0  0
   -0.8626   -2.1633   -0.2782 H   0  0  0  0  0  0  0  0  0  0  0  0
   -1.8774   -1.0253   -1.1963 H   0  0  0  0  0  0  0  0  0  0  0  0
    0.2021   -0.4525    2.3042 H   0  0  0  0  0  0  0  0  0  0  0  0
    2.4517   -1.0350    1.5859 H   0  0  0  0  0  0  0  0  0  0  0  0
    3.0120   -0.7727   -0.7983 H   0  0  0  0  0  0  0  0  0  0  0  0
    1.4603   -1.6977   -1.0001 H   0  0  0  0  0  0  0  0  0  0  0  0
   -0.5289    0.3519   -1.9024 H   0  0  0  0  0  0  0  0  0  0  0  0
    0.6317    2.2682    0.1867 H   0  0  0  0  0  0  0  0  0  0  0  0
   -0.7611    2.6239   -1.0126 H   0  0  0  0  0  0  0  0  0  0  0  0
   -1.1156    1.4583    1.6548 H   0  0  0  0  0  0  0  0  0  0  0  0
   -2.2916    1.2072    0.3114 H   0  0  0  0  0  0  0  0  0  0  0  0
  1  2  1  0
  2  3  1  0
  3  4  2  0
  4  5  1  0
  5  6  1  0
  6  7  1  0
  7  8  1  0
  8  9  1  0
  7  2  1  0
  9  2  1  0
  1 10  1  0
  1 11  1  0
  1 12  1  0
  3 13  1  0
  4 14  1  0
  5 15  1  0
  5 16  1  0
  7 17  1  0
  8 18  1  0
  8 19  1  0
  9 20  1  0
  9 21  1  0
M  END
