
     RDKit          3D

 19 21  0  0  0  0  0  0  0  0999 V2000
    2.3710    0.1093    0.3323 C   0  0  0  0  0  0  0  0  0  0  0  0
    0.9138    0.0279    0.6646 C   0  0  0  0  0  0  0  0  0  0  0  0
    0.3746   -1.2834    1.0579 C   0  0  0  0  0  0  0  0  0  0  0  0
   -0.0080   -0.7302   -0.3151 C   0  0  0  0  0  0  0  0  0  0  0  0
    0.6362   -1.1799   -1.4331 O   0  0  0  0  0  0  0  0  0  0  0  0
   -0.7392    0.5423   -0.2396 C   0  0  0  0  0  0  0  0  0  0  0  0
   -2.1719    0.5328    0.3574 C   0  0  0  0  0  0  0  0  0  0  0  0
   -1.8055    1.0438   -1.0216 C   0  0  0  0  0  0  0  0  0  0  0  0
    0.1657    1.1627    0.5357 O   0  0  0  0  0  0  0  0  0  0  0  0
    2.9062    0.4883    1.2041 H   0  0  0  0  0  0  0  0  0  0  0  0
    2.8014   -0.8970    0.1018 H   0  0  0  0  0  0  0  0  0  0  0  0
    2.5761    0.7789   -0.5162 H   0  0  0  0  0  0  0  0  0  0  0  0
   -0.5095   -1.4030    1.7134 H   0  0  0  0  0  0  0  0  0  0  0  0
    1.0649   -2.1229    1.0668 H   0  0  0  0  0  0  0  0  0  0  0  0
    0.5696   -0.5121   -2.1550 H   0  0  0  0  0  0  0  0  0  0  0  0
   -2.5962   -0.4771    0.4722 H   0  0  0  0  0  0  0  0  0  0  0  0
   -2.3819    1.2229    1.1715 H   0  0  0  0  0  0  0  0  0  0  0  0
   -1.9280    2.1398   -1.1613 H   0  0  0  0  0  0  0  0  0  0  0  0
   -2.2390    0.4552   -1.8356 H   0  0  0  0  0  0  0  0  0  0  0  0
  1  2  1  0
  2  3  1  0
  3  4  1  0
  4  5  1  0
  4  6  1  0
  6  7  1  0
  7  8  1  0
  6  9  1  0
  4  2  1  0
  8  6  1  0
  9  2  1  0
  1 10  1  0
  1 11  1  0
  1 12  1  0
  3 13  1  0
  3 14  1  0
  5 15  1  0
  7 16  1  0
  7 17  1  0
  8 18  1  0
  8 19  1  0
M  END
