
     RDKit          3D

 21 23  0  0  0  0  0  0  0  0999 V2000
    0.2524    2.0148   -0.0906 C   0  0  0  0  0  0  0  0  0  0  0  0
   -0.0546    0.5678    0.2672 C   0  0  0  0  0  0  0  0  0  0  0  0
   -1.2969    0.3989    1.0246 C   0  0  0  0  0  0  0  0  0  0  0  0
   -2.0740   -0.4540    0.4250 C   0  0  0  0  0  0  0  0  0  0  0  0
   -1.4717   -0.9628   -0.7911 C   0  0  0  0  0  0  0  0  0  0  0  0
   -0.1309   -0.3531   -0.8917 C   0  0  0  0  0  0  0  0  0  0  0  0
    0.9530   -1.1928   -0.2723 C   0  0  0  0  0  0  0  0  0  0  0  0
    2.2783   -0.5781   -0.0022 C   0  0  0  0  0  0  0  0  0  0  0  0
    1.1371   -0.1720    0.8427 C   0  0  0  0  0  0  0  0  0  0  0  0
    1.2303    2.3479    0.2554 H   0  0  0  0  0  0  0  0  0  0  0  0
    0.1721    2.1117   -1.1932 H   0  0  0  0  0  0  0  0  0  0  0  0
   -0.5524    2.6493    0.3454 H   0  0  0  0  0  0  0  0  0  0  0  0
   -1.5482    0.9072    1.9572 H   0  0  0  0  0  0  0  0  0  0  0  0
   -3.0758   -0.7651    0.7848 H   0  0  0  0  0  0  0  0  0  0  0  0
   -2.0326   -0.6890   -1.7118 H   0  0  0  0  0  0  0  0  0  0  0  0
   -1.3674   -2.0636   -0.6811 H   0  0  0  0  0  0  0  0  0  0  0  0
    0.1374    0.1420   -1.8460 H   0  0  0  0  0  0  0  0  0  0  0  0
    0.7431   -2.2311   -0.0206 H   0  0  0  0  0  0  0  0  0  0  0  0
    3.0157   -1.2345    0.4750 H   0  0  0  0  0  0  0  0  0  0  0  0
    2.6706    0.1702   -0.7299 H   0  0  0  0  0  0  0  0  0  0  0  0
    1.0145   -0.6137    1.8532 H   0  0  0  0  0  0  0  0  0  0  0  0
  1  2  1  0
  2  3  1  0
  3  4  2  0
  4  5  1  0
  5  6  1  0
  6  7  1  0
  7  8  1  0
  8  9  1  0
  6  2  1  0
  9  7  1  0
  9  2  1  0
  1 10  1  0
  1 11  1  0
  1 12  1  0
  3 13  1  0
  4 14  1  0
  5 15  1  0
  5 16  1  0
  6 17  1  0
  7 18  1  0
  8 19  1  0
  8 20  1  0
  9 21  1  0
M  END
