
     RDKit          3D

 23 24  0  0  0  0  0  0  0  0999 V2000
   -1.6851   -1.2527    0.2107 C   0  0  0  0  0  0  0  0  0  0  0  0
   -0.8952   -0.1607    0.0024 C   0  0  0  0  0  0  0  0  0  0  0  0
   -0.9436    1.1683    0.7117 C   0  0  0  0  0  0  0  0  0  0  0  0
    0.1851    1.3268   -0.2641 C   0  0  0  0  0  0  0  0  0  0  0  0
    0.9007    2.3353   -0.4716 O   0  0  0  0  0  0  0  0  0  0  0  0
   -0.7740    0.6739   -1.2474 C   0  0  0  0  0  0  0  0  0  0  0  0
    0.6057   -0.0695    0.0733 C   0  0  0  0  0  0  0  0  0  0  0  0
    1.2393   -0.3070    1.3878 C   0  0  0  0  0  0  0  0  0  0  0  0
    1.2422   -0.8661   -1.0240 C   0  0  0  0  0  0  0  0  0  0  0  0
   -2.5985   -1.0744    0.8513 H   0  0  0  0  0  0  0  0  0  0  0  0
   -1.1751   -2.1180    0.7324 H   0  0  0  0  0  0  0  0  0  0  0  0
   -2.1012   -1.7343   -0.7229 H   0  0  0  0  0  0  0  0  0  0  0  0
   -0.7172    1.1862    1.7663 H   0  0  0  0  0  0  0  0  0  0  0  0
   -1.8496    1.7240    0.3826 H   0  0  0  0  0  0  0  0  0  0  0  0
    1.8386    2.2920   -0.1523 H   0  0  0  0  0  0  0  0  0  0  0  0
   -1.7006    1.2251   -1.4296 H   0  0  0  0  0  0  0  0  0  0  0  0
   -0.2842    0.2187   -2.1050 H   0  0  0  0  0  0  0  0  0  0  0  0
    2.3416   -0.4674    1.2033 H   0  0  0  0  0  0  0  0  0  0  0  0
    1.1721    0.4993    2.1162 H   0  0  0  0  0  0  0  0  0  0  0  0
    0.8891   -1.2440    1.8717 H   0  0  0  0  0  0  0  0  0  0  0  0
    1.7230   -0.2348   -1.7766 H   0  0  0  0  0  0  0  0  0  0  0  0
    0.5278   -1.5924   -1.5034 H   0  0  0  0  0  0  0  0  0  0  0  0
    2.0589   -1.5283   -0.6126 H   0  0  0  0  0  0  0  0  0  0  0  0
  1  2  1  0
  2  3  1  0
  3  4  1  0
  4  5  1  0
  4  6  1  0
  4  7  1  0
  7  8  1  0
  7  9  1  0
  6  2  1  0
  7  2  1  0
  1 10  1  0
  1 11  1  0
  1 12  1  0
  3 13  1  0
  3 14  1  0
  5 15  1  0
  6 16  1  0
  6 17  1  0
  8 18  1  0
  8 19  1  0
  8 20  1  0
  9 21  1  0
  9 22  1  0
  9 23  1  0
M  END
