
     RDKit          3D

 19 21  0  0  0  0  0  0  0  0999 V2000
    0.2046    2.0327   -0.1427 C   0  0  0  0  0  0  0  0  0  0  0  0
   -0.2305    0.6619   -0.2042 C   0  0  0  0  0  0  0  0  0  0  0  0
   -0.9795    0.0822    1.0083 C   0  0  0  0  0  0  0  0  0  0  0  0
   -0.5332   -1.2293    0.3375 C   0  0  0  0  0  0  0  0  0  0  0  0
   -1.3298   -1.1194   -0.9413 C   0  0  0  0  0  0  0  0  0  0  0  0
   -1.0784    0.2471   -1.2363 O   0  0  0  0  0  0  0  0  0  0  0  0
    0.7016   -0.4809   -0.0496 C   0  0  0  0  0  0  0  0  0  0  0  0
    2.0001   -0.6100    0.2601 C   0  0  0  0  0  0  0  0  0  0  0  0
    1.5459   -0.9078   -1.0412 O   0  0  0  0  0  0  0  0  0  0  0  0
    1.2036    2.1288    0.3194 H   0  0  0  0  0  0  0  0  0  0  0  0
   -0.5640    2.6627    0.3946 H   0  0  0  0  0  0  0  0  0  0  0  0
    0.2864    2.4581   -1.1742 H   0  0  0  0  0  0  0  0  0  0  0  0
   -0.4956    0.2669    1.9698 H   0  0  0  0  0  0  0  0  0  0  0  0
   -2.0630    0.2658    0.9557 H   0  0  0  0  0  0  0  0  0  0  0  0
   -0.5149   -2.1068    0.9031 H   0  0  0  0  0  0  0  0  0  0  0  0
   -2.3945   -1.3137   -0.7972 H   0  0  0  0  0  0  0  0  0  0  0  0
   -0.9005   -1.7798   -1.7045 H   0  0  0  0  0  0  0  0  0  0  0  0
    2.4307   -1.5159    0.7703 H   0  0  0  0  0  0  0  0  0  0  0  0
    2.7111    0.2576    0.3722 H   0  0  0  0  0  0  0  0  0  0  0  0
  1  2  1  0
  2  3  1  0
  3  4  1  0
  4  5  1  0
  5  6  1  0
  4  7  1  0
  7  8  1  0
  8  9  1  0
  6  2  1  0
  9  7  1  0
  7  2  1  0
  1 10  1  0
  1 11  1  0
  1 12  1  0
  3 13  1  0
  3 14  1  0
  4 15  1  0
  5 16  1  0
  5 17  1  0
  8 18  1  0
  8 19  1  0
M  END
