
     RDKit          3D

 17 18  0  0  0  0  0  0  0  0999 V2000
   -2.1776    0.4103    0.1548 C   0  0  0  0  0  0  0  0  0  0  0  0
   -0.7099    0.1259   -0.0987 C   0  0  0  0  0  0  0  0  0  0  0  0
    0.1818    1.3157    0.1280 C   0  0  0  0  0  0  0  0  0  0  0  0
    1.3615    1.1432   -0.6768 O   0  0  0  0  0  0  0  0  0  0  0  0
    2.0205   -0.0667   -0.5890 C   0  0  0  0  0  0  0  0  0  0  0  0
    3.0561   -0.3949   -1.2033 O   0  0  0  0  0  0  0  0  0  0  0  0
    1.4117   -1.0508    0.3351 C   0  0  0  0  0  0  0  0  0  0  0  0
   -0.0737   -1.1174    0.1280 C   0  0  0  0  0  0  0  0  0  0  0  0
   -0.4816   -0.7236   -1.1613 O   0  0  0  0  0  0  0  0  0  0  0  0
   -2.8333   -0.0514   -0.6284 H   0  0  0  0  0  0  0  0  0  0  0  0
   -2.3777    1.5002    0.0959 H   0  0  0  0  0  0  0  0  0  0  0  0
   -2.4919    0.0638    1.1768 H   0  0  0  0  0  0  0  0  0  0  0  0
   -0.2991    2.2794   -0.0972 H   0  0  0  0  0  0  0  0  0  0  0  0
    0.4883    1.2897    1.2058 H   0  0  0  0  0  0  0  0  0  0  0  0
    1.6562   -0.7013    1.3791 H   0  0  0  0  0  0  0  0  0  0  0  0
    1.8886   -2.0593    0.2246 H   0  0  0  0  0  0  0  0  0  0  0  0
   -0.6197   -1.9628    0.5984 H   0  0  0  0  0  0  0  0  0  0  0  0
  1  2  1  0
  2  3  1  0
  3  4  1  0
  4  5  1  0
  5  6  2  0
  5  7  1  0
  7  8  1  0
  8  9  1  0
  8  2  1  0
  9  2  1  0
  1 10  1  0
  1 11  1  0
  1 12  1  0
  3 13  1  0
  3 14  1  0
  7 15  1  0
  7 16  1  0
  8 17  1  0
M  END
