
     RDKit          3D

 19 21  0  0  0  0  0  0  0  0999 V2000
    2.1752   -0.2155   -0.6070 C   0  0  0  0  0  0  0  0  0  0  0  0
    0.8388    0.0069   -0.0042 C   0  0  0  0  0  0  0  0  0  0  0  0
    0.6412    0.9405    1.1182 C   0  0  0  0  0  0  0  0  0  0  0  0
   -0.6563    1.1891    1.2616 C   0  0  0  0  0  0  0  0  0  0  0  0
   -1.4453    0.4399    0.2425 C   0  0  0  0  0  0  0  0  0  0  0  0
   -1.4447   -1.0389    0.6055 C   0  0  0  0  0  0  0  0  0  0  0  0
   -0.1380   -1.1503   -0.1496 C   0  0  0  0  0  0  0  0  0  0  0  0
   -0.4043    0.1250   -0.7832 C   0  0  0  0  0  0  0  0  0  0  0  0
   -0.5074    0.4000   -2.0874 O   0  0  0  0  0  0  0  0  0  0  0  0
    2.9335   -0.1783    0.2283 H   0  0  0  0  0  0  0  0  0  0  0  0
    2.2796   -1.2524   -1.0249 H   0  0  0  0  0  0  0  0  0  0  0  0
    2.4620    0.4833   -1.3960 H   0  0  0  0  0  0  0  0  0  0  0  0
    1.4133    1.3611    1.7314 H   0  0  0  0  0  0  0  0  0  0  0  0
   -1.1155    1.8345    1.9972 H   0  0  0  0  0  0  0  0  0  0  0  0
   -2.3849    0.8657   -0.0751 H   0  0  0  0  0  0  0  0  0  0  0  0
   -2.2639   -1.6264    0.1607 H   0  0  0  0  0  0  0  0  0  0  0  0
   -1.3445   -1.2375    1.6855 H   0  0  0  0  0  0  0  0  0  0  0  0
    0.1507   -2.0630   -0.6545 H   0  0  0  0  0  0  0  0  0  0  0  0
   -1.1896    1.1163   -2.2490 H   0  0  0  0  0  0  0  0  0  0  0  0
  1  2  1  0
  2  3  1  0
  3  4  2  0
  4  5  1  0
  5  6  1  0
  6  7  1  0
  7  8  1  0
  8  9  1  0
  7  2  1  0
  8  2  1  0
  8  5  1  0
  1 10  1  0
  1 11  1  0
  1 12  1  0
  3 13  1  0
  4 14  1  0
  5 15  1  0
  6 16  1  0
  6 17  1  0
  7 18  1  0
  9 19  1  0
M  END
