
     RDKit          3D

 21 23  0  0  0  0  0  0  0  0999 V2000
    1.9642   -0.6042   -1.1471 C   0  0  0  0  0  0  0  0  0  0  0  0
    0.8820    0.0595   -0.2933 C   0  0  0  0  0  0  0  0  0  0  0  0
    0.2430   -0.8395    0.7293 C   0  0  0  0  0  0  0  0  0  0  0  0
   -1.2404   -0.6530    0.8390 C   0  0  0  0  0  0  0  0  0  0  0  0
   -1.9241   -0.5930   -0.5045 C   0  0  0  0  0  0  0  0  0  0  0  0
   -1.4689    0.8517   -0.3626 C   0  0  0  0  0  0  0  0  0  0  0  0
   -1.5135    0.6893    0.9978 O   0  0  0  0  0  0  0  0  0  0  0  0
   -0.0761    1.0017   -0.9108 C   0  0  0  0  0  0  0  0  0  0  0  0
    1.0368    1.5011   -0.0826 C   0  0  0  0  0  0  0  0  0  0  0  0
    2.6780    0.1609   -1.5513 H   0  0  0  0  0  0  0  0  0  0  0  0
    2.5147   -1.2800   -0.4829 H   0  0  0  0  0  0  0  0  0  0  0  0
    1.4232   -1.1192   -1.9657 H   0  0  0  0  0  0  0  0  0  0  0  0
    0.4899   -1.9075    0.5167 H   0  0  0  0  0  0  0  0  0  0  0  0
    0.6794   -0.6198    1.7302 H   0  0  0  0  0  0  0  0  0  0  0  0
   -1.6653   -1.3437    1.5725 H   0  0  0  0  0  0  0  0  0  0  0  0
   -1.4500   -1.1506   -1.3193 H   0  0  0  0  0  0  0  0  0  0  0  0
   -3.0135   -0.7196   -0.4224 H   0  0  0  0  0  0  0  0  0  0  0  0
   -2.2090    1.5136   -0.8281 H   0  0  0  0  0  0  0  0  0  0  0  0
   -0.0489    1.0785   -2.0218 H   0  0  0  0  0  0  0  0  0  0  0  0
    1.8818    2.0243   -0.5859 H   0  0  0  0  0  0  0  0  0  0  0  0
    0.8166    1.9496    0.9185 H   0  0  0  0  0  0  0  0  0  0  0  0
  1  2  1  0
  2  3  1  0
  3  4  1  0
  4  5  1  0
  5  6  1  0
  6  7  1  0
  6  8  1  0
  8  9  1  0
  8  2  1  0
  9  2  1  0
  7  4  1  0
  1 10  1  0
  1 11  1  0
  1 12  1  0
  3 13  1  0
  3 14  1  0
  4 15  1  0
  5 16  1  0
  5 17  1  0
  6 18  1  0
  8 19  1  0
  9 20  1  0
  9 21  1  0
M  END
