
     RDKit          3D

 21 22  0  0  0  0  0  0  0  0999 V2000
    2.0864   -0.3687    0.3405 C   0  0  0  0  0  0  0  0  0  0  0  0
    0.8063   -0.4538   -0.4216 C   0  0  0  0  0  0  0  0  0  0  0  0
   -0.1758   -1.5630   -0.1352 C   0  0  0  0  0  0  0  0  0  0  0  0
   -1.2872   -0.5398   -0.2269 C   0  0  0  0  0  0  0  0  0  0  0  0
   -2.2517   -0.5351    0.8646 C   0  0  0  0  0  0  0  0  0  0  0  0
   -2.1994    0.1083    1.8866 O   0  0  0  0  0  0  0  0  0  0  0  0
   -0.2753    0.5204   -0.3185 C   0  0  0  0  0  0  0  0  0  0  0  0
   -0.2371    1.7423    0.5153 C   0  0  0  0  0  0  0  0  0  0  0  0
    0.5932    0.4832   -1.5462 C   0  0  0  0  0  0  0  0  0  0  0  0
    2.2498   -1.2824    0.9534 H   0  0  0  0  0  0  0  0  0  0  0  0
    2.9201   -0.3777   -0.4163 H   0  0  0  0  0  0  0  0  0  0  0  0
    2.2038    0.5629    0.9176 H   0  0  0  0  0  0  0  0  0  0  0  0
   -0.0534   -1.8959    0.9166 H   0  0  0  0  0  0  0  0  0  0  0  0
   -0.2062   -2.3724   -0.8808 H   0  0  0  0  0  0  0  0  0  0  0  0
   -1.8030   -0.6801   -1.2236 H   0  0  0  0  0  0  0  0  0  0  0  0
   -3.1364   -1.1873    0.7631 H   0  0  0  0  0  0  0  0  0  0  0  0
   -0.4490    1.6224    1.5736 H   0  0  0  0  0  0  0  0  0  0  0  0
   -0.9402    2.4962    0.1034 H   0  0  0  0  0  0  0  0  0  0  0  0
    0.7806    2.2213    0.4505 H   0  0  0  0  0  0  0  0  0  0  0  0
    0.0697    0.2026   -2.4676 H   0  0  0  0  0  0  0  0  0  0  0  0
    1.3050    1.2966   -1.6484 H   0  0  0  0  0  0  0  0  0  0  0  0
  1  2  1  0
  2  3  1  0
  3  4  1  0
  4  5  1  0
  5  6  2  0
  4  7  1  0
  7  8  1  0
  7  9  1  0
  7  2  1  0
  9  2  1  0
  1 10  1  0
  1 11  1  0
  1 12  1  0
  3 13  1  0
  3 14  1  0
  4 15  1  0
  5 16  1  0
  8 17  1  0
  8 18  1  0
  8 19  1  0
  9 20  1  0
  9 21  1  0
M  END
