
     RDKit          3D

 19 21  0  0  0  0  0  0  0  0999 V2000
   -2.1458   -0.0883   -0.6528 C   0  0  0  0  0  0  0  0  0  0  0  0
   -0.7085    0.0265   -0.2781 C   0  0  0  0  0  0  0  0  0  0  0  0
    0.1770   -1.1748   -0.2500 C   0  0  0  0  0  0  0  0  0  0  0  0
    1.2835   -0.6855    0.6978 C   0  0  0  0  0  0  0  0  0  0  0  0
    2.0533    0.3476   -0.1134 C   0  0  0  0  0  0  0  0  0  0  0  0
    1.2762    1.3964   -0.4730 O   0  0  0  0  0  0  0  0  0  0  0  0
   -0.0446    1.3267   -0.1771 C   0  0  0  0  0  0  0  0  0  0  0  0
   -0.4374    0.6659    1.0667 C   0  0  0  0  0  0  0  0  0  0  0  0
    0.5613   -0.0503    1.6767 O   0  0  0  0  0  0  0  0  0  0  0  0
   -2.2612   -0.9922   -1.2910 H   0  0  0  0  0  0  0  0  0  0  0  0
   -2.5749    0.8080   -1.1038 H   0  0  0  0  0  0  0  0  0  0  0  0
   -2.7232   -0.2988    0.2886 H   0  0  0  0  0  0  0  0  0  0  0  0
   -0.3565   -2.0350    0.2268 H   0  0  0  0  0  0  0  0  0  0  0  0
    0.5884   -1.4493   -1.2295 H   0  0  0  0  0  0  0  0  0  0  0  0
    1.9104   -1.4919    1.0593 H   0  0  0  0  0  0  0  0  0  0  0  0
    2.9516    0.6455    0.4468 H   0  0  0  0  0  0  0  0  0  0  0  0
    2.3543   -0.2081   -1.0501 H   0  0  0  0  0  0  0  0  0  0  0  0
   -0.6425    2.2063   -0.5080 H   0  0  0  0  0  0  0  0  0  0  0  0
   -1.2613    1.0512    1.6640 H   0  0  0  0  0  0  0  0  0  0  0  0
  1  2  1  0
  2  3  1  0
  3  4  1  0
  4  5  1  0
  5  6  1  0
  6  7  1  0
  7  8  1  0
  8  9  1  0
  7  2  1  0
  8  2  1  0
  9  4  1  0
  1 10  1  0
  1 11  1  0
  1 12  1  0
  3 13  1  0
  3 14  1  0
  4 15  1  0
  5 16  1  0
  5 17  1  0
  7 18  1  0
  8 19  1  0
M  END
