
     RDKit          3D

 19 20  0  0  0  0  0  0  0  0999 V2000
   -1.1339   -0.2452   -1.0779 C   0  0  0  0  0  0  0  0  0  0  0  0
   -0.5608   -0.5037    0.3154 C   0  0  0  0  0  0  0  0  0  0  0  0
    0.5839   -1.4000    0.2845 C   0  0  0  0  0  0  0  0  0  0  0  0
    1.7137   -0.7178   -0.1389 O   0  0  0  0  0  0  0  0  0  0  0  0
    1.5097    0.4561   -0.8052 C   0  0  0  0  0  0  0  0  0  0  0  0
    0.6152    1.4145   -0.0318 C   0  0  0  0  0  0  0  0  0  0  0  0
    0.4842    2.5483   -0.3734 O   0  0  0  0  0  0  0  0  0  0  0  0
    0.0057    0.7381    1.1040 C   0  0  0  0  0  0  0  0  0  0  0  0
   -1.2531    0.1685    1.3551 C   0  0  0  0  0  0  0  0  0  0  0  0
   -0.7793   -0.9396   -1.8346 H   0  0  0  0  0  0  0  0  0  0  0  0
   -1.0802    0.8238   -1.3474 H   0  0  0  0  0  0  0  0  0  0  0  0
   -2.2404   -0.4552   -0.9631 H   0  0  0  0  0  0  0  0  0  0  0  0
    0.7630   -1.9006    1.2762 H   0  0  0  0  0  0  0  0  0  0  0  0
    0.4083   -2.2335   -0.4301 H   0  0  0  0  0  0  0  0  0  0  0  0
    2.5089    0.9909   -0.8052 H   0  0  0  0  0  0  0  0  0  0  0  0
    1.2218    0.3820   -1.8509 H   0  0  0  0  0  0  0  0  0  0  0  0
    0.8176    0.5117    1.8613 H   0  0  0  0  0  0  0  0  0  0  0  0
   -2.1721    0.7619    1.1467 H   0  0  0  0  0  0  0  0  0  0  0  0
   -1.4123   -0.4002    2.3154 H   0  0  0  0  0  0  0  0  0  0  0  0
  1  2  1  0
  2  3  1  0
  3  4  1  0
  4  5  1  0
  5  6  1  0
  6  7  2  0
  6  8  1  0
  8  9  1  0
  8  2  1  0
  9  2  1  0
  1 10  1  0
  1 11  1  0
  1 12  1  0
  3 13  1  0
  3 14  1  0
  5 15  1  0
  5 16  1  0
  8 17  1  0
  9 18  1  0
  9 19  1  0
M  END
