
     RDKit          3D

 19 20  0  0  0  0  0  0  0  0999 V2000
   -2.0904    0.9333    0.5507 C   0  0  0  0  0  0  0  0  0  0  0  0
   -0.9016    0.2042    0.1363 C   0  0  0  0  0  0  0  0  0  0  0  0
   -0.5770   -1.0241    0.8997 C   0  0  0  0  0  0  0  0  0  0  0  0
    0.7428   -1.2070    0.7056 C   0  0  0  0  0  0  0  0  0  0  0  0
    1.1392   -0.1215   -0.2179 C   0  0  0  0  0  0  0  0  0  0  0  0
    2.5619    0.2342   -0.2012 C   0  0  0  0  0  0  0  0  0  0  0  0
    0.5881   -0.3797   -1.4538 O   0  0  0  0  0  0  0  0  0  0  0  0
   -0.8012   -0.1353   -1.3294 C   0  0  0  0  0  0  0  0  0  0  0  0
    0.3143    0.9197    0.2814 O   0  0  0  0  0  0  0  0  0  0  0  0
   -2.6601    0.3555    1.3146 H   0  0  0  0  0  0  0  0  0  0  0  0
   -2.8383    1.1459   -0.2632 H   0  0  0  0  0  0  0  0  0  0  0  0
   -1.8129    1.9230    0.9952 H   0  0  0  0  0  0  0  0  0  0  0  0
   -1.2786   -1.6005    1.4648 H   0  0  0  0  0  0  0  0  0  0  0  0
    1.2952   -1.9987    1.1668 H   0  0  0  0  0  0  0  0  0  0  0  0
    2.7957    0.8662   -1.0751 H   0  0  0  0  0  0  0  0  0  0  0  0
    3.2056   -0.6609   -0.1872 H   0  0  0  0  0  0  0  0  0  0  0  0
    2.7554    0.8914    0.6961 H   0  0  0  0  0  0  0  0  0  0  0  0
   -1.3841   -1.0501   -1.5028 H   0  0  0  0  0  0  0  0  0  0  0  0
   -1.0539    0.7043   -1.9805 H   0  0  0  0  0  0  0  0  0  0  0  0
  1  2  1  0
  2  3  1  0
  3  4  2  0
  4  5  1  0
  5  6  1  0
  5  7  1  0
  7  8  1  0
  5  9  1  0
  8  2  1  0
  9  2  1  0
  1 10  1  0
  1 11  1  0
  1 12  1  0
  3 13  1  0
  4 14  1  0
  6 15  1  0
  6 16  1  0
  6 17  1  0
  8 18  1  0
  8 19  1  0
M  END
