
     RDKit          3D

 19 21  0  0  0  0  0  0  0  0999 V2000
    1.7079   -0.8941   -0.4145 C   0  0  0  0  0  0  0  0  0  0  0  0
    0.3839   -0.3649   -0.0449 C   0  0  0  0  0  0  0  0  0  0  0  0
   -0.5231   -1.2446    0.7821 C   0  0  0  0  0  0  0  0  0  0  0  0
   -1.7834   -1.2293    0.1923 O   0  0  0  0  0  0  0  0  0  0  0  0
   -1.8530   -0.0348   -0.5557 C   0  0  0  0  0  0  0  0  0  0  0  0
   -1.0721    1.1332   -0.1409 C   0  0  0  0  0  0  0  0  0  0  0  0
    0.2988    1.0564    0.4445 C   0  0  0  0  0  0  0  0  0  0  0  0
    0.4322    1.2572    1.7901 O   0  0  0  0  0  0  0  0  0  0  0  0
   -0.5415    0.0669   -1.1496 C   0  0  0  0  0  0  0  0  0  0  0  0
    2.5470   -0.2617   -0.0833 H   0  0  0  0  0  0  0  0  0  0  0  0
    1.8715   -1.9176    0.0305 H   0  0  0  0  0  0  0  0  0  0  0  0
    1.7348   -1.0623   -1.5212 H   0  0  0  0  0  0  0  0  0  0  0  0
   -0.6663   -0.8037    1.8114 H   0  0  0  0  0  0  0  0  0  0  0  0
   -0.0876   -2.2595    0.8431 H   0  0  0  0  0  0  0  0  0  0  0  0
   -2.7545    0.1150   -1.1290 H   0  0  0  0  0  0  0  0  0  0  0  0
   -1.3600    2.1032   -0.5417 H   0  0  0  0  0  0  0  0  0  0  0  0
    1.0135    1.6834   -0.1655 H   0  0  0  0  0  0  0  0  0  0  0  0
    0.8764    2.1535    1.9203 H   0  0  0  0  0  0  0  0  0  0  0  0
   -0.2245    0.5040   -2.0680 H   0  0  0  0  0  0  0  0  0  0  0  0
  1  2  1  0
  2  3  1  0
  3  4  1  0
  4  5  1  0
  5  6  1  0
  6  7  1  0
  7  8  1  0
  6  9  1  0
  7  2  1  0
  9  2  1  0
  9  5  1  0
  1 10  1  0
  1 11  1  0
  1 12  1  0
  3 13  1  0
  3 14  1  0
  5 15  1  0
  6 16  1  0
  7 17  1  0
  8 18  1  0
  9 19  1  0
M  END
