
     RDKit          3D

 19 20  0  0  0  0  0  0  0  0999 V2000
    2.3490   -0.4127    0.1330 C   0  0  0  0  0  0  0  0  0  0  0  0
    0.8785   -0.0805   -0.1583 C   0  0  0  0  0  0  0  0  0  0  0  0
   -0.0618   -1.2400   -0.1212 C   0  0  0  0  0  0  0  0  0  0  0  0
   -1.3816   -0.8395   -0.7686 C   0  0  0  0  0  0  0  0  0  0  0  0
   -1.9306    0.2686    0.0629 C   0  0  0  0  0  0  0  0  0  0  0  0
   -3.1032    0.2813    0.3954 O   0  0  0  0  0  0  0  0  0  0  0  0
   -1.0674    1.3681    0.4980 C   0  0  0  0  0  0  0  0  0  0  0  0
    0.3823    1.1646    0.2512 C   0  0  0  0  0  0  0  0  0  0  0  0
    0.7138    0.9262   -1.1025 O   0  0  0  0  0  0  0  0  0  0  0  0
    2.9947   -0.0746   -0.7096 H   0  0  0  0  0  0  0  0  0  0  0  0
    2.4481   -1.4712    0.3681 H   0  0  0  0  0  0  0  0  0  0  0  0
    2.5920    0.1484    1.0728 H   0  0  0  0  0  0  0  0  0  0  0  0
   -0.3053   -1.4580    0.9494 H   0  0  0  0  0  0  0  0  0  0  0  0
    0.3476   -2.1640   -0.5689 H   0  0  0  0  0  0  0  0  0  0  0  0
   -2.0673   -1.7196   -0.8027 H   0  0  0  0  0  0  0  0  0  0  0  0
   -1.2104   -0.5129   -1.8156 H   0  0  0  0  0  0  0  0  0  0  0  0
   -1.2419    1.6406    1.5762 H   0  0  0  0  0  0  0  0  0  0  0  0
   -1.3796    2.2913   -0.0667 H   0  0  0  0  0  0  0  0  0  0  0  0
    1.0431    1.8837    0.8070 H   0  0  0  0  0  0  0  0  0  0  0  0
  1  2  1  0
  2  3  1  0
  3  4  1  0
  4  5  1  0
  5  6  2  0
  5  7  1  0
  7  8  1  0
  8  9  1  0
  8  2  1  0
  9  2  1  0
  1 10  1  0
  1 11  1  0
  1 12  1  0
  3 13  1  0
  3 14  1  0
  4 15  1  0
  4 16  1  0
  7 17  1  0
  7 18  1  0
  8 19  1  0
M  END
