
     RDKit          3D

 21 23  0  0  0  0  0  0  0  0999 V2000
   -1.4083   -0.3379   -1.1288 C   0  0  0  0  0  0  0  0  0  0  0  0
   -0.9486   -0.2770    0.3149 C   0  0  0  0  0  0  0  0  0  0  0  0
   -1.7778    0.5340    1.1191 C   0  0  0  0  0  0  0  0  0  0  0  0
   -0.5406    1.1563    0.8549 C   0  0  0  0  0  0  0  0  0  0  0  0
    0.3606    1.3158   -0.3091 C   0  0  0  0  0  0  0  0  0  0  0  0
    1.3920    0.2426    0.0083 C   0  0  0  0  0  0  0  0  0  0  0  0
    1.3947   -1.1038   -0.5027 C   0  0  0  0  0  0  0  0  0  0  0  0
    2.4974   -1.8902   -0.0860 O   0  0  0  0  0  0  0  0  0  0  0  0
    0.3857   -0.8595    0.5130 C   0  0  0  0  0  0  0  0  0  0  0  0
   -1.9845    0.5860   -1.4324 H   0  0  0  0  0  0  0  0  0  0  0  0
   -0.6818   -0.6649   -1.8518 H   0  0  0  0  0  0  0  0  0  0  0  0
   -2.2169   -1.1348   -1.1245 H   0  0  0  0  0  0  0  0  0  0  0  0
   -2.0423    0.0975    2.1307 H   0  0  0  0  0  0  0  0  0  0  0  0
   -2.6982    1.0320    0.7312 H   0  0  0  0  0  0  0  0  0  0  0  0
    0.1179    1.1581    1.7832 H   0  0  0  0  0  0  0  0  0  0  0  0
    0.8964    2.2878   -0.2929 H   0  0  0  0  0  0  0  0  0  0  0  0
   -0.0476    1.1859   -1.3000 H   0  0  0  0  0  0  0  0  0  0  0  0
    2.1524    0.5499    0.7794 H   0  0  0  0  0  0  0  0  0  0  0  0
    1.2242   -1.2556   -1.5753 H   0  0  0  0  0  0  0  0  0  0  0  0
    3.3406   -1.4068   -0.1906 H   0  0  0  0  0  0  0  0  0  0  0  0
    0.5847   -1.2153    1.5593 H   0  0  0  0  0  0  0  0  0  0  0  0
  1  2  1  0
  2  3  1  0
  3  4  1  0
  4  5  1  0
  5  6  1  0
  6  7  1  0
  7  8  1  0
  7  9  1  0
  4  2  1  0
  9  6  1  0
  9  2  1  0
  1 10  1  0
  1 11  1  0
  1 12  1  0
  3 13  1  0
  3 14  1  0
  4 15  1  0
  5 16  1  0
  5 17  1  0
  6 18  1  0
  7 19  1  0
  8 20  1  0
  9 21  1  0
M  END
