
     RDKit          3D

 18 20  0  0  0  0  0  0  0  0999 V2000
    0.1723   -2.1822    0.0182 C   0  0  0  0  0  0  0  0  0  0  0  0
    0.2002   -0.7176   -0.1689 C   0  0  0  0  0  0  0  0  0  0  0  0
   -0.0101   -0.2572   -1.4504 O   0  0  0  0  0  0  0  0  0  0  0  0
   -0.6397    0.2946   -0.2205 C   0  0  0  0  0  0  0  0  0  0  0  0
   -2.0308    0.6427   -0.4695 C   0  0  0  0  0  0  0  0  0  0  0  0
    0.2729    1.2825    0.4567 C   0  0  0  0  0  0  0  0  0  0  0  0
    1.6948    1.3601    0.0545 C   0  0  0  0  0  0  0  0  0  0  0  0
    1.2502    0.0750    0.6253 C   0  0  0  0  0  0  0  0  0  0  0  0
    1.1864   -2.4986    0.4047 H   0  0  0  0  0  0  0  0  0  0  0  0
    0.0978   -2.7139   -0.9769 H   0  0  0  0  0  0  0  0  0  0  0  0
   -0.5529   -2.5703    0.7352 H   0  0  0  0  0  0  0  0  0  0  0  0
   -2.7220   -0.1856   -0.6040 H   0  0  0  0  0  0  0  0  0  0  0  0
   -2.0884    1.3170   -1.3753 H   0  0  0  0  0  0  0  0  0  0  0  0
   -2.4157    1.3012    0.3643 H   0  0  0  0  0  0  0  0  0  0  0  0
   -0.1263    1.7271    1.3623 H   0  0  0  0  0  0  0  0  0  0  0  0
    2.3858    1.9532    0.6498 H   0  0  0  0  0  0  0  0  0  0  0  0
    1.8507    1.4025   -1.0542 H   0  0  0  0  0  0  0  0  0  0  0  0
    1.4749   -0.2306    1.6489 H   0  0  0  0  0  0  0  0  0  0  0  0
  1  2  1  0
  2  3  1  0
  3  4  1  0
  4  5  1  0
  4  6  1  0
  6  7  1  0
  7  8  1  0
  4  2  1  0
  8  6  1  0
  8  2  1  0
  1  9  1  0
  1 10  1  0
  1 11  1  0
  5 12  1  0
  5 13  1  0
  5 14  1  0
  6 15  1  0
  7 16  1  0
  7 17  1  0
  8 18  1  0
M  END
