
     RDKit          3D

 17 19  0  0  0  0  0  0  0  0999 V2000
    1.8912   -0.1048    0.4127 C   0  0  0  0  0  0  0  0  0  0  0  0
    0.4738   -0.0028    0.0919 C   0  0  0  0  0  0  0  0  0  0  0  0
   -0.1773    1.3641    0.0397 C   0  0  0  0  0  0  0  0  0  0  0  0
   -1.5587    0.9141   -0.2823 C   0  0  0  0  0  0  0  0  0  0  0  0
   -2.5155    1.6053   -0.4409 O   0  0  0  0  0  0  0  0  0  0  0  0
   -1.4541   -0.5369   -0.3534 C   0  0  0  0  0  0  0  0  0  0  0  0
   -0.1250   -0.8351   -0.9823 C   0  0  0  0  0  0  0  0  0  0  0  0
   -0.0434   -1.9159   -0.1198 O   0  0  0  0  0  0  0  0  0  0  0  0
   -0.5101   -0.9327    0.7305 C   0  0  0  0  0  0  0  0  0  0  0  0
    2.2046    0.7113    1.0702 H   0  0  0  0  0  0  0  0  0  0  0  0
    2.0883   -1.0527    0.9553 H   0  0  0  0  0  0  0  0  0  0  0  0
    2.4977   -0.0108   -0.5203 H   0  0  0  0  0  0  0  0  0  0  0  0
    0.2455    1.9654   -0.7844 H   0  0  0  0  0  0  0  0  0  0  0  0
   -0.0988    1.8282    1.0212 H   0  0  0  0  0  0  0  0  0  0  0  0
   -2.2971   -1.1463   -0.5861 H   0  0  0  0  0  0  0  0  0  0  0  0
    0.0867   -0.8297   -1.9682 H   0  0  0  0  0  0  0  0  0  0  0  0
   -0.7079   -1.0206    1.7160 H   0  0  0  0  0  0  0  0  0  0  0  0
  1  2  1  0
  2  3  1  0
  3  4  1  0
  4  5  2  0
  4  6  1  0
  6  7  1  0
  7  8  1  0
  8  9  1  0
  7  2  1  0
  9  2  1  0
  9  6  1  0
  1 10  1  0
  1 11  1  0
  1 12  1  0
  3 13  1  0
  3 14  1  0
  6 15  1  0
  7 16  1  0
  9 17  1  0
M  END
