
     RDKit          3D

 21 22  0  0  0  0  0  0  0  0999 V2000
   -1.4971    1.4888   -0.2510 C   0  0  0  0  0  0  0  0  0  0  0  0
   -0.8992    0.1802    0.2044 C   0  0  0  0  0  0  0  0  0  0  0  0
   -1.8970   -0.9936    0.1124 C   0  0  0  0  0  0  0  0  0  0  0  0
   -0.7735   -0.8557   -0.8303 C   0  0  0  0  0  0  0  0  0  0  0  0
    0.4936   -1.5840   -0.6600 C   0  0  0  0  0  0  0  0  0  0  0  0
    1.6719   -1.1085   -0.2898 C   0  0  0  0  0  0  0  0  0  0  0  0
    1.9821    0.3080    0.0452 C   0  0  0  0  0  0  0  0  0  0  0  0
    1.1177    0.7763    1.1929 C   0  0  0  0  0  0  0  0  0  0  0  0
   -0.0794    0.1173    1.2875 O   0  0  0  0  0  0  0  0  0  0  0  0
   -2.5758    1.4057   -0.4979 H   0  0  0  0  0  0  0  0  0  0  0  0
   -1.3976    2.2926    0.4853 H   0  0  0  0  0  0  0  0  0  0  0  0
   -1.0035    1.8475   -1.1973 H   0  0  0  0  0  0  0  0  0  0  0  0
   -1.8197   -1.7967    0.8646 H   0  0  0  0  0  0  0  0  0  0  0  0
   -2.8964   -0.8043   -0.2757 H   0  0  0  0  0  0  0  0  0  0  0  0
   -1.0086   -0.5934   -1.8802 H   0  0  0  0  0  0  0  0  0  0  0  0
    0.5048   -2.6491   -0.8530 H   0  0  0  0  0  0  0  0  0  0  0  0
    2.4908   -1.8364   -0.2272 H   0  0  0  0  0  0  0  0  0  0  0  0
    3.0492    0.3699    0.3322 H   0  0  0  0  0  0  0  0  0  0  0  0
    1.8067    0.9916   -0.8039 H   0  0  0  0  0  0  0  0  0  0  0  0
    1.6938    0.5671    2.1192 H   0  0  0  0  0  0  0  0  0  0  0  0
    1.0372    1.8767    1.1224 H   0  0  0  0  0  0  0  0  0  0  0  0
  1  2  1  0
  2  3  1  0
  3  4  1  0
  4  5  1  0
  5  6  2  0
  6  7  1  0
  7  8  1  0
  8  9  1  0
  4  2  1  0
  9  2  1  0
  1 10  1  0
  1 11  1  0
  1 12  1  0
  3 13  1  0
  3 14  1  0
  4 15  1  0
  5 16  1  0
  6 17  1  0
  7 18  1  0
  7 19  1  0
  8 20  1  0
  8 21  1  0
M  END
