
     RDKit          3D

 19 20  0  0  0  0  0  0  0  0999 V2000
    1.8629    0.0828   -0.4600 C   0  0  0  0  0  0  0  0  0  0  0  0
    0.5581   -0.3506    0.1157 C   0  0  0  0  0  0  0  0  0  0  0  0
   -0.0309   -1.6479   -0.4484 C   0  0  0  0  0  0  0  0  0  0  0  0
   -1.0592   -1.1617   -1.2439 O   0  0  0  0  0  0  0  0  0  0  0  0
   -1.7176   -0.2487   -0.4081 C   0  0  0  0  0  0  0  0  0  0  0  0
   -0.6054    0.5456    0.2244 C   0  0  0  0  0  0  0  0  0  0  0  0
   -0.5259    1.9938   -0.0199 C   0  0  0  0  0  0  0  0  0  0  0  0
    0.1026    2.7396    0.7004 O   0  0  0  0  0  0  0  0  0  0  0  0
    0.0910    0.0141    1.4522 C   0  0  0  0  0  0  0  0  0  0  0  0
    1.7356    0.5493   -1.4671 H   0  0  0  0  0  0  0  0  0  0  0  0
    2.4516    0.7242    0.2248 H   0  0  0  0  0  0  0  0  0  0  0  0
    2.4664   -0.8381   -0.6423 H   0  0  0  0  0  0  0  0  0  0  0  0
   -0.5186   -2.2405    0.3725 H   0  0  0  0  0  0  0  0  0  0  0  0
    0.7238   -2.2163   -0.9870 H   0  0  0  0  0  0  0  0  0  0  0  0
   -2.3259   -0.7936    0.3566 H   0  0  0  0  0  0  0  0  0  0  0  0
   -2.3592    0.4090   -1.0115 H   0  0  0  0  0  0  0  0  0  0  0  0
   -1.0392    2.4221   -0.8656 H   0  0  0  0  0  0  0  0  0  0  0  0
    0.6702    0.7458    2.0251 H   0  0  0  0  0  0  0  0  0  0  0  0
   -0.4803   -0.7289    2.0818 H   0  0  0  0  0  0  0  0  0  0  0  0
  1  2  1  0
  2  3  1  0
  3  4  1  0
  4  5  1  0
  5  6  1  0
  6  7  1  0
  7  8  2  0
  6  9  1  0
  6  2  1  0
  9  2  1  0
  1 10  1  0
  1 11  1  0
  1 12  1  0
  3 13  1  0
  3 14  1  0
  5 15  1  0
  5 16  1  0
  7 17  1  0
  9 18  1  0
  9 19  1  0
M  END
