
     RDKit          3D

 23 24  0  0  0  0  0  0  0  0999 V2000
   -2.2761   -0.7723   -0.0197 C   0  0  0  0  0  0  0  0  0  0  0  0
   -0.8783   -0.2234   -0.0932 C   0  0  0  0  0  0  0  0  0  0  0  0
   -0.8598    1.2612   -0.2191 C   0  0  0  0  0  0  0  0  0  0  0  0
    0.4526    1.8683    0.1092 C   0  0  0  0  0  0  0  0  0  0  0  0
    1.5829    1.2693    0.4933 C   0  0  0  0  0  0  0  0  0  0  0  0
    2.1334   -0.0315   -0.0324 C   0  0  0  0  0  0  0  0  0  0  0  0
    1.0500   -1.0708   -0.0660 C   0  0  0  0  0  0  0  0  0  0  0  0
    0.0206   -0.8414   -1.1244 C   0  0  0  0  0  0  0  0  0  0  0  0
    0.0072   -0.7727    0.9755 C   0  0  0  0  0  0  0  0  0  0  0  0
   -2.3378   -1.7931    0.3743 H   0  0  0  0  0  0  0  0  0  0  0  0
   -2.7693   -0.6736   -0.9937 H   0  0  0  0  0  0  0  0  0  0  0  0
   -2.8429   -0.1239    0.6897 H   0  0  0  0  0  0  0  0  0  0  0  0
   -1.6124    1.7531    0.4316 H   0  0  0  0  0  0  0  0  0  0  0  0
   -1.1014    1.5352   -1.2649 H   0  0  0  0  0  0  0  0  0  0  0  0
    0.4478    2.9503    0.0102 H   0  0  0  0  0  0  0  0  0  0  0  0
    2.1666    1.7692    1.2633 H   0  0  0  0  0  0  0  0  0  0  0  0
    2.6312    0.1248   -1.0080 H   0  0  0  0  0  0  0  0  0  0  0  0
    2.9037   -0.3795    0.6919 H   0  0  0  0  0  0  0  0  0  0  0  0
    1.4971   -2.0837   -0.0326 H   0  0  0  0  0  0  0  0  0  0  0  0
   -0.4027   -1.8185   -1.4831 H   0  0  0  0  0  0  0  0  0  0  0  0
    0.2695   -0.1234   -1.9224 H   0  0  0  0  0  0  0  0  0  0  0  0
   -0.3745   -1.7305    1.4359 H   0  0  0  0  0  0  0  0  0  0  0  0
    0.2924   -0.0930    1.7845 H   0  0  0  0  0  0  0  0  0  0  0  0
  1  2  1  0
  2  3  1  0
  3  4  1  0
  4  5  2  0
  5  6  1  0
  6  7  1  0
  7  8  1  0
  7  9  1  0
  8  2  1  0
  9  2  1  0
  1 10  1  0
  1 11  1  0
  1 12  1  0
  3 13  1  0
  3 14  1  0
  4 15  1  0
  5 16  1  0
  6 17  1  0
  6 18  1  0
  7 19  1  0
  8 20  1  0
  8 21  1  0
  9 22  1  0
  9 23  1  0
M  END
