
     RDKit          3D

 19 21  0  0  0  0  0  0  0  0999 V2000
   -2.1930   -0.1834   -0.0059 C   0  0  0  0  0  0  0  0  0  0  0  0
   -0.7069    0.1544   -0.1860 C   0  0  0  0  0  0  0  0  0  0  0  0
   -0.3194    1.5366   -0.5520 C   0  0  0  0  0  0  0  0  0  0  0  0
   -0.0879    0.9498    0.8323 C   0  0  0  0  0  0  0  0  0  0  0  0
    1.1432    0.6956    1.2887 O   0  0  0  0  0  0  0  0  0  0  0  0
    1.8883   -0.2906    0.7862 C   0  0  0  0  0  0  0  0  0  0  0  0
    1.2962   -1.2192   -0.1832 C   0  0  0  0  0  0  0  0  0  0  0  0
    1.2704   -0.5687   -1.5432 O   0  0  0  0  0  0  0  0  0  0  0  0
    0.0998   -0.9395   -0.8105 C   0  0  0  0  0  0  0  0  0  0  0  0
   -2.4667   -1.0673   -0.5908 H   0  0  0  0  0  0  0  0  0  0  0  0
   -2.2745   -0.4959    1.0761 H   0  0  0  0  0  0  0  0  0  0  0  0
   -2.8357    0.6862   -0.1244 H   0  0  0  0  0  0  0  0  0  0  0  0
    0.5783    1.6820   -1.2150 H   0  0  0  0  0  0  0  0  0  0  0  0
   -1.0747    2.3222   -0.6972 H   0  0  0  0  0  0  0  0  0  0  0  0
   -0.7684    1.4292    1.5998 H   0  0  0  0  0  0  0  0  0  0  0  0
    2.8162    0.1567    0.3202 H   0  0  0  0  0  0  0  0  0  0  0  0
    2.3063   -0.9006    1.6429 H   0  0  0  0  0  0  0  0  0  0  0  0
    1.7906   -2.2278   -0.2675 H   0  0  0  0  0  0  0  0  0  0  0  0
   -0.4621   -1.7198   -1.3703 H   0  0  0  0  0  0  0  0  0  0  0  0
  1  2  1  0
  2  3  1  0
  3  4  1  0
  4  5  1  0
  5  6  1  0
  6  7  1  0
  7  8  1  0
  8  9  1  0
  4  2  1  0
  9  7  1  0
  9  2  1  0
  1 10  1  0
  1 11  1  0
  1 12  1  0
  3 13  1  0
  3 14  1  0
  4 15  1  0
  6 16  1  0
  6 17  1  0
  7 18  1  0
  9 19  1  0
M  END
