
     RDKit          3D

 21 23  0  0  0  0  0  0  0  0999 V2000
    1.2488    1.4151   -0.6729 C   0  0  0  0  0  0  0  0  0  0  0  0
    0.5220    0.3864    0.0550 C   0  0  0  0  0  0  0  0  0  0  0  0
    0.2875   -1.0280   -0.5879 C   0  0  0  0  0  0  0  0  0  0  0  0
   -0.9479   -1.2046   -0.9522 C   0  0  0  0  0  0  0  0  0  0  0  0
   -1.8988   -0.0299   -0.6432 C   0  0  0  0  0  0  0  0  0  0  0  0
   -1.6138   -0.0031    0.9252 C   0  0  0  0  0  0  0  0  0  0  0  0
   -0.2059    0.4450    1.1848 C   0  0  0  0  0  0  0  0  0  0  0  0
    1.0923   -0.3417    1.1276 C   0  0  0  0  0  0  0  0  0  0  0  0
    1.6829   -0.9716   -0.2201 C   0  0  0  0  0  0  0  0  0  0  0  0
    0.6871    2.3944   -0.5435 H   0  0  0  0  0  0  0  0  0  0  0  0
    2.2553    1.6853   -0.2290 H   0  0  0  0  0  0  0  0  0  0  0  0
    1.3845    1.2419   -1.7637 H   0  0  0  0  0  0  0  0  0  0  0  0
   -1.3072   -2.0761   -1.4268 H   0  0  0  0  0  0  0  0  0  0  0  0
   -2.9045   -0.3374   -0.8180 H   0  0  0  0  0  0  0  0  0  0  0  0
   -1.5253    0.9049   -1.0125 H   0  0  0  0  0  0  0  0  0  0  0  0
   -1.7114   -1.0322    1.2836 H   0  0  0  0  0  0  0  0  0  0  0  0
   -2.3348    0.6351    1.4177 H   0  0  0  0  0  0  0  0  0  0  0  0
   -0.1142    1.2727    1.9398 H   0  0  0  0  0  0  0  0  0  0  0  0
    0.8968   -1.1852    1.7458 H   0  0  0  0  0  0  0  0  0  0  0  0
    2.2973   -0.2657   -0.7682 H   0  0  0  0  0  0  0  0  0  0  0  0
    2.2091   -1.9053   -0.0414 H   0  0  0  0  0  0  0  0  0  0  0  0
  1  2  1  0
  2  3  1  0
  3  4  2  0
  4  5  1  0
  5  6  1  0
  6  7  1  0
  7  8  1  0
  8  9  1  0
  7  2  1  0
  8  2  1  0
  9  3  1  0
  1 10  1  0
  1 11  1  0
  1 12  1  0
  4 13  1  0
  5 14  1  0
  5 15  1  0
  6 16  1  0
  6 17  1  0
  7 18  1  0
  8 19  1  0
  9 20  1  0
  9 21  1  0
M  END
