
     RDKit          3D

 19 21  0  0  0  0  0  0  0  0999 V2000
   -1.8448    1.0382   -0.2096 C   0  0  0  0  0  0  0  0  0  0  0  0
   -0.6371    0.2393   -0.1361 C   0  0  0  0  0  0  0  0  0  0  0  0
   -0.5867   -0.9465    0.8014 C   0  0  0  0  0  0  0  0  0  0  0  0
    0.4927   -1.4067   -0.1770 C   0  0  0  0  0  0  0  0  0  0  0  0
   -0.4090   -0.7894   -1.2226 C   0  0  0  0  0  0  0  0  0  0  0  0
   -0.7605   -1.0127   -2.3488 O   0  0  0  0  0  0  0  0  0  0  0  0
    1.5930   -0.3999   -0.1148 C   0  0  0  0  0  0  0  0  0  0  0  0
    1.7004    0.6061    0.9588 C   0  0  0  0  0  0  0  0  0  0  0  0
    0.7075    0.8998   -0.0892 C   0  0  0  0  0  0  0  0  0  0  0  0
   -1.7124    2.0055    0.3079 H   0  0  0  0  0  0  0  0  0  0  0  0
   -2.7108    0.4954    0.2084 H   0  0  0  0  0  0  0  0  0  0  0  0
   -2.0629    1.3029   -1.2806 H   0  0  0  0  0  0  0  0  0  0  0  0
   -1.4916   -1.5702    0.6502 H   0  0  0  0  0  0  0  0  0  0  0  0
   -0.2635   -0.7636    1.8196 H   0  0  0  0  0  0  0  0  0  0  0  0
    0.6940   -2.4430   -0.2539 H   0  0  0  0  0  0  0  0  0  0  0  0
    2.3214   -0.4586   -0.9315 H   0  0  0  0  0  0  0  0  0  0  0  0
    1.4207    0.3681    1.9991 H   0  0  0  0  0  0  0  0  0  0  0  0
    2.6228    1.2358    0.9121 H   0  0  0  0  0  0  0  0  0  0  0  0
    0.9268    1.5996   -0.8933 H   0  0  0  0  0  0  0  0  0  0  0  0
  1  2  1  0
  2  3  1  0
  3  4  1  0
  4  5  1  0
  5  6  2  0
  4  7  1  0
  7  8  1  0
  8  9  1  0
  5  2  1  0
  9  7  1  0
  9  2  1  0
  1 10  1  0
  1 11  1  0
  1 12  1  0
  3 13  1  0
  3 14  1  0
  4 15  1  0
  7 16  1  0
  8 17  1  0
  8 18  1  0
  9 19  1  0
M  END
