
     RDKit          3D

 17 20  0  0  0  0  0  0  0  0999 V2000
    1.8877   -0.4153    0.7544 C   0  0  0  0  0  0  0  0  0  0  0  0
    0.5868   -0.1668    0.1988 C   0  0  0  0  0  0  0  0  0  0  0  0
   -0.5070   -1.1401   -0.0271 C   0  0  0  0  0  0  0  0  0  0  0  0
   -1.4100   -0.7965    1.0023 O   0  0  0  0  0  0  0  0  0  0  0  0
   -1.5670    0.5728    0.6940 C   0  0  0  0  0  0  0  0  0  0  0  0
   -2.0639    0.4295   -0.6245 O   0  0  0  0  0  0  0  0  0  0  0  0
   -0.9865   -0.2925   -1.1700 C   0  0  0  0  0  0  0  0  0  0  0  0
    0.1516    0.6499   -0.8853 C   0  0  0  0  0  0  0  0  0  0  0  0
   -0.2014    1.1252    0.4574 C   0  0  0  0  0  0  0  0  0  0  0  0
    2.6902    0.0277    0.0956 H   0  0  0  0  0  0  0  0  0  0  0  0
    2.0142    0.1416    1.7297 H   0  0  0  0  0  0  0  0  0  0  0  0
    2.0923   -1.4700    0.9889 H   0  0  0  0  0  0  0  0  0  0  0  0
   -0.3071   -2.1766   -0.1839 H   0  0  0  0  0  0  0  0  0  0  0  0
   -2.2123    1.1085    1.3531 H   0  0  0  0  0  0  0  0  0  0  0  0
   -1.0966   -0.7128   -2.1383 H   0  0  0  0  0  0  0  0  0  0  0  0
    0.6928    1.1774   -1.6386 H   0  0  0  0  0  0  0  0  0  0  0  0
    0.2361    1.9380    0.9945 H   0  0  0  0  0  0  0  0  0  0  0  0
  1  2  1  0
  2  3  1  0
  3  4  1  0
  4  5  1  0
  5  6  1  0
  6  7  1  0
  7  8  1  0
  8  9  1  0
  8  2  1  0
  9  2  1  0
  7  3  1  0
  9  5  1  0
  1 10  1  0
  1 11  1  0
  1 12  1  0
  3 13  1  0
  5 14  1  0
  7 15  1  0
  8 16  1  0
  9 17  1  0
M  END
