
     RDKit          3D

 21 23  0  0  0  0  0  0  0  0999 V2000
    2.0396    0.0122    0.6383 C   0  0  0  0  0  0  0  0  0  0  0  0
    0.7015    0.0934    0.0003 C   0  0  0  0  0  0  0  0  0  0  0  0
    0.1405    1.4510   -0.2631 C   0  0  0  0  0  0  0  0  0  0  0  0
   -1.3271    1.1922   -0.5284 C   0  0  0  0  0  0  0  0  0  0  0  0
   -1.6247   -0.1983   -0.0272 C   0  0  0  0  0  0  0  0  0  0  0  0
   -0.7590   -1.3183   -0.5323 C   0  0  0  0  0  0  0  0  0  0  0  0
    0.5364   -0.8694   -1.1629 C   0  0  0  0  0  0  0  0  0  0  0  0
   -0.4213   -0.6172    0.6883 C   0  0  0  0  0  0  0  0  0  0  0  0
   -0.3588   -1.1120    1.9348 O   0  0  0  0  0  0  0  0  0  0  0  0
    2.8445    0.2962   -0.0320 H   0  0  0  0  0  0  0  0  0  0  0  0
    2.2137   -1.0714    0.9015 H   0  0  0  0  0  0  0  0  0  0  0  0
    2.0672    0.5487    1.6040 H   0  0  0  0  0  0  0  0  0  0  0  0
    0.2069    2.0720    0.6392 H   0  0  0  0  0  0  0  0  0  0  0  0
    0.5560    1.9403   -1.1656 H   0  0  0  0  0  0  0  0  0  0  0  0
   -1.5677    1.2565   -1.6201 H   0  0  0  0  0  0  0  0  0  0  0  0
   -1.9685    1.8868    0.0684 H   0  0  0  0  0  0  0  0  0  0  0  0
   -2.6458   -0.4307    0.3324 H   0  0  0  0  0  0  0  0  0  0  0  0
   -1.1134   -2.3368   -0.6130 H   0  0  0  0  0  0  0  0  0  0  0  0
    1.3285   -1.6397   -1.2326 H   0  0  0  0  0  0  0  0  0  0  0  0
    0.3157   -0.3257   -2.1053 H   0  0  0  0  0  0  0  0  0  0  0  0
   -1.1642   -0.8298    2.4753 H   0  0  0  0  0  0  0  0  0  0  0  0
  1  2  1  0
  2  3  1  0
  3  4  1  0
  4  5  1  0
  5  6  1  0
  6  7  1  0
  6  8  1  0
  8  9  1  0
  7  2  1  0
  8  2  1  0
  8  5  1  0
  1 10  1  0
  1 11  1  0
  1 12  1  0
  3 13  1  0
  3 14  1  0
  4 15  1  0
  4 16  1  0
  5 17  1  0
  6 18  1  0
  7 19  1  0
  7 20  1  0
  9 21  1  0
M  END
