
     RDKit          3D

 21 22  0  0  0  0  0  0  0  0999 V2000
    2.2214   -0.1906    0.1068 C   0  0  0  0  0  0  0  0  0  0  0  0
    0.7327   -0.1477   -0.0885 C   0  0  0  0  0  0  0  0  0  0  0  0
    0.1963   -1.4298   -0.6263 C   0  0  0  0  0  0  0  0  0  0  0  0
   -1.1003   -1.4209   -0.3401 C   0  0  0  0  0  0  0  0  0  0  0  0
   -1.4039   -0.4276    0.7512 C   0  0  0  0  0  0  0  0  0  0  0  0
   -1.8685    0.8553    0.1873 C   0  0  0  0  0  0  0  0  0  0  0  0
   -1.0190    1.5830   -0.5037 C   0  0  0  0  0  0  0  0  0  0  0  0
    0.2594    0.9609   -0.9635 C   0  0  0  0  0  0  0  0  0  0  0  0
    0.0160   -0.1317    1.2688 C   0  0  0  0  0  0  0  0  0  0  0  0
    2.4794    0.5574    0.8969 H   0  0  0  0  0  0  0  0  0  0  0  0
    2.4801   -1.2005    0.4908 H   0  0  0  0  0  0  0  0  0  0  0  0
    2.7111    0.0512   -0.8436 H   0  0  0  0  0  0  0  0  0  0  0  0
    0.7576   -2.2125   -1.1476 H   0  0  0  0  0  0  0  0  0  0  0  0
   -1.8757   -2.0301   -0.8040 H   0  0  0  0  0  0  0  0  0  0  0  0
   -2.0444   -0.8422    1.5299 H   0  0  0  0  0  0  0  0  0  0  0  0
   -2.8685    1.1911    0.3327 H   0  0  0  0  0  0  0  0  0  0  0  0
   -1.1990    2.6227   -0.7606 H   0  0  0  0  0  0  0  0  0  0  0  0
    0.0480    0.5976   -2.0125 H   0  0  0  0  0  0  0  0  0  0  0  0
    1.0198    1.7588   -1.0921 H   0  0  0  0  0  0  0  0  0  0  0  0
    0.3773   -0.9813    1.8614 H   0  0  0  0  0  0  0  0  0  0  0  0
    0.0802    0.8371    1.7565 H   0  0  0  0  0  0  0  0  0  0  0  0
  1  2  1  0
  2  3  1  0
  3  4  2  0
  4  5  1  0
  5  6  1  0
  6  7  2  0
  7  8  1  0
  5  9  1  0
  8  2  1  0
  9  2  1  0
  1 10  1  0
  1 11  1  0
  1 12  1  0
  3 13  1  0
  4 14  1  0
  5 15  1  0
  6 16  1  0
  7 17  1  0
  8 18  1  0
  8 19  1  0
  9 20  1  0
  9 21  1  0
M  END
