
     RDKit          3D

 21 22  0  0  0  0  0  0  0  0999 V2000
    2.4956   -0.3365   -0.0781 C   0  0  0  0  0  0  0  0  0  0  0  0
    1.0748    0.1001    0.0111 C   0  0  0  0  0  0  0  0  0  0  0  0
    0.8420    1.5629    0.0669 C   0  0  0  0  0  0  0  0  0  0  0  0
   -0.4064    1.9835    0.1265 C   0  0  0  0  0  0  0  0  0  0  0  0
   -1.4755    0.9165    0.1326 C   0  0  0  0  0  0  0  0  0  0  0  0
   -0.7847   -0.4066    0.2214 C   0  0  0  0  0  0  0  0  0  0  0  0
   -1.7216   -1.5559    0.4995 C   0  0  0  0  0  0  0  0  0  0  0  0
    0.1237   -0.5784   -0.9553 C   0  0  0  0  0  0  0  0  0  0  0  0
    0.3163   -0.4539    1.0409 O   0  0  0  0  0  0  0  0  0  0  0  0
    2.8928   -0.1525   -1.0862 H   0  0  0  0  0  0  0  0  0  0  0  0
    2.5334   -1.4254    0.1574 H   0  0  0  0  0  0  0  0  0  0  0  0
    3.0756    0.2064    0.6853 H   0  0  0  0  0  0  0  0  0  0  0  0
    1.6690    2.2372    0.0581 H   0  0  0  0  0  0  0  0  0  0  0  0
   -0.7384    3.0108    0.1712 H   0  0  0  0  0  0  0  0  0  0  0  0
   -1.9907    0.9522   -0.8660 H   0  0  0  0  0  0  0  0  0  0  0  0
   -2.1767    1.0496    0.9711 H   0  0  0  0  0  0  0  0  0  0  0  0
   -2.7716   -1.1662    0.6114 H   0  0  0  0  0  0  0  0  0  0  0  0
   -1.7489   -2.2938   -0.3115 H   0  0  0  0  0  0  0  0  0  0  0  0
   -1.4788   -2.0155    1.4793 H   0  0  0  0  0  0  0  0  0  0  0  0
    0.4024   -1.6316   -1.0893 H   0  0  0  0  0  0  0  0  0  0  0  0
   -0.1325   -0.0030   -1.8464 H   0  0  0  0  0  0  0  0  0  0  0  0
  1  2  1  0
  2  3  1  0
  3  4  2  0
  4  5  1  0
  5  6  1  0
  6  7  1  0
  6  8  1  0
  6  9  1  0
  8  2  1  0
  9  2  1  0
  1 10  1  0
  1 11  1  0
  1 12  1  0
  3 13  1  0
  4 14  1  0
  5 15  1  0
  5 16  1  0
  7 17  1  0
  7 18  1  0
  7 19  1  0
  8 20  1  0
  8 21  1  0
M  END
