
     RDKit          3D

 21 23  0  0  0  0  0  0  0  0999 V2000
    2.2354   -0.1966   -0.0245 C   0  0  0  0  0  0  0  0  0  0  0  0
    0.7923    0.0930    0.0084 C   0  0  0  0  0  0  0  0  0  0  0  0
   -0.2107   -0.6786   -0.7971 C   0  0  0  0  0  0  0  0  0  0  0  0
   -1.3405    0.2887   -1.1079 C   0  0  0  0  0  0  0  0  0  0  0  0
   -1.1761    1.4595   -0.1890 C   0  0  0  0  0  0  0  0  0  0  0  0
    0.1543    1.2821    0.5235 C   0  0  0  0  0  0  0  0  0  0  0  0
    0.1696    0.0451    1.4010 C   0  0  0  0  0  0  0  0  0  0  0  0
   -0.8612   -0.8440    1.3629 O   0  0  0  0  0  0  0  0  0  0  0  0
   -0.7647   -1.6346    0.2536 C   0  0  0  0  0  0  0  0  0  0  0  0
    2.7989    0.7782    0.0206 H   0  0  0  0  0  0  0  0  0  0  0  0
    2.5953   -0.8107   -0.8583 H   0  0  0  0  0  0  0  0  0  0  0  0
    2.5665   -0.7351    0.9126 H   0  0  0  0  0  0  0  0  0  0  0  0
    0.1874   -1.1831   -1.6725 H   0  0  0  0  0  0  0  0  0  0  0  0
   -1.3285    0.6484   -2.1400 H   0  0  0  0  0  0  0  0  0  0  0  0
   -2.3310   -0.2196   -0.9500 H   0  0  0  0  0  0  0  0  0  0  0  0
   -1.9710    1.4144    0.6104 H   0  0  0  0  0  0  0  0  0  0  0  0
   -1.1933    2.4142   -0.7277 H   0  0  0  0  0  0  0  0  0  0  0  0
    0.7293    2.1540    0.8293 H   0  0  0  0  0  0  0  0  0  0  0  0
    0.8152    0.1379    2.2831 H   0  0  0  0  0  0  0  0  0  0  0  0
   -0.0801   -2.4748    0.3134 H   0  0  0  0  0  0  0  0  0  0  0  0
   -1.7871   -1.9384   -0.0520 H   0  0  0  0  0  0  0  0  0  0  0  0
  1  2  1  0
  2  3  1  0
  3  4  1  0
  4  5  1  0
  5  6  1  0
  6  7  1  0
  7  8  1  0
  8  9  1  0
  6  2  1  0
  7  2  1  0
  9  3  1  0
  1 10  1  0
  1 11  1  0
  1 12  1  0
  3 13  1  0
  4 14  1  0
  4 15  1  0
  5 16  1  0
  5 17  1  0
  6 18  1  0
  7 19  1  0
  9 20  1  0
  9 21  1  0
M  END
