
     RDKit          3D

 19 20  0  0  0  0  0  0  0  0999 V2000
    2.4491   -0.3639   -0.4181 C   0  0  0  0  0  0  0  0  0  0  0  0
    0.9893   -0.0462   -0.5456 C   0  0  0  0  0  0  0  0  0  0  0  0
   -0.0376   -1.1211   -0.2329 C   0  0  0  0  0  0  0  0  0  0  0  0
   -1.1530   -0.9541   -1.0330 O   0  0  0  0  0  0  0  0  0  0  0  0
   -2.1777   -0.4220   -0.2768 C   0  0  0  0  0  0  0  0  0  0  0  0
   -1.7542    0.5481    0.7360 C   0  0  0  0  0  0  0  0  0  0  0  0
   -0.6396    1.2285    0.8301 C   0  0  0  0  0  0  0  0  0  0  0  0
    0.5685    1.2818   -0.0070 C   0  0  0  0  0  0  0  0  0  0  0  0
    0.5493    0.9904   -1.3471 O   0  0  0  0  0  0  0  0  0  0  0  0
    3.0386    0.4249   -0.8895 H   0  0  0  0  0  0  0  0  0  0  0  0
    2.7139   -1.3766   -0.7631 H   0  0  0  0  0  0  0  0  0  0  0  0
    2.6918   -0.3494    0.6834 H   0  0  0  0  0  0  0  0  0  0  0  0
   -0.2759   -1.1076    0.8486 H   0  0  0  0  0  0  0  0  0  0  0  0
    0.3981   -2.1030   -0.4699 H   0  0  0  0  0  0  0  0  0  0  0  0
   -2.9706    0.0460   -0.8976 H   0  0  0  0  0  0  0  0  0  0  0  0
   -2.6696   -1.2991    0.2390 H   0  0  0  0  0  0  0  0  0  0  0  0
   -2.4793    0.7360    1.5414 H   0  0  0  0  0  0  0  0  0  0  0  0
   -0.6088    1.8902    1.7153 H   0  0  0  0  0  0  0  0  0  0  0  0
    1.3676    1.9969    0.2867 H   0  0  0  0  0  0  0  0  0  0  0  0
  1  2  1  0
  2  3  1  0
  3  4  1  0
  4  5  1  0
  5  6  1  0
  6  7  2  0
  7  8  1  0
  8  9  1  0
  8  2  1  0
  9  2  1  0
  1 10  1  0
  1 11  1  0
  1 12  1  0
  3 13  1  0
  3 14  1  0
  5 15  1  0
  5 16  1  0
  6 17  1  0
  7 18  1  0
  8 19  1  0
M  END
