
     RDKit          3D

 20 21  0  0  0  0  0  0  0  0999 V2000
    1.5333    1.0992    0.3379 C   0  0  0  0  0  0  0  0  0  0  0  0
    0.7234    0.0763   -0.0770 C   0  0  0  0  0  0  0  0  0  0  0  0
    0.3250   -1.1404    0.7093 C   0  0  0  0  0  0  0  0  0  0  0  0
   -0.3066   -1.3677   -0.6086 C   0  0  0  0  0  0  0  0  0  0  0  0
    1.0010   -0.9039   -1.1938 C   0  0  0  0  0  0  0  0  0  0  0  0
   -0.6506    0.1066   -0.6014 C   0  0  0  0  0  0  0  0  0  0  0  0
   -1.7976    0.4943    0.2347 C   0  0  0  0  0  0  0  0  0  0  0  0
   -1.7139    1.7861    0.7608 O   0  0  0  0  0  0  0  0  0  0  0  0
    1.4843    1.2676    1.4542 H   0  0  0  0  0  0  0  0  0  0  0  0
    1.2733    2.0946   -0.0960 H   0  0  0  0  0  0  0  0  0  0  0  0
    2.6109    0.9566    0.1247 H   0  0  0  0  0  0  0  0  0  0  0  0
    1.1950   -1.8321    0.9302 H   0  0  0  0  0  0  0  0  0  0  0  0
   -0.2784   -0.9290    1.5881 H   0  0  0  0  0  0  0  0  0  0  0  0
   -0.8867   -2.1106   -0.9305 H   0  0  0  0  0  0  0  0  0  0  0  0
    1.8593   -1.5603   -1.0711 H   0  0  0  0  0  0  0  0  0  0  0  0
    0.8282   -0.4901   -2.2077 H   0  0  0  0  0  0  0  0  0  0  0  0
   -0.6473    0.4999   -1.6596 H   0  0  0  0  0  0  0  0  0  0  0  0
   -2.0641   -0.2586    0.9973 H   0  0  0  0  0  0  0  0  0  0  0  0
   -2.7078    0.5270   -0.4431 H   0  0  0  0  0  0  0  0  0  0  0  0
   -1.7807    1.6844    1.7516 H   0  0  0  0  0  0  0  0  0  0  0  0
  1  2  1  0
  2  3  1  0
  3  4  1  0
  4  5  1  0
  4  6  1  0
  6  7  1  0
  7  8  1  0
  5  2  1  0
  6  2  1  0
  1  9  1  0
  1 10  1  0
  1 11  1  0
  3 12  1  0
  3 13  1  0
  4 14  1  0
  5 15  1  0
  5 16  1  0
  6 17  1  0
  7 18  1  0
  7 19  1  0
  8 20  1  0
M  END
