
     RDKit          3D

 23 25  0  0  0  0  0  0  0  0999 V2000
    1.5765   -1.1631   -0.2996 C   0  0  0  0  0  0  0  0  0  0  0  0
    0.6975   -0.0264   -0.1363 C   0  0  0  0  0  0  0  0  0  0  0  0
    1.2432    1.3659   -0.0572 C   0  0  0  0  0  0  0  0  0  0  0  0
   -0.0928    2.1317    0.0311 C   0  0  0  0  0  0  0  0  0  0  0  0
   -1.0184    0.9692    0.2233 C   0  0  0  0  0  0  0  0  0  0  0  0
   -0.5852    0.0538   -0.9317 C   0  0  0  0  0  0  0  0  0  0  0  0
   -1.3202   -1.2122   -0.6268 C   0  0  0  0  0  0  0  0  0  0  0  0
   -0.9798   -1.3345    0.8733 C   0  0  0  0  0  0  0  0  0  0  0  0
   -0.2704   -0.0304    1.0589 C   0  0  0  0  0  0  0  0  0  0  0  0
    1.6765   -1.7784    0.6207 H   0  0  0  0  0  0  0  0  0  0  0  0
    2.6295   -0.8326   -0.5394 H   0  0  0  0  0  0  0  0  0  0  0  0
    1.3030   -1.8392   -1.1595 H   0  0  0  0  0  0  0  0  0  0  0  0
    1.8376    1.6800   -0.9069 H   0  0  0  0  0  0  0  0  0  0  0  0
    1.7256    1.4976    0.9329 H   0  0  0  0  0  0  0  0  0  0  0  0
   -0.2491    2.5958   -0.9843 H   0  0  0  0  0  0  0  0  0  0  0  0
   -0.0917    2.8600    0.8393 H   0  0  0  0  0  0  0  0  0  0  0  0
   -2.0576    1.1181    0.3661 H   0  0  0  0  0  0  0  0  0  0  0  0
   -0.5750    0.4640   -1.9062 H   0  0  0  0  0  0  0  0  0  0  0  0
   -2.4042   -1.0003   -0.6584 H   0  0  0  0  0  0  0  0  0  0  0  0
   -1.0010   -2.0858   -1.1891 H   0  0  0  0  0  0  0  0  0  0  0  0
   -0.2958   -2.2129    0.9634 H   0  0  0  0  0  0  0  0  0  0  0  0
   -1.8720   -1.4692    1.4824 H   0  0  0  0  0  0  0  0  0  0  0  0
    0.1237    0.2487    2.0041 H   0  0  0  0  0  0  0  0  0  0  0  0
  1  2  1  0
  2  3  1  0
  3  4  1  0
  4  5  1  0
  5  6  1  0
  6  7  1  0
  7  8  1  0
  8  9  1  0
  6  2  1  0
  9  2  1  0
  9  5  1  0
  1 10  1  0
  1 11  1  0
  1 12  1  0
  3 13  1  0
  3 14  1  0
  4 15  1  0
  4 16  1  0
  5 17  1  0
  6 18  1  0
  7 19  1  0
  7 20  1  0
  8 21  1  0
  8 22  1  0
  9 23  1  0
M  END
