
     RDKit          3D

 21 22  0  0  0  0  0  0  0  0999 V2000
    2.2066   -0.2324   -0.1983 C   0  0  0  0  0  0  0  0  0  0  0  0
    0.7563   -0.0396    0.0459 C   0  0  0  0  0  0  0  0  0  0  0  0
    0.3026    1.3235    0.4672 C   0  0  0  0  0  0  0  0  0  0  0  0
   -1.1277    1.4553    0.0502 C   0  0  0  0  0  0  0  0  0  0  0  0
   -1.5295    2.5287   -0.3319 O   0  0  0  0  0  0  0  0  0  0  0  0
   -1.9647    0.2266    0.1401 C   0  0  0  0  0  0  0  0  0  0  0  0
   -1.1062   -0.9721   -0.1473 C   0  0  0  0  0  0  0  0  0  0  0  0
    0.0428   -1.0625    0.8670 C   0  0  0  0  0  0  0  0  0  0  0  0
   -0.0472   -0.5367   -1.1625 C   0  0  0  0  0  0  0  0  0  0  0  0
    2.4631    0.3219   -1.1495 H   0  0  0  0  0  0  0  0  0  0  0  0
    2.8637    0.1414    0.5924 H   0  0  0  0  0  0  0  0  0  0  0  0
    2.3929   -1.2935   -0.4248 H   0  0  0  0  0  0  0  0  0  0  0  0
    0.2870    1.3302    1.5877 H   0  0  0  0  0  0  0  0  0  0  0  0
    0.9377    2.1280    0.0895 H   0  0  0  0  0  0  0  0  0  0  0  0
   -2.3466    0.1754    1.1887 H   0  0  0  0  0  0  0  0  0  0  0  0
   -2.7894    0.2281   -0.5934 H   0  0  0  0  0  0  0  0  0  0  0  0
   -1.6056   -1.9121   -0.3646 H   0  0  0  0  0  0  0  0  0  0  0  0
    0.4885   -2.0645    0.9292 H   0  0  0  0  0  0  0  0  0  0  0  0
   -0.3251   -0.7294    1.8542 H   0  0  0  0  0  0  0  0  0  0  0  0
    0.4539   -1.3549   -1.6876 H   0  0  0  0  0  0  0  0  0  0  0  0
   -0.3531    0.3389   -1.7524 H   0  0  0  0  0  0  0  0  0  0  0  0
  1  2  1  0
  2  3  1  0
  3  4  1  0
  4  5  2  0
  4  6  1  0
  6  7  1  0
  7  8  1  0
  7  9  1  0
  8  2  1  0
  9  2  1  0
  1 10  1  0
  1 11  1  0
  1 12  1  0
  3 13  1  0
  3 14  1  0
  6 15  1  0
  6 16  1  0
  7 17  1  0
  8 18  1  0
  8 19  1  0
  9 20  1  0
  9 21  1  0
M  END
