
     RDKit          3D

 19 22  0  0  0  0  0  0  0  0999 V2000
    2.0481    0.6296    0.1544 C   0  0  0  0  0  0  0  0  0  0  0  0
    0.7976   -0.0582   -0.1313 C   0  0  0  0  0  0  0  0  0  0  0  0
    0.8157   -1.2332   -0.8215 O   0  0  0  0  0  0  0  0  0  0  0  0
   -0.5377   -1.6219   -0.9145 C   0  0  0  0  0  0  0  0  0  0  0  0
   -1.3017   -0.3956   -1.0118 C   0  0  0  0  0  0  0  0  0  0  0  0
   -1.1481   -1.1946    0.3314 C   0  0  0  0  0  0  0  0  0  0  0  0
   -0.1768   -0.2790    1.0170 C   0  0  0  0  0  0  0  0  0  0  0  0
   -0.6147    1.1691    0.7410 C   0  0  0  0  0  0  0  0  0  0  0  0
   -0.3555    0.7317   -0.7088 C   0  0  0  0  0  0  0  0  0  0  0  0
    2.7719    0.4511   -0.6515 H   0  0  0  0  0  0  0  0  0  0  0  0
    1.9324    1.7203    0.2628 H   0  0  0  0  0  0  0  0  0  0  0  0
    2.4604    0.2666    1.1360 H   0  0  0  0  0  0  0  0  0  0  0  0
   -0.7782   -2.5525   -1.4485 H   0  0  0  0  0  0  0  0  0  0  0  0
   -2.2917   -0.2531   -1.3958 H   0  0  0  0  0  0  0  0  0  0  0  0
   -2.0413   -1.5657    0.7937 H   0  0  0  0  0  0  0  0  0  0  0  0
    0.2048   -0.5052    1.9765 H   0  0  0  0  0  0  0  0  0  0  0  0
    0.0688    1.9278    1.1176 H   0  0  0  0  0  0  0  0  0  0  0  0
   -1.6881    1.2753    0.9794 H   0  0  0  0  0  0  0  0  0  0  0  0
   -0.1658    1.4877   -1.4259 H   0  0  0  0  0  0  0  0  0  0  0  0
  1  2  1  0
  2  3  1  0
  3  4  1  0
  4  5  1  0
  5  6  1  0
  6  7  1  0
  7  8  1  0
  8  9  1  0
  7  2  1  0
  9  2  1  0
  6  4  1  0
  9  5  1  0
  1 10  1  0
  1 11  1  0
  1 12  1  0
  4 13  1  0
  5 14  1  0
  6 15  1  0
  7 16  1  0
  8 17  1  0
  8 18  1  0
  9 19  1  0
M  END
