
     RDKit          3D

 19 21  0  0  0  0  0  0  0  0999 V2000
    2.1383   -0.8061    0.0058 C   0  0  0  0  0  0  0  0  0  0  0  0
    1.0802    0.1684    0.3753 C   0  0  0  0  0  0  0  0  0  0  0  0
    1.5371    1.3942    0.8340 O   0  0  0  0  0  0  0  0  0  0  0  0
    0.5988    1.2927   -0.1834 C   0  0  0  0  0  0  0  0  0  0  0  0
   -0.8154    1.0429    0.3559 C   0  0  0  0  0  0  0  0  0  0  0  0
   -1.8167    0.7303   -0.6899 C   0  0  0  0  0  0  0  0  0  0  0  0
   -1.6509   -0.5718   -1.0767 O   0  0  0  0  0  0  0  0  0  0  0  0
   -0.9627   -1.2598   -0.1314 C   0  0  0  0  0  0  0  0  0  0  0  0
   -0.2939   -0.3181    0.8042 C   0  0  0  0  0  0  0  0  0  0  0  0
    2.6221   -0.6084   -0.9759 H   0  0  0  0  0  0  0  0  0  0  0  0
    1.7805   -1.8667    0.0746 H   0  0  0  0  0  0  0  0  0  0  0  0
    2.9717   -0.6932    0.7614 H   0  0  0  0  0  0  0  0  0  0  0  0
    0.6973    1.8379   -1.1151 H   0  0  0  0  0  0  0  0  0  0  0  0
   -1.0999    1.6701    1.1966 H   0  0  0  0  0  0  0  0  0  0  0  0
   -1.6861    1.3819   -1.6011 H   0  0  0  0  0  0  0  0  0  0  0  0
   -2.8243    0.9756   -0.3033 H   0  0  0  0  0  0  0  0  0  0  0  0
   -1.6780   -1.9237    0.4134 H   0  0  0  0  0  0  0  0  0  0  0  0
   -0.2078   -1.9236   -0.6251 H   0  0  0  0  0  0  0  0  0  0  0  0
   -0.3905   -0.5225    1.8806 H   0  0  0  0  0  0  0  0  0  0  0  0
  1  2  1  0
  2  3  1  0
  3  4  1  0
  4  5  1  0
  5  6  1  0
  6  7  1  0
  7  8  1  0
  8  9  1  0
  4  2  1  0
  9  5  1  0
  9  2  1  0
  1 10  1  0
  1 11  1  0
  1 12  1  0
  4 13  1  0
  5 14  1  0
  6 15  1  0
  6 16  1  0
  8 17  1  0
  8 18  1  0
  9 19  1  0
M  END
