
     RDKit          3D

 23 24  0  0  0  0  0  0  0  0999 V2000
    2.2712   -0.3373   -0.0806 C   0  0  0  0  0  0  0  0  0  0  0  0
    0.7681   -0.1120   -0.0424 C   0  0  0  0  0  0  0  0  0  0  0  0
    0.3787    1.2540   -0.4377 C   0  0  0  0  0  0  0  0  0  0  0  0
   -0.8563    1.8000    0.1419 C   0  0  0  0  0  0  0  0  0  0  0  0
   -1.7496    0.9294    0.6722 O   0  0  0  0  0  0  0  0  0  0  0  0
   -2.0076   -0.2080   -0.0179 C   0  0  0  0  0  0  0  0  0  0  0  0
   -0.9551   -1.2385    0.3330 C   0  0  0  0  0  0  0  0  0  0  0  0
    0.0552   -1.2061   -0.8159 C   0  0  0  0  0  0  0  0  0  0  0  0
    0.1346   -0.6335    1.2037 C   0  0  0  0  0  0  0  0  0  0  0  0
    2.5507   -1.1541    0.6246 H   0  0  0  0  0  0  0  0  0  0  0  0
    2.8238    0.5818    0.1927 H   0  0  0  0  0  0  0  0  0  0  0  0
    2.5977   -0.6263   -1.1130 H   0  0  0  0  0  0  0  0  0  0  0  0
    1.2420    1.9373   -0.1817 H   0  0  0  0  0  0  0  0  0  0  0  0
    0.3354    1.2942   -1.5612 H   0  0  0  0  0  0  0  0  0  0  0  0
   -0.6110    2.5620    0.9400 H   0  0  0  0  0  0  0  0  0  0  0  0
   -1.3947    2.4093   -0.6416 H   0  0  0  0  0  0  0  0  0  0  0  0
   -2.9861   -0.6296    0.3561 H   0  0  0  0  0  0  0  0  0  0  0  0
   -2.1312   -0.1040   -1.1047 H   0  0  0  0  0  0  0  0  0  0  0  0
   -1.3096   -2.2248    0.6191 H   0  0  0  0  0  0  0  0  0  0  0  0
   -0.3862   -0.8967   -1.7765 H   0  0  0  0  0  0  0  0  0  0  0  0
    0.6489   -2.1289   -0.8181 H   0  0  0  0  0  0  0  0  0  0  0  0
    0.7550   -1.4432    1.6422 H   0  0  0  0  0  0  0  0  0  0  0  0
   -0.1741    0.1748    1.8659 H   0  0  0  0  0  0  0  0  0  0  0  0
  1  2  1  0
  2  3  1  0
  3  4  1  0
  4  5  1  0
  5  6  1  0
  6  7  1  0
  7  8  1  0
  7  9  1  0
  8  2  1  0
  9  2  1  0
  1 10  1  0
  1 11  1  0
  1 12  1  0
  3 13  1  0
  3 14  1  0
  4 15  1  0
  4 16  1  0
  6 17  1  0
  6 18  1  0
  7 19  1  0
  8 20  1  0
  8 21  1  0
  9 22  1  0
  9 23  1  0
M  END
