
     RDKit          3D

 19 22  0  0  0  0  0  0  0  0999 V2000
   -1.7962   -0.5208    1.0856 C   0  0  0  0  0  0  0  0  0  0  0  0
   -0.9074   -0.2049    0.0223 C   0  0  0  0  0  0  0  0  0  0  0  0
   -1.0648    1.0710   -0.8114 C   0  0  0  0  0  0  0  0  0  0  0  0
   -0.9891   -0.2393   -1.3956 C   0  0  0  0  0  0  0  0  0  0  0  0
    0.4799   -0.0789   -1.4976 C   0  0  0  0  0  0  0  0  0  0  0  0
    0.4019    1.1883   -0.8183 C   0  0  0  0  0  0  0  0  0  0  0  0
    0.5314    0.0291   -0.0036 C   0  0  0  0  0  0  0  0  0  0  0  0
    1.5825   -0.4864    0.8167 C   0  0  0  0  0  0  0  0  0  0  0  0
    2.8286    0.0377    0.4015 O   0  0  0  0  0  0  0  0  0  0  0  0
   -2.3618   -1.4894    0.9717 H   0  0  0  0  0  0  0  0  0  0  0  0
   -1.2907   -0.5295    2.0813 H   0  0  0  0  0  0  0  0  0  0  0  0
   -2.6091    0.2560    1.1952 H   0  0  0  0  0  0  0  0  0  0  0  0
   -1.8128    1.7735   -0.6624 H   0  0  0  0  0  0  0  0  0  0  0  0
   -1.6247   -0.7400   -2.0768 H   0  0  0  0  0  0  0  0  0  0  0  0
    1.1684   -0.5351   -2.1241 H   0  0  0  0  0  0  0  0  0  0  0  0
    0.9844    2.0668   -0.9209 H   0  0  0  0  0  0  0  0  0  0  0  0
    1.6971   -1.6014    0.6681 H   0  0  0  0  0  0  0  0  0  0  0  0
    1.4284   -0.3608    1.9026 H   0  0  0  0  0  0  0  0  0  0  0  0
    3.3542    0.3640    1.1659 H   0  0  0  0  0  0  0  0  0  0  0  0
  1  2  1  0
  2  3  1  0
  3  4  1  0
  4  5  1  0
  5  6  1  0
  6  7  1  0
  7  8  1  0
  8  9  1  0
  4  2  1  0
  7  5  1  0
  7  2  1  0
  6  3  1  0
  1 10  1  0
  1 11  1  0
  1 12  1  0
  3 13  1  0
  4 14  1  0
  5 15  1  0
  6 16  1  0
  8 17  1  0
  8 18  1  0
  9 19  1  0
M  END
