
     RDKit          3D

 19 21  0  0  0  0  0  0  0  0999 V2000
   -1.6671   -1.0109    0.0033 C   0  0  0  0  0  0  0  0  0  0  0  0
   -0.7698    0.1481    0.3001 C   0  0  0  0  0  0  0  0  0  0  0  0
   -1.2787    1.4974    0.6031 C   0  0  0  0  0  0  0  0  0  0  0  0
   -0.8087    1.2560   -0.7891 C   0  0  0  0  0  0  0  0  0  0  0  0
    0.5060    1.0119   -1.0897 O   0  0  0  0  0  0  0  0  0  0  0  0
    0.6472    0.0463   -0.1540 C   0  0  0  0  0  0  0  0  0  0  0  0
    1.3499   -1.2111   -0.2855 C   0  0  0  0  0  0  0  0  0  0  0  0
    1.7871   -0.1567    0.7147 C   0  0  0  0  0  0  0  0  0  0  0  0
    2.9859    0.4837    0.3226 O   0  0  0  0  0  0  0  0  0  0  0  0
   -1.8836   -1.0542   -1.1035 H   0  0  0  0  0  0  0  0  0  0  0  0
   -2.6169   -0.9375    0.5868 H   0  0  0  0  0  0  0  0  0  0  0  0
   -1.1372   -1.9756    0.2132 H   0  0  0  0  0  0  0  0  0  0  0  0
   -2.3810    1.6010    0.6992 H   0  0  0  0  0  0  0  0  0  0  0  0
   -0.7233    2.1753    1.2736 H   0  0  0  0  0  0  0  0  0  0  0  0
   -1.5322    1.1445   -1.5982 H   0  0  0  0  0  0  0  0  0  0  0  0
    1.9969   -1.4573   -1.1398 H   0  0  0  0  0  0  0  0  0  0  0  0
    0.9082   -2.1116    0.2292 H   0  0  0  0  0  0  0  0  0  0  0  0
    1.7377   -0.3621    1.7894 H   0  0  0  0  0  0  0  0  0  0  0  0
    2.8796    0.9128   -0.5752 H   0  0  0  0  0  0  0  0  0  0  0  0
  1  2  1  0
  2  3  1  0
  3  4  1  0
  4  5  1  0
  5  6  1  0
  6  7  1  0
  7  8  1  0
  8  9  1  0
  4  2  1  0
  8  6  1  0
  6  2  1  0
  1 10  1  0
  1 11  1  0
  1 12  1  0
  3 13  1  0
  3 14  1  0
  4 15  1  0
  7 16  1  0
  7 17  1  0
  8 18  1  0
  9 19  1  0
M  END
