
     RDKit          3D

 21 22  0  0  0  0  0  0  0  0999 V2000
    2.1071   -0.5288    0.6181 C   0  0  0  0  0  0  0  0  0  0  0  0
    0.8182   -0.5586   -0.2045 C   0  0  0  0  0  0  0  0  0  0  0  0
   -0.0561   -1.6865    0.0857 C   0  0  0  0  0  0  0  0  0  0  0  0
   -1.3356   -1.6062    0.2883 C   0  0  0  0  0  0  0  0  0  0  0  0
   -2.0378   -0.3020    0.2374 C   0  0  0  0  0  0  0  0  0  0  0  0
   -1.3305    0.5893   -0.7762 C   0  0  0  0  0  0  0  0  0  0  0  0
    0.1375    0.6620   -0.4943 C   0  0  0  0  0  0  0  0  0  0  0  0
    0.7556    1.9663   -0.0570 C   0  0  0  0  0  0  0  0  0  0  0  0
    0.9415   -0.0696   -1.4976 O   0  0  0  0  0  0  0  0  0  0  0  0
    1.8474   -0.4743    1.7016 H   0  0  0  0  0  0  0  0  0  0  0  0
    2.6714    0.3540    0.2647 H   0  0  0  0  0  0  0  0  0  0  0  0
    2.6443   -1.4621    0.3763 H   0  0  0  0  0  0  0  0  0  0  0  0
    0.4149   -2.6904    0.1363 H   0  0  0  0  0  0  0  0  0  0  0  0
   -1.9514   -2.5205    0.5094 H   0  0  0  0  0  0  0  0  0  0  0  0
   -2.0861    0.1886    1.2372 H   0  0  0  0  0  0  0  0  0  0  0  0
   -3.0781   -0.5098   -0.0872 H   0  0  0  0  0  0  0  0  0  0  0  0
   -1.5711    0.1794   -1.7807 H   0  0  0  0  0  0  0  0  0  0  0  0
   -1.7293    1.6274   -0.7407 H   0  0  0  0  0  0  0  0  0  0  0  0
    1.7808    2.0597   -0.4817 H   0  0  0  0  0  0  0  0  0  0  0  0
    0.8715    1.9370    1.0452 H   0  0  0  0  0  0  0  0  0  0  0  0
    0.1860    2.8449   -0.3802 H   0  0  0  0  0  0  0  0  0  0  0  0
  1  2  1  0
  2  3  1  0
  3  4  2  0
  4  5  1  0
  5  6  1  0
  6  7  1  0
  7  8  1  0
  7  9  1  0
  7  2  1  0
  9  2  1  0
  1 10  1  0
  1 11  1  0
  1 12  1  0
  3 13  1  0
  4 14  1  0
  5 15  1  0
  5 16  1  0
  6 17  1  0
  6 18  1  0
  8 19  1  0
  8 20  1  0
  8 21  1  0
M  END
