
     RDKit          3D

 19 20  0  0  0  0  0  0  0  0999 V2000
   -0.9706    1.2177   -0.8436 C   0  0  0  0  0  0  0  0  0  0  0  0
   -0.4503   -0.1037   -0.4110 C   0  0  0  0  0  0  0  0  0  0  0  0
   -1.1985   -1.3666   -0.5839 C   0  0  0  0  0  0  0  0  0  0  0  0
   -1.1703   -0.7398    0.7427 C   0  0  0  0  0  0  0  0  0  0  0  0
   -0.2444   -1.0214    1.7108 O   0  0  0  0  0  0  0  0  0  0  0  0
    0.8785   -0.2547    1.5001 C   0  0  0  0  0  0  0  0  0  0  0  0
    1.0012   -0.2713   -0.0082 C   0  0  0  0  0  0  0  0  0  0  0  0
    1.8842    0.7606   -0.5421 C   0  0  0  0  0  0  0  0  0  0  0  0
    3.0569    0.4767   -0.8159 O   0  0  0  0  0  0  0  0  0  0  0  0
   -0.3957    2.0348   -0.3910 H   0  0  0  0  0  0  0  0  0  0  0  0
   -2.0514    1.3162   -0.5333 H   0  0  0  0  0  0  0  0  0  0  0  0
   -0.9822    1.3684   -1.9453 H   0  0  0  0  0  0  0  0  0  0  0  0
   -0.6299   -2.3091   -0.7438 H   0  0  0  0  0  0  0  0  0  0  0  0
   -2.1649   -1.3660   -1.1288 H   0  0  0  0  0  0  0  0  0  0  0  0
   -2.1160   -0.2889    1.1227 H   0  0  0  0  0  0  0  0  0  0  0  0
    0.8047    0.7695    1.9045 H   0  0  0  0  0  0  0  0  0  0  0  0
    1.7544   -0.7290    1.9801 H   0  0  0  0  0  0  0  0  0  0  0  0
    1.3941   -1.2727   -0.2884 H   0  0  0  0  0  0  0  0  0  0  0  0
    1.6004    1.7793   -0.7258 H   0  0  0  0  0  0  0  0  0  0  0  0
  1  2  1  0
  2  3  1  0
  3  4  1  0
  4  5  1  0
  5  6  1  0
  6  7  1  0
  7  8  1  0
  8  9  2  0
  4  2  1  0
  7  2  1  0
  1 10  1  0
  1 11  1  0
  1 12  1  0
  3 13  1  0
  3 14  1  0
  4 15  1  0
  6 16  1  0
  6 17  1  0
  7 18  1  0
  8 19  1  0
M  END
