
     RDKit          3D

 21 24  0  0  0  0  0  0  0  0999 V2000
    2.3777   -0.2236   -0.2510 C   0  0  0  0  0  0  0  0  0  0  0  0
    0.9598    0.0848   -0.3334 C   0  0  0  0  0  0  0  0  0  0  0  0
    0.3807    0.9109    0.8073 C   0  0  0  0  0  0  0  0  0  0  0  0
   -1.1336    1.1414    0.7499 C   0  0  0  0  0  0  0  0  0  0  0  0
   -1.9452   -0.0842    0.3301 C   0  0  0  0  0  0  0  0  0  0  0  0
   -1.4223   -1.0160   -0.8097 C   0  0  0  0  0  0  0  0  0  0  0  0
   -0.9091   -0.8500    0.2746 C   0  0  0  0  0  0  0  0  0  0  0  0
   -0.1555   -0.0059   -0.9441 C   0  0  0  0  0  0  0  0  0  0  0  0
    0.1620   -1.1619   -0.8839 C   0  0  0  0  0  0  0  0  0  0  0  0
    2.9521   -0.1605   -1.1950 H   0  0  0  0  0  0  0  0  0  0  0  0
    2.5043   -1.2667    0.1584 H   0  0  0  0  0  0  0  0  0  0  0  0
    2.8743    0.4325    0.4934 H   0  0  0  0  0  0  0  0  0  0  0  0
    0.6955    0.5403    1.7934 H   0  0  0  0  0  0  0  0  0  0  0  0
    0.8102    1.9295    0.5932 H   0  0  0  0  0  0  0  0  0  0  0  0
   -1.4329    1.2840    1.8039 H   0  0  0  0  0  0  0  0  0  0  0  0
   -1.3981    2.0289    0.1618 H   0  0  0  0  0  0  0  0  0  0  0  0
   -2.9945    0.0560    0.1889 H   0  0  0  0  0  0  0  0  0  0  0  0
   -1.8170   -0.8675   -1.7984 H   0  0  0  0  0  0  0  0  0  0  0  0
   -0.3513   -1.3175    1.0283 H   0  0  0  0  0  0  0  0  0  0  0  0
   -0.7047    0.6916   -1.5191 H   0  0  0  0  0  0  0  0  0  0  0  0
    0.5477   -2.1459   -0.6486 H   0  0  0  0  0  0  0  0  0  0  0  0
  1  2  1  0
  2  3  1  0
  3  4  1  0
  4  5  1  0
  5  6  1  0
  6  7  1  0
  7  8  1  0
  8  9  1  0
  8  2  1  0
  9  2  1  0
  7  5  1  0
  9  6  1  0
  1 10  1  0
  1 11  1  0
  1 12  1  0
  3 13  1  0
  3 14  1  0
  4 15  1  0
  4 16  1  0
  5 17  1  0
  6 18  1  0
  7 19  1  0
  8 20  1  0
  9 21  1  0
M  END
