
     RDKit          3D

 20 21  0  0  0  0  0  0  0  0999 V2000
    1.7818   -1.1217   -0.2119 C   0  0  0  0  0  0  0  0  0  0  0  0
    0.4079   -0.5687   -0.4292 C   0  0  0  0  0  0  0  0  0  0  0  0
   -0.8008   -1.4248   -0.1434 C   0  0  0  0  0  0  0  0  0  0  0  0
   -1.9417   -0.4485   -0.0023 C   0  0  0  0  0  0  0  0  0  0  0  0
   -1.2589    0.7992    0.4901 C   0  0  0  0  0  0  0  0  0  0  0  0
    0.0572    0.8340   -0.2229 C   0  0  0  0  0  0  0  0  0  0  0  0
    1.0323    1.8978    0.1459 C   0  0  0  0  0  0  0  0  0  0  0  0
    0.1942    0.3220   -1.4973 O   0  0  0  0  0  0  0  0  0  0  0  0
    2.5088   -0.3931    0.1829 H   0  0  0  0  0  0  0  0  0  0  0  0
    2.1948   -1.6037   -1.1348 H   0  0  0  0  0  0  0  0  0  0  0  0
    1.6998   -1.9257    0.5510 H   0  0  0  0  0  0  0  0  0  0  0  0
   -1.0431   -2.0519   -1.0486 H   0  0  0  0  0  0  0  0  0  0  0  0
   -0.6821   -2.1026    0.7022 H   0  0  0  0  0  0  0  0  0  0  0  0
   -2.5175   -0.3031   -0.9261 H   0  0  0  0  0  0  0  0  0  0  0  0
   -2.6220   -0.8795    0.7833 H   0  0  0  0  0  0  0  0  0  0  0  0
   -1.0628    0.6467    1.5917 H   0  0  0  0  0  0  0  0  0  0  0  0
   -1.8556    1.7065    0.4068 H   0  0  0  0  0  0  0  0  0  0  0  0
    0.8828    2.1882    1.1908 H   0  0  0  0  0  0  0  0  0  0  0  0
    0.9275    2.8293   -0.4682 H   0  0  0  0  0  0  0  0  0  0  0  0
    2.0975    1.5997    0.0401 H   0  0  0  0  0  0  0  0  0  0  0  0
  1  2  1  0
  2  3  1  0
  3  4  1  0
  4  5  1  0
  5  6  1  0
  6  7  1  0
  6  8  1  0
  6  2  1  0
  8  2  1  0
  1  9  1  0
  1 10  1  0
  1 11  1  0
  3 12  1  0
  3 13  1  0
  4 14  1  0
  4 15  1  0
  5 16  1  0
  5 17  1  0
  7 18  1  0
  7 19  1  0
  7 20  1  0
M  END
