
     RDKit          3D

 17 20  0  0  0  0  0  0  0  0999 V2000
    1.2304   -0.7761    0.7682 C   0  0  0  0  0  0  0  0  0  0  0  0
    0.6065    0.1574   -0.1117 C   0  0  0  0  0  0  0  0  0  0  0  0
   -0.9210   -0.0764   -0.7772 C   0  0  0  0  0  0  0  0  0  0  0  0
   -0.1622   -0.9946   -0.8549 C   0  0  0  0  0  0  0  0  0  0  0  0
    0.5985    0.3549   -1.2750 C   0  0  0  0  0  0  0  0  0  0  0  0
   -0.0876    1.1026    0.0285 C   0  0  0  0  0  0  0  0  0  0  0  0
   -0.8957    2.1504   -0.2968 O   0  0  0  0  0  0  0  0  0  0  0  0
   -0.8187   -0.2742    0.3891 C   0  0  0  0  0  0  0  0  0  0  0  0
   -1.0218   -0.6851    1.5698 O   0  0  0  0  0  0  0  0  0  0  0  0
    0.9281   -1.7704    1.0202 H   0  0  0  0  0  0  0  0  0  0  0  0
    1.4161   -0.2639    1.7682 H   0  0  0  0  0  0  0  0  0  0  0  0
    2.2995   -0.9048    0.3895 H   0  0  0  0  0  0  0  0  0  0  0  0
   -1.3151    0.6746   -1.4421 H   0  0  0  0  0  0  0  0  0  0  0  0
    0.3238   -1.8897   -0.8806 H   0  0  0  0  0  0  0  0  0  0  0  0
    0.2534    0.7965   -2.2188 H   0  0  0  0  0  0  0  0  0  0  0  0
   -0.4751    2.9849    0.0395 H   0  0  0  0  0  0  0  0  0  0  0  0
   -1.9590   -0.5861    1.8840 H   0  0  0  0  0  0  0  0  0  0  0  0
  1  2  1  0
  2  3  1  0
  3  4  1  0
  4  5  1  0
  5  6  1  0
  6  7  1  0
  6  8  1  0
  8  9  1  0
  5  2  1  0
  6  2  1  0
  8  3  1  0
  8  4  1  0
  1 10  1  0
  1 11  1  0
  1 12  1  0
  3 13  1  0
  4 14  1  0
  5 15  1  0
  7 16  1  0
  9 17  1  0
M  END
