
     RDKit          3D

 19 21  0  0  0  0  0  0  0  0999 V2000
    2.2319    0.4263   -0.3246 C   0  0  0  0  0  0  0  0  0  0  0  0
    0.8535   -0.0233   -0.1824 C   0  0  0  0  0  0  0  0  0  0  0  0
    0.4965   -0.9794    0.9169 C   0  0  0  0  0  0  0  0  0  0  0  0
   -0.5805   -1.2778   -0.0729 C   0  0  0  0  0  0  0  0  0  0  0  0
    0.3912   -1.0208   -1.0741 O   0  0  0  0  0  0  0  0  0  0  0  0
   -1.4411   -0.0487   -0.2039 C   0  0  0  0  0  0  0  0  0  0  0  0
   -2.3126   -0.0290   -1.2624 O   0  0  0  0  0  0  0  0  0  0  0  0
   -1.3283    1.0894    0.7047 C   0  0  0  0  0  0  0  0  0  0  0  0
   -0.2617    0.9857   -0.2938 C   0  0  0  0  0  0  0  0  0  0  0  0
    2.3026    1.3839   -0.8609 H   0  0  0  0  0  0  0  0  0  0  0  0
    2.6631    0.6262    0.6999 H   0  0  0  0  0  0  0  0  0  0  0  0
    2.9123   -0.3170   -0.7798 H   0  0  0  0  0  0  0  0  0  0  0  0
    0.2274   -0.5798    1.8847 H   0  0  0  0  0  0  0  0  0  0  0  0
    1.2252   -1.7990    0.9590 H   0  0  0  0  0  0  0  0  0  0  0  0
   -1.0436   -2.2438   -0.0908 H   0  0  0  0  0  0  0  0  0  0  0  0
   -3.0132   -0.6930   -1.0885 H   0  0  0  0  0  0  0  0  0  0  0  0
   -2.0585    1.9129    0.5337 H   0  0  0  0  0  0  0  0  0  0  0  0
   -1.0314    1.0161    1.7644 H   0  0  0  0  0  0  0  0  0  0  0  0
   -0.2329    1.5709   -1.2294 H   0  0  0  0  0  0  0  0  0  0  0  0
  1  2  1  0
  2  3  1  0
  3  4  1  0
  4  5  1  0
  4  6  1  0
  6  7  1  0
  6  8  1  0
  8  9  1  0
  5  2  1  0
  9  6  1  0
  9  2  1  0
  1 10  1  0
  1 11  1  0
  1 12  1  0
  3 13  1  0
  3 14  1  0
  4 15  1  0
  7 16  1  0
  8 17  1  0
  8 18  1  0
  9 19  1  0
M  END
