
     RDKit          3D

 18 20  0  0  0  0  0  0  0  0999 V2000
   -2.0490   -0.7820    0.4659 C   0  0  0  0  0  0  0  0  0  0  0  0
   -0.7159   -0.1424    0.2527 C   0  0  0  0  0  0  0  0  0  0  0  0
   -0.5841    1.3393    0.4010 C   0  0  0  0  0  0  0  0  0  0  0  0
    0.5142    1.7619   -0.2117 C   0  0  0  0  0  0  0  0  0  0  0  0
    1.2143    0.6023   -0.8228 C   0  0  0  0  0  0  0  0  0  0  0  0
    1.8220   -0.3338    0.2318 C   0  0  0  0  0  0  0  0  0  0  0  0
    0.4924   -0.9987    0.3360 C   0  0  0  0  0  0  0  0  0  0  0  0
    0.1023   -0.4021   -0.9385 C   0  0  0  0  0  0  0  0  0  0  0  0
   -1.9882   -1.4003    1.3963 H   0  0  0  0  0  0  0  0  0  0  0  0
   -2.8540   -0.0366    0.5304 H   0  0  0  0  0  0  0  0  0  0  0  0
   -2.2952   -1.4835   -0.3524 H   0  0  0  0  0  0  0  0  0  0  0  0
   -1.2783    1.9683    0.9273 H   0  0  0  0  0  0  0  0  0  0  0  0
    0.8663    2.7814   -0.2716 H   0  0  0  0  0  0  0  0  0  0  0  0
    1.8280    0.7884   -1.6939 H   0  0  0  0  0  0  0  0  0  0  0  0
    2.0455    0.2213    1.1768 H   0  0  0  0  0  0  0  0  0  0  0  0
    2.6588   -0.9188   -0.1718 H   0  0  0  0  0  0  0  0  0  0  0  0
    0.4053   -2.0697    0.5844 H   0  0  0  0  0  0  0  0  0  0  0  0
   -0.1844   -0.8951   -1.8398 H   0  0  0  0  0  0  0  0  0  0  0  0
  1  2  1  0
  2  3  1  0
  3  4  2  0
  4  5  1  0
  5  6  1  0
  6  7  1  0
  7  8  1  0
  7  2  1  0
  8  2  1  0
  8  5  1  0
  1  9  1  0
  1 10  1  0
  1 11  1  0
  3 12  1  0
  4 13  1  0
  5 14  1  0
  6 15  1  0
  6 16  1  0
  7 17  1  0
  8 18  1  0
M  END
