
     RDKit          3D

 19 21  0  0  0  0  0  0  0  0999 V2000
   -1.9689   -0.4164    0.4517 C   0  0  0  0  0  0  0  0  0  0  0  0
   -0.7725    0.0644   -0.3256 C   0  0  0  0  0  0  0  0  0  0  0  0
   -0.4703   -0.4254   -1.6822 C   0  0  0  0  0  0  0  0  0  0  0  0
    0.2774   -1.0486   -0.5831 C   0  0  0  0  0  0  0  0  0  0  0  0
    1.1934   -0.2392    0.2964 C   0  0  0  0  0  0  0  0  0  0  0  0
    1.6322   -0.7501    1.4910 O   0  0  0  0  0  0  0  0  0  0  0  0
    1.6103    1.0699   -0.2326 C   0  0  0  0  0  0  0  0  0  0  0  0
    0.2568    0.9217    0.3294 C   0  0  0  0  0  0  0  0  0  0  0  0
   -0.0144    1.6047    1.4902 O   0  0  0  0  0  0  0  0  0  0  0  0
   -2.9235   -0.1813   -0.0166 H   0  0  0  0  0  0  0  0  0  0  0  0
   -1.8703    0.0019    1.4945 H   0  0  0  0  0  0  0  0  0  0  0  0
   -1.9476   -1.5313    0.6091 H   0  0  0  0  0  0  0  0  0  0  0  0
   -1.1706   -1.0584   -2.2330 H   0  0  0  0  0  0  0  0  0  0  0  0
    0.0580    0.3171   -2.3419 H   0  0  0  0  0  0  0  0  0  0  0  0
    0.0193   -2.0683   -0.2876 H   0  0  0  0  0  0  0  0  0  0  0  0
    2.2634   -1.5026    1.2834 H   0  0  0  0  0  0  0  0  0  0  0  0
    2.3633    1.6167    0.3269 H   0  0  0  0  0  0  0  0  0  0  0  0
    1.7849    1.0927   -1.3418 H   0  0  0  0  0  0  0  0  0  0  0  0
   -0.3208    2.5326    1.2717 H   0  0  0  0  0  0  0  0  0  0  0  0
  1  2  1  0
  2  3  1  0
  3  4  1  0
  4  5  1  0
  5  6  1  0
  5  7  1  0
  7  8  1  0
  8  9  1  0
  4  2  1  0
  8  5  1  0
  8  2  1  0
  1 10  1  0
  1 11  1  0
  1 12  1  0
  3 13  1  0
  3 14  1  0
  4 15  1  0
  6 16  1  0
  7 17  1  0
  7 18  1  0
  9 19  1  0
M  END
