
     RDKit          3D

 19 21  0  0  0  0  0  0  0  0999 V2000
   -2.1959   -0.7813   -0.0070 C   0  0  0  0  0  0  0  0  0  0  0  0
   -0.8372   -0.1178   -0.3090 C   0  0  0  0  0  0  0  0  0  0  0  0
   -1.0299    1.3815   -0.5138 C   0  0  0  0  0  0  0  0  0  0  0  0
    0.1698    2.0097   -0.3741 C   0  0  0  0  0  0  0  0  0  0  0  0
    1.1524    0.9843   -0.1006 C   0  0  0  0  0  0  0  0  0  0  0  0
    2.1584    0.1916    0.1238 C   0  0  0  0  0  0  0  0  0  0  0  0
    1.6308   -1.2082    0.3638 C   0  0  0  0  0  0  0  0  0  0  0  0
    0.2683   -1.0005   -0.3978 C   0  0  0  0  0  0  0  0  0  0  0  0
    0.1022    0.0636    0.6806 C   0  0  0  0  0  0  0  0  0  0  0  0
   -2.5361   -0.5366    1.0167 H   0  0  0  0  0  0  0  0  0  0  0  0
   -2.1383   -1.8662   -0.2057 H   0  0  0  0  0  0  0  0  0  0  0  0
   -2.9080   -0.3292   -0.7476 H   0  0  0  0  0  0  0  0  0  0  0  0
   -1.9133    1.9142   -0.7319 H   0  0  0  0  0  0  0  0  0  0  0  0
    0.4494    3.0411   -0.4421 H   0  0  0  0  0  0  0  0  0  0  0  0
    3.1671    0.5645    0.1163 H   0  0  0  0  0  0  0  0  0  0  0  0
    2.1770   -1.9804   -0.1377 H   0  0  0  0  0  0  0  0  0  0  0  0
    1.4872   -1.4612    1.3971 H   0  0  0  0  0  0  0  0  0  0  0  0
    0.6574   -0.8433   -1.4192 H   0  0  0  0  0  0  0  0  0  0  0  0
    0.1386   -0.0259    1.6882 H   0  0  0  0  0  0  0  0  0  0  0  0
  1  2  1  0
  2  3  1  0
  3  4  2  0
  4  5  1  0
  5  6  2  0
  6  7  1  0
  7  8  1  0
  8  9  1  0
  8  2  1  0
  9  2  1  0
  9  5  1  0
  1 10  1  0
  1 11  1  0
  1 12  1  0
  3 13  1  0
  4 14  1  0
  6 15  1  0
  7 16  1  0
  7 17  1  0
  8 18  1  0
  9 19  1  0
M  END
