
     RDKit          3D

 21 23  0  0  0  0  0  0  0  0999 V2000
    2.2794    0.2602    0.4795 C   0  0  0  0  0  0  0  0  0  0  0  0
    0.8366    0.1047    0.0033 C   0  0  0  0  0  0  0  0  0  0  0  0
    0.0819    1.3374   -0.2305 C   0  0  0  0  0  0  0  0  0  0  0  0
   -1.3870    1.2710   -0.1428 C   0  0  0  0  0  0  0  0  0  0  0  0
   -2.0027    0.5198   -1.1871 O   0  0  0  0  0  0  0  0  0  0  0  0
   -2.0494    0.0718    0.1196 C   0  0  0  0  0  0  0  0  0  0  0  0
   -1.2916   -1.1208    0.5622 C   0  0  0  0  0  0  0  0  0  0  0  0
    0.1547   -1.1255    0.3099 C   0  0  0  0  0  0  0  0  0  0  0  0
    0.6754   -0.9674   -1.0855 C   0  0  0  0  0  0  0  0  0  0  0  0
    2.6607   -0.7166    0.8848 H   0  0  0  0  0  0  0  0  0  0  0  0
    2.9281    0.6794   -0.2974 H   0  0  0  0  0  0  0  0  0  0  0  0
    2.2983    0.9532    1.3556 H   0  0  0  0  0  0  0  0  0  0  0  0
    0.4769    2.1378    0.4624 H   0  0  0  0  0  0  0  0  0  0  0  0
    0.3452    1.7301   -1.2575 H   0  0  0  0  0  0  0  0  0  0  0  0
   -1.8828    2.2591    0.0899 H   0  0  0  0  0  0  0  0  0  0  0  0
   -3.0969    0.1119    0.5440 H   0  0  0  0  0  0  0  0  0  0  0  0
   -1.7401   -2.0363    0.0800 H   0  0  0  0  0  0  0  0  0  0  0  0
   -1.4734   -1.2643    1.6521 H   0  0  0  0  0  0  0  0  0  0  0  0
    0.7242   -1.8875    0.9211 H   0  0  0  0  0  0  0  0  0  0  0  0
   -0.0939   -0.7908   -1.8683 H   0  0  0  0  0  0  0  0  0  0  0  0
    1.5563   -1.5276   -1.3953 H   0  0  0  0  0  0  0  0  0  0  0  0
  1  2  1  0
  2  3  1  0
  3  4  1  0
  4  5  1  0
  5  6  1  0
  6  7  1  0
  7  8  1  0
  8  9  1  0
  8  2  1  0
  9  2  1  0
  6  4  1  0
  1 10  1  0
  1 11  1  0
  1 12  1  0
  3 13  1  0
  3 14  1  0
  4 15  1  0
  6 16  1  0
  7 17  1  0
  7 18  1  0
  8 19  1  0
  9 20  1  0
  9 21  1  0
M  END
