
     RDKit          3D

 19 20  0  0  0  0  0  0  0  0999 V2000
    2.1419    0.7038    0.5057 C   0  0  0  0  0  0  0  0  0  0  0  0
    0.7431    0.3300    0.1957 C   0  0  0  0  0  0  0  0  0  0  0  0
    0.5458   -0.7571   -0.8447 C   0  0  0  0  0  0  0  0  0  0  0  0
   -0.6131   -1.1987    0.0595 C   0  0  0  0  0  0  0  0  0  0  0  0
   -1.8036   -0.3191   -0.1875 C   0  0  0  0  0  0  0  0  0  0  0  0
   -1.3261    1.0417   -0.5635 C   0  0  0  0  0  0  0  0  0  0  0  0
   -0.0828    1.3768   -0.1306 O   0  0  0  0  0  0  0  0  0  0  0  0
    0.1526   -0.5986    1.1927 C   0  0  0  0  0  0  0  0  0  0  0  0
    0.2037   -0.8374    2.3881 O   0  0  0  0  0  0  0  0  0  0  0  0
    2.1842    1.7756    0.7934 H   0  0  0  0  0  0  0  0  0  0  0  0
    2.8666    0.4843   -0.3080 H   0  0  0  0  0  0  0  0  0  0  0  0
    2.5412    0.1478    1.4030 H   0  0  0  0  0  0  0  0  0  0  0  0
    1.3068   -1.5402   -0.8490 H   0  0  0  0  0  0  0  0  0  0  0  0
    0.1879   -0.3877   -1.8234 H   0  0  0  0  0  0  0  0  0  0  0  0
   -0.7582   -2.2687    0.0768 H   0  0  0  0  0  0  0  0  0  0  0  0
   -2.3362   -0.2235    0.8035 H   0  0  0  0  0  0  0  0  0  0  0  0
   -2.5317   -0.7369   -0.8967 H   0  0  0  0  0  0  0  0  0  0  0  0
   -2.0475    1.8043   -0.1449 H   0  0  0  0  0  0  0  0  0  0  0  0
   -1.3744    1.2038   -1.6700 H   0  0  0  0  0  0  0  0  0  0  0  0
  1  2  1  0
  2  3  1  0
  3  4  1  0
  4  5  1  0
  5  6  1  0
  6  7  1  0
  4  8  1  0
  8  9  2  0
  7  2  1  0
  8  2  1  0
  1 10  1  0
  1 11  1  0
  1 12  1  0
  3 13  1  0
  3 14  1  0
  4 15  1  0
  5 16  1  0
  5 17  1  0
  6 18  1  0
  6 19  1  0
M  END
