
     RDKit          3D

 19 20  0  0  0  0  0  0  0  0999 V2000
   -0.9299    1.1863    0.7460 C   0  0  0  0  0  0  0  0  0  0  0  0
   -0.7445    0.2578   -0.4346 C   0  0  0  0  0  0  0  0  0  0  0  0
   -1.6247   -0.8596   -0.4790 C   0  0  0  0  0  0  0  0  0  0  0  0
   -0.3083   -1.2228   -0.1562 C   0  0  0  0  0  0  0  0  0  0  0  0
    0.4363   -1.8640   -1.1797 O   0  0  0  0  0  0  0  0  0  0  0  0
    0.5615   -0.9675    0.9873 C   0  0  0  0  0  0  0  0  0  0  0  0
    1.4271    0.0472    0.7312 C   0  0  0  0  0  0  0  0  0  0  0  0
    1.4357    0.7669   -0.5721 C   0  0  0  0  0  0  0  0  0  0  0  0
    0.2256    0.6788   -1.2719 O   0  0  0  0  0  0  0  0  0  0  0  0
   -0.1535    1.9340    0.8587 H   0  0  0  0  0  0  0  0  0  0  0  0
   -1.8887    1.7285    0.5660 H   0  0  0  0  0  0  0  0  0  0  0  0
   -1.0631    0.6289    1.7002 H   0  0  0  0  0  0  0  0  0  0  0  0
   -2.0359   -1.1476   -1.4890 H   0  0  0  0  0  0  0  0  0  0  0  0
   -2.4505   -0.9404    0.2692 H   0  0  0  0  0  0  0  0  0  0  0  0
    0.4912   -1.2879   -1.9794 H   0  0  0  0  0  0  0  0  0  0  0  0
    0.5777   -1.4647    1.9286 H   0  0  0  0  0  0  0  0  0  0  0  0
    2.1561    0.3826    1.4678 H   0  0  0  0  0  0  0  0  0  0  0  0
    1.6907    1.8427   -0.4352 H   0  0  0  0  0  0  0  0  0  0  0  0
    2.1971    0.3007   -1.2580 H   0  0  0  0  0  0  0  0  0  0  0  0
  1  2  1  0
  2  3  1  0
  3  4  1  0
  4  5  1  0
  4  6  1  0
  6  7  2  0
  7  8  1  0
  8  9  1  0
  4  2  1  0
  9  2  1  0
  1 10  1  0
  1 11  1  0
  1 12  1  0
  3 13  1  0
  3 14  1  0
  5 15  1  0
  6 16  1  0
  7 17  1  0
  8 18  1  0
  8 19  1  0
M  END
