
     RDKit          3D

 23 24  0  0  0  0  0  0  0  0999 V2000
    2.3557    0.4939   -0.2868 C   0  0  0  0  0  0  0  0  0  0  0  0
    0.9221    0.1490   -0.1945 C   0  0  0  0  0  0  0  0  0  0  0  0
    0.0447    1.3646   -0.0694 C   0  0  0  0  0  0  0  0  0  0  0  0
   -1.4154    1.0487   -0.0296 C   0  0  0  0  0  0  0  0  0  0  0  0
   -1.7395   -0.4043   -0.0322 C   0  0  0  0  0  0  0  0  0  0  0  0
   -2.6822   -0.7213    0.9489 O   0  0  0  0  0  0  0  0  0  0  0  0
   -0.5470   -1.2977    0.0365 C   0  0  0  0  0  0  0  0  0  0  0  0
    0.3826   -0.8948   -1.1160 C   0  0  0  0  0  0  0  0  0  0  0  0
    0.5345   -0.7729    0.9717 C   0  0  0  0  0  0  0  0  0  0  0  0
    2.4344    1.5111   -0.7694 H   0  0  0  0  0  0  0  0  0  0  0  0
    2.7442    0.6443    0.7609 H   0  0  0  0  0  0  0  0  0  0  0  0
    2.9785   -0.1712   -0.8851 H   0  0  0  0  0  0  0  0  0  0  0  0
    0.3423    1.8541    0.9057 H   0  0  0  0  0  0  0  0  0  0  0  0
    0.3266    2.1007   -0.8507 H   0  0  0  0  0  0  0  0  0  0  0  0
   -1.9041    1.6045   -0.8838 H   0  0  0  0  0  0  0  0  0  0  0  0
   -1.8862    1.5117    0.8859 H   0  0  0  0  0  0  0  0  0  0  0  0
   -2.2551   -0.6246   -1.0137 H   0  0  0  0  0  0  0  0  0  0  0  0
   -2.2878   -0.9700    1.8046 H   0  0  0  0  0  0  0  0  0  0  0  0
   -0.7798   -2.3488    0.1064 H   0  0  0  0  0  0  0  0  0  0  0  0
    1.1067   -1.6942   -1.2807 H   0  0  0  0  0  0  0  0  0  0  0  0
   -0.1369   -0.5608   -2.0195 H   0  0  0  0  0  0  0  0  0  0  0  0
    0.1750   -0.2422    1.8566 H   0  0  0  0  0  0  0  0  0  0  0  0
    1.2867   -1.5800    1.1541 H   0  0  0  0  0  0  0  0  0  0  0  0
  1  2  1  0
  2  3  1  0
  3  4  1  0
  4  5  1  0
  5  6  1  0
  5  7  1  0
  7  8  1  0
  7  9  1  0
  8  2  1  0
  9  2  1  0
  1 10  1  0
  1 11  1  0
  1 12  1  0
  3 13  1  0
  3 14  1  0
  4 15  1  0
  4 16  1  0
  5 17  1  0
  6 18  1  0
  7 19  1  0
  8 20  1  0
  8 21  1  0
  9 22  1  0
  9 23  1  0
M  END
