
     RDKit          3D

 21 22  0  0  0  0  0  0  0  0999 V2000
   -1.9873   -0.8649   -0.3451 C   0  0  0  0  0  0  0  0  0  0  0  0
   -0.6855   -0.3605    0.1781 C   0  0  0  0  0  0  0  0  0  0  0  0
    0.4741   -1.1612   -0.3373 C   0  0  0  0  0  0  0  0  0  0  0  0
    1.5951   -0.1802   -0.6199 C   0  0  0  0  0  0  0  0  0  0  0  0
    2.7824   -0.6435   -0.0807 O   0  0  0  0  0  0  0  0  0  0  0  0
    1.1300    1.1168   -0.0097 C   0  0  0  0  0  0  0  0  0  0  0  0
   -0.3751    1.0831   -0.0319 C   0  0  0  0  0  0  0  0  0  0  0  0
   -0.9427    1.2123    1.3571 C   0  0  0  0  0  0  0  0  0  0  0  0
   -0.6514   -0.1309    1.5566 O   0  0  0  0  0  0  0  0  0  0  0  0
   -2.1206   -1.9077    0.0346 H   0  0  0  0  0  0  0  0  0  0  0  0
   -1.9058   -0.9550   -1.4441 H   0  0  0  0  0  0  0  0  0  0  0  0
   -2.8531   -0.2340   -0.0811 H   0  0  0  0  0  0  0  0  0  0  0  0
    0.2231   -1.7355   -1.2553 H   0  0  0  0  0  0  0  0  0  0  0  0
    0.8002   -1.8326    0.5014 H   0  0  0  0  0  0  0  0  0  0  0  0
    1.6935   -0.0884   -1.7234 H   0  0  0  0  0  0  0  0  0  0  0  0
    3.0468   -1.4394   -0.5890 H   0  0  0  0  0  0  0  0  0  0  0  0
    1.5178    1.1348    1.0355 H   0  0  0  0  0  0  0  0  0  0  0  0
    1.4916    1.9857   -0.5824 H   0  0  0  0  0  0  0  0  0  0  0  0
   -0.8779    1.6144   -0.8316 H   0  0  0  0  0  0  0  0  0  0  0  0
   -0.3319    1.9289    1.9395 H   0  0  0  0  0  0  0  0  0  0  0  0
   -2.0235    1.4577    1.3285 H   0  0  0  0  0  0  0  0  0  0  0  0
  1  2  1  0
  2  3  1  0
  3  4  1  0
  4  5  1  0
  4  6  1  0
  6  7  1  0
  7  8  1  0
  8  9  1  0
  7  2  1  0
  9  2  1  0
  1 10  1  0
  1 11  1  0
  1 12  1  0
  3 13  1  0
  3 14  1  0
  4 15  1  0
  5 16  1  0
  6 17  1  0
  6 18  1  0
  7 19  1  0
  8 20  1  0
  8 21  1  0
M  END
