
     RDKit          3D

 21 22  0  0  0  0  0  0  0  0999 V2000
   -2.2940   -0.3773   -0.0301 C   0  0  0  0  0  0  0  0  0  0  0  0
   -0.8644   -0.0657   -0.1868 C   0  0  0  0  0  0  0  0  0  0  0  0
    0.0158   -1.1006   -0.7779 C   0  0  0  0  0  0  0  0  0  0  0  0
    1.3375   -1.2158   -0.6728 C   0  0  0  0  0  0  0  0  0  0  0  0
    2.2616   -0.3577    0.1596 C   0  0  0  0  0  0  0  0  0  0  0  0
    1.8400    0.9271    0.0352 O   0  0  0  0  0  0  0  0  0  0  0  0
    0.6130    1.2780    0.4359 C   0  0  0  0  0  0  0  0  0  0  0  0
   -0.2228    0.2995    1.1602 C   0  0  0  0  0  0  0  0  0  0  0  0
   -0.4452    1.2689   -0.6778 C   0  0  0  0  0  0  0  0  0  0  0  0
   -2.3835   -1.2925    0.6271 H   0  0  0  0  0  0  0  0  0  0  0  0
   -2.8198   -0.6238   -0.9537 H   0  0  0  0  0  0  0  0  0  0  0  0
   -2.7748    0.4327    0.5520 H   0  0  0  0  0  0  0  0  0  0  0  0
   -0.5132   -1.8468   -1.3668 H   0  0  0  0  0  0  0  0  0  0  0  0
    1.8179   -2.0020   -1.2363 H   0  0  0  0  0  0  0  0  0  0  0  0
    2.3220   -0.7305    1.2018 H   0  0  0  0  0  0  0  0  0  0  0  0
    3.2906   -0.4314   -0.2513 H   0  0  0  0  0  0  0  0  0  0  0  0
    0.6108    2.3198    0.8715 H   0  0  0  0  0  0  0  0  0  0  0  0
   -0.9885    0.8079    1.7872 H   0  0  0  0  0  0  0  0  0  0  0  0
    0.2395   -0.5712    1.6188 H   0  0  0  0  0  0  0  0  0  0  0  0
   -1.1612    2.0858   -0.6444 H   0  0  0  0  0  0  0  0  0  0  0  0
    0.1185    1.1955   -1.6514 H   0  0  0  0  0  0  0  0  0  0  0  0
  1  2  1  0
  2  3  1  0
  3  4  2  0
  4  5  1  0
  5  6  1  0
  6  7  1  0
  7  8  1  0
  7  9  1  0
  8  2  1  0
  9  2  1  0
  1 10  1  0
  1 11  1  0
  1 12  1  0
  3 13  1  0
  4 14  1  0
  5 15  1  0
  5 16  1  0
  7 17  1  0
  8 18  1  0
  8 19  1  0
  9 20  1  0
  9 21  1  0
M  END
