
     RDKit          3D

 16 17  0  0  0  0  0  0  0  0999 V2000
    1.9285    0.2253   -0.0292 C   0  0  0  0  0  0  0  0  0  0  0  0
    0.5213    0.0667    0.1893 C   0  0  0  0  0  0  0  0  0  0  0  0
   -0.2286   -1.1213   -0.3511 C   0  0  0  0  0  0  0  0  0  0  0  0
   -1.4403   -0.1937   -0.1666 C   0  0  0  0  0  0  0  0  0  0  0  0
   -0.4661    0.8946   -0.6474 C   0  0  0  0  0  0  0  0  0  0  0  0
   -1.3980    0.0355    1.2676 C   0  0  0  0  0  0  0  0  0  0  0  0
   -2.2883    0.0831    2.1471 O   0  0  0  0  0  0  0  0  0  0  0  0
   -0.0274    0.2115    1.5040 O   0  0  0  0  0  0  0  0  0  0  0  0
    2.1975    0.7277   -0.9773 H   0  0  0  0  0  0  0  0  0  0  0  0
    2.4073    0.8208    0.7831 H   0  0  0  0  0  0  0  0  0  0  0  0
    2.4549   -0.7700    0.0043 H   0  0  0  0  0  0  0  0  0  0  0  0
   -0.3410   -1.9759    0.3116 H   0  0  0  0  0  0  0  0  0  0  0  0
   -0.0670   -1.3476   -1.4117 H   0  0  0  0  0  0  0  0  0  0  0  0
   -2.3081   -0.3757   -0.7144 H   0  0  0  0  0  0  0  0  0  0  0  0
   -0.3073    0.8475   -1.7226 H   0  0  0  0  0  0  0  0  0  0  0  0
   -0.6372    1.8715   -0.1868 H   0  0  0  0  0  0  0  0  0  0  0  0
  1  2  1  0
  2  3  1  0
  3  4  1  0
  4  5  1  0
  4  6  1  0
  6  7  2  0
  6  8  1  0
  5  2  1  0
  8  2  1  0
  1  9  1  0
  1 10  1  0
  1 11  1  0
  3 12  1  0
  3 13  1  0
  4 14  1  0
  5 15  1  0
  5 16  1  0
M  END
