
     RDKit          3D

 17 18  0  0  0  0  0  0  0  0999 V2000
    1.6092   -0.7289   -0.3858 C   0  0  0  0  0  0  0  0  0  0  0  0
    0.4523    0.1510   -0.6837 C   0  0  0  0  0  0  0  0  0  0  0  0
    0.4808    1.6208   -0.3709 C   0  0  0  0  0  0  0  0  0  0  0  0
   -0.6988    1.9664    0.2227 O   0  0  0  0  0  0  0  0  0  0  0  0
   -1.3600    0.8429    0.6348 C   0  0  0  0  0  0  0  0  0  0  0  0
   -0.8767   -0.3282   -0.1324 C   0  0  0  0  0  0  0  0  0  0  0  0
   -0.9636   -1.6799    0.4714 C   0  0  0  0  0  0  0  0  0  0  0  0
   -0.8014   -2.7010   -0.1504 O   0  0  0  0  0  0  0  0  0  0  0  0
   -0.5924   -0.2531   -1.4873 O   0  0  0  0  0  0  0  0  0  0  0  0
    1.7102   -1.5359   -1.1516 H   0  0  0  0  0  0  0  0  0  0  0  0
    2.5474   -0.1356   -0.2970 H   0  0  0  0  0  0  0  0  0  0  0  0
    1.4498   -1.1793    0.6244 H   0  0  0  0  0  0  0  0  0  0  0  0
    0.5610    2.1874   -1.3309 H   0  0  0  0  0  0  0  0  0  0  0  0
    1.3187    1.8614    0.2999 H   0  0  0  0  0  0  0  0  0  0  0  0
   -2.4611    1.0273    0.4798 H   0  0  0  0  0  0  0  0  0  0  0  0
   -1.1896    0.6518    1.7212 H   0  0  0  0  0  0  0  0  0  0  0  0
   -1.1860   -1.7672    1.5359 H   0  0  0  0  0  0  0  0  0  0  0  0
  1  2  1  0
  2  3  1  0
  3  4  1  0
  4  5  1  0
  5  6  1  0
  6  7  1  0
  7  8  2  0
  6  9  1  0
  6  2  1  0
  9  2  1  0
  1 10  1  0
  1 11  1  0
  1 12  1  0
  3 13  1  0
  3 14  1  0
  5 15  1  0
  5 16  1  0
  7 17  1  0
M  END
