
     RDKit          3D

 21 23  0  0  0  0  0  0  0  0999 V2000
    1.6605    0.9408    0.9034 C   0  0  0  0  0  0  0  0  0  0  0  0
    0.9602    0.0139   -0.0606 C   0  0  0  0  0  0  0  0  0  0  0  0
    1.6658   -1.1568   -0.5877 C   0  0  0  0  0  0  0  0  0  0  0  0
    0.5460   -1.3245    0.4205 C   0  0  0  0  0  0  0  0  0  0  0  0
   -0.6630   -1.6622   -0.1216 O   0  0  0  0  0  0  0  0  0  0  0  0
   -1.1193   -0.6526   -0.9157 C   0  0  0  0  0  0  0  0  0  0  0  0
   -2.2995    0.1173   -0.3086 C   0  0  0  0  0  0  0  0  0  0  0  0
   -1.2719    0.9489    0.4359 C   0  0  0  0  0  0  0  0  0  0  0  0
   -0.2818    0.5689   -0.6745 C   0  0  0  0  0  0  0  0  0  0  0  0
    1.0792    1.8766    1.0662 H   0  0  0  0  0  0  0  0  0  0  0  0
    2.6784    1.1701    0.4858 H   0  0  0  0  0  0  0  0  0  0  0  0
    1.7983    0.4885    1.9002 H   0  0  0  0  0  0  0  0  0  0  0  0
    2.6921   -1.3266   -0.2048 H   0  0  0  0  0  0  0  0  0  0  0  0
    1.5065   -1.5706   -1.5989 H   0  0  0  0  0  0  0  0  0  0  0  0
    0.8034   -1.6089    1.4610 H   0  0  0  0  0  0  0  0  0  0  0  0
   -1.3636   -0.8826   -1.9643 H   0  0  0  0  0  0  0  0  0  0  0  0
   -2.8481    0.7446   -1.0138 H   0  0  0  0  0  0  0  0  0  0  0  0
   -2.9017   -0.4913    0.4007 H   0  0  0  0  0  0  0  0  0  0  0  0
   -1.0273    0.4884    1.4224 H   0  0  0  0  0  0  0  0  0  0  0  0
   -1.4220    2.0267    0.4269 H   0  0  0  0  0  0  0  0  0  0  0  0
   -0.1923    1.2911   -1.4724 H   0  0  0  0  0  0  0  0  0  0  0  0
  1  2  1  0
  2  3  1  0
  3  4  1  0
  4  5  1  0
  5  6  1  0
  6  7  1  0
  7  8  1  0
  8  9  1  0
  4  2  1  0
  9  6  1  0
  9  2  1  0
  1 10  1  0
  1 11  1  0
  1 12  1  0
  3 13  1  0
  3 14  1  0
  4 15  1  0
  6 16  1  0
  7 17  1  0
  7 18  1  0
  8 19  1  0
  8 20  1  0
  9 21  1  0
M  END
