
     RDKit          3D

 16 19  0  0  0  0  0  0  0  0999 V2000
    1.1663    0.8560   -0.8963 C   0  0  0  0  0  0  0  0  0  0  0  0
    0.5886   -0.1919   -0.1292 C   0  0  0  0  0  0  0  0  0  0  0  0
    0.0458   -1.2403   -0.3070 C   0  0  0  0  0  0  0  0  0  0  0  0
    0.4359   -0.4137    1.0413 C   0  0  0  0  0  0  0  0  0  0  0  0
   -0.4454    0.8171    0.5252 C   0  0  0  0  0  0  0  0  0  0  0  0
   -0.8218    0.0086   -0.8006 C   0  0  0  0  0  0  0  0  0  0  0  0
   -1.0337   -0.1921    0.3436 C   0  0  0  0  0  0  0  0  0  0  0  0
   -1.4864   -1.2128    1.1031 O   0  0  0  0  0  0  0  0  0  0  0  0
    1.7208    0.3581   -1.7586 H   0  0  0  0  0  0  0  0  0  0  0  0
    0.7080    1.7173   -1.3318 H   0  0  0  0  0  0  0  0  0  0  0  0
    2.0378    1.2759   -0.2916 H   0  0  0  0  0  0  0  0  0  0  0  0
   -0.4492   -2.1733   -0.1703 H   0  0  0  0  0  0  0  0  0  0  0  0
    0.1717   -0.8609    1.9710 H   0  0  0  0  0  0  0  0  0  0  0  0
   -0.0369    1.7670    0.5266 H   0  0  0  0  0  0  0  0  0  0  0  0
   -0.7053    0.3668   -1.7585 H   0  0  0  0  0  0  0  0  0  0  0  0
   -1.8964   -0.8818    1.9328 H   0  0  0  0  0  0  0  0  0  0  0  0
  1  2  1  0
  2  3  1  0
  3  4  1  0
  4  5  1  0
  5  6  1  0
  6  7  1  0
  7  8  1  0
  4  2  1  0
  7  5  1  0
  7  2  1  0
  6  3  1  0
  1  9  1  0
  1 10  1  0
  1 11  1  0
  3 12  1  0
  4 13  1  0
  5 14  1  0
  6 15  1  0
  8 16  1  0
M  END
