
     RDKit          3D

 19 21  0  0  0  0  0  0  0  0999 V2000
    2.0558    0.1313    0.3289 C   0  0  0  0  0  0  0  0  0  0  0  0
    0.6265   -0.0795    0.3998 C   0  0  0  0  0  0  0  0  0  0  0  0
    0.0303   -0.8414    1.5136 C   0  0  0  0  0  0  0  0  0  0  0  0
   -1.2724   -0.8618    1.2103 C   0  0  0  0  0  0  0  0  0  0  0  0
   -1.3330   -0.0955   -0.0507 C   0  0  0  0  0  0  0  0  0  0  0  0
   -2.4871    0.1296   -0.6643 O   0  0  0  0  0  0  0  0  0  0  0  0
   -0.1288   -0.5600   -0.8077 C   0  0  0  0  0  0  0  0  0  0  0  0
   -0.0229    0.8478   -1.3217 C   0  0  0  0  0  0  0  0  0  0  0  0
   -0.3366    1.0213    0.1340 C   0  0  0  0  0  0  0  0  0  0  0  0
    2.5884   -0.6952    0.8501 H   0  0  0  0  0  0  0  0  0  0  0  0
    2.4590    0.1468   -0.7060 H   0  0  0  0  0  0  0  0  0  0  0  0
    2.3704    1.0634    0.8693 H   0  0  0  0  0  0  0  0  0  0  0  0
    0.5701   -1.2613    2.3522 H   0  0  0  0  0  0  0  0  0  0  0  0
   -2.1062   -1.3152    1.7320 H   0  0  0  0  0  0  0  0  0  0  0  0
   -2.7013   -0.4167   -1.4654 H   0  0  0  0  0  0  0  0  0  0  0  0
    0.0002   -1.4109   -1.3121 H   0  0  0  0  0  0  0  0  0  0  0  0
    0.9639    1.1784   -1.6589 H   0  0  0  0  0  0  0  0  0  0  0  0
   -0.7967    1.1434   -2.0399 H   0  0  0  0  0  0  0  0  0  0  0  0
   -0.4796    1.8755    0.6365 H   0  0  0  0  0  0  0  0  0  0  0  0
  1  2  1  0
  2  3  1  0
  3  4  2  0
  4  5  1  0
  5  6  1  0
  5  7  1  0
  7  8  1  0
  8  9  1  0
  7  2  1  0
  9  2  1  0
  9  5  1  0
  1 10  1  0
  1 11  1  0
  1 12  1  0
  3 13  1  0
  4 14  1  0
  6 15  1  0
  7 16  1  0
  8 17  1  0
  8 18  1  0
  9 19  1  0
M  END
