
     RDKit          3D

 21 22  0  0  0  0  0  0  0  0999 V2000
    2.1987    0.8809    0.6157 C   0  0  0  0  0  0  0  0  0  0  0  0
    0.9631    0.3302    0.1084 C   0  0  0  0  0  0  0  0  0  0  0  0
    0.5424   -1.0657    0.6003 C   0  0  0  0  0  0  0  0  0  0  0  0
   -0.2507   -1.0379   -0.6905 C   0  0  0  0  0  0  0  0  0  0  0  0
    0.9879   -0.3408   -1.2759 C   0  0  0  0  0  0  0  0  0  0  0  0
   -1.1274    0.1526   -0.4859 C   0  0  0  0  0  0  0  0  0  0  0  0
   -2.3354   -0.1131    0.3670 C   0  0  0  0  0  0  0  0  0  0  0  0
   -2.9440    1.1347    0.6083 O   0  0  0  0  0  0  0  0  0  0  0  0
   -0.2180    1.0197    0.1757 O   0  0  0  0  0  0  0  0  0  0  0  0
    3.0019    0.8231   -0.1714 H   0  0  0  0  0  0  0  0  0  0  0  0
    2.0917    1.9634    0.8376 H   0  0  0  0  0  0  0  0  0  0  0  0
    2.6123    0.3929    1.5260 H   0  0  0  0  0  0  0  0  0  0  0  0
    1.3950   -1.7531    0.6256 H   0  0  0  0  0  0  0  0  0  0  0  0
   -0.0468   -0.9813    1.5244 H   0  0  0  0  0  0  0  0  0  0  0  0
   -0.5859   -1.9257   -1.1328 H   0  0  0  0  0  0  0  0  0  0  0  0
    1.8579   -0.9798   -1.3954 H   0  0  0  0  0  0  0  0  0  0  0  0
    0.7168    0.3437   -2.0874 H   0  0  0  0  0  0  0  0  0  0  0  0
   -1.4420    0.6239   -1.4135 H   0  0  0  0  0  0  0  0  0  0  0  0
   -2.1159   -0.6156    1.3152 H   0  0  0  0  0  0  0  0  0  0  0  0
   -3.0458   -0.6972   -0.2534 H   0  0  0  0  0  0  0  0  0  0  0  0
   -2.2559    1.8448    0.5557 H   0  0  0  0  0  0  0  0  0  0  0  0
  1  2  1  0
  2  3  1  0
  3  4  1  0
  4  5  1  0
  4  6  1  0
  6  7  1  0
  7  8  1  0
  6  9  1  0
  5  2  1  0
  9  2  1  0
  1 10  1  0
  1 11  1  0
  1 12  1  0
  3 13  1  0
  3 14  1  0
  4 15  1  0
  5 16  1  0
  5 17  1  0
  6 18  1  0
  7 19  1  0
  7 20  1  0
  8 21  1  0
M  END
