
     RDKit          3D

 17 20  0  0  0  0  0  0  0  0999 V2000
    2.0219    0.2103   -0.4020 C   0  0  0  0  0  0  0  0  0  0  0  0
    0.6930    0.1041    0.0957 C   0  0  0  0  0  0  0  0  0  0  0  0
    0.1154   -0.3232    1.3240 C   0  0  0  0  0  0  0  0  0  0  0  0
    0.0027   -1.1971    0.1886 C   0  0  0  0  0  0  0  0  0  0  0  0
   -1.2552   -0.5369   -0.2152 C   0  0  0  0  0  0  0  0  0  0  0  0
   -2.2504   -1.0155   -0.9230 O   0  0  0  0  0  0  0  0  0  0  0  0
   -1.1771    0.3238    0.9272 C   0  0  0  0  0  0  0  0  0  0  0  0
   -0.5547    0.7393   -0.3180 C   0  0  0  0  0  0  0  0  0  0  0  0
   -0.7915    1.7624   -1.1019 O   0  0  0  0  0  0  0  0  0  0  0  0
    2.6185   -0.7157   -0.1752 H   0  0  0  0  0  0  0  0  0  0  0  0
    2.0615    0.2980   -1.5234 H   0  0  0  0  0  0  0  0  0  0  0  0
    2.6686    1.0496   -0.0155 H   0  0  0  0  0  0  0  0  0  0  0  0
    0.4740   -0.4618    2.2981 H   0  0  0  0  0  0  0  0  0  0  0  0
    0.3610   -2.1526   -0.0311 H   0  0  0  0  0  0  0  0  0  0  0  0
   -3.0723   -1.2468   -0.4618 H   0  0  0  0  0  0  0  0  0  0  0  0
   -1.8778    0.7855    1.5467 H   0  0  0  0  0  0  0  0  0  0  0  0
   -0.0376    2.3766   -1.2132 H   0  0  0  0  0  0  0  0  0  0  0  0
  1  2  1  0
  2  3  1  0
  3  4  1  0
  4  5  1  0
  5  6  1  0
  5  7  1  0
  7  8  1  0
  8  9  1  0
  4  2  1  0
  8  5  1  0
  8  2  1  0
  7  3  1  0
  1 10  1  0
  1 11  1  0
  1 12  1  0
  3 13  1  0
  4 14  1  0
  6 15  1  0
  7 16  1  0
  9 17  1  0
M  END
