
     RDKit          3D

 21 22  0  0  0  0  0  0  0  0999 V2000
    2.1556    0.2137    0.8323 C   0  0  0  0  0  0  0  0  0  0  0  0
    0.8519    0.1793    0.0915 C   0  0  0  0  0  0  0  0  0  0  0  0
    0.1959    1.4795   -0.1535 C   0  0  0  0  0  0  0  0  0  0  0  0
   -1.0285    1.6206   -0.6443 C   0  0  0  0  0  0  0  0  0  0  0  0
   -1.7822    0.3824   -0.9660 C   0  0  0  0  0  0  0  0  0  0  0  0
   -1.5194   -0.6397    0.0830 C   0  0  0  0  0  0  0  0  0  0  0  0
   -0.0693   -0.9500    0.2997 C   0  0  0  0  0  0  0  0  0  0  0  0
    0.1919   -1.8984    1.2632 O   0  0  0  0  0  0  0  0  0  0  0  0
    0.7716   -0.9095   -0.9637 C   0  0  0  0  0  0  0  0  0  0  0  0
    2.1054    0.6858    1.8153 H   0  0  0  0  0  0  0  0  0  0  0  0
    2.6045   -0.7978    0.9006 H   0  0  0  0  0  0  0  0  0  0  0  0
    2.8719    0.8101    0.1997 H   0  0  0  0  0  0  0  0  0  0  0  0
    0.7308    2.4048    0.0753 H   0  0  0  0  0  0  0  0  0  0  0  0
   -1.4777    2.5982   -0.8106 H   0  0  0  0  0  0  0  0  0  0  0  0
   -2.8724    0.6161   -0.9433 H   0  0  0  0  0  0  0  0  0  0  0  0
   -1.5829    0.0439   -2.0028 H   0  0  0  0  0  0  0  0  0  0  0  0
   -2.0464   -0.3648    1.0068 H   0  0  0  0  0  0  0  0  0  0  0  0
   -2.0032   -1.6010   -0.2619 H   0  0  0  0  0  0  0  0  0  0  0  0
   -0.0090   -1.5826    2.1790 H   0  0  0  0  0  0  0  0  0  0  0  0
    0.3399   -0.6166   -1.9189 H   0  0  0  0  0  0  0  0  0  0  0  0
    1.5714   -1.6740   -0.9859 H   0  0  0  0  0  0  0  0  0  0  0  0
  1  2  1  0
  2  3  1  0
  3  4  2  0
  4  5  1  0
  5  6  1  0
  6  7  1  0
  7  8  1  0
  7  9  1  0
  7  2  1  0
  9  2  1  0
  1 10  1  0
  1 11  1  0
  1 12  1  0
  3 13  1  0
  4 14  1  0
  5 15  1  0
  5 16  1  0
  6 17  1  0
  6 18  1  0
  8 19  1  0
  9 20  1  0
  9 21  1  0
M  END
