
     RDKit          3D

 21 22  0  0  0  0  0  0  0  0999 V2000
   -0.9280   -1.6065    0.9562 C   0  0  0  0  0  0  0  0  0  0  0  0
   -0.6192   -0.3831    0.4280 C   0  0  0  0  0  0  0  0  0  0  0  0
   -1.2008    0.9500    0.8676 C   0  0  0  0  0  0  0  0  0  0  0  0
   -0.2967    1.2990   -0.2942 C   0  0  0  0  0  0  0  0  0  0  0  0
   -0.0439    2.4316   -0.7514 O   0  0  0  0  0  0  0  0  0  0  0  0
   -0.9007    0.1107   -0.9645 C   0  0  0  0  0  0  0  0  0  0  0  0
    0.6683    0.3276    0.3527 C   0  0  0  0  0  0  0  0  0  0  0  0
    1.7791   -0.1971   -0.4691 C   0  0  0  0  0  0  0  0  0  0  0  0
    2.1059   -1.4813    0.0222 O   0  0  0  0  0  0  0  0  0  0  0  0
   -1.3332   -1.5802    2.0009 H   0  0  0  0  0  0  0  0  0  0  0  0
   -1.7177   -2.1673    0.3744 H   0  0  0  0  0  0  0  0  0  0  0  0
   -0.0654   -2.3236    0.9943 H   0  0  0  0  0  0  0  0  0  0  0  0
   -0.8347    1.3202    1.8305 H   0  0  0  0  0  0  0  0  0  0  0  0
   -2.2728    0.9999    0.6816 H   0  0  0  0  0  0  0  0  0  0  0  0
   -0.3468    3.2521   -0.2846 H   0  0  0  0  0  0  0  0  0  0  0  0
   -0.3791   -0.3656   -1.7883 H   0  0  0  0  0  0  0  0  0  0  0  0
   -2.0136    0.2324   -1.1185 H   0  0  0  0  0  0  0  0  0  0  0  0
    0.9969    0.7475    1.3346 H   0  0  0  0  0  0  0  0  0  0  0  0
    1.6234   -0.2936   -1.5378 H   0  0  0  0  0  0  0  0  0  0  0  0
    2.7214    0.3980   -0.2778 H   0  0  0  0  0  0  0  0  0  0  0  0
    3.0574   -1.6705   -0.1812 H   0  0  0  0  0  0  0  0  0  0  0  0
  1  2  1  0
  2  3  1  0
  3  4  1  0
  4  5  1  0
  4  6  1  0
  4  7  1  0
  7  8  1  0
  8  9  1  0
  6  2  1  0
  7  2  1  0
  1 10  1  0
  1 11  1  0
  1 12  1  0
  3 13  1  0
  3 14  1  0
  5 15  1  0
  6 16  1  0
  6 17  1  0
  7 18  1  0
  8 19  1  0
  8 20  1  0
  9 21  1  0
M  END
