
     RDKit          3D

 23 25  0  0  0  0  0  0  0  0999 V2000
   -1.7401    1.2928   -0.8629 C   0  0  0  0  0  0  0  0  0  0  0  0
   -1.1947    0.2433   -0.1884 C   0  0  0  0  0  0  0  0  0  0  0  0
   -1.5269   -0.1961    1.2308 C   0  0  0  0  0  0  0  0  0  0  0  0
   -0.4937   -1.1934    0.7548 C   0  0  0  0  0  0  0  0  0  0  0  0
   -1.2807   -1.2235   -0.5220 C   0  0  0  0  0  0  0  0  0  0  0  0
    0.2253   -0.0095    0.1908 C   0  0  0  0  0  0  0  0  0  0  0  0
    1.2226   -0.2305   -0.8865 C   0  0  0  0  0  0  0  0  0  0  0  0
    2.6401   -0.4839   -0.4321 C   0  0  0  0  0  0  0  0  0  0  0  0
    2.2965    0.8674   -0.9587 C   0  0  0  0  0  0  0  0  0  0  0  0
   -1.0891    2.2117   -0.9291 H   0  0  0  0  0  0  0  0  0  0  0  0
   -2.7075    1.6870   -0.4482 H   0  0  0  0  0  0  0  0  0  0  0  0
   -1.9895    1.0786   -1.9451 H   0  0  0  0  0  0  0  0  0  0  0  0
   -1.1736    0.5082    2.0177 H   0  0  0  0  0  0  0  0  0  0  0  0
   -2.5486   -0.5737    1.3384 H   0  0  0  0  0  0  0  0  0  0  0  0
   -0.1240   -1.9628    1.2715 H   0  0  0  0  0  0  0  0  0  0  0  0
   -2.3079   -1.5979   -0.3187 H   0  0  0  0  0  0  0  0  0  0  0  0
   -0.8027   -1.5724   -1.4287 H   0  0  0  0  0  0  0  0  0  0  0  0
    0.5592    0.6722    0.9963 H   0  0  0  0  0  0  0  0  0  0  0  0
    0.9714   -0.6799   -1.8422 H   0  0  0  0  0  0  0  0  0  0  0  0
    3.2942   -1.1482   -1.0534 H   0  0  0  0  0  0  0  0  0  0  0  0
    2.8620   -0.5233    0.6512 H   0  0  0  0  0  0  0  0  0  0  0  0
    2.2034    1.7349   -0.3025 H   0  0  0  0  0  0  0  0  0  0  0  0
    2.7041    1.0990   -1.9701 H   0  0  0  0  0  0  0  0  0  0  0  0
  1  2  1  0
  2  3  1  0
  3  4  1  0
  4  5  1  0
  4  6  1  0
  6  7  1  0
  7  8  1  0
  8  9  1  0
  5  2  1  0
  9  7  1  0
  6  2  1  0
  1 10  1  0
  1 11  1  0
  1 12  1  0
  3 13  1  0
  3 14  1  0
  4 15  1  0
  5 16  1  0
  5 17  1  0
  6 18  1  0
  7 19  1  0
  8 20  1  0
  8 21  1  0
  9 22  1  0
  9 23  1  0
M  END
