
     RDKit          3D

 14 15  0  0  0  0  0  0  0  0999 V2000
   -1.9660   -0.1481    0.4905 C   0  0  0  0  0  0  0  0  0  0  0  0
   -0.7188    0.3866   -0.1457 C   0  0  0  0  0  0  0  0  0  0  0  0
   -0.4171    1.7170    0.0640 O   0  0  0  0  0  0  0  0  0  0  0  0
    0.4155    0.8804    0.7615 C   0  0  0  0  0  0  0  0  0  0  0  0
    1.4125    0.1232   -0.0823 C   0  0  0  0  0  0  0  0  0  0  0  0
    2.2633   -0.7209    0.5827 O   0  0  0  0  0  0  0  0  0  0  0  0
    0.2581   -0.5157   -0.7740 C   0  0  0  0  0  0  0  0  0  0  0  0
    0.1504   -1.4334   -1.5601 O   0  0  0  0  0  0  0  0  0  0  0  0
   -2.7764    0.6099    0.4673 H   0  0  0  0  0  0  0  0  0  0  0  0
   -2.2954   -1.0995    0.0049 H   0  0  0  0  0  0  0  0  0  0  0  0
   -1.7056   -0.4189    1.5446 H   0  0  0  0  0  0  0  0  0  0  0  0
    0.2562    0.6176    1.8077 H   0  0  0  0  0  0  0  0  0  0  0  0
    1.9785    0.8062   -0.7781 H   0  0  0  0  0  0  0  0  0  0  0  0
    3.1445   -0.8043    0.1106 H   0  0  0  0  0  0  0  0  0  0  0  0
  1  2  1  0
  2  3  1  0
  3  4  1  0
  4  5  1  0
  5  6  1  0
  5  7  1  0
  7  8  2  0
  4  2  1  0
  7  2  1  0
  1  9  1  0
  1 10  1  0
  1 11  1  0
  4 12  1  0
  5 13  1  0
  6 14  1  0
M  END
