
     RDKit          3D

 18 19  0  0  0  0  0  0  0  0999 V2000
   -1.2811   -1.4641    0.4867 C   0  0  0  0  0  0  0  0  0  0  0  0
   -0.2118   -0.6162   -0.0744 C   0  0  0  0  0  0  0  0  0  0  0  0
   -0.6774    0.4502   -1.0441 C   0  0  0  0  0  0  0  0  0  0  0  0
   -0.3179    1.7430   -0.4186 C   0  0  0  0  0  0  0  0  0  0  0  0
    0.4509    1.5759    0.6397 C   0  0  0  0  0  0  0  0  0  0  0  0
    0.6774    0.1372    0.8190 C   0  0  0  0  0  0  0  0  0  0  0  0
    1.6995   -0.3723   -0.1853 C   0  0  0  0  0  0  0  0  0  0  0  0
    0.8453   -1.3946   -0.5766 O   0  0  0  0  0  0  0  0  0  0  0  0
   -1.2106   -2.5076    0.0591 H   0  0  0  0  0  0  0  0  0  0  0  0
   -1.2439   -1.6059    1.5847 H   0  0  0  0  0  0  0  0  0  0  0  0
   -2.2936   -1.1080    0.1874 H   0  0  0  0  0  0  0  0  0  0  0  0
   -0.2469    0.3171   -2.0549 H   0  0  0  0  0  0  0  0  0  0  0  0
   -1.7940    0.4028   -1.0586 H   0  0  0  0  0  0  0  0  0  0  0  0
   -0.6418    2.7061   -0.7794 H   0  0  0  0  0  0  0  0  0  0  0  0
    0.8668    2.3405    1.2938 H   0  0  0  0  0  0  0  0  0  0  0  0
    0.8344   -0.2152    1.8492 H   0  0  0  0  0  0  0  0  0  0  0  0
    2.6362   -0.6959    0.3010 H   0  0  0  0  0  0  0  0  0  0  0  0
    1.9086    0.3070   -1.0287 H   0  0  0  0  0  0  0  0  0  0  0  0
  1  2  1  0
  2  3  1  0
  3  4  1  0
  4  5  2  0
  5  6  1  0
  6  7  1  0
  7  8  1  0
  6  2  1  0
  8  2  1  0
  1  9  1  0
  1 10  1  0
  1 11  1  0
  3 12  1  0
  3 13  1  0
  4 14  1  0
  5 15  1  0
  6 16  1  0
  7 17  1  0
  7 18  1  0
M  END
