
     RDKit          3D

 21 23  0  0  0  0  0  0  0  0999 V2000
   -2.2739    0.2281    0.0165 C   0  0  0  0  0  0  0  0  0  0  0  0
   -0.7864    0.1407   -0.0286 C   0  0  0  0  0  0  0  0  0  0  0  0
   -0.1712   -0.4503    1.2314 C   0  0  0  0  0  0  0  0  0  0  0  0
    0.8265   -1.1325    0.3235 C   0  0  0  0  0  0  0  0  0  0  0  0
    1.9014   -0.1742   -0.0631 C   0  0  0  0  0  0  0  0  0  0  0  0
    1.4142    1.2042   -0.3189 C   0  0  0  0  0  0  0  0  0  0  0  0
    0.7425    1.9438    0.6143 O   0  0  0  0  0  0  0  0  0  0  0  0
   -0.0372    1.3649   -0.4336 C   0  0  0  0  0  0  0  0  0  0  0  0
   -0.2601   -1.1038   -0.7563 C   0  0  0  0  0  0  0  0  0  0  0  0
   -2.7059    0.3115   -0.9998 H   0  0  0  0  0  0  0  0  0  0  0  0
   -2.5614    1.0440    0.6888 H   0  0  0  0  0  0  0  0  0  0  0  0
   -2.6594   -0.7283    0.4342 H   0  0  0  0  0  0  0  0  0  0  0  0
   -0.8256   -1.1057    1.8063 H   0  0  0  0  0  0  0  0  0  0  0  0
    0.3454    0.3621    1.7886 H   0  0  0  0  0  0  0  0  0  0  0  0
    1.1712   -2.1166    0.6162 H   0  0  0  0  0  0  0  0  0  0  0  0
    2.7156   -0.2294    0.6829 H   0  0  0  0  0  0  0  0  0  0  0  0
    2.3561   -0.5465   -1.0291 H   0  0  0  0  0  0  0  0  0  0  0  0
    2.1079    1.8180   -0.9613 H   0  0  0  0  0  0  0  0  0  0  0  0
   -0.4146    2.0274   -1.2101 H   0  0  0  0  0  0  0  0  0  0  0  0
   -1.0059   -1.9336   -0.6438 H   0  0  0  0  0  0  0  0  0  0  0  0
    0.1206   -0.9237   -1.7581 H   0  0  0  0  0  0  0  0  0  0  0  0
  1  2  1  0
  2  3  1  0
  3  4  1  0
  4  5  1  0
  5  6  1  0
  6  7  1  0
  7  8  1  0
  4  9  1  0
  8  2  1  0
  9  2  1  0
  8  6  1  0
  1 10  1  0
  1 11  1  0
  1 12  1  0
  3 13  1  0
  3 14  1  0
  4 15  1  0
  5 16  1  0
  5 17  1  0
  6 18  1  0
  8 19  1  0
  9 20  1  0
  9 21  1  0
M  END
