
     RDKit          3D

 17 19  0  0  0  0  0  0  0  0999 V2000
    2.0914   -0.3076    0.2751 C   0  0  0  0  0  0  0  0  0  0  0  0
    0.6854    0.0166    0.1253 C   0  0  0  0  0  0  0  0  0  0  0  0
    0.1617    1.3318    0.4748 C   0  0  0  0  0  0  0  0  0  0  0  0
   -1.1577    1.2362    0.1781 C   0  0  0  0  0  0  0  0  0  0  0  0
   -1.2956   -0.1405   -0.3032 C   0  0  0  0  0  0  0  0  0  0  0  0
   -2.4730   -0.6317   -0.6779 O   0  0  0  0  0  0  0  0  0  0  0  0
   -0.0626   -0.3921   -1.0919 C   0  0  0  0  0  0  0  0  0  0  0  0
   -0.0668   -1.6808   -0.5852 O   0  0  0  0  0  0  0  0  0  0  0  0
   -0.3682   -0.9475    0.5505 C   0  0  0  0  0  0  0  0  0  0  0  0
    2.4384   -0.0508    1.2944 H   0  0  0  0  0  0  0  0  0  0  0  0
    2.7058    0.3074   -0.4271 H   0  0  0  0  0  0  0  0  0  0  0  0
    2.2470   -1.3868    0.0533 H   0  0  0  0  0  0  0  0  0  0  0  0
    0.6925    2.1867    0.8761 H   0  0  0  0  0  0  0  0  0  0  0  0
   -1.9173    2.0018    0.2776 H   0  0  0  0  0  0  0  0  0  0  0  0
   -3.2597   -0.1164   -0.4457 H   0  0  0  0  0  0  0  0  0  0  0  0
    0.1245   -0.1241   -2.0497 H   0  0  0  0  0  0  0  0  0  0  0  0
   -0.5459   -1.3020    1.4756 H   0  0  0  0  0  0  0  0  0  0  0  0
  1  2  1  0
  2  3  1  0
  3  4  2  0
  4  5  1  0
  5  6  1  0
  5  7  1  0
  7  8  1  0
  8  9  1  0
  7  2  1  0
  9  2  1  0
  9  5  1  0
  1 10  1  0
  1 11  1  0
  1 12  1  0
  3 13  1  0
  4 14  1  0
  6 15  1  0
  7 16  1  0
  9 17  1  0
M  END
