
     RDKit          3D

 21 23  0  0  0  0  0  0  0  0999 V2000
   -2.1937   -0.5774   -0.1473 C   0  0  0  0  0  0  0  0  0  0  0  0
   -0.8132    0.0894   -0.1258 C   0  0  0  0  0  0  0  0  0  0  0  0
    0.0770   -0.3074   -1.2530 C   0  0  0  0  0  0  0  0  0  0  0  0
    1.3588   -0.9472   -0.8066 C   0  0  0  0  0  0  0  0  0  0  0  0
    2.0915   -0.1211    0.2168 C   0  0  0  0  0  0  0  0  0  0  0  0
    1.9219    1.2376    0.2348 O   0  0  0  0  0  0  0  0  0  0  0  0
    1.2841    0.4155    1.2212 C   0  0  0  0  0  0  0  0  0  0  0  0
   -0.1940    0.3409    1.1562 C   0  0  0  0  0  0  0  0  0  0  0  0
   -0.8522    1.4982    0.3835 C   0  0  0  0  0  0  0  0  0  0  0  0
   -2.2885   -1.3547    0.6089 H   0  0  0  0  0  0  0  0  0  0  0  0
   -3.0046    0.1627   -0.0354 H   0  0  0  0  0  0  0  0  0  0  0  0
   -2.3741   -1.0644   -1.1472 H   0  0  0  0  0  0  0  0  0  0  0  0
    0.2456    0.5877   -1.8896 H   0  0  0  0  0  0  0  0  0  0  0  0
   -0.4198   -1.0537   -1.9411 H   0  0  0  0  0  0  0  0  0  0  0  0
    1.0910   -1.9092   -0.3093 H   0  0  0  0  0  0  0  0  0  0  0  0
    1.9702   -1.1748   -1.6937 H   0  0  0  0  0  0  0  0  0  0  0  0
    3.1020   -0.5553    0.4657 H   0  0  0  0  0  0  0  0  0  0  0  0
    1.6901    0.5672    2.2573 H   0  0  0  0  0  0  0  0  0  0  0  0
   -0.7184   -0.0160    2.0641 H   0  0  0  0  0  0  0  0  0  0  0  0
   -1.7846    1.9162    0.7982 H   0  0  0  0  0  0  0  0  0  0  0  0
   -0.1891    2.2656   -0.0576 H   0  0  0  0  0  0  0  0  0  0  0  0
  1  2  1  0
  2  3  1  0
  3  4  1  0
  4  5  1  0
  5  6  1  0
  6  7  1  0
  7  8  1  0
  8  9  1  0
  8  2  1  0
  9  2  1  0
  7  5  1  0
  1 10  1  0
  1 11  1  0
  1 12  1  0
  3 13  1  0
  3 14  1  0
  4 15  1  0
  4 16  1  0
  5 17  1  0
  7 18  1  0
  8 19  1  0
  9 20  1  0
  9 21  1  0
M  END
