
     RDKit          3D

 21 23  0  0  0  0  0  0  0  0999 V2000
    2.0118    1.1236   -0.1644 C   0  0  0  0  0  0  0  0  0  0  0  0
    0.7806    0.2957   -0.2339 C   0  0  0  0  0  0  0  0  0  0  0  0
    0.9324   -1.2229   -0.1942 C   0  0  0  0  0  0  0  0  0  0  0  0
   -0.4680   -1.7541   -0.0882 C   0  0  0  0  0  0  0  0  0  0  0  0
   -1.2808   -0.5841    0.4411 C   0  0  0  0  0  0  0  0  0  0  0  0
   -1.7731    0.2301   -0.7629 C   0  0  0  0  0  0  0  0  0  0  0  0
   -0.4426    0.9108   -0.7702 C   0  0  0  0  0  0  0  0  0  0  0  0
   -0.3168    0.5244    0.6889 C   0  0  0  0  0  0  0  0  0  0  0  0
   -0.3945    1.4107    1.6861 O   0  0  0  0  0  0  0  0  0  0  0  0
    2.5454    1.1782   -1.1389 H   0  0  0  0  0  0  0  0  0  0  0  0
    1.7665    2.1638    0.1308 H   0  0  0  0  0  0  0  0  0  0  0  0
    2.6959    0.7464    0.6494 H   0  0  0  0  0  0  0  0  0  0  0  0
    1.4993   -1.6103   -1.0381 H   0  0  0  0  0  0  0  0  0  0  0  0
    1.4364   -1.4318    0.7948 H   0  0  0  0  0  0  0  0  0  0  0  0
   -0.5222   -2.6376    0.6013 H   0  0  0  0  0  0  0  0  0  0  0  0
   -0.8370   -2.0494   -1.1143 H   0  0  0  0  0  0  0  0  0  0  0  0
   -2.0281   -0.8097    1.1897 H   0  0  0  0  0  0  0  0  0  0  0  0
   -2.5831    0.9506   -0.4826 H   0  0  0  0  0  0  0  0  0  0  0  0
   -1.9720   -0.3724   -1.6608 H   0  0  0  0  0  0  0  0  0  0  0  0
   -0.3851    1.9632   -1.0611 H   0  0  0  0  0  0  0  0  0  0  0  0
   -0.6648    0.9750    2.5276 H   0  0  0  0  0  0  0  0  0  0  0  0
  1  2  1  0
  2  3  1  0
  3  4  1  0
  4  5  1  0
  5  6  1  0
  6  7  1  0
  7  8  1  0
  8  9  1  0
  7  2  1  0
  8  2  1  0
  8  5  1  0
  1 10  1  0
  1 11  1  0
  1 12  1  0
  3 13  1  0
  3 14  1  0
  4 15  1  0
  4 16  1  0
  5 17  1  0
  6 18  1  0
  6 19  1  0
  7 20  1  0
  9 21  1  0
M  END
