
     RDKit          3D

 20 21  0  0  0  0  0  0  0  0999 V2000
    1.9810    0.2592   -0.4850 C   0  0  0  0  0  0  0  0  0  0  0  0
    0.6307    0.4471    0.1490 C   0  0  0  0  0  0  0  0  0  0  0  0
   -0.0090    1.7464    0.0429 C   0  0  0  0  0  0  0  0  0  0  0  0
   -1.3138    1.6396   -0.0074 C   0  0  0  0  0  0  0  0  0  0  0  0
   -1.7124    0.2366    0.0598 C   0  0  0  0  0  0  0  0  0  0  0  0
   -0.4277   -0.5307    0.1265 C   0  0  0  0  0  0  0  0  0  0  0  0
   -0.3881   -1.8110   -0.6711 C   0  0  0  0  0  0  0  0  0  0  0  0
    0.3860   -0.4333    1.3607 C   0  0  0  0  0  0  0  0  0  0  0  0
    2.4935    1.2602   -0.4763 H   0  0  0  0  0  0  0  0  0  0  0  0
    1.9528   -0.0913   -1.5171 H   0  0  0  0  0  0  0  0  0  0  0  0
    2.6340   -0.4029    0.1202 H   0  0  0  0  0  0  0  0  0  0  0  0
    0.4968    2.7238    0.0061 H   0  0  0  0  0  0  0  0  0  0  0  0
   -2.0551    2.4571   -0.0890 H   0  0  0  0  0  0  0  0  0  0  0  0
   -2.3145    0.0685    0.9851 H   0  0  0  0  0  0  0  0  0  0  0  0
   -2.3369   -0.0818   -0.8128 H   0  0  0  0  0  0  0  0  0  0  0  0
   -1.3423   -1.9557   -1.2244 H   0  0  0  0  0  0  0  0  0  0  0  0
    0.4602   -1.7410   -1.3760 H   0  0  0  0  0  0  0  0  0  0  0  0
   -0.2823   -2.6704    0.0253 H   0  0  0  0  0  0  0  0  0  0  0  0
    0.0594    0.1349    2.2471 H   0  0  0  0  0  0  0  0  0  0  0  0
    1.0878   -1.2554    1.5365 H   0  0  0  0  0  0  0  0  0  0  0  0
  1  2  1  0
  2  3  1  0
  3  4  2  0
  4  5  1  0
  5  6  1  0
  6  7  1  0
  6  8  1  0
  6  2  1  0
  8  2  1  0
  1  9  1  0
  1 10  1  0
  1 11  1  0
  3 12  1  0
  4 13  1  0
  5 14  1  0
  5 15  1  0
  7 16  1  0
  7 17  1  0
  7 18  1  0
  8 19  1  0
  8 20  1  0
M  END
