
     RDKit          3D

 20 22  0  0  0  0  0  0  0  0999 V2000
   -1.3797   -1.3594   -0.4656 C   0  0  0  0  0  0  0  0  0  0  0  0
   -0.4332   -0.3761    0.0468 C   0  0  0  0  0  0  0  0  0  0  0  0
   -1.0874    0.7399    0.8688 C   0  0  0  0  0  0  0  0  0  0  0  0
   -0.6191    1.7475   -0.1756 C   0  0  0  0  0  0  0  0  0  0  0  0
    0.1797    0.6450   -0.8044 C   0  0  0  0  0  0  0  0  0  0  0  0
    1.4877    0.4621   -0.0752 C   0  0  0  0  0  0  0  0  0  0  0  0
    2.1127   -0.8752   -0.2185 C   0  0  0  0  0  0  0  0  0  0  0  0
    0.8815   -0.8223    0.5853 C   0  0  0  0  0  0  0  0  0  0  0  0
   -1.2370   -1.7293   -1.4834 H   0  0  0  0  0  0  0  0  0  0  0  0
   -2.4309   -0.9733   -0.3590 H   0  0  0  0  0  0  0  0  0  0  0  0
   -1.3610   -2.2706    0.1992 H   0  0  0  0  0  0  0  0  0  0  0  0
   -0.6626    0.8710    1.8710 H   0  0  0  0  0  0  0  0  0  0  0  0
   -2.1790    0.6432    0.8704 H   0  0  0  0  0  0  0  0  0  0  0  0
   -1.4100    2.2036   -0.7703 H   0  0  0  0  0  0  0  0  0  0  0  0
    0.0173    2.5053    0.3326 H   0  0  0  0  0  0  0  0  0  0  0  0
    0.1844    0.5581   -1.8781 H   0  0  0  0  0  0  0  0  0  0  0  0
    1.8330    1.2075    0.6548 H   0  0  0  0  0  0  0  0  0  0  0  0
    2.1101   -1.2946   -1.2343 H   0  0  0  0  0  0  0  0  0  0  0  0
    3.0552   -1.0131    0.3486 H   0  0  0  0  0  0  0  0  0  0  0  0
    0.9382   -0.8693    1.6871 H   0  0  0  0  0  0  0  0  0  0  0  0
  1  2  1  0
  2  3  1  0
  3  4  1  0
  4  5  1  0
  5  6  1  0
  6  7  1  0
  7  8  1  0
  5  2  1  0
  8  6  1  0
  8  2  1  0
  1  9  1  0
  1 10  1  0
  1 11  1  0
  3 12  1  0
  3 13  1  0
  4 14  1  0
  4 15  1  0
  5 16  1  0
  6 17  1  0
  7 18  1  0
  7 19  1  0
  8 20  1  0
M  END
