
     RDKit          3D

 21 22  0  0  0  0  0  0  0  0999 V2000
    0.1472    1.9650   -0.8426 C   0  0  0  0  0  0  0  0  0  0  0  0
    0.0025    0.7093    0.0053 C   0  0  0  0  0  0  0  0  0  0  0  0
   -1.3565    0.2816    0.3919 C   0  0  0  0  0  0  0  0  0  0  0  0
   -1.5328   -1.1468    0.7242 C   0  0  0  0  0  0  0  0  0  0  0  0
   -0.3951   -1.9078    0.7380 O   0  0  0  0  0  0  0  0  0  0  0  0
    0.3656   -1.6640   -0.3844 C   0  0  0  0  0  0  0  0  0  0  0  0
    1.0042   -0.3259   -0.2348 C   0  0  0  0  0  0  0  0  0  0  0  0
    2.0396   -0.0818   -1.1478 O   0  0  0  0  0  0  0  0  0  0  0  0
    1.0830    0.4069    1.0283 C   0  0  0  0  0  0  0  0  0  0  0  0
    0.8446    1.7687   -1.7108 H   0  0  0  0  0  0  0  0  0  0  0  0
   -0.8528    2.1183   -1.3313 H   0  0  0  0  0  0  0  0  0  0  0  0
    0.4907    2.8310   -0.2748 H   0  0  0  0  0  0  0  0  0  0  0  0
   -2.0863    0.6240   -0.3989 H   0  0  0  0  0  0  0  0  0  0  0  0
   -1.6564    0.8846    1.2999 H   0  0  0  0  0  0  0  0  0  0  0  0
   -2.2759   -1.5873   -0.0037 H   0  0  0  0  0  0  0  0  0  0  0  0
   -2.0331   -1.2967    1.7269 H   0  0  0  0  0  0  0  0  0  0  0  0
   -0.3378   -1.6078   -1.2550 H   0  0  0  0  0  0  0  0  0  0  0  0
    1.1154   -2.4362   -0.6028 H   0  0  0  0  0  0  0  0  0  0  0  0
    2.8311   -0.6190   -0.8715 H   0  0  0  0  0  0  0  0  0  0  0  0
    0.7789   -0.1048    1.9804 H   0  0  0  0  0  0  0  0  0  0  0  0
    1.8238    1.1888    1.1633 H   0  0  0  0  0  0  0  0  0  0  0  0
  1  2  1  0
  2  3  1  0
  3  4  1  0
  4  5  1  0
  5  6  1  0
  6  7  1  0
  7  8  1  0
  7  9  1  0
  7  2  1  0
  9  2  1  0
  1 10  1  0
  1 11  1  0
  1 12  1  0
  3 13  1  0
  3 14  1  0
  4 15  1  0
  4 16  1  0
  6 17  1  0
  6 18  1  0
  8 19  1  0
  9 20  1  0
  9 21  1  0
M  END
