
     RDKit          3D

 19 21  0  0  0  0  0  0  0  0999 V2000
    1.8737    0.7817   -0.6006 C   0  0  0  0  0  0  0  0  0  0  0  0
    0.8119    0.0095    0.0090 C   0  0  0  0  0  0  0  0  0  0  0  0
    1.0980   -0.8868    1.0298 O   0  0  0  0  0  0  0  0  0  0  0  0
   -0.2426   -0.7873    1.3963 C   0  0  0  0  0  0  0  0  0  0  0  0
   -0.9062   -1.4815    0.2275 C   0  0  0  0  0  0  0  0  0  0  0  0
   -0.2445   -0.6258   -0.8676 C   0  0  0  0  0  0  0  0  0  0  0  0
   -1.1530    0.5298   -1.0675 C   0  0  0  0  0  0  0  0  0  0  0  0
   -1.2708    1.0719    0.1652 C   0  0  0  0  0  0  0  0  0  0  0  0
   -0.1323    0.6742    0.9881 C   0  0  0  0  0  0  0  0  0  0  0  0
    1.9515    0.5214   -1.6949 H   0  0  0  0  0  0  0  0  0  0  0  0
    2.8711    0.4529   -0.1832 H   0  0  0  0  0  0  0  0  0  0  0  0
    1.8032    1.8796   -0.5607 H   0  0  0  0  0  0  0  0  0  0  0  0
   -0.5385   -1.0225    2.3873 H   0  0  0  0  0  0  0  0  0  0  0  0
   -0.5376   -2.5158    0.0858 H   0  0  0  0  0  0  0  0  0  0  0  0
   -1.9901   -1.3882    0.2169 H   0  0  0  0  0  0  0  0  0  0  0  0
    0.0830   -1.1548   -1.7206 H   0  0  0  0  0  0  0  0  0  0  0  0
   -1.6288    0.8862   -1.9703 H   0  0  0  0  0  0  0  0  0  0  0  0
   -2.1252    1.7129    0.4487 H   0  0  0  0  0  0  0  0  0  0  0  0
    0.2771    1.3427    1.7109 H   0  0  0  0  0  0  0  0  0  0  0  0
  1  2  1  0
  2  3  1  0
  3  4  1  0
  4  5  1  0
  5  6  1  0
  6  7  1  0
  7  8  2  0
  8  9  1  0
  6  2  1  0
  9  2  1  0
  9  4  1  0
  1 10  1  0
  1 11  1  0
  1 12  1  0
  4 13  1  0
  5 14  1  0
  5 15  1  0
  6 16  1  0
  7 17  1  0
  8 18  1  0
  9 19  1  0
M  END
