
     RDKit          3D

 17 18  0  0  0  0  0  0  0  0999 V2000
   -0.9135    1.3543   -0.7995 C   0  0  0  0  0  0  0  0  0  0  0  0
   -0.4635    0.2553   -0.1332 C   0  0  0  0  0  0  0  0  0  0  0  0
   -1.0374   -1.1595   -0.2512 C   0  0  0  0  0  0  0  0  0  0  0  0
    0.0922   -1.2771    0.7294 C   0  0  0  0  0  0  0  0  0  0  0  0
   -0.3888   -0.0232    1.2894 C   0  0  0  0  0  0  0  0  0  0  0  0
   -0.6011    0.4857    2.3416 O   0  0  0  0  0  0  0  0  0  0  0  0
    0.8706   -0.4293   -0.2397 C   0  0  0  0  0  0  0  0  0  0  0  0
    2.0250    0.2984    0.3000 C   0  0  0  0  0  0  0  0  0  0  0  0
    2.9797    0.5842   -0.4098 O   0  0  0  0  0  0  0  0  0  0  0  0
   -0.3022    1.6621   -1.6971 H   0  0  0  0  0  0  0  0  0  0  0  0
   -1.9599    1.2708   -1.2214 H   0  0  0  0  0  0  0  0  0  0  0  0
   -0.9641    2.3047   -0.1885 H   0  0  0  0  0  0  0  0  0  0  0  0
   -2.0499   -1.2354    0.1578 H   0  0  0  0  0  0  0  0  0  0  0  0
   -0.8661   -1.6278   -1.2366 H   0  0  0  0  0  0  0  0  0  0  0  0
    0.4106   -2.1034    1.1963 H   0  0  0  0  0  0  0  0  0  0  0  0
    1.0737   -0.9762   -1.1720 H   0  0  0  0  0  0  0  0  0  0  0  0
    2.0946    0.6163    1.3346 H   0  0  0  0  0  0  0  0  0  0  0  0
  1  2  1  0
  2  3  1  0
  3  4  1  0
  4  5  1  0
  5  6  2  0
  4  7  1  0
  7  8  1  0
  8  9  2  0
  5  2  1  0
  7  2  1  0
  1 10  1  0
  1 11  1  0
  1 12  1  0
  3 13  1  0
  3 14  1  0
  4 15  1  0
  7 16  1  0
  8 17  1  0
M  END
