
     RDKit          3D

 19 22  0  0  0  0  0  0  0  0999 V2000
   -2.3216   -0.6672    0.2499 C   0  0  0  0  0  0  0  0  0  0  0  0
   -0.9319   -0.4415    0.2793 C   0  0  0  0  0  0  0  0  0  0  0  0
   -0.2093   -0.6525   -1.0985 C   0  0  0  0  0  0  0  0  0  0  0  0
    0.2676   -1.1948    0.1247 C   0  0  0  0  0  0  0  0  0  0  0  0
    1.0403    0.0353    0.4088 C   0  0  0  0  0  0  0  0  0  0  0  0
    2.4309    0.2515    0.5235 C   0  0  0  0  0  0  0  0  0  0  0  0
    0.3939    0.6422   -0.8857 C   0  0  0  0  0  0  0  0  0  0  0  0
   -0.1499    0.8116    0.4197 C   0  0  0  0  0  0  0  0  0  0  0  0
   -0.4944    1.8950    1.1031 O   0  0  0  0  0  0  0  0  0  0  0  0
   -2.6449   -1.6044    0.7653 H   0  0  0  0  0  0  0  0  0  0  0  0
   -2.9097    0.1539    0.7337 H   0  0  0  0  0  0  0  0  0  0  0  0
   -2.7618   -0.7512   -0.7840 H   0  0  0  0  0  0  0  0  0  0  0  0
   -0.7630   -1.0424   -1.9086 H   0  0  0  0  0  0  0  0  0  0  0  0
    0.5258   -2.1840    0.4164 H   0  0  0  0  0  0  0  0  0  0  0  0
    3.0274   -0.4238   -0.1590 H   0  0  0  0  0  0  0  0  0  0  0  0
    2.7123    1.2885    0.1719 H   0  0  0  0  0  0  0  0  0  0  0  0
    2.8770    0.0983    1.5275 H   0  0  0  0  0  0  0  0  0  0  0  0
    0.9843    1.2505   -1.5127 H   0  0  0  0  0  0  0  0  0  0  0  0
   -1.0730    2.5350    0.6217 H   0  0  0  0  0  0  0  0  0  0  0  0
  1  2  1  0
  2  3  1  0
  3  4  1  0
  4  5  1  0
  5  6  1  0
  5  7  1  0
  7  8  1  0
  8  9  1  0
  4  2  1  0
  8  5  1  0
  8  2  1  0
  7  3  1  0
  1 10  1  0
  1 11  1  0
  1 12  1  0
  3 13  1  0
  4 14  1  0
  6 15  1  0
  6 16  1  0
  6 17  1  0
  7 18  1  0
  9 19  1  0
M  END
