
     RDKit          3D

 21 22  0  0  0  0  0  0  0  0999 V2000
   -1.5004    1.2214   -0.7921 C   0  0  0  0  0  0  0  0  0  0  0  0
   -0.5158    0.4068   -0.0485 C   0  0  0  0  0  0  0  0  0  0  0  0
   -1.0827   -0.6583    0.8314 C   0  0  0  0  0  0  0  0  0  0  0  0
   -0.2952   -1.8956    0.4869 C   0  0  0  0  0  0  0  0  0  0  0  0
    0.1685   -1.6570   -0.7989 O   0  0  0  0  0  0  0  0  0  0  0  0
    0.5224   -0.3318   -0.8475 C   0  0  0  0  0  0  0  0  0  0  0  0
    1.5690    0.1198    0.1455 C   0  0  0  0  0  0  0  0  0  0  0  0
    2.7590    0.5562   -0.4651 O   0  0  0  0  0  0  0  0  0  0  0  0
    0.6270    1.2139    0.5520 C   0  0  0  0  0  0  0  0  0  0  0  0
   -2.5285    0.9535   -0.4080 H   0  0  0  0  0  0  0  0  0  0  0  0
   -1.3212    2.3095   -0.5677 H   0  0  0  0  0  0  0  0  0  0  0  0
   -1.5199    1.0996   -1.8736 H   0  0  0  0  0  0  0  0  0  0  0  0
   -2.1356   -0.8455    0.4821 H   0  0  0  0  0  0  0  0  0  0  0  0
   -1.1192   -0.4227    1.8907 H   0  0  0  0  0  0  0  0  0  0  0  0
   -0.9833   -2.7828    0.5288 H   0  0  0  0  0  0  0  0  0  0  0  0
    0.5109   -2.1193    1.2113 H   0  0  0  0  0  0  0  0  0  0  0  0
    0.6141    0.1038   -1.8483 H   0  0  0  0  0  0  0  0  0  0  0  0
    1.8164   -0.5745    0.9487 H   0  0  0  0  0  0  0  0  0  0  0  0
    3.0881   -0.2327   -0.9895 H   0  0  0  0  0  0  0  0  0  0  0  0
    0.5229    1.4233    1.6168 H   0  0  0  0  0  0  0  0  0  0  0  0
    0.8034    2.1126   -0.0884 H   0  0  0  0  0  0  0  0  0  0  0  0
  1  2  1  0
  2  3  1  0
  3  4  1  0
  4  5  1  0
  5  6  1  0
  6  7  1  0
  7  8  1  0
  7  9  1  0
  6  2  1  0
  9  2  1  0
  1 10  1  0
  1 11  1  0
  1 12  1  0
  3 13  1  0
  3 14  1  0
  4 15  1  0
  4 16  1  0
  6 17  1  0
  7 18  1  0
  8 19  1  0
  9 20  1  0
  9 21  1  0
M  END
