
     RDKit          3D

 21 23  0  0  0  0  0  0  0  0999 V2000
   -1.8287   -1.2142   -0.6628 C   0  0  0  0  0  0  0  0  0  0  0  0
   -0.8737   -0.2117    0.0429 C   0  0  0  0  0  0  0  0  0  0  0  0
   -1.5074    0.8792    0.7796 C   0  0  0  0  0  0  0  0  0  0  0  0
   -0.9546    1.2240   -0.5652 C   0  0  0  0  0  0  0  0  0  0  0  0
    0.4341    1.7488   -0.4752 C   0  0  0  0  0  0  0  0  0  0  0  0
    1.2515    0.7957   -0.1354 C   0  0  0  0  0  0  0  0  0  0  0  0
    2.4794   -0.0337    0.2416 C   0  0  0  0  0  0  0  0  0  0  0  0
    1.4374   -0.9531    0.9562 C   0  0  0  0  0  0  0  0  0  0  0  0
    0.5338   -0.5024   -0.1604 C   0  0  0  0  0  0  0  0  0  0  0  0
   -2.8642   -1.0533   -0.2985 H   0  0  0  0  0  0  0  0  0  0  0  0
   -1.7448   -1.0237   -1.7513 H   0  0  0  0  0  0  0  0  0  0  0  0
   -1.4345   -2.2075   -0.3789 H   0  0  0  0  0  0  0  0  0  0  0  0
   -1.0537    1.3604    1.6576 H   0  0  0  0  0  0  0  0  0  0  0  0
   -2.6210    0.8728    0.8064 H   0  0  0  0  0  0  0  0  0  0  0  0
   -1.5679    1.3570   -1.4530 H   0  0  0  0  0  0  0  0  0  0  0  0
    0.6949    2.7600   -0.6656 H   0  0  0  0  0  0  0  0  0  0  0  0
    2.8547   -0.5033   -0.6647 H   0  0  0  0  0  0  0  0  0  0  0  0
    3.1469    0.4368    0.9529 H   0  0  0  0  0  0  0  0  0  0  0  0
    1.6996   -2.0113    0.9155 H   0  0  0  0  0  0  0  0  0  0  0  0
    1.1874   -0.6281    1.9632 H   0  0  0  0  0  0  0  0  0  0  0  0
    0.7309   -1.0924   -1.1049 H   0  0  0  0  0  0  0  0  0  0  0  0
  1  2  1  0
  2  3  1  0
  3  4  1  0
  4  5  1  0
  5  6  2  0
  6  7  1  0
  7  8  1  0
  8  9  1  0
  4  2  1  0
  9  6  1  0
  9  2  1  0
  1 10  1  0
  1 11  1  0
  1 12  1  0
  3 13  1  0
  3 14  1  0
  4 15  1  0
  5 16  1  0
  7 17  1  0
  7 18  1  0
  8 19  1  0
  8 20  1  0
  9 21  1  0
M  END
