
     RDKit          3D

 19 21  0  0  0  0  0  0  0  0999 V2000
   -1.8123   -1.3464    0.2034 C   0  0  0  0  0  0  0  0  0  0  0  0
   -0.6762   -0.3467    0.2398 C   0  0  0  0  0  0  0  0  0  0  0  0
   -0.9837    1.0591    0.6253 C   0  0  0  0  0  0  0  0  0  0  0  0
   -0.1820    1.8657   -0.0584 C   0  0  0  0  0  0  0  0  0  0  0  0
    0.7272    1.1052   -0.9538 C   0  0  0  0  0  0  0  0  0  0  0  0
    1.9494    1.0146   -0.3060 O   0  0  0  0  0  0  0  0  0  0  0  0
    1.8972   -0.0791    0.5405 C   0  0  0  0  0  0  0  0  0  0  0  0
    0.6864   -0.8850    0.2393 C   0  0  0  0  0  0  0  0  0  0  0  0
    0.1299   -0.2492   -0.9858 C   0  0  0  0  0  0  0  0  0  0  0  0
   -1.6262   -2.0611    1.0344 H   0  0  0  0  0  0  0  0  0  0  0  0
   -1.8344   -1.9149   -0.7434 H   0  0  0  0  0  0  0  0  0  0  0  0
   -2.7902   -0.8634    0.4203 H   0  0  0  0  0  0  0  0  0  0  0  0
   -1.7309    1.4145    1.3421 H   0  0  0  0  0  0  0  0  0  0  0  0
   -0.1829    2.9455    0.0198 H   0  0  0  0  0  0  0  0  0  0  0  0
    0.8338    1.6021   -1.9323 H   0  0  0  0  0  0  0  0  0  0  0  0
    2.8038   -0.7053    0.2899 H   0  0  0  0  0  0  0  0  0  0  0  0
    1.9905    0.2633    1.5686 H   0  0  0  0  0  0  0  0  0  0  0  0
    0.8025   -1.9763    0.3321 H   0  0  0  0  0  0  0  0  0  0  0  0
   -0.0021   -0.8425   -1.8758 H   0  0  0  0  0  0  0  0  0  0  0  0
  1  2  1  0
  2  3  1  0
  3  4  2  0
  4  5  1  0
  5  6  1  0
  6  7  1  0
  7  8  1  0
  8  9  1  0
  8  2  1  0
  9  2  1  0
  9  5  1  0
  1 10  1  0
  1 11  1  0
  1 12  1  0
  3 13  1  0
  4 14  1  0
  5 15  1  0
  7 16  1  0
  7 17  1  0
  8 18  1  0
  9 19  1  0
M  END
