
     RDKit          3D

 19 21  0  0  0  0  0  0  0  0999 V2000
    2.0806   -0.3602   -0.0408 C   0  0  0  0  0  0  0  0  0  0  0  0
    0.7382    0.0483   -0.3726 C   0  0  0  0  0  0  0  0  0  0  0  0
    0.1439    1.2854    0.2784 C   0  0  0  0  0  0  0  0  0  0  0  0
   -1.2967    1.0509   -0.2169 C   0  0  0  0  0  0  0  0  0  0  0  0
   -1.9282    0.3762    0.8010 O   0  0  0  0  0  0  0  0  0  0  0  0
   -1.1297   -0.7551    1.0241 C   0  0  0  0  0  0  0  0  0  0  0  0
   -0.3458   -1.0120   -0.2168 C   0  0  0  0  0  0  0  0  0  0  0  0
   -0.9751   -0.0566   -1.1985 C   0  0  0  0  0  0  0  0  0  0  0  0
    0.3134    0.1848   -1.6731 O   0  0  0  0  0  0  0  0  0  0  0  0
    2.3296   -0.0373    1.0002 H   0  0  0  0  0  0  0  0  0  0  0  0
    2.1453   -1.4881   -0.0149 H   0  0  0  0  0  0  0  0  0  0  0  0
    2.9042    0.0185   -0.6767 H   0  0  0  0  0  0  0  0  0  0  0  0
    0.2091    1.2839    1.3647 H   0  0  0  0  0  0  0  0  0  0  0  0
    0.5695    2.1852   -0.1998 H   0  0  0  0  0  0  0  0  0  0  0  0
   -1.7693    1.9136   -0.6156 H   0  0  0  0  0  0  0  0  0  0  0  0
   -0.4017   -0.6008    1.8466 H   0  0  0  0  0  0  0  0  0  0  0  0
   -1.7427   -1.6327    1.3000 H   0  0  0  0  0  0  0  0  0  0  0  0
   -0.1190   -2.0039   -0.5267 H   0  0  0  0  0  0  0  0  0  0  0  0
   -1.7255   -0.4000   -1.8626 H   0  0  0  0  0  0  0  0  0  0  0  0
  1  2  1  0
  2  3  1  0
  3  4  1  0
  4  5  1  0
  5  6  1  0
  6  7  1  0
  7  8  1  0
  8  9  1  0
  7  2  1  0
  9  2  1  0
  8  4  1  0
  1 10  1  0
  1 11  1  0
  1 12  1  0
  3 13  1  0
  3 14  1  0
  4 15  1  0
  6 16  1  0
  6 17  1  0
  7 18  1  0
  8 19  1  0
M  END
