
     RDKit          3D

 17 18  0  0  0  0  0  0  0  0999 V2000
   -1.7709   -0.4508   -0.7358 C   0  0  0  0  0  0  0  0  0  0  0  0
   -0.4588   -0.3086   -0.1299 C   0  0  0  0  0  0  0  0  0  0  0  0
   -0.3894   -0.0666    1.3410 C   0  0  0  0  0  0  0  0  0  0  0  0
    0.8936    0.4327    1.5680 O   0  0  0  0  0  0  0  0  0  0  0  0
    1.5102    0.5768    0.3316 C   0  0  0  0  0  0  0  0  0  0  0  0
    0.3314    0.9336   -0.5988 C   0  0  0  0  0  0  0  0  0  0  0  0
    1.7611   -0.7987   -0.1666 C   0  0  0  0  0  0  0  0  0  0  0  0
    2.8583   -1.3722   -0.2877 O   0  0  0  0  0  0  0  0  0  0  0  0
    0.5033   -1.3051   -0.4679 O   0  0  0  0  0  0  0  0  0  0  0  0
   -2.1935    0.5768   -0.9432 H   0  0  0  0  0  0  0  0  0  0  0  0
   -2.4463   -1.0247   -0.0732 H   0  0  0  0  0  0  0  0  0  0  0  0
   -1.7019   -0.9690   -1.7052 H   0  0  0  0  0  0  0  0  0  0  0  0
   -0.6005   -0.9651    1.9503 H   0  0  0  0  0  0  0  0  0  0  0  0
   -1.0846    0.7733    1.5888 H   0  0  0  0  0  0  0  0  0  0  0  0
    2.3215    1.2595    0.2801 H   0  0  0  0  0  0  0  0  0  0  0  0
    0.6197    0.8502   -1.6454 H   0  0  0  0  0  0  0  0  0  0  0  0
   -0.1532    1.8579   -0.3061 H   0  0  0  0  0  0  0  0  0  0  0  0
  1  2  1  0
  2  3  1  0
  3  4  1  0
  4  5  1  0
  5  6  1  0
  5  7  1  0
  7  8  2  0
  7  9  1  0
  6  2  1  0
  9  2  1  0
  1 10  1  0
  1 11  1  0
  1 12  1  0
  3 13  1  0
  3 14  1  0
  5 15  1  0
  6 16  1  0
  6 17  1  0
M  END
