
     RDKit          3D

 23 25  0  0  0  0  0  0  0  0999 V2000
   -2.8654   -0.3471    0.5468 C   0  0  0  0  0  0  0  0  0  0  0  0
   -1.6467   -0.1327   -0.2798 C   0  0  0  0  0  0  0  0  0  0  0  0
   -0.5889   -1.2384   -0.3604 C   0  0  0  0  0  0  0  0  0  0  0  0
    0.3437   -0.2711    0.3007 C   0  0  0  0  0  0  0  0  0  0  0  0
    1.7039   -0.1221   -0.3344 C   0  0  0  0  0  0  0  0  0  0  0  0
    2.6023    0.8703    0.3792 C   0  0  0  0  0  0  0  0  0  0  0  0
    2.9290   -0.5668    0.4276 C   0  0  0  0  0  0  0  0  0  0  0  0
   -0.5961    0.8692    0.1480 C   0  0  0  0  0  0  0  0  0  0  0  0
   -1.4153    1.1046   -1.0495 C   0  0  0  0  0  0  0  0  0  0  0  0
   -3.2097    0.6366    0.9675 H   0  0  0  0  0  0  0  0  0  0  0  0
   -2.6483   -1.0402    1.3848 H   0  0  0  0  0  0  0  0  0  0  0  0
   -3.7047   -0.7130   -0.0993 H   0  0  0  0  0  0  0  0  0  0  0  0
   -0.9145   -2.1043    0.2483 H   0  0  0  0  0  0  0  0  0  0  0  0
   -0.3596   -1.5183   -1.4009 H   0  0  0  0  0  0  0  0  0  0  0  0
    0.4925   -0.5869    1.3756 H   0  0  0  0  0  0  0  0  0  0  0  0
    1.7524   -0.1731   -1.4341 H   0  0  0  0  0  0  0  0  0  0  0  0
    2.2083    1.4042    1.2746 H   0  0  0  0  0  0  0  0  0  0  0  0
    3.2344    1.5113   -0.2963 H   0  0  0  0  0  0  0  0  0  0  0  0
    3.8089   -0.9069   -0.1466 H   0  0  0  0  0  0  0  0  0  0  0  0
    2.7858   -1.1479    1.3753 H   0  0  0  0  0  0  0  0  0  0  0  0
   -0.7529    1.4909    1.0309 H   0  0  0  0  0  0  0  0  0  0  0  0
   -2.2168    1.8655   -0.9439 H   0  0  0  0  0  0  0  0  0  0  0  0
   -0.9422    1.1165   -2.0427 H   0  0  0  0  0  0  0  0  0  0  0  0
  1  2  1  0
  2  3  1  0
  3  4  1  0
  4  5  1  0
  5  6  1  0
  6  7  1  0
  4  8  1  0
  8  9  1  0
  8  2  1  0
  9  2  1  0
  7  5  1  0
  1 10  1  0
  1 11  1  0
  1 12  1  0
  3 13  1  0
  3 14  1  0
  4 15  1  0
  5 16  1  0
  6 17  1  0
  6 18  1  0
  7 19  1  0
  7 20  1  0
  8 21  1  0
  9 22  1  0
  9 23  1  0
M  END
