
     RDKit          2D

 23 24  0  0  0  0  0  0  0  0999 V2000
    1.0607   -2.1213    0.0000 C   0  0  0  0  0  0  0  0  0  0  0  0
   -0.0000   -1.0607    0.0000 C   0  0  0  0  0  0  0  0  0  0  0  0
    1.0607    0.0000    0.0000 C   0  0  0  0  0  0  0  0  0  0  0  0
    0.0000    1.0607    0.0000 C   0  0  0  0  0  0  0  0  0  0  0  0
   -1.0607    0.0000    0.0000 C   0  0  0  0  0  0  0  0  0  0  0  0
   -2.1213   -1.0607    0.0000 C   0  0  0  0  0  0  0  0  0  0  0  0
   -3.1820   -2.1213    0.0000 C   0  0  0  0  0  0  0  0  0  0  0  0
   -4.2426   -3.1820    0.0000 O   0  0  0  0  0  0  0  0  0  0  0  0
   -1.0607   -2.1213    0.0000 C   0  0  0  0  0  0  0  0  0  0  0  0
    2.1213   -3.1820    0.0000 H   0  0  0  0  0  0  0  0  0  0  0  0
    0.5154   -2.8193    0.0000 H   0  0  0  0  0  0  0  0  0  0  0  0
    1.7586   -1.5760    0.0000 H   0  0  0  0  0  0  0  0  0  0  0  0
    2.1213    1.0607    0.0000 H   0  0  0  0  0  0  0  0  0  0  0  0
    1.7586   -0.5453    0.0000 H   0  0  0  0  0  0  0  0  0  0  0  0
   -1.0607    2.1213    0.0000 H   0  0  0  0  0  0  0  0  0  0  0  0
    1.0607    2.1213    0.0000 H   0  0  0  0  0  0  0  0  0  0  0  0
   -2.1213    1.0607    0.0000 H   0  0  0  0  0  0  0  0  0  0  0  0
   -3.1820    0.0000    0.0000 H   0  0  0  0  0  0  0  0  0  0  0  0
   -4.2426   -1.0607    0.0000 H   0  0  0  0  0  0  0  0  0  0  0  0
   -2.6367   -2.8193    0.0000 H   0  0  0  0  0  0  0  0  0  0  0  0
   -5.6915   -2.7938    0.0000 H   0  0  0  0  0  0  0  0  0  0  0  0
   -0.5154   -2.8193    0.0000 H   0  0  0  0  0  0  0  0  0  0  0  0
   -1.6060   -2.8193    0.0000 H   0  0  0  0  0  0  0  0  0  0  0  0
  1  2  1  0
  2  3  1  0
  3  4  1  0
  4  5  1  0
  5  6  1  0
  6  7  1  0
  7  8  1  0
  6  9  1  0
  5  2  1  0
  9  2  1  0
  1 10  1  0
  1 11  1  0
  1 12  1  0
  3 13  1  0
  3 14  1  0
  4 15  1  0
  4 16  1  0
  5 17  1  0
  6 18  1  0
  7 19  1  0
  7 20  1  0
  8 21  1  0
  9 22  1  0
  9 23  1  0
M  END
