
     RDKit          3D

 21 23  0  0  0  0  0  0  0  0999 V2000
   -2.1338    0.2987    0.3351 C   0  0  0  0  0  0  0  0  0  0  0  0
   -0.6837    0.0827   -0.0427 C   0  0  0  0  0  0  0  0  0  0  0  0
   -0.0760    1.3334   -0.5539 C   0  0  0  0  0  0  0  0  0  0  0  0
    1.3867    1.4473   -0.3751 C   0  0  0  0  0  0  0  0  0  0  0  0
    2.1156    0.5121    0.2091 C   0  0  0  0  0  0  0  0  0  0  0  0
    1.5126   -0.7177    0.7259 C   0  0  0  0  0  0  0  0  0  0  0  0
    0.6294   -1.5793   -0.0726 C   0  0  0  0  0  0  0  0  0  0  0  0
   -0.4352   -1.0696   -0.9699 C   0  0  0  0  0  0  0  0  0  0  0  0
    0.0702   -0.6236    1.0198 C   0  0  0  0  0  0  0  0  0  0  0  0
   -2.1134    0.9178    1.2789 H   0  0  0  0  0  0  0  0  0  0  0  0
   -2.6589    0.9345   -0.4087 H   0  0  0  0  0  0  0  0  0  0  0  0
   -2.6573   -0.6397    0.5339 H   0  0  0  0  0  0  0  0  0  0  0  0
   -0.2633    1.4416   -1.6573 H   0  0  0  0  0  0  0  0  0  0  0  0
   -0.5240    2.2493   -0.1066 H   0  0  0  0  0  0  0  0  0  0  0  0
    1.8690    2.3423   -0.7442 H   0  0  0  0  0  0  0  0  0  0  0  0
    3.2131    0.6453    0.3183 H   0  0  0  0  0  0  0  0  0  0  0  0
    2.1193   -1.2486    1.5003 H   0  0  0  0  0  0  0  0  0  0  0  0
    0.5814   -2.6577    0.1441 H   0  0  0  0  0  0  0  0  0  0  0  0
   -1.3488   -1.7293   -0.9807 H   0  0  0  0  0  0  0  0  0  0  0  0
   -0.1772   -0.8032   -1.9949 H   0  0  0  0  0  0  0  0  0  0  0  0
   -0.4257   -1.1362    1.8409 H   0  0  0  0  0  0  0  0  0  0  0  0
  1  2  1  0
  2  3  1  0
  3  4  1  0
  4  5  2  0
  5  6  1  0
  6  7  1  0
  7  8  1  0
  7  9  1  0
  8  2  1  0
  9  2  1  0
  9  6  1  0
  1 10  1  0
  1 11  1  0
  1 12  1  0
  3 13  1  0
  3 14  1  0
  4 15  1  0
  5 16  1  0
  6 17  1  0
  7 18  1  0
  8 19  1  0
  8 20  1  0
  9 21  1  0
M  END
