
     RDKit          3D

 19 20  0  0  0  0  0  0  0  0999 V2000
    2.0514   -0.0312    0.2294 C   0  0  0  0  0  0  0  0  0  0  0  0
    0.6620   -0.0704   -0.1601 C   0  0  0  0  0  0  0  0  0  0  0  0
    0.2759    0.6405   -1.3989 C   0  0  0  0  0  0  0  0  0  0  0  0
   -1.0446    0.7964   -1.3517 C   0  0  0  0  0  0  0  0  0  0  0  0
   -1.5253    0.2318   -0.0511 C   0  0  0  0  0  0  0  0  0  0  0  0
   -1.3091   -1.2408   -0.1051 C   0  0  0  0  0  0  0  0  0  0  0  0
    0.0083   -1.4072   -0.2029 C   0  0  0  0  0  0  0  0  0  0  0  0
   -0.3113    0.6162    0.8190 C   0  0  0  0  0  0  0  0  0  0  0  0
   -0.3864   -0.0549    2.0071 O   0  0  0  0  0  0  0  0  0  0  0  0
    2.1566   -0.0344    1.3378 H   0  0  0  0  0  0  0  0  0  0  0  0
    2.5899   -0.9408   -0.1553 H   0  0  0  0  0  0  0  0  0  0  0  0
    2.5623    0.8581   -0.1762 H   0  0  0  0  0  0  0  0  0  0  0  0
    0.9577    0.9569   -2.1704 H   0  0  0  0  0  0  0  0  0  0  0  0
   -1.6895    1.2442   -2.0963 H   0  0  0  0  0  0  0  0  0  0  0  0
   -2.4583    0.5769    0.3051 H   0  0  0  0  0  0  0  0  0  0  0  0
   -2.0765   -1.9939   -0.0705 H   0  0  0  0  0  0  0  0  0  0  0  0
    0.5190   -2.3530   -0.2974 H   0  0  0  0  0  0  0  0  0  0  0  0
   -0.1612    1.6862    0.8690 H   0  0  0  0  0  0  0  0  0  0  0  0
   -0.8208    0.5194    2.6683 H   0  0  0  0  0  0  0  0  0  0  0  0
  1  2  1  0
  2  3  1  0
  3  4  2  0
  4  5  1  0
  5  6  1  0
  6  7  2  0
  5  8  1  0
  8  9  1  0
  7  2  1  0
  8  2  1  0
  1 10  1  0
  1 11  1  0
  1 12  1  0
  3 13  1  0
  4 14  1  0
  5 15  1  0
  6 16  1  0
  7 17  1  0
  8 18  1  0
  9 19  1  0
M  END
