
     RDKit          3D

 19 22  0  0  0  0  0  0  0  0999 V2000
    1.9679    0.5015    0.5137 C   0  0  0  0  0  0  0  0  0  0  0  0
    0.6319    0.1056    0.1412 C   0  0  0  0  0  0  0  0  0  0  0  0
    0.4341   -0.6597   -1.1762 C   0  0  0  0  0  0  0  0  0  0  0  0
   -1.0398   -1.0030   -0.9012 C   0  0  0  0  0  0  0  0  0  0  0  0
   -0.8574   -1.6975    0.3117 O   0  0  0  0  0  0  0  0  0  0  0  0
   -0.2380   -0.6727    1.0669 C   0  0  0  0  0  0  0  0  0  0  0  0
   -1.2682    0.4000    0.9471 C   0  0  0  0  0  0  0  0  0  0  0  0
   -1.5844    0.3388   -0.5367 C   0  0  0  0  0  0  0  0  0  0  0  0
   -0.4640    1.1212    0.0130 C   0  0  0  0  0  0  0  0  0  0  0  0
    2.0711    0.5614    1.6227 H   0  0  0  0  0  0  0  0  0  0  0  0
    2.7618   -0.1206    0.0574 H   0  0  0  0  0  0  0  0  0  0  0  0
    2.1697    1.5510    0.1470 H   0  0  0  0  0  0  0  0  0  0  0  0
    0.5326    0.0271   -2.0247 H   0  0  0  0  0  0  0  0  0  0  0  0
    1.0420   -1.5574   -1.2158 H   0  0  0  0  0  0  0  0  0  0  0  0
   -1.5183   -1.5470   -1.6743 H   0  0  0  0  0  0  0  0  0  0  0  0
    0.1286   -0.9509    2.0373 H   0  0  0  0  0  0  0  0  0  0  0  0
   -1.9591    0.6982    1.6854 H   0  0  0  0  0  0  0  0  0  0  0  0
   -2.5107    0.7352   -0.9061 H   0  0  0  0  0  0  0  0  0  0  0  0
   -0.2999    2.1689   -0.1085 H   0  0  0  0  0  0  0  0  0  0  0  0
  1  2  1  0
  2  3  1  0
  3  4  1  0
  4  5  1  0
  5  6  1  0
  6  7  1  0
  7  8  1  0
  8  9  1  0
  6  2  1  0
  9  7  1  0
  9  2  1  0
  8  4  1  0
  1 10  1  0
  1 11  1  0
  1 12  1  0
  3 13  1  0
  3 14  1  0
  4 15  1  0
  6 16  1  0
  7 17  1  0
  8 18  1  0
  9 19  1  0
M  END
