
     RDKit          3D

 21 23  0  0  0  0  0  0  0  0999 V2000
   -1.5042   -1.3331   -0.6577 C   0  0  0  0  0  0  0  0  0  0  0  0
   -0.7972   -0.2949    0.1244 C   0  0  0  0  0  0  0  0  0  0  0  0
   -1.1082    1.1435   -0.2768 C   0  0  0  0  0  0  0  0  0  0  0  0
   -0.0791    1.9240    0.4627 C   0  0  0  0  0  0  0  0  0  0  0  0
    1.0662    0.9641    0.7866 C   0  0  0  0  0  0  0  0  0  0  0  0
    0.6497   -0.2421    1.5407 C   0  0  0  0  0  0  0  0  0  0  0  0
   -0.7337   -0.4902    1.5121 O   0  0  0  0  0  0  0  0  0  0  0  0
    0.6891   -0.2733    0.0987 C   0  0  0  0  0  0  0  0  0  0  0  0
    1.5281   -1.0800   -0.7685 C   0  0  0  0  0  0  0  0  0  0  0  0
   -2.1517   -1.9604    0.0199 H   0  0  0  0  0  0  0  0  0  0  0  0
   -0.8596   -1.9661   -1.2919 H   0  0  0  0  0  0  0  0  0  0  0  0
   -2.2054   -0.8116   -1.3681 H   0  0  0  0  0  0  0  0  0  0  0  0
   -0.8757    1.2235   -1.3680 H   0  0  0  0  0  0  0  0  0  0  0  0
   -2.1401    1.4248   -0.1038 H   0  0  0  0  0  0  0  0  0  0  0  0
    0.2651    2.8146   -0.0727 H   0  0  0  0  0  0  0  0  0  0  0  0
   -0.5556    2.2783    1.4204 H   0  0  0  0  0  0  0  0  0  0  0  0
    2.0959    1.3004    0.7007 H   0  0  0  0  0  0  0  0  0  0  0  0
    1.2975   -0.7992    2.2059 H   0  0  0  0  0  0  0  0  0  0  0  0
    2.5718   -1.1415   -0.3410 H   0  0  0  0  0  0  0  0  0  0  0  0
    1.6691   -0.5658   -1.7549 H   0  0  0  0  0  0  0  0  0  0  0  0
    1.1783   -2.1149   -0.8687 H   0  0  0  0  0  0  0  0  0  0  0  0
  1  2  1  0
  2  3  1  0
  3  4  1  0
  4  5  1  0
  5  6  1  0
  6  7  1  0
  6  8  1  0
  8  9  1  0
  7  2  1  0
  8  2  1  0
  8  5  1  0
  1 10  1  0
  1 11  1  0
  1 12  1  0
  3 13  1  0
  3 14  1  0
  4 15  1  0
  4 16  1  0
  5 17  1  0
  6 18  1  0
  9 19  1  0
  9 20  1  0
  9 21  1  0
M  END
