
     RDKit          3D

 19 21  0  0  0  0  0  0  0  0999 V2000
   -1.7004   -1.2445   -0.2106 C   0  0  0  0  0  0  0  0  0  0  0  0
   -0.6885   -0.1918   -0.5236 C   0  0  0  0  0  0  0  0  0  0  0  0
   -1.4092    1.0352   -0.8279 C   0  0  0  0  0  0  0  0  0  0  0  0
   -0.5330    1.1328    0.2732 C   0  0  0  0  0  0  0  0  0  0  0  0
   -0.2513    0.2779    1.4312 C   0  0  0  0  0  0  0  0  0  0  0  0
    0.3659   -0.9607    1.5078 O   0  0  0  0  0  0  0  0  0  0  0  0
    0.5586   -0.3947    0.3119 C   0  0  0  0  0  0  0  0  0  0  0  0
    1.8720    0.1216   -0.0921 C   0  0  0  0  0  0  0  0  0  0  0  0
    2.7872   -0.9580   -0.0669 O   0  0  0  0  0  0  0  0  0  0  0  0
   -2.4642   -0.9592    0.5140 H   0  0  0  0  0  0  0  0  0  0  0  0
   -1.2275   -2.2291    0.0767 H   0  0  0  0  0  0  0  0  0  0  0  0
   -2.2246   -1.4809   -1.1839 H   0  0  0  0  0  0  0  0  0  0  0  0
   -2.4975    1.2414   -0.6077 H   0  0  0  0  0  0  0  0  0  0  0  0
   -1.1934    1.4291   -1.8653 H   0  0  0  0  0  0  0  0  0  0  0  0
    0.4486    1.6337   -0.0552 H   0  0  0  0  0  0  0  0  0  0  0  0
    0.2774    0.8693    2.2457 H   0  0  0  0  0  0  0  0  0  0  0  0
    2.3124    0.8909    0.5777 H   0  0  0  0  0  0  0  0  0  0  0  0
    1.8818    0.4615   -1.1659 H   0  0  0  0  0  0  0  0  0  0  0  0
    3.6856   -0.6744   -0.3390 H   0  0  0  0  0  0  0  0  0  0  0  0
  1  2  1  0
  2  3  1  0
  3  4  1  0
  4  5  1  0
  5  6  1  0
  6  7  1  0
  7  8  1  0
  8  9  1  0
  4  2  1  0
  7  5  1  0
  7  2  1  0
  1 10  1  0
  1 11  1  0
  1 12  1  0
  3 13  1  0
  3 14  1  0
  4 15  1  0
  5 16  1  0
  8 17  1  0
  8 18  1  0
  9 19  1  0
M  END
