
     RDKit          3D

 19 21  0  0  0  0  0  0  0  0999 V2000
   -1.7005   -1.1548    0.2629 C   0  0  0  0  0  0  0  0  0  0  0  0
   -0.7504   -0.1148   -0.0486 C   0  0  0  0  0  0  0  0  0  0  0  0
   -1.2361    1.0472   -0.6069 O   0  0  0  0  0  0  0  0  0  0  0  0
   -0.0709    1.6518   -0.1719 C   0  0  0  0  0  0  0  0  0  0  0  0
    0.9580    0.9833   -1.0778 C   0  0  0  0  0  0  0  0  0  0  0  0
    0.5514   -0.4601   -0.7281 C   0  0  0  0  0  0  0  0  0  0  0  0
    1.3751   -0.8288    0.4778 C   0  0  0  0  0  0  0  0  0  0  0  0
    1.0321    0.1355    1.4043 O   0  0  0  0  0  0  0  0  0  0  0  0
   -0.1541    0.7258    1.0514 C   0  0  0  0  0  0  0  0  0  0  0  0
   -1.5733   -1.6825    1.2232 H   0  0  0  0  0  0  0  0  0  0  0  0
   -1.6917   -1.9332   -0.5521 H   0  0  0  0  0  0  0  0  0  0  0  0
   -2.7359   -0.7429    0.2593 H   0  0  0  0  0  0  0  0  0  0  0  0
   -0.0175    2.6917   -0.0073 H   0  0  0  0  0  0  0  0  0  0  0  0
    0.7511    1.1554   -2.1366 H   0  0  0  0  0  0  0  0  0  0  0  0
    1.9734    1.2077   -0.7521 H   0  0  0  0  0  0  0  0  0  0  0  0
    0.5226   -1.1330   -1.5395 H   0  0  0  0  0  0  0  0  0  0  0  0
    1.1120   -1.8351    0.8658 H   0  0  0  0  0  0  0  0  0  0  0  0
    2.4680   -0.8115    0.2579 H   0  0  0  0  0  0  0  0  0  0  0  0
   -0.8133    1.0982    1.8184 H   0  0  0  0  0  0  0  0  0  0  0  0
  1  2  1  0
  2  3  1  0
  3  4  1  0
  4  5  1  0
  5  6  1  0
  6  7  1  0
  7  8  1  0
  8  9  1  0
  6  2  1  0
  9  2  1  0
  9  4  1  0
  1 10  1  0
  1 11  1  0
  1 12  1  0
  4 13  1  0
  5 14  1  0
  5 15  1  0
  6 16  1  0
  7 17  1  0
  7 18  1  0
  9 19  1  0
M  END
