
     RDKit          3D

 21 22  0  0  0  0  0  0  0  0999 V2000
    0.2271   -1.5704   -1.3274 C   0  0  0  0  0  0  0  0  0  0  0  0
    0.0488   -0.5860   -0.1970 C   0  0  0  0  0  0  0  0  0  0  0  0
   -0.9754   -1.0035    0.7991 C   0  0  0  0  0  0  0  0  0  0  0  0
   -1.8210   -0.0118    1.0568 C   0  0  0  0  0  0  0  0  0  0  0  0
   -1.4735    1.1997    0.2667 C   0  0  0  0  0  0  0  0  0  0  0  0
   -0.3463    0.7990   -0.6443 C   0  0  0  0  0  0  0  0  0  0  0  0
    1.0225    1.2754   -0.2193 C   0  0  0  0  0  0  0  0  0  0  0  0
    1.3392   -0.0844    0.3500 C   0  0  0  0  0  0  0  0  0  0  0  0
    1.5053   -0.1474    1.7184 O   0  0  0  0  0  0  0  0  0  0  0  0
   -0.0265   -1.1491   -2.3140 H   0  0  0  0  0  0  0  0  0  0  0  0
   -0.3852   -2.4721   -1.1026 H   0  0  0  0  0  0  0  0  0  0  0  0
    1.2808   -1.9219   -1.3924 H   0  0  0  0  0  0  0  0  0  0  0  0
   -0.9826   -1.9998    1.2259 H   0  0  0  0  0  0  0  0  0  0  0  0
   -2.6441   -0.1092    1.7564 H   0  0  0  0  0  0  0  0  0  0  0  0
   -1.1351    2.0383    0.9112 H   0  0  0  0  0  0  0  0  0  0  0  0
   -2.3775    1.4987   -0.3285 H   0  0  0  0  0  0  0  0  0  0  0  0
   -0.5802    0.9157   -1.7167 H   0  0  0  0  0  0  0  0  0  0  0  0
    1.0391    2.1118    0.5008 H   0  0  0  0  0  0  0  0  0  0  0  0
    1.6315    1.5504   -1.1069 H   0  0  0  0  0  0  0  0  0  0  0  0
    2.2412   -0.5254   -0.1668 H   0  0  0  0  0  0  0  0  0  0  0  0
    2.4120    0.1920    1.9305 H   0  0  0  0  0  0  0  0  0  0  0  0
  1  2  1  0
  2  3  1  0
  3  4  2  0
  4  5  1  0
  5  6  1  0
  6  7  1  0
  7  8  1  0
  8  9  1  0
  6  2  1  0
  8  2  1  0
  1 10  1  0
  1 11  1  0
  1 12  1  0
  3 13  1  0
  4 14  1  0
  5 15  1  0
  5 16  1  0
  6 17  1  0
  7 18  1  0
  7 19  1  0
  8 20  1  0
  9 21  1  0
M  END
