
     RDKit          3D

 21 23  0  0  0  0  0  0  0  0999 V2000
    2.3635   -0.1437    0.0503 C   0  0  0  0  0  0  0  0  0  0  0  0
    0.8883   -0.2550    0.1336 C   0  0  0  0  0  0  0  0  0  0  0  0
    0.2100    0.6729    1.1467 C   0  0  0  0  0  0  0  0  0  0  0  0
   -1.2065    0.7016    0.5804 C   0  0  0  0  0  0  0  0  0  0  0  0
   -1.6967   -0.7065    0.4240 C   0  0  0  0  0  0  0  0  0  0  0  0
   -0.6181   -1.2770   -0.5109 C   0  0  0  0  0  0  0  0  0  0  0  0
    0.4918   -1.5918    0.2502 O   0  0  0  0  0  0  0  0  0  0  0  0
    0.0932   -0.1080   -1.1098 C   0  0  0  0  0  0  0  0  0  0  0  0
   -0.8769    1.0324   -0.8845 C   0  0  0  0  0  0  0  0  0  0  0  0
    2.7447    0.4287    0.9224 H   0  0  0  0  0  0  0  0  0  0  0  0
    2.8672   -1.1516    0.1305 H   0  0  0  0  0  0  0  0  0  0  0  0
    2.7298    0.2669   -0.9222 H   0  0  0  0  0  0  0  0  0  0  0  0
    0.2554    0.2873    2.1645 H   0  0  0  0  0  0  0  0  0  0  0  0
    0.6268    1.6726    0.9928 H   0  0  0  0  0  0  0  0  0  0  0  0
   -1.8657    1.3982    1.0466 H   0  0  0  0  0  0  0  0  0  0  0  0
   -1.7371   -1.2735    1.3618 H   0  0  0  0  0  0  0  0  0  0  0  0
   -2.6392   -0.7028   -0.1495 H   0  0  0  0  0  0  0  0  0  0  0  0
   -0.9690   -2.0055   -1.2319 H   0  0  0  0  0  0  0  0  0  0  0  0
    0.5518   -0.1999   -2.0677 H   0  0  0  0  0  0  0  0  0  0  0  0
   -0.4083    2.0146   -0.8784 H   0  0  0  0  0  0  0  0  0  0  0  0
   -1.8048    0.9401   -1.4487 H   0  0  0  0  0  0  0  0  0  0  0  0
  1  2  1  0
  2  3  1  0
  3  4  1  0
  4  5  1  0
  5  6  1  0
  6  7  1  0
  6  8  1  0
  8  9  1  0
  7  2  1  0
  8  2  1  0
  9  4  1  0
  1 10  1  0
  1 11  1  0
  1 12  1  0
  3 13  1  0
  3 14  1  0
  4 15  1  0
  5 16  1  0
  5 17  1  0
  6 18  1  0
  8 19  1  0
  9 20  1  0
  9 21  1  0
M  END
