
     RDKit          3D

 17 18  0  0  0  0  0  0  0  0999 V2000
    0.5609   -1.4898    0.9152 C   0  0  0  0  0  0  0  0  0  0  0  0
    0.4148   -0.6223   -0.2964 C   0  0  0  0  0  0  0  0  0  0  0  0
   -0.8704   -0.6620   -0.9968 C   0  0  0  0  0  0  0  0  0  0  0  0
   -0.3992    0.5950   -0.3234 C   0  0  0  0  0  0  0  0  0  0  0  0
   -1.1432    1.1211    0.8539 C   0  0  0  0  0  0  0  0  0  0  0  0
    0.3347    1.5507   -1.0984 O   0  0  0  0  0  0  0  0  0  0  0  0
    1.6455    1.0853   -1.1610 C   0  0  0  0  0  0  0  0  0  0  0  0
    2.6896    1.7751   -1.3348 O   0  0  0  0  0  0  0  0  0  0  0  0
    1.5937   -0.2932   -0.9952 O   0  0  0  0  0  0  0  0  0  0  0  0
   -0.1475   -1.2375    1.7340 H   0  0  0  0  0  0  0  0  0  0  0  0
    1.5723   -1.4890    1.3465 H   0  0  0  0  0  0  0  0  0  0  0  0
    0.3773   -2.5493    0.5744 H   0  0  0  0  0  0  0  0  0  0  0  0
   -0.9568   -0.5628   -2.1096 H   0  0  0  0  0  0  0  0  0  0  0  0
   -1.7303   -1.1568   -0.5434 H   0  0  0  0  0  0  0  0  0  0  0  0
   -1.4465    0.3268    1.5366 H   0  0  0  0  0  0  0  0  0  0  0  0
   -0.4677    1.8641    1.3686 H   0  0  0  0  0  0  0  0  0  0  0  0
   -2.0271    1.7444    0.5299 H   0  0  0  0  0  0  0  0  0  0  0  0
  1  2  1  0
  2  3  1  0
  3  4  1  0
  4  5  1  0
  4  6  1  0
  6  7  1  0
  7  8  2  0
  7  9  1  0
  4  2  1  0
  9  2  1  0
  1 10  1  0
  1 11  1  0
  1 12  1  0
  3 13  1  0
  3 14  1  0
  5 15  1  0
  5 16  1  0
  5 17  1  0
M  END
