
     RDKit          3D

 20 21  0  0  0  0  0  0  0  0999 V2000
   -0.9411   -1.9219    0.0771 C   0  0  0  0  0  0  0  0  0  0  0  0
   -0.2647   -0.6462   -0.3576 C   0  0  0  0  0  0  0  0  0  0  0  0
   -1.2198    0.5065   -0.4398 C   0  0  0  0  0  0  0  0  0  0  0  0
   -0.5434    1.6951    0.1779 C   0  0  0  0  0  0  0  0  0  0  0  0
    0.6231    1.1549    0.9530 C   0  0  0  0  0  0  0  0  0  0  0  0
    0.9237   -0.2184    0.4352 C   0  0  0  0  0  0  0  0  0  0  0  0
    1.6956   -0.2984   -0.8455 C   0  0  0  0  0  0  0  0  0  0  0  0
    0.5650   -0.8306   -1.4561 O   0  0  0  0  0  0  0  0  0  0  0  0
   -2.0553   -1.7818    0.0139 H   0  0  0  0  0  0  0  0  0  0  0  0
   -0.7191   -2.7281   -0.6742 H   0  0  0  0  0  0  0  0  0  0  0  0
   -0.6379   -2.2367    1.1086 H   0  0  0  0  0  0  0  0  0  0  0  0
   -1.5687    0.7181   -1.4758 H   0  0  0  0  0  0  0  0  0  0  0  0
   -2.1242    0.2725    0.1810 H   0  0  0  0  0  0  0  0  0  0  0  0
   -0.1991    2.4093   -0.5940 H   0  0  0  0  0  0  0  0  0  0  0  0
   -1.2116    2.2080    0.9181 H   0  0  0  0  0  0  0  0  0  0  0  0
    0.3779    1.0495    2.0424 H   0  0  0  0  0  0  0  0  0  0  0  0
    1.4669    1.8676    0.8438 H   0  0  0  0  0  0  0  0  0  0  0  0
    1.3066   -0.9053    1.1950 H   0  0  0  0  0  0  0  0  0  0  0  0
    2.5588   -0.9833   -0.7879 H   0  0  0  0  0  0  0  0  0  0  0  0
    1.9670    0.6692   -1.3150 H   0  0  0  0  0  0  0  0  0  0  0  0
  1  2  1  0
  2  3  1  0
  3  4  1  0
  4  5  1  0
  5  6  1  0
  6  7  1  0
  7  8  1  0
  6  2  1  0
  8  2  1  0
  1  9  1  0
  1 10  1  0
  1 11  1  0
  3 12  1  0
  3 13  1  0
  4 14  1  0
  4 15  1  0
  5 16  1  0
  5 17  1  0
  6 18  1  0
  7 19  1  0
  7 20  1  0
M  END
