
     RDKit          3D

 19 20  0  0  0  0  0  0  0  0999 V2000
   -1.7701    0.3333   -0.5708 C   0  0  0  0  0  0  0  0  0  0  0  0
   -0.4539   -0.0809   -0.0062 C   0  0  0  0  0  0  0  0  0  0  0  0
   -0.4516   -1.1264    1.0531 C   0  0  0  0  0  0  0  0  0  0  0  0
   -0.2319   -2.0895    0.0362 O   0  0  0  0  0  0  0  0  0  0  0  0
    0.3230   -1.1079   -0.7936 C   0  0  0  0  0  0  0  0  0  0  0  0
    1.7245   -0.8140   -0.3846 C   0  0  0  0  0  0  0  0  0  0  0  0
    1.8302    0.4096    0.1051 C   0  0  0  0  0  0  0  0  0  0  0  0
    0.5121    1.0379    0.0643 C   0  0  0  0  0  0  0  0  0  0  0  0
    0.2727    1.9096    1.1188 O   0  0  0  0  0  0  0  0  0  0  0  0
   -1.5800    1.1402   -1.3132 H   0  0  0  0  0  0  0  0  0  0  0  0
   -2.3474    0.8200    0.2699 H   0  0  0  0  0  0  0  0  0  0  0  0
   -2.3789   -0.4834   -0.9604 H   0  0  0  0  0  0  0  0  0  0  0  0
   -1.4338   -1.3584    1.5310 H   0  0  0  0  0  0  0  0  0  0  0  0
    0.3423   -1.0840    1.8059 H   0  0  0  0  0  0  0  0  0  0  0  0
    0.1421   -1.1864   -1.8568 H   0  0  0  0  0  0  0  0  0  0  0  0
    2.5324   -1.5455   -0.4930 H   0  0  0  0  0  0  0  0  0  0  0  0
    2.7261    0.9116    0.4875 H   0  0  0  0  0  0  0  0  0  0  0  0
    0.4537    1.5831   -0.9215 H   0  0  0  0  0  0  0  0  0  0  0  0
   -0.2116    2.7312    0.8283 H   0  0  0  0  0  0  0  0  0  0  0  0
  1  2  1  0
  2  3  1  0
  3  4  1  0
  4  5  1  0
  5  6  1  0
  6  7  2  0
  7  8  1  0
  8  9  1  0
  5  2  1  0
  8  2  1  0
  1 10  1  0
  1 11  1  0
  1 12  1  0
  3 13  1  0
  3 14  1  0
  5 15  1  0
  6 16  1  0
  7 17  1  0
  8 18  1  0
  9 19  1  0
M  END
