
     RDKit          3D

 21 22  0  0  0  0  0  0  0  0999 V2000
   -1.8358    1.0339    0.3139 C   0  0  0  0  0  0  0  0  0  0  0  0
   -0.5375    0.2741    0.4753 C   0  0  0  0  0  0  0  0  0  0  0  0
    0.6085    1.1592    0.8099 C   0  0  0  0  0  0  0  0  0  0  0  0
    1.8766    0.8384    0.0587 C   0  0  0  0  0  0  0  0  0  0  0  0
    2.0601   -0.6598   -0.0329 C   0  0  0  0  0  0  0  0  0  0  0  0
    1.0176   -1.4267   -0.3339 C   0  0  0  0  0  0  0  0  0  0  0  0
   -0.2748   -0.7623   -0.5643 C   0  0  0  0  0  0  0  0  0  0  0  0
   -1.3486   -1.4450    0.2562 C   0  0  0  0  0  0  0  0  0  0  0  0
   -0.7712   -0.7953    1.3748 O   0  0  0  0  0  0  0  0  0  0  0  0
   -2.6415    0.6802    0.9765 H   0  0  0  0  0  0  0  0  0  0  0  0
   -1.6607    2.0975    0.5700 H   0  0  0  0  0  0  0  0  0  0  0  0
   -2.2246    0.9831   -0.7250 H   0  0  0  0  0  0  0  0  0  0  0  0
    0.7545    1.1238    1.9207 H   0  0  0  0  0  0  0  0  0  0  0  0
    0.3612    2.2234    0.5749 H   0  0  0  0  0  0  0  0  0  0  0  0
    1.8152    1.2811   -0.9431 H   0  0  0  0  0  0  0  0  0  0  0  0
    2.7394    1.2034    0.6565 H   0  0  0  0  0  0  0  0  0  0  0  0
    3.0140   -1.1296    0.1389 H   0  0  0  0  0  0  0  0  0  0  0  0
    1.1480   -2.5181   -0.4012 H   0  0  0  0  0  0  0  0  0  0  0  0
   -0.5394   -0.5225   -1.5970 H   0  0  0  0  0  0  0  0  0  0  0  0
   -2.3718   -1.1042    0.0264 H   0  0  0  0  0  0  0  0  0  0  0  0
   -1.1893   -2.5346    0.2515 H   0  0  0  0  0  0  0  0  0  0  0  0
  1  2  1  0
  2  3  1  0
  3  4  1  0
  4  5  1  0
  5  6  2  0
  6  7  1  0
  7  8  1  0
  8  9  1  0
  7  2  1  0
  9  2  1  0
  1 10  1  0
  1 11  1  0
  1 12  1  0
  3 13  1  0
  3 14  1  0
  4 15  1  0
  4 16  1  0
  5 17  1  0
  6 18  1  0
  7 19  1  0
  8 20  1  0
  8 21  1  0
M  END
