
     RDKit          3D

 19 20  0  0  0  0  0  0  0  0999 V2000
    2.0581    0.3386    0.3694 C   0  0  0  0  0  0  0  0  0  0  0  0
    0.6023    0.0710    0.1940 C   0  0  0  0  0  0  0  0  0  0  0  0
   -0.3451    1.0234    0.8453 C   0  0  0  0  0  0  0  0  0  0  0  0
   -1.6923    0.9097    0.1742 C   0  0  0  0  0  0  0  0  0  0  0  0
   -1.9588   -0.2701   -0.3960 C   0  0  0  0  0  0  0  0  0  0  0  0
   -0.7573   -1.0167   -0.8891 C   0  0  0  0  0  0  0  0  0  0  0  0
    0.1613   -1.3659    0.2746 C   0  0  0  0  0  0  0  0  0  0  0  0
    0.2631    0.0128   -1.2767 C   0  0  0  0  0  0  0  0  0  0  0  0
    0.6374    0.5478   -2.3055 O   0  0  0  0  0  0  0  0  0  0  0  0
    2.3784    0.2278    1.4290 H   0  0  0  0  0  0  0  0  0  0  0  0
    2.2419    1.4016    0.1048 H   0  0  0  0  0  0  0  0  0  0  0  0
    2.6491   -0.2686   -0.3245 H   0  0  0  0  0  0  0  0  0  0  0  0
   -0.5407    0.7893    1.9188 H   0  0  0  0  0  0  0  0  0  0  0  0
    0.0285    2.0438    0.6985 H   0  0  0  0  0  0  0  0  0  0  0  0
   -2.3952    1.7425    0.1613 H   0  0  0  0  0  0  0  0  0  0  0  0
   -2.9689   -0.6563   -0.4936 H   0  0  0  0  0  0  0  0  0  0  0  0
   -0.9414   -1.8039   -1.6099 H   0  0  0  0  0  0  0  0  0  0  0  0
    0.9348   -2.0555   -0.0714 H   0  0  0  0  0  0  0  0  0  0  0  0
   -0.3552   -1.6714    1.1970 H   0  0  0  0  0  0  0  0  0  0  0  0
  1  2  1  0
  2  3  1  0
  3  4  1  0
  4  5  2  0
  5  6  1  0
  6  7  1  0
  6  8  1  0
  8  9  2  0
  7  2  1  0
  8  2  1  0
  1 10  1  0
  1 11  1  0
  1 12  1  0
  3 13  1  0
  3 14  1  0
  4 15  1  0
  5 16  1  0
  6 17  1  0
  7 18  1  0
  7 19  1  0
M  END
