
     RDKit          3D

 19 21  0  0  0  0  0  0  0  0999 V2000
   -1.1789    1.1833   -1.0306 C   0  0  0  0  0  0  0  0  0  0  0  0
   -0.4525    0.2819   -0.1750 C   0  0  0  0  0  0  0  0  0  0  0  0
   -1.2054   -0.7553    0.5923 C   0  0  0  0  0  0  0  0  0  0  0  0
   -0.2183   -1.6021    1.0972 O   0  0  0  0  0  0  0  0  0  0  0  0
    0.9404   -1.4101    0.3866 C   0  0  0  0  0  0  0  0  0  0  0  0
    1.6388   -0.0914    0.6254 C   0  0  0  0  0  0  0  0  0  0  0  0
    0.5240    0.9320    0.8192 C   0  0  0  0  0  0  0  0  0  0  0  0
    1.7906   -0.0107   -0.7753 O   0  0  0  0  0  0  0  0  0  0  0  0
    0.5768   -0.6235   -0.8646 C   0  0  0  0  0  0  0  0  0  0  0  0
   -2.2832    1.2199   -0.9097 H   0  0  0  0  0  0  0  0  0  0  0  0
   -0.7873    2.2224   -0.9645 H   0  0  0  0  0  0  0  0  0  0  0  0
   -1.0137    0.8891   -2.1094 H   0  0  0  0  0  0  0  0  0  0  0  0
   -1.7867   -0.3618    1.4447 H   0  0  0  0  0  0  0  0  0  0  0  0
   -1.8534   -1.3125   -0.1380 H   0  0  0  0  0  0  0  0  0  0  0  0
    1.6253   -2.2331    0.2614 H   0  0  0  0  0  0  0  0  0  0  0  0
    2.4984   -0.0435    1.2363 H   0  0  0  0  0  0  0  0  0  0  0  0
    0.7861    1.9176    0.3966 H   0  0  0  0  0  0  0  0  0  0  0  0
    0.1309    0.9520    1.8323 H   0  0  0  0  0  0  0  0  0  0  0  0
    0.2682   -1.1540   -1.7249 H   0  0  0  0  0  0  0  0  0  0  0  0
  1  2  1  0
  2  3  1  0
  3  4  1  0
  4  5  1  0
  5  6  1  0
  6  7  1  0
  6  8  1  0
  8  9  1  0
  7  2  1  0
  9  2  1  0
  9  5  1  0
  1 10  1  0
  1 11  1  0
  1 12  1  0
  3 13  1  0
  3 14  1  0
  5 15  1  0
  6 16  1  0
  7 17  1  0
  7 18  1  0
  9 19  1  0
M  END
