
     RDKit          3D

 19 21  0  0  0  0  0  0  0  0999 V2000
   -1.3853    1.6003    0.0035 C   0  0  0  0  0  0  0  0  0  0  0  0
   -0.4876    0.4934   -0.1007 C   0  0  0  0  0  0  0  0  0  0  0  0
   -1.1288   -0.8901   -0.3449 C   0  0  0  0  0  0  0  0  0  0  0  0
    0.2362   -1.5833   -0.1221 C   0  0  0  0  0  0  0  0  0  0  0  0
    0.3256   -1.2408    1.2533 O   0  0  0  0  0  0  0  0  0  0  0  0
    0.4003    0.1630    1.0603 C   0  0  0  0  0  0  0  0  0  0  0  0
    1.7606    0.1328    0.3306 C   0  0  0  0  0  0  0  0  0  0  0  0
    1.1360   -0.6453   -0.8509 C   0  0  0  0  0  0  0  0  0  0  0  0
    0.3202    0.4376   -1.2705 O   0  0  0  0  0  0  0  0  0  0  0  0
   -0.9466    2.5252   -0.4752 H   0  0  0  0  0  0  0  0  0  0  0  0
   -2.3412    1.4282   -0.5282 H   0  0  0  0  0  0  0  0  0  0  0  0
   -1.5684    1.8883    1.0580 H   0  0  0  0  0  0  0  0  0  0  0  0
   -1.4485   -0.9829   -1.3734 H   0  0  0  0  0  0  0  0  0  0  0  0
   -1.8400   -1.1523    0.4288 H   0  0  0  0  0  0  0  0  0  0  0  0
    0.2557   -2.6065   -0.3440 H   0  0  0  0  0  0  0  0  0  0  0  0
    0.3642    0.7542    1.9215 H   0  0  0  0  0  0  0  0  0  0  0  0
    2.4969   -0.4552    0.8590 H   0  0  0  0  0  0  0  0  0  0  0  0
    2.0329    1.1448    0.0492 H   0  0  0  0  0  0  0  0  0  0  0  0
    1.8180   -1.0113   -1.5542 H   0  0  0  0  0  0  0  0  0  0  0  0
  1  2  1  0
  2  3  1  0
  3  4  1  0
  4  5  1  0
  5  6  1  0
  6  7  1  0
  7  8  1  0
  8  9  1  0
  6  2  1  0
  9  2  1  0
  8  4  1  0
  1 10  1  0
  1 11  1  0
  1 12  1  0
  3 13  1  0
  3 14  1  0
  4 15  1  0
  6 16  1  0
  7 17  1  0
  7 18  1  0
  8 19  1  0
M  END
