
     RDKit          3D

 19 20  0  0  0  0  0  0  0  0999 V2000
    1.9189    0.5562    0.2817 C   0  0  0  0  0  0  0  0  0  0  0  0
    0.5992    0.0561    0.0637 C   0  0  0  0  0  0  0  0  0  0  0  0
    0.0066   -0.9693    1.0334 C   0  0  0  0  0  0  0  0  0  0  0  0
   -1.3162   -0.4551    0.4759 C   0  0  0  0  0  0  0  0  0  0  0  0
   -1.2352   -0.8924   -0.9645 C   0  0  0  0  0  0  0  0  0  0  0  0
    0.1592   -0.4611   -1.2460 C   0  0  0  0  0  0  0  0  0  0  0  0
    0.7757   -0.5130   -2.2609 O   0  0  0  0  0  0  0  0  0  0  0  0
   -0.6164    0.9110    0.4304 C   0  0  0  0  0  0  0  0  0  0  0  0
   -1.1165    1.6316   -0.6407 O   0  0  0  0  0  0  0  0  0  0  0  0
    2.4191    0.8784   -0.6328 H   0  0  0  0  0  0  0  0  0  0  0  0
    1.9146    1.4332    0.9801 H   0  0  0  0  0  0  0  0  0  0  0  0
    2.5833   -0.2374    0.7349 H   0  0  0  0  0  0  0  0  0  0  0  0
    0.1855   -0.7073    2.0820 H   0  0  0  0  0  0  0  0  0  0  0  0
    0.2203   -2.0125    0.7443 H   0  0  0  0  0  0  0  0  0  0  0  0
   -2.1974   -0.5576    1.0378 H   0  0  0  0  0  0  0  0  0  0  0  0
   -1.9839   -0.4383   -1.6068 H   0  0  0  0  0  0  0  0  0  0  0  0
   -1.2190   -2.0064   -0.9862 H   0  0  0  0  0  0  0  0  0  0  0  0
   -0.5577    1.4153    1.3933 H   0  0  0  0  0  0  0  0  0  0  0  0
   -0.5402    2.3686   -0.9194 H   0  0  0  0  0  0  0  0  0  0  0  0
  1  2  1  0
  2  3  1  0
  3  4  1  0
  4  5  1  0
  5  6  1  0
  6  7  2  0
  4  8  1  0
  8  9  1  0
  6  2  1  0
  8  2  1  0
  1 10  1  0
  1 11  1  0
  1 12  1  0
  3 13  1  0
  3 14  1  0
  4 15  1  0
  5 16  1  0
  5 17  1  0
  8 18  1  0
  9 19  1  0
M  END
