
     RDKit          3D

 14 15  0  0  0  0  0  0  0  0999 V2000
   -1.2536   -0.8494   -0.5758 C   0  0  0  0  0  0  0  0  0  0  0  0
   -0.7845    0.2710    0.4084 C   0  0  0  0  0  0  0  0  0  0  0  0
   -0.0335    1.2351   -0.3469 C   0  0  0  0  0  0  0  0  0  0  0  0
    1.2140    0.7914   -0.4647 C   0  0  0  0  0  0  0  0  0  0  0  0
    1.2073   -0.4848    0.2638 C   0  0  0  0  0  0  0  0  0  0  0  0
    1.8122   -1.5048   -0.0507 O   0  0  0  0  0  0  0  0  0  0  0  0
    0.3305   -0.1629    1.3732 C   0  0  0  0  0  0  0  0  0  0  0  0
   -0.9544   -0.1158    1.6272 O   0  0  0  0  0  0  0  0  0  0  0  0
   -0.4295   -1.1022   -1.2742 H   0  0  0  0  0  0  0  0  0  0  0  0
   -1.5502   -1.7570   -0.0746 H   0  0  0  0  0  0  0  0  0  0  0  0
   -2.1178   -0.4156   -1.1005 H   0  0  0  0  0  0  0  0  0  0  0  0
   -0.3435    2.1929   -0.7873 H   0  0  0  0  0  0  0  0  0  0  0  0
    2.0641    1.2632   -1.0058 H   0  0  0  0  0  0  0  0  0  0  0  0
    0.8388    0.6390    2.0078 H   0  0  0  0  0  0  0  0  0  0  0  0
  1  2  1  0
  2  3  1  0
  3  4  2  0
  4  5  1  0
  5  6  2  0
  5  7  1  0
  7  8  1  0
  7  2  1  0
  8  2  1  0
  1  9  1  0
  1 10  1  0
  1 11  1  0
  3 12  1  0
  4 13  1  0
  7 14  1  0
M  END
