
     RDKit          3D

 21 23  0  0  0  0  0  0  0  0999 V2000
    2.1290    0.2335    0.0918 C   0  0  0  0  0  0  0  0  0  0  0  0
    0.7266   -0.1472   -0.0216 C   0  0  0  0  0  0  0  0  0  0  0  0
    0.3605   -1.4658   -0.6308 C   0  0  0  0  0  0  0  0  0  0  0  0
   -1.1730   -1.3877   -0.5023 C   0  0  0  0  0  0  0  0  0  0  0  0
   -1.2911   -0.0196    0.1140 C   0  0  0  0  0  0  0  0  0  0  0  0
   -2.5068    0.4894    0.3644 O   0  0  0  0  0  0  0  0  0  0  0  0
   -0.2020    0.1103    1.1308 C   0  0  0  0  0  0  0  0  0  0  0  0
   -0.1326    1.5580    0.7291 C   0  0  0  0  0  0  0  0  0  0  0  0
   -0.2627    0.8314   -0.5773 C   0  0  0  0  0  0  0  0  0  0  0  0
    2.3855    1.1414   -0.4947 H   0  0  0  0  0  0  0  0  0  0  0  0
    2.4149    0.3592    1.1594 H   0  0  0  0  0  0  0  0  0  0  0  0
    2.8091   -0.5791   -0.2913 H   0  0  0  0  0  0  0  0  0  0  0  0
    0.6326   -1.4665   -1.7108 H   0  0  0  0  0  0  0  0  0  0  0  0
    0.7728   -2.3086   -0.0732 H   0  0  0  0  0  0  0  0  0  0  0  0
   -1.5132   -2.2007    0.1554 H   0  0  0  0  0  0  0  0  0  0  0  0
   -1.6649   -1.3885   -1.4737 H   0  0  0  0  0  0  0  0  0  0  0  0
   -2.7679    1.1018   -0.3899 H   0  0  0  0  0  0  0  0  0  0  0  0
   -0.1585   -0.2720    2.0509 H   0  0  0  0  0  0  0  0  0  0  0  0
    0.8112    2.0611    0.9364 H   0  0  0  0  0  0  0  0  0  0  0  0
   -1.0654    2.1331    0.9304 H   0  0  0  0  0  0  0  0  0  0  0  0
   -0.3043    1.2164   -1.4970 H   0  0  0  0  0  0  0  0  0  0  0  0
  1  2  1  0
  2  3  1  0
  3  4  1  0
  4  5  1  0
  5  6  1  0
  5  7  1  0
  7  8  1  0
  8  9  1  0
  7  2  1  0
  9  2  1  0
  9  5  1  0
  1 10  1  0
  1 11  1  0
  1 12  1  0
  3 13  1  0
  3 14  1  0
  4 15  1  0
  4 16  1  0
  6 17  1  0
  7 18  1  0
  8 19  1  0
  8 20  1  0
  9 21  1  0
M  END
