
     RDKit          3D

 14 15  0  0  0  0  0  0  0  0999 V2000
    1.6109    0.8972   -0.0764 C   0  0  0  0  0  0  0  0  0  0  0  0
    0.4101    0.1085   -0.0411 C   0  0  0  0  0  0  0  0  0  0  0  0
   -0.8421    0.6516   -0.6958 C   0  0  0  0  0  0  0  0  0  0  0  0
   -1.6553   -0.3992   -0.5582 C   0  0  0  0  0  0  0  0  0  0  0  0
   -0.7713   -1.3461    0.1946 C   0  0  0  0  0  0  0  0  0  0  0  0
    0.4146   -1.2042   -0.5366 O   0  0  0  0  0  0  0  0  0  0  0  0
   -0.1303   -0.4585    1.1836 C   0  0  0  0  0  0  0  0  0  0  0  0
   -0.0895   -0.3038    2.3604 O   0  0  0  0  0  0  0  0  0  0  0  0
    2.2385    0.6227   -0.9731 H   0  0  0  0  0  0  0  0  0  0  0  0
    2.2523    0.6949    0.8036 H   0  0  0  0  0  0  0  0  0  0  0  0
    1.3678    1.9815   -0.0889 H   0  0  0  0  0  0  0  0  0  0  0  0
   -1.0092    1.6192   -1.1422 H   0  0  0  0  0  0  0  0  0  0  0  0
   -2.6729   -0.5633   -0.8830 H   0  0  0  0  0  0  0  0  0  0  0  0
   -1.1236   -2.3004    0.4532 H   0  0  0  0  0  0  0  0  0  0  0  0
  1  2  1  0
  2  3  1  0
  3  4  2  0
  4  5  1  0
  5  6  1  0
  5  7  1  0
  7  8  2  0
  6  2  1  0
  7  2  1  0
  1  9  1  0
  1 10  1  0
  1 11  1  0
  3 12  1  0
  4 13  1  0
  5 14  1  0
M  END
