
     RDKit          3D

 19 20  0  0  0  0  0  0  0  0999 V2000
    2.0036   -0.9077    0.7853 C   0  0  0  0  0  0  0  0  0  0  0  0
    0.6748   -0.2779    0.5156 C   0  0  0  0  0  0  0  0  0  0  0  0
   -0.3760   -1.1375    0.3636 O   0  0  0  0  0  0  0  0  0  0  0  0
   -0.9077   -0.5378   -0.7907 C   0  0  0  0  0  0  0  0  0  0  0  0
   -2.1660    0.1836   -0.4287 C   0  0  0  0  0  0  0  0  0  0  0  0
   -3.0551   -0.7597    0.0916 O   0  0  0  0  0  0  0  0  0  0  0  0
    0.3492    0.2859   -0.8425 C   0  0  0  0  0  0  0  0  0  0  0  0
    0.6032    1.1698    0.3047 C   0  0  0  0  0  0  0  0  0  0  0  0
    1.8420    1.8348    0.2625 O   0  0  0  0  0  0  0  0  0  0  0  0
    1.8924   -1.5491    1.7081 H   0  0  0  0  0  0  0  0  0  0  0  0
    2.3293   -1.6121   -0.0069 H   0  0  0  0  0  0  0  0  0  0  0  0
    2.7521   -0.1409    1.0307 H   0  0  0  0  0  0  0  0  0  0  0  0
   -1.0495   -1.1946   -1.6474 H   0  0  0  0  0  0  0  0  0  0  0  0
   -2.6723    0.6317   -1.3101 H   0  0  0  0  0  0  0  0  0  0  0  0
   -2.0243    0.9446    0.3701 H   0  0  0  0  0  0  0  0  0  0  0  0
   -2.7986   -1.6714   -0.1941 H   0  0  0  0  0  0  0  0  0  0  0  0
    1.0839    0.1473   -1.6448 H   0  0  0  0  0  0  0  0  0  0  0  0
   -0.2050    1.8081    0.7214 H   0  0  0  0  0  0  0  0  0  0  0  0
    1.7241    2.7827    0.0621 H   0  0  0  0  0  0  0  0  0  0  0  0
  1  2  1  0
  2  3  1  0
  3  4  1  0
  4  5  1  0
  5  6  1  0
  4  7  1  0
  7  8  1  0
  8  9  1  0
  7  2  1  0
  8  2  1  0
  1 10  1  0
  1 11  1  0
  1 12  1  0
  4 13  1  0
  5 14  1  0
  5 15  1  0
  6 16  1  0
  7 17  1  0
  8 18  1  0
  9 19  1  0
M  END
