
     RDKit          3D

 19 21  0  0  0  0  0  0  0  0999 V2000
    1.7244   -1.1102   -0.1547 C   0  0  0  0  0  0  0  0  0  0  0  0
    0.8587    0.0214    0.0557 C   0  0  0  0  0  0  0  0  0  0  0  0
    0.9644    1.2035   -0.8845 C   0  0  0  0  0  0  0  0  0  0  0  0
    0.1248    2.0570   -0.2901 C   0  0  0  0  0  0  0  0  0  0  0  0
   -0.3290    1.2382    0.8881 C   0  0  0  0  0  0  0  0  0  0  0  0
    0.9272    0.7170    1.2903 O   0  0  0  0  0  0  0  0  0  0  0  0
   -0.5791   -0.0781    0.2917 C   0  0  0  0  0  0  0  0  0  0  0  0
   -1.6139   -0.4911   -0.6060 C   0  0  0  0  0  0  0  0  0  0  0  0
   -1.3733   -1.1503    0.7869 C   0  0  0  0  0  0  0  0  0  0  0  0
    1.1996   -2.0420   -0.5165 H   0  0  0  0  0  0  0  0  0  0  0  0
    2.3654   -1.3947    0.7240 H   0  0  0  0  0  0  0  0  0  0  0  0
    2.4632   -0.8943   -0.9741 H   0  0  0  0  0  0  0  0  0  0  0  0
    1.5584    1.3125   -1.7836 H   0  0  0  0  0  0  0  0  0  0  0  0
   -0.1713    3.0627   -0.5521 H   0  0  0  0  0  0  0  0  0  0  0  0
   -0.9413    1.6888    1.6201 H   0  0  0  0  0  0  0  0  0  0  0  0
   -1.3163   -1.1280   -1.4885 H   0  0  0  0  0  0  0  0  0  0  0  0
   -2.5327    0.1195   -0.6999 H   0  0  0  0  0  0  0  0  0  0  0  0
   -1.1599   -2.2194    0.7395 H   0  0  0  0  0  0  0  0  0  0  0  0
   -2.1692   -0.9126    1.5537 H   0  0  0  0  0  0  0  0  0  0  0  0
  1  2  1  0
  2  3  1  0
  3  4  2  0
  4  5  1  0
  5  6  1  0
  5  7  1  0
  7  8  1  0
  8  9  1  0
  6  2  1  0
  9  7  1  0
  7  2  1  0
  1 10  1  0
  1 11  1  0
  1 12  1  0
  3 13  1  0
  4 14  1  0
  5 15  1  0
  8 16  1  0
  8 17  1  0
  9 18  1  0
  9 19  1  0
M  END
