
     RDKit          3D

 18 19  0  0  0  0  0  0  0  0999 V2000
   -2.1944    0.6706   -0.3180 C   0  0  0  0  0  0  0  0  0  0  0  0
   -0.8097    0.1607   -0.1799 C   0  0  0  0  0  0  0  0  0  0  0  0
   -0.3090   -0.2206    1.1910 C   0  0  0  0  0  0  0  0  0  0  0  0
    0.9605   -1.0000    0.8267 C   0  0  0  0  0  0  0  0  0  0  0  0
    1.5198   -0.1650   -0.2757 C   0  0  0  0  0  0  0  0  0  0  0  0
    2.3269    0.8657    0.1290 O   0  0  0  0  0  0  0  0  0  0  0  0
    0.2807    0.3262   -1.0149 C   0  0  0  0  0  0  0  0  0  0  0  0
   -0.5728   -0.9004   -1.2073 O   0  0  0  0  0  0  0  0  0  0  0  0
   -2.5270    0.6552   -1.3781 H   0  0  0  0  0  0  0  0  0  0  0  0
   -2.3523    1.7047    0.0398 H   0  0  0  0  0  0  0  0  0  0  0  0
   -2.9561    0.0478    0.2299 H   0  0  0  0  0  0  0  0  0  0  0  0
    0.0659    0.6970    1.7172 H   0  0  0  0  0  0  0  0  0  0  0  0
   -1.0090   -0.8099    1.7791 H   0  0  0  0  0  0  0  0  0  0  0  0
    1.6167   -1.1541    1.6787 H   0  0  0  0  0  0  0  0  0  0  0  0
    0.5895   -1.9605    0.3818 H   0  0  0  0  0  0  0  0  0  0  0  0
    2.0290   -0.8690   -0.9976 H   0  0  0  0  0  0  0  0  0  0  0  0
    2.9354    1.0779   -0.6506 H   0  0  0  0  0  0  0  0  0  0  0  0
    0.4060    0.8738   -1.9512 H   0  0  0  0  0  0  0  0  0  0  0  0
  1  2  1  0
  2  3  1  0
  3  4  1  0
  4  5  1  0
  5  6  1  0
  5  7  1  0
  7  8  1  0
  7  2  1  0
  8  2  1  0
  1  9  1  0
  1 10  1  0
  1 11  1  0
  3 12  1  0
  3 13  1  0
  4 14  1  0
  4 15  1  0
  5 16  1  0
  6 17  1  0
  7 18  1  0
M  END
