
     RDKit          3D

 18 19  0  0  0  0  0  0  0  0999 V2000
   -1.7953    0.6682    0.7253 C   0  0  0  0  0  0  0  0  0  0  0  0
   -0.5795    0.1307    0.0368 C   0  0  0  0  0  0  0  0  0  0  0  0
    0.3302    1.1288   -0.6507 C   0  0  0  0  0  0  0  0  0  0  0  0
    1.5844    0.6908   -0.8758 O   0  0  0  0  0  0  0  0  0  0  0  0
    2.1595   -0.1783   -0.0243 C   0  0  0  0  0  0  0  0  0  0  0  0
    1.4260   -1.0640    0.6529 O   0  0  0  0  0  0  0  0  0  0  0  0
    0.0839   -1.0293    0.5986 C   0  0  0  0  0  0  0  0  0  0  0  0
   -0.6464   -1.1969   -0.6820 C   0  0  0  0  0  0  0  0  0  0  0  0
   -1.8099    0.2926    1.7828 H   0  0  0  0  0  0  0  0  0  0  0  0
   -1.7545    1.7654    0.7149 H   0  0  0  0  0  0  0  0  0  0  0  0
   -2.6919    0.2429    0.2447 H   0  0  0  0  0  0  0  0  0  0  0  0
   -0.1451    1.2881   -1.6654 H   0  0  0  0  0  0  0  0  0  0  0  0
    0.2480    2.1114   -0.1453 H   0  0  0  0  0  0  0  0  0  0  0  0
    2.9394   -0.7446   -0.6199 H   0  0  0  0  0  0  0  0  0  0  0  0
    2.7818    0.4098    0.7150 H   0  0  0  0  0  0  0  0  0  0  0  0
   -0.4315   -1.5239    1.4749 H   0  0  0  0  0  0  0  0  0  0  0  0
   -0.0311   -1.3780   -1.5652 H   0  0  0  0  0  0  0  0  0  0  0  0
   -1.6681   -1.6138   -0.7173 H   0  0  0  0  0  0  0  0  0  0  0  0
  1  2  1  0
  2  3  1  0
  3  4  1  0
  4  5  1  0
  5  6  1  0
  6  7  1  0
  7  8  1  0
  7  2  1  0
  8  2  1  0
  1  9  1  0
  1 10  1  0
  1 11  1  0
  3 12  1  0
  3 13  1  0
  5 14  1  0
  5 15  1  0
  7 16  1  0
  8 17  1  0
  8 18  1  0
M  END
