
     RDKit          3D

 17 19  0  0  0  0  0  0  0  0999 V2000
   -0.9052   -1.2284   -0.6456 C   0  0  0  0  0  0  0  0  0  0  0  0
   -0.2622    0.0654   -0.4909 C   0  0  0  0  0  0  0  0  0  0  0  0
    0.9967    0.0475   -1.1426 O   0  0  0  0  0  0  0  0  0  0  0  0
    1.8871   -0.3429   -0.1324 C   0  0  0  0  0  0  0  0  0  0  0  0
    1.3249    0.3105    1.0914 C   0  0  0  0  0  0  0  0  0  0  0  0
    0.0628    0.5538    0.8849 C   0  0  0  0  0  0  0  0  0  0  0  0
   -1.3634    0.9362    0.9015 C   0  0  0  0  0  0  0  0  0  0  0  0
   -2.0227    1.7878    0.1495 O   0  0  0  0  0  0  0  0  0  0  0  0
   -0.9886    1.3305   -0.5627 C   0  0  0  0  0  0  0  0  0  0  0  0
   -2.0021   -1.2774   -0.6034 H   0  0  0  0  0  0  0  0  0  0  0  0
   -0.5412   -1.9166    0.1705 H   0  0  0  0  0  0  0  0  0  0  0  0
   -0.6268   -1.6636   -1.6438 H   0  0  0  0  0  0  0  0  0  0  0  0
    1.8941   -1.4312   -0.0740 H   0  0  0  0  0  0  0  0  0  0  0  0
    2.8973    0.0921   -0.2845 H   0  0  0  0  0  0  0  0  0  0  0  0
    1.8685    0.5546    2.0225 H   0  0  0  0  0  0  0  0  0  0  0  0
   -1.9677   -0.0143    0.9934 H   0  0  0  0  0  0  0  0  0  0  0  0
   -0.2515    2.1959   -0.6337 H   0  0  0  0  0  0  0  0  0  0  0  0
  1  2  1  0
  2  3  1  0
  3  4  1  0
  4  5  1  0
  5  6  2  0
  6  7  1  0
  7  8  1  0
  8  9  1  0
  6  2  1  0
  9  7  1  0
  9  2  1  0
  1 10  1  0
  1 11  1  0
  1 12  1  0
  4 13  1  0
  4 14  1  0
  5 15  1  0
  7 16  1  0
  9 17  1  0
M  END
