
     RDKit          3D

 21 22  0  0  0  0  0  0  0  0999 V2000
   -2.1144    0.4777   -0.2636 C   0  0  0  0  0  0  0  0  0  0  0  0
   -0.8483   -0.2810    0.1102 C   0  0  0  0  0  0  0  0  0  0  0  0
   -0.5580   -1.4896   -0.6464 C   0  0  0  0  0  0  0  0  0  0  0  0
    0.7196   -1.6458   -0.8849 C   0  0  0  0  0  0  0  0  0  0  0  0
    1.4710   -0.5248   -0.2983 C   0  0  0  0  0  0  0  0  0  0  0  0
    2.3390   -0.9666    0.7187 O   0  0  0  0  0  0  0  0  0  0  0  0
    0.4357    0.4108    0.2092 C   0  0  0  0  0  0  0  0  0  0  0  0
    0.6022    1.8534   -0.1927 C   0  0  0  0  0  0  0  0  0  0  0  0
   -0.2825    0.0263    1.4376 C   0  0  0  0  0  0  0  0  0  0  0  0
   -2.9841   -0.1484   -0.0683 H   0  0  0  0  0  0  0  0  0  0  0  0
   -2.0012    0.7993   -1.3172 H   0  0  0  0  0  0  0  0  0  0  0  0
   -2.1566    1.4159    0.3391 H   0  0  0  0  0  0  0  0  0  0  0  0
   -1.3060   -2.2231   -1.0008 H   0  0  0  0  0  0  0  0  0  0  0  0
    1.2085   -2.4720   -1.4355 H   0  0  0  0  0  0  0  0  0  0  0  0
    2.1475   -0.0535   -1.0494 H   0  0  0  0  0  0  0  0  0  0  0  0
    1.9442   -1.7057    1.2420 H   0  0  0  0  0  0  0  0  0  0  0  0
    0.9811    1.8618   -1.2554 H   0  0  0  0  0  0  0  0  0  0  0  0
   -0.3683    2.3493   -0.1745 H   0  0  0  0  0  0  0  0  0  0  0  0
    1.3874    2.3061    0.4118 H   0  0  0  0  0  0  0  0  0  0  0  0
    0.1945   -0.7664    2.0603 H   0  0  0  0  0  0  0  0  0  0  0  0
   -0.8114    0.7766    2.0582 H   0  0  0  0  0  0  0  0  0  0  0  0
  1  2  1  0
  2  3  1  0
  3  4  2  0
  4  5  1  0
  5  6  1  0
  5  7  1  0
  7  8  1  0
  7  9  1  0
  7  2  1  0
  9  2  1  0
  1 10  1  0
  1 11  1  0
  1 12  1  0
  3 13  1  0
  4 14  1  0
  5 15  1  0
  6 16  1  0
  8 17  1  0
  8 18  1  0
  8 19  1  0
  9 20  1  0
  9 21  1  0
M  END
