
     RDKit          3D

 19 21  0  0  0  0  0  0  0  0999 V2000
   -1.4903   -1.2507   -0.5980 C   0  0  0  0  0  0  0  0  0  0  0  0
   -0.7114    0.0786   -0.6028 C   0  0  0  0  0  0  0  0  0  0  0  0
   -1.7365    1.2119   -0.4257 C   0  0  0  0  0  0  0  0  0  0  0  0
   -1.8678    0.5458    0.8243 O   0  0  0  0  0  0  0  0  0  0  0  0
   -0.4761    0.6877    0.8396 C   0  0  0  0  0  0  0  0  0  0  0  0
    0.5203   -0.0262    0.1322 C   0  0  0  0  0  0  0  0  0  0  0  0
    1.8203    0.5627   -0.2497 C   0  0  0  0  0  0  0  0  0  0  0  0
    2.3078   -0.8838   -0.1557 C   0  0  0  0  0  0  0  0  0  0  0  0
    1.0891   -1.2260    0.4649 O   0  0  0  0  0  0  0  0  0  0  0  0
   -2.2255   -1.2992    0.1992 H   0  0  0  0  0  0  0  0  0  0  0  0
   -2.0168   -1.2706   -1.5773 H   0  0  0  0  0  0  0  0  0  0  0  0
   -0.8302   -2.1118   -0.5341 H   0  0  0  0  0  0  0  0  0  0  0  0
   -2.5893    1.0941   -1.0937 H   0  0  0  0  0  0  0  0  0  0  0  0
   -1.3352    2.2158   -0.3944 H   0  0  0  0  0  0  0  0  0  0  0  0
   -0.2931    1.8089    0.8453 H   0  0  0  0  0  0  0  0  0  0  0  0
    1.9372    0.9820   -1.2501 H   0  0  0  0  0  0  0  0  0  0  0  0
    2.2783    1.2020    0.5414 H   0  0  0  0  0  0  0  0  0  0  0  0
    3.1881   -0.9899    0.5118 H   0  0  0  0  0  0  0  0  0  0  0  0
    2.4310   -1.3313   -1.1732 H   0  0  0  0  0  0  0  0  0  0  0  0
  1  2  1  0
  2  3  1  0
  3  4  1  0
  4  5  1  0
  5  6  1  0
  6  7  1  0
  7  8  1  0
  8  9  1  0
  5  2  1  0
  9  6  1  0
  6  2  1  0
  1 10  1  0
  1 11  1  0
  1 12  1  0
  3 13  1  0
  3 14  1  0
  5 15  1  0
  7 16  1  0
  7 17  1  0
  8 18  1  0
  8 19  1  0
M  END
