
     RDKit          3D

 21 23  0  0  0  0  0  0  0  0999 V2000
   -1.5191   -1.5120    0.4811 C   0  0  0  0  0  0  0  0  0  0  0  0
   -0.5181   -0.4863    0.1893 C   0  0  0  0  0  0  0  0  0  0  0  0
    0.4135   -0.5348   -0.9754 C   0  0  0  0  0  0  0  0  0  0  0  0
    1.7660   -0.5000   -0.3102 C   0  0  0  0  0  0  0  0  0  0  0  0
    1.5504    0.4815    0.8368 C   0  0  0  0  0  0  0  0  0  0  0  0
    0.0595    0.4620    1.1207 C   0  0  0  0  0  0  0  0  0  0  0  0
   -0.7716    0.9297   -0.0447 C   0  0  0  0  0  0  0  0  0  0  0  0
   -1.9728    1.5503    0.1370 O   0  0  0  0  0  0  0  0  0  0  0  0
   -0.1151    0.8415   -1.3894 C   0  0  0  0  0  0  0  0  0  0  0  0
   -1.1446   -2.5055    0.1093 H   0  0  0  0  0  0  0  0  0  0  0  0
   -1.7239   -1.6516    1.5654 H   0  0  0  0  0  0  0  0  0  0  0  0
   -2.4536   -1.3275   -0.1048 H   0  0  0  0  0  0  0  0  0  0  0  0
    0.2536   -1.2990   -1.7344 H   0  0  0  0  0  0  0  0  0  0  0  0
    1.9040   -1.5003    0.1754 H   0  0  0  0  0  0  0  0  0  0  0  0
    2.5838   -0.2125   -0.9669 H   0  0  0  0  0  0  0  0  0  0  0  0
    1.7773    1.5270    0.4939 H   0  0  0  0  0  0  0  0  0  0  0  0
    2.1558    0.2512    1.7152 H   0  0  0  0  0  0  0  0  0  0  0  0
   -0.3203    0.7143    2.1096 H   0  0  0  0  0  0  0  0  0  0  0  0
   -1.7991    2.5030    0.3793 H   0  0  0  0  0  0  0  0  0  0  0  0
   -0.8604    0.7606   -2.2083 H   0  0  0  0  0  0  0  0  0  0  0  0
    0.7346    1.5083   -1.5791 H   0  0  0  0  0  0  0  0  0  0  0  0
  1  2  1  0
  2  3  1  0
  3  4  1  0
  4  5  1  0
  5  6  1  0
  6  7  1  0
  7  8  1  0
  7  9  1  0
  6  2  1  0
  7  2  1  0
  9  3  1  0
  1 10  1  0
  1 11  1  0
  1 12  1  0
  3 13  1  0
  4 14  1  0
  4 15  1  0
  5 16  1  0
  5 17  1  0
  6 18  1  0
  8 19  1  0
  9 20  1  0
  9 21  1  0
M  END
