
     RDKit          3D

 19 21  0  0  0  0  0  0  0  0999 V2000
    2.2182    0.5985   -0.4748 C   0  0  0  0  0  0  0  0  0  0  0  0
    0.8064    0.1061   -0.4141 C   0  0  0  0  0  0  0  0  0  0  0  0
    0.5134   -1.2843   -0.8519 C   0  0  0  0  0  0  0  0  0  0  0  0
    1.3273   -1.9942   -1.4000 O   0  0  0  0  0  0  0  0  0  0  0  0
   -0.8994   -1.5385   -0.4739 C   0  0  0  0  0  0  0  0  0  0  0  0
   -1.2411   -0.4635    0.5604 C   0  0  0  0  0  0  0  0  0  0  0  0
   -1.7018    0.7780   -0.1825 C   0  0  0  0  0  0  0  0  0  0  0  0
   -0.2570    1.1306   -0.3908 C   0  0  0  0  0  0  0  0  0  0  0  0
    0.0385    0.2248    0.8253 C   0  0  0  0  0  0  0  0  0  0  0  0
    2.2665    1.5719   -1.0223 H   0  0  0  0  0  0  0  0  0  0  0  0
    2.9164   -0.1489   -0.8859 H   0  0  0  0  0  0  0  0  0  0  0  0
    2.5439    0.8242    0.5622 H   0  0  0  0  0  0  0  0  0  0  0  0
   -1.0868   -2.5440   -0.1002 H   0  0  0  0  0  0  0  0  0  0  0  0
   -1.5038   -1.3781   -1.4130 H   0  0  0  0  0  0  0  0  0  0  0  0
   -1.8594   -0.7909    1.3885 H   0  0  0  0  0  0  0  0  0  0  0  0
   -2.2290    0.5614   -1.1216 H   0  0  0  0  0  0  0  0  0  0  0  0
   -2.2450    1.5163    0.4630 H   0  0  0  0  0  0  0  0  0  0  0  0
    0.0438    2.1729   -0.3330 H   0  0  0  0  0  0  0  0  0  0  0  0
    0.3488    0.6578    1.7509 H   0  0  0  0  0  0  0  0  0  0  0  0
  1  2  1  0
  2  3  1  0
  3  4  2  0
  3  5  1  0
  5  6  1  0
  6  7  1  0
  7  8  1  0
  8  9  1  0
  8  2  1  0
  9  2  1  0
  9  6  1  0
  1 10  1  0
  1 11  1  0
  1 12  1  0
  5 13  1  0
  5 14  1  0
  6 15  1  0
  7 16  1  0
  7 17  1  0
  8 18  1  0
  9 19  1  0
M  END
