
     RDKit          3D

 21 22  0  0  0  0  0  0  0  0999 V2000
    2.4538    0.3963    0.5879 C   0  0  0  0  0  0  0  0  0  0  0  0
    1.0689    0.1066    0.1731 C   0  0  0  0  0  0  0  0  0  0  0  0
    0.2733    1.2581   -0.3800 C   0  0  0  0  0  0  0  0  0  0  0  0
   -1.0392    1.4696   -0.3794 C   0  0  0  0  0  0  0  0  0  0  0  0
   -2.0585    0.5732    0.2351 C   0  0  0  0  0  0  0  0  0  0  0  0
   -1.6852   -0.8411   -0.1926 C   0  0  0  0  0  0  0  0  0  0  0  0
   -0.3825   -1.2873    0.3606 C   0  0  0  0  0  0  0  0  0  0  0  0
    0.7803   -1.1148   -0.6177 C   0  0  0  0  0  0  0  0  0  0  0  0
    0.2616   -0.4209    1.2031 O   0  0  0  0  0  0  0  0  0  0  0  0
    2.7987    1.3252    0.0445 H   0  0  0  0  0  0  0  0  0  0  0  0
    3.1526   -0.4362    0.4432 H   0  0  0  0  0  0  0  0  0  0  0  0
    2.4442    0.7098    1.6689 H   0  0  0  0  0  0  0  0  0  0  0  0
    0.9182    1.9987   -0.8371 H   0  0  0  0  0  0  0  0  0  0  0  0
   -1.3511    2.3718   -0.8724 H   0  0  0  0  0  0  0  0  0  0  0  0
   -3.0777    0.8341   -0.0150 H   0  0  0  0  0  0  0  0  0  0  0  0
   -1.8527    0.6028    1.3412 H   0  0  0  0  0  0  0  0  0  0  0  0
   -2.5313   -1.4934    0.1236 H   0  0  0  0  0  0  0  0  0  0  0  0
   -1.6942   -0.8686   -1.3193 H   0  0  0  0  0  0  0  0  0  0  0  0
   -0.4097   -2.3508    0.6748 H   0  0  0  0  0  0  0  0  0  0  0  0
    1.5335   -1.9176   -0.5831 H   0  0  0  0  0  0  0  0  0  0  0  0
    0.3969   -0.9156   -1.6593 H   0  0  0  0  0  0  0  0  0  0  0  0
  1  2  1  0
  2  3  1  0
  3  4  2  0
  4  5  1  0
  5  6  1  0
  6  7  1  0
  7  8  1  0
  7  9  1  0
  8  2  1  0
  9  2  1  0
  1 10  1  0
  1 11  1  0
  1 12  1  0
  3 13  1  0
  4 14  1  0
  5 15  1  0
  5 16  1  0
  6 17  1  0
  6 18  1  0
  7 19  1  0
  8 20  1  0
  8 21  1  0
M  END
