
     RDKit          2D

 21 23  0  0  0  0  0  0  0  0999 V2000
   -1.2669    2.2315    0.0000 C   0  0  0  0  0  0  0  0  0  0  0  0
   -1.0323    0.7500    0.0000 C   0  0  0  0  0  0  0  0  0  0  0  0
   -2.5323    0.7500    0.0000 C   0  0  0  0  0  0  0  0  0  0  0  0
   -2.5323   -0.7500    0.0000 C   0  0  0  0  0  0  0  0  0  0  0  0
   -0.7393    0.0833    0.0000 C   0  0  0  0  0  0  0  0  0  0  0  0
    0.3943    1.2135    0.0000 C   0  0  0  0  0  0  0  0  0  0  0  0
    1.2760    0.0000    0.0000 C   0  0  0  0  0  0  0  0  0  0  0  0
    0.3943   -1.2135    0.0000 O   0  0  0  0  0  0  0  0  0  0  0  0
   -1.0323   -0.7500    0.0000 C   0  0  0  0  0  0  0  0  0  0  0  0
   -1.5016    3.7131    0.0000 H   0  0  0  0  0  0  0  0  0  0  0  0
    0.1749    2.6450    0.0000 H   0  0  0  0  0  0  0  0  0  0  0  0
   -2.0636    2.2037    0.0000 H   0  0  0  0  0  0  0  0  0  0  0  0
   -4.0211    0.5672    0.0000 H   0  0  0  0  0  0  0  0  0  0  0  0
   -2.7252    1.5235    0.0000 H   0  0  0  0  0  0  0  0  0  0  0  0
   -3.5929   -1.8107    0.0000 H   0  0  0  0  0  0  0  0  0  0  0  0
   -3.4148    1.1993    0.0000 H   0  0  0  0  0  0  0  0  0  0  0  0
   -1.9859    2.1580    0.0000 H   0  0  0  0  0  0  0  0  0  0  0  0
    1.0283    2.5730    0.0000 H   0  0  0  0  0  0  0  0  0  0  0  0
    2.3907    1.0037    0.0000 H   0  0  0  0  0  0  0  0  0  0  0  0
    2.3907   -1.0037    0.0000 H   0  0  0  0  0  0  0  0  0  0  0  0
   -1.2669   -2.2315    0.0000 H   0  0  0  0  0  0  0  0  0  0  0  0
  1  2  1  0
  2  3  1  0
  3  4  1  0
  4  5  1  0
  5  6  1  0
  6  7  1  0
  7  8  1  0
  8  9  1  0
  6  2  1  0
  9  2  1  0
  9  4  1  0
  1 10  1  0
  1 11  1  0
  1 12  1  0
  3 13  1  0
  3 14  1  0
  4 15  1  0
  5 16  1  0
  5 17  1  0
  6 18  1  0
  7 19  1  0
  7 20  1  0
  9 21  1  0
M  END
