
     RDKit          2D

 19 22  0  0  0  0  0  0  0  0999 V2000
    1.2543    2.9489    0.0000 C   0  0  0  0  0  0  0  0  0  0  0  0
   -0.0448    2.1989    0.0000 C   0  0  0  0  0  0  0  0  0  0  0  0
   -2.9426    2.9753    0.0000 C   0  0  0  0  0  0  0  0  0  0  0  0
   -3.3308    1.5265    0.0000 C   0  0  0  0  0  0  0  0  0  0  0  0
   -1.8819    1.1382    0.0000 C   0  0  0  0  0  0  0  0  0  0  0  0
   -1.4937    2.5871    0.0000 C   0  0  0  0  0  0  0  0  0  0  0  0
   -0.4330    0.7500    0.0000 C   0  0  0  0  0  0  0  0  0  0  0  0
    0.8660    0.0000    0.0000 C   0  0  0  0  0  0  0  0  0  0  0  0
   -0.4330   -0.7500    0.0000 O   0  0  0  0  0  0  0  0  0  0  0  0
    2.5533    3.6989    0.0000 H   0  0  0  0  0  0  0  0  0  0  0  0
    0.5043    4.2479    0.0000 H   0  0  0  0  0  0  0  0  0  0  0  0
    2.0667    1.8708    0.0000 H   0  0  0  0  0  0  0  0  0  0  0  0
   -3.6926    4.2744    0.0000 H   0  0  0  0  0  0  0  0  0  0  0  0
   -3.7190    0.0776    0.0000 H   0  0  0  0  0  0  0  0  0  0  0  0
   -4.7797    1.9147    0.0000 H   0  0  0  0  0  0  0  0  0  0  0  0
   -2.2701   -0.3107    0.0000 H   0  0  0  0  0  0  0  0  0  0  0  0
   -1.1054    4.0360    0.0000 H   0  0  0  0  0  0  0  0  0  0  0  0
    1.8534    0.9207    0.0000 H   0  0  0  0  0  0  0  0  0  0  0  0
    1.8302   -1.1491    0.0000 H   0  0  0  0  0  0  0  0  0  0  0  0
  1  2  1  0
  2  3  1  0
  3  4  1  0
  4  5  1  0
  5  6  1  0
  5  7  1  0
  7  8  1  0
  8  9  1  0
  6  2  1  0
  9  7  1  0
  7  2  1  0
  6  3  1  0
  1 10  1  0
  1 11  1  0
  1 12  1  0
  3 13  1  0
  4 14  1  0
  4 15  1  0
  5 16  1  0
  6 17  1  0
  8 18  1  0
  8 19  1  0
M  END
