
     RDKit          3D

 19 21  0  0  0  0  0  0  0  0999 V2000
    2.2285   -0.4499    0.4216 C   0  0  0  0  0  0  0  0  0  0  0  0
    0.8102   -0.1029    0.0217 C   0  0  0  0  0  0  0  0  0  0  0  0
    0.5343    1.2779   -0.3907 C   0  0  0  0  0  0  0  0  0  0  0  0
   -0.7311    1.5926   -0.6832 C   0  0  0  0  0  0  0  0  0  0  0  0
   -1.6629    0.4106   -0.7010 C   0  0  0  0  0  0  0  0  0  0  0  0
   -1.6070   -0.1576    0.7184 C   0  0  0  0  0  0  0  0  0  0  0  0
   -0.2523   -0.8112    0.7155 C   0  0  0  0  0  0  0  0  0  0  0  0
   -0.0096   -1.0851   -0.7212 C   0  0  0  0  0  0  0  0  0  0  0  0
   -1.0224   -0.5608   -1.4721 O   0  0  0  0  0  0  0  0  0  0  0  0
    2.4222   -1.5311    0.3900 H   0  0  0  0  0  0  0  0  0  0  0  0
    2.3246   -0.1480    1.5048 H   0  0  0  0  0  0  0  0  0  0  0  0
    2.9864    0.1342   -0.1210 H   0  0  0  0  0  0  0  0  0  0  0  0
    1.3542    1.9820   -0.4426 H   0  0  0  0  0  0  0  0  0  0  0  0
   -1.0842    2.5828   -0.8908 H   0  0  0  0  0  0  0  0  0  0  0  0
   -2.6648    0.6565   -1.0271 H   0  0  0  0  0  0  0  0  0  0  0  0
   -2.4222   -0.8868    0.8289 H   0  0  0  0  0  0  0  0  0  0  0  0
   -1.6618    0.6614    1.4599 H   0  0  0  0  0  0  0  0  0  0  0  0
    0.0123   -1.5578    1.4766 H   0  0  0  0  0  0  0  0  0  0  0  0
    0.4455   -2.0068   -1.0876 H   0  0  0  0  0  0  0  0  0  0  0  0
  1  2  1  0
  2  3  1  0
  3  4  2  0
  4  5  1  0
  5  6  1  0
  6  7  1  0
  7  8  1  0
  8  9  1  0
  7  2  1  0
  8  2  1  0
  9  5  1  0
  1 10  1  0
  1 11  1  0
  1 12  1  0
  3 13  1  0
  4 14  1  0
  5 15  1  0
  6 16  1  0
  6 17  1  0
  7 18  1  0
  8 19  1  0
M  END
