
     RDKit          3D

 17 18  0  0  0  0  0  0  0  0999 V2000
   -1.9767   -0.2904   -0.1770 C   0  0  0  0  0  0  0  0  0  0  0  0
   -0.5843    0.0986   -0.0018 C   0  0  0  0  0  0  0  0  0  0  0  0
    0.4420   -0.8399   -0.6162 C   0  0  0  0  0  0  0  0  0  0  0  0
    1.6364   -0.5763    0.2925 C   0  0  0  0  0  0  0  0  0  0  0  0
    1.1592    0.6358    1.0540 C   0  0  0  0  0  0  0  0  0  0  0  0
    0.9619    1.7599    0.1846 O   0  0  0  0  0  0  0  0  0  0  0  0
   -0.2244    1.4620   -0.4728 C   0  0  0  0  0  0  0  0  0  0  0  0
   -0.9245    2.1002   -1.2895 O   0  0  0  0  0  0  0  0  0  0  0  0
   -0.1623    0.2057    1.3472 O   0  0  0  0  0  0  0  0  0  0  0  0
   -2.4262   -0.8768    0.6682 H   0  0  0  0  0  0  0  0  0  0  0  0
   -2.6755    0.5640   -0.3422 H   0  0  0  0  0  0  0  0  0  0  0  0
   -2.0658   -0.9776   -1.0641 H   0  0  0  0  0  0  0  0  0  0  0  0
    0.1190   -1.8786   -0.6126 H   0  0  0  0  0  0  0  0  0  0  0  0
    0.7379   -0.4575   -1.6219 H   0  0  0  0  0  0  0  0  0  0  0  0
    2.5612   -0.3930   -0.2783 H   0  0  0  0  0  0  0  0  0  0  0  0
    1.6929   -1.4091    0.9911 H   0  0  0  0  0  0  0  0  0  0  0  0
    1.7290    0.8730    1.9386 H   0  0  0  0  0  0  0  0  0  0  0  0
  1  2  1  0
  2  3  1  0
  3  4  1  0
  4  5  1  0
  5  6  1  0
  6  7  1  0
  7  8  2  0
  5  9  1  0
  7  2  1  0
  9  2  1  0
  1 10  1  0
  1 11  1  0
  1 12  1  0
  3 13  1  0
  3 14  1  0
  4 15  1  0
  4 16  1  0
  5 17  1  0
M  END
