
     RDKit          3D

 21 22  0  0  0  0  0  0  0  0999 V2000
    2.0707   -0.1581   -0.5452 C   0  0  0  0  0  0  0  0  0  0  0  0
    0.6931   -0.0047   -0.0911 C   0  0  0  0  0  0  0  0  0  0  0  0
    0.1533   -1.0551    0.8239 C   0  0  0  0  0  0  0  0  0  0  0  0
   -1.3672   -1.0619    0.6028 C   0  0  0  0  0  0  0  0  0  0  0  0
   -1.5622    0.1524   -0.2812 C   0  0  0  0  0  0  0  0  0  0  0  0
   -0.3519   -0.0398   -1.2211 C   0  0  0  0  0  0  0  0  0  0  0  0
   -1.1370    1.3944    0.3947 C   0  0  0  0  0  0  0  0  0  0  0  0
   -1.8499    2.2830    0.7858 O   0  0  0  0  0  0  0  0  0  0  0  0
    0.3448    1.3477    0.5055 C   0  0  0  0  0  0  0  0  0  0  0  0
    2.8279    0.3837    0.0220 H   0  0  0  0  0  0  0  0  0  0  0  0
    2.1503    0.2213   -1.6066 H   0  0  0  0  0  0  0  0  0  0  0  0
    2.3590   -1.2286   -0.5529 H   0  0  0  0  0  0  0  0  0  0  0  0
    0.5709   -2.0647    0.5803 H   0  0  0  0  0  0  0  0  0  0  0  0
    0.3116   -0.8161    1.8957 H   0  0  0  0  0  0  0  0  0  0  0  0
   -1.9126   -0.9864    1.5621 H   0  0  0  0  0  0  0  0  0  0  0  0
   -1.6075   -1.9484    0.0093 H   0  0  0  0  0  0  0  0  0  0  0  0
   -2.4980    0.1917   -0.8062 H   0  0  0  0  0  0  0  0  0  0  0  0
   -0.3924   -1.0081   -1.7138 H   0  0  0  0  0  0  0  0  0  0  0  0
   -0.2806    0.8278   -1.8735 H   0  0  0  0  0  0  0  0  0  0  0  0
    0.6405    1.4093    1.5798 H   0  0  0  0  0  0  0  0  0  0  0  0
    0.8372    2.1605   -0.0702 H   0  0  0  0  0  0  0  0  0  0  0  0
  1  2  1  0
  2  3  1  0
  3  4  1  0
  4  5  1  0
  5  6  1  0
  5  7  1  0
  7  8  2  0
  7  9  1  0
  6  2  1  0
  9  2  1  0
  1 10  1  0
  1 11  1  0
  1 12  1  0
  3 13  1  0
  3 14  1  0
  4 15  1  0
  4 16  1  0
  5 17  1  0
  6 18  1  0
  6 19  1  0
  9 20  1  0
  9 21  1  0
M  END
