
     RDKit          3D

 15 16  0  0  0  0  0  0  0  0999 V2000
    1.6186   -0.6376   -0.2592 C   0  0  0  0  0  0  0  0  0  0  0  0
    0.5283    0.3575   -0.3655 C   0  0  0  0  0  0  0  0  0  0  0  0
    0.0138    1.0549    0.8908 C   0  0  0  0  0  0  0  0  0  0  0  0
   -1.3686    1.1224    0.7418 O   0  0  0  0  0  0  0  0  0  0  0  0
   -1.6822   -0.0783    0.1278 C   0  0  0  0  0  0  0  0  0  0  0  0
   -0.7366   -0.2001   -1.0124 C   0  0  0  0  0  0  0  0  0  0  0  0
   -0.0023    0.8148   -1.5225 O   0  0  0  0  0  0  0  0  0  0  0  0
    2.5605   -0.3743   -0.7568 H   0  0  0  0  0  0  0  0  0  0  0  0
    1.8714   -0.7497    0.8350 H   0  0  0  0  0  0  0  0  0  0  0  0
    1.3122   -1.6828   -0.5627 H   0  0  0  0  0  0  0  0  0  0  0  0
    0.3346    0.5113    1.7877 H   0  0  0  0  0  0  0  0  0  0  0  0
    0.3710    2.1235    0.8798 H   0  0  0  0  0  0  0  0  0  0  0  0
   -2.7337   -0.2175   -0.1016 H   0  0  0  0  0  0  0  0  0  0  0  0
   -1.4077   -0.8839    0.8715 H   0  0  0  0  0  0  0  0  0  0  0  0
   -0.6794   -1.1603   -1.5537 H   0  0  0  0  0  0  0  0  0  0  0  0
  1  2  1  0
  2  3  1  0
  3  4  1  0
  4  5  1  0
  5  6  1  0
  6  7  1  0
  6  2  1  0
  7  2  1  0
  1  8  1  0
  1  9  1  0
  1 10  1  0
  3 11  1  0
  3 12  1  0
  5 13  1  0
  5 14  1  0
  6 15  1  0
M  END
