
     RDKit          3D

 25 26  0  0  0  0  0  0  0  0999 V2000
   -1.8290   -1.4431   -0.4436 C   0  0  0  0  0  0  0  0  0  0  0  0
   -0.6974   -0.5668   -0.0454 C   0  0  0  0  0  0  0  0  0  0  0  0
    0.4612   -1.2804    0.5761 C   0  0  0  0  0  0  0  0  0  0  0  0
    1.7588   -0.5952    0.4862 C   0  0  0  0  0  0  0  0  0  0  0  0
    1.7882    0.7799   -0.0415 C   0  0  0  0  0  0  0  0  0  0  0  0
    0.5331    1.2811   -0.6634 C   0  0  0  0  0  0  0  0  0  0  0  0
   -0.4526    1.7729    0.3996 C   0  0  0  0  0  0  0  0  0  0  0  0
   -1.1707    0.5311    0.8511 C   0  0  0  0  0  0  0  0  0  0  0  0
   -0.1711    0.1112   -1.3129 C   0  0  0  0  0  0  0  0  0  0  0  0
   -2.1426   -2.1592    0.3517 H   0  0  0  0  0  0  0  0  0  0  0  0
   -1.6209   -1.9759   -1.4061 H   0  0  0  0  0  0  0  0  0  0  0  0
   -2.7115   -0.8009   -0.6485 H   0  0  0  0  0  0  0  0  0  0  0  0
    0.4856   -2.3125    0.1155 H   0  0  0  0  0  0  0  0  0  0  0  0
    0.1714   -1.4830    1.6493 H   0  0  0  0  0  0  0  0  0  0  0  0
    2.2324   -0.5798    1.5135 H   0  0  0  0  0  0  0  0  0  0  0  0
    2.4612   -1.2500   -0.1104 H   0  0  0  0  0  0  0  0  0  0  0  0
    2.0790    1.5351    0.7472 H   0  0  0  0  0  0  0  0  0  0  0  0
    2.6052    0.8865   -0.8153 H   0  0  0  0  0  0  0  0  0  0  0  0
    0.7324    2.0556   -1.4185 H   0  0  0  0  0  0  0  0  0  0  0  0
    0.1577    2.1897    1.2122 H   0  0  0  0  0  0  0  0  0  0  0  0
   -1.1683    2.4950    0.0057 H   0  0  0  0  0  0  0  0  0  0  0  0
   -2.2542    0.6427    0.8942 H   0  0  0  0  0  0  0  0  0  0  0  0
   -0.8332    0.2833    1.8944 H   0  0  0  0  0  0  0  0  0  0  0  0
   -0.9883    0.4151   -1.9786 H   0  0  0  0  0  0  0  0  0  0  0  0
    0.5738   -0.5325   -1.8128 H   0  0  0  0  0  0  0  0  0  0  0  0
  1  2  1  0
  2  3  1  0
  3  4  1  0
  4  5  1  0
  5  6  1  0
  6  7  1  0
  7  8  1  0
  6  9  1  0
  8  2  1  0
  9  2  1  0
  1 10  1  0
  1 11  1  0
  1 12  1  0
  3 13  1  0
  3 14  1  0
  4 15  1  0
  4 16  1  0
  5 17  1  0
  5 18  1  0
  6 19  1  0
  7 20  1  0
  7 21  1  0
  8 22  1  0
  8 23  1  0
  9 24  1  0
  9 25  1  0
M  END
