
     RDKit          3D

 21 23  0  0  0  0  0  0  0  0999 V2000
   -1.3589    1.7044    0.3348 C   0  0  0  0  0  0  0  0  0  0  0  0
   -0.6373    0.4662    0.1295 C   0  0  0  0  0  0  0  0  0  0  0  0
   -0.7048   -0.1941   -1.2522 C   0  0  0  0  0  0  0  0  0  0  0  0
   -0.3340   -1.4341   -0.4637 C   0  0  0  0  0  0  0  0  0  0  0  0
   -1.2614   -0.8372    0.6108 C   0  0  0  0  0  0  0  0  0  0  0  0
    1.0091   -1.1708    0.1315 C   0  0  0  0  0  0  0  0  0  0  0  0
    1.8802   -0.0661   -0.3015 C   0  0  0  0  0  0  0  0  0  0  0  0
    3.1503   -0.0578    0.3255 O   0  0  0  0  0  0  0  0  0  0  0  0
    0.7739    0.3094    0.6019 C   0  0  0  0  0  0  0  0  0  0  0  0
   -0.6446    2.5609    0.3197 H   0  0  0  0  0  0  0  0  0  0  0  0
   -1.9993    1.7295    1.2502 H   0  0  0  0  0  0  0  0  0  0  0  0
   -2.0458    1.8967   -0.5429 H   0  0  0  0  0  0  0  0  0  0  0  0
   -1.7680   -0.2300   -1.5665 H   0  0  0  0  0  0  0  0  0  0  0  0
    0.0107    0.1620   -1.9818 H   0  0  0  0  0  0  0  0  0  0  0  0
   -0.5906   -2.3890   -0.8483 H   0  0  0  0  0  0  0  0  0  0  0  0
   -2.3345   -0.9078    0.3480 H   0  0  0  0  0  0  0  0  0  0  0  0
   -1.0145   -1.1194    1.6325 H   0  0  0  0  0  0  0  0  0  0  0  0
    1.3364   -1.8800    0.8886 H   0  0  0  0  0  0  0  0  0  0  0  0
    1.9452    0.2485   -1.3487 H   0  0  0  0  0  0  0  0  0  0  0  0
    3.6440    0.7624    0.0657 H   0  0  0  0  0  0  0  0  0  0  0  0
    0.9440    0.4463    1.6669 H   0  0  0  0  0  0  0  0  0  0  0  0
  1  2  1  0
  2  3  1  0
  3  4  1  0
  4  5  1  0
  4  6  1  0
  6  7  1  0
  7  8  1  0
  7  9  1  0
  5  2  1  0
  9  6  1  0
  9  2  1  0
  1 10  1  0
  1 11  1  0
  1 12  1  0
  3 13  1  0
  3 14  1  0
  4 15  1  0
  5 16  1  0
  5 17  1  0
  6 18  1  0
  7 19  1  0
  8 20  1  0
  9 21  1  0
M  END
