
     RDKit          3D

 15 16  0  0  0  0  0  0  0  0999 V2000
    1.6392   -0.0661   -0.8005 C   0  0  0  0  0  0  0  0  0  0  0  0
    0.4682   -0.6136   -0.0289 C   0  0  0  0  0  0  0  0  0  0  0  0
   -0.4757   -1.3842   -0.6554 O   0  0  0  0  0  0  0  0  0  0  0  0
   -0.8048   -0.1437   -0.1435 C   0  0  0  0  0  0  0  0  0  0  0  0
   -1.4347    0.8358   -1.0268 C   0  0  0  0  0  0  0  0  0  0  0  0
   -1.6485    0.5173   -2.1942 O   0  0  0  0  0  0  0  0  0  0  0  0
   -0.9098    0.0014    1.3693 C   0  0  0  0  0  0  0  0  0  0  0  0
    0.4499   -0.5926    1.4310 C   0  0  0  0  0  0  0  0  0  0  0  0
    1.2065   -0.9155    2.3143 O   0  0  0  0  0  0  0  0  0  0  0  0
    1.3545    0.7257   -1.5176 H   0  0  0  0  0  0  0  0  0  0  0  0
    2.3912    0.2954   -0.0952 H   0  0  0  0  0  0  0  0  0  0  0  0
    2.0871   -0.9278   -1.3529 H   0  0  0  0  0  0  0  0  0  0  0  0
   -1.7373    1.8313   -0.7518 H   0  0  0  0  0  0  0  0  0  0  0  0
   -0.8678    1.0546    1.6904 H   0  0  0  0  0  0  0  0  0  0  0  0
   -1.7180   -0.6179    1.7616 H   0  0  0  0  0  0  0  0  0  0  0  0
  1  2  1  0
  2  3  1  0
  3  4  1  0
  4  5  1  0
  5  6  2  0
  4  7  1  0
  7  8  1  0
  8  9  2  0
  4  2  1  0
  8  2  1  0
  1 10  1  0
  1 11  1  0
  1 12  1  0
  5 13  1  0
  7 14  1  0
  7 15  1  0
M  END
