
     RDKit          3D

 21 22  0  0  0  0  0  0  0  0999 V2000
    0.8516    1.7745   -0.6715 C   0  0  0  0  0  0  0  0  0  0  0  0
   -0.0967    0.8090   -0.0362 C   0  0  0  0  0  0  0  0  0  0  0  0
    0.3621    0.1933    1.2686 C   0  0  0  0  0  0  0  0  0  0  0  0
    1.3161   -0.9633    1.0478 C   0  0  0  0  0  0  0  0  0  0  0  0
    1.2685   -1.3376   -0.3101 O   0  0  0  0  0  0  0  0  0  0  0  0
   -0.1021   -1.5748   -0.5691 C   0  0  0  0  0  0  0  0  0  0  0  0
   -0.6739   -0.2366   -0.9567 C   0  0  0  0  0  0  0  0  0  0  0  0
   -1.9823    0.1307   -0.3308 C   0  0  0  0  0  0  0  0  0  0  0  0
   -1.3983    1.3358    0.0806 O   0  0  0  0  0  0  0  0  0  0  0  0
    0.4469    2.8088   -0.5598 H   0  0  0  0  0  0  0  0  0  0  0  0
    0.9664    1.5656   -1.7651 H   0  0  0  0  0  0  0  0  0  0  0  0
    1.8561    1.7988   -0.1931 H   0  0  0  0  0  0  0  0  0  0  0  0
    0.8135    0.9789    1.8954 H   0  0  0  0  0  0  0  0  0  0  0  0
   -0.5512   -0.2433    1.7496 H   0  0  0  0  0  0  0  0  0  0  0  0
    0.9901   -1.8826    1.6053 H   0  0  0  0  0  0  0  0  0  0  0  0
    2.3407   -0.7105    1.3683 H   0  0  0  0  0  0  0  0  0  0  0  0
   -0.5897   -2.0189    0.3217 H   0  0  0  0  0  0  0  0  0  0  0  0
   -0.1671   -2.3129   -1.3752 H   0  0  0  0  0  0  0  0  0  0  0  0
   -0.6138   -0.0143   -2.0388 H   0  0  0  0  0  0  0  0  0  0  0  0
   -2.7612    0.3523   -1.0790 H   0  0  0  0  0  0  0  0  0  0  0  0
   -2.2760   -0.4528    0.5482 H   0  0  0  0  0  0  0  0  0  0  0  0
  1  2  1  0
  2  3  1  0
  3  4  1  0
  4  5  1  0
  5  6  1  0
  6  7  1  0
  7  8  1  0
  8  9  1  0
  7  2  1  0
  9  2  1  0
  1 10  1  0
  1 11  1  0
  1 12  1  0
  3 13  1  0
  3 14  1  0
  4 15  1  0
  4 16  1  0
  6 17  1  0
  6 18  1  0
  7 19  1  0
  8 20  1  0
  8 21  1  0
M  END
