
     RDKit          3D

 20 22  0  0  0  0  0  0  0  0999 V2000
    2.2960   -0.3722   -0.2107 C   0  0  0  0  0  0  0  0  0  0  0  0
    0.8410   -0.0544   -0.2073 C   0  0  0  0  0  0  0  0  0  0  0  0
    0.4195    1.3676   -0.0264 C   0  0  0  0  0  0  0  0  0  0  0  0
   -0.7551    0.8546    0.8119 C   0  0  0  0  0  0  0  0  0  0  0  0
   -1.8731    0.4568   -0.1184 C   0  0  0  0  0  0  0  0  0  0  0  0
   -1.4893   -0.8766   -0.7206 C   0  0  0  0  0  0  0  0  0  0  0  0
   -0.1149   -1.1803   -0.1631 C   0  0  0  0  0  0  0  0  0  0  0  0
    0.0144   -0.3943    1.0434 C   0  0  0  0  0  0  0  0  0  0  0  0
    2.8175   -0.1404    0.7267 H   0  0  0  0  0  0  0  0  0  0  0  0
    2.4172   -1.4427   -0.5179 H   0  0  0  0  0  0  0  0  0  0  0  0
    2.7658    0.2140   -1.0410 H   0  0  0  0  0  0  0  0  0  0  0  0
    1.1104    1.9087    0.6845 H   0  0  0  0  0  0  0  0  0  0  0  0
    0.1377    1.9333   -0.9175 H   0  0  0  0  0  0  0  0  0  0  0  0
   -1.0167    1.4654    1.6726 H   0  0  0  0  0  0  0  0  0  0  0  0
   -2.0000    1.2120   -0.9362 H   0  0  0  0  0  0  0  0  0  0  0  0
   -2.8058    0.3449    0.4626 H   0  0  0  0  0  0  0  0  0  0  0  0
   -1.4297   -0.8030   -1.8464 H   0  0  0  0  0  0  0  0  0  0  0  0
   -2.1752   -1.6798   -0.4475 H   0  0  0  0  0  0  0  0  0  0  0  0
    0.2955   -2.1844   -0.1946 H   0  0  0  0  0  0  0  0  0  0  0  0
    0.5447   -0.6293    1.9459 H   0  0  0  0  0  0  0  0  0  0  0  0
  1  2  1  0
  2  3  1  0
  3  4  1  0
  4  5  1  0
  5  6  1  0
  6  7  1  0
  7  8  1  0
  7  2  1  0
  8  2  1  0
  8  4  1  0
  1  9  1  0
  1 10  1  0
  1 11  1  0
  3 12  1  0
  3 13  1  0
  4 14  1  0
  5 15  1  0
  5 16  1  0
  6 17  1  0
  6 18  1  0
  7 19  1  0
  8 20  1  0
M  END
