
     RDKit          3D

 19 20  0  0  0  0  0  0  0  0999 V2000
   -2.3977    0.2100    0.3373 C   0  0  0  0  0  0  0  0  0  0  0  0
   -0.9284    0.0943    0.1788 C   0  0  0  0  0  0  0  0  0  0  0  0
   -0.1953    1.3991   -0.0069 C   0  0  0  0  0  0  0  0  0  0  0  0
    1.1279    1.3338    0.1942 C   0  0  0  0  0  0  0  0  0  0  0  0
    1.7346   -0.0148   -0.0857 C   0  0  0  0  0  0  0  0  0  0  0  0
    2.9010   -0.2079    0.6180 O   0  0  0  0  0  0  0  0  0  0  0  0
    0.6642   -1.0346    0.2410 C   0  0  0  0  0  0  0  0  0  0  0  0
   -0.4384   -0.9464   -0.7928 C   0  0  0  0  0  0  0  0  0  0  0  0
   -0.2406   -0.5860    1.1822 O   0  0  0  0  0  0  0  0  0  0  0  0
   -2.7717    0.9740   -0.3731 H   0  0  0  0  0  0  0  0  0  0  0  0
   -2.7061    0.5018    1.3672 H   0  0  0  0  0  0  0  0  0  0  0  0
   -2.8848   -0.7505    0.0182 H   0  0  0  0  0  0  0  0  0  0  0  0
   -0.7025    2.3138   -0.2811 H   0  0  0  0  0  0  0  0  0  0  0  0
    1.7171    2.1783    0.5304 H   0  0  0  0  0  0  0  0  0  0  0  0
    1.8931   -0.0354   -1.2034 H   0  0  0  0  0  0  0  0  0  0  0  0
    3.3656   -0.9868    0.2114 H   0  0  0  0  0  0  0  0  0  0  0  0
    1.0941   -2.0265    0.3970 H   0  0  0  0  0  0  0  0  0  0  0  0
   -0.1348   -0.5869   -1.7739 H   0  0  0  0  0  0  0  0  0  0  0  0
   -1.0973   -1.8292   -0.7589 H   0  0  0  0  0  0  0  0  0  0  0  0
  1  2  1  0
  2  3  1  0
  3  4  2  0
  4  5  1  0
  5  6  1  0
  5  7  1  0
  7  8  1  0
  7  9  1  0
  8  2  1  0
  9  2  1  0
  1 10  1  0
  1 11  1  0
  1 12  1  0
  3 13  1  0
  4 14  1  0
  5 15  1  0
  6 16  1  0
  7 17  1  0
  8 18  1  0
  8 19  1  0
M  END
