
     RDKit          3D

 17 19  0  0  0  0  0  0  0  0999 V2000
   -1.7326    0.9896    0.4574 C   0  0  0  0  0  0  0  0  0  0  0  0
   -0.4981    0.3991   -0.1118 C   0  0  0  0  0  0  0  0  0  0  0  0
   -0.6682   -0.9994   -0.7210 C   0  0  0  0  0  0  0  0  0  0  0  0
    0.6805   -1.3375   -0.1521 C   0  0  0  0  0  0  0  0  0  0  0  0
    1.7102   -0.2985    0.0828 C   0  0  0  0  0  0  0  0  0  0  0  0
    1.6565    0.9682   -0.7215 C   0  0  0  0  0  0  0  0  0  0  0  0
    2.6700    1.5860   -1.1331 O   0  0  0  0  0  0  0  0  0  0  0  0
    0.3095    1.2527   -0.8773 O   0  0  0  0  0  0  0  0  0  0  0  0
    0.4704   -0.2378    0.8343 C   0  0  0  0  0  0  0  0  0  0  0  0
   -2.1916    1.6461   -0.3372 H   0  0  0  0  0  0  0  0  0  0  0  0
   -2.4427    0.2138    0.7708 H   0  0  0  0  0  0  0  0  0  0  0  0
   -1.5166    1.6770    1.3053 H   0  0  0  0  0  0  0  0  0  0  0  0
   -0.7675   -1.0008   -1.8088 H   0  0  0  0  0  0  0  0  0  0  0  0
   -1.5101   -1.5015   -0.1619 H   0  0  0  0  0  0  0  0  0  0  0  0
    0.8853   -2.3592    0.1651 H   0  0  0  0  0  0  0  0  0  0  0  0
    2.6414   -0.6209    0.5332 H   0  0  0  0  0  0  0  0  0  0  0  0
    0.3036   -0.3769    1.8759 H   0  0  0  0  0  0  0  0  0  0  0  0
  1  2  1  0
  2  3  1  0
  3  4  1  0
  4  5  1  0
  5  6  1  0
  6  7  2  0
  6  8  1  0
  5  9  1  0
  8  2  1  0
  9  2  1  0
  9  4  1  0
  1 10  1  0
  1 11  1  0
  1 12  1  0
  3 13  1  0
  3 14  1  0
  4 15  1  0
  5 16  1  0
  9 17  1  0
M  END
