
     RDKit          3D

 23 24  0  0  0  0  0  0  0  0999 V2000
   -1.0898   -1.4998   -1.5541 C   0  0  0  0  0  0  0  0  0  0  0  0
   -0.5497   -0.5379   -0.4856 C   0  0  0  0  0  0  0  0  0  0  0  0
    0.2052   -1.1568    0.6037 C   0  0  0  0  0  0  0  0  0  0  0  0
    1.2730   -0.3434    1.2413 C   0  0  0  0  0  0  0  0  0  0  0  0
    1.8078    0.7689    0.4187 C   0  0  0  0  0  0  0  0  0  0  0  0
    0.7751    1.5945   -0.2666 C   0  0  0  0  0  0  0  0  0  0  0  0
   -0.3466    0.8250   -0.8634 C   0  0  0  0  0  0  0  0  0  0  0  0
   -1.5717    0.5358   -0.0006 C   0  0  0  0  0  0  0  0  0  0  0  0
   -1.4550    0.9780    1.2938 O   0  0  0  0  0  0  0  0  0  0  0  0
   -0.9494   -2.5551   -1.2520 H   0  0  0  0  0  0  0  0  0  0  0  0
   -2.1521   -1.2930   -1.7299 H   0  0  0  0  0  0  0  0  0  0  0  0
   -0.4836   -1.3864   -2.4998 H   0  0  0  0  0  0  0  0  0  0  0  0
   -0.5186   -1.4525    1.4209 H   0  0  0  0  0  0  0  0  0  0  0  0
    0.6150   -2.1495    0.2516 H   0  0  0  0  0  0  0  0  0  0  0  0
    0.9708    0.0712    2.2461 H   0  0  0  0  0  0  0  0  0  0  0  0
    2.1377   -1.0294    1.4794 H   0  0  0  0  0  0  0  0  0  0  0  0
    2.5563    0.3754   -0.3127 H   0  0  0  0  0  0  0  0  0  0  0  0
    2.3804    1.4554    1.1038 H   0  0  0  0  0  0  0  0  0  0  0  0
    1.3154    2.2360   -1.0234 H   0  0  0  0  0  0  0  0  0  0  0  0
    0.3333    2.3425    0.4491 H   0  0  0  0  0  0  0  0  0  0  0  0
   -0.5596    1.1078   -1.9367 H   0  0  0  0  0  0  0  0  0  0  0  0
   -2.5567    0.4924   -0.4970 H   0  0  0  0  0  0  0  0  0  0  0  0
   -2.1370    0.6207    1.9131 H   0  0  0  0  0  0  0  0  0  0  0  0
  1  2  1  0
  2  3  1  0
  3  4  1  0
  4  5  1  0
  5  6  1  0
  6  7  1  0
  7  8  1  0
  8  9  1  0
  7  2  1  0
  8  2  1  0
  1 10  1  0
  1 11  1  0
  1 12  1  0
  3 13  1  0
  3 14  1  0
  4 15  1  0
  4 16  1  0
  5 17  1  0
  5 18  1  0
  6 19  1  0
  6 20  1  0
  7 21  1  0
  8 22  1  0
  9 23  1  0
M  END
