
     RDKit          3D

 21 23  0  0  0  0  0  0  0  0999 V2000
    2.3638    0.1879    0.3274 C   0  0  0  0  0  0  0  0  0  0  0  0
    0.9148    0.1658   -0.1142 C   0  0  0  0  0  0  0  0  0  0  0  0
    0.3436    1.5094   -0.4243 C   0  0  0  0  0  0  0  0  0  0  0  0
   -0.9355    1.4978   -0.9107 O   0  0  0  0  0  0  0  0  0  0  0  0
   -1.8510    0.8467   -0.1327 C   0  0  0  0  0  0  0  0  0  0  0  0
   -1.4172   -0.5351    0.2824 C   0  0  0  0  0  0  0  0  0  0  0  0
   -1.0328   -1.3496   -0.9268 C   0  0  0  0  0  0  0  0  0  0  0  0
    0.4062   -1.0854   -0.6449 C   0  0  0  0  0  0  0  0  0  0  0  0
   -0.0007   -0.6039    0.7444 C   0  0  0  0  0  0  0  0  0  0  0  0
    2.9428    0.9996   -0.1503 H   0  0  0  0  0  0  0  0  0  0  0  0
    2.8236   -0.8017    0.2522 H   0  0  0  0  0  0  0  0  0  0  0  0
    2.3350    0.4299    1.4308 H   0  0  0  0  0  0  0  0  0  0  0  0
    0.4807    2.1477    0.4828 H   0  0  0  0  0  0  0  0  0  0  0  0
    0.9960    1.9708   -1.2147 H   0  0  0  0  0  0  0  0  0  0  0  0
   -2.1640    1.4176    0.7638 H   0  0  0  0  0  0  0  0  0  0  0  0
   -2.7893    0.7216   -0.7453 H   0  0  0  0  0  0  0  0  0  0  0  0
   -2.1642   -1.0222    0.9156 H   0  0  0  0  0  0  0  0  0  0  0  0
   -1.3684   -0.9496   -1.8974 H   0  0  0  0  0  0  0  0  0  0  0  0
   -1.2802   -2.4334   -0.7761 H   0  0  0  0  0  0  0  0  0  0  0  0
    1.0920   -1.9486   -0.7308 H   0  0  0  0  0  0  0  0  0  0  0  0
    0.3050   -1.1654    1.6255 H   0  0  0  0  0  0  0  0  0  0  0  0
  1  2  1  0
  2  3  1  0
  3  4  1  0
  4  5  1  0
  5  6  1  0
  6  7  1  0
  7  8  1  0
  8  9  1  0
  8  2  1  0
  9  2  1  0
  9  6  1  0
  1 10  1  0
  1 11  1  0
  1 12  1  0
  3 13  1  0
  3 14  1  0
  5 15  1  0
  5 16  1  0
  6 17  1  0
  7 18  1  0
  7 19  1  0
  8 20  1  0
  9 21  1  0
M  END
