
     RDKit          3D

 20 21  0  0  0  0  0  0  0  0999 V2000
    2.4532    0.1640   -0.3300 C   0  0  0  0  0  0  0  0  0  0  0  0
    1.0132    0.2970    0.1297 C   0  0  0  0  0  0  0  0  0  0  0  0
    0.0266    0.6569   -0.9119 C   0  0  0  0  0  0  0  0  0  0  0  0
   -0.8843   -0.4979   -0.5397 C   0  0  0  0  0  0  0  0  0  0  0  0
   -2.0631    0.0178    0.2554 C   0  0  0  0  0  0  0  0  0  0  0  0
   -2.7562    0.9439   -0.5663 O   0  0  0  0  0  0  0  0  0  0  0  0
    0.2326   -1.0461    0.2827 C   0  0  0  0  0  0  0  0  0  0  0  0
    0.6750   -0.2621    1.4360 C   0  0  0  0  0  0  0  0  0  0  0  0
    3.0825   -0.3647    0.4435 H   0  0  0  0  0  0  0  0  0  0  0  0
    2.5490   -0.4128   -1.2600 H   0  0  0  0  0  0  0  0  0  0  0  0
    2.8580    1.1821   -0.3933 H   0  0  0  0  0  0  0  0  0  0  0  0
    0.4218    0.4917   -1.9360 H   0  0  0  0  0  0  0  0  0  0  0  0
   -0.4469    1.6542   -0.8479 H   0  0  0  0  0  0  0  0  0  0  0  0
   -1.1767   -1.1353   -1.4056 H   0  0  0  0  0  0  0  0  0  0  0  0
   -1.7662    0.6245    1.1312 H   0  0  0  0  0  0  0  0  0  0  0  0
   -2.7438   -0.7915    0.5823 H   0  0  0  0  0  0  0  0  0  0  0  0
   -3.6564    1.0270   -0.1410 H   0  0  0  0  0  0  0  0  0  0  0  0
    0.7754   -1.9567   -0.0604 H   0  0  0  0  0  0  0  0  0  0  0  0
   -0.1026    0.1326    2.1165 H   0  0  0  0  0  0  0  0  0  0  0  0
    1.5089   -0.7248    2.0148 H   0  0  0  0  0  0  0  0  0  0  0  0
  1  2  1  0
  2  3  1  0
  3  4  1  0
  4  5  1  0
  5  6  1  0
  4  7  1  0
  7  8  1  0
  7  2  1  0
  8  2  1  0
  1  9  1  0
  1 10  1  0
  1 11  1  0
  3 12  1  0
  3 13  1  0
  4 14  1  0
  5 15  1  0
  5 16  1  0
  6 17  1  0
  7 18  1  0
  8 19  1  0
  8 20  1  0
M  END
