
     RDKit          3D

 23 24  0  0  0  0  0  0  0  0999 V2000
   -0.6942   -1.6184    1.0365 C   0  0  0  0  0  0  0  0  0  0  0  0
   -0.1456   -0.5456    0.1336 C   0  0  0  0  0  0  0  0  0  0  0  0
   -0.7366   -0.5959   -1.2497 C   0  0  0  0  0  0  0  0  0  0  0  0
   -1.8301    0.3408   -0.7105 C   0  0  0  0  0  0  0  0  0  0  0  0
   -0.8067    0.8131    0.2900 C   0  0  0  0  0  0  0  0  0  0  0  0
    0.2518    1.7354   -0.2440 C   0  0  0  0  0  0  0  0  0  0  0  0
    1.4895    1.2043    0.4819 C   0  0  0  0  0  0  0  0  0  0  0  0
    1.3145   -0.3017    0.2379 C   0  0  0  0  0  0  0  0  0  0  0  0
    2.0560   -0.7320   -0.8403 O   0  0  0  0  0  0  0  0  0  0  0  0
   -0.6448   -1.3342    2.1023 H   0  0  0  0  0  0  0  0  0  0  0  0
   -0.0275   -2.5044    0.9211 H   0  0  0  0  0  0  0  0  0  0  0  0
   -1.6973   -1.9471    0.7161 H   0  0  0  0  0  0  0  0  0  0  0  0
   -1.1588   -1.5879   -1.5033 H   0  0  0  0  0  0  0  0  0  0  0  0
   -0.1428   -0.1835   -2.0605 H   0  0  0  0  0  0  0  0  0  0  0  0
   -2.2044    1.0698   -1.4233 H   0  0  0  0  0  0  0  0  0  0  0  0
   -2.6036   -0.2635   -0.1768 H   0  0  0  0  0  0  0  0  0  0  0  0
   -1.1568    1.0738    1.2799 H   0  0  0  0  0  0  0  0  0  0  0  0
    0.0638    2.7966   -0.0070 H   0  0  0  0  0  0  0  0  0  0  0  0
    0.4480    1.6205   -1.3123 H   0  0  0  0  0  0  0  0  0  0  0  0
    2.4205    1.5721    0.0557 H   0  0  0  0  0  0  0  0  0  0  0  0
    1.3349    1.4488    1.5509 H   0  0  0  0  0  0  0  0  0  0  0  0
    1.6627   -0.7767    1.2024 H   0  0  0  0  0  0  0  0  0  0  0  0
    2.8075   -1.2840   -0.4807 H   0  0  0  0  0  0  0  0  0  0  0  0
  1  2  1  0
  2  3  1  0
  3  4  1  0
  4  5  1  0
  5  6  1  0
  6  7  1  0
  7  8  1  0
  8  9  1  0
  5  2  1  0
  8  2  1  0
  1 10  1  0
  1 11  1  0
  1 12  1  0
  3 13  1  0
  3 14  1  0
  4 15  1  0
  4 16  1  0
  5 17  1  0
  6 18  1  0
  6 19  1  0
  7 20  1  0
  7 21  1  0
  8 22  1  0
  9 23  1  0
M  END
