
     RDKit          3D

 21 23  0  0  0  0  0  0  0  0999 V2000
   -1.4957    1.5348    0.2826 C   0  0  0  0  0  0  0  0  0  0  0  0
   -0.8122    0.2322    0.2083 C   0  0  0  0  0  0  0  0  0  0  0  0
   -1.0333   -0.8309    1.2785 C   0  0  0  0  0  0  0  0  0  0  0  0
   -0.0839   -1.7928    1.0980 O   0  0  0  0  0  0  0  0  0  0  0  0
    0.8729   -1.3535    0.2116 C   0  0  0  0  0  0  0  0  0  0  0  0
    0.3725   -1.5911   -1.2197 C   0  0  0  0  0  0  0  0  0  0  0  0
   -0.3195   -0.2463   -1.1177 C   0  0  0  0  0  0  0  0  0  0  0  0
    0.6188    0.0939   -0.0486 C   0  0  0  0  0  0  0  0  0  0  0  0
    1.6354    1.1269   -0.0683 C   0  0  0  0  0  0  0  0  0  0  0  0
   -1.0174    2.1651    1.0666 H   0  0  0  0  0  0  0  0  0  0  0  0
   -2.5789    1.3601    0.5388 H   0  0  0  0  0  0  0  0  0  0  0  0
   -1.4756    2.0134   -0.7195 H   0  0  0  0  0  0  0  0  0  0  0  0
   -2.0728   -1.1894    1.2889 H   0  0  0  0  0  0  0  0  0  0  0  0
   -0.8256   -0.3387    2.2743 H   0  0  0  0  0  0  0  0  0  0  0  0
    1.8995   -1.6616    0.3980 H   0  0  0  0  0  0  0  0  0  0  0  0
   -0.3074   -2.4307   -1.3390 H   0  0  0  0  0  0  0  0  0  0  0  0
    1.2426   -1.5931   -1.9039 H   0  0  0  0  0  0  0  0  0  0  0  0
   -0.4414    0.3655   -2.0074 H   0  0  0  0  0  0  0  0  0  0  0  0
    2.2532    1.0912    0.8510 H   0  0  0  0  0  0  0  0  0  0  0  0
    1.2071    2.1192   -0.1625 H   0  0  0  0  0  0  0  0  0  0  0  0
    2.3618    0.9258   -0.9099 H   0  0  0  0  0  0  0  0  0  0  0  0
  1  2  1  0
  2  3  1  0
  3  4  1  0
  4  5  1  0
  5  6  1  0
  6  7  1  0
  7  8  1  0
  8  9  1  0
  7  2  1  0
  8  2  1  0
  8  5  1  0
  1 10  1  0
  1 11  1  0
  1 12  1  0
  3 13  1  0
  3 14  1  0
  5 15  1  0
  6 16  1  0
  6 17  1  0
  7 18  1  0
  9 19  1  0
  9 20  1  0
  9 21  1  0
M  END
