
     RDKit          3D

 17 18  0  0  0  0  0  0  0  0999 V2000
    2.1165    0.0348   -0.2690 C   0  0  0  0  0  0  0  0  0  0  0  0
    0.6594    0.0629   -0.0654 C   0  0  0  0  0  0  0  0  0  0  0  0
    0.1170   -1.0113    0.8481 C   0  0  0  0  0  0  0  0  0  0  0  0
   -1.3372   -0.9707    0.4321 C   0  0  0  0  0  0  0  0  0  0  0  0
   -2.2628   -1.5916    0.9204 O   0  0  0  0  0  0  0  0  0  0  0  0
   -1.3570   -0.0085   -0.6934 C   0  0  0  0  0  0  0  0  0  0  0  0
   -1.1516    1.3793   -0.1326 C   0  0  0  0  0  0  0  0  0  0  0  0
    0.1998    1.3125    0.2655 O   0  0  0  0  0  0  0  0  0  0  0  0
   -0.0717   -0.2294   -1.2432 O   0  0  0  0  0  0  0  0  0  0  0  0
    2.6212   -0.0797    0.7106 H   0  0  0  0  0  0  0  0  0  0  0  0
    2.4415    1.0199   -0.6678 H   0  0  0  0  0  0  0  0  0  0  0  0
    2.4509   -0.7331   -1.0025 H   0  0  0  0  0  0  0  0  0  0  0  0
    0.5045   -1.9785    0.5045 H   0  0  0  0  0  0  0  0  0  0  0  0
    0.2480   -0.8077    1.9071 H   0  0  0  0  0  0  0  0  0  0  0  0
   -2.1562   -0.1146   -1.3926 H   0  0  0  0  0  0  0  0  0  0  0  0
   -1.7359    1.5646    0.7877 H   0  0  0  0  0  0  0  0  0  0  0  0
   -1.2864    2.1510   -0.9094 H   0  0  0  0  0  0  0  0  0  0  0  0
  1  2  1  0
  2  3  1  0
  3  4  1  0
  4  5  2  0
  4  6  1  0
  6  7  1  0
  7  8  1  0
  6  9  1  0
  8  2  1  0
  9  2  1  0
  1 10  1  0
  1 11  1  0
  1 12  1  0
  3 13  1  0
  3 14  1  0
  6 15  1  0
  7 16  1  0
  7 17  1  0
M  END
