
     RDKit          3D

 14 15  0  0  0  0  0  0  0  0999 V2000
   -1.3615   -0.8876   -0.4109 C   0  0  0  0  0  0  0  0  0  0  0  0
   -0.3055   -0.0235   -0.2055 C   0  0  0  0  0  0  0  0  0  0  0  0
    0.7255    0.2399   -1.1032 O   0  0  0  0  0  0  0  0  0  0  0  0
    1.0383    1.0942   -0.0488 C   0  0  0  0  0  0  0  0  0  0  0  0
   -0.3534    1.4175    0.0063 C   0  0  0  0  0  0  0  0  0  0  0  0
   -1.1514    2.2838    0.1379 O   0  0  0  0  0  0  0  0  0  0  0  0
    0.7528   -0.0927    0.8355 C   0  0  0  0  0  0  0  0  0  0  0  0
    1.6796   -1.1068    0.6895 O   0  0  0  0  0  0  0  0  0  0  0  0
   -2.2971   -0.3751   -0.7846 H   0  0  0  0  0  0  0  0  0  0  0  0
   -1.6669   -1.4505    0.5152 H   0  0  0  0  0  0  0  0  0  0  0  0
   -1.1672   -1.6743   -1.1959 H   0  0  0  0  0  0  0  0  0  0  0  0
    1.8582    1.6796    0.0114 H   0  0  0  0  0  0  0  0  0  0  0  0
    0.4253    0.1285    1.8510 H   0  0  0  0  0  0  0  0  0  0  0  0
    1.8233   -1.2331   -0.2980 H   0  0  0  0  0  0  0  0  0  0  0  0
  1  2  1  0
  2  3  1  0
  3  4  1  0
  4  5  1  0
  5  6  2  0
  4  7  1  0
  7  8  1  0
  5  2  1  0
  7  2  1  0
  1  9  1  0
  1 10  1  0
  1 11  1  0
  4 12  1  0
  7 13  1  0
  8 14  1  0
M  END
