
     RDKit          3D

 14 15  0  0  0  0  0  0  0  0999 V2000
   -1.8739   -0.3207   -0.2419 C   0  0  0  0  0  0  0  0  0  0  0  0
   -0.4221   -0.1023    0.0455 C   0  0  0  0  0  0  0  0  0  0  0  0
    0.1385   -1.2896    0.7015 O   0  0  0  0  0  0  0  0  0  0  0  0
    0.6953   -0.6652   -0.4904 C   0  0  0  0  0  0  0  0  0  0  0  0
    1.8920    0.2039   -0.0767 C   0  0  0  0  0  0  0  0  0  0  0  0
    1.3189    1.2955    0.6358 O   0  0  0  0  0  0  0  0  0  0  0  0
   -0.0560    1.1653    0.7066 C   0  0  0  0  0  0  0  0  0  0  0  0
   -0.8309    1.9952    1.2446 O   0  0  0  0  0  0  0  0  0  0  0  0
   -2.3641   -0.5669    0.7465 H   0  0  0  0  0  0  0  0  0  0  0  0
   -2.3654    0.6114   -0.5774 H   0  0  0  0  0  0  0  0  0  0  0  0
   -2.0396   -1.1357   -0.9718 H   0  0  0  0  0  0  0  0  0  0  0  0
    0.8946   -1.3832   -1.2938 H   0  0  0  0  0  0  0  0  0  0  0  0
    2.5971   -0.3794    0.5347 H   0  0  0  0  0  0  0  0  0  0  0  0
    2.4155    0.5717   -0.9635 H   0  0  0  0  0  0  0  0  0  0  0  0
  1  2  1  0
  2  3  1  0
  3  4  1  0
  4  5  1  0
  5  6  1  0
  6  7  1  0
  7  8  2  0
  4  2  1  0
  7  2  1  0
  1  9  1  0
  1 10  1  0
  1 11  1  0
  4 12  1  0
  5 13  1  0
  5 14  1  0
M  END
