
     RDKit          3D

 23 24  0  0  0  0  0  0  0  0999 V2000
    2.3222   -0.0929    0.6724 C   0  0  0  0  0  0  0  0  0  0  0  0
    1.0384   -0.2891    0.2524 C   0  0  0  0  0  0  0  0  0  0  0  0
    0.6352   -1.1398   -0.9682 C   0  0  0  0  0  0  0  0  0  0  0  0
   -0.6715   -0.5773   -0.4153 C   0  0  0  0  0  0  0  0  0  0  0  0
   -1.9220   -0.8199   -0.9061 C   0  0  0  0  0  0  0  0  0  0  0  0
   -0.1043   -0.9545    0.9146 C   0  0  0  0  0  0  0  0  0  0  0  0
    0.0804    0.7026   -0.3316 C   0  0  0  0  0  0  0  0  0  0  0  0
   -0.3835    1.7731    0.5855 C   0  0  0  0  0  0  0  0  0  0  0  0
   -1.2660    2.6148   -0.1300 O   0  0  0  0  0  0  0  0  0  0  0  0
    2.7281    0.9494    0.4988 H   0  0  0  0  0  0  0  0  0  0  0  0
    3.0914   -0.7516    0.1658 H   0  0  0  0  0  0  0  0  0  0  0  0
    2.5259   -0.2644    1.7717 H   0  0  0  0  0  0  0  0  0  0  0  0
    0.7345   -2.2196   -0.8251 H   0  0  0  0  0  0  0  0  0  0  0  0
    0.9222   -0.7260   -1.9329 H   0  0  0  0  0  0  0  0  0  0  0  0
   -1.9430   -1.1992   -1.9711 H   0  0  0  0  0  0  0  0  0  0  0  0
   -2.6100    0.0760   -0.9397 H   0  0  0  0  0  0  0  0  0  0  0  0
   -2.5229   -1.5834   -0.3280 H   0  0  0  0  0  0  0  0  0  0  0  0
    0.0861   -2.0667    1.0134 H   0  0  0  0  0  0  0  0  0  0  0  0
   -0.5621   -0.5217    1.8039 H   0  0  0  0  0  0  0  0  0  0  0  0
    0.4290    1.0946   -1.3420 H   0  0  0  0  0  0  0  0  0  0  0  0
   -0.9127    1.3317    1.4449 H   0  0  0  0  0  0  0  0  0  0  0  0
    0.4692    2.4184    0.9461 H   0  0  0  0  0  0  0  0  0  0  0  0
   -2.1644    2.2455    0.0204 H   0  0  0  0  0  0  0  0  0  0  0  0
  1  2  1  0
  2  3  1  0
  3  4  1  0
  4  5  1  0
  4  6  1  0
  4  7  1  0
  7  8  1  0
  8  9  1  0
  6  2  1  0
  7  2  1  0
  1 10  1  0
  1 11  1  0
  1 12  1  0
  3 13  1  0
  3 14  1  0
  5 15  1  0
  5 16  1  0
  5 17  1  0
  6 18  1  0
  6 19  1  0
  7 20  1  0
  8 21  1  0
  8 22  1  0
  9 23  1  0
M  END
