
     RDKit          3D

 18 21  0  0  0  0  0  0  0  0999 V2000
    2.2066    0.1358    0.0296 C   0  0  0  0  0  0  0  0  0  0  0  0
    0.7233    0.0679    0.0118 C   0  0  0  0  0  0  0  0  0  0  0  0
   -0.1050    1.1966    0.6005 C   0  0  0  0  0  0  0  0  0  0  0  0
   -1.5051    0.6291    0.4843 C   0  0  0  0  0  0  0  0  0  0  0  0
   -1.4134   -0.8260    0.4880 C   0  0  0  0  0  0  0  0  0  0  0  0
   -1.4890   -0.0874   -0.7926 C   0  0  0  0  0  0  0  0  0  0  0  0
   -0.0768   -0.4413   -1.0865 C   0  0  0  0  0  0  0  0  0  0  0  0
   -0.0054   -1.1809    0.1983 C   0  0  0  0  0  0  0  0  0  0  0  0
    2.6069   -0.6620   -0.6140 H   0  0  0  0  0  0  0  0  0  0  0  0
    2.5248    1.1167   -0.3518 H   0  0  0  0  0  0  0  0  0  0  0  0
    2.5512    0.0023    1.0806 H   0  0  0  0  0  0  0  0  0  0  0  0
    0.2008    1.4125    1.6217 H   0  0  0  0  0  0  0  0  0  0  0  0
   -0.0715    2.0961   -0.0633 H   0  0  0  0  0  0  0  0  0  0  0  0
   -2.3724    1.2108    0.7874 H   0  0  0  0  0  0  0  0  0  0  0  0
   -2.1661   -1.5212    0.8234 H   0  0  0  0  0  0  0  0  0  0  0  0
   -2.2961   -0.1562   -1.4992 H   0  0  0  0  0  0  0  0  0  0  0  0
    0.2709   -0.8265   -2.0304 H   0  0  0  0  0  0  0  0  0  0  0  0
    0.4164   -2.1663    0.3121 H   0  0  0  0  0  0  0  0  0  0  0  0
  1  2  1  0
  2  3  1  0
  3  4  1  0
  4  5  1  0
  5  6  1  0
  6  7  1  0
  7  8  1  0
  7  2  1  0
  8  2  1  0
  6  4  1  0
  8  5  1  0
  1  9  1  0
  1 10  1  0
  1 11  1  0
  3 12  1  0
  3 13  1  0
  4 14  1  0
  5 15  1  0
  6 16  1  0
  7 17  1  0
  8 18  1  0
M  END
