
     RDKit          3D

 19 20  0  0  0  0  0  0  0  0999 V2000
    2.3038   -0.0172   -0.1005 C   0  0  0  0  0  0  0  0  0  0  0  0
    0.9422   -0.1590   -0.0140 C   0  0  0  0  0  0  0  0  0  0  0  0
    0.0800    0.0483    1.2002 C   0  0  0  0  0  0  0  0  0  0  0  0
   -0.8705   -0.3279    0.1029 C   0  0  0  0  0  0  0  0  0  0  0  0
   -2.2378   -0.4383    0.1754 C   0  0  0  0  0  0  0  0  0  0  0  0
    0.1141   -1.3217   -0.2981 C   0  0  0  0  0  0  0  0  0  0  0  0
    0.2352   -2.4671   -0.6656 O   0  0  0  0  0  0  0  0  0  0  0  0
   -0.0960    0.6460   -0.7549 C   0  0  0  0  0  0  0  0  0  0  0  0
   -0.2335    1.9644   -0.3587 O   0  0  0  0  0  0  0  0  0  0  0  0
    2.8575   -0.9971   -0.1042 H   0  0  0  0  0  0  0  0  0  0  0  0
    2.7543    0.6040    0.7016 H   0  0  0  0  0  0  0  0  0  0  0  0
    2.6330    0.4769   -1.0616 H   0  0  0  0  0  0  0  0  0  0  0  0
    0.0054    1.0581    1.5974 H   0  0  0  0  0  0  0  0  0  0  0  0
    0.2619   -0.7083    1.9776 H   0  0  0  0  0  0  0  0  0  0  0  0
   -2.5937   -1.4791    0.3598 H   0  0  0  0  0  0  0  0  0  0  0  0
   -2.6973    0.2421    0.9286 H   0  0  0  0  0  0  0  0  0  0  0  0
   -2.7387   -0.1482   -0.7963 H   0  0  0  0  0  0  0  0  0  0  0  0
   -0.1834    0.4593   -1.8306 H   0  0  0  0  0  0  0  0  0  0  0  0
   -0.5365    2.5648   -1.0591 H   0  0  0  0  0  0  0  0  0  0  0  0
  1  2  1  0
  2  3  1  0
  3  4  1  0
  4  5  1  0
  4  6  1  0
  6  7  2  0
  4  8  1  0
  8  9  1  0
  6  2  1  0
  8  2  1  0
  1 10  1  0
  1 11  1  0
  1 12  1  0
  3 13  1  0
  3 14  1  0
  5 15  1  0
  5 16  1  0
  5 17  1  0
  8 18  1  0
  9 19  1  0
M  END
