
     RDKit          3D

 21 22  0  0  0  0  0  0  0  0999 V2000
   -1.8492   -1.2437   -0.1923 C   0  0  0  0  0  0  0  0  0  0  0  0
   -0.6558   -0.5077    0.4640 C   0  0  0  0  0  0  0  0  0  0  0  0
   -1.2606    0.4504    1.4333 C   0  0  0  0  0  0  0  0  0  0  0  0
   -1.6030    1.1422    0.2407 O   0  0  0  0  0  0  0  0  0  0  0  0
   -0.2862    0.8902   -0.0858 C   0  0  0  0  0  0  0  0  0  0  0  0
    0.6337    1.8190    0.6037 C   0  0  0  0  0  0  0  0  0  0  0  0
    0.3379   -0.2841   -0.5697 C   0  0  0  0  0  0  0  0  0  0  0  0
    1.6934   -0.8501   -0.2314 C   0  0  0  0  0  0  0  0  0  0  0  0
    2.2653   -0.3376    0.9203 O   0  0  0  0  0  0  0  0  0  0  0  0
   -2.5238   -0.5490   -0.6879 H   0  0  0  0  0  0  0  0  0  0  0  0
   -2.3334   -1.7657    0.6879 H   0  0  0  0  0  0  0  0  0  0  0  0
   -1.5203   -2.0314   -0.8630 H   0  0  0  0  0  0  0  0  0  0  0  0
   -0.6670    0.9694    2.1601 H   0  0  0  0  0  0  0  0  0  0  0  0
   -2.1984    0.1153    1.9274 H   0  0  0  0  0  0  0  0  0  0  0  0
    1.5107    1.9565   -0.1093 H   0  0  0  0  0  0  0  0  0  0  0  0
    0.2457    2.8745    0.6671 H   0  0  0  0  0  0  0  0  0  0  0  0
    1.1030    1.4974    1.5318 H   0  0  0  0  0  0  0  0  0  0  0  0
    0.1472   -0.4662   -1.6843 H   0  0  0  0  0  0  0  0  0  0  0  0
    2.4004   -0.7659   -1.0884 H   0  0  0  0  0  0  0  0  0  0  0  0
    1.5865   -1.9595   -0.0177 H   0  0  0  0  0  0  0  0  0  0  0  0
    2.9738   -0.9540    1.1965 H   0  0  0  0  0  0  0  0  0  0  0  0
  1  2  1  0
  2  3  1  0
  3  4  1  0
  4  5  1  0
  5  6  1  0
  5  7  1  0
  7  8  1  0
  8  9  1  0
  5  2  1  0
  7  2  1  0
  1 10  1  0
  1 11  1  0
  1 12  1  0
  3 13  1  0
  3 14  1  0
  6 15  1  0
  6 16  1  0
  6 17  1  0
  7 18  1  0
  8 19  1  0
  8 20  1  0
  9 21  1  0
M  END
