
     RDKit          3D

 19 21  0  0  0  0  0  0  0  0999 V2000
   -0.1078    1.7107   -0.9793 C   0  0  0  0  0  0  0  0  0  0  0  0
    0.1502    0.5847   -0.0610 C   0  0  0  0  0  0  0  0  0  0  0  0
    1.1979    0.8796    0.8382 O   0  0  0  0  0  0  0  0  0  0  0  0
    2.0659   -0.0681    0.3227 C   0  0  0  0  0  0  0  0  0  0  0  0
    0.9117   -0.5849   -0.5342 C   0  0  0  0  0  0  0  0  0  0  0  0
    0.3837   -1.7319   -0.0165 O   0  0  0  0  0  0  0  0  0  0  0  0
   -0.6688   -1.4307    0.8050 C   0  0  0  0  0  0  0  0  0  0  0  0
   -1.9336   -0.9727    0.1311 C   0  0  0  0  0  0  0  0  0  0  0  0
   -1.0033    0.0046    0.6925 C   0  0  0  0  0  0  0  0  0  0  0  0
    0.5868    1.6614   -1.8308 H   0  0  0  0  0  0  0  0  0  0  0  0
   -1.1621    1.8201   -1.3140 H   0  0  0  0  0  0  0  0  0  0  0  0
    0.1471    2.6665   -0.4333 H   0  0  0  0  0  0  0  0  0  0  0  0
    2.9044    0.3707   -0.2613 H   0  0  0  0  0  0  0  0  0  0  0  0
    2.3801   -0.7851    1.1075 H   0  0  0  0  0  0  0  0  0  0  0  0
    1.1701   -0.6328   -1.6193 H   0  0  0  0  0  0  0  0  0  0  0  0
   -0.7335   -1.8890    1.8195 H   0  0  0  0  0  0  0  0  0  0  0  0
   -2.0794   -1.1504   -0.9459 H   0  0  0  0  0  0  0  0  0  0  0  0
   -2.9094   -1.0645    0.6957 H   0  0  0  0  0  0  0  0  0  0  0  0
   -1.2998    0.6118    1.5834 H   0  0  0  0  0  0  0  0  0  0  0  0
  1  2  1  0
  2  3  1  0
  3  4  1  0
  4  5  1  0
  5  6  1  0
  6  7  1  0
  7  8  1  0
  8  9  1  0
  5  2  1  0
  9  7  1  0
  9  2  1  0
  1 10  1  0
  1 11  1  0
  1 12  1  0
  4 13  1  0
  4 14  1  0
  5 15  1  0
  7 16  1  0
  8 17  1  0
  8 18  1  0
  9 19  1  0
M  END
