
     RDKit          3D

 16 17  0  0  0  0  0  0  0  0999 V2000
   -1.7981   -0.6978   -0.0488 C   0  0  0  0  0  0  0  0  0  0  0  0
   -0.5368    0.0057    0.3475 C   0  0  0  0  0  0  0  0  0  0  0  0
    0.1441   -0.3430    1.4931 O   0  0  0  0  0  0  0  0  0  0  0  0
    1.3823   -0.3968    0.8917 C   0  0  0  0  0  0  0  0  0  0  0  0
    0.7136   -0.1131   -0.4295 C   0  0  0  0  0  0  0  0  0  0  0  0
    0.8608   -0.9884   -1.4780 O   0  0  0  0  0  0  0  0  0  0  0  0
   -0.0675    1.1223   -0.5169 C   0  0  0  0  0  0  0  0  0  0  0  0
    0.2970    2.2789    0.1831 O   0  0  0  0  0  0  0  0  0  0  0  0
   -2.6438    0.0229    0.1453 H   0  0  0  0  0  0  0  0  0  0  0  0
   -1.7982   -0.8880   -1.1326 H   0  0  0  0  0  0  0  0  0  0  0  0
   -2.0172   -1.5806    0.5682 H   0  0  0  0  0  0  0  0  0  0  0  0
    1.8871   -1.3883    0.9686 H   0  0  0  0  0  0  0  0  0  0  0  0
    2.1070    0.3870    1.1564 H   0  0  0  0  0  0  0  0  0  0  0  0
    1.7591   -0.8333   -1.8858 H   0  0  0  0  0  0  0  0  0  0  0  0
   -0.6424    1.3035   -1.4297 H   0  0  0  0  0  0  0  0  0  0  0  0
    0.3531    2.1090    1.1676 H   0  0  0  0  0  0  0  0  0  0  0  0
  1  2  1  0
  2  3  1  0
  3  4  1  0
  4  5  1  0
  5  6  1  0
  5  7  1  0
  7  8  1  0
  5  2  1  0
  7  2  1  0
  1  9  1  0
  1 10  1  0
  1 11  1  0
  4 12  1  0
  4 13  1  0
  6 14  1  0
  7 15  1  0
  8 16  1  0
M  END
