
     RDKit          3D

 19 21  0  0  0  0  0  0  0  0999 V2000
    0.5335    1.7934    0.4153 C   0  0  0  0  0  0  0  0  0  0  0  0
    0.3004    0.4575   -0.2000 C   0  0  0  0  0  0  0  0  0  0  0  0
   -1.0255    0.1094   -0.8250 C   0  0  0  0  0  0  0  0  0  0  0  0
   -1.9431   -0.2856    0.2908 C   0  0  0  0  0  0  0  0  0  0  0  0
   -0.9450   -1.3992    0.3384 C   0  0  0  0  0  0  0  0  0  0  0  0
   -0.8409   -1.2755   -1.0615 O   0  0  0  0  0  0  0  0  0  0  0  0
    0.3471   -0.7569    0.7939 C   0  0  0  0  0  0  0  0  0  0  0  0
    1.4130   -0.5718   -0.1982 C   0  0  0  0  0  0  0  0  0  0  0  0
    2.6369   -0.0688    0.2175 O   0  0  0  0  0  0  0  0  0  0  0  0
    0.1874    2.5900   -0.2387 H   0  0  0  0  0  0  0  0  0  0  0  0
    0.0461    1.9339    1.4028 H   0  0  0  0  0  0  0  0  0  0  0  0
    1.6265    1.9130    0.5653 H   0  0  0  0  0  0  0  0  0  0  0  0
   -1.3923    0.6957   -1.6378 H   0  0  0  0  0  0  0  0  0  0  0  0
   -2.9052   -0.6502   -0.1168 H   0  0  0  0  0  0  0  0  0  0  0  0
   -2.0075    0.3695    1.1552 H   0  0  0  0  0  0  0  0  0  0  0  0
   -1.2174   -2.3501    0.7349 H   0  0  0  0  0  0  0  0  0  0  0  0
    0.4515   -0.4768    1.8518 H   0  0  0  0  0  0  0  0  0  0  0  0
    1.4067   -1.2726   -1.0757 H   0  0  0  0  0  0  0  0  0  0  0  0
    3.3279   -0.7547    0.2989 H   0  0  0  0  0  0  0  0  0  0  0  0
  1  2  1  0
  2  3  1  0
  3  4  1  0
  4  5  1  0
  5  6  1  0
  5  7  1  0
  7  8  1  0
  8  9  1  0
  7  2  1  0
  8  2  1  0
  6  3  1  0
  1 10  1  0
  1 11  1  0
  1 12  1  0
  3 13  1  0
  4 14  1  0
  4 15  1  0
  5 16  1  0
  7 17  1  0
  8 18  1  0
  9 19  1  0
M  END
