
     RDKit          3D

 21 23  0  0  0  0  0  0  0  0999 V2000
    2.0222    0.3640    0.8360 C   0  0  0  0  0  0  0  0  0  0  0  0
    0.7653    0.1254    0.0738 C   0  0  0  0  0  0  0  0  0  0  0  0
    0.0900    1.3441   -0.4829 C   0  0  0  0  0  0  0  0  0  0  0  0
   -1.4054    1.1086   -0.3834 C   0  0  0  0  0  0  0  0  0  0  0  0
   -1.5243   -0.3736   -0.0243 C   0  0  0  0  0  0  0  0  0  0  0  0
   -2.7137   -0.8611    0.4499 O   0  0  0  0  0  0  0  0  0  0  0  0
   -0.5830   -1.3182   -0.6429 C   0  0  0  0  0  0  0  0  0  0  0  0
    0.8266   -0.9592   -0.9875 C   0  0  0  0  0  0  0  0  0  0  0  0
   -0.3139   -0.6388    0.7373 C   0  0  0  0  0  0  0  0  0  0  0  0
    2.6246    1.1569    0.3545 H   0  0  0  0  0  0  0  0  0  0  0  0
    1.7246    0.7933    1.8375 H   0  0  0  0  0  0  0  0  0  0  0  0
    2.5546   -0.5664    1.0291 H   0  0  0  0  0  0  0  0  0  0  0  0
    0.3669    1.4684   -1.5657 H   0  0  0  0  0  0  0  0  0  0  0  0
    0.3559    2.2728    0.0271 H   0  0  0  0  0  0  0  0  0  0  0  0
   -1.8733    1.7274    0.4029 H   0  0  0  0  0  0  0  0  0  0  0  0
   -1.8920    1.3307   -1.3504 H   0  0  0  0  0  0  0  0  0  0  0  0
   -2.6446   -0.8923    1.4485 H   0  0  0  0  0  0  0  0  0  0  0  0
   -0.8190   -2.3786   -0.6390 H   0  0  0  0  0  0  0  0  0  0  0  0
    1.5786   -1.7294   -0.6470 H   0  0  0  0  0  0  0  0  0  0  0  0
    1.0375   -0.6265   -2.0044 H   0  0  0  0  0  0  0  0  0  0  0  0
   -0.1774   -1.3475    1.5309 H   0  0  0  0  0  0  0  0  0  0  0  0
  1  2  1  0
  2  3  1  0
  3  4  1  0
  4  5  1  0
  5  6  1  0
  5  7  1  0
  7  8  1  0
  7  9  1  0
  8  2  1  0
  9  2  1  0
  9  5  1  0
  1 10  1  0
  1 11  1  0
  1 12  1  0
  3 13  1  0
  3 14  1  0
  4 15  1  0
  4 16  1  0
  6 17  1  0
  7 18  1  0
  8 19  1  0
  8 20  1  0
  9 21  1  0
M  END
