
     RDKit          3D

 16 17  0  0  0  0  0  0  0  0999 V2000
    1.2210   -0.5188   -0.8583 C   0  0  0  0  0  0  0  0  0  0  0  0
    0.6008    0.1932    0.3683 C   0  0  0  0  0  0  0  0  0  0  0  0
    0.5472    1.5873    0.1741 C   0  0  0  0  0  0  0  0  0  0  0  0
   -0.7128    0.9963    0.1367 C   0  0  0  0  0  0  0  0  0  0  0  0
   -1.4674   -0.0783   -0.4196 C   0  0  0  0  0  0  0  0  0  0  0  0
   -1.1306   -1.2131    0.1871 C   0  0  0  0  0  0  0  0  0  0  0  0
   -0.1007   -0.8033    1.1534 C   0  0  0  0  0  0  0  0  0  0  0  0
    0.0725   -1.2178    2.2860 O   0  0  0  0  0  0  0  0  0  0  0  0
    1.8467   -1.3298   -0.3945 H   0  0  0  0  0  0  0  0  0  0  0  0
    1.8802    0.1280   -1.4318 H   0  0  0  0  0  0  0  0  0  0  0  0
    0.4364   -1.0248   -1.4484 H   0  0  0  0  0  0  0  0  0  0  0  0
    0.8926    2.2081    1.0530 H   0  0  0  0  0  0  0  0  0  0  0  0
    0.9643    2.0586   -0.7399 H   0  0  0  0  0  0  0  0  0  0  0  0
   -1.2982    1.2771    1.1136 H   0  0  0  0  0  0  0  0  0  0  0  0
   -2.2025   -0.0291   -1.2067 H   0  0  0  0  0  0  0  0  0  0  0  0
   -1.5496   -2.2335    0.0271 H   0  0  0  0  0  0  0  0  0  0  0  0
  1  2  1  0
  2  3  1  0
  3  4  1  0
  4  5  1  0
  5  6  2  0
  6  7  1  0
  7  8  2  0
  4  2  1  0
  7  2  1  0
  1  9  1  0
  1 10  1  0
  1 11  1  0
  3 12  1  0
  3 13  1  0
  4 14  1  0
  5 15  1  0
  6 16  1  0
M  END
