
     RDKit          3D

 19 21  0  0  0  0  0  0  0  0999 V2000
    2.4584    0.0050   -0.1134 C   0  0  0  0  0  0  0  0  0  0  0  0
    1.0303    0.1234    0.3182 C   0  0  0  0  0  0  0  0  0  0  0  0
    0.4955   -0.9122    1.2015 C   0  0  0  0  0  0  0  0  0  0  0  0
    0.0322   -0.9415   -0.2508 C   0  0  0  0  0  0  0  0  0  0  0  0
   -0.8331    0.1886   -0.5937 C   0  0  0  0  0  0  0  0  0  0  0  0
   -2.0938    0.4195    0.2571 C   0  0  0  0  0  0  0  0  0  0  0  0
   -2.0766    0.2731   -1.2403 C   0  0  0  0  0  0  0  0  0  0  0  0
    0.2299    1.1253   -0.3831 C   0  0  0  0  0  0  0  0  0  0  0  0
    0.4267    2.3052   -0.6641 O   0  0  0  0  0  0  0  0  0  0  0  0
    3.0712   -0.5526    0.6532 H   0  0  0  0  0  0  0  0  0  0  0  0
    2.8777    1.0395   -0.1691 H   0  0  0  0  0  0  0  0  0  0  0  0
    2.5703   -0.4552   -1.1229 H   0  0  0  0  0  0  0  0  0  0  0  0
    1.1572   -1.7530    1.4498 H   0  0  0  0  0  0  0  0  0  0  0  0
   -0.3392   -0.7316    1.9085 H   0  0  0  0  0  0  0  0  0  0  0  0
    0.4653   -1.6434   -0.9522 H   0  0  0  0  0  0  0  0  0  0  0  0
   -2.3776   -0.4647    0.8703 H   0  0  0  0  0  0  0  0  0  0  0  0
   -2.2334    1.4384    0.6876 H   0  0  0  0  0  0  0  0  0  0  0  0
   -2.5332   -0.6434   -1.6985 H   0  0  0  0  0  0  0  0  0  0  0  0
   -2.3277    1.1797   -1.8596 H   0  0  0  0  0  0  0  0  0  0  0  0
  1  2  1  0
  2  3  1  0
  3  4  1  0
  4  5  1  0
  5  6  1  0
  6  7  1  0
  5  8  1  0
  8  9  2  0
  4  2  1  0
  7  5  1  0
  8  2  1  0
  1 10  1  0
  1 11  1  0
  1 12  1  0
  3 13  1  0
  3 14  1  0
  4 15  1  0
  6 16  1  0
  6 17  1  0
  7 18  1  0
  7 19  1  0
M  END
