
     RDKit          3D

 23 24  0  0  0  0  0  0  0  0999 V2000
   -1.4064   -0.7001   -0.9981 C   0  0  0  0  0  0  0  0  0  0  0  0
   -1.1098   -0.0046    0.3183 C   0  0  0  0  0  0  0  0  0  0  0  0
   -0.5854   -0.9178    1.3605 C   0  0  0  0  0  0  0  0  0  0  0  0
    0.4803   -1.6099    0.7286 O   0  0  0  0  0  0  0  0  0  0  0  0
    1.5965   -0.8520    0.5513 C   0  0  0  0  0  0  0  0  0  0  0  0
    1.6942   -0.0929   -0.7293 C   0  0  0  0  0  0  0  0  0  0  0  0
    0.6777    0.9757   -0.9323 C   0  0  0  0  0  0  0  0  0  0  0  0
   -0.1051    1.1664    0.3001 C   0  0  0  0  0  0  0  0  0  0  0  0
   -1.5251    1.3608    0.4433 C   0  0  0  0  0  0  0  0  0  0  0  0
   -2.2599   -1.4017   -0.7577 H   0  0  0  0  0  0  0  0  0  0  0  0
   -1.8320    0.0129   -1.7300 H   0  0  0  0  0  0  0  0  0  0  0  0
   -0.5729   -1.3006   -1.3742 H   0  0  0  0  0  0  0  0  0  0  0  0
   -0.2020   -0.4115    2.2702 H   0  0  0  0  0  0  0  0  0  0  0  0
   -1.3542   -1.6497    1.6305 H   0  0  0  0  0  0  0  0  0  0  0  0
    2.4743   -1.5675    0.5474 H   0  0  0  0  0  0  0  0  0  0  0  0
    1.7785   -0.2306    1.4629 H   0  0  0  0  0  0  0  0  0  0  0  0
    1.7692   -0.8266   -1.5562 H   0  0  0  0  0  0  0  0  0  0  0  0
    2.7038    0.4158   -0.7149 H   0  0  0  0  0  0  0  0  0  0  0  0
    1.1461    1.9699   -1.1998 H   0  0  0  0  0  0  0  0  0  0  0  0
    0.0803    0.7081   -1.8347 H   0  0  0  0  0  0  0  0  0  0  0  0
    0.5235    1.3467    1.1986 H   0  0  0  0  0  0  0  0  0  0  0  0
   -2.0749    1.8219   -0.4028 H   0  0  0  0  0  0  0  0  0  0  0  0
   -1.8968    1.7873    1.4181 H   0  0  0  0  0  0  0  0  0  0  0  0
  1  2  1  0
  2  3  1  0
  3  4  1  0
  4  5  1  0
  5  6  1  0
  6  7  1  0
  7  8  1  0
  8  9  1  0
  8  2  1  0
  9  2  1  0
  1 10  1  0
  1 11  1  0
  1 12  1  0
  3 13  1  0
  3 14  1  0
  5 15  1  0
  5 16  1  0
  6 17  1  0
  6 18  1  0
  7 19  1  0
  7 20  1  0
  8 21  1  0
  9 22  1  0
  9 23  1  0
M  END
