
     RDKit          3D

 21 22  0  0  0  0  0  0  0  0999 V2000
   -1.9929    0.5752    0.7367 C   0  0  0  0  0  0  0  0  0  0  0  0
   -0.6570    0.4184    0.1473 C   0  0  0  0  0  0  0  0  0  0  0  0
   -0.5842   -0.3843   -1.1160 C   0  0  0  0  0  0  0  0  0  0  0  0
    0.8891   -0.8208   -1.1714 C   0  0  0  0  0  0  0  0  0  0  0  0
    1.4789   -0.2406    0.0625 C   0  0  0  0  0  0  0  0  0  0  0  0
    1.4030    1.2852   -0.0972 C   0  0  0  0  0  0  0  0  0  0  0  0
    0.0389    1.5905   -0.0368 O   0  0  0  0  0  0  0  0  0  0  0  0
    0.3104   -0.3641    1.0493 C   0  0  0  0  0  0  0  0  0  0  0  0
   -0.0769   -1.6365    1.2775 O   0  0  0  0  0  0  0  0  0  0  0  0
   -2.5268    1.4023    0.2380 H   0  0  0  0  0  0  0  0  0  0  0  0
   -1.8889    0.8758    1.8049 H   0  0  0  0  0  0  0  0  0  0  0  0
   -2.5905   -0.3447    0.6208 H   0  0  0  0  0  0  0  0  0  0  0  0
   -0.8593    0.1996   -2.0195 H   0  0  0  0  0  0  0  0  0  0  0  0
   -1.2047   -1.2875   -1.1198 H   0  0  0  0  0  0  0  0  0  0  0  0
    1.3434   -0.2810   -2.0442 H   0  0  0  0  0  0  0  0  0  0  0  0
    0.9863   -1.8976   -1.2845 H   0  0  0  0  0  0  0  0  0  0  0  0
    2.4058   -0.6089    0.4152 H   0  0  0  0  0  0  0  0  0  0  0  0
    1.9079    1.6892    0.8263 H   0  0  0  0  0  0  0  0  0  0  0  0
    1.8859    1.6280   -1.0101 H   0  0  0  0  0  0  0  0  0  0  0  0
    0.5453    0.1884    1.9636 H   0  0  0  0  0  0  0  0  0  0  0  0
   -0.8137   -1.9867    0.7573 H   0  0  0  0  0  0  0  0  0  0  0  0
  1  2  1  0
  2  3  1  0
  3  4  1  0
  4  5  1  0
  5  6  1  0
  6  7  1  0
  5  8  1  0
  8  9  1  0
  7  2  1  0
  8  2  1  0
  1 10  1  0
  1 11  1  0
  1 12  1  0
  3 13  1  0
  3 14  1  0
  4 15  1  0
  4 16  1  0
  5 17  1  0
  6 18  1  0
  6 19  1  0
  8 20  1  0
  9 21  1  0
M  END
