
     RDKit          3D

 21 24  0  0  0  0  0  0  0  0999 V2000
    0.0141   -2.0673    0.1697 C   0  0  0  0  0  0  0  0  0  0  0  0
   -0.0443   -0.6231   -0.0472 C   0  0  0  0  0  0  0  0  0  0  0  0
   -1.3368   -0.0022   -0.4976 C   0  0  0  0  0  0  0  0  0  0  0  0
   -1.9796    1.0632    0.3226 C   0  0  0  0  0  0  0  0  0  0  0  0
   -0.8707    1.4943   -0.5774 C   0  0  0  0  0  0  0  0  0  0  0  0
    0.5609    1.3035   -0.1783 C   0  0  0  0  0  0  0  0  0  0  0  0
    0.5723    0.3007    0.9492 C   0  0  0  0  0  0  0  0  0  0  0  0
    1.9066   -0.1341    0.4094 C   0  0  0  0  0  0  0  0  0  0  0  0
    1.0599    0.0436   -0.8182 C   0  0  0  0  0  0  0  0  0  0  0  0
   -0.9661   -2.5236   -0.1556 H   0  0  0  0  0  0  0  0  0  0  0  0
    0.7924   -2.5292   -0.4827 H   0  0  0  0  0  0  0  0  0  0  0  0
    0.1465   -2.3867    1.2227 H   0  0  0  0  0  0  0  0  0  0  0  0
   -1.8066   -0.3845   -1.4078 H   0  0  0  0  0  0  0  0  0  0  0  0
   -1.7414    1.1056    1.4055 H   0  0  0  0  0  0  0  0  0  0  0  0
   -2.9928    1.3569   -0.0198 H   0  0  0  0  0  0  0  0  0  0  0  0
   -1.0616    1.9848   -1.5358 H   0  0  0  0  0  0  0  0  0  0  0  0
    1.2106    2.1549   -0.1137 H   0  0  0  0  0  0  0  0  0  0  0  0
    0.3189    0.4618    1.9003 H   0  0  0  0  0  0  0  0  0  0  0  0
    2.6808    0.6520    0.5764 H   0  0  0  0  0  0  0  0  0  0  0  0
    2.2181   -1.1643    0.6490 H   0  0  0  0  0  0  0  0  0  0  0  0
    1.3187   -0.1062   -1.7707 H   0  0  0  0  0  0  0  0  0  0  0  0
  1  2  1  0
  2  3  1  0
  3  4  1  0
  4  5  1  0
  5  6  1  0
  6  7  1  0
  7  8  1  0
  8  9  1  0
  7  2  1  0
  9  2  1  0
  5  3  1  0
  9  6  1  0
  1 10  1  0
  1 11  1  0
  1 12  1  0
  3 13  1  0
  4 14  1  0
  4 15  1  0
  5 16  1  0
  6 17  1  0
  7 18  1  0
  8 19  1  0
  8 20  1  0
  9 21  1  0
M  END
