
     RDKit          3D

 19 20  0  0  0  0  0  0  0  0999 V2000
   -2.0545    0.8793   -0.3990 C   0  0  0  0  0  0  0  0  0  0  0  0
   -0.7841    0.2769   -0.1140 C   0  0  0  0  0  0  0  0  0  0  0  0
    0.4800    0.9997   -0.2580 C   0  0  0  0  0  0  0  0  0  0  0  0
    1.3985    0.0854    0.0707 C   0  0  0  0  0  0  0  0  0  0  0  0
    2.8418    0.2719    0.0995 C   0  0  0  0  0  0  0  0  0  0  0  0
    3.3554    1.3780   -0.2028 O   0  0  0  0  0  0  0  0  0  0  0  0
    0.5817   -1.0982    0.3785 C   0  0  0  0  0  0  0  0  0  0  0  0
   -0.4310   -1.0641   -0.7757 C   0  0  0  0  0  0  0  0  0  0  0  0
   -0.5672   -0.4754    1.1856 C   0  0  0  0  0  0  0  0  0  0  0  0
   -2.5072    1.3124    0.5147 H   0  0  0  0  0  0  0  0  0  0  0  0
   -1.9221    1.7496   -1.1000 H   0  0  0  0  0  0  0  0  0  0  0  0
   -2.7299    0.1709   -0.9210 H   0  0  0  0  0  0  0  0  0  0  0  0
    0.5849    2.0281   -0.5615 H   0  0  0  0  0  0  0  0  0  0  0  0
    3.4666   -0.5496    0.3831 H   0  0  0  0  0  0  0  0  0  0  0  0
    0.9851   -2.0102    0.6803 H   0  0  0  0  0  0  0  0  0  0  0  0
   -1.1702   -1.8510   -0.6386 H   0  0  0  0  0  0  0  0  0  0  0  0
    0.0347   -0.9511   -1.7636 H   0  0  0  0  0  0  0  0  0  0  0  0
   -0.2530    0.1292    2.0365 H   0  0  0  0  0  0  0  0  0  0  0  0
   -1.3097   -1.2818    1.3852 H   0  0  0  0  0  0  0  0  0  0  0  0
  1  2  1  0
  2  3  1  0
  3  4  2  0
  4  5  1  0
  5  6  2  0
  4  7  1  0
  7  8  1  0
  7  9  1  0
  8  2  1  0
  9  2  1  0
  1 10  1  0
  1 11  1  0
  1 12  1  0
  3 13  1  0
  5 14  1  0
  7 15  1  0
  8 16  1  0
  8 17  1  0
  9 18  1  0
  9 19  1  0
M  END
