
     RDKit          3D

 17 19  0  0  0  0  0  0  0  0999 V2000
    1.7117   -1.1108    0.2711 C   0  0  0  0  0  0  0  0  0  0  0  0
    0.4680   -0.6629   -0.5306 C   0  0  0  0  0  0  0  0  0  0  0  0
    0.9821    0.1492   -1.5196 O   0  0  0  0  0  0  0  0  0  0  0  0
    0.1425    0.8094   -0.7011 C   0  0  0  0  0  0  0  0  0  0  0  0
    0.6267    1.8299    0.1922 C   0  0  0  0  0  0  0  0  0  0  0  0
   -0.0259    2.4963    0.9777 O   0  0  0  0  0  0  0  0  0  0  0  0
   -1.2987    0.3806   -0.7776 C   0  0  0  0  0  0  0  0  0  0  0  0
   -2.0960   -0.4448    0.1234 C   0  0  0  0  0  0  0  0  0  0  0  0
   -0.7052   -0.5329    0.3257 C   0  0  0  0  0  0  0  0  0  0  0  0
    2.4902   -1.5068   -0.4006 H   0  0  0  0  0  0  0  0  0  0  0  0
    2.0385   -0.3429    0.9671 H   0  0  0  0  0  0  0  0  0  0  0  0
    1.3466   -2.0012    0.8602 H   0  0  0  0  0  0  0  0  0  0  0  0
    1.6899    2.0550    0.1897 H   0  0  0  0  0  0  0  0  0  0  0  0
   -1.5187    0.0169   -1.7994 H   0  0  0  0  0  0  0  0  0  0  0  0
   -2.6214   -1.4065   -0.1572 H   0  0  0  0  0  0  0  0  0  0  0  0
   -2.8158    0.1662    0.7441 H   0  0  0  0  0  0  0  0  0  0  0  0
   -0.4145    0.1052    1.2350 H   0  0  0  0  0  0  0  0  0  0  0  0
  1  2  1  0
  2  3  1  0
  3  4  1  0
  4  5  1  0
  5  6  2  0
  4  7  1  0
  7  8  1  0
  8  9  1  0
  4  2  1  0
  9  7  1  0
  9  2  1  0
  1 10  1  0
  1 11  1  0
  1 12  1  0
  5 13  1  0
  7 14  1  0
  8 15  1  0
  8 16  1  0
  9 17  1  0
M  END
