
     RDKit          3D

 21 22  0  0  0  0  0  0  0  0999 V2000
    0.3533    1.7018    0.0920 C   0  0  0  0  0  0  0  0  0  0  0  0
   -0.1615    0.3255   -0.2038 C   0  0  0  0  0  0  0  0  0  0  0  0
    0.6481   -0.4289   -1.1999 C   0  0  0  0  0  0  0  0  0  0  0  0
    1.8813   -0.7445   -0.3172 C   0  0  0  0  0  0  0  0  0  0  0  0
    1.1359   -1.2087    0.9114 C   0  0  0  0  0  0  0  0  0  0  0  0
   -0.0370   -0.6110    0.9959 C   0  0  0  0  0  0  0  0  0  0  0  0
   -1.4042   -0.1093    1.3565 C   0  0  0  0  0  0  0  0  0  0  0  0
   -1.6342    0.1526   -0.1457 C   0  0  0  0  0  0  0  0  0  0  0  0
   -2.1750   -0.9108   -0.8238 O   0  0  0  0  0  0  0  0  0  0  0  0
    0.4673    2.2297   -0.8779 H   0  0  0  0  0  0  0  0  0  0  0  0
    1.2928    1.6989    0.6726 H   0  0  0  0  0  0  0  0  0  0  0  0
   -0.4053    2.2888    0.6634 H   0  0  0  0  0  0  0  0  0  0  0  0
    0.2376   -1.3947   -1.4799 H   0  0  0  0  0  0  0  0  0  0  0  0
    0.9274    0.2343   -2.0234 H   0  0  0  0  0  0  0  0  0  0  0  0
    2.4352    0.1849   -0.0786 H   0  0  0  0  0  0  0  0  0  0  0  0
    2.4913   -1.5405   -0.7576 H   0  0  0  0  0  0  0  0  0  0  0  0
    1.5453   -1.9312    1.5970 H   0  0  0  0  0  0  0  0  0  0  0  0
   -1.4199    0.8015    1.9631 H   0  0  0  0  0  0  0  0  0  0  0  0
   -2.1129   -0.9041    1.6610 H   0  0  0  0  0  0  0  0  0  0  0  0
   -2.2190    1.0938   -0.2322 H   0  0  0  0  0  0  0  0  0  0  0  0
   -1.8467   -0.9283   -1.7730 H   0  0  0  0  0  0  0  0  0  0  0  0
  1  2  1  0
  2  3  1  0
  3  4  1  0
  4  5  1  0
  5  6  2  0
  6  7  1  0
  7  8  1  0
  8  9  1  0
  6  2  1  0
  8  2  1  0
  1 10  1  0
  1 11  1  0
  1 12  1  0
  3 13  1  0
  3 14  1  0
  4 15  1  0
  4 16  1  0
  5 17  1  0
  7 18  1  0
  7 19  1  0
  8 20  1  0
  9 21  1  0
M  END
