
     RDKit          3D

 21 22  0  0  0  0  0  0  0  0999 V2000
   -1.9073   -0.6337    0.7699 C   0  0  0  0  0  0  0  0  0  0  0  0
   -0.8119   -0.6063   -0.3242 C   0  0  0  0  0  0  0  0  0  0  0  0
   -0.8346    0.6913   -1.0175 C   0  0  0  0  0  0  0  0  0  0  0  0
   -0.2510    1.5571    0.1052 C   0  0  0  0  0  0  0  0  0  0  0  0
    0.2056    0.6164    1.0563 O   0  0  0  0  0  0  0  0  0  0  0  0
    0.6534   -0.3753    0.2297 C   0  0  0  0  0  0  0  0  0  0  0  0
    1.7308    0.1448   -0.6472 C   0  0  0  0  0  0  0  0  0  0  0  0
    2.7553    0.5919    0.2234 O   0  0  0  0  0  0  0  0  0  0  0  0
    0.1249   -1.6348   -0.1530 C   0  0  0  0  0  0  0  0  0  0  0  0
   -1.4172   -0.4495    1.7527 H   0  0  0  0  0  0  0  0  0  0  0  0
   -2.7413    0.0176    0.5479 H   0  0  0  0  0  0  0  0  0  0  0  0
   -2.2546   -1.7042    0.7933 H   0  0  0  0  0  0  0  0  0  0  0  0
   -0.3696    0.7877   -1.9754 H   0  0  0  0  0  0  0  0  0  0  0  0
   -1.9016    1.0417   -1.1577 H   0  0  0  0  0  0  0  0  0  0  0  0
   -1.0616    2.1919    0.5752 H   0  0  0  0  0  0  0  0  0  0  0  0
    0.5037    2.2611   -0.2233 H   0  0  0  0  0  0  0  0  0  0  0  0
    2.2229   -0.6867   -1.2139 H   0  0  0  0  0  0  0  0  0  0  0  0
    1.5378    0.9340   -1.3386 H   0  0  0  0  0  0  0  0  0  0  0  0
    3.2787   -0.1881    0.5557 H   0  0  0  0  0  0  0  0  0  0  0  0
    0.0455   -2.4122    0.6379 H   0  0  0  0  0  0  0  0  0  0  0  0
    0.4922   -2.1446   -1.0942 H   0  0  0  0  0  0  0  0  0  0  0  0
  1  2  1  0
  2  3  1  0
  3  4  1  0
  4  5  1  0
  5  6  1  0
  6  7  1  0
  7  8  1  0
  6  9  1  0
  6  2  1  0
  9  2  1  0
  1 10  1  0
  1 11  1  0
  1 12  1  0
  3 13  1  0
  3 14  1  0
  4 15  1  0
  4 16  1  0
  7 17  1  0
  7 18  1  0
  8 19  1  0
  9 20  1  0
  9 21  1  0
M  END
