
     RDKit          3D

 17 19  0  0  0  0  0  0  0  0999 V2000
    2.2787   -0.0988   -0.3588 C   0  0  0  0  0  0  0  0  0  0  0  0
    0.7682   -0.0934   -0.4901 C   0  0  0  0  0  0  0  0  0  0  0  0
    0.0411   -1.3227   -0.1665 C   0  0  0  0  0  0  0  0  0  0  0  0
   -1.1456   -1.2826    0.3866 C   0  0  0  0  0  0  0  0  0  0  0  0
   -1.8130   -0.0260    0.7127 C   0  0  0  0  0  0  0  0  0  0  0  0
   -2.3932    0.5575   -0.5336 O   0  0  0  0  0  0  0  0  0  0  0  0
   -1.3110    1.1775    0.1008 C   0  0  0  0  0  0  0  0  0  0  0  0
    0.0445    1.1377   -0.5130 C   0  0  0  0  0  0  0  0  0  0  0  0
    0.2643    0.4781   -1.7184 O   0  0  0  0  0  0  0  0  0  0  0  0
    2.6073    0.9677   -0.3612 H   0  0  0  0  0  0  0  0  0  0  0  0
    2.7280   -0.6966   -1.1522 H   0  0  0  0  0  0  0  0  0  0  0  0
    2.5171   -0.5562    0.6019 H   0  0  0  0  0  0  0  0  0  0  0  0
    0.5249   -2.2670   -0.4033 H   0  0  0  0  0  0  0  0  0  0  0  0
   -1.6248   -2.2462    0.5978 H   0  0  0  0  0  0  0  0  0  0  0  0
   -2.4934    0.0355    1.5666 H   0  0  0  0  0  0  0  0  0  0  0  0
   -1.6272    2.1499    0.5789 H   0  0  0  0  0  0  0  0  0  0  0  0
    0.6343    2.0856   -0.4489 H   0  0  0  0  0  0  0  0  0  0  0  0
  1  2  1  0
  2  3  1  0
  3  4  2  0
  4  5  1  0
  5  6  1  0
  6  7  1  0
  7  8  1  0
  8  9  1  0
  8  2  1  0
  9  2  1  0
  7  5  1  0
  1 10  1  0
  1 11  1  0
  1 12  1  0
  3 13  1  0
  4 14  1  0
  5 15  1  0
  7 16  1  0
  8 17  1  0
M  END
