
     RDKit          3D

 21 23  0  0  0  0  0  0  0  0999 V2000
    2.2655   -0.4543    0.1862 C   0  0  0  0  0  0  0  0  0  0  0  0
    0.8132   -0.1185   -0.0096 C   0  0  0  0  0  0  0  0  0  0  0  0
    0.4520    1.2823   -0.3231 C   0  0  0  0  0  0  0  0  0  0  0  0
   -0.7818    1.8136    0.2663 C   0  0  0  0  0  0  0  0  0  0  0  0
   -1.7322    0.9601    0.6962 O   0  0  0  0  0  0  0  0  0  0  0  0
   -1.5456   -0.3654    0.5820 C   0  0  0  0  0  0  0  0  0  0  0  0
   -1.5072   -0.9629   -0.8071 C   0  0  0  0  0  0  0  0  0  0  0  0
   -0.0303   -1.1632   -0.7247 C   0  0  0  0  0  0  0  0  0  0  0  0
   -0.1465   -0.8599    0.7932 C   0  0  0  0  0  0  0  0  0  0  0  0
    2.3849   -1.3040    0.9211 H   0  0  0  0  0  0  0  0  0  0  0  0
    2.7366    0.4226    0.6844 H   0  0  0  0  0  0  0  0  0  0  0  0
    2.7851   -0.7359   -0.7307 H   0  0  0  0  0  0  0  0  0  0  0  0
    1.3241    1.9325   -0.0154 H   0  0  0  0  0  0  0  0  0  0  0  0
    0.4426    1.3868   -1.4486 H   0  0  0  0  0  0  0  0  0  0  0  0
   -1.2612    2.5085   -0.4880 H   0  0  0  0  0  0  0  0  0  0  0  0
   -0.5333    2.5044    1.1273 H   0  0  0  0  0  0  0  0  0  0  0  0
   -2.2357   -0.9245    1.2825 H   0  0  0  0  0  0  0  0  0  0  0  0
   -1.8693   -0.2148   -1.5471 H   0  0  0  0  0  0  0  0  0  0  0  0
   -2.0981   -1.9046   -0.8450 H   0  0  0  0  0  0  0  0  0  0  0  0
    0.4540   -2.0911   -1.0200 H   0  0  0  0  0  0  0  0  0  0  0  0
    0.0830   -1.7117    1.4198 H   0  0  0  0  0  0  0  0  0  0  0  0
  1  2  1  0
  2  3  1  0
  3  4  1  0
  4  5  1  0
  5  6  1  0
  6  7  1  0
  7  8  1  0
  8  9  1  0
  8  2  1  0
  9  2  1  0
  9  6  1  0
  1 10  1  0
  1 11  1  0
  1 12  1  0
  3 13  1  0
  3 14  1  0
  4 15  1  0
  4 16  1  0
  6 17  1  0
  7 18  1  0
  7 19  1  0
  8 20  1  0
  9 21  1  0
M  END
