
     RDKit          3D

 19 22  0  0  0  0  0  0  0  0999 V2000
    2.0577   -0.4945    0.3530 C   0  0  0  0  0  0  0  0  0  0  0  0
    0.6359   -0.2751    0.0555 C   0  0  0  0  0  0  0  0  0  0  0  0
   -0.2161   -1.1580   -0.7383 C   0  0  0  0  0  0  0  0  0  0  0  0
   -1.5660   -1.0688   -0.1025 C   0  0  0  0  0  0  0  0  0  0  0  0
   -1.5876    0.3708    0.4331 C   0  0  0  0  0  0  0  0  0  0  0  0
   -0.8157    1.1138   -0.5524 C   0  0  0  0  0  0  0  0  0  0  0  0
    0.0961    0.1624   -1.2391 C   0  0  0  0  0  0  0  0  0  0  0  0
   -0.2182    0.7176    0.7439 C   0  0  0  0  0  0  0  0  0  0  0  0
    0.2247    1.6603    1.5949 O   0  0  0  0  0  0  0  0  0  0  0  0
    2.6715   -0.8273   -0.4997 H   0  0  0  0  0  0  0  0  0  0  0  0
    2.1357   -1.3222    1.1174 H   0  0  0  0  0  0  0  0  0  0  0  0
    2.4809    0.3976    0.8642 H   0  0  0  0  0  0  0  0  0  0  0  0
    0.2040   -2.0966   -1.0925 H   0  0  0  0  0  0  0  0  0  0  0  0
   -2.3580   -1.1405   -0.8784 H   0  0  0  0  0  0  0  0  0  0  0  0
   -1.7086   -1.8008    0.7148 H   0  0  0  0  0  0  0  0  0  0  0  0
   -2.4735    0.7315    0.9422 H   0  0  0  0  0  0  0  0  0  0  0  0
   -0.9781    2.1333   -0.8670 H   0  0  0  0  0  0  0  0  0  0  0  0
    0.7677    0.4321   -2.0339 H   0  0  0  0  0  0  0  0  0  0  0  0
    0.6473    2.4641    1.1850 H   0  0  0  0  0  0  0  0  0  0  0  0
  1  2  1  0
  2  3  1  0
  3  4  1  0
  4  5  1  0
  5  6  1  0
  6  7  1  0
  6  8  1  0
  8  9  1  0
  7  2  1  0
  8  2  1  0
  7  3  1  0
  8  5  1  0
  1 10  1  0
  1 11  1  0
  1 12  1  0
  3 13  1  0
  4 14  1  0
  4 15  1  0
  5 16  1  0
  6 17  1  0
  7 18  1  0
  9 19  1  0
M  END
