
     RDKit          3D

 21 22  0  0  0  0  0  0  0  0999 V2000
    2.3822   -0.2048   -0.0411 C   0  0  0  0  0  0  0  0  0  0  0  0
    0.9023   -0.2854    0.0416 C   0  0  0  0  0  0  0  0  0  0  0  0
    0.2507    0.4468    1.1985 C   0  0  0  0  0  0  0  0  0  0  0  0
   -0.8465    0.8115    0.1931 C   0  0  0  0  0  0  0  0  0  0  0  0
   -1.4239    2.0304    0.3626 O   0  0  0  0  0  0  0  0  0  0  0  0
   -1.7272   -0.3634   -0.0557 C   0  0  0  0  0  0  0  0  0  0  0  0
   -0.9693   -1.6307   -0.1307 C   0  0  0  0  0  0  0  0  0  0  0  0
    0.3863   -1.5269   -0.1834 O   0  0  0  0  0  0  0  0  0  0  0  0
    0.2644    0.7745   -0.8665 C   0  0  0  0  0  0  0  0  0  0  0  0
    2.8227    0.5907    0.6220 H   0  0  0  0  0  0  0  0  0  0  0  0
    2.6493    0.0166   -1.1118 H   0  0  0  0  0  0  0  0  0  0  0  0
    2.8036   -1.1927    0.2350 H   0  0  0  0  0  0  0  0  0  0  0  0
   -0.0746   -0.1639    2.0376 H   0  0  0  0  0  0  0  0  0  0  0  0
    0.8726    1.3433    1.4397 H   0  0  0  0  0  0  0  0  0  0  0  0
   -1.7827    2.3903   -0.4753 H   0  0  0  0  0  0  0  0  0  0  0  0
   -2.5378   -0.4220    0.7073 H   0  0  0  0  0  0  0  0  0  0  0  0
   -2.2390   -0.2008   -1.0356 H   0  0  0  0  0  0  0  0  0  0  0  0
   -1.2938   -2.2481   -1.0207 H   0  0  0  0  0  0  0  0  0  0  0  0
   -1.2375   -2.2847    0.7501 H   0  0  0  0  0  0  0  0  0  0  0  0
    0.8464    1.7058   -0.8205 H   0  0  0  0  0  0  0  0  0  0  0  0
   -0.0481    0.4136   -1.8466 H   0  0  0  0  0  0  0  0  0  0  0  0
  1  2  1  0
  2  3  1  0
  3  4  1  0
  4  5  1  0
  4  6  1  0
  6  7  1  0
  7  8  1  0
  4  9  1  0
  8  2  1  0
  9  2  1  0
  1 10  1  0
  1 11  1  0
  1 12  1  0
  3 13  1  0
  3 14  1  0
  5 15  1  0
  6 16  1  0
  6 17  1  0
  7 18  1  0
  7 19  1  0
  9 20  1  0
  9 21  1  0
M  END
