
     RDKit          3D

 19 20  0  0  0  0  0  0  0  0999 V2000
   -2.0516   -0.6204    0.0329 C   0  0  0  0  0  0  0  0  0  0  0  0
   -0.7326   -0.0768   -0.0255 C   0  0  0  0  0  0  0  0  0  0  0  0
    0.3251   -0.5483    0.9815 C   0  0  0  0  0  0  0  0  0  0  0  0
    1.2907   -0.0184   -0.0757 C   0  0  0  0  0  0  0  0  0  0  0  0
    2.5279   -0.4651   -0.1216 O   0  0  0  0  0  0  0  0  0  0  0  0
    0.9949    1.4681   -0.0148 C   0  0  0  0  0  0  0  0  0  0  0  0
   -0.4905    1.3815   -0.0908 C   0  0  0  0  0  0  0  0  0  0  0  0
   -1.3272    2.2311   -0.1820 O   0  0  0  0  0  0  0  0  0  0  0  0
    0.2576   -0.5549   -1.0796 C   0  0  0  0  0  0  0  0  0  0  0  0
   -2.2129   -1.4832    0.7377 H   0  0  0  0  0  0  0  0  0  0  0  0
   -2.4314   -0.9626   -0.9481 H   0  0  0  0  0  0  0  0  0  0  0  0
   -2.7952    0.1525    0.3850 H   0  0  0  0  0  0  0  0  0  0  0  0
    0.2876    0.0095    1.9113 H   0  0  0  0  0  0  0  0  0  0  0  0
    0.2930   -1.6468    1.0257 H   0  0  0  0  0  0  0  0  0  0  0  0
    2.8234   -1.1759    0.4731 H   0  0  0  0  0  0  0  0  0  0  0  0
    1.2360    1.8673    0.9883 H   0  0  0  0  0  0  0  0  0  0  0  0
    1.4357    2.0266   -0.8447 H   0  0  0  0  0  0  0  0  0  0  0  0
    0.2579   -1.6374   -1.1675 H   0  0  0  0  0  0  0  0  0  0  0  0
    0.3118    0.0533   -1.9852 H   0  0  0  0  0  0  0  0  0  0  0  0
  1  2  1  0
  2  3  1  0
  3  4  1  0
  4  5  1  0
  4  6  1  0
  6  7  1  0
  7  8  2  0
  4  9  1  0
  7  2  1  0
  9  2  1  0
  1 10  1  0
  1 11  1  0
  1 12  1  0
  3 13  1  0
  3 14  1  0
  5 15  1  0
  6 16  1  0
  6 17  1  0
  9 18  1  0
  9 19  1  0
M  END
