
     RDKit          3D

 17 18  0  0  0  0  0  0  0  0999 V2000
    1.6680    0.7309    0.5074 C   0  0  0  0  0  0  0  0  0  0  0  0
    0.6617   -0.2040    0.3601 C   0  0  0  0  0  0  0  0  0  0  0  0
   -0.4427   -0.3542    1.1919 O   0  0  0  0  0  0  0  0  0  0  0  0
   -0.6285   -1.3869    0.2579 C   0  0  0  0  0  0  0  0  0  0  0  0
    0.7731   -1.6529    0.3947 C   0  0  0  0  0  0  0  0  0  0  0  0
    1.6385   -2.4664    0.4899 O   0  0  0  0  0  0  0  0  0  0  0  0
   -0.2865   -0.3575   -0.7731 C   0  0  0  0  0  0  0  0  0  0  0  0
   -1.3366    0.7226   -0.9114 C   0  0  0  0  0  0  0  0  0  0  0  0
   -2.1441    0.7998    0.2221 O   0  0  0  0  0  0  0  0  0  0  0  0
    2.0886    1.0977   -0.4514 H   0  0  0  0  0  0  0  0  0  0  0  0
    2.5597    0.3348    1.0769 H   0  0  0  0  0  0  0  0  0  0  0  0
    1.3511    1.6517    1.0618 H   0  0  0  0  0  0  0  0  0  0  0  0
   -1.4225   -2.0086    0.2532 H   0  0  0  0  0  0  0  0  0  0  0  0
    0.1868   -0.7019   -1.6886 H   0  0  0  0  0  0  0  0  0  0  0  0
   -1.9682    0.5667   -1.8093 H   0  0  0  0  0  0  0  0  0  0  0  0
   -0.8677    1.7317   -1.0369 H   0  0  0  0  0  0  0  0  0  0  0  0
   -1.8306    1.4967    0.8548 H   0  0  0  0  0  0  0  0  0  0  0  0
  1  2  1  0
  2  3  1  0
  3  4  1  0
  4  5  1  0
  5  6  2  0
  4  7  1  0
  7  8  1  0
  8  9  1  0
  5  2  1  0
  7  2  1  0
  1 10  1  0
  1 11  1  0
  1 12  1  0
  4 13  1  0
  7 14  1  0
  8 15  1  0
  8 16  1  0
  9 17  1  0
M  END
