
     RDKit          3D

 23 24  0  0  0  0  0  0  0  0999 V2000
   -1.9902   -0.7648    1.0960 C   0  0  0  0  0  0  0  0  0  0  0  0
   -0.8884   -0.0934    0.4544 C   0  0  0  0  0  0  0  0  0  0  0  0
   -1.0707    1.1898   -0.2834 C   0  0  0  0  0  0  0  0  0  0  0  0
    0.3274    1.2931   -0.9190 C   0  0  0  0  0  0  0  0  0  0  0  0
    1.0121    0.1905   -0.1726 C   0  0  0  0  0  0  0  0  0  0  0  0
    2.4209   -0.0454   -0.3024 C   0  0  0  0  0  0  0  0  0  0  0  0
    0.3843    0.1809    1.2286 C   0  0  0  0  0  0  0  0  0  0  0  0
    0.0312   -0.9448   -0.4401 C   0  0  0  0  0  0  0  0  0  0  0  0
   -0.4128   -0.9782   -1.7368 O   0  0  0  0  0  0  0  0  0  0  0  0
   -1.6050   -1.3344    1.9918 H   0  0  0  0  0  0  0  0  0  0  0  0
   -2.7933   -0.0809    1.3729 H   0  0  0  0  0  0  0  0  0  0  0  0
   -2.4277   -1.5430    0.4048 H   0  0  0  0  0  0  0  0  0  0  0  0
   -1.1610    2.0173    0.4496 H   0  0  0  0  0  0  0  0  0  0  0  0
   -1.8587    1.1758   -1.0440 H   0  0  0  0  0  0  0  0  0  0  0  0
    0.7628    2.2713   -0.8209 H   0  0  0  0  0  0  0  0  0  0  0  0
    0.1937    0.9404   -1.9678 H   0  0  0  0  0  0  0  0  0  0  0  0
    2.8499    0.5085   -1.1678 H   0  0  0  0  0  0  0  0  0  0  0  0
    3.0013    0.3158    0.5936 H   0  0  0  0  0  0  0  0  0  0  0  0
    2.6619   -1.1216   -0.3887 H   0  0  0  0  0  0  0  0  0  0  0  0
    0.7507   -0.6594    1.8179 H   0  0  0  0  0  0  0  0  0  0  0  0
    0.4823    1.1680    1.6703 H   0  0  0  0  0  0  0  0  0  0  0  0
    0.2888   -1.8988    0.0360 H   0  0  0  0  0  0  0  0  0  0  0  0
   -0.9594   -1.7869   -1.8723 H   0  0  0  0  0  0  0  0  0  0  0  0
  1  2  1  0
  2  3  1  0
  3  4  1  0
  4  5  1  0
  5  6  1  0
  5  7  1  0
  5  8  1  0
  8  9  1  0
  7  2  1  0
  8  2  1  0
  1 10  1  0
  1 11  1  0
  1 12  1  0
  3 13  1  0
  3 14  1  0
  4 15  1  0
  4 16  1  0
  6 17  1  0
  6 18  1  0
  6 19  1  0
  7 20  1  0
  7 21  1  0
  8 22  1  0
  9 23  1  0
M  END
