
     RDKit          3D

 19 21  0  0  0  0  0  0  0  0999 V2000
    2.2414    0.1447    0.6157 C   0  0  0  0  0  0  0  0  0  0  0  0
    0.7764   -0.0050    0.4713 C   0  0  0  0  0  0  0  0  0  0  0  0
    0.2434   -1.3396    0.0533 C   0  0  0  0  0  0  0  0  0  0  0  0
   -0.9661   -1.1059   -0.8177 C   0  0  0  0  0  0  0  0  0  0  0  0
   -1.2793    0.3759   -0.5687 C   0  0  0  0  0  0  0  0  0  0  0  0
   -2.3000    0.9602   -1.2714 O   0  0  0  0  0  0  0  0  0  0  0  0
   -0.9748    0.9241    0.7698 C   0  0  0  0  0  0  0  0  0  0  0  0
    0.0550    0.4837    1.5556 O   0  0  0  0  0  0  0  0  0  0  0  0
    0.0460    0.9486   -0.4049 C   0  0  0  0  0  0  0  0  0  0  0  0
    2.6276   -0.2736    1.5597 H   0  0  0  0  0  0  0  0  0  0  0  0
    2.4731    1.2444    0.6548 H   0  0  0  0  0  0  0  0  0  0  0  0
    2.7757   -0.2321   -0.2766 H   0  0  0  0  0  0  0  0  0  0  0  0
    0.9885   -2.0059   -0.3841 H   0  0  0  0  0  0  0  0  0  0  0  0
   -0.1419   -1.8641    0.9773 H   0  0  0  0  0  0  0  0  0  0  0  0
   -1.8118   -1.7529   -0.5933 H   0  0  0  0  0  0  0  0  0  0  0  0
   -0.6199   -1.1543   -1.8743 H   0  0  0  0  0  0  0  0  0  0  0  0
   -3.1384    0.8629   -0.7510 H   0  0  0  0  0  0  0  0  0  0  0  0
   -1.4051    1.8919    1.0149 H   0  0  0  0  0  0  0  0  0  0  0  0
    0.4104    1.8969   -0.7304 H   0  0  0  0  0  0  0  0  0  0  0  0
  1  2  1  0
  2  3  1  0
  3  4  1  0
  4  5  1  0
  5  6  1  0
  5  7  1  0
  7  8  1  0
  7  9  1  0
  8  2  1  0
  9  2  1  0
  9  5  1  0
  1 10  1  0
  1 11  1  0
  1 12  1  0
  3 13  1  0
  3 14  1  0
  4 15  1  0
  4 16  1  0
  6 17  1  0
  7 18  1  0
  9 19  1  0
M  END
