
     RDKit          2D

 19 22  0  0  0  0  0  0  0  0999 V2000
    1.9267    1.0607    0.0000 C   0  0  0  0  0  0  0  0  0  0  0  0
    0.8660    0.0000    0.0000 C   0  0  0  0  0  0  0  0  0  0  0  0
    1.6160   -1.2990    0.0000 C   0  0  0  0  0  0  0  0  0  0  0  0
    0.3170   -2.0490    0.0000 C   0  0  0  0  0  0  0  0  0  0  0  0
    0.6289   -3.5163    0.0000 C   0  0  0  0  0  0  0  0  0  0  0  0
    2.1206   -3.6731    0.0000 C   0  0  0  0  0  0  0  0  0  0  0  0
    2.7307   -2.3027    0.0000 C   0  0  0  0  0  0  0  0  0  0  0  0
   -0.4330    0.7500    0.0000 C   0  0  0  0  0  0  0  0  0  0  0  0
   -0.4330   -0.7500    0.0000 C   0  0  0  0  0  0  0  0  0  0  0  0
    2.9873    2.1213    0.0000 H   0  0  0  0  0  0  0  0  0  0  0  0
    0.8660    2.1213    0.0000 H   0  0  0  0  0  0  0  0  0  0  0  0
    2.8841    0.3127    0.0000 H   0  0  0  0  0  0  0  0  0  0  0  0
    2.6464   -0.6552    0.0000 H   0  0  0  0  0  0  0  0  0  0  0  0
   -0.3748   -4.6310    0.0000 H   0  0  0  0  0  0  0  0  0  0  0  0
    1.8088   -5.1403    0.0000 H   0  0  0  0  0  0  0  0  0  0  0  0
    3.5472   -4.1366    0.0000 H   0  0  0  0  0  0  0  0  0  0  0  0
    4.1980   -1.9909    0.0000 H   0  0  0  0  0  0  0  0  0  0  0  0
   -1.1830    2.0490    0.0000 H   0  0  0  0  0  0  0  0  0  0  0  0
   -1.8819   -1.1382    0.0000 H   0  0  0  0  0  0  0  0  0  0  0  0
  1  2  1  0
  2  3  1  0
  3  4  1  0
  4  5  2  0
  5  6  1  0
  6  7  1  0
  7  8  1  0
  8  9  1  0
  8  2  1  0
  9  2  1  0
  7  3  1  0
  9  4  1  0
  1 10  1  0
  1 11  1  0
  1 12  1  0
  3 13  1  0
  5 14  1  0
  6 15  1  0
  6 16  1  0
  7 17  1  0
  8 18  1  0
  9 19  1  0
M  END
