
     RDKit          3D

 19 20  0  0  0  0  0  0  0  0999 V2000
    2.2951   -0.6594   -0.2335 C   0  0  0  0  0  0  0  0  0  0  0  0
    0.8710   -0.2568   -0.0669 C   0  0  0  0  0  0  0  0  0  0  0  0
    0.7074    1.2474    0.0255 C   0  0  0  0  0  0  0  0  0  0  0  0
   -0.5769    1.5928    0.1757 C   0  0  0  0  0  0  0  0  0  0  0  0
   -1.4894    0.4046    0.1905 C   0  0  0  0  0  0  0  0  0  0  0  0
   -1.0006   -0.5670    1.2704 C   0  0  0  0  0  0  0  0  0  0  0  0
    0.3539   -0.7448    1.1456 O   0  0  0  0  0  0  0  0  0  0  0  0
   -1.1992   -0.3341   -1.1245 C   0  0  0  0  0  0  0  0  0  0  0  0
    0.1365   -0.6807   -1.1492 O   0  0  0  0  0  0  0  0  0  0  0  0
    2.8376   -0.0145   -0.9449 H   0  0  0  0  0  0  0  0  0  0  0  0
    2.2998   -1.6855   -0.6921 H   0  0  0  0  0  0  0  0  0  0  0  0
    2.8516   -0.7581    0.7238 H   0  0  0  0  0  0  0  0  0  0  0  0
    1.5283    1.9314   -0.0250 H   0  0  0  0  0  0  0  0  0  0  0  0
   -0.9380    2.6048    0.2765 H   0  0  0  0  0  0  0  0  0  0  0  0
   -2.5397    0.6508    0.2741 H   0  0  0  0  0  0  0  0  0  0  0  0
   -1.3227   -0.1815    2.2475 H   0  0  0  0  0  0  0  0  0  0  0  0
   -1.4888   -1.5491    1.0138 H   0  0  0  0  0  0  0  0  0  0  0  0
   -1.5230    0.2628   -1.9913 H   0  0  0  0  0  0  0  0  0  0  0  0
   -1.8027   -1.2632   -1.1161 H   0  0  0  0  0  0  0  0  0  0  0  0
  1  2  1  0
  2  3  1  0
  3  4  2  0
  4  5  1  0
  5  6  1  0
  6  7  1  0
  5  8  1  0
  8  9  1  0
  7  2  1  0
  9  2  1  0
  1 10  1  0
  1 11  1  0
  1 12  1  0
  3 13  1  0
  4 14  1  0
  5 15  1  0
  6 16  1  0
  6 17  1  0
  8 18  1  0
  8 19  1  0
M  END
