
     RDKit          3D

 21 23  0  0  0  0  0  0  0  0999 V2000
   -0.8443    1.7105    0.6693 C   0  0  0  0  0  0  0  0  0  0  0  0
   -0.0507    0.6180    0.1654 C   0  0  0  0  0  0  0  0  0  0  0  0
    0.9580    0.8222   -0.9216 C   0  0  0  0  0  0  0  0  0  0  0  0
    1.5472   -0.6008   -0.9987 C   0  0  0  0  0  0  0  0  0  0  0  0
    0.6706   -1.2630    0.0420 C   0  0  0  0  0  0  0  0  0  0  0  0
    0.7656   -0.2157    1.1677 C   0  0  0  0  0  0  0  0  0  0  0  0
   -0.6768   -0.6920   -0.2011 C   0  0  0  0  0  0  0  0  0  0  0  0
   -1.9321   -1.1707    0.0174 C   0  0  0  0  0  0  0  0  0  0  0  0
   -1.3909   -0.8795   -1.3402 O   0  0  0  0  0  0  0  0  0  0  0  0
   -0.9637    1.6846    1.7775 H   0  0  0  0  0  0  0  0  0  0  0  0
   -0.3896    2.6939    0.4274 H   0  0  0  0  0  0  0  0  0  0  0  0
   -1.8856    1.6724    0.2506 H   0  0  0  0  0  0  0  0  0  0  0  0
    0.5010    1.1059   -1.8968 H   0  0  0  0  0  0  0  0  0  0  0  0
    1.7699    1.5157   -0.6235 H   0  0  0  0  0  0  0  0  0  0  0  0
    2.5966   -0.5823   -0.6141 H   0  0  0  0  0  0  0  0  0  0  0  0
    1.4473   -1.0269   -1.9958 H   0  0  0  0  0  0  0  0  0  0  0  0
    0.8237   -2.2746    0.3001 H   0  0  0  0  0  0  0  0  0  0  0  0
    0.2298   -0.4860    2.0769 H   0  0  0  0  0  0  0  0  0  0  0  0
    1.8064    0.1315    1.2915 H   0  0  0  0  0  0  0  0  0  0  0  0
   -2.1742   -2.2442    0.1539 H   0  0  0  0  0  0  0  0  0  0  0  0
   -2.8081   -0.5192    0.2523 H   0  0  0  0  0  0  0  0  0  0  0  0
  1  2  1  0
  2  3  1  0
  3  4  1  0
  4  5  1  0
  5  6  1  0
  5  7  1  0
  7  8  1  0
  8  9  1  0
  6  2  1  0
  9  7  1  0
  7  2  1  0
  1 10  1  0
  1 11  1  0
  1 12  1  0
  3 13  1  0
  3 14  1  0
  4 15  1  0
  4 16  1  0
  5 17  1  0
  6 18  1  0
  6 19  1  0
  8 20  1  0
  8 21  1  0
M  END
