
     RDKit          3D

 21 23  0  0  0  0  0  0  0  0999 V2000
   -1.6155   -1.3596   -0.5919 C   0  0  0  0  0  0  0  0  0  0  0  0
   -0.7007   -0.3591   -0.0747 C   0  0  0  0  0  0  0  0  0  0  0  0
   -1.1886    1.0830   -0.1350 C   0  0  0  0  0  0  0  0  0  0  0  0
    0.0387    1.8137    0.4076 C   0  0  0  0  0  0  0  0  0  0  0  0
    1.1658    0.8827    0.1501 C   0  0  0  0  0  0  0  0  0  0  0  0
    1.0854   -0.2589    1.1774 C   0  0  0  0  0  0  0  0  0  0  0  0
    1.5331   -1.1413    0.0209 C   0  0  0  0  0  0  0  0  0  0  0  0
    0.6268   -0.2201   -0.7620 C   0  0  0  0  0  0  0  0  0  0  0  0
   -0.2556   -0.5705    1.2540 O   0  0  0  0  0  0  0  0  0  0  0  0
   -2.0711   -1.9482    0.2553 H   0  0  0  0  0  0  0  0  0  0  0  0
   -2.4919   -0.9350   -1.1552 H   0  0  0  0  0  0  0  0  0  0  0  0
   -1.0981   -2.1206   -1.2206 H   0  0  0  0  0  0  0  0  0  0  0  0
   -1.2825    1.4144   -1.2087 H   0  0  0  0  0  0  0  0  0  0  0  0
   -2.0856    1.2617    0.4484 H   0  0  0  0  0  0  0  0  0  0  0  0
    0.1744    2.7931   -0.0472 H   0  0  0  0  0  0  0  0  0  0  0  0
   -0.1547    1.9073    1.5156 H   0  0  0  0  0  0  0  0  0  0  0  0
    2.1448    1.2546   -0.0643 H   0  0  0  0  0  0  0  0  0  0  0  0
    1.6912   -0.1921    2.0375 H   0  0  0  0  0  0  0  0  0  0  0  0
    1.1677   -2.1771    0.0566 H   0  0  0  0  0  0  0  0  0  0  0  0
    2.6019   -1.0071   -0.2655 H   0  0  0  0  0  0  0  0  0  0  0  0
    0.7145   -0.1210   -1.7981 H   0  0  0  0  0  0  0  0  0  0  0  0
  1  2  1  0
  2  3  1  0
  3  4  1  0
  4  5  1  0
  5  6  1  0
  6  7  1  0
  7  8  1  0
  6  9  1  0
  8  2  1  0
  9  2  1  0
  8  5  1  0
  1 10  1  0
  1 11  1  0
  1 12  1  0
  3 13  1  0
  3 14  1  0
  4 15  1  0
  4 16  1  0
  5 17  1  0
  6 18  1  0
  7 19  1  0
  7 20  1  0
  8 21  1  0
M  END
