
     RDKit          3D

 21 23  0  0  0  0  0  0  0  0999 V2000
    1.8333   -1.0523   -0.0298 C   0  0  0  0  0  0  0  0  0  0  0  0
    0.6480   -0.2228    0.0685 C   0  0  0  0  0  0  0  0  0  0  0  0
    0.7996    1.2790    0.1508 C   0  0  0  0  0  0  0  0  0  0  0  0
   -0.7045    1.5605    0.3313 C   0  0  0  0  0  0  0  0  0  0  0  0
   -1.2279    0.9045   -0.9358 C   0  0  0  0  0  0  0  0  0  0  0  0
   -0.4964   -0.4307   -0.8749 C   0  0  0  0  0  0  0  0  0  0  0  0
   -1.1401   -1.2907    0.2179 C   0  0  0  0  0  0  0  0  0  0  0  0
   -0.3198   -0.4499    1.2060 C   0  0  0  0  0  0  0  0  0  0  0  0
   -0.9793    0.7515    1.4275 O   0  0  0  0  0  0  0  0  0  0  0  0
    2.1440   -1.1440   -1.1100 H   0  0  0  0  0  0  0  0  0  0  0  0
    1.6119   -2.0856    0.2996 H   0  0  0  0  0  0  0  0  0  0  0  0
    2.6887   -0.5900    0.4825 H   0  0  0  0  0  0  0  0  0  0  0  0
    1.1408    1.6867   -0.8090 H   0  0  0  0  0  0  0  0  0  0  0  0
    1.3765    1.6029    1.0187 H   0  0  0  0  0  0  0  0  0  0  0  0
   -0.9365    2.5957    0.4434 H   0  0  0  0  0  0  0  0  0  0  0  0
   -0.8493    1.4434   -1.8257 H   0  0  0  0  0  0  0  0  0  0  0  0
   -2.3149    0.7869   -0.9182 H   0  0  0  0  0  0  0  0  0  0  0  0
   -0.3092   -0.9254   -1.8181 H   0  0  0  0  0  0  0  0  0  0  0  0
   -2.2175   -1.1043    0.3564 H   0  0  0  0  0  0  0  0  0  0  0  0
   -0.7971   -2.3298    0.2469 H   0  0  0  0  0  0  0  0  0  0  0  0
    0.0498   -0.9857    2.0719 H   0  0  0  0  0  0  0  0  0  0  0  0
  1  2  1  0
  2  3  1  0
  3  4  1  0
  4  5  1  0
  5  6  1  0
  6  7  1  0
  7  8  1  0
  8  9  1  0
  6  2  1  0
  8  2  1  0
  9  4  1  0
  1 10  1  0
  1 11  1  0
  1 12  1  0
  3 13  1  0
  3 14  1  0
  4 15  1  0
  5 16  1  0
  5 17  1  0
  6 18  1  0
  7 19  1  0
  7 20  1  0
  8 21  1  0
M  END
