
     RDKit          3D

 17 18  0  0  0  0  0  0  0  0999 V2000
   -2.1238   -1.0233   -0.1628 C   0  0  0  0  0  0  0  0  0  0  0  0
   -1.0695   -0.0016    0.1424 C   0  0  0  0  0  0  0  0  0  0  0  0
    0.1403   -0.5425    0.7923 C   0  0  0  0  0  0  0  0  0  0  0  0
    1.2147    0.0816    0.3437 C   0  0  0  0  0  0  0  0  0  0  0  0
    2.5582   -0.2268    0.7940 C   0  0  0  0  0  0  0  0  0  0  0  0
    2.8076   -1.1113    1.6458 O   0  0  0  0  0  0  0  0  0  0  0  0
    0.8330    1.1058   -0.6541 C   0  0  0  0  0  0  0  0  0  0  0  0
   -0.6685    0.9989   -0.7839 C   0  0  0  0  0  0  0  0  0  0  0  0
   -1.4149    1.3274    0.3437 O   0  0  0  0  0  0  0  0  0  0  0  0
   -2.1019   -1.8470    0.5818 H   0  0  0  0  0  0  0  0  0  0  0  0
   -3.1082   -0.5100   -0.1550 H   0  0  0  0  0  0  0  0  0  0  0  0
   -1.8891   -1.4468   -1.1728 H   0  0  0  0  0  0  0  0  0  0  0  0
    0.1274   -1.3305    1.5226 H   0  0  0  0  0  0  0  0  0  0  0  0
    3.3835    0.3252    0.3819 H   0  0  0  0  0  0  0  0  0  0  0  0
    1.1157    2.0961   -0.2489 H   0  0  0  0  0  0  0  0  0  0  0  0
    1.3219    0.8652   -1.6073 H   0  0  0  0  0  0  0  0  0  0  0  0
   -1.1265    1.2396   -1.7635 H   0  0  0  0  0  0  0  0  0  0  0  0
  1  2  1  0
  2  3  1  0
  3  4  2  0
  4  5  1  0
  5  6  2  0
  4  7  1  0
  7  8  1  0
  8  9  1  0
  8  2  1  0
  9  2  1  0
  1 10  1  0
  1 11  1  0
  1 12  1  0
  3 13  1  0
  5 14  1  0
  7 15  1  0
  7 16  1  0
  8 17  1  0
M  END
