
     RDKit          3D

 17 18  0  0  0  0  0  0  0  0999 V2000
    2.0747   -0.0598   -0.8246 C   0  0  0  0  0  0  0  0  0  0  0  0
    0.7752    0.0342   -0.1651 C   0  0  0  0  0  0  0  0  0  0  0  0
    0.5848   -0.7822    0.9428 O   0  0  0  0  0  0  0  0  0  0  0  0
   -0.7918   -0.9870    1.1064 C   0  0  0  0  0  0  0  0  0  0  0  0
   -1.4140   -0.0825    0.0648 C   0  0  0  0  0  0  0  0  0  0  0  0
   -0.9738    1.3127    0.4626 C   0  0  0  0  0  0  0  0  0  0  0  0
    0.4098    1.3372    0.2384 O   0  0  0  0  0  0  0  0  0  0  0  0
   -0.4043   -0.3013   -1.0114 C   0  0  0  0  0  0  0  0  0  0  0  0
   -0.4912   -0.6307   -2.1581 O   0  0  0  0  0  0  0  0  0  0  0  0
    2.4827   -1.0973   -0.6919 H   0  0  0  0  0  0  0  0  0  0  0  0
    2.8110    0.5954   -0.2828 H   0  0  0  0  0  0  0  0  0  0  0  0
    2.0350    0.1686   -1.8993 H   0  0  0  0  0  0  0  0  0  0  0  0
   -0.9606   -2.0684    0.8680 H   0  0  0  0  0  0  0  0  0  0  0  0
   -1.0903   -0.7241    2.1322 H   0  0  0  0  0  0  0  0  0  0  0  0
   -2.4266   -0.2284   -0.1770 H   0  0  0  0  0  0  0  0  0  0  0  0
   -1.1213    1.4630    1.5495 H   0  0  0  0  0  0  0  0  0  0  0  0
   -1.4992    2.0507   -0.1545 H   0  0  0  0  0  0  0  0  0  0  0  0
  1  2  1  0
  2  3  1  0
  3  4  1  0
  4  5  1  0
  5  6  1  0
  6  7  1  0
  5  8  1  0
  8  9  2  0
  7  2  1  0
  8  2  1  0
  1 10  1  0
  1 11  1  0
  1 12  1  0
  4 13  1  0
  4 14  1  0
  5 15  1  0
  6 16  1  0
  6 17  1  0
M  END
