
     RDKit          3D

 21 23  0  0  0  0  0  0  0  0999 V2000
    2.3645    0.1166    0.1977 C   0  0  0  0  0  0  0  0  0  0  0  0
    0.9915    0.0414   -0.2465 C   0  0  0  0  0  0  0  0  0  0  0  0
    0.7011    0.0561   -1.6991 C   0  0  0  0  0  0  0  0  0  0  0  0
   -0.6264   -0.0083   -1.7373 C   0  0  0  0  0  0  0  0  0  0  0  0
   -1.0009   -0.0392   -0.2921 C   0  0  0  0  0  0  0  0  0  0  0  0
   -2.3842   -0.1251    0.0871 C   0  0  0  0  0  0  0  0  0  0  0  0
   -0.0607    0.9220    0.3609 C   0  0  0  0  0  0  0  0  0  0  0  0
   -0.0375    0.0018    1.5394 C   0  0  0  0  0  0  0  0  0  0  0  0
    0.0284   -0.9216    0.3618 C   0  0  0  0  0  0  0  0  0  0  0  0
    2.6549    1.1756    0.4607 H   0  0  0  0  0  0  0  0  0  0  0  0
    3.0404   -0.2342   -0.6263 H   0  0  0  0  0  0  0  0  0  0  0  0
    2.6349   -0.5188    1.0644 H   0  0  0  0  0  0  0  0  0  0  0  0
    1.4503    0.1083   -2.4735 H   0  0  0  0  0  0  0  0  0  0  0  0
   -1.3255   -0.0351   -2.5609 H   0  0  0  0  0  0  0  0  0  0  0  0
   -2.6183    0.4300    1.0059 H   0  0  0  0  0  0  0  0  0  0  0  0
   -3.0444    0.2694   -0.7117 H   0  0  0  0  0  0  0  0  0  0  0  0
   -2.6958   -1.1951    0.2333 H   0  0  0  0  0  0  0  0  0  0  0  0
   -0.0953    1.9235    0.3546 H   0  0  0  0  0  0  0  0  0  0  0  0
    0.8860   -0.0057    2.1477 H   0  0  0  0  0  0  0  0  0  0  0  0
   -0.9188   -0.0405    2.1739 H   0  0  0  0  0  0  0  0  0  0  0  0
    0.0558   -1.9213    0.3601 H   0  0  0  0  0  0  0  0  0  0  0  0
  1  2  1  0
  2  3  1  0
  3  4  2  0
  4  5  1  0
  5  6  1  0
  5  7  1  0
  7  8  1  0
  8  9  1  0
  7  2  1  0
  9  2  1  0
  9  5  1  0
  1 10  1  0
  1 11  1  0
  1 12  1  0
  3 13  1  0
  4 14  1  0
  6 15  1  0
  6 16  1  0
  6 17  1  0
  7 18  1  0
  8 19  1  0
  8 20  1  0
  9 21  1  0
M  END
