
     RDKit          3D

 19 22  0  0  0  0  0  0  0  0999 V2000
   -2.5013    0.5239    0.0154 C   0  0  0  0  0  0  0  0  0  0  0  0
   -1.1130    0.0367    0.1780 C   0  0  0  0  0  0  0  0  0  0  0  0
   -0.8329   -1.1712    0.8069 O   0  0  0  0  0  0  0  0  0  0  0  0
    0.5292   -1.2677    0.7528 C   0  0  0  0  0  0  0  0  0  0  0  0
    1.0573    0.1238    1.0862 C   0  0  0  0  0  0  0  0  0  0  0  0
    2.1026   -0.1458   -0.0057 C   0  0  0  0  0  0  0  0  0  0  0  0
    0.9092   -0.8462   -0.6687 C   0  0  0  0  0  0  0  0  0  0  0  0
   -0.1535    0.1858   -0.8953 C   0  0  0  0  0  0  0  0  0  0  0  0
   -0.0327    0.9474    0.4766 C   0  0  0  0  0  0  0  0  0  0  0  0
   -3.2399    0.1353    0.7115 H   0  0  0  0  0  0  0  0  0  0  0  0
   -2.4882    1.6438    0.1640 H   0  0  0  0  0  0  0  0  0  0  0  0
   -2.8000    0.4038   -1.0632 H   0  0  0  0  0  0  0  0  0  0  0  0
    1.0425   -2.1040    1.1668 H   0  0  0  0  0  0  0  0  0  0  0  0
    1.4055    0.3108    2.0690 H   0  0  0  0  0  0  0  0  0  0  0  0
    2.3245    0.8064   -0.5066 H   0  0  0  0  0  0  0  0  0  0  0  0
    2.9201   -0.7908    0.2822 H   0  0  0  0  0  0  0  0  0  0  0  0
    1.1053   -1.6007   -1.3802 H   0  0  0  0  0  0  0  0  0  0  0  0
   -0.2174    0.7913   -1.7772 H   0  0  0  0  0  0  0  0  0  0  0  0
   -0.0174    2.0175    0.4149 H   0  0  0  0  0  0  0  0  0  0  0  0
  1  2  1  0
  2  3  1  0
  3  4  1  0
  4  5  1  0
  5  6  1  0
  6  7  1  0
  7  8  1  0
  8  9  1  0
  8  2  1  0
  9  2  1  0
  7  4  1  0
  9  5  1  0
  1 10  1  0
  1 11  1  0
  1 12  1  0
  4 13  1  0
  5 14  1  0
  6 15  1  0
  6 16  1  0
  7 17  1  0
  8 18  1  0
  9 19  1  0
M  END
