
     RDKit          3D

 21 23  0  0  0  0  0  0  0  0999 V2000
    2.2277    0.5133    0.1547 C   0  0  0  0  0  0  0  0  0  0  0  0
    0.8624   -0.0339    0.0622 C   0  0  0  0  0  0  0  0  0  0  0  0
    0.7502   -1.4211   -0.0144 O   0  0  0  0  0  0  0  0  0  0  0  0
   -0.6409   -1.5499   -0.1203 C   0  0  0  0  0  0  0  0  0  0  0  0
   -1.1030   -0.7876    1.0957 C   0  0  0  0  0  0  0  0  0  0  0  0
   -0.1453    0.4032    1.0743 C   0  0  0  0  0  0  0  0  0  0  0  0
   -0.6537    1.4146    0.0695 C   0  0  0  0  0  0  0  0  0  0  0  0
   -0.0427    0.5296   -1.0077 C   0  0  0  0  0  0  0  0  0  0  0  0
   -0.9183   -0.6791   -1.3296 C   0  0  0  0  0  0  0  0  0  0  0  0
    2.6697    0.2211    1.1294 H   0  0  0  0  0  0  0  0  0  0  0  0
    2.8508    0.0948   -0.6428 H   0  0  0  0  0  0  0  0  0  0  0  0
    2.2215    1.5962    0.0721 H   0  0  0  0  0  0  0  0  0  0  0  0
   -0.9962   -2.5622   -0.1977 H   0  0  0  0  0  0  0  0  0  0  0  0
   -1.0567   -1.3522    2.0250 H   0  0  0  0  0  0  0  0  0  0  0  0
   -2.1418   -0.4231    0.8548 H   0  0  0  0  0  0  0  0  0  0  0  0
    0.1904    0.7702    2.0296 H   0  0  0  0  0  0  0  0  0  0  0  0
   -1.7654    1.4476    0.0445 H   0  0  0  0  0  0  0  0  0  0  0  0
   -0.2189    2.4125    0.1205 H   0  0  0  0  0  0  0  0  0  0  0  0
    0.4189    1.0284   -1.8463 H   0  0  0  0  0  0  0  0  0  0  0  0
   -1.9826   -0.4258   -1.3692 H   0  0  0  0  0  0  0  0  0  0  0  0
   -0.5261   -1.1967   -2.2042 H   0  0  0  0  0  0  0  0  0  0  0  0
  1  2  1  0
  2  3  1  0
  3  4  1  0
  4  5  1  0
  5  6  1  0
  6  7  1  0
  7  8  1  0
  8  9  1  0
  6  2  1  0
  8  2  1  0
  9  4  1  0
  1 10  1  0
  1 11  1  0
  1 12  1  0
  4 13  1  0
  5 14  1  0
  5 15  1  0
  6 16  1  0
  7 17  1  0
  7 18  1  0
  8 19  1  0
  9 20  1  0
  9 21  1  0
M  END
