
     RDKit          3D

 19 21  0  0  0  0  0  0  0  0999 V2000
   -2.0717   -0.8973    0.5116 C   0  0  0  0  0  0  0  0  0  0  0  0
   -1.0413    0.0177   -0.0510 C   0  0  0  0  0  0  0  0  0  0  0  0
   -1.5901    0.6703   -1.2977 O   0  0  0  0  0  0  0  0  0  0  0  0
   -1.0790    1.4026   -0.2101 C   0  0  0  0  0  0  0  0  0  0  0  0
    0.3287    1.8449   -0.3321 C   0  0  0  0  0  0  0  0  0  0  0  0
    1.1613    0.8323   -0.2993 C   0  0  0  0  0  0  0  0  0  0  0  0
    2.2753   -0.1573   -0.2834 C   0  0  0  0  0  0  0  0  0  0  0  0
    1.2742   -0.9320    0.6519 C   0  0  0  0  0  0  0  0  0  0  0  0
    0.3130   -0.4565   -0.3719 C   0  0  0  0  0  0  0  0  0  0  0  0
   -3.1211   -0.5927    0.2373 H   0  0  0  0  0  0  0  0  0  0  0  0
   -1.9263   -1.9035    0.0294 H   0  0  0  0  0  0  0  0  0  0  0  0
   -2.0379   -0.9953    1.6063 H   0  0  0  0  0  0  0  0  0  0  0  0
   -1.7941    2.0280    0.3665 H   0  0  0  0  0  0  0  0  0  0  0  0
    0.6132    2.8994   -0.4363 H   0  0  0  0  0  0  0  0  0  0  0  0
    2.3543   -0.6321   -1.2733 H   0  0  0  0  0  0  0  0  0  0  0  0
    3.1858    0.1329    0.2321 H   0  0  0  0  0  0  0  0  0  0  0  0
    1.2075   -0.3416    1.5790 H   0  0  0  0  0  0  0  0  0  0  0  0
    1.5021   -1.9879    0.7212 H   0  0  0  0  0  0  0  0  0  0  0  0
    0.4462   -0.9318   -1.3800 H   0  0  0  0  0  0  0  0  0  0  0  0
  1  2  1  0
  2  3  1  0
  3  4  1  0
  4  5  1  0
  5  6  2  0
  6  7  1  0
  7  8  1  0
  8  9  1  0
  4  2  1  0
  9  6  1  0
  9  2  1  0
  1 10  1  0
  1 11  1  0
  1 12  1  0
  4 13  1  0
  5 14  1  0
  7 15  1  0
  7 16  1  0
  8 17  1  0
  8 18  1  0
  9 19  1  0
M  END
