
     RDKit          3D

 19 21  0  0  0  0  0  0  0  0999 V2000
    2.2816    0.3614   -0.2119 C   0  0  0  0  0  0  0  0  0  0  0  0
    0.7974    0.2127   -0.1864 C   0  0  0  0  0  0  0  0  0  0  0  0
    0.4395   -1.1355    0.4198 C   0  0  0  0  0  0  0  0  0  0  0  0
   -1.0128   -1.0397    0.7949 C   0  0  0  0  0  0  0  0  0  0  0  0
   -1.7097    0.0678    0.0807 C   0  0  0  0  0  0  0  0  0  0  0  0
   -1.0547    1.3714    0.1107 C   0  0  0  0  0  0  0  0  0  0  0  0
    0.2471    1.2632    0.5521 O   0  0  0  0  0  0  0  0  0  0  0  0
   -1.1204    0.5425   -1.1635 C   0  0  0  0  0  0  0  0  0  0  0  0
    0.1858    0.2633   -1.4082 O   0  0  0  0  0  0  0  0  0  0  0  0
    2.6587    0.1522    0.8149 H   0  0  0  0  0  0  0  0  0  0  0  0
    2.6295    1.3575   -0.4843 H   0  0  0  0  0  0  0  0  0  0  0  0
    2.7488   -0.4205   -0.8610 H   0  0  0  0  0  0  0  0  0  0  0  0
    1.1015   -1.4390    1.2266 H   0  0  0  0  0  0  0  0  0  0  0  0
    0.5601   -1.8784   -0.4219 H   0  0  0  0  0  0  0  0  0  0  0  0
   -1.0376   -0.8950    1.9148 H   0  0  0  0  0  0  0  0  0  0  0  0
   -1.5125   -2.0088    0.5503 H   0  0  0  0  0  0  0  0  0  0  0  0
   -2.8178    0.0122    0.1220 H   0  0  0  0  0  0  0  0  0  0  0  0
   -1.5928    2.3284    0.1268 H   0  0  0  0  0  0  0  0  0  0  0  0
   -1.7914    0.8843   -1.9764 H   0  0  0  0  0  0  0  0  0  0  0  0
  1  2  1  0
  2  3  1  0
  3  4  1  0
  4  5  1  0
  5  6  1  0
  6  7  1  0
  6  8  1  0
  8  9  1  0
  7  2  1  0
  9  2  1  0
  8  5  1  0
  1 10  1  0
  1 11  1  0
  1 12  1  0
  3 13  1  0
  3 14  1  0
  4 15  1  0
  4 16  1  0
  5 17  1  0
  6 18  1  0
  8 19  1  0
M  END
