
     RDKit          3D

 19 21  0  0  0  0  0  0  0  0999 V2000
    1.8783    0.1986   -0.8556 C   0  0  0  0  0  0  0  0  0  0  0  0
    0.6165   -0.1213   -0.1901 C   0  0  0  0  0  0  0  0  0  0  0  0
   -0.7299    0.0093   -0.8108 C   0  0  0  0  0  0  0  0  0  0  0  0
   -1.3386    1.1124   -0.0150 C   0  0  0  0  0  0  0  0  0  0  0  0
   -0.6595    1.3250    1.1034 C   0  0  0  0  0  0  0  0  0  0  0  0
    0.4848    0.4279    1.2427 C   0  0  0  0  0  0  0  0  0  0  0  0
    0.4174   -1.0254    0.9346 C   0  0  0  0  0  0  0  0  0  0  0  0
   -0.8059   -1.6713    0.8009 O   0  0  0  0  0  0  0  0  0  0  0  0
   -1.4016   -1.2689   -0.3639 C   0  0  0  0  0  0  0  0  0  0  0  0
    1.6617    0.8733   -1.7360 H   0  0  0  0  0  0  0  0  0  0  0  0
    2.5637    0.8242   -0.2127 H   0  0  0  0  0  0  0  0  0  0  0  0
    2.4387   -0.6799   -1.2127 H   0  0  0  0  0  0  0  0  0  0  0  0
   -0.7490    0.1724   -1.8836 H   0  0  0  0  0  0  0  0  0  0  0  0
   -2.2240    1.6477   -0.3439 H   0  0  0  0  0  0  0  0  0  0  0  0
   -0.9423    2.0847    1.8169 H   0  0  0  0  0  0  0  0  0  0  0  0
    1.4254    0.7819    1.7291 H   0  0  0  0  0  0  0  0  0  0  0  0
    1.2163   -1.6632    1.3289 H   0  0  0  0  0  0  0  0  0  0  0  0
   -2.4786   -1.0501   -0.1447 H   0  0  0  0  0  0  0  0  0  0  0  0
   -1.3734   -1.9775   -1.1874 H   0  0  0  0  0  0  0  0  0  0  0  0
  1  2  1  0
  2  3  1  0
  3  4  1  0
  4  5  2  0
  5  6  1  0
  6  7  1  0
  7  8  1  0
  8  9  1  0
  6  2  1  0
  7  2  1  0
  9  3  1  0
  1 10  1  0
  1 11  1  0
  1 12  1  0
  3 13  1  0
  4 14  1  0
  5 15  1  0
  6 16  1  0
  7 17  1  0
  9 18  1  0
  9 19  1  0
M  END
