
     RDKit          3D

 23 25  0  0  0  0  0  0  0  0999 V2000
    1.6757    1.3020    0.0558 C   0  0  0  0  0  0  0  0  0  0  0  0
    0.7684    0.2015   -0.1080 C   0  0  0  0  0  0  0  0  0  0  0  0
    1.1453   -0.9770   -0.9845 C   0  0  0  0  0  0  0  0  0  0  0  0
   -0.3753   -1.1770   -1.0277 C   0  0  0  0  0  0  0  0  0  0  0  0
   -0.6330   -1.5702    0.3994 C   0  0  0  0  0  0  0  0  0  0  0  0
    0.0366   -0.3718    1.0928 C   0  0  0  0  0  0  0  0  0  0  0  0
   -1.0121    0.7000    1.2997 C   0  0  0  0  0  0  0  0  0  0  0  0
   -1.5656    0.7932   -0.1310 C   0  0  0  0  0  0  0  0  0  0  0  0
   -0.4502    0.3540   -1.0175 C   0  0  0  0  0  0  0  0  0  0  0  0
    2.7113    1.0161   -0.2947 H   0  0  0  0  0  0  0  0  0  0  0  0
    1.4565    2.2577   -0.4479 H   0  0  0  0  0  0  0  0  0  0  0  0
    1.8243    1.5202    1.1540 H   0  0  0  0  0  0  0  0  0  0  0  0
    1.5789   -0.6186   -1.9189 H   0  0  0  0  0  0  0  0  0  0  0  0
    1.6869   -1.7679   -0.4482 H   0  0  0  0  0  0  0  0  0  0  0  0
   -0.7938   -1.7026   -1.8335 H   0  0  0  0  0  0  0  0  0  0  0  0
   -1.6867   -1.6605    0.6615 H   0  0  0  0  0  0  0  0  0  0  0  0
   -0.0181   -2.4612    0.6161 H   0  0  0  0  0  0  0  0  0  0  0  0
    0.6358   -0.6214    1.9318 H   0  0  0  0  0  0  0  0  0  0  0  0
   -1.7791    0.4361    2.0243 H   0  0  0  0  0  0  0  0  0  0  0  0
   -0.5242    1.6850    1.4811 H   0  0  0  0  0  0  0  0  0  0  0  0
   -2.4013    0.0467   -0.1981 H   0  0  0  0  0  0  0  0  0  0  0  0
   -1.9880    1.7708   -0.3494 H   0  0  0  0  0  0  0  0  0  0  0  0
   -0.2924    0.8448   -1.9571 H   0  0  0  0  0  0  0  0  0  0  0  0
  1  2  1  0
  2  3  1  0
  3  4  1  0
  4  5  1  0
  5  6  1  0
  6  7  1  0
  7  8  1  0
  8  9  1  0
  6  2  1  0
  9  2  1  0
  9  4  1  0
  1 10  1  0
  1 11  1  0
  1 12  1  0
  3 13  1  0
  3 14  1  0
  4 15  1  0
  5 16  1  0
  5 17  1  0
  6 18  1  0
  7 19  1  0
  7 20  1  0
  8 21  1  0
  8 22  1  0
  9 23  1  0
M  END
