
     RDKit          3D

 21 23  0  0  0  0  0  0  0  0999 V2000
    2.3058   -0.0534   -0.3218 C   0  0  0  0  0  0  0  0  0  0  0  0
    0.8767   -0.1176    0.1916 C   0  0  0  0  0  0  0  0  0  0  0  0
    0.1556   -1.3978   -0.1121 C   0  0  0  0  0  0  0  0  0  0  0  0
   -1.1533   -1.0074   -0.7435 C   0  0  0  0  0  0  0  0  0  0  0  0
   -2.1397   -0.3981    0.2549 C   0  0  0  0  0  0  0  0  0  0  0  0
   -1.3294    0.4482   -0.6241 C   0  0  0  0  0  0  0  0  0  0  0  0
   -0.0099    1.0110   -0.2363 C   0  0  0  0  0  0  0  0  0  0  0  0
    0.1416    1.4642    1.1856 C   0  0  0  0  0  0  0  0  0  0  0  0
    0.8112    0.2947    1.5249 O   0  0  0  0  0  0  0  0  0  0  0  0
    2.4266    0.7040   -1.1069 H   0  0  0  0  0  0  0  0  0  0  0  0
    3.0168    0.1359    0.5238 H   0  0  0  0  0  0  0  0  0  0  0  0
    2.5199   -1.0479   -0.7919 H   0  0  0  0  0  0  0  0  0  0  0  0
    0.7446   -2.0121   -0.8151 H   0  0  0  0  0  0  0  0  0  0  0  0
   -0.0991   -1.9599    0.8240 H   0  0  0  0  0  0  0  0  0  0  0  0
   -1.5422   -1.6003   -1.5819 H   0  0  0  0  0  0  0  0  0  0  0  0
   -1.9391   -0.5238    1.3342 H   0  0  0  0  0  0  0  0  0  0  0  0
   -3.2077   -0.5332   -0.0243 H   0  0  0  0  0  0  0  0  0  0  0  0
   -1.8675    1.0204   -1.4317 H   0  0  0  0  0  0  0  0  0  0  0  0
    0.4083    1.6992   -0.9848 H   0  0  0  0  0  0  0  0  0  0  0  0
   -0.8483    1.4789    1.6872 H   0  0  0  0  0  0  0  0  0  0  0  0
    0.7289    2.3951    1.2482 H   0  0  0  0  0  0  0  0  0  0  0  0
  1  2  1  0
  2  3  1  0
  3  4  1  0
  4  5  1  0
  5  6  1  0
  6  7  1  0
  7  8  1  0
  8  9  1  0
  7  2  1  0
  9  2  1  0
  6  4  1  0
  1 10  1  0
  1 11  1  0
  1 12  1  0
  3 13  1  0
  3 14  1  0
  4 15  1  0
  5 16  1  0
  5 17  1  0
  6 18  1  0
  7 19  1  0
  8 20  1  0
  8 21  1  0
M  END
