
     RDKit          3D

 23 25  0  0  0  0  0  0  0  0999 V2000
    2.6053    0.5517    0.0578 C   0  0  0  0  0  0  0  0  0  0  0  0
    1.1349    0.1960    0.2590 C   0  0  0  0  0  0  0  0  0  0  0  0
    0.8552   -1.2579    0.3322 C   0  0  0  0  0  0  0  0  0  0  0  0
   -0.2614   -1.1341   -0.6818 C   0  0  0  0  0  0  0  0  0  0  0  0
   -1.5892   -1.1288   -0.0005 C   0  0  0  0  0  0  0  0  0  0  0  0
   -2.1754    0.2576    0.0960 C   0  0  0  0  0  0  0  0  0  0  0  0
   -1.2063    1.2471    0.7045 C   0  0  0  0  0  0  0  0  0  0  0  0
    0.1249    1.2309    0.0137 C   0  0  0  0  0  0  0  0  0  0  0  0
    0.2679    0.2043   -1.0428 C   0  0  0  0  0  0  0  0  0  0  0  0
    2.7831    1.6290    0.1492 H   0  0  0  0  0  0  0  0  0  0  0  0
    3.2201   -0.0155    0.8166 H   0  0  0  0  0  0  0  0  0  0  0  0
    2.9513    0.1719   -0.9290 H   0  0  0  0  0  0  0  0  0  0  0  0
    1.6720   -1.8983   -0.1144 H   0  0  0  0  0  0  0  0  0  0  0  0
    0.5714   -1.6886    1.2981 H   0  0  0  0  0  0  0  0  0  0  0  0
   -0.1870   -1.8366   -1.5431 H   0  0  0  0  0  0  0  0  0  0  0  0
   -2.3459   -1.7680   -0.4868 H   0  0  0  0  0  0  0  0  0  0  0  0
   -1.5007   -1.5259    1.0531 H   0  0  0  0  0  0  0  0  0  0  0  0
   -2.4209    0.5779   -0.9241 H   0  0  0  0  0  0  0  0  0  0  0  0
   -3.0565    0.2105    0.7757 H   0  0  0  0  0  0  0  0  0  0  0  0
   -1.6901    2.2440    0.5853 H   0  0  0  0  0  0  0  0  0  0  0  0
   -1.1033    1.0995    1.8047 H   0  0  0  0  0  0  0  0  0  0  0  0
    0.5219    2.2347   -0.2680 H   0  0  0  0  0  0  0  0  0  0  0  0
    0.8289    0.3988   -1.9555 H   0  0  0  0  0  0  0  0  0  0  0  0
  1  2  1  0
  2  3  1  0
  3  4  1  0
  4  5  1  0
  5  6  1  0
  6  7  1  0
  7  8  1  0
  8  9  1  0
  8  2  1  0
  9  2  1  0
  9  4  1  0
  1 10  1  0
  1 11  1  0
  1 12  1  0
  3 13  1  0
  3 14  1  0
  4 15  1  0
  5 16  1  0
  5 17  1  0
  6 18  1  0
  6 19  1  0
  7 20  1  0
  7 21  1  0
  8 22  1  0
  9 23  1  0
M  END
