
     RDKit          3D

 21 23  0  0  0  0  0  0  0  0999 V2000
   -1.1527   -1.5585   -0.6760 C   0  0  0  0  0  0  0  0  0  0  0  0
   -0.5746   -0.5853    0.2995 C   0  0  0  0  0  0  0  0  0  0  0  0
   -1.3763    0.4592    0.9352 C   0  0  0  0  0  0  0  0  0  0  0  0
   -0.5566    0.9079   -0.1925 C   0  0  0  0  0  0  0  0  0  0  0  0
   -1.1478    1.1486   -1.4162 O   0  0  0  0  0  0  0  0  0  0  0  0
    0.9042    1.1530   -0.1189 C   0  0  0  0  0  0  0  0  0  0  0  0
    1.4679   -0.1415   -0.7276 C   0  0  0  0  0  0  0  0  0  0  0  0
    0.8924   -0.7428    0.5662 C   0  0  0  0  0  0  0  0  0  0  0  0
    1.3648    0.5455    1.2135 C   0  0  0  0  0  0  0  0  0  0  0  0
   -0.4377   -2.3682   -0.9108 H   0  0  0  0  0  0  0  0  0  0  0  0
   -2.0380   -2.0692   -0.2101 H   0  0  0  0  0  0  0  0  0  0  0  0
   -1.4198   -1.0930   -1.6553 H   0  0  0  0  0  0  0  0  0  0  0  0
   -1.2095    0.8017    1.9859 H   0  0  0  0  0  0  0  0  0  0  0  0
   -2.4803    0.4041    0.7186 H   0  0  0  0  0  0  0  0  0  0  0  0
   -1.6092    2.0450   -1.3591 H   0  0  0  0  0  0  0  0  0  0  0  0
    1.3428    2.0673   -0.4221 H   0  0  0  0  0  0  0  0  0  0  0  0
    2.5544   -0.2021   -0.7456 H   0  0  0  0  0  0  0  0  0  0  0  0
    0.9019   -0.5277   -1.5794 H   0  0  0  0  0  0  0  0  0  0  0  0
    1.2919   -1.6664    0.8952 H   0  0  0  0  0  0  0  0  0  0  0  0
    0.8232    0.8815    2.0926 H   0  0  0  0  0  0  0  0  0  0  0  0
    2.4592    0.5410    1.3070 H   0  0  0  0  0  0  0  0  0  0  0  0
  1  2  1  0
  2  3  1  0
  3  4  1  0
  4  5  1  0
  4  6  1  0
  6  7  1  0
  7  8  1  0
  8  9  1  0
  4  2  1  0
  9  6  1  0
  8  2  1  0
  1 10  1  0
  1 11  1  0
  1 12  1  0
  3 13  1  0
  3 14  1  0
  5 15  1  0
  6 16  1  0
  7 17  1  0
  7 18  1  0
  8 19  1  0
  9 20  1  0
  9 21  1  0
M  END
