
     RDKit          3D

 21 22  0  0  0  0  0  0  0  0999 V2000
   -1.8614   -0.4978    1.1668 C   0  0  0  0  0  0  0  0  0  0  0  0
   -0.6904   -0.4694    0.2099 C   0  0  0  0  0  0  0  0  0  0  0  0
   -0.4836   -1.4985   -0.8022 C   0  0  0  0  0  0  0  0  0  0  0  0
   -1.0937   -0.2209   -1.2243 C   0  0  0  0  0  0  0  0  0  0  0  0
   -0.3779    0.8300   -1.7036 O   0  0  0  0  0  0  0  0  0  0  0  0
    0.2016    1.5135   -0.6571 C   0  0  0  0  0  0  0  0  0  0  0  0
    0.4034    0.5088    0.4637 C   0  0  0  0  0  0  0  0  0  0  0  0
    1.7903   -0.0711    0.2822 C   0  0  0  0  0  0  0  0  0  0  0  0
    2.6977    0.9779    0.5586 O   0  0  0  0  0  0  0  0  0  0  0  0
   -1.5032   -0.1429    2.1400 H   0  0  0  0  0  0  0  0  0  0  0  0
   -2.3920   -1.4506    1.1788 H   0  0  0  0  0  0  0  0  0  0  0  0
   -2.5880    0.2775    0.8032 H   0  0  0  0  0  0  0  0  0  0  0  0
   -1.1340   -2.3953   -0.7622 H   0  0  0  0  0  0  0  0  0  0  0  0
    0.5596   -1.7559   -1.0967 H   0  0  0  0  0  0  0  0  0  0  0  0
   -2.1683   -0.2583   -1.5007 H   0  0  0  0  0  0  0  0  0  0  0  0
   -0.3987    2.3597   -0.2915 H   0  0  0  0  0  0  0  0  0  0  0  0
    1.1727    1.9190   -1.0164 H   0  0  0  0  0  0  0  0  0  0  0  0
    0.3006    0.9786    1.4518 H   0  0  0  0  0  0  0  0  0  0  0  0
    2.0015   -0.9226    0.9281 H   0  0  0  0  0  0  0  0  0  0  0  0
    1.9554   -0.2981   -0.8050 H   0  0  0  0  0  0  0  0  0  0  0  0
    3.6082    0.6166    0.6766 H   0  0  0  0  0  0  0  0  0  0  0  0
  1  2  1  0
  2  3  1  0
  3  4  1  0
  4  5  1  0
  5  6  1  0
  6  7  1  0
  7  8  1  0
  8  9  1  0
  4  2  1  0
  7  2  1  0
  1 10  1  0
  1 11  1  0
  1 12  1  0
  3 13  1  0
  3 14  1  0
  4 15  1  0
  6 16  1  0
  6 17  1  0
  7 18  1  0
  8 19  1  0
  8 20  1  0
  9 21  1  0
M  END
