
     RDKit          3D

 19 20  0  0  0  0  0  0  0  0999 V2000
   -1.5048   -0.0178    0.8188 C   0  0  0  0  0  0  0  0  0  0  0  0
   -0.7440   -0.1130   -0.4805 C   0  0  0  0  0  0  0  0  0  0  0  0
   -0.5549   -1.4041   -1.0110 C   0  0  0  0  0  0  0  0  0  0  0  0
    0.6312   -0.8790   -0.4518 C   0  0  0  0  0  0  0  0  0  0  0  0
    1.0866   -0.6129    0.9158 C   0  0  0  0  0  0  0  0  0  0  0  0
    1.0170    0.7880    1.1051 O   0  0  0  0  0  0  0  0  0  0  0  0
    1.0084    1.4877   -0.0984 C   0  0  0  0  0  0  0  0  0  0  0  0
   -0.2600    1.2050   -0.8920 C   0  0  0  0  0  0  0  0  0  0  0  0
   -0.7229    1.9621   -1.6893 O   0  0  0  0  0  0  0  0  0  0  0  0
   -1.4148   -0.8891    1.4631 H   0  0  0  0  0  0  0  0  0  0  0  0
   -1.2962    0.8849    1.4114 H   0  0  0  0  0  0  0  0  0  0  0  0
   -2.5940    0.0571    0.5338 H   0  0  0  0  0  0  0  0  0  0  0  0
   -1.0496   -2.2711   -0.5158 H   0  0  0  0  0  0  0  0  0  0  0  0
   -0.6236   -1.5424   -2.1259 H   0  0  0  0  0  0  0  0  0  0  0  0
    1.4169   -0.5555   -1.1982 H   0  0  0  0  0  0  0  0  0  0  0  0
    0.5919   -1.1678    1.7102 H   0  0  0  0  0  0  0  0  0  0  0  0
    2.1860   -0.8520    1.0308 H   0  0  0  0  0  0  0  0  0  0  0  0
    1.9013    1.3619   -0.7027 H   0  0  0  0  0  0  0  0  0  0  0  0
    0.9255    2.5581    0.1766 H   0  0  0  0  0  0  0  0  0  0  0  0
  1  2  1  0
  2  3  1  0
  3  4  1  0
  4  5  1  0
  5  6  1  0
  6  7  1  0
  7  8  1  0
  8  9  2  0
  4  2  1  0
  8  2  1  0
  1 10  1  0
  1 11  1  0
  1 12  1  0
  3 13  1  0
  3 14  1  0
  4 15  1  0
  5 16  1  0
  5 17  1  0
  7 18  1  0
  7 19  1  0
M  END
