
     RDKit          3D

 17 18  0  0  0  0  0  0  0  0999 V2000
   -2.2394    0.3573   -0.0798 C   0  0  0  0  0  0  0  0  0  0  0  0
   -0.8725    0.2177   -0.0988 C   0  0  0  0  0  0  0  0  0  0  0  0
   -0.0897   -0.9893   -0.5361 C   0  0  0  0  0  0  0  0  0  0  0  0
    0.8935    0.0667   -0.1255 C   0  0  0  0  0  0  0  0  0  0  0  0
    2.2623    0.0194   -0.2448 C   0  0  0  0  0  0  0  0  0  0  0  0
    0.0614    0.3067    1.0801 C   0  0  0  0  0  0  0  0  0  0  0  0
    0.0504    0.9843   -0.7958 O   0  0  0  0  0  0  0  0  0  0  0  0
   -2.8049   -0.3548   -0.7505 H   0  0  0  0  0  0  0  0  0  0  0  0
   -2.6185    1.3726   -0.3996 H   0  0  0  0  0  0  0  0  0  0  0  0
   -2.7204    0.2052    0.9294 H   0  0  0  0  0  0  0  0  0  0  0  0
   -0.1133   -1.2416   -1.5990 H   0  0  0  0  0  0  0  0  0  0  0  0
   -0.2051   -1.8166    0.1859 H   0  0  0  0  0  0  0  0  0  0  0  0
    2.8158   -0.1534    0.7258 H   0  0  0  0  0  0  0  0  0  0  0  0
    2.7277    0.9738   -0.6372 H   0  0  0  0  0  0  0  0  0  0  0  0
    2.6468   -0.7654   -0.9632 H   0  0  0  0  0  0  0  0  0  0  0  0
    0.2213    1.3248    1.4862 H   0  0  0  0  0  0  0  0  0  0  0  0
   -0.0152   -0.5072    1.8229 H   0  0  0  0  0  0  0  0  0  0  0  0
  1  2  1  0
  2  3  1  0
  3  4  1  0
  4  5  1  0
  4  6  1  0
  4  7  1  0
  6  2  1  0
  7  2  1  0
  1  8  1  0
  1  9  1  0
  1 10  1  0
  3 11  1  0
  3 12  1  0
  5 13  1  0
  5 14  1  0
  5 15  1  0
  6 16  1  0
  6 17  1  0
M  END
