
     RDKit          3D

 19 21  0  0  0  0  0  0  0  0999 V2000
    1.9227   -0.6816    0.6535 C   0  0  0  0  0  0  0  0  0  0  0  0
    0.6584   -0.2225    0.0233 C   0  0  0  0  0  0  0  0  0  0  0  0
   -0.4069   -1.1738   -0.4099 C   0  0  0  0  0  0  0  0  0  0  0  0
   -1.7041   -0.7470    0.2426 C   0  0  0  0  0  0  0  0  0  0  0  0
   -2.0321    0.4979   -0.2698 O   0  0  0  0  0  0  0  0  0  0  0  0
   -1.1685    1.4964    0.1746 C   0  0  0  0  0  0  0  0  0  0  0  0
    0.2681    1.1749   -0.1204 C   0  0  0  0  0  0  0  0  0  0  0  0
    0.5554    0.3496   -1.3112 C   0  0  0  0  0  0  0  0  0  0  0  0
   -0.3037   -0.6534   -1.6972 O   0  0  0  0  0  0  0  0  0  0  0  0
    1.6594   -1.3540    1.5037 H   0  0  0  0  0  0  0  0  0  0  0  0
    2.6198   -1.2064   -0.0131 H   0  0  0  0  0  0  0  0  0  0  0  0
    2.4075    0.2237    1.1268 H   0  0  0  0  0  0  0  0  0  0  0  0
   -0.1493   -2.2321   -0.2881 H   0  0  0  0  0  0  0  0  0  0  0  0
   -2.4951   -1.4528   -0.0152 H   0  0  0  0  0  0  0  0  0  0  0  0
   -1.5377   -0.7393    1.3413 H   0  0  0  0  0  0  0  0  0  0  0  0
   -1.2536    1.6979    1.2526 H   0  0  0  0  0  0  0  0  0  0  0  0
   -1.4233    2.4081   -0.4265 H   0  0  0  0  0  0  0  0  0  0  0  0
    0.9867    1.9434    0.1676 H   0  0  0  0  0  0  0  0  0  0  0  0
    1.3962    0.6709   -1.9346 H   0  0  0  0  0  0  0  0  0  0  0  0
  1  2  1  0
  2  3  1  0
  3  4  1  0
  4  5  1  0
  5  6  1  0
  6  7  1  0
  7  8  1  0
  8  9  1  0
  7  2  1  0
  8  2  1  0
  9  3  1  0
  1 10  1  0
  1 11  1  0
  1 12  1  0
  3 13  1  0
  4 14  1  0
  4 15  1  0
  6 16  1  0
  6 17  1  0
  7 18  1  0
  8 19  1  0
M  END
