
     RDKit          3D

 21 23  0  0  0  0  0  0  0  0999 V2000
    1.9808    0.2567    0.8747 C   0  0  0  0  0  0  0  0  0  0  0  0
    0.6919    0.2833    0.2067 C   0  0  0  0  0  0  0  0  0  0  0  0
    0.3855    1.5417   -0.5619 C   0  0  0  0  0  0  0  0  0  0  0  0
   -0.9320    1.5330   -0.7350 C   0  0  0  0  0  0  0  0  0  0  0  0
   -1.5349    0.3703   -0.0071 C   0  0  0  0  0  0  0  0  0  0  0  0
   -0.5223    0.2852    1.1475 C   0  0  0  0  0  0  0  0  0  0  0  0
   -1.2068   -0.8466   -0.7861 C   0  0  0  0  0  0  0  0  0  0  0  0
   -0.4667   -2.0008   -0.2982 C   0  0  0  0  0  0  0  0  0  0  0  0
    0.3578   -0.8594   -0.6931 C   0  0  0  0  0  0  0  0  0  0  0  0
    2.7564    0.7406    0.2133 H   0  0  0  0  0  0  0  0  0  0  0  0
    1.9721    0.7511    1.8665 H   0  0  0  0  0  0  0  0  0  0  0  0
    2.3281   -0.7927    0.9981 H   0  0  0  0  0  0  0  0  0  0  0  0
    1.1157    2.2636   -0.8804 H   0  0  0  0  0  0  0  0  0  0  0  0
   -1.5134    2.2366   -1.3041 H   0  0  0  0  0  0  0  0  0  0  0  0
   -2.5438    0.5110    0.3129 H   0  0  0  0  0  0  0  0  0  0  0  0
   -0.6165   -0.6078    1.7430 H   0  0  0  0  0  0  0  0  0  0  0  0
   -0.6101    1.2408    1.6887 H   0  0  0  0  0  0  0  0  0  0  0  0
   -1.6069   -0.8469   -1.8269 H   0  0  0  0  0  0  0  0  0  0  0  0
   -0.4859   -2.3709    0.7428 H   0  0  0  0  0  0  0  0  0  0  0  0
   -0.4254   -2.8732   -1.0169 H   0  0  0  0  0  0  0  0  0  0  0  0
    0.8763   -0.8155   -1.6846 H   0  0  0  0  0  0  0  0  0  0  0  0
  1  2  1  0
  2  3  1  0
  3  4  2  0
  4  5  1  0
  5  6  1  0
  5  7  1  0
  7  8  1  0
  8  9  1  0
  6  2  1  0
  9  7  1  0
  9  2  1  0
  1 10  1  0
  1 11  1  0
  1 12  1  0
  3 13  1  0
  4 14  1  0
  5 15  1  0
  6 16  1  0
  6 17  1  0
  7 18  1  0
  8 19  1  0
  8 20  1  0
  9 21  1  0
M  END
