
     RDKit          3D

 18 19  0  0  0  0  0  0  0  0999 V2000
   -1.8373    0.4318    0.4314 C   0  0  0  0  0  0  0  0  0  0  0  0
   -0.5129    0.0735    0.0135 C   0  0  0  0  0  0  0  0  0  0  0  0
    0.1940    1.0104   -0.9232 C   0  0  0  0  0  0  0  0  0  0  0  0
    1.4862    0.7237   -0.8642 C   0  0  0  0  0  0  0  0  0  0  0  0
    1.6553   -0.3809    0.1161 C   0  0  0  0  0  0  0  0  0  0  0  0
    0.5622    0.0395    1.1199 C   0  0  0  0  0  0  0  0  0  0  0  0
    1.0843   -1.5626   -0.3640 O   0  0  0  0  0  0  0  0  0  0  0  0
   -0.2823   -1.3063   -0.5493 C   0  0  0  0  0  0  0  0  0  0  0  0
   -2.3814    0.9787   -0.3901 H   0  0  0  0  0  0  0  0  0  0  0  0
   -1.8696    1.0552    1.3715 H   0  0  0  0  0  0  0  0  0  0  0  0
   -2.4567   -0.4595    0.6537 H   0  0  0  0  0  0  0  0  0  0  0  0
   -0.3082    1.7570   -1.5089 H   0  0  0  0  0  0  0  0  0  0  0  0
    2.2923    1.1805   -1.4067 H   0  0  0  0  0  0  0  0  0  0  0  0
    2.6187   -0.4949    0.5510 H   0  0  0  0  0  0  0  0  0  0  0  0
    0.8204    1.0344    1.4681 H   0  0  0  0  0  0  0  0  0  0  0  0
    0.3687   -0.7182    1.8614 H   0  0  0  0  0  0  0  0  0  0  0  0
   -0.5269   -1.3471   -1.6325 H   0  0  0  0  0  0  0  0  0  0  0  0
   -0.9069   -2.0150    0.0523 H   0  0  0  0  0  0  0  0  0  0  0  0
  1  2  1  0
  2  3  1  0
  3  4  2  0
  4  5  1  0
  5  6  1  0
  5  7  1  0
  7  8  1  0
  6  2  1  0
  8  2  1  0
  1  9  1  0
  1 10  1  0
  1 11  1  0
  3 12  1  0
  4 13  1  0
  5 14  1  0
  6 15  1  0
  6 16  1  0
  8 17  1  0
  8 18  1  0
M  END
