
     RDKit          3D

 23 24  0  0  0  0  0  0  0  0999 V2000
   -1.5145    0.5022    1.0673 C   0  0  0  0  0  0  0  0  0  0  0  0
   -1.2255    0.2148   -0.3886 C   0  0  0  0  0  0  0  0  0  0  0  0
   -0.4375    1.2746   -1.0119 C   0  0  0  0  0  0  0  0  0  0  0  0
    0.8489    1.5047   -0.6509 C   0  0  0  0  0  0  0  0  0  0  0  0
    1.7409    0.8710    0.3280 C   0  0  0  0  0  0  0  0  0  0  0  0
    1.7252   -0.6042    0.4008 C   0  0  0  0  0  0  0  0  0  0  0  0
    0.3992   -1.2819    0.5178 C   0  0  0  0  0  0  0  0  0  0  0  0
   -0.3873   -1.0634   -0.7035 C   0  0  0  0  0  0  0  0  0  0  0  0
   -1.7863   -0.9737   -0.9364 C   0  0  0  0  0  0  0  0  0  0  0  0
   -0.6791    0.8942    1.6326 H   0  0  0  0  0  0  0  0  0  0  0  0
   -2.0263   -0.3761    1.5575 H   0  0  0  0  0  0  0  0  0  0  0  0
   -2.3035    1.2985    1.0544 H   0  0  0  0  0  0  0  0  0  0  0  0
   -0.8415    1.9179   -1.7829 H   0  0  0  0  0  0  0  0  0  0  0  0
    1.2707    2.3461   -1.2316 H   0  0  0  0  0  0  0  0  0  0  0  0
    2.7956    1.1447    0.0117 H   0  0  0  0  0  0  0  0  0  0  0  0
    1.6620    1.3075    1.3452 H   0  0  0  0  0  0  0  0  0  0  0  0
    2.4087   -0.9153    1.2137 H   0  0  0  0  0  0  0  0  0  0  0  0
    2.2037   -0.9971   -0.5441 H   0  0  0  0  0  0  0  0  0  0  0  0
    0.6282   -2.3882    0.5714 H   0  0  0  0  0  0  0  0  0  0  0  0
   -0.1067   -1.0570    1.4737 H   0  0  0  0  0  0  0  0  0  0  0  0
    0.2705   -1.0292   -1.6241 H   0  0  0  0  0  0  0  0  0  0  0  0
   -2.1560   -1.0228   -2.0026 H   0  0  0  0  0  0  0  0  0  0  0  0
   -2.4896   -1.5673   -0.2975 H   0  0  0  0  0  0  0  0  0  0  0  0
  1  2  1  0
  2  3  1  0
  3  4  2  0
  4  5  1  0
  5  6  1  0
  6  7  1  0
  7  8  1  0
  8  9  1  0
  8  2  1  0
  9  2  1  0
  1 10  1  0
  1 11  1  0
  1 12  1  0
  3 13  1  0
  4 14  1  0
  5 15  1  0
  5 16  1  0
  6 17  1  0
  6 18  1  0
  7 19  1  0
  7 20  1  0
  8 21  1  0
  9 22  1  0
  9 23  1  0
M  END
