
     RDKit          3D

 19 20  0  0  0  0  0  0  0  0999 V2000
    2.0770   -0.0580    0.4323 C   0  0  0  0  0  0  0  0  0  0  0  0
    0.6821    0.0098    0.0743 C   0  0  0  0  0  0  0  0  0  0  0  0
    0.3190    1.0750   -0.9402 C   0  0  0  0  0  0  0  0  0  0  0  0
   -0.9618    1.3886   -0.7795 C   0  0  0  0  0  0  0  0  0  0  0  0
   -1.4912    0.5112    0.2965 C   0  0  0  0  0  0  0  0  0  0  0  0
   -1.4935   -0.9427   -0.1336 C   0  0  0  0  0  0  0  0  0  0  0  0
   -0.0034   -1.2387   -0.3694 C   0  0  0  0  0  0  0  0  0  0  0  0
   -0.2520    0.4707    1.1734 C   0  0  0  0  0  0  0  0  0  0  0  0
   -0.0828    0.7161    2.3198 O   0  0  0  0  0  0  0  0  0  0  0  0
    2.6582    0.7476   -0.1034 H   0  0  0  0  0  0  0  0  0  0  0  0
    2.2820    0.0764    1.5152 H   0  0  0  0  0  0  0  0  0  0  0  0
    2.5357   -1.0455    0.1660 H   0  0  0  0  0  0  0  0  0  0  0  0
    1.0377    1.4511   -1.6298 H   0  0  0  0  0  0  0  0  0  0  0  0
   -1.5336    2.1244   -1.3051 H   0  0  0  0  0  0  0  0  0  0  0  0
   -2.3654    0.8514    0.8017 H   0  0  0  0  0  0  0  0  0  0  0  0
   -1.7847   -1.5269    0.7565 H   0  0  0  0  0  0  0  0  0  0  0  0
   -2.0897   -1.1144   -1.0231 H   0  0  0  0  0  0  0  0  0  0  0  0
    0.1538   -1.3582   -1.4477 H   0  0  0  0  0  0  0  0  0  0  0  0
    0.3127   -2.1379    0.1959 H   0  0  0  0  0  0  0  0  0  0  0  0
  1  2  1  0
  2  3  1  0
  3  4  2  0
  4  5  1  0
  5  6  1  0
  6  7  1  0
  5  8  1  0
  8  9  2  0
  7  2  1  0
  8  2  1  0
  1 10  1  0
  1 11  1  0
  1 12  1  0
  3 13  1  0
  4 14  1  0
  5 15  1  0
  6 16  1  0
  6 17  1  0
  7 18  1  0
  7 19  1  0
M  END
