
     RDKit          3D

 21 22  0  0  0  0  0  0  0  0999 V2000
   -1.4315   -1.4136   -0.4513 C   0  0  0  0  0  0  0  0  0  0  0  0
   -0.6189   -0.5705    0.4684 C   0  0  0  0  0  0  0  0  0  0  0  0
   -1.3294    0.5685    1.1013 C   0  0  0  0  0  0  0  0  0  0  0  0
   -0.2087    0.8092    0.1531 C   0  0  0  0  0  0  0  0  0  0  0  0
   -0.4498    1.3845   -1.2124 C   0  0  0  0  0  0  0  0  0  0  0  0
    0.9523    1.2336    0.7530 O   0  0  0  0  0  0  0  0  0  0  0  0
    2.0364    0.4261    0.5801 C   0  0  0  0  0  0  0  0  0  0  0  0
    1.5730   -0.9694    0.2820 C   0  0  0  0  0  0  0  0  0  0  0  0
    0.4453   -1.2017    1.1023 O   0  0  0  0  0  0  0  0  0  0  0  0
   -0.8648   -2.0801   -1.1032 H   0  0  0  0  0  0  0  0  0  0  0  0
   -2.1360   -2.0215    0.1893 H   0  0  0  0  0  0  0  0  0  0  0  0
   -2.1022   -0.8118   -1.1046 H   0  0  0  0  0  0  0  0  0  0  0  0
   -2.3436    0.7997    0.7853 H   0  0  0  0  0  0  0  0  0  0  0  0
   -1.1668    0.6804    2.1997 H   0  0  0  0  0  0  0  0  0  0  0  0
   -0.6096    2.4878   -1.1714 H   0  0  0  0  0  0  0  0  0  0  0  0
   -1.2584    0.9214   -1.7717 H   0  0  0  0  0  0  0  0  0  0  0  0
    0.5004    1.1980   -1.7948 H   0  0  0  0  0  0  0  0  0  0  0  0
    2.7545    0.8211   -0.1818 H   0  0  0  0  0  0  0  0  0  0  0  0
    2.6204    0.4359    1.5428 H   0  0  0  0  0  0  0  0  0  0  0  0
    2.3600   -1.7047    0.4287 H   0  0  0  0  0  0  0  0  0  0  0  0
    1.2775   -0.9932   -0.7950 H   0  0  0  0  0  0  0  0  0  0  0  0
  1  2  1  0
  2  3  1  0
  3  4  1  0
  4  5  1  0
  4  6  1  0
  6  7  1  0
  7  8  1  0
  8  9  1  0
  4  2  1  0
  9  2  1  0
  1 10  1  0
  1 11  1  0
  1 12  1  0
  3 13  1  0
  3 14  1  0
  5 15  1  0
  5 16  1  0
  5 17  1  0
  7 18  1  0
  7 19  1  0
  8 20  1  0
  8 21  1  0
M  END
