
     RDKit          3D

 21 22  0  0  0  0  0  0  0  0999 V2000
    2.5467    0.2339    0.0460 C   0  0  0  0  0  0  0  0  0  0  0  0
    1.1230   -0.0408    0.1508 C   0  0  0  0  0  0  0  0  0  0  0  0
    0.5246   -1.1938   -0.5878 C   0  0  0  0  0  0  0  0  0  0  0  0
   -0.4558   -1.0365    0.5407 C   0  0  0  0  0  0  0  0  0  0  0  0
    0.6552   -0.6627    1.3328 O   0  0  0  0  0  0  0  0  0  0  0  0
   -1.1205    0.3035    0.3418 C   0  0  0  0  0  0  0  0  0  0  0  0
   -2.1699    0.2919   -0.7244 C   0  0  0  0  0  0  0  0  0  0  0  0
   -1.5988    0.7931    1.5329 O   0  0  0  0  0  0  0  0  0  0  0  0
    0.1356    1.0676   -0.1260 C   0  0  0  0  0  0  0  0  0  0  0  0
    2.7742    1.2623    0.3710 H   0  0  0  0  0  0  0  0  0  0  0  0
    2.8938    0.1073   -0.9960 H   0  0  0  0  0  0  0  0  0  0  0  0
    3.1027   -0.4405    0.7571 H   0  0  0  0  0  0  0  0  0  0  0  0
    0.1529   -0.9858   -1.5958 H   0  0  0  0  0  0  0  0  0  0  0  0
    1.1333   -2.1004   -0.4546 H   0  0  0  0  0  0  0  0  0  0  0  0
   -1.0340   -1.8683    0.8639 H   0  0  0  0  0  0  0  0  0  0  0  0
   -3.1392    0.0329   -0.2344 H   0  0  0  0  0  0  0  0  0  0  0  0
   -2.2571    1.3178   -1.1296 H   0  0  0  0  0  0  0  0  0  0  0  0
   -1.9865   -0.4649   -1.5102 H   0  0  0  0  0  0  0  0  0  0  0  0
   -1.6149    0.1507    2.2745 H   0  0  0  0  0  0  0  0  0  0  0  0
    0.0335    1.2606   -1.2087 H   0  0  0  0  0  0  0  0  0  0  0  0
    0.3012    1.9724    0.4534 H   0  0  0  0  0  0  0  0  0  0  0  0
  1  2  1  0
  2  3  1  0
  3  4  1  0
  4  5  1  0
  4  6  1  0
  6  7  1  0
  6  8  1  0
  6  9  1  0
  5  2  1  0
  9  2  1  0
  1 10  1  0
  1 11  1  0
  1 12  1  0
  3 13  1  0
  3 14  1  0
  4 15  1  0
  7 16  1  0
  7 17  1  0
  7 18  1  0
  8 19  1  0
  9 20  1  0
  9 21  1  0
M  END
