
     RDKit          3D

 19 20  0  0  0  0  0  0  0  0999 V2000
   -0.6104    1.7363    0.7957 C   0  0  0  0  0  0  0  0  0  0  0  0
   -0.2224    0.6334   -0.1472 C   0  0  0  0  0  0  0  0  0  0  0  0
   -1.3248   -0.0934   -0.8315 C   0  0  0  0  0  0  0  0  0  0  0  0
   -1.0469   -1.3177    0.0201 C   0  0  0  0  0  0  0  0  0  0  0  0
    0.2086   -0.6651    0.5388 C   0  0  0  0  0  0  0  0  0  0  0  0
    1.4723   -1.0555   -0.2108 C   0  0  0  0  0  0  0  0  0  0  0  0
    2.0086    0.3092   -0.5599 C   0  0  0  0  0  0  0  0  0  0  0  0
    3.2087    0.6838   -0.5105 O   0  0  0  0  0  0  0  0  0  0  0  0
    0.8734    1.0269   -0.9390 O   0  0  0  0  0  0  0  0  0  0  0  0
   -1.6739    1.9765    0.6547 H   0  0  0  0  0  0  0  0  0  0  0  0
   -0.3668    1.4991    1.8615 H   0  0  0  0  0  0  0  0  0  0  0  0
   -0.0426    2.6860    0.5851 H   0  0  0  0  0  0  0  0  0  0  0  0
   -1.2083   -0.2394   -1.9089 H   0  0  0  0  0  0  0  0  0  0  0  0
   -2.3222    0.3345   -0.5416 H   0  0  0  0  0  0  0  0  0  0  0  0
   -1.7914   -1.4806    0.8465 H   0  0  0  0  0  0  0  0  0  0  0  0
   -0.7872   -2.2341   -0.5495 H   0  0  0  0  0  0  0  0  0  0  0  0
    0.3045   -0.6031    1.6256 H   0  0  0  0  0  0  0  0  0  0  0  0
    1.1502   -1.5649   -1.1278 H   0  0  0  0  0  0  0  0  0  0  0  0
    2.1704   -1.6319    0.3986 H   0  0  0  0  0  0  0  0  0  0  0  0
  1  2  1  0
  2  3  1  0
  3  4  1  0
  4  5  1  0
  5  6  1  0
  6  7  1  0
  7  8  2  0
  7  9  1  0
  5  2  1  0
  9  2  1  0
  1 10  1  0
  1 11  1  0
  1 12  1  0
  3 13  1  0
  3 14  1  0
  4 15  1  0
  4 16  1  0
  5 17  1  0
  6 18  1  0
  6 19  1  0
M  END
