
     RDKit          3D

 19 21  0  0  0  0  0  0  0  0999 V2000
    2.0393    0.5699   -0.1615 C   0  0  0  0  0  0  0  0  0  0  0  0
    0.7736   -0.1817    0.0329 C   0  0  0  0  0  0  0  0  0  0  0  0
    0.7958   -1.4408    0.6692 O   0  0  0  0  0  0  0  0  0  0  0  0
   -0.5511   -1.7314    0.7382 C   0  0  0  0  0  0  0  0  0  0  0  0
   -0.9433   -1.5988   -0.7413 C   0  0  0  0  0  0  0  0  0  0  0  0
   -0.3086   -0.2128   -0.9355 C   0  0  0  0  0  0  0  0  0  0  0  0
   -0.5013    0.3945    0.3881 C   0  0  0  0  0  0  0  0  0  0  0  0
   -0.8043    1.8283    0.5670 C   0  0  0  0  0  0  0  0  0  0  0  0
   -1.0867   -0.5672    1.2430 O   0  0  0  0  0  0  0  0  0  0  0  0
    2.5763    0.3072   -1.0998 H   0  0  0  0  0  0  0  0  0  0  0  0
    1.8005    1.6614   -0.2605 H   0  0  0  0  0  0  0  0  0  0  0  0
    2.7105    0.4817    0.6991 H   0  0  0  0  0  0  0  0  0  0  0  0
   -0.8378   -2.6490    1.1898 H   0  0  0  0  0  0  0  0  0  0  0  0
   -2.0341   -1.4801   -0.8530 H   0  0  0  0  0  0  0  0  0  0  0  0
   -0.4863   -2.3582   -1.3646 H   0  0  0  0  0  0  0  0  0  0  0  0
   -0.3696    0.2872   -1.8784 H   0  0  0  0  0  0  0  0  0  0  0  0
   -1.3208    2.0772    1.5162 H   0  0  0  0  0  0  0  0  0  0  0  0
    0.0834    2.4870    0.4933 H   0  0  0  0  0  0  0  0  0  0  0  0
   -1.5354    2.1258   -0.2420 H   0  0  0  0  0  0  0  0  0  0  0  0
  1  2  1  0
  2  3  1  0
  3  4  1  0
  4  5  1  0
  5  6  1  0
  6  7  1  0
  7  8  1  0
  7  9  1  0
  6  2  1  0
  7  2  1  0
  9  4  1  0
  1 10  1  0
  1 11  1  0
  1 12  1  0
  4 13  1  0
  5 14  1  0
  5 15  1  0
  6 16  1  0
  8 17  1  0
  8 18  1  0
  8 19  1  0
M  END
