
     RDKit          3D

 21 22  0  0  0  0  0  0  0  0999 V2000
   -0.7768    1.6342   -1.1304 C   0  0  0  0  0  0  0  0  0  0  0  0
   -0.5126    0.2723   -0.6945 C   0  0  0  0  0  0  0  0  0  0  0  0
   -1.5793   -0.4747    0.0711 C   0  0  0  0  0  0  0  0  0  0  0  0
   -0.8157   -1.6062   -0.5500 C   0  0  0  0  0  0  0  0  0  0  0  0
    0.5009   -1.5611    0.2121 C   0  0  0  0  0  0  0  0  0  0  0  0
    0.7999   -0.0707   -0.0590 C   0  0  0  0  0  0  0  0  0  0  0  0
    1.0650    0.6608    1.2199 C   0  0  0  0  0  0  0  0  0  0  0  0
    2.2984    0.2902    1.7473 O   0  0  0  0  0  0  0  0  0  0  0  0
   -0.6260   -0.7599   -1.6606 O   0  0  0  0  0  0  0  0  0  0  0  0
   -1.3356    1.6496   -2.1025 H   0  0  0  0  0  0  0  0  0  0  0  0
    0.1516    2.2014   -1.2901 H   0  0  0  0  0  0  0  0  0  0  0  0
   -1.3499    2.2108   -0.3476 H   0  0  0  0  0  0  0  0  0  0  0  0
   -1.5208   -0.4274    1.1600 H   0  0  0  0  0  0  0  0  0  0  0  0
   -2.5647   -0.2857   -0.3927 H   0  0  0  0  0  0  0  0  0  0  0  0
   -1.2805   -2.5451   -0.7072 H   0  0  0  0  0  0  0  0  0  0  0  0
    1.2637   -2.2117   -0.1942 H   0  0  0  0  0  0  0  0  0  0  0  0
    0.3283   -1.6599    1.3057 H   0  0  0  0  0  0  0  0  0  0  0  0
    1.6127   -0.0030   -0.7930 H   0  0  0  0  0  0  0  0  0  0  0  0
    0.3020    0.3337    1.9751 H   0  0  0  0  0  0  0  0  0  0  0  0
    0.9858    1.7386    1.0450 H   0  0  0  0  0  0  0  0  0  0  0  0
    3.0535    0.6139    1.1857 H   0  0  0  0  0  0  0  0  0  0  0  0
  1  2  1  0
  2  3  1  0
  3  4  1  0
  4  5  1  0
  5  6  1  0
  6  7  1  0
  7  8  1  0
  4  9  1  0
  6  2  1  0
  9  2  1  0
  1 10  1  0
  1 11  1  0
  1 12  1  0
  3 13  1  0
  3 14  1  0
  4 15  1  0
  5 16  1  0
  5 17  1  0
  6 18  1  0
  7 19  1  0
  7 20  1  0
  8 21  1  0
M  END
