
     RDKit          3D

 19 21  0  0  0  0  0  0  0  0999 V2000
    1.6767    0.2644    0.6681 C   0  0  0  0  0  0  0  0  0  0  0  0
    0.5270    0.0802   -0.1423 C   0  0  0  0  0  0  0  0  0  0  0  0
   -0.9546    0.3362    0.6587 C   0  0  0  0  0  0  0  0  0  0  0  0
   -1.3322   -0.9137    0.7228 C   0  0  0  0  0  0  0  0  0  0  0  0
   -0.3691   -1.8144    0.0504 C   0  0  0  0  0  0  0  0  0  0  0  0
    0.0422   -0.7890   -1.0542 C   0  0  0  0  0  0  0  0  0  0  0  0
   -0.1382    0.7418   -1.0990 C   0  0  0  0  0  0  0  0  0  0  0  0
   -1.3632    0.8345   -1.6750 O   0  0  0  0  0  0  0  0  0  0  0  0
   -0.2930    1.5809    0.2985 C   0  0  0  0  0  0  0  0  0  0  0  0
    2.4354    1.0512    0.3555 H   0  0  0  0  0  0  0  0  0  0  0  0
    2.3342   -0.6782    0.6132 H   0  0  0  0  0  0  0  0  0  0  0  0
    1.5438    0.4001    1.7684 H   0  0  0  0  0  0  0  0  0  0  0  0
   -2.2356   -1.2669    1.2039 H   0  0  0  0  0  0  0  0  0  0  0  0
   -0.8240   -2.6825   -0.4127 H   0  0  0  0  0  0  0  0  0  0  0  0
    0.4932   -1.9538    0.6872 H   0  0  0  0  0  0  0  0  0  0  0  0
    0.5588   -1.1527   -1.9333 H   0  0  0  0  0  0  0  0  0  0  0  0
   -1.8492    1.6711   -1.5603 H   0  0  0  0  0  0  0  0  0  0  0  0
    0.6472    1.8221    0.7220 H   0  0  0  0  0  0  0  0  0  0  0  0
   -0.8994    2.4688    0.1281 H   0  0  0  0  0  0  0  0  0  0  0  0
  1  2  1  0
  2  3  1  0
  3  4  2  0
  4  5  1  0
  5  6  1  0
  6  7  1  0
  7  8  1  0
  7  9  1  0
  6  2  1  0
  7  2  1  0
  9  3  1  0
  1 10  1  0
  1 11  1  0
  1 12  1  0
  4 13  1  0
  5 14  1  0
  5 15  1  0
  6 16  1  0
  8 17  1  0
  9 18  1  0
  9 19  1  0
M  END
