
     RDKit          3D

 23 25  0  0  0  0  0  0  0  0999 V2000
    2.4108    0.9820   -0.0304 C   0  0  0  0  0  0  0  0  0  0  0  0
    1.1410    0.3121    0.0101 C   0  0  0  0  0  0  0  0  0  0  0  0
    0.9536   -1.0072   -0.7184 C   0  0  0  0  0  0  0  0  0  0  0  0
   -0.1802   -1.2026    0.2952 C   0  0  0  0  0  0  0  0  0  0  0  0
    0.7635   -0.4836    1.2687 C   0  0  0  0  0  0  0  0  0  0  0  0
   -1.1213   -0.1207   -0.0775 C   0  0  0  0  0  0  0  0  0  0  0  0
   -2.2569   -0.2687   -0.9757 C   0  0  0  0  0  0  0  0  0  0  0  0
   -2.4414    0.0795    0.4984 C   0  0  0  0  0  0  0  0  0  0  0  0
   -0.1415    1.0552   -0.2479 C   0  0  0  0  0  0  0  0  0  0  0  0
    3.0348    0.7049    0.8693 H   0  0  0  0  0  0  0  0  0  0  0  0
    3.0155    0.6448   -0.9127 H   0  0  0  0  0  0  0  0  0  0  0  0
    2.3776    2.0863   -0.0982 H   0  0  0  0  0  0  0  0  0  0  0  0
    1.8245   -1.6758   -0.5020 H   0  0  0  0  0  0  0  0  0  0  0  0
    0.6396   -0.9388   -1.7577 H   0  0  0  0  0  0  0  0  0  0  0  0
   -0.4861   -2.1829    0.5253 H   0  0  0  0  0  0  0  0  0  0  0  0
    1.5678   -1.1018    1.6698 H   0  0  0  0  0  0  0  0  0  0  0  0
    0.2189    0.1720    1.9537 H   0  0  0  0  0  0  0  0  0  0  0  0
   -2.4690    0.6078   -1.6505 H   0  0  0  0  0  0  0  0  0  0  0  0
   -2.6132   -1.2602   -1.3321 H   0  0  0  0  0  0  0  0  0  0  0  0
   -2.8962   -0.7574    1.0869 H   0  0  0  0  0  0  0  0  0  0  0  0
   -2.7748    1.0882    0.7747 H   0  0  0  0  0  0  0  0  0  0  0  0
   -0.2071    1.5036   -1.2367 H   0  0  0  0  0  0  0  0  0  0  0  0
   -0.3597    1.7632    0.5876 H   0  0  0  0  0  0  0  0  0  0  0  0
  1  2  1  0
  2  3  1  0
  3  4  1  0
  4  5  1  0
  4  6  1  0
  6  7  1  0
  7  8  1  0
  6  9  1  0
  5  2  1  0
  8  6  1  0
  9  2  1  0
  1 10  1  0
  1 11  1  0
  1 12  1  0
  3 13  1  0
  3 14  1  0
  4 15  1  0
  5 16  1  0
  5 17  1  0
  7 18  1  0
  7 19  1  0
  8 20  1  0
  8 21  1  0
  9 22  1  0
  9 23  1  0
M  END
