
     RDKit          3D

 19 21  0  0  0  0  0  0  0  0999 V2000
   -0.9795    1.7652   -0.4056 C   0  0  0  0  0  0  0  0  0  0  0  0
   -0.7020    0.4055    0.1325 C   0  0  0  0  0  0  0  0  0  0  0  0
   -1.0769    0.2482    1.5828 O   0  0  0  0  0  0  0  0  0  0  0  0
   -1.6735   -0.5375    0.6028 C   0  0  0  0  0  0  0  0  0  0  0  0
   -1.0846   -1.8671    0.2752 C   0  0  0  0  0  0  0  0  0  0  0  0
    0.1692   -1.7417   -0.1328 C   0  0  0  0  0  0  0  0  0  0  0  0
    0.5495   -0.3284   -0.1218 C   0  0  0  0  0  0  0  0  0  0  0  0
    1.7035    0.1836   -0.8607 C   0  0  0  0  0  0  0  0  0  0  0  0
    1.7604    0.1326    0.6241 C   0  0  0  0  0  0  0  0  0  0  0  0
   -0.0516    2.3174   -0.6239 H   0  0  0  0  0  0  0  0  0  0  0  0
   -1.6508    1.7622   -1.3050 H   0  0  0  0  0  0  0  0  0  0  0  0
   -1.5323    2.3914    0.3497 H   0  0  0  0  0  0  0  0  0  0  0  0
   -2.7823   -0.4173    0.4435 H   0  0  0  0  0  0  0  0  0  0  0  0
   -1.5787   -2.8435    0.3452 H   0  0  0  0  0  0  0  0  0  0  0  0
    0.8324   -2.5554   -0.4349 H   0  0  0  0  0  0  0  0  0  0  0  0
    2.3377   -0.5714   -1.3841 H   0  0  0  0  0  0  0  0  0  0  0  0
    1.7024    1.1637   -1.3791 H   0  0  0  0  0  0  0  0  0  0  0  0
    1.7096    1.1266    1.1305 H   0  0  0  0  0  0  0  0  0  0  0  0
    2.3477   -0.6342    1.1615 H   0  0  0  0  0  0  0  0  0  0  0  0
  1  2  1  0
  2  3  1  0
  3  4  1  0
  4  5  1  0
  5  6  2  0
  6  7  1  0
  7  8  1  0
  8  9  1  0
  4  2  1  0
  9  7  1  0
  7  2  1  0
  1 10  1  0
  1 11  1  0
  1 12  1  0
  4 13  1  0
  5 14  1  0
  6 15  1  0
  8 16  1  0
  8 17  1  0
  9 18  1  0
  9 19  1  0
M  END
