
     RDKit          3D

 19 20  0  0  0  0  0  0  0  0999 V2000
    2.1120   -0.0958   -0.7470 C   0  0  0  0  0  0  0  0  0  0  0  0
    0.8151    0.1700   -0.0668 C   0  0  0  0  0  0  0  0  0  0  0  0
    0.5843   -0.1712    1.3653 C   0  0  0  0  0  0  0  0  0  0  0  0
   -0.1078   -0.9270    0.3133 C   0  0  0  0  0  0  0  0  0  0  0  0
   -1.4177   -0.5138   -0.2706 C   0  0  0  0  0  0  0  0  0  0  0  0
   -2.5175   -1.0796    0.3281 O   0  0  0  0  0  0  0  0  0  0  0  0
   -1.4008    0.9996   -0.1805 C   0  0  0  0  0  0  0  0  0  0  0  0
    0.0015    1.3035   -0.5758 C   0  0  0  0  0  0  0  0  0  0  0  0
    0.4632    2.2478   -1.1818 O   0  0  0  0  0  0  0  0  0  0  0  0
    1.9826   -0.4589   -1.8087 H   0  0  0  0  0  0  0  0  0  0  0  0
    2.6886    0.8603   -0.7661 H   0  0  0  0  0  0  0  0  0  0  0  0
    2.7320   -0.8296   -0.2348 H   0  0  0  0  0  0  0  0  0  0  0  0
    1.4160   -0.6586    1.8756 H   0  0  0  0  0  0  0  0  0  0  0  0
   -0.0576    0.5109    1.9797 H   0  0  0  0  0  0  0  0  0  0  0  0
    0.1451   -1.9908    0.1725 H   0  0  0  0  0  0  0  0  0  0  0  0
   -1.3712   -0.7542   -1.3741 H   0  0  0  0  0  0  0  0  0  0  0  0
   -2.3113   -1.4229    1.2223 H   0  0  0  0  0  0  0  0  0  0  0  0
   -2.1163    1.4403   -0.8827 H   0  0  0  0  0  0  0  0  0  0  0  0
   -1.6403    1.3698    0.8322 H   0  0  0  0  0  0  0  0  0  0  0  0
  1  2  1  0
  2  3  1  0
  3  4  1  0
  4  5  1  0
  5  6  1  0
  5  7  1  0
  7  8  1  0
  8  9  2  0
  4  2  1  0
  8  2  1  0
  1 10  1  0
  1 11  1  0
  1 12  1  0
  3 13  1  0
  3 14  1  0
  4 15  1  0
  5 16  1  0
  6 17  1  0
  7 18  1  0
  7 19  1  0
M  END
