
     RDKit          3D

 19 21  0  0  0  0  0  0  0  0999 V2000
    2.0610    0.3724   -0.0216 C   0  0  0  0  0  0  0  0  0  0  0  0
    0.6275    0.0309    0.2395 C   0  0  0  0  0  0  0  0  0  0  0  0
   -0.3291    1.1489    0.5136 C   0  0  0  0  0  0  0  0  0  0  0  0
    0.0270    2.2865   -0.2407 O   0  0  0  0  0  0  0  0  0  0  0  0
   -1.3875    0.3722   -0.2870 C   0  0  0  0  0  0  0  0  0  0  0  0
   -1.9263   -0.5874    0.5289 O   0  0  0  0  0  0  0  0  0  0  0  0
   -1.1712   -1.7267    0.5075 C   0  0  0  0  0  0  0  0  0  0  0  0
    0.1616   -1.3306   -0.1285 C   0  0  0  0  0  0  0  0  0  0  0  0
   -0.2373   -0.2580   -1.0099 C   0  0  0  0  0  0  0  0  0  0  0  0
    2.1085    1.4048   -0.4224 H   0  0  0  0  0  0  0  0  0  0  0  0
    2.6060    0.3608    0.9273 H   0  0  0  0  0  0  0  0  0  0  0  0
    2.5456   -0.2822   -0.7592 H   0  0  0  0  0  0  0  0  0  0  0  0
   -0.6022    1.3439    1.5514 H   0  0  0  0  0  0  0  0  0  0  0  0
   -0.7506    2.5686   -0.7933 H   0  0  0  0  0  0  0  0  0  0  0  0
   -2.0628    0.9979   -0.8692 H   0  0  0  0  0  0  0  0  0  0  0  0
   -1.0276   -2.2142    1.4803 H   0  0  0  0  0  0  0  0  0  0  0  0
   -1.6484   -2.4253   -0.2417 H   0  0  0  0  0  0  0  0  0  0  0  0
    0.9019   -2.0746   -0.3637 H   0  0  0  0  0  0  0  0  0  0  0  0
    0.1039    0.0119   -1.9751 H   0  0  0  0  0  0  0  0  0  0  0  0
  1  2  1  0
  2  3  1  0
  3  4  1  0
  3  5  1  0
  5  6  1  0
  6  7  1  0
  7  8  1  0
  8  9  1  0
  8  2  1  0
  9  2  1  0
  9  5  1  0
  1 10  1  0
  1 11  1  0
  1 12  1  0
  3 13  1  0
  4 14  1  0
  5 15  1  0
  7 16  1  0
  7 17  1  0
  8 18  1  0
  9 19  1  0
M  END
