
     RDKit          3D

 21 23  0  0  0  0  0  0  0  0999 V2000
    0.9193    1.7273    0.4708 C   0  0  0  0  0  0  0  0  0  0  0  0
    0.1941    0.5584   -0.1205 C   0  0  0  0  0  0  0  0  0  0  0  0
    0.9499   -0.2499   -1.1394 C   0  0  0  0  0  0  0  0  0  0  0  0
    1.3685   -1.1783   -0.0199 C   0  0  0  0  0  0  0  0  0  0  0  0
    0.2510   -0.6253    0.8194 C   0  0  0  0  0  0  0  0  0  0  0  0
   -1.0802   -1.2746    0.6856 C   0  0  0  0  0  0  0  0  0  0  0  0
   -1.4826   -1.6974   -0.5554 O   0  0  0  0  0  0  0  0  0  0  0  0
   -1.9688   -0.4888   -0.0940 C   0  0  0  0  0  0  0  0  0  0  0  0
   -1.2190    0.7602   -0.5242 C   0  0  0  0  0  0  0  0  0  0  0  0
    0.1427    2.4390    0.8461 H   0  0  0  0  0  0  0  0  0  0  0  0
    1.6197    2.2223   -0.2107 H   0  0  0  0  0  0  0  0  0  0  0  0
    1.4984    1.4361    1.3968 H   0  0  0  0  0  0  0  0  0  0  0  0
    1.7469    0.2647   -1.6729 H   0  0  0  0  0  0  0  0  0  0  0  0
    0.2876   -0.8000   -1.8400 H   0  0  0  0  0  0  0  0  0  0  0  0
    1.3449   -2.2437   -0.2366 H   0  0  0  0  0  0  0  0  0  0  0  0
    2.3473   -0.7991    0.3904 H   0  0  0  0  0  0  0  0  0  0  0  0
    0.5540   -0.4030    1.8553 H   0  0  0  0  0  0  0  0  0  0  0  0
   -1.4491   -1.7783    1.6103 H   0  0  0  0  0  0  0  0  0  0  0  0
   -3.0492   -0.3510    0.0177 H   0  0  0  0  0  0  0  0  0  0  0  0
   -1.6273    1.6513   -0.0394 H   0  0  0  0  0  0  0  0  0  0  0  0
   -1.3484    0.8303   -1.6396 H   0  0  0  0  0  0  0  0  0  0  0  0
  1  2  1  0
  2  3  1  0
  3  4  1  0
  4  5  1  0
  5  6  1  0
  6  7  1  0
  7  8  1  0
  8  9  1  0
  5  2  1  0
  8  6  1  0
  9  2  1  0
  1 10  1  0
  1 11  1  0
  1 12  1  0
  3 13  1  0
  3 14  1  0
  4 15  1  0
  4 16  1  0
  5 17  1  0
  6 18  1  0
  8 19  1  0
  9 20  1  0
  9 21  1  0
M  END
