
     RDKit          3D

 15 16  0  0  0  0  0  0  0  0999 V2000
   -1.5772    1.0325   -0.0041 C   0  0  0  0  0  0  0  0  0  0  0  0
   -0.2651    0.3417   -0.1827 C   0  0  0  0  0  0  0  0  0  0  0  0
   -0.2603   -1.0594   -0.6696 C   0  0  0  0  0  0  0  0  0  0  0  0
    0.0494   -0.7670    0.7339 C   0  0  0  0  0  0  0  0  0  0  0  0
    1.3224   -0.4899    1.1804 O   0  0  0  0  0  0  0  0  0  0  0  0
    1.9178    0.1911    0.1122 C   0  0  0  0  0  0  0  0  0  0  0  0
    0.9104    1.0739   -0.2902 O   0  0  0  0  0  0  0  0  0  0  0  0
   -2.2417    0.6937   -0.8499 H   0  0  0  0  0  0  0  0  0  0  0  0
   -2.1075    0.7131    0.9273 H   0  0  0  0  0  0  0  0  0  0  0  0
   -1.4993    2.1268   -0.0095 H   0  0  0  0  0  0  0  0  0  0  0  0
    0.5542   -1.4642   -1.2967 H   0  0  0  0  0  0  0  0  0  0  0  0
   -1.2426   -1.4906   -0.8941 H   0  0  0  0  0  0  0  0  0  0  0  0
   -0.6369   -1.1497    1.4944 H   0  0  0  0  0  0  0  0  0  0  0  0
    2.8359    0.7356    0.4415 H   0  0  0  0  0  0  0  0  0  0  0  0
    2.2404   -0.4875   -0.6930 H   0  0  0  0  0  0  0  0  0  0  0  0
  1  2  1  0
  2  3  1  0
  3  4  1  0
  4  5  1  0
  5  6  1  0
  6  7  1  0
  4  2  1  0
  7  2  1  0
  1  8  1  0
  1  9  1  0
  1 10  1  0
  3 11  1  0
  3 12  1  0
  4 13  1  0
  6 14  1  0
  6 15  1  0
M  END
