
     RDKit          3D

 19 21  0  0  0  0  0  0  0  0999 V2000
   -2.0892   -0.5703   -0.1295 C   0  0  0  0  0  0  0  0  0  0  0  0
   -0.7079   -0.1217   -0.0080 C   0  0  0  0  0  0  0  0  0  0  0  0
    0.3702   -1.0653    0.3703 C   0  0  0  0  0  0  0  0  0  0  0  0
    1.5890   -0.1247    0.3314 C   0  0  0  0  0  0  0  0  0  0  0  0
    2.4564   -0.4651   -0.6737 O   0  0  0  0  0  0  0  0  0  0  0  0
    0.8891    1.1592   -0.0421 C   0  0  0  0  0  0  0  0  0  0  0  0
   -0.4043    1.1606    0.6930 C   0  0  0  0  0  0  0  0  0  0  0  0
   -0.9589    1.8034   -0.4041 O   0  0  0  0  0  0  0  0  0  0  0  0
   -0.1794    0.8411   -1.0240 C   0  0  0  0  0  0  0  0  0  0  0  0
   -2.1644   -1.3760   -0.8860 H   0  0  0  0  0  0  0  0  0  0  0  0
   -2.7292    0.2726   -0.4551 H   0  0  0  0  0  0  0  0  0  0  0  0
   -2.5143   -0.9497    0.8093 H   0  0  0  0  0  0  0  0  0  0  0  0
    0.2041   -1.4188    1.4262 H   0  0  0  0  0  0  0  0  0  0  0  0
    0.5017   -1.9287   -0.2809 H   0  0  0  0  0  0  0  0  0  0  0  0
    2.0312    0.0013    1.3185 H   0  0  0  0  0  0  0  0  0  0  0  0
    2.8937   -1.3392   -0.5622 H   0  0  0  0  0  0  0  0  0  0  0  0
    1.4652    2.0559   -0.1313 H   0  0  0  0  0  0  0  0  0  0  0  0
   -0.5656    1.3803    1.6642 H   0  0  0  0  0  0  0  0  0  0  0  0
   -0.0876    0.6851   -2.0160 H   0  0  0  0  0  0  0  0  0  0  0  0
  1  2  1  0
  2  3  1  0
  3  4  1  0
  4  5  1  0
  4  6  1  0
  6  7  1  0
  7  8  1  0
  8  9  1  0
  7  2  1  0
  9  2  1  0
  9  6  1  0
  1 10  1  0
  1 11  1  0
  1 12  1  0
  3 13  1  0
  3 14  1  0
  4 15  1  0
  5 16  1  0
  6 17  1  0
  7 18  1  0
  9 19  1  0
M  END
