
     RDKit          3D

 20 21  0  0  0  0  0  0  0  0999 V2000
   -1.6602   -0.6157   -0.9504 C   0  0  0  0  0  0  0  0  0  0  0  0
   -0.8697   -0.0117    0.1572 C   0  0  0  0  0  0  0  0  0  0  0  0
   -0.8352    1.4661    0.3840 C   0  0  0  0  0  0  0  0  0  0  0  0
    0.6879    1.3886    0.3235 C   0  0  0  0  0  0  0  0  0  0  0  0
    0.5870   -0.0840    0.2264 C   0  0  0  0  0  0  0  0  0  0  0  0
    1.4221   -0.8699   -0.7410 C   0  0  0  0  0  0  0  0  0  0  0  0
    1.2662   -0.4441   -2.0565 O   0  0  0  0  0  0  0  0  0  0  0  0
   -0.2076   -0.8467    1.1934 C   0  0  0  0  0  0  0  0  0  0  0  0
   -1.9551    0.1735   -1.6568 H   0  0  0  0  0  0  0  0  0  0  0  0
   -2.5468   -1.1575   -0.5159 H   0  0  0  0  0  0  0  0  0  0  0  0
   -1.0611   -1.3643   -1.5371 H   0  0  0  0  0  0  0  0  0  0  0  0
   -1.1983    2.1078   -0.4410 H   0  0  0  0  0  0  0  0  0  0  0  0
   -1.2133    1.7997    1.3611 H   0  0  0  0  0  0  0  0  0  0  0  0
    1.1371    1.9154   -0.5359 H   0  0  0  0  0  0  0  0  0  0  0  0
    1.1845    1.7303    1.2543 H   0  0  0  0  0  0  0  0  0  0  0  0
    2.4782   -0.7813   -0.4100 H   0  0  0  0  0  0  0  0  0  0  0  0
    1.1619   -1.9457   -0.6792 H   0  0  0  0  0  0  0  0  0  0  0  0
    2.1256   -0.0303   -2.3397 H   0  0  0  0  0  0  0  0  0  0  0  0
   -0.3277   -1.9275    1.0811 H   0  0  0  0  0  0  0  0  0  0  0  0
   -0.1755   -0.5027    2.2416 H   0  0  0  0  0  0  0  0  0  0  0  0
  1  2  1  0
  2  3  1  0
  3  4  1  0
  4  5  1  0
  5  6  1  0
  6  7  1  0
  5  8  1  0
  5  2  1  0
  8  2  1  0
  1  9  1  0
  1 10  1  0
  1 11  1  0
  3 12  1  0
  3 13  1  0
  4 14  1  0
  4 15  1  0
  6 16  1  0
  6 17  1  0
  7 18  1  0
  8 19  1  0
  8 20  1  0
M  END
