
     RDKit          2D

 21 23  0  0  0  0  0  0  0  0999 V2000
    1.7308   -1.8945    0.0000 C   0  0  0  0  0  0  0  0  0  0  0  0
    0.3943   -1.2135    0.0000 C   0  0  0  0  0  0  0  0  0  0  0  0
   -0.0692   -2.6401    0.0000 C   0  0  0  0  0  0  0  0  0  0  0  0
   -1.4958   -2.1766    0.0000 C   0  0  0  0  0  0  0  0  0  0  0  0
   -1.0323   -0.7500    0.0000 C   0  0  0  0  0  0  0  0  0  0  0  0
   -1.0323    0.7500    0.0000 C   0  0  0  0  0  0  0  0  0  0  0  0
    0.3943    1.2135    0.0000 C   0  0  0  0  0  0  0  0  0  0  0  0
    0.3943   -0.2865    0.0000 C   0  0  0  0  0  0  0  0  0  0  0  0
    1.2760    0.0000    0.0000 O   0  0  0  0  0  0  0  0  0  0  0  0
    3.0673   -2.5755    0.0000 H   0  0  0  0  0  0  0  0  0  0  0  0
    1.4582   -2.6436    0.0000 H   0  0  0  0  0  0  0  0  0  0  0  0
    2.5696   -0.6510    0.0000 H   0  0  0  0  0  0  0  0  0  0  0  0
   -0.5328   -4.0667    0.0000 H   0  0  0  0  0  0  0  0  0  0  0  0
    0.6532   -2.9770    0.0000 H   0  0  0  0  0  0  0  0  0  0  0  0
   -2.9224   -1.7131    0.0000 H   0  0  0  0  0  0  0  0  0  0  0  0
   -1.9593   -3.6032    0.0000 H   0  0  0  0  0  0  0  0  0  0  0  0
   -2.5241    0.5932    0.0000 H   0  0  0  0  0  0  0  0  0  0  0  0
   -1.3442    2.2172    0.0000 H   0  0  0  0  0  0  0  0  0  0  0  0
    0.8578    2.6401    0.0000 H   0  0  0  0  0  0  0  0  0  0  0  0
    1.0519   -1.6346    0.0000 H   0  0  0  0  0  0  0  0  0  0  0  0
    1.8941   -0.3127    0.0000 H   0  0  0  0  0  0  0  0  0  0  0  0
  1  2  1  0
  2  3  1  0
  3  4  1  0
  4  5  1  0
  5  6  1  0
  6  7  1  0
  7  8  1  0
  7  9  1  0
  5  2  1  0
  9  2  1  0
  8  5  1  0
  1 10  1  0
  1 11  1  0
  1 12  1  0
  3 13  1  0
  3 14  1  0
  4 15  1  0
  4 16  1  0
  6 17  1  0
  6 18  1  0
  7 19  1  0
  8 20  1  0
  8 21  1  0
M  END
