
     RDKit          3D

 23 24  0  0  0  0  0  0  0  0999 V2000
   -2.4098   -0.7496   -0.1947 C   0  0  0  0  0  0  0  0  0  0  0  0
   -1.1005   -0.2010    0.1157 C   0  0  0  0  0  0  0  0  0  0  0  0
   -0.5110   -0.6176    1.4267 C   0  0  0  0  0  0  0  0  0  0  0  0
    0.8123   -0.4920    1.3518 C   0  0  0  0  0  0  0  0  0  0  0  0
    1.1272    0.0279    0.0062 C   0  0  0  0  0  0  0  0  0  0  0  0
    2.4813   -0.1861   -0.4862 C   0  0  0  0  0  0  0  0  0  0  0  0
    0.6069    1.4442   -0.0578 C   0  0  0  0  0  0  0  0  0  0  0  0
   -0.9205    1.2757   -0.0025 C   0  0  0  0  0  0  0  0  0  0  0  0
    0.0325   -0.6848   -0.8120 C   0  0  0  0  0  0  0  0  0  0  0  0
   -2.9496   -0.0897   -0.9067 H   0  0  0  0  0  0  0  0  0  0  0  0
   -2.2939   -1.7350   -0.7353 H   0  0  0  0  0  0  0  0  0  0  0  0
   -3.0399   -1.0001    0.6942 H   0  0  0  0  0  0  0  0  0  0  0  0
   -1.0645   -0.9626    2.2903 H   0  0  0  0  0  0  0  0  0  0  0  0
    1.4814   -0.7412    2.1614 H   0  0  0  0  0  0  0  0  0  0  0  0
    2.4646   -0.2871   -1.6026 H   0  0  0  0  0  0  0  0  0  0  0  0
    3.1291    0.6759   -0.2066 H   0  0  0  0  0  0  0  0  0  0  0  0
    2.9007   -1.1181   -0.0932 H   0  0  0  0  0  0  0  0  0  0  0  0
    0.9691    2.0701    0.7562 H   0  0  0  0  0  0  0  0  0  0  0  0
    0.8885    1.9007   -1.0314 H   0  0  0  0  0  0  0  0  0  0  0  0
   -1.3698    1.6500   -0.9488 H   0  0  0  0  0  0  0  0  0  0  0  0
   -1.2941    1.8590    0.8431 H   0  0  0  0  0  0  0  0  0  0  0  0
    0.1220   -1.7686   -0.7540 H   0  0  0  0  0  0  0  0  0  0  0  0
   -0.0619   -0.2702   -1.8138 H   0  0  0  0  0  0  0  0  0  0  0  0
  1  2  1  0
  2  3  1  0
  3  4  2  0
  4  5  1  0
  5  6  1  0
  5  7  1  0
  7  8  1  0
  5  9  1  0
  8  2  1  0
  9  2  1  0
  1 10  1  0
  1 11  1  0
  1 12  1  0
  3 13  1  0
  4 14  1  0
  6 15  1  0
  6 16  1  0
  6 17  1  0
  7 18  1  0
  7 19  1  0
  8 20  1  0
  8 21  1  0
  9 22  1  0
  9 23  1  0
M  END
