
     RDKit          3D

 19 21  0  0  0  0  0  0  0  0999 V2000
   -1.6857   -0.5233    0.9949 C   0  0  0  0  0  0  0  0  0  0  0  0
   -0.8067   -0.1995   -0.1350 C   0  0  0  0  0  0  0  0  0  0  0  0
   -0.3206   -1.3329   -1.0067 C   0  0  0  0  0  0  0  0  0  0  0  0
    0.6733   -0.8230   -1.7994 O   0  0  0  0  0  0  0  0  0  0  0  0
    1.0684    0.4017   -1.3472 C   0  0  0  0  0  0  0  0  0  0  0  0
    0.0669    1.4184   -0.9398 C   0  0  0  0  0  0  0  0  0  0  0  0
   -1.2530    0.9078   -0.8779 O   0  0  0  0  0  0  0  0  0  0  0  0
    0.4525    0.5369    0.0845 C   0  0  0  0  0  0  0  0  0  0  0  0
    1.3658    0.4938    1.1654 C   0  0  0  0  0  0  0  0  0  0  0  0
   -2.4728   -1.2321    0.6576 H   0  0  0  0  0  0  0  0  0  0  0  0
   -1.1729   -0.8786    1.9156 H   0  0  0  0  0  0  0  0  0  0  0  0
   -2.2341    0.4047    1.2996 H   0  0  0  0  0  0  0  0  0  0  0  0
    0.1332   -2.0906   -0.3339 H   0  0  0  0  0  0  0  0  0  0  0  0
   -1.1683   -1.7445   -1.5885 H   0  0  0  0  0  0  0  0  0  0  0  0
    2.1367    0.6588   -1.4239 H   0  0  0  0  0  0  0  0  0  0  0  0
    0.2121    2.4882   -1.0562 H   0  0  0  0  0  0  0  0  0  0  0  0
    0.8821    0.3644    2.1544 H   0  0  0  0  0  0  0  0  0  0  0  0
    1.9661    1.4483    1.2307 H   0  0  0  0  0  0  0  0  0  0  0  0
    2.1570   -0.2985    1.0058 H   0  0  0  0  0  0  0  0  0  0  0  0
  1  2  1  0
  2  3  1  0
  3  4  1  0
  4  5  1  0
  5  6  1  0
  6  7  1  0
  6  8  1  0
  8  9  1  0
  7  2  1  0
  8  2  1  0
  8  5  1  0
  1 10  1  0
  1 11  1  0
  1 12  1  0
  3 13  1  0
  3 14  1  0
  5 15  1  0
  6 16  1  0
  9 17  1  0
  9 18  1  0
  9 19  1  0
M  END
