
     RDKit          3D

 23 24  0  0  0  0  0  0  0  0999 V2000
   -1.3603   -1.5264    0.3579 C   0  0  0  0  0  0  0  0  0  0  0  0
   -0.4573   -0.4109   -0.0430 C   0  0  0  0  0  0  0  0  0  0  0  0
   -1.2322    0.7871   -0.5278 C   0  0  0  0  0  0  0  0  0  0  0  0
   -0.5676    2.0101    0.0211 C   0  0  0  0  0  0  0  0  0  0  0  0
    0.6905    1.5394    0.7343 C   0  0  0  0  0  0  0  0  0  0  0  0
    0.5158    0.0720    0.9928 C   0  0  0  0  0  0  0  0  0  0  0  0
    1.5940   -0.7174    0.2938 C   0  0  0  0  0  0  0  0  0  0  0  0
    0.6917   -0.7521   -0.9328 C   0  0  0  0  0  0  0  0  0  0  0  0
    0.6530   -1.9841   -1.5559 O   0  0  0  0  0  0  0  0  0  0  0  0
   -2.3931   -1.3824   -0.0549 H   0  0  0  0  0  0  0  0  0  0  0  0
   -1.0184   -2.5282    0.0720 H   0  0  0  0  0  0  0  0  0  0  0  0
   -1.4839   -1.5420    1.4730 H   0  0  0  0  0  0  0  0  0  0  0  0
   -1.2948    0.7731   -1.6327 H   0  0  0  0  0  0  0  0  0  0  0  0
   -2.2804    0.7558   -0.1602 H   0  0  0  0  0  0  0  0  0  0  0  0
   -1.2245    2.5196    0.7749 H   0  0  0  0  0  0  0  0  0  0  0  0
   -0.3240    2.6775   -0.8214 H   0  0  0  0  0  0  0  0  0  0  0  0
    1.5736    1.7535    0.0874 H   0  0  0  0  0  0  0  0  0  0  0  0
    0.8333    2.0643    1.6951 H   0  0  0  0  0  0  0  0  0  0  0  0
    0.3172   -0.2264    2.0358 H   0  0  0  0  0  0  0  0  0  0  0  0
    1.7831   -1.6993    0.7507 H   0  0  0  0  0  0  0  0  0  0  0  0
    2.5187   -0.1264    0.0975 H   0  0  0  0  0  0  0  0  0  0  0  0
    0.9166    0.0591   -1.6742 H   0  0  0  0  0  0  0  0  0  0  0  0
    1.5490   -2.1159   -1.9834 H   0  0  0  0  0  0  0  0  0  0  0  0
  1  2  1  0
  2  3  1  0
  3  4  1  0
  4  5  1  0
  5  6  1  0
  6  7  1  0
  7  8  1  0
  8  9  1  0
  6  2  1  0
  8  2  1  0
  1 10  1  0
  1 11  1  0
  1 12  1  0
  3 13  1  0
  3 14  1  0
  4 15  1  0
  4 16  1  0
  5 17  1  0
  5 18  1  0
  6 19  1  0
  7 20  1  0
  7 21  1  0
  8 22  1  0
  9 23  1  0
M  END
