
     RDKit          3D

 19 21  0  0  0  0  0  0  0  0999 V2000
   -1.5246    1.2893    0.0943 C   0  0  0  0  0  0  0  0  0  0  0  0
   -0.7493    0.0715   -0.0459 C   0  0  0  0  0  0  0  0  0  0  0  0
   -1.3393   -1.1478   -0.1769 O   0  0  0  0  0  0  0  0  0  0  0  0
   -0.2282   -2.0297   -0.2157 C   0  0  0  0  0  0  0  0  0  0  0  0
    0.8906   -1.0621   -0.2443 C   0  0  0  0  0  0  0  0  0  0  0  0
    0.4802   -0.1007    0.8484 C   0  0  0  0  0  0  0  0  0  0  0  0
    1.2723    1.1099    0.5076 C   0  0  0  0  0  0  0  0  0  0  0  0
    1.1045    1.1458   -0.9019 O   0  0  0  0  0  0  0  0  0  0  0  0
    0.3303    0.0454   -1.1422 C   0  0  0  0  0  0  0  0  0  0  0  0
   -1.1400    1.8917    0.9609 H   0  0  0  0  0  0  0  0  0  0  0  0
   -2.6195    1.1046    0.2806 H   0  0  0  0  0  0  0  0  0  0  0  0
   -1.4728    1.9876   -0.7776 H   0  0  0  0  0  0  0  0  0  0  0  0
   -0.2868   -2.7377   -1.0348 H   0  0  0  0  0  0  0  0  0  0  0  0
   -0.2573   -2.5412    0.7892 H   0  0  0  0  0  0  0  0  0  0  0  0
    1.8979   -1.3409   -0.3562 H   0  0  0  0  0  0  0  0  0  0  0  0
    0.3473   -0.4402    1.8345 H   0  0  0  0  0  0  0  0  0  0  0  0
    0.9306    2.0369    0.9639 H   0  0  0  0  0  0  0  0  0  0  0  0
    2.3441    0.9404    0.7364 H   0  0  0  0  0  0  0  0  0  0  0  0
    0.0198   -0.2228   -2.1202 H   0  0  0  0  0  0  0  0  0  0  0  0
  1  2  1  0
  2  3  1  0
  3  4  1  0
  4  5  1  0
  5  6  1  0
  6  7  1  0
  7  8  1  0
  8  9  1  0
  6  2  1  0
  9  2  1  0
  9  5  1  0
  1 10  1  0
  1 11  1  0
  1 12  1  0
  4 13  1  0
  4 14  1  0
  5 15  1  0
  6 16  1  0
  7 17  1  0
  7 18  1  0
  9 19  1  0
M  END
