
     RDKit          3D

 23 25  0  0  0  0  0  0  0  0999 V2000
    2.3468    0.8372    0.2986 C   0  0  0  0  0  0  0  0  0  0  0  0
    1.0560    0.2141    0.1639 C   0  0  0  0  0  0  0  0  0  0  0  0
    0.3301   -0.1282    1.4692 C   0  0  0  0  0  0  0  0  0  0  0  0
   -0.9102   -0.7802    0.8558 C   0  0  0  0  0  0  0  0  0  0  0  0
   -0.5374   -1.3587   -0.4369 C   0  0  0  0  0  0  0  0  0  0  0  0
    0.9751   -1.1026   -0.5550 C   0  0  0  0  0  0  0  0  0  0  0  0
   -1.1495   -0.0311   -0.4184 C   0  0  0  0  0  0  0  0  0  0  0  0
   -2.5299    0.2922   -0.7777 C   0  0  0  0  0  0  0  0  0  0  0  0
   -0.0298    1.0080   -0.5347 C   0  0  0  0  0  0  0  0  0  0  0  0
    3.2142    0.2433   -0.1110 H   0  0  0  0  0  0  0  0  0  0  0  0
    2.6051    0.9618    1.3917 H   0  0  0  0  0  0  0  0  0  0  0  0
    2.4179    1.8338   -0.1823 H   0  0  0  0  0  0  0  0  0  0  0  0
    0.0852    0.8368    1.9407 H   0  0  0  0  0  0  0  0  0  0  0  0
    0.8950   -0.8044    2.1016 H   0  0  0  0  0  0  0  0  0  0  0  0
   -1.7184   -1.1177    1.4913 H   0  0  0  0  0  0  0  0  0  0  0  0
   -0.9575   -2.2508   -0.8791 H   0  0  0  0  0  0  0  0  0  0  0  0
    1.1805   -0.9561   -1.6210 H   0  0  0  0  0  0  0  0  0  0  0  0
    1.5583   -1.9018   -0.0784 H   0  0  0  0  0  0  0  0  0  0  0  0
   -3.0890   -0.6145   -1.0754 H   0  0  0  0  0  0  0  0  0  0  0  0
   -2.5788    1.0542   -1.5719 H   0  0  0  0  0  0  0  0  0  0  0  0
   -3.0629    0.6779    0.1381 H   0  0  0  0  0  0  0  0  0  0  0  0
   -0.2979    1.9163    0.0026 H   0  0  0  0  0  0  0  0  0  0  0  0
    0.1973    1.1705   -1.6119 H   0  0  0  0  0  0  0  0  0  0  0  0
  1  2  1  0
  2  3  1  0
  3  4  1  0
  4  5  1  0
  5  6  1  0
  5  7  1  0
  7  8  1  0
  7  9  1  0
  6  2  1  0
  9  2  1  0
  7  4  1  0
  1 10  1  0
  1 11  1  0
  1 12  1  0
  3 13  1  0
  3 14  1  0
  4 15  1  0
  5 16  1  0
  6 17  1  0
  6 18  1  0
  8 19  1  0
  8 20  1  0
  8 21  1  0
  9 22  1  0
  9 23  1  0
M  END
