
     RDKit          3D

 19 21  0  0  0  0  0  0  0  0999 V2000
   -2.1469    0.4283   -0.3071 C   0  0  0  0  0  0  0  0  0  0  0  0
   -0.8212   -0.1175    0.1072 C   0  0  0  0  0  0  0  0  0  0  0  0
   -0.6569   -1.5723    0.1089 C   0  0  0  0  0  0  0  0  0  0  0  0
    0.0769   -0.7983   -0.9142 C   0  0  0  0  0  0  0  0  0  0  0  0
    1.2284   -0.0383   -0.3464 C   0  0  0  0  0  0  0  0  0  0  0  0
    2.3996   -0.4861    0.2107 C   0  0  0  0  0  0  0  0  0  0  0  0
    2.3199    0.3336   -1.0268 O   0  0  0  0  0  0  0  0  0  0  0  0
    0.2645    0.8724    0.3073 C   0  0  0  0  0  0  0  0  0  0  0  0
    0.0390    2.0087   -0.5038 O   0  0  0  0  0  0  0  0  0  0  0  0
   -2.1454    0.9550   -1.2700 H   0  0  0  0  0  0  0  0  0  0  0  0
   -2.4407    1.1973    0.4629 H   0  0  0  0  0  0  0  0  0  0  0  0
   -2.9123   -0.3677   -0.2251 H   0  0  0  0  0  0  0  0  0  0  0  0
   -1.4884   -2.1787   -0.2352 H   0  0  0  0  0  0  0  0  0  0  0  0
   -0.0040   -2.1052    0.8530 H   0  0  0  0  0  0  0  0  0  0  0  0
   -0.1849   -0.7794   -1.9643 H   0  0  0  0  0  0  0  0  0  0  0  0
    2.9213    0.0778    1.0349 H   0  0  0  0  0  0  0  0  0  0  0  0
    2.8780   -1.4706    0.0340 H   0  0  0  0  0  0  0  0  0  0  0  0
    0.4771    1.1986    1.3453 H   0  0  0  0  0  0  0  0  0  0  0  0
    0.1960    2.8426    0.0003 H   0  0  0  0  0  0  0  0  0  0  0  0
  1  2  1  0
  2  3  1  0
  3  4  1  0
  4  5  1  0
  5  6  1  0
  6  7  1  0
  5  8  1  0
  8  9  1  0
  4  2  1  0
  7  5  1  0
  8  2  1  0
  1 10  1  0
  1 11  1  0
  1 12  1  0
  3 13  1  0
  3 14  1  0
  4 15  1  0
  6 16  1  0
  6 17  1  0
  8 18  1  0
  9 19  1  0
M  END
