
     RDKit          3D

 20 21  0  0  0  0  0  0  0  0999 V2000
   -0.4695    1.3999    0.8722 C   0  0  0  0  0  0  0  0  0  0  0  0
   -0.1997    0.3841   -0.2078 C   0  0  0  0  0  0  0  0  0  0  0  0
    1.0952    0.4847   -0.9123 C   0  0  0  0  0  0  0  0  0  0  0  0
    2.0491   -0.2331    0.0768 C   0  0  0  0  0  0  0  0  0  0  0  0
    1.1304   -1.3790    0.4645 C   0  0  0  0  0  0  0  0  0  0  0  0
   -0.1232   -1.0398    0.3023 C   0  0  0  0  0  0  0  0  0  0  0  0
   -1.6231   -1.0721    0.2457 C   0  0  0  0  0  0  0  0  0  0  0  0
   -1.4613   -0.0088   -0.8805 C   0  0  0  0  0  0  0  0  0  0  0  0
   -1.1890    2.1369    0.4053 H   0  0  0  0  0  0  0  0  0  0  0  0
   -0.9282    0.9939    1.7696 H   0  0  0  0  0  0  0  0  0  0  0  0
    0.4373    2.0098    1.1148 H   0  0  0  0  0  0  0  0  0  0  0  0
    1.0828   -0.0864   -1.8606 H   0  0  0  0  0  0  0  0  0  0  0  0
    1.4548    1.5230   -1.0072 H   0  0  0  0  0  0  0  0  0  0  0  0
    2.2320    0.3361    0.9757 H   0  0  0  0  0  0  0  0  0  0  0  0
    2.9127   -0.6133   -0.4825 H   0  0  0  0  0  0  0  0  0  0  0  0
    1.4469   -2.3596    0.8304 H   0  0  0  0  0  0  0  0  0  0  0  0
   -2.1059   -0.7137    1.1448 H   0  0  0  0  0  0  0  0  0  0  0  0
   -2.0898   -1.9555   -0.1709 H   0  0  0  0  0  0  0  0  0  0  0  0
   -1.3261   -0.4559   -1.8650 H   0  0  0  0  0  0  0  0  0  0  0  0
   -2.3255    0.6489   -0.8153 H   0  0  0  0  0  0  0  0  0  0  0  0
  1  2  1  0
  2  3  1  0
  3  4  1  0
  4  5  1  0
  5  6  2  0
  6  7  1  0
  7  8  1  0
  6  2  1  0
  8  2  1  0
  1  9  1  0
  1 10  1  0
  1 11  1  0
  3 12  1  0
  3 13  1  0
  4 14  1  0
  4 15  1  0
  5 16  1  0
  7 17  1  0
  7 18  1  0
  8 19  1  0
  8 20  1  0
M  END
