
     RDKit          3D

 19 21  0  0  0  0  0  0  0  0999 V2000
    2.3523   -0.2786   -0.2997 C   0  0  0  0  0  0  0  0  0  0  0  0
    0.8754   -0.0758   -0.1619 C   0  0  0  0  0  0  0  0  0  0  0  0
    0.1374   -0.2051   -1.3029 O   0  0  0  0  0  0  0  0  0  0  0  0
   -1.1764    0.0935   -0.9582 C   0  0  0  0  0  0  0  0  0  0  0  0
   -1.6434   -1.0552   -0.0743 C   0  0  0  0  0  0  0  0  0  0  0  0
   -0.9328   -1.0776    1.0881 O   0  0  0  0  0  0  0  0  0  0  0  0
    0.2511   -0.4202    1.0986 C   0  0  0  0  0  0  0  0  0  0  0  0
    0.2696    0.9714    0.6492 C   0  0  0  0  0  0  0  0  0  0  0  0
   -1.0440    1.3003   -0.0334 C   0  0  0  0  0  0  0  0  0  0  0  0
    2.8879   -0.0375    0.6283 H   0  0  0  0  0  0  0  0  0  0  0  0
    2.5387   -1.3696   -0.4969 H   0  0  0  0  0  0  0  0  0  0  0  0
    2.8081    0.3014   -1.1194 H   0  0  0  0  0  0  0  0  0  0  0  0
   -1.8277    0.2759   -1.8094 H   0  0  0  0  0  0  0  0  0  0  0  0
   -1.5522   -1.9982   -0.6571 H   0  0  0  0  0  0  0  0  0  0  0  0
   -2.7344   -0.9513    0.1469 H   0  0  0  0  0  0  0  0  0  0  0  0
    0.9248   -0.6704    1.9505 H   0  0  0  0  0  0  0  0  0  0  0  0
    0.7939    1.7118    1.2426 H   0  0  0  0  0  0  0  0  0  0  0  0
   -1.0230    2.2480   -0.5671 H   0  0  0  0  0  0  0  0  0  0  0  0
   -1.9051    1.2372    0.6763 H   0  0  0  0  0  0  0  0  0  0  0  0
  1  2  1  0
  2  3  1  0
  3  4  1  0
  4  5  1  0
  5  6  1  0
  6  7  1  0
  7  8  1  0
  8  9  1  0
  7  2  1  0
  8  2  1  0
  9  4  1  0
  1 10  1  0
  1 11  1  0
  1 12  1  0
  4 13  1  0
  5 14  1  0
  5 15  1  0
  7 16  1  0
  8 17  1  0
  9 18  1  0
  9 19  1  0
M  END
