
     RDKit          3D

 17 19  0  0  0  0  0  0  0  0999 V2000
    2.1272   -0.5183   -0.2540 C   0  0  0  0  0  0  0  0  0  0  0  0
    0.6638   -0.3330   -0.2791 C   0  0  0  0  0  0  0  0  0  0  0  0
   -0.0608   -0.2006   -1.4343 O   0  0  0  0  0  0  0  0  0  0  0  0
   -1.0404    0.5104   -0.7714 C   0  0  0  0  0  0  0  0  0  0  0  0
   -2.0448   -0.4554   -0.1249 C   0  0  0  0  0  0  0  0  0  0  0  0
   -1.3330   -1.2474    0.7358 O   0  0  0  0  0  0  0  0  0  0  0  0
   -0.1361   -0.6036    1.0389 C   0  0  0  0  0  0  0  0  0  0  0  0
   -0.0952    0.6958    0.3700 C   0  0  0  0  0  0  0  0  0  0  0  0
    0.2989    1.8629    0.8764 O   0  0  0  0  0  0  0  0  0  0  0  0
    2.4415   -0.6964    0.8046 H   0  0  0  0  0  0  0  0  0  0  0  0
    2.7275    0.3204   -0.6425 H   0  0  0  0  0  0  0  0  0  0  0  0
    2.3708   -1.4675   -0.7939 H   0  0  0  0  0  0  0  0  0  0  0  0
   -1.4703    1.3769   -1.2449 H   0  0  0  0  0  0  0  0  0  0  0  0
   -2.6091   -1.0202   -0.8826 H   0  0  0  0  0  0  0  0  0  0  0  0
   -2.7721    0.1362    0.4883 H   0  0  0  0  0  0  0  0  0  0  0  0
    0.4348   -0.8951    1.9072 H   0  0  0  0  0  0  0  0  0  0  0  0
    0.4974    2.5350    0.2064 H   0  0  0  0  0  0  0  0  0  0  0  0
  1  2  1  0
  2  3  1  0
  3  4  1  0
  4  5  1  0
  5  6  1  0
  6  7  1  0
  7  8  1  0
  8  9  1  0
  7  2  1  0
  8  2  1  0
  8  4  1  0
  1 10  1  0
  1 11  1  0
  1 12  1  0
  4 13  1  0
  5 14  1  0
  5 15  1  0
  7 16  1  0
  9 17  1  0
M  END
