
     RDKit          3D

 19 20  0  0  0  0  0  0  0  0999 V2000
   -1.2947    1.1952    0.8326 C   0  0  0  0  0  0  0  0  0  0  0  0
   -0.7042    0.6838   -0.4343 C   0  0  0  0  0  0  0  0  0  0  0  0
   -1.2842   -0.4036   -1.2278 C   0  0  0  0  0  0  0  0  0  0  0  0
    0.0012   -0.6030   -0.5392 C   0  0  0  0  0  0  0  0  0  0  0  0
    0.1499   -1.5341    0.6335 C   0  0  0  0  0  0  0  0  0  0  0  0
    1.1541    0.3030   -0.8712 C   0  0  0  0  0  0  0  0  0  0  0  0
    2.1437    0.4910    0.2015 C   0  0  0  0  0  0  0  0  0  0  0  0
    2.9678   -0.3503    0.5242 O   0  0  0  0  0  0  0  0  0  0  0  0
    0.3268    1.4068   -1.0468 O   0  0  0  0  0  0  0  0  0  0  0  0
   -2.2254    1.7902    0.6357 H   0  0  0  0  0  0  0  0  0  0  0  0
   -1.5538    0.4130    1.5689 H   0  0  0  0  0  0  0  0  0  0  0  0
   -0.5811    1.8759    1.3389 H   0  0  0  0  0  0  0  0  0  0  0  0
   -1.2602   -0.3935   -2.3328 H   0  0  0  0  0  0  0  0  0  0  0  0
   -2.2041   -0.8706   -0.8238 H   0  0  0  0  0  0  0  0  0  0  0  0
   -0.5991   -2.3547    0.5253 H   0  0  0  0  0  0  0  0  0  0  0  0
    0.0235   -1.0376    1.5984 H   0  0  0  0  0  0  0  0  0  0  0  0
    1.1480   -2.0290    0.5226 H   0  0  0  0  0  0  0  0  0  0  0  0
    1.6293    0.0056   -1.8523 H   0  0  0  0  0  0  0  0  0  0  0  0
    2.1625    1.4118    0.7465 H   0  0  0  0  0  0  0  0  0  0  0  0
  1  2  1  0
  2  3  1  0
  3  4  1  0
  4  5  1  0
  4  6  1  0
  6  7  1  0
  7  8  2  0
  6  9  1  0
  4  2  1  0
  9  2  1  0
  1 10  1  0
  1 11  1  0
  1 12  1  0
  3 13  1  0
  3 14  1  0
  5 15  1  0
  5 16  1  0
  5 17  1  0
  6 18  1  0
  7 19  1  0
M  END
