
     RDKit          3D

 19 21  0  0  0  0  0  0  0  0999 V2000
    1.3998   -1.3880    0.4319 C   0  0  0  0  0  0  0  0  0  0  0  0
    0.3469   -0.4613   -0.0716 C   0  0  0  0  0  0  0  0  0  0  0  0
    0.9829    0.6747   -0.7466 C   0  0  0  0  0  0  0  0  0  0  0  0
    0.4298    1.8292   -0.3905 C   0  0  0  0  0  0  0  0  0  0  0  0
   -0.6727    1.5672    0.5952 C   0  0  0  0  0  0  0  0  0  0  0  0
   -1.7286    0.5687    0.1848 C   0  0  0  0  0  0  0  0  0  0  0  0
   -1.6326   -0.0624   -1.0361 O   0  0  0  0  0  0  0  0  0  0  0  0
   -0.6849   -1.0788   -0.9436 C   0  0  0  0  0  0  0  0  0  0  0  0
   -0.4821    0.1820    0.9822 C   0  0  0  0  0  0  0  0  0  0  0  0
    1.9885   -0.8283    1.2057 H   0  0  0  0  0  0  0  0  0  0  0  0
    1.0315   -2.2941    0.9169 H   0  0  0  0  0  0  0  0  0  0  0  0
    2.1176   -1.5757   -0.3984 H   0  0  0  0  0  0  0  0  0  0  0  0
    1.8042    0.5797   -1.4498 H   0  0  0  0  0  0  0  0  0  0  0  0
    0.7310    2.7985   -0.7564 H   0  0  0  0  0  0  0  0  0  0  0  0
   -0.9483    2.3664    1.2800 H   0  0  0  0  0  0  0  0  0  0  0  0
   -2.6533    0.6041    0.7579 H   0  0  0  0  0  0  0  0  0  0  0  0
   -0.2951   -1.2296   -1.9837 H   0  0  0  0  0  0  0  0  0  0  0  0
   -1.1173   -2.0133   -0.5521 H   0  0  0  0  0  0  0  0  0  0  0  0
   -0.6175   -0.2390    1.9743 H   0  0  0  0  0  0  0  0  0  0  0  0
  1  2  1  0
  2  3  1  0
  3  4  2  0
  4  5  1  0
  5  6  1  0
  6  7  1  0
  7  8  1  0
  6  9  1  0
  8  2  1  0
  9  2  1  0
  9  5  1  0
  1 10  1  0
  1 11  1  0
  1 12  1  0
  3 13  1  0
  4 14  1  0
  5 15  1  0
  6 16  1  0
  8 17  1  0
  8 18  1  0
  9 19  1  0
M  END
