
     RDKit          3D

 21 23  0  0  0  0  0  0  0  0999 V2000
    2.3389   -0.6856   -0.1673 C   0  0  0  0  0  0  0  0  0  0  0  0
    1.0030   -0.0302   -0.4070 C   0  0  0  0  0  0  0  0  0  0  0  0
   -0.1026   -0.8268   -1.0321 C   0  0  0  0  0  0  0  0  0  0  0  0
   -1.0248   -0.3899    0.0076 C   0  0  0  0  0  0  0  0  0  0  0  0
   -2.1424    0.5156   -0.3701 C   0  0  0  0  0  0  0  0  0  0  0  0
   -2.3300   -0.7912    0.3526 C   0  0  0  0  0  0  0  0  0  0  0  0
    0.0734    0.1369    0.8264 C   0  0  0  0  0  0  0  0  0  0  0  0
    0.8111    1.2996    0.1722 C   0  0  0  0  0  0  0  0  0  0  0  0
    1.8030    1.8158    0.9670 O   0  0  0  0  0  0  0  0  0  0  0  0
    2.2087   -1.7673   -0.1466 H   0  0  0  0  0  0  0  0  0  0  0  0
    2.8304   -0.2508    0.7159 H   0  0  0  0  0  0  0  0  0  0  0  0
    2.9845   -0.4334   -1.0401 H   0  0  0  0  0  0  0  0  0  0  0  0
   -0.3328   -0.5620   -2.0764 H   0  0  0  0  0  0  0  0  0  0  0  0
    0.1171   -1.9308   -0.9628 H   0  0  0  0  0  0  0  0  0  0  0  0
   -2.1755    1.4696    0.1927 H   0  0  0  0  0  0  0  0  0  0  0  0
   -2.3806    0.6148   -1.4299 H   0  0  0  0  0  0  0  0  0  0  0  0
   -2.7087   -0.6743    1.3856 H   0  0  0  0  0  0  0  0  0  0  0  0
   -2.8452   -1.5872   -0.2540 H   0  0  0  0  0  0  0  0  0  0  0  0
    0.4096   -0.2698    1.7689 H   0  0  0  0  0  0  0  0  0  0  0  0
    0.1111    2.0561   -0.2378 H   0  0  0  0  0  0  0  0  0  0  0  0
    1.3519    2.2911    1.7355 H   0  0  0  0  0  0  0  0  0  0  0  0
  1  2  1  0
  2  3  1  0
  3  4  1  0
  4  5  1  0
  5  6  1  0
  4  7  1  0
  7  8  1  0
  8  9  1  0
  7  2  1  0
  8  2  1  0
  6  4  1  0
  1 10  1  0
  1 11  1  0
  1 12  1  0
  3 13  1  0
  3 14  1  0
  5 15  1  0
  5 16  1  0
  6 17  1  0
  6 18  1  0
  7 19  1  0
  8 20  1  0
  9 21  1  0
M  END
