
     RDKit          3D

 23 24  0  0  0  0  0  0  0  0999 V2000
    2.4430    0.1484    0.1454 C   0  0  0  0  0  0  0  0  0  0  0  0
    1.0216   -0.2304   -0.0051 C   0  0  0  0  0  0  0  0  0  0  0  0
    0.7099   -1.6201   -0.4675 C   0  0  0  0  0  0  0  0  0  0  0  0
   -0.5587   -1.9991   -0.1307 O   0  0  0  0  0  0  0  0  0  0  0  0
   -1.5099   -1.0165   -0.1890 C   0  0  0  0  0  0  0  0  0  0  0  0
   -0.9544    0.3622    0.0723 C   0  0  0  0  0  0  0  0  0  0  0  0
   -1.9506    1.4328    0.2653 C   0  0  0  0  0  0  0  0  0  0  0  0
    0.1747    0.7028   -0.8812 C   0  0  0  0  0  0  0  0  0  0  0  0
    0.0978    0.1960    1.1478 C   0  0  0  0  0  0  0  0  0  0  0  0
    2.7496   -0.0051    1.2193 H   0  0  0  0  0  0  0  0  0  0  0  0
    3.0651   -0.5828   -0.4284 H   0  0  0  0  0  0  0  0  0  0  0  0
    2.7018    1.1693   -0.1515 H   0  0  0  0  0  0  0  0  0  0  0  0
    1.4442   -2.3615   -0.1285 H   0  0  0  0  0  0  0  0  0  0  0  0
    0.7798   -1.6046   -1.5945 H   0  0  0  0  0  0  0  0  0  0  0  0
   -2.2344   -1.2151    0.6536 H   0  0  0  0  0  0  0  0  0  0  0  0
   -2.1448   -1.0545   -1.1087 H   0  0  0  0  0  0  0  0  0  0  0  0
   -2.8648    1.0429    0.7493 H   0  0  0  0  0  0  0  0  0  0  0  0
   -2.2872    1.7809   -0.7550 H   0  0  0  0  0  0  0  0  0  0  0  0
   -1.5680    2.3127    0.7746 H   0  0  0  0  0  0  0  0  0  0  0  0
    0.4888    1.7486   -0.7407 H   0  0  0  0  0  0  0  0  0  0  0  0
    0.0077    0.3501   -1.8994 H   0  0  0  0  0  0  0  0  0  0  0  0
   -0.0696   -0.6670    1.8367 H   0  0  0  0  0  0  0  0  0  0  0  0
    0.4588    1.1100    1.6160 H   0  0  0  0  0  0  0  0  0  0  0  0
  1  2  1  0
  2  3  1  0
  3  4  1  0
  4  5  1  0
  5  6  1  0
  6  7  1  0
  6  8  1  0
  6  9  1  0
  8  2  1  0
  9  2  1  0
  1 10  1  0
  1 11  1  0
  1 12  1  0
  3 13  1  0
  3 14  1  0
  5 15  1  0
  5 16  1  0
  7 17  1  0
  7 18  1  0
  7 19  1  0
  8 20  1  0
  8 21  1  0
  9 22  1  0
  9 23  1  0
M  END
