
     RDKit          3D

 18 19  0  0  0  0  0  0  0  0999 V2000
    2.0611   -0.0749   -0.0064 C   0  0  0  0  0  0  0  0  0  0  0  0
    0.6277   -0.1895   -0.2004 C   0  0  0  0  0  0  0  0  0  0  0  0
   -0.2127   -0.6796    0.9920 C   0  0  0  0  0  0  0  0  0  0  0  0
   -1.3178    0.0159    0.1830 C   0  0  0  0  0  0  0  0  0  0  0  0
   -1.2836   -0.8008   -1.0602 C   0  0  0  0  0  0  0  0  0  0  0  0
    0.1142   -0.8212   -1.3104 O   0  0  0  0  0  0  0  0  0  0  0  0
   -0.2298    1.0573   -0.1144 C   0  0  0  0  0  0  0  0  0  0  0  0
    0.0513    1.8080    1.0211 O   0  0  0  0  0  0  0  0  0  0  0  0
    2.5997   -0.1607   -0.9650 H   0  0  0  0  0  0  0  0  0  0  0  0
    2.4205   -0.9330    0.6346 H   0  0  0  0  0  0  0  0  0  0  0  0
    2.3135    0.8765    0.5052 H   0  0  0  0  0  0  0  0  0  0  0  0
   -0.3265   -1.7640    1.0479 H   0  0  0  0  0  0  0  0  0  0  0  0
   -0.0220   -0.1200    1.9002 H   0  0  0  0  0  0  0  0  0  0  0  0
   -2.1930    0.3120    0.6634 H   0  0  0  0  0  0  0  0  0  0  0  0
   -1.8362   -0.3784   -1.9081 H   0  0  0  0  0  0  0  0  0  0  0  0
   -1.5473   -1.8564   -0.8336 H   0  0  0  0  0  0  0  0  0  0  0  0
   -0.3899    1.6007   -1.0403 H   0  0  0  0  0  0  0  0  0  0  0  0
   -0.8294    2.1081    1.3776 H   0  0  0  0  0  0  0  0  0  0  0  0
  1  2  1  0
  2  3  1  0
  3  4  1  0
  4  5  1  0
  5  6  1  0
  4  7  1  0
  7  8  1  0
  6  2  1  0
  7  2  1  0
  1  9  1  0
  1 10  1  0
  1 11  1  0
  3 12  1  0
  3 13  1  0
  4 14  1  0
  5 15  1  0
  5 16  1  0
  7 17  1  0
  8 18  1  0
M  END
