
     RDKit          3D

 21 23  0  0  0  0  0  0  0  0999 V2000
   -2.3810   -0.4772    0.1039 C   0  0  0  0  0  0  0  0  0  0  0  0
   -0.9481   -0.1015    0.0377 C   0  0  0  0  0  0  0  0  0  0  0  0
   -0.6241    1.2491   -0.5614 C   0  0  0  0  0  0  0  0  0  0  0  0
    0.7865    1.5249   -0.1425 C   0  0  0  0  0  0  0  0  0  0  0  0
    1.2553    0.3661    0.6933 C   0  0  0  0  0  0  0  0  0  0  0  0
    1.5268   -0.8718   -0.1267 C   0  0  0  0  0  0  0  0  0  0  0  0
    2.1273   -0.6502   -1.3371 O   0  0  0  0  0  0  0  0  0  0  0  0
    0.0626   -1.1548   -0.1319 C   0  0  0  0  0  0  0  0  0  0  0  0
   -0.0321   -0.2558    1.1383 C   0  0  0  0  0  0  0  0  0  0  0  0
   -2.6210   -1.2134    0.9104 H   0  0  0  0  0  0  0  0  0  0  0  0
   -2.9631    0.4592    0.3522 H   0  0  0  0  0  0  0  0  0  0  0  0
   -2.7266   -0.7840   -0.8880 H   0  0  0  0  0  0  0  0  0  0  0  0
   -0.7557    1.1805   -1.6658 H   0  0  0  0  0  0  0  0  0  0  0  0
   -1.3600    1.9803   -0.1925 H   0  0  0  0  0  0  0  0  0  0  0  0
    0.8031    2.4643    0.4369 H   0  0  0  0  0  0  0  0  0  0  0  0
    1.4165    1.6504   -1.0576 H   0  0  0  0  0  0  0  0  0  0  0  0
    1.9365    0.5782    1.5126 H   0  0  0  0  0  0  0  0  0  0  0  0
    2.1068   -1.6061    0.5071 H   0  0  0  0  0  0  0  0  0  0  0  0
    2.8047   -1.3224   -1.5937 H   0  0  0  0  0  0  0  0  0  0  0  0
   -0.2759   -2.1898   -0.0350 H   0  0  0  0  0  0  0  0  0  0  0  0
   -0.1385   -0.8259    2.0397 H   0  0  0  0  0  0  0  0  0  0  0  0
  1  2  1  0
  2  3  1  0
  3  4  1  0
  4  5  1  0
  5  6  1  0
  6  7  1  0
  6  8  1  0
  8  9  1  0
  8  2  1  0
  9  2  1  0
  9  5  1  0
  1 10  1  0
  1 11  1  0
  1 12  1  0
  3 13  1  0
  3 14  1  0
  4 15  1  0
  4 16  1  0
  5 17  1  0
  6 18  1  0
  7 19  1  0
  8 20  1  0
  9 21  1  0
M  END
