
     RDKit          3D

 23 24  0  0  0  0  0  0  0  0999 V2000
   -1.8677   -0.7358    0.8417 C   0  0  0  0  0  0  0  0  0  0  0  0
   -0.6607   -0.2996   -0.0016 C   0  0  0  0  0  0  0  0  0  0  0  0
    0.1210   -1.4656   -0.4266 C   0  0  0  0  0  0  0  0  0  0  0  0
    1.5590   -1.2934   -0.5598 C   0  0  0  0  0  0  0  0  0  0  0  0
    2.1827   -0.3124    0.0342 C   0  0  0  0  0  0  0  0  0  0  0  0
    1.4898    0.6929    0.8810 C   0  0  0  0  0  0  0  0  0  0  0  0
    0.0414    0.8283    0.6181 C   0  0  0  0  0  0  0  0  0  0  0  0
   -0.2818    1.7255   -0.5843 C   0  0  0  0  0  0  0  0  0  0  0  0
   -1.1545    0.6277   -1.0965 C   0  0  0  0  0  0  0  0  0  0  0  0
   -2.1748   -1.7656    0.5380 H   0  0  0  0  0  0  0  0  0  0  0  0
   -2.6930   -0.0013    0.7480 H   0  0  0  0  0  0  0  0  0  0  0  0
   -1.5030   -0.8106    1.8883 H   0  0  0  0  0  0  0  0  0  0  0  0
   -0.0554   -2.3223    0.2805 H   0  0  0  0  0  0  0  0  0  0  0  0
   -0.2678   -1.8527   -1.4142 H   0  0  0  0  0  0  0  0  0  0  0  0
    2.1194   -1.9938   -1.1637 H   0  0  0  0  0  0  0  0  0  0  0  0
    3.2510   -0.2199   -0.0898 H   0  0  0  0  0  0  0  0  0  0  0  0
    1.6736    0.4792    1.9605 H   0  0  0  0  0  0  0  0  0  0  0  0
    2.0002    1.6730    0.6873 H   0  0  0  0  0  0  0  0  0  0  0  0
   -0.4776    1.2571    1.5253 H   0  0  0  0  0  0  0  0  0  0  0  0
    0.6060    1.9518   -1.2098 H   0  0  0  0  0  0  0  0  0  0  0  0
   -0.7764    2.6780   -0.3155 H   0  0  0  0  0  0  0  0  0  0  0  0
   -2.2195    0.9139   -1.0347 H   0  0  0  0  0  0  0  0  0  0  0  0
   -0.9120    0.2456   -2.1061 H   0  0  0  0  0  0  0  0  0  0  0  0
  1  2  1  0
  2  3  1  0
  3  4  1  0
  4  5  2  0
  5  6  1  0
  6  7  1  0
  7  8  1  0
  8  9  1  0
  7  2  1  0
  9  2  1  0
  1 10  1  0
  1 11  1  0
  1 12  1  0
  3 13  1  0
  3 14  1  0
  4 15  1  0
  5 16  1  0
  6 17  1  0
  6 18  1  0
  7 19  1  0
  8 20  1  0
  8 21  1  0
  9 22  1  0
  9 23  1  0
M  END
