
     RDKit          3D

 19 21  0  0  0  0  0  0  0  0999 V2000
    2.2453    0.7635    0.3918 C   0  0  0  0  0  0  0  0  0  0  0  0
    0.9569    0.1456    0.1063 C   0  0  0  0  0  0  0  0  0  0  0  0
   -0.2515    0.5685    0.8864 C   0  0  0  0  0  0  0  0  0  0  0  0
   -0.8881    0.0381   -0.3833 C   0  0  0  0  0  0  0  0  0  0  0  0
   -2.1857    0.5326   -0.7948 C   0  0  0  0  0  0  0  0  0  0  0  0
    0.2644    0.5329   -1.0385 O   0  0  0  0  0  0  0  0  0  0  0  0
   -0.6038   -1.4484   -0.4060 C   0  0  0  0  0  0  0  0  0  0  0  0
    0.4545   -1.9189   -1.1913 O   0  0  0  0  0  0  0  0  0  0  0  0
    0.8753   -1.3584    0.0176 C   0  0  0  0  0  0  0  0  0  0  0  0
    2.9862    0.4341   -0.3737 H   0  0  0  0  0  0  0  0  0  0  0  0
    2.6278    0.3872    1.3600 H   0  0  0  0  0  0  0  0  0  0  0  0
    2.1387    1.8580    0.4182 H   0  0  0  0  0  0  0  0  0  0  0  0
   -0.3774    1.6661    0.9112 H   0  0  0  0  0  0  0  0  0  0  0  0
   -0.4711    0.0231    1.7982 H   0  0  0  0  0  0  0  0  0  0  0  0
   -2.8246    0.7313    0.1162 H   0  0  0  0  0  0  0  0  0  0  0  0
   -2.7447   -0.2579   -1.3527 H   0  0  0  0  0  0  0  0  0  0  0  0
   -2.1790    1.4421   -1.4000 H   0  0  0  0  0  0  0  0  0  0  0  0
   -1.2527   -2.1539    0.1045 H   0  0  0  0  0  0  0  0  0  0  0  0
    1.2294   -1.9855    0.8300 H   0  0  0  0  0  0  0  0  0  0  0  0
  1  2  1  0
  2  3  1  0
  3  4  1  0
  4  5  1  0
  4  6  1  0
  4  7  1  0
  7  8  1  0
  8  9  1  0
  6  2  1  0
  9  7  1  0
  9  2  1  0
  1 10  1  0
  1 11  1  0
  1 12  1  0
  3 13  1  0
  3 14  1  0
  5 15  1  0
  5 16  1  0
  5 17  1  0
  7 18  1  0
  9 19  1  0
M  END
