
     RDKit          3D

 19 20  0  0  0  0  0  0  0  0999 V2000
    2.2572   -0.1549    0.3405 C   0  0  0  0  0  0  0  0  0  0  0  0
    0.7723    0.0442    0.0017 C   0  0  0  0  0  0  0  0  0  0  0  0
    0.2761    1.4039    0.2333 C   0  0  0  0  0  0  0  0  0  0  0  0
   -1.0164    1.6785    0.2081 C   0  0  0  0  0  0  0  0  0  0  0  0
   -1.9554    0.5932   -0.0569 C   0  0  0  0  0  0  0  0  0  0  0  0
   -3.0186    0.8109   -0.6922 O   0  0  0  0  0  0  0  0  0  0  0  0
   -1.5808   -0.7555    0.4619 C   0  0  0  0  0  0  0  0  0  0  0  0
   -0.1484   -1.0645    0.2155 C   0  0  0  0  0  0  0  0  0  0  0  0
    0.3421   -0.7248   -1.2020 C   0  0  0  0  0  0  0  0  0  0  0  0
    2.8157    0.1752   -0.5702 H   0  0  0  0  0  0  0  0  0  0  0  0
    2.5712    0.4664    1.1820 H   0  0  0  0  0  0  0  0  0  0  0  0
    2.4329   -1.2350    0.4720 H   0  0  0  0  0  0  0  0  0  0  0  0
    0.9469    2.2383    0.4350 H   0  0  0  0  0  0  0  0  0  0  0  0
   -1.4000    2.6845    0.3770 H   0  0  0  0  0  0  0  0  0  0  0  0
   -2.2735   -1.4927   -0.0275 H   0  0  0  0  0  0  0  0  0  0  0  0
   -1.8116   -0.8363    1.5584 H   0  0  0  0  0  0  0  0  0  0  0  0
    0.1707   -2.0489    0.6188 H   0  0  0  0  0  0  0  0  0  0  0  0
    1.0139   -1.4703   -1.6478 H   0  0  0  0  0  0  0  0  0  0  0  0
   -0.3944   -0.3123   -1.9077 H   0  0  0  0  0  0  0  0  0  0  0  0
  1  2  1  0
  2  3  1  0
  3  4  2  0
  4  5  1  0
  5  6  2  0
  5  7  1  0
  7  8  1  0
  8  9  1  0
  8  2  1  0
  9  2  1  0
  1 10  1  0
  1 11  1  0
  1 12  1  0
  3 13  1  0
  4 14  1  0
  7 15  1  0
  7 16  1  0
  8 17  1  0
  9 18  1  0
  9 19  1  0
M  END
