
     RDKit          3D

 19 21  0  0  0  0  0  0  0  0999 V2000
   -0.3892    1.5177   -0.8768 C   0  0  0  0  0  0  0  0  0  0  0  0
   -0.0718    0.4368    0.1266 C   0  0  0  0  0  0  0  0  0  0  0  0
   -1.2062   -0.4031    0.5967 C   0  0  0  0  0  0  0  0  0  0  0  0
   -2.5137   -0.1924   -0.0444 C   0  0  0  0  0  0  0  0  0  0  0  0
   -3.5478   -0.3418    0.5907 O   0  0  0  0  0  0  0  0  0  0  0  0
   -0.1247   -0.9925   -0.2433 C   0  0  0  0  0  0  0  0  0  0  0  0
    1.1821   -1.2210    0.4641 C   0  0  0  0  0  0  0  0  0  0  0  0
    2.3713   -0.4696    0.0381 C   0  0  0  0  0  0  0  0  0  0  0  0
    1.2934    0.3120    0.6958 C   0  0  0  0  0  0  0  0  0  0  0  0
   -0.8872    1.0791   -1.7702 H   0  0  0  0  0  0  0  0  0  0  0  0
    0.5222    2.0264   -1.2423 H   0  0  0  0  0  0  0  0  0  0  0  0
   -1.0316    2.2909   -0.4188 H   0  0  0  0  0  0  0  0  0  0  0  0
   -1.2238   -0.7002    1.6719 H   0  0  0  0  0  0  0  0  0  0  0  0
   -2.5861    0.0970   -1.0839 H   0  0  0  0  0  0  0  0  0  0  0  0
   -0.2794   -1.3013   -1.2768 H   0  0  0  0  0  0  0  0  0  0  0  0
    1.1812   -1.8510    1.3732 H   0  0  0  0  0  0  0  0  0  0  0  0
    2.5969   -0.3038   -1.0233 H   0  0  0  0  0  0  0  0  0  0  0  0
    3.2844   -0.6141    0.6622 H   0  0  0  0  0  0  0  0  0  0  0  0
    1.4302    0.6308    1.7605 H   0  0  0  0  0  0  0  0  0  0  0  0
  1  2  1  0
  2  3  1  0
  3  4  1  0
  4  5  2  0
  3  6  1  0
  6  7  1  0
  7  8  1  0
  8  9  1  0
  6  2  1  0
  9  7  1  0
  9  2  1  0
  1 10  1  0
  1 11  1  0
  1 12  1  0
  3 13  1  0
  4 14  1  0
  6 15  1  0
  7 16  1  0
  8 17  1  0
  8 18  1  0
  9 19  1  0
M  END
