
     RDKit          3D

 19 22  0  0  0  0  0  0  0  0999 V2000
    1.3121   -1.5749   -0.5754 C   0  0  0  0  0  0  0  0  0  0  0  0
    0.5974   -0.4334    0.0340 C   0  0  0  0  0  0  0  0  0  0  0  0
    1.3959    0.8256    0.2984 C   0  0  0  0  0  0  0  0  0  0  0  0
    0.3856    0.8571   -0.7680 C   0  0  0  0  0  0  0  0  0  0  0  0
   -1.0277    1.1711   -0.3427 C   0  0  0  0  0  0  0  0  0  0  0  0
   -1.1359    0.8084    1.0974 C   0  0  0  0  0  0  0  0  0  0  0  0
   -2.4459    0.4210    0.8313 O   0  0  0  0  0  0  0  0  0  0  0  0
   -1.7750   -0.1092   -0.2591 C   0  0  0  0  0  0  0  0  0  0  0  0
   -0.7240   -0.5679    0.7068 C   0  0  0  0  0  0  0  0  0  0  0  0
    0.6855   -2.2575   -1.1842 H   0  0  0  0  0  0  0  0  0  0  0  0
    1.7044   -2.2207    0.2651 H   0  0  0  0  0  0  0  0  0  0  0  0
    2.1857   -1.2231   -1.1325 H   0  0  0  0  0  0  0  0  0  0  0  0
    2.4831    0.7832    0.0451 H   0  0  0  0  0  0  0  0  0  0  0  0
    1.1424    1.2836    1.2880 H   0  0  0  0  0  0  0  0  0  0  0  0
    0.6392    0.8807   -1.8227 H   0  0  0  0  0  0  0  0  0  0  0  0
   -1.4966    2.0568   -0.7156 H   0  0  0  0  0  0  0  0  0  0  0  0
   -0.8250    1.3439    1.8940 H   0  0  0  0  0  0  0  0  0  0  0  0
   -2.1764   -0.6475   -1.0110 H   0  0  0  0  0  0  0  0  0  0  0  0
   -0.9250   -1.3972    1.3512 H   0  0  0  0  0  0  0  0  0  0  0  0
  1  2  1  0
  2  3  1  0
  3  4  1  0
  4  5  1  0
  5  6  1  0
  6  7  1  0
  7  8  1  0
  8  9  1  0
  4  2  1  0
  8  5  1  0
  9  2  1  0
  9  6  1  0
  1 10  1  0
  1 11  1  0
  1 12  1  0
  3 13  1  0
  3 14  1  0
  4 15  1  0
  5 16  1  0
  6 17  1  0
  8 18  1  0
  9 19  1  0
M  END
