
     RDKit          3D

 23 24  0  0  0  0  0  0  0  0999 V2000
    2.2792    0.1948    0.0111 C   0  0  0  0  0  0  0  0  0  0  0  0
    0.8128   -0.0262   -0.0971 C   0  0  0  0  0  0  0  0  0  0  0  0
    0.0614    1.1081   -0.7127 C   0  0  0  0  0  0  0  0  0  0  0  0
   -1.3195    1.3040   -0.1215 C   0  0  0  0  0  0  0  0  0  0  0  0
   -1.9776   -0.0289   -0.0293 C   0  0  0  0  0  0  0  0  0  0  0  0
   -1.1025   -1.0078    0.7317 C   0  0  0  0  0  0  0  0  0  0  0  0
    0.1592   -0.3102    1.2627 C   0  0  0  0  0  0  0  0  0  0  0  0
   -0.5855   -1.8953   -0.1881 O   0  0  0  0  0  0  0  0  0  0  0  0
    0.5312   -1.3591   -0.7641 C   0  0  0  0  0  0  0  0  0  0  0  0
    2.5881    0.9675   -0.7296 H   0  0  0  0  0  0  0  0  0  0  0  0
    2.8600   -0.7268   -0.2565 H   0  0  0  0  0  0  0  0  0  0  0  0
    2.5003    0.5140    1.0576 H   0  0  0  0  0  0  0  0  0  0  0  0
   -0.0026    1.0794   -1.8092 H   0  0  0  0  0  0  0  0  0  0  0  0
    0.6261    2.0563   -0.4714 H   0  0  0  0  0  0  0  0  0  0  0  0
   -1.8996    1.9168   -0.8564 H   0  0  0  0  0  0  0  0  0  0  0  0
   -1.3082    1.8595    0.8181 H   0  0  0  0  0  0  0  0  0  0  0  0
   -2.1625   -0.3790   -1.0855 H   0  0  0  0  0  0  0  0  0  0  0  0
   -3.0002    0.0282    0.4217 H   0  0  0  0  0  0  0  0  0  0  0  0
   -1.6719   -1.4713    1.5385 H   0  0  0  0  0  0  0  0  0  0  0  0
   -0.0633    0.5915    1.8197 H   0  0  0  0  0  0  0  0  0  0  0  0
    0.7369   -1.0789    1.7881 H   0  0  0  0  0  0  0  0  0  0  0  0
    0.5380   -1.3151   -1.8524 H   0  0  0  0  0  0  0  0  0  0  0  0
    1.4000   -2.0217   -0.4752 H   0  0  0  0  0  0  0  0  0  0  0  0
  1  2  1  0
  2  3  1  0
  3  4  1  0
  4  5  1  0
  5  6  1  0
  6  7  1  0
  6  8  1  0
  8  9  1  0
  7  2  1  0
  9  2  1  0
  1 10  1  0
  1 11  1  0
  1 12  1  0
  3 13  1  0
  3 14  1  0
  4 15  1  0
  4 16  1  0
  5 17  1  0
  5 18  1  0
  6 19  1  0
  7 20  1  0
  7 21  1  0
  9 22  1  0
  9 23  1  0
M  END
