
     RDKit          3D

 19 22  0  0  0  0  0  0  0  0999 V2000
    2.1489    0.2652   -0.2240 C   0  0  0  0  0  0  0  0  0  0  0  0
    0.7467   -0.1130   -0.3064 C   0  0  0  0  0  0  0  0  0  0  0  0
   -0.2986    0.6178   -1.0698 C   0  0  0  0  0  0  0  0  0  0  0  0
   -1.1483    1.2222    0.0397 C   0  0  0  0  0  0  0  0  0  0  0  0
   -1.3121   -0.0843    0.8327 C   0  0  0  0  0  0  0  0  0  0  0  0
   -1.3285   -1.0966   -0.2663 C   0  0  0  0  0  0  0  0  0  0  0  0
   -1.1730   -0.4145   -1.4838 O   0  0  0  0  0  0  0  0  0  0  0  0
    0.1317   -1.3835    0.0589 C   0  0  0  0  0  0  0  0  0  0  0  0
    0.1042   -0.4105    1.0870 C   0  0  0  0  0  0  0  0  0  0  0  0
    2.7522   -0.5548    0.1974 H   0  0  0  0  0  0  0  0  0  0  0  0
    2.2538    1.1189    0.5099 H   0  0  0  0  0  0  0  0  0  0  0  0
    2.5618    0.6567   -1.1728 H   0  0  0  0  0  0  0  0  0  0  0  0
    0.0055    1.2873   -1.8339 H   0  0  0  0  0  0  0  0  0  0  0  0
   -2.0931    1.6224   -0.3035 H   0  0  0  0  0  0  0  0  0  0  0  0
   -0.5023    1.8947    0.6044 H   0  0  0  0  0  0  0  0  0  0  0  0
   -2.0477   -0.1007    1.5991 H   0  0  0  0  0  0  0  0  0  0  0  0
   -2.0143   -1.9135   -0.2335 H   0  0  0  0  0  0  0  0  0  0  0  0
    0.5479   -2.3623   -0.0007 H   0  0  0  0  0  0  0  0  0  0  0  0
    0.6652   -0.2516    1.9657 H   0  0  0  0  0  0  0  0  0  0  0  0
  1  2  1  0
  2  3  1  0
  3  4  1  0
  4  5  1  0
  5  6  1  0
  6  7  1  0
  6  8  1  0
  8  9  1  0
  8  2  1  0
  9  2  1  0
  7  3  1  0
  9  5  1  0
  1 10  1  0
  1 11  1  0
  1 12  1  0
  3 13  1  0
  4 14  1  0
  4 15  1  0
  5 16  1  0
  6 17  1  0
  8 18  1  0
  9 19  1  0
M  END
