
     RDKit          3D

 21 22  0  0  0  0  0  0  0  0999 V2000
   -0.9308   -1.3118   -0.6161 C   0  0  0  0  0  0  0  0  0  0  0  0
   -0.1421   -0.0777   -0.3922 C   0  0  0  0  0  0  0  0  0  0  0  0
   -0.8009    1.1974   -0.7842 C   0  0  0  0  0  0  0  0  0  0  0  0
   -1.7764    1.3811    0.3159 C   0  0  0  0  0  0  0  0  0  0  0  0
   -1.2936    0.8045    1.4092 C   0  0  0  0  0  0  0  0  0  0  0  0
    0.0164    0.2141    1.0906 C   0  0  0  0  0  0  0  0  0  0  0  0
    1.2253   -0.1690    1.4094 C   0  0  0  0  0  0  0  0  0  0  0  0
    1.9900   -0.7279    0.2639 C   0  0  0  0  0  0  0  0  0  0  0  0
    1.2585   -0.1176   -0.9175 C   0  0  0  0  0  0  0  0  0  0  0  0
   -0.3567   -2.0645   -1.2218 H   0  0  0  0  0  0  0  0  0  0  0  0
   -1.1403   -1.8231    0.3547 H   0  0  0  0  0  0  0  0  0  0  0  0
   -1.8980   -1.1261   -1.1205 H   0  0  0  0  0  0  0  0  0  0  0  0
   -0.0497    2.0142   -0.6767 H   0  0  0  0  0  0  0  0  0  0  0  0
   -1.2689    1.1836   -1.7824 H   0  0  0  0  0  0  0  0  0  0  0  0
   -2.7087    1.8959    0.2232 H   0  0  0  0  0  0  0  0  0  0  0  0
   -1.7241    0.7362    2.4084 H   0  0  0  0  0  0  0  0  0  0  0  0
    1.5906   -0.0650    2.4429 H   0  0  0  0  0  0  0  0  0  0  0  0
    1.9437   -1.8284    0.2729 H   0  0  0  0  0  0  0  0  0  0  0  0
    3.0028   -0.3141    0.2747 H   0  0  0  0  0  0  0  0  0  0  0  0
    1.3805   -0.6893   -1.8487 H   0  0  0  0  0  0  0  0  0  0  0  0
    1.6824    0.8875   -1.1058 H   0  0  0  0  0  0  0  0  0  0  0  0
  1  2  1  0
  2  3  1  0
  3  4  1  0
  4  5  2  0
  5  6  1  0
  6  7  2  0
  7  8  1  0
  8  9  1  0
  6  2  1  0
  9  2  1  0
  1 10  1  0
  1 11  1  0
  1 12  1  0
  3 13  1  0
  3 14  1  0
  4 15  1  0
  5 16  1  0
  7 17  1  0
  8 18  1  0
  8 19  1  0
  9 20  1  0
  9 21  1  0
M  END
