
     RDKit          3D

 19 20  0  0  0  0  0  0  0  0999 V2000
   -1.7220   -1.2310   -0.3679 C   0  0  0  0  0  0  0  0  0  0  0  0
   -0.7191   -0.1314   -0.2014 C   0  0  0  0  0  0  0  0  0  0  0  0
   -1.2181    1.1702    0.3271 C   0  0  0  0  0  0  0  0  0  0  0  0
   -0.3504    1.1354    1.4151 O   0  0  0  0  0  0  0  0  0  0  0  0
    0.1174   -0.1356    1.0181 C   0  0  0  0  0  0  0  0  0  0  0  0
    1.5224    0.0204    0.4797 C   0  0  0  0  0  0  0  0  0  0  0  0
    2.1926   -1.1771    0.3591 O   0  0  0  0  0  0  0  0  0  0  0  0
    1.2404    0.6610   -0.8817 C   0  0  0  0  0  0  0  0  0  0  0  0
    0.1173   -0.0594   -1.3095 O   0  0  0  0  0  0  0  0  0  0  0  0
   -1.1769   -2.1816   -0.5518 H   0  0  0  0  0  0  0  0  0  0  0  0
   -2.3409   -0.9678   -1.2711 H   0  0  0  0  0  0  0  0  0  0  0  0
   -2.3635   -1.4000    0.5073 H   0  0  0  0  0  0  0  0  0  0  0  0
   -2.2673    1.2224    0.6464 H   0  0  0  0  0  0  0  0  0  0  0  0
   -1.0247    2.0118   -0.3885 H   0  0  0  0  0  0  0  0  0  0  0  0
   -0.0374   -0.9007    1.7734 H   0  0  0  0  0  0  0  0  0  0  0  0
    2.1011    0.7629    1.0802 H   0  0  0  0  0  0  0  0  0  0  0  0
    2.8590   -1.0559   -0.3877 H   0  0  0  0  0  0  0  0  0  0  0  0
    2.0868    0.5373   -1.5593 H   0  0  0  0  0  0  0  0  0  0  0  0
    0.9834    1.7191   -0.6875 H   0  0  0  0  0  0  0  0  0  0  0  0
  1  2  1  0
  2  3  1  0
  3  4  1  0
  4  5  1  0
  5  6  1  0
  6  7  1  0
  6  8  1  0
  8  9  1  0
  5  2  1  0
  9  2  1  0
  1 10  1  0
  1 11  1  0
  1 12  1  0
  3 13  1  0
  3 14  1  0
  5 15  1  0
  6 16  1  0
  7 17  1  0
  8 18  1  0
  8 19  1  0
M  END
