
     RDKit          3D

 15 16  0  0  0  0  0  0  0  0999 V2000
    1.7744   -0.2385    0.1853 C   0  0  0  0  0  0  0  0  0  0  0  0
    0.3291    0.0646    0.4854 C   0  0  0  0  0  0  0  0  0  0  0  0
    0.0183    1.2640    1.0819 O   0  0  0  0  0  0  0  0  0  0  0  0
   -1.0783    1.5370    0.2520 C   0  0  0  0  0  0  0  0  0  0  0  0
   -0.6478    0.3542   -0.5782 C   0  0  0  0  0  0  0  0  0  0  0  0
   -0.6755   -0.9540    0.1417 C   0  0  0  0  0  0  0  0  0  0  0  0
   -0.2304   -2.0374   -0.5915 O   0  0  0  0  0  0  0  0  0  0  0  0
    2.1657   -0.7975    1.0786 H   0  0  0  0  0  0  0  0  0  0  0  0
    1.9072   -0.7921   -0.7530 H   0  0  0  0  0  0  0  0  0  0  0  0
    2.3996    0.6816    0.0997 H   0  0  0  0  0  0  0  0  0  0  0  0
   -0.9919    2.5214   -0.2054 H   0  0  0  0  0  0  0  0  0  0  0  0
   -2.0248    1.3503    0.8343 H   0  0  0  0  0  0  0  0  0  0  0  0
   -0.3837    0.4518   -1.6232 H   0  0  0  0  0  0  0  0  0  0  0  0
   -1.5802   -1.0777    0.7761 H   0  0  0  0  0  0  0  0  0  0  0  0
   -0.9815   -2.3277   -1.1837 H   0  0  0  0  0  0  0  0  0  0  0  0
  1  2  1  0
  2  3  1  0
  3  4  1  0
  4  5  1  0
  5  6  1  0
  6  7  1  0
  5  2  1  0
  6  2  1  0
  1  8  1  0
  1  9  1  0
  1 10  1  0
  4 11  1  0
  4 12  1  0
  5 13  1  0
  6 14  1  0
  7 15  1  0
M  END
