
     RDKit          3D

 15 16  0  0  0  0  0  0  0  0999 V2000
   -1.8295    0.5776   -0.0650 C   0  0  0  0  0  0  0  0  0  0  0  0
   -0.3847    0.2475    0.2062 C   0  0  0  0  0  0  0  0  0  0  0  0
    0.0879    0.2578    1.5155 O   0  0  0  0  0  0  0  0  0  0  0  0
    0.4001   -1.0860    1.3883 C   0  0  0  0  0  0  0  0  0  0  0  0
    0.7392   -1.9391    2.2490 O   0  0  0  0  0  0  0  0  0  0  0  0
    0.1778   -1.0774   -0.0824 C   0  0  0  0  0  0  0  0  0  0  0  0
    0.5964    0.1330   -0.8789 C   0  0  0  0  0  0  0  0  0  0  0  0
    1.9311    0.7414   -0.6157 C   0  0  0  0  0  0  0  0  0  0  0  0
    2.3174    0.8102    0.5466 O   0  0  0  0  0  0  0  0  0  0  0  0
   -2.1730    1.3142    0.6908 H   0  0  0  0  0  0  0  0  0  0  0  0
   -1.9490    1.0665   -1.0496 H   0  0  0  0  0  0  0  0  0  0  0  0
   -2.4013   -0.3565   -0.0208 H   0  0  0  0  0  0  0  0  0  0  0  0
   -0.3637   -1.9006   -0.5383 H   0  0  0  0  0  0  0  0  0  0  0  0
    0.2738    0.0847   -1.9417 H   0  0  0  0  0  0  0  0  0  0  0  0
    2.5774    1.1266   -1.4040 H   0  0  0  0  0  0  0  0  0  0  0  0
  1  2  1  0
  2  3  1  0
  3  4  1  0
  4  5  2  0
  4  6  1  0
  6  7  1  0
  7  8  1  0
  8  9  2  0
  6  2  1  0
  7  2  1  0
  1 10  1  0
  1 11  1  0
  1 12  1  0
  6 13  1  0
  7 14  1  0
  8 15  1  0
M  END
