
     RDKit          3D

 13 14  0  0  0  0  0  0  0  0999 V2000
   -1.4508    0.1429    0.3244 C   0  0  0  0  0  0  0  0  0  0  0  0
   -0.2511   -0.7779    0.0102 C   0  0  0  0  0  0  0  0  0  0  0  0
    0.9813   -0.2052    0.6714 C   0  0  0  0  0  0  0  0  0  0  0  0
    0.7386    0.8666   -0.3773 C   0  0  0  0  0  0  0  0  0  0  0  0
    0.7205    2.0510   -0.3466 O   0  0  0  0  0  0  0  0  0  0  0  0
    0.5836   -0.3351   -1.2331 C   0  0  0  0  0  0  0  0  0  0  0  0
   -0.3592   -1.2519   -1.2202 O   0  0  0  0  0  0  0  0  0  0  0  0
   -1.4579    0.2590    1.4333 H   0  0  0  0  0  0  0  0  0  0  0  0
   -2.4110   -0.4055    0.0929 H   0  0  0  0  0  0  0  0  0  0  0  0
   -1.4007    1.0763   -0.2276 H   0  0  0  0  0  0  0  0  0  0  0  0
    1.9130   -0.7613    0.5095 H   0  0  0  0  0  0  0  0  0  0  0  0
    0.7822    0.1561    1.6760 H   0  0  0  0  0  0  0  0  0  0  0  0
    1.6115   -0.8150   -1.3129 H   0  0  0  0  0  0  0  0  0  0  0  0
  1  2  1  0
  2  3  1  0
  3  4  1  0
  4  5  2  0
  4  6  1  0
  6  7  1  0
  6  2  1  0
  7  2  1  0
  1  8  1  0
  1  9  1  0
  1 10  1  0
  3 11  1  0
  3 12  1  0
  6 13  1  0
M  END
