
     RDKit          3D

 21 22  0  0  0  0  0  0  0  0999 V2000
    0.1962    1.9065   -0.5025 C   0  0  0  0  0  0  0  0  0  0  0  0
   -0.1483    0.6598    0.2348 C   0  0  0  0  0  0  0  0  0  0  0  0
   -1.6126    0.3003    0.3916 C   0  0  0  0  0  0  0  0  0  0  0  0
   -1.6823   -1.0502   -0.2890 C   0  0  0  0  0  0  0  0  0  0  0  0
   -0.3898   -1.6693    0.0865 C   0  0  0  0  0  0  0  0  0  0  0  0
   -0.1642   -2.8340    0.3268 O   0  0  0  0  0  0  0  0  0  0  0  0
    0.6185   -0.5912    0.1213 C   0  0  0  0  0  0  0  0  0  0  0  0
    1.8308   -0.7227   -0.7533 C   0  0  0  0  0  0  0  0  0  0  0  0
    0.7213    0.1911    1.3596 C   0  0  0  0  0  0  0  0  0  0  0  0
    0.2042    2.7411    0.2592 H   0  0  0  0  0  0  0  0  0  0  0  0
   -0.5887    2.0886   -1.2776 H   0  0  0  0  0  0  0  0  0  0  0  0
    1.1675    1.9151   -0.9951 H   0  0  0  0  0  0  0  0  0  0  0  0
   -1.9063    0.2164    1.4611 H   0  0  0  0  0  0  0  0  0  0  0  0
   -2.2821    1.0483   -0.0596 H   0  0  0  0  0  0  0  0  0  0  0  0
   -1.7212   -0.8700   -1.4008 H   0  0  0  0  0  0  0  0  0  0  0  0
   -2.5523   -1.6471    0.0127 H   0  0  0  0  0  0  0  0  0  0  0  0
    2.3286    0.2391   -0.9366 H   0  0  0  0  0  0  0  0  0  0  0  0
    2.5709   -1.3715   -0.2096 H   0  0  0  0  0  0  0  0  0  0  0  0
    1.5630   -1.2769   -1.6759 H   0  0  0  0  0  0  0  0  0  0  0  0
    1.6148    0.8404    1.5401 H   0  0  0  0  0  0  0  0  0  0  0  0
    0.2320   -0.1139    2.3063 H   0  0  0  0  0  0  0  0  0  0  0  0
  1  2  1  0
  2  3  1  0
  3  4  1  0
  4  5  1  0
  5  6  2  0
  5  7  1  0
  7  8  1  0
  7  9  1  0
  7  2  1  0
  9  2  1  0
  1 10  1  0
  1 11  1  0
  1 12  1  0
  3 13  1  0
  3 14  1  0
  4 15  1  0
  4 16  1  0
  8 17  1  0
  8 18  1  0
  8 19  1  0
  9 20  1  0
  9 21  1  0
M  END
