
     RDKit          3D

 21 22  0  0  0  0  0  0  0  0999 V2000
   -2.6692    0.4072    0.2588 C   0  0  0  0  0  0  0  0  0  0  0  0
   -1.2931   -0.1414    0.4950 C   0  0  0  0  0  0  0  0  0  0  0  0
   -1.0759   -1.2042    1.3296 O   0  0  0  0  0  0  0  0  0  0  0  0
   -1.1309   -1.5847    0.0150 C   0  0  0  0  0  0  0  0  0  0  0  0
   -0.1736   -1.0860   -1.0066 C   0  0  0  0  0  0  0  0  0  0  0  0
   -0.1329    0.2911   -0.3324 C   0  0  0  0  0  0  0  0  0  0  0  0
    1.1488    0.4407    0.4824 C   0  0  0  0  0  0  0  0  0  0  0  0
    2.3015    0.8778   -0.3794 C   0  0  0  0  0  0  0  0  0  0  0  0
    3.4183    0.9858    0.4486 O   0  0  0  0  0  0  0  0  0  0  0  0
   -3.0196    1.0963    1.0455 H   0  0  0  0  0  0  0  0  0  0  0  0
   -2.6119    1.0255   -0.6812 H   0  0  0  0  0  0  0  0  0  0  0  0
   -3.4165   -0.3921    0.0189 H   0  0  0  0  0  0  0  0  0  0  0  0
   -2.0366   -2.1538   -0.2627 H   0  0  0  0  0  0  0  0  0  0  0  0
   -0.6817   -0.9804   -1.9953 H   0  0  0  0  0  0  0  0  0  0  0  0
    0.8193   -1.5776   -1.0559 H   0  0  0  0  0  0  0  0  0  0  0  0
   -0.2849    1.1365   -0.9983 H   0  0  0  0  0  0  0  0  0  0  0  0
    1.4039   -0.5324    0.9507 H   0  0  0  0  0  0  0  0  0  0  0  0
    0.9623    1.2438    1.2242 H   0  0  0  0  0  0  0  0  0  0  0  0
    2.5530    0.1667   -1.1759 H   0  0  0  0  0  0  0  0  0  0  0  0
    2.0546    1.8859   -0.7834 H   0  0  0  0  0  0  0  0  0  0  0  0
    3.8650    0.0953    0.4651 H   0  0  0  0  0  0  0  0  0  0  0  0
  1  2  1  0
  2  3  1  0
  3  4  1  0
  4  5  1  0
  5  6  1  0
  6  7  1  0
  7  8  1  0
  8  9  1  0
  4  2  1  0
  6  2  1  0
  1 10  1  0
  1 11  1  0
  1 12  1  0
  4 13  1  0
  5 14  1  0
  5 15  1  0
  6 16  1  0
  7 17  1  0
  7 18  1  0
  8 19  1  0
  8 20  1  0
  9 21  1  0
M  END
