
     RDKit          3D

 19 21  0  0  0  0  0  0  0  0999 V2000
    2.2864   -0.4128   -0.1486 C   0  0  0  0  0  0  0  0  0  0  0  0
    0.8261   -0.1493   -0.2106 C   0  0  0  0  0  0  0  0  0  0  0  0
    0.3008    1.2651   -0.1998 C   0  0  0  0  0  0  0  0  0  0  0  0
   -0.7760    0.7927    0.7663 C   0  0  0  0  0  0  0  0  0  0  0  0
   -1.9888    0.3993   -0.0512 C   0  0  0  0  0  0  0  0  0  0  0  0
   -1.5332   -0.7859   -0.8238 C   0  0  0  0  0  0  0  0  0  0  0  0
   -2.2005   -1.2970   -1.7020 O   0  0  0  0  0  0  0  0  0  0  0  0
   -0.1885   -1.2133   -0.3575 C   0  0  0  0  0  0  0  0  0  0  0  0
   -0.0318   -0.4818    0.9164 C   0  0  0  0  0  0  0  0  0  0  0  0
    2.7681    0.4493    0.3912 H   0  0  0  0  0  0  0  0  0  0  0  0
    2.5030   -1.3070    0.4924 H   0  0  0  0  0  0  0  0  0  0  0  0
    2.7741   -0.5112   -1.1487 H   0  0  0  0  0  0  0  0  0  0  0  0
   -0.0717    1.5964   -1.1831 H   0  0  0  0  0  0  0  0  0  0  0  0
    0.9650    2.0212    0.2387 H   0  0  0  0  0  0  0  0  0  0  0  0
   -0.9500    1.4153    1.6375 H   0  0  0  0  0  0  0  0  0  0  0  0
   -2.1744    1.2217   -0.7652 H   0  0  0  0  0  0  0  0  0  0  0  0
   -2.8197    0.1935    0.6254 H   0  0  0  0  0  0  0  0  0  0  0  0
    0.0533   -2.2786   -0.3315 H   0  0  0  0  0  0  0  0  0  0  0  0
    0.2578   -0.9177    1.8540 H   0  0  0  0  0  0  0  0  0  0  0  0
  1  2  1  0
  2  3  1  0
  3  4  1  0
  4  5  1  0
  5  6  1  0
  6  7  2  0
  6  8  1  0
  8  9  1  0
  8  2  1  0
  9  2  1  0
  9  4  1  0
  1 10  1  0
  1 11  1  0
  1 12  1  0
  3 13  1  0
  3 14  1  0
  4 15  1  0
  5 16  1  0
  5 17  1  0
  8 18  1  0
  9 19  1  0
M  END
