
     RDKit          3D

 21 23  0  0  0  0  0  0  0  0999 V2000
   -0.9663    1.7874    0.3018 C   0  0  0  0  0  0  0  0  0  0  0  0
   -0.4591    0.4171    0.2261 C   0  0  0  0  0  0  0  0  0  0  0  0
   -0.8539   -0.6530    1.2279 C   0  0  0  0  0  0  0  0  0  0  0  0
   -0.0416   -1.7930    0.5919 C   0  0  0  0  0  0  0  0  0  0  0  0
   -0.5483   -1.6914   -0.8259 C   0  0  0  0  0  0  0  0  0  0  0  0
   -0.1895   -0.2160   -1.0661 C   0  0  0  0  0  0  0  0  0  0  0  0
    0.9096    0.0276   -0.1370 C   0  0  0  0  0  0  0  0  0  0  0  0
    2.0024    1.0049   -0.3610 C   0  0  0  0  0  0  0  0  0  0  0  0
    1.1963   -1.2041    0.5014 O   0  0  0  0  0  0  0  0  0  0  0  0
   -0.1784    2.5651    0.4164 H   0  0  0  0  0  0  0  0  0  0  0  0
   -1.7860    1.9139    1.0643 H   0  0  0  0  0  0  0  0  0  0  0  0
   -1.4751    2.0385   -0.6759 H   0  0  0  0  0  0  0  0  0  0  0  0
   -1.9091   -0.9162    1.1903 H   0  0  0  0  0  0  0  0  0  0  0  0
   -0.4477   -0.4664    2.2353 H   0  0  0  0  0  0  0  0  0  0  0  0
   -0.1308   -2.7281    1.0734 H   0  0  0  0  0  0  0  0  0  0  0  0
   -1.6607   -1.7223   -0.8654 H   0  0  0  0  0  0  0  0  0  0  0  0
   -0.0588   -2.3550   -1.5299 H   0  0  0  0  0  0  0  0  0  0  0  0
   -0.3304    0.2233   -2.0348 H   0  0  0  0  0  0  0  0  0  0  0  0
    2.2773    1.6010    0.5498 H   0  0  0  0  0  0  0  0  0  0  0  0
    2.9260    0.4884   -0.6753 H   0  0  0  0  0  0  0  0  0  0  0  0
    1.7241    1.6783   -1.2071 H   0  0  0  0  0  0  0  0  0  0  0  0
  1  2  1  0
  2  3  1  0
  3  4  1  0
  4  5  1  0
  5  6  1  0
  6  7  1  0
  7  8  1  0
  7  9  1  0
  6  2  1  0
  7  2  1  0
  9  4  1  0
  1 10  1  0
  1 11  1  0
  1 12  1  0
  3 13  1  0
  3 14  1  0
  4 15  1  0
  5 16  1  0
  5 17  1  0
  6 18  1  0
  8 19  1  0
  8 20  1  0
  8 21  1  0
M  END
