
     RDKit          3D

 19 20  0  0  0  0  0  0  0  0999 V2000
   -0.6407    1.6935    0.1820 C   0  0  0  0  0  0  0  0  0  0  0  0
   -0.4534    0.3032   -0.0593 C   0  0  0  0  0  0  0  0  0  0  0  0
   -1.2831   -0.4795   -1.0263 C   0  0  0  0  0  0  0  0  0  0  0  0
   -0.6465   -1.7454   -0.9255 O   0  0  0  0  0  0  0  0  0  0  0  0
    0.2917   -1.5516    0.0521 C   0  0  0  0  0  0  0  0  0  0  0  0
   -0.4178   -0.6878    1.1050 C   0  0  0  0  0  0  0  0  0  0  0  0
    0.9479   -0.2377   -0.3830 C   0  0  0  0  0  0  0  0  0  0  0  0
    1.9988    0.2605    0.5027 C   0  0  0  0  0  0  0  0  0  0  0  0
    3.1644    0.1439    0.1673 O   0  0  0  0  0  0  0  0  0  0  0  0
   -1.2151    2.2040   -0.6304 H   0  0  0  0  0  0  0  0  0  0  0  0
   -1.1367    1.8942    1.1770 H   0  0  0  0  0  0  0  0  0  0  0  0
    0.3344    2.2479    0.2268 H   0  0  0  0  0  0  0  0  0  0  0  0
   -1.2784   -0.1016   -2.0432 H   0  0  0  0  0  0  0  0  0  0  0  0
   -2.2980   -0.6320   -0.6012 H   0  0  0  0  0  0  0  0  0  0  0  0
    0.9182   -2.3303    0.3953 H   0  0  0  0  0  0  0  0  0  0  0  0
   -1.4187   -1.0830    1.2655 H   0  0  0  0  0  0  0  0  0  0  0  0
    0.1860   -0.3994    1.9545 H   0  0  0  0  0  0  0  0  0  0  0  0
    1.1409   -0.2347   -1.4549 H   0  0  0  0  0  0  0  0  0  0  0  0
    1.8062    0.7359    1.4567 H   0  0  0  0  0  0  0  0  0  0  0  0
  1  2  1  0
  2  3  1  0
  3  4  1  0
  4  5  1  0
  5  6  1  0
  5  7  1  0
  7  8  1  0
  8  9  2  0
  6  2  1  0
  7  2  1  0
  1 10  1  0
  1 11  1  0
  1 12  1  0
  3 13  1  0
  3 14  1  0
  5 15  1  0
  6 16  1  0
  6 17  1  0
  7 18  1  0
  8 19  1  0
M  END
