
     RDKit          3D

 15 17  0  0  0  0  0  0  0  0999 V2000
    1.8304    0.2894    0.3534 C   0  0  0  0  0  0  0  0  0  0  0  0
    0.4239   -0.1695    0.5041 C   0  0  0  0  0  0  0  0  0  0  0  0
    0.0332   -0.9931    1.5414 O   0  0  0  0  0  0  0  0  0  0  0  0
   -0.0450   -1.5195    0.2692 C   0  0  0  0  0  0  0  0  0  0  0  0
   -1.0982   -0.9674   -0.6910 C   0  0  0  0  0  0  0  0  0  0  0  0
   -0.6570   -0.1763   -1.7263 O   0  0  0  0  0  0  0  0  0  0  0  0
   -0.6078    0.3693   -0.4556 C   0  0  0  0  0  0  0  0  0  0  0  0
   -1.4107    1.5335   -0.1062 C   0  0  0  0  0  0  0  0  0  0  0  0
   -2.1370    2.0448   -0.9256 O   0  0  0  0  0  0  0  0  0  0  0  0
    2.2806    0.0059   -0.6222 H   0  0  0  0  0  0  0  0  0  0  0  0
    1.8823    1.4037    0.4320 H   0  0  0  0  0  0  0  0  0  0  0  0
    2.4527   -0.1005    1.1806 H   0  0  0  0  0  0  0  0  0  0  0  0
    0.5521   -2.3773   -0.0233 H   0  0  0  0  0  0  0  0  0  0  0  0
   -2.1307   -1.2956   -0.6115 H   0  0  0  0  0  0  0  0  0  0  0  0
   -1.3688    1.9526    0.8810 H   0  0  0  0  0  0  0  0  0  0  0  0
  1  2  1  0
  2  3  1  0
  3  4  1  0
  4  5  1  0
  5  6  1  0
  6  7  1  0
  7  8  1  0
  8  9  2  0
  4  2  1  0
  7  5  1  0
  7  2  1  0
  1 10  1  0
  1 11  1  0
  1 12  1  0
  4 13  1  0
  5 14  1  0
  8 15  1  0
M  END
