
     RDKit          3D

 19 20  0  0  0  0  0  0  0  0999 V2000
    1.8851   -0.7256    0.1690 C   0  0  0  0  0  0  0  0  0  0  0  0
    0.6511    0.0997    0.3724 C   0  0  0  0  0  0  0  0  0  0  0  0
   -0.0430   -0.2228    1.5044 O   0  0  0  0  0  0  0  0  0  0  0  0
   -1.1773   -0.9177    1.1724 C   0  0  0  0  0  0  0  0  0  0  0  0
   -1.5713   -0.4348   -0.2111 C   0  0  0  0  0  0  0  0  0  0  0  0
   -0.2808    0.0088   -0.8082 C   0  0  0  0  0  0  0  0  0  0  0  0
   -0.1768    1.5037   -1.0202 C   0  0  0  0  0  0  0  0  0  0  0  0
    0.7670    1.5411    0.1215 C   0  0  0  0  0  0  0  0  0  0  0  0
    1.3919    2.4352    0.6407 O   0  0  0  0  0  0  0  0  0  0  0  0
    2.7807   -0.1519   -0.0940 H   0  0  0  0  0  0  0  0  0  0  0  0
    2.1098   -1.2942    1.1093 H   0  0  0  0  0  0  0  0  0  0  0  0
    1.7301   -1.5060   -0.6124 H   0  0  0  0  0  0  0  0  0  0  0  0
   -1.9646   -0.6427    1.9281 H   0  0  0  0  0  0  0  0  0  0  0  0
   -1.0298   -2.0164    1.1213 H   0  0  0  0  0  0  0  0  0  0  0  0
   -2.0170   -1.2816   -0.7683 H   0  0  0  0  0  0  0  0  0  0  0  0
   -2.2781    0.3972   -0.1384 H   0  0  0  0  0  0  0  0  0  0  0  0
    0.1168   -0.5646   -1.6545 H   0  0  0  0  0  0  0  0  0  0  0  0
    0.2621    1.7760   -1.9941 H   0  0  0  0  0  0  0  0  0  0  0  0
   -1.1559    1.9966   -0.8379 H   0  0  0  0  0  0  0  0  0  0  0  0
  1  2  1  0
  2  3  1  0
  3  4  1  0
  4  5  1  0
  5  6  1  0
  6  7  1  0
  7  8  1  0
  8  9  2  0
  6  2  1  0
  8  2  1  0
  1 10  1  0
  1 11  1  0
  1 12  1  0
  4 13  1  0
  4 14  1  0
  5 15  1  0
  5 16  1  0
  6 17  1  0
  7 18  1  0
  7 19  1  0
M  END
