
     RDKit          3D

 21 23  0  0  0  0  0  0  0  0999 V2000
    1.8549    1.1503   -0.3185 C   0  0  0  0  0  0  0  0  0  0  0  0
    0.6345    0.4142    0.2111 C   0  0  0  0  0  0  0  0  0  0  0  0
    0.8487   -0.7657    1.0666 C   0  0  0  0  0  0  0  0  0  0  0  0
    0.4411   -0.9453   -0.3451 C   0  0  0  0  0  0  0  0  0  0  0  0
    1.3666   -1.4687   -1.2457 O   0  0  0  0  0  0  0  0  0  0  0  0
   -1.0225   -1.1144   -0.6322 C   0  0  0  0  0  0  0  0  0  0  0  0
   -1.6224    0.2565   -0.5228 C   0  0  0  0  0  0  0  0  0  0  0  0
   -1.8661    0.7284    0.8787 C   0  0  0  0  0  0  0  0  0  0  0  0
   -0.6577    1.1514    0.1511 C   0  0  0  0  0  0  0  0  0  0  0  0
    2.4566    0.5191   -1.0058 H   0  0  0  0  0  0  0  0  0  0  0  0
    1.5877    2.1032   -0.8022 H   0  0  0  0  0  0  0  0  0  0  0  0
    2.5195    1.3717    0.5551 H   0  0  0  0  0  0  0  0  0  0  0  0
    1.8754   -0.9656    1.4008 H   0  0  0  0  0  0  0  0  0  0  0  0
    0.0823   -0.9899    1.8475 H   0  0  0  0  0  0  0  0  0  0  0  0
    1.3633   -2.4576   -1.0979 H   0  0  0  0  0  0  0  0  0  0  0  0
   -1.1906   -1.6050   -1.6013 H   0  0  0  0  0  0  0  0  0  0  0  0
   -1.4464   -1.7451    0.1940 H   0  0  0  0  0  0  0  0  0  0  0  0
   -2.1718    0.7001   -1.3745 H   0  0  0  0  0  0  0  0  0  0  0  0
   -2.6594    1.4591    1.0492 H   0  0  0  0  0  0  0  0  0  0  0  0
   -1.7941   -0.0287    1.7055 H   0  0  0  0  0  0  0  0  0  0  0  0
   -0.5995    2.2320   -0.1136 H   0  0  0  0  0  0  0  0  0  0  0  0
  1  2  1  0
  2  3  1  0
  3  4  1  0
  4  5  1  0
  4  6  1  0
  6  7  1  0
  7  8  1  0
  8  9  1  0
  4  2  1  0
  9  7  1  0
  9  2  1  0
  1 10  1  0
  1 11  1  0
  1 12  1  0
  3 13  1  0
  3 14  1  0
  5 15  1  0
  6 16  1  0
  6 17  1  0
  7 18  1  0
  8 19  1  0
  8 20  1  0
  9 21  1  0
M  END
