
     RDKit          3D

 19 21  0  0  0  0  0  0  0  0999 V2000
    2.0704   -0.7406    0.0100 C   0  0  0  0  0  0  0  0  0  0  0  0
    0.7938   -0.3682   -0.6308 C   0  0  0  0  0  0  0  0  0  0  0  0
    0.3418   -1.4027   -1.5593 O   0  0  0  0  0  0  0  0  0  0  0  0
   -0.4381   -1.2768   -0.4603 C   0  0  0  0  0  0  0  0  0  0  0  0
   -1.5384   -0.2045   -0.3638 C   0  0  0  0  0  0  0  0  0  0  0  0
   -2.6696   -0.6819    0.2489 O   0  0  0  0  0  0  0  0  0  0  0  0
   -0.7781    0.8115    0.4165 C   0  0  0  0  0  0  0  0  0  0  0  0
   -0.1196    2.0090    0.1250 C   0  0  0  0  0  0  0  0  0  0  0  0
    0.2687    0.9846   -0.7626 C   0  0  0  0  0  0  0  0  0  0  0  0
    2.6798    0.1711    0.2207 H   0  0  0  0  0  0  0  0  0  0  0  0
    2.7011   -1.3374   -0.7126 H   0  0  0  0  0  0  0  0  0  0  0  0
    1.9815   -1.3413    0.9378 H   0  0  0  0  0  0  0  0  0  0  0  0
   -0.4052   -1.9875    0.3905 H   0  0  0  0  0  0  0  0  0  0  0  0
   -1.7850    0.1144   -1.4007 H   0  0  0  0  0  0  0  0  0  0  0  0
   -2.4759   -1.4624    0.7906 H   0  0  0  0  0  0  0  0  0  0  0  0
   -0.3713    0.2858    1.3394 H   0  0  0  0  0  0  0  0  0  0  0  0
   -0.7444    2.8882   -0.2091 H   0  0  0  0  0  0  0  0  0  0  0  0
    0.6812    2.4170    0.8084 H   0  0  0  0  0  0  0  0  0  0  0  0
   -0.1927    1.1217   -1.7942 H   0  0  0  0  0  0  0  0  0  0  0  0
  1  2  1  0
  2  3  1  0
  3  4  1  0
  4  5  1  0
  5  6  1  0
  5  7  1  0
  7  8  1  0
  8  9  1  0
  4  2  1  0
  9  7  1  0
  9  2  1  0
  1 10  1  0
  1 11  1  0
  1 12  1  0
  4 13  1  0
  5 14  1  0
  6 15  1  0
  7 16  1  0
  8 17  1  0
  8 18  1  0
  9 19  1  0
M  END
