
     RDKit          3D

 17 18  0  0  0  0  0  0  0  0999 V2000
   -1.6207   -0.2326   -0.6742 C   0  0  0  0  0  0  0  0  0  0  0  0
   -0.9239   -0.2574    0.6759 C   0  0  0  0  0  0  0  0  0  0  0  0
   -0.8505   -1.4501    1.2082 O   0  0  0  0  0  0  0  0  0  0  0  0
    0.3476   -1.1441    0.7855 C   0  0  0  0  0  0  0  0  0  0  0  0
    0.9578   -0.8895   -0.5404 C   0  0  0  0  0  0  0  0  0  0  0  0
    1.4304    0.5464   -0.4901 C   0  0  0  0  0  0  0  0  0  0  0  0
    0.7968    1.4463    0.2489 C   0  0  0  0  0  0  0  0  0  0  0  0
   -0.3891    1.0381    1.0343 C   0  0  0  0  0  0  0  0  0  0  0  0
   -0.8586    1.7636    1.9140 O   0  0  0  0  0  0  0  0  0  0  0  0
   -1.2239    0.5488   -1.3285 H   0  0  0  0  0  0  0  0  0  0  0  0
   -2.6854    0.0712   -0.4459 H   0  0  0  0  0  0  0  0  0  0  0  0
   -1.6903   -1.2195   -1.1413 H   0  0  0  0  0  0  0  0  0  0  0  0
    1.0701   -0.8986    1.6201 H   0  0  0  0  0  0  0  0  0  0  0  0
    1.8563   -1.5583   -0.6567 H   0  0  0  0  0  0  0  0  0  0  0  0
    0.3266   -1.0681   -1.4081 H   0  0  0  0  0  0  0  0  0  0  0  0
    2.2934    0.8395   -1.0629 H   0  0  0  0  0  0  0  0  0  0  0  0
    1.1635    2.4644    0.2613 H   0  0  0  0  0  0  0  0  0  0  0  0
  1  2  1  0
  2  3  1  0
  3  4  1  0
  4  5  1  0
  5  6  1  0
  6  7  2  0
  7  8  1  0
  8  9  2  0
  4  2  1  0
  8  2  1  0
  1 10  1  0
  1 11  1  0
  1 12  1  0
  4 13  1  0
  5 14  1  0
  5 15  1  0
  6 16  1  0
  7 17  1  0
M  END
