
     RDKit          3D

 21 23  0  0  0  0  0  0  0  0999 V2000
   -2.4419   -0.3573    0.2599 C   0  0  0  0  0  0  0  0  0  0  0  0
   -0.9945   -0.0614   -0.1529 C   0  0  0  0  0  0  0  0  0  0  0  0
   -0.5872    1.3480    0.0429 C   0  0  0  0  0  0  0  0  0  0  0  0
    0.9010    1.3920    0.2777 C   0  0  0  0  0  0  0  0  0  0  0  0
    1.2652   -0.0166    0.6045 C   0  0  0  0  0  0  0  0  0  0  0  0
    2.5122   -0.5425   -0.1125 C   0  0  0  0  0  0  0  0  0  0  0  0
    2.3904   -0.3829    1.2444 O   0  0  0  0  0  0  0  0  0  0  0  0
    0.0711   -0.8719    0.4227 C   0  0  0  0  0  0  0  0  0  0  0  0
   -0.3541   -0.9968   -1.0711 C   0  0  0  0  0  0  0  0  0  0  0  0
   -3.0259    0.5652    0.3906 H   0  0  0  0  0  0  0  0  0  0  0  0
   -2.8726   -1.0097   -0.5301 H   0  0  0  0  0  0  0  0  0  0  0  0
   -2.3758   -0.8965    1.2305 H   0  0  0  0  0  0  0  0  0  0  0  0
   -0.9263    2.0395   -0.7508 H   0  0  0  0  0  0  0  0  0  0  0  0
   -1.0606    1.7099    1.0007 H   0  0  0  0  0  0  0  0  0  0  0  0
    1.4503    1.7779   -0.6142 H   0  0  0  0  0  0  0  0  0  0  0  0
    1.1675    2.0556    1.1137 H   0  0  0  0  0  0  0  0  0  0  0  0
    2.4745   -1.5364   -0.5814 H   0  0  0  0  0  0  0  0  0  0  0  0
    3.0914    0.1928   -0.7250 H   0  0  0  0  0  0  0  0  0  0  0  0
   -0.1507   -1.7294    1.0696 H   0  0  0  0  0  0  0  0  0  0  0  0
   -0.9156   -1.9354   -1.2914 H   0  0  0  0  0  0  0  0  0  0  0  0
    0.3815   -0.7441   -1.8278 H   0  0  0  0  0  0  0  0  0  0  0  0
  1  2  1  0
  2  3  1  0
  3  4  1  0
  4  5  1  0
  5  6  1  0
  6  7  1  0
  5  8  1  0
  8  9  1  0
  8  2  1  0
  9  2  1  0
  7  5  1  0
  1 10  1  0
  1 11  1  0
  1 12  1  0
  3 13  1  0
  3 14  1  0
  4 15  1  0
  4 16  1  0
  6 17  1  0
  6 18  1  0
  8 19  1  0
  9 20  1  0
  9 21  1  0
M  END
