
     RDKit          3D

 16 17  0  0  0  0  0  0  0  0999 V2000
   -1.4619   -0.8011   -0.1516 C   0  0  0  0  0  0  0  0  0  0  0  0
   -0.4573    0.2383    0.1056 C   0  0  0  0  0  0  0  0  0  0  0  0
   -0.4014    1.5172   -0.6783 C   0  0  0  0  0  0  0  0  0  0  0  0
    0.9908    1.3432   -0.7715 O   0  0  0  0  0  0  0  0  0  0  0  0
    0.9687    0.1695   -0.0273 C   0  0  0  0  0  0  0  0  0  0  0  0
    1.8118   -0.9378   -0.3928 C   0  0  0  0  0  0  0  0  0  0  0  0
    1.8288   -1.9818    0.2238 O   0  0  0  0  0  0  0  0  0  0  0  0
    0.3614    0.2404    1.3651 C   0  0  0  0  0  0  0  0  0  0  0  0
   -2.3991   -0.3773   -0.5747 H   0  0  0  0  0  0  0  0  0  0  0  0
   -1.7422   -1.2874    0.8127 H   0  0  0  0  0  0  0  0  0  0  0  0
   -1.1582   -1.6173   -0.8295 H   0  0  0  0  0  0  0  0  0  0  0  0
   -0.6546    2.3813   -0.0039 H   0  0  0  0  0  0  0  0  0  0  0  0
   -0.9293    1.4920   -1.6351 H   0  0  0  0  0  0  0  0  0  0  0  0
    2.4643   -0.8578   -1.2478 H   0  0  0  0  0  0  0  0  0  0  0  0
    0.4045   -0.7202    1.9035 H   0  0  0  0  0  0  0  0  0  0  0  0
    0.3736    1.1990    1.9018 H   0  0  0  0  0  0  0  0  0  0  0  0
  1  2  1  0
  2  3  1  0
  3  4  1  0
  4  5  1  0
  5  6  1  0
  6  7  2  0
  5  8  1  0
  5  2  1  0
  8  2  1  0
  1  9  1  0
  1 10  1  0
  1 11  1  0
  3 12  1  0
  3 13  1  0
  6 14  1  0
  8 15  1  0
  8 16  1  0
M  END
