
     RDKit          3D

 16 18  0  0  0  0  0  0  0  0999 V2000
    1.6489   -0.2663    0.0983 C   0  0  0  0  0  0  0  0  0  0  0  0
    0.1980   -0.1830   -0.4149 C   0  0  0  0  0  0  0  0  0  0  0  0
   -0.2912    1.1975   -0.2237 C   0  0  0  0  0  0  0  0  0  0  0  0
    0.4007    2.1906    0.4295 O   0  0  0  0  0  0  0  0  0  0  0  0
   -0.9292    0.1735    0.5798 C   0  0  0  0  0  0  0  0  0  0  0  0
   -1.8202   -0.7560   -0.2086 C   0  0  0  0  0  0  0  0  0  0  0  0
   -1.5562   -2.0284   -0.6413 O   0  0  0  0  0  0  0  0  0  0  0  0
   -0.4713   -1.4782   -0.1919 C   0  0  0  0  0  0  0  0  0  0  0  0
    2.1156   -1.0630   -0.5474 H   0  0  0  0  0  0  0  0  0  0  0  0
    2.2107    0.6416   -0.0737 H   0  0  0  0  0  0  0  0  0  0  0  0
    1.6844   -0.5981    1.1375 H   0  0  0  0  0  0  0  0  0  0  0  0
   -0.8871    1.5984   -1.0957 H   0  0  0  0  0  0  0  0  0  0  0  0
    0.8808    2.7922   -0.2170 H   0  0  0  0  0  0  0  0  0  0  0  0
   -0.6488   -0.0819    1.6074 H   0  0  0  0  0  0  0  0  0  0  0  0
   -2.2452   -0.2724   -1.1128 H   0  0  0  0  0  0  0  0  0  0  0  0
   -0.2897   -1.8665    0.8745 H   0  0  0  0  0  0  0  0  0  0  0  0
  1  2  1  0
  2  3  1  0
  3  4  1  0
  3  5  1  0
  5  6  1  0
  6  7  1  0
  7  8  1  0
  5  2  1  0
  8  6  1  0
  8  2  1  0
  1  9  1  0
  1 10  1  0
  1 11  1  0
  3 12  1  0
  4 13  1  0
  5 14  1  0
  6 15  1  0
  8 16  1  0
M  END
