
     RDKit          3D

 20 21  0  0  0  0  0  0  0  0999 V2000
   -2.0915    0.1160    0.3389 C   0  0  0  0  0  0  0  0  0  0  0  0
   -0.6325    0.1136    0.1134 C   0  0  0  0  0  0  0  0  0  0  0  0
   -0.0033    1.4502   -0.0580 C   0  0  0  0  0  0  0  0  0  0  0  0
    1.0656    1.3149   -0.9722 O   0  0  0  0  0  0  0  0  0  0  0  0
    1.8933    0.3042   -0.4296 C   0  0  0  0  0  0  0  0  0  0  0  0
    1.1187   -0.9430   -0.1560 C   0  0  0  0  0  0  0  0  0  0  0  0
    0.2004   -0.7411    1.0583 C   0  0  0  0  0  0  0  0  0  0  0  0
   -0.1682   -0.8457   -0.9912 C   0  0  0  0  0  0  0  0  0  0  0  0
   -2.5050   -0.8706    0.5493 H   0  0  0  0  0  0  0  0  0  0  0  0
   -2.5955    0.4976   -0.5730 H   0  0  0  0  0  0  0  0  0  0  0  0
   -2.3443    0.7860    1.1571 H   0  0  0  0  0  0  0  0  0  0  0  0
   -0.7135    2.2304   -0.3653 H   0  0  0  0  0  0  0  0  0  0  0  0
    0.4996    1.7186    0.9133 H   0  0  0  0  0  0  0  0  0  0  0  0
    2.3149    0.7033    0.5198 H   0  0  0  0  0  0  0  0  0  0  0  0
    2.6942    0.0506   -1.1633 H   0  0  0  0  0  0  0  0  0  0  0  0
    1.6297   -1.8951   -0.2003 H   0  0  0  0  0  0  0  0  0  0  0  0
   -0.2826   -1.6917    1.3567 H   0  0  0  0  0  0  0  0  0  0  0  0
    0.7223   -0.1893    1.8498 H   0  0  0  0  0  0  0  0  0  0  0  0
   -0.0333   -0.3535   -1.9621 H   0  0  0  0  0  0  0  0  0  0  0  0
   -0.7690   -1.7553   -0.9856 H   0  0  0  0  0  0  0  0  0  0  0  0
  1  2  1  0
  2  3  1  0
  3  4  1  0
  4  5  1  0
  5  6  1  0
  6  7  1  0
  6  8  1  0
  7  2  1  0
  8  2  1  0
  1  9  1  0
  1 10  1  0
  1 11  1  0
  3 12  1  0
  3 13  1  0
  5 14  1  0
  5 15  1  0
  6 16  1  0
  7 17  1  0
  7 18  1  0
  8 19  1  0
  8 20  1  0
M  END
