
     RDKit          3D

 18 19  0  0  0  0  0  0  0  0999 V2000
    2.1345    0.3981   -0.2722 C   0  0  0  0  0  0  0  0  0  0  0  0
    0.7030    0.3808   -0.0577 C   0  0  0  0  0  0  0  0  0  0  0  0
   -0.1959   -0.1172   -1.1832 C   0  0  0  0  0  0  0  0  0  0  0  0
   -1.1571   -0.3518   -0.0161 C   0  0  0  0  0  0  0  0  0  0  0  0
   -2.1601   -1.1857   -0.1564 O   0  0  0  0  0  0  0  0  0  0  0  0
   -1.3006    1.0168    0.5397 C   0  0  0  0  0  0  0  0  0  0  0  0
    0.0369    1.4796    0.4202 O   0  0  0  0  0  0  0  0  0  0  0  0
    0.1126   -0.8098    0.7169 C   0  0  0  0  0  0  0  0  0  0  0  0
    2.5084    1.4142   -0.4339 H   0  0  0  0  0  0  0  0  0  0  0  0
    2.6629    0.0118    0.6467 H   0  0  0  0  0  0  0  0  0  0  0  0
    2.4136   -0.2354   -1.1411 H   0  0  0  0  0  0  0  0  0  0  0  0
    0.0776   -1.0727   -1.6239 H   0  0  0  0  0  0  0  0  0  0  0  0
   -0.5128    0.6420   -1.8984 H   0  0  0  0  0  0  0  0  0  0  0  0
   -2.3211   -1.7451    0.6349 H   0  0  0  0  0  0  0  0  0  0  0  0
   -2.0051    1.6716    0.0356 H   0  0  0  0  0  0  0  0  0  0  0  0
   -1.4723    0.9312    1.6384 H   0  0  0  0  0  0  0  0  0  0  0  0
    0.0153   -0.6480    1.7917 H   0  0  0  0  0  0  0  0  0  0  0  0
    0.4600   -1.7803    0.3590 H   0  0  0  0  0  0  0  0  0  0  0  0
  1  2  1  0
  2  3  1  0
  3  4  1  0
  4  5  1  0
  4  6  1  0
  6  7  1  0
  4  8  1  0
  7  2  1  0
  8  2  1  0
  1  9  1  0
  1 10  1  0
  1 11  1  0
  3 12  1  0
  3 13  1  0
  5 14  1  0
  6 15  1  0
  6 16  1  0
  8 17  1  0
  8 18  1  0
M  END
