
     RDKit          3D

 16 18  0  0  0  0  0  0  0  0999 V2000
    2.1168    0.4102   -0.5467 C   0  0  0  0  0  0  0  0  0  0  0  0
    0.8865   -0.1887    0.0274 C   0  0  0  0  0  0  0  0  0  0  0  0
    1.0506   -1.4890    0.5220 O   0  0  0  0  0  0  0  0  0  0  0  0
    0.0580   -1.1818   -0.3765 C   0  0  0  0  0  0  0  0  0  0  0  0
   -1.1721   -0.5151    0.1968 C   0  0  0  0  0  0  0  0  0  0  0  0
   -1.8769   -1.1002    1.2153 O   0  0  0  0  0  0  0  0  0  0  0  0
   -1.4724    0.8599   -0.2523 C   0  0  0  0  0  0  0  0  0  0  0  0
   -0.2223    0.6688    0.5774 C   0  0  0  0  0  0  0  0  0  0  0  0
    1.9937    1.4935   -0.7089 H   0  0  0  0  0  0  0  0  0  0  0  0
    2.9795    0.2213    0.1554 H   0  0  0  0  0  0  0  0  0  0  0  0
    2.3897   -0.0418   -1.5269 H   0  0  0  0  0  0  0  0  0  0  0  0
   -0.0760   -1.7891   -1.2710 H   0  0  0  0  0  0  0  0  0  0  0  0
   -2.8519   -0.8865    1.0668 H   0  0  0  0  0  0  0  0  0  0  0  0
   -1.2773    1.1913   -1.2890 H   0  0  0  0  0  0  0  0  0  0  0  0
   -2.3041    1.3629    0.2924 H   0  0  0  0  0  0  0  0  0  0  0  0
   -0.2219    0.9844    1.6185 H   0  0  0  0  0  0  0  0  0  0  0  0
  1  2  1  0
  2  3  1  0
  3  4  1  0
  4  5  1  0
  5  6  1  0
  5  7  1  0
  7  8  1  0
  4  2  1  0
  8  5  1  0
  8  2  1  0
  1  9  1  0
  1 10  1  0
  1 11  1  0
  4 12  1  0
  6 13  1  0
  7 14  1  0
  7 15  1  0
  8 16  1  0
M  END
