
     RDKit          3D

 21 23  0  0  0  0  0  0  0  0999 V2000
   -1.9815    1.2724    0.2181 C   0  0  0  0  0  0  0  0  0  0  0  0
   -0.7367    0.4461    0.2646 C   0  0  0  0  0  0  0  0  0  0  0  0
   -0.7492   -0.8216    1.0228 C   0  0  0  0  0  0  0  0  0  0  0  0
   -0.7899   -0.9475   -0.4457 C   0  0  0  0  0  0  0  0  0  0  0  0
    0.4295   -0.8753   -1.2990 C   0  0  0  0  0  0  0  0  0  0  0  0
    1.6795   -0.9880   -0.4535 C   0  0  0  0  0  0  0  0  0  0  0  0
    1.7647    0.3987    0.1748 C   0  0  0  0  0  0  0  0  0  0  0  0
    0.4872    1.0282   -0.3350 C   0  0  0  0  0  0  0  0  0  0  0  0
    0.4516    0.4967   -1.6478 O   0  0  0  0  0  0  0  0  0  0  0  0
   -2.6864    0.8261   -0.4905 H   0  0  0  0  0  0  0  0  0  0  0  0
   -1.7160    2.3223   -0.0175 H   0  0  0  0  0  0  0  0  0  0  0  0
   -2.4276    1.2448    1.2538 H   0  0  0  0  0  0  0  0  0  0  0  0
    0.1346   -1.1079    1.6266 H   0  0  0  0  0  0  0  0  0  0  0  0
   -1.7044   -1.0528    1.5428 H   0  0  0  0  0  0  0  0  0  0  0  0
   -1.7208   -1.1802   -0.9644 H   0  0  0  0  0  0  0  0  0  0  0  0
    0.4362   -1.5261   -2.1709 H   0  0  0  0  0  0  0  0  0  0  0  0
    1.6027   -1.7193    0.3479 H   0  0  0  0  0  0  0  0  0  0  0  0
    2.5581   -1.2127   -1.0871 H   0  0  0  0  0  0  0  0  0  0  0  0
    1.8455    0.3732    1.2605 H   0  0  0  0  0  0  0  0  0  0  0  0
    2.5989    0.9144   -0.3408 H   0  0  0  0  0  0  0  0  0  0  0  0
    0.5239    2.1084   -0.4174 H   0  0  0  0  0  0  0  0  0  0  0  0
  1  2  1  0
  2  3  1  0
  3  4  1  0
  4  5  1  0
  5  6  1  0
  6  7  1  0
  7  8  1  0
  8  9  1  0
  4  2  1  0
  9  5  1  0
  8  2  1  0
  1 10  1  0
  1 11  1  0
  1 12  1  0
  3 13  1  0
  3 14  1  0
  4 15  1  0
  5 16  1  0
  6 17  1  0
  6 18  1  0
  7 19  1  0
  7 20  1  0
  8 21  1  0
M  END
