
     RDKit          3D

 19 21  0  0  0  0  0  0  0  0999 V2000
   -1.8460   -0.2847   -0.3594 C   0  0  0  0  0  0  0  0  0  0  0  0
   -0.5796    0.0540    0.0374 C   0  0  0  0  0  0  0  0  0  0  0  0
   -0.0302    1.3964    0.3788 C   0  0  0  0  0  0  0  0  0  0  0  0
    0.0910    2.2951   -0.6619 O   0  0  0  0  0  0  0  0  0  0  0  0
    1.1493    0.4786    0.5636 C   0  0  0  0  0  0  0  0  0  0  0  0
    0.7082   -0.1822   -0.7008 C   0  0  0  0  0  0  0  0  0  0  0  0
    0.9794   -1.6192   -0.4631 C   0  0  0  0  0  0  0  0  0  0  0  0
    0.6143   -1.7517    0.8998 O   0  0  0  0  0  0  0  0  0  0  0  0
    0.1877   -0.4729    1.2157 C   0  0  0  0  0  0  0  0  0  0  0  0
   -2.4252    0.5366   -0.8247 H   0  0  0  0  0  0  0  0  0  0  0  0
   -1.8614   -1.1423   -1.0961 H   0  0  0  0  0  0  0  0  0  0  0  0
   -2.5026   -0.6557    0.4781 H   0  0  0  0  0  0  0  0  0  0  0  0
   -0.4070    1.8640    1.3030 H   0  0  0  0  0  0  0  0  0  0  0  0
    0.8247    2.9487   -0.5483 H   0  0  0  0  0  0  0  0  0  0  0  0
    2.0706    0.7200    0.8580 H   0  0  0  0  0  0  0  0  0  0  0  0
    0.8733    0.2762   -1.6427 H   0  0  0  0  0  0  0  0  0  0  0  0
    2.0402   -1.9078   -0.6210 H   0  0  0  0  0  0  0  0  0  0  0  0
    0.2774   -2.2881   -1.0211 H   0  0  0  0  0  0  0  0  0  0  0  0
   -0.1643   -0.2650    2.2049 H   0  0  0  0  0  0  0  0  0  0  0  0
  1  2  1  0
  2  3  1  0
  3  4  1  0
  3  5  1  0
  5  6  1  0
  6  7  1  0
  7  8  1  0
  8  9  1  0
  6  2  1  0
  9  2  1  0
  9  5  1  0
  1 10  1  0
  1 11  1  0
  1 12  1  0
  3 13  1  0
  4 14  1  0
  5 15  1  0
  6 16  1  0
  7 17  1  0
  7 18  1  0
  9 19  1  0
M  END
