
     RDKit          3D

 21 23  0  0  0  0  0  0  0  0999 V2000
   -1.7193    0.4726    1.3057 C   0  0  0  0  0  0  0  0  0  0  0  0
   -1.0878   -0.2719    0.2051 C   0  0  0  0  0  0  0  0  0  0  0  0
   -1.9409   -0.7063   -0.9483 C   0  0  0  0  0  0  0  0  0  0  0  0
   -1.0798    0.4368   -1.2014 C   0  0  0  0  0  0  0  0  0  0  0  0
    0.3871    0.4567   -1.0069 C   0  0  0  0  0  0  0  0  0  0  0  0
    1.6551    0.7227   -1.1266 C   0  0  0  0  0  0  0  0  0  0  0  0
    2.5070   -0.0249   -0.1214 C   0  0  0  0  0  0  0  0  0  0  0  0
    1.4232   -0.3350    0.9528 C   0  0  0  0  0  0  0  0  0  0  0  0
    0.3082   -0.6281    0.0619 C   0  0  0  0  0  0  0  0  0  0  0  0
   -1.0658    0.8429    2.0875 H   0  0  0  0  0  0  0  0  0  0  0  0
   -2.5600   -0.1585    1.7195 H   0  0  0  0  0  0  0  0  0  0  0  0
   -2.2514    1.3724    0.8821 H   0  0  0  0  0  0  0  0  0  0  0  0
   -1.7265   -1.7288   -1.3477 H   0  0  0  0  0  0  0  0  0  0  0  0
   -3.0273   -0.5393   -0.8104 H   0  0  0  0  0  0  0  0  0  0  0  0
   -1.6014    1.4408   -1.2246 H   0  0  0  0  0  0  0  0  0  0  0  0
    2.1106    1.3953   -1.8459 H   0  0  0  0  0  0  0  0  0  0  0  0
    3.2551    0.5925    0.3539 H   0  0  0  0  0  0  0  0  0  0  0  0
    2.8697   -0.9274   -0.6030 H   0  0  0  0  0  0  0  0  0  0  0  0
    1.7935   -1.2450    1.4651 H   0  0  0  0  0  0  0  0  0  0  0  0
    1.3209    0.4614    1.6713 H   0  0  0  0  0  0  0  0  0  0  0  0
    0.4297   -1.6289   -0.4689 H   0  0  0  0  0  0  0  0  0  0  0  0
  1  2  1  0
  2  3  1  0
  3  4  1  0
  4  5  1  0
  5  6  2  0
  6  7  1  0
  7  8  1  0
  8  9  1  0
  4  2  1  0
  9  5  1  0
  9  2  1  0
  1 10  1  0
  1 11  1  0
  1 12  1  0
  3 13  1  0
  3 14  1  0
  4 15  1  0
  6 16  1  0
  7 17  1  0
  7 18  1  0
  8 19  1  0
  8 20  1  0
  9 21  1  0
M  END
