
     RDKit          3D

 19 21  0  0  0  0  0  0  0  0999 V2000
    2.5812   -0.5180    0.1782 C   0  0  0  0  0  0  0  0  0  0  0  0
    1.3355    0.2366    0.5288 C   0  0  0  0  0  0  0  0  0  0  0  0
    0.5598    0.9603   -0.5494 C   0  0  0  0  0  0  0  0  0  0  0  0
   -0.6452    0.1837   -0.1513 C   0  0  0  0  0  0  0  0  0  0  0  0
   -1.6721   -0.2919   -1.0470 C   0  0  0  0  0  0  0  0  0  0  0  0
   -1.9701    0.7377    0.0380 C   0  0  0  0  0  0  0  0  0  0  0  0
   -2.6808    0.3226    1.1640 O   0  0  0  0  0  0  0  0  0  0  0  0
    0.1069   -0.6251    0.8305 C   0  0  0  0  0  0  0  0  0  0  0  0
    0.8088    0.1015    1.7899 O   0  0  0  0  0  0  0  0  0  0  0  0
    3.4343    0.1959    0.2661 H   0  0  0  0  0  0  0  0  0  0  0  0
    2.7260   -1.2918    0.9815 H   0  0  0  0  0  0  0  0  0  0  0  0
    2.5444   -1.0489   -0.7764 H   0  0  0  0  0  0  0  0  0  0  0  0
    0.4445    2.0451   -0.3408 H   0  0  0  0  0  0  0  0  0  0  0  0
    0.9059    0.7333   -1.5640 H   0  0  0  0  0  0  0  0  0  0  0  0
   -1.6676    0.1301   -2.0931 H   0  0  0  0  0  0  0  0  0  0  0  0
   -2.1638   -1.2748   -0.9858 H   0  0  0  0  0  0  0  0  0  0  0  0
   -2.1381    1.7902   -0.2573 H   0  0  0  0  0  0  0  0  0  0  0  0
   -2.7251   -0.6738    1.2253 H   0  0  0  0  0  0  0  0  0  0  0  0
    0.2155   -1.7125    0.7628 H   0  0  0  0  0  0  0  0  0  0  0  0
  1  2  1  0
  2  3  1  0
  3  4  1  0
  4  5  1  0
  5  6  1  0
  6  7  1  0
  4  8  1  0
  8  9  1  0
  8  2  1  0
  9  2  1  0
  6  4  1  0
  1 10  1  0
  1 11  1  0
  1 12  1  0
  3 13  1  0
  3 14  1  0
  5 15  1  0
  5 16  1  0
  6 17  1  0
  7 18  1  0
  8 19  1  0
M  END
