
     RDKit          3D

 19 22  0  0  0  0  0  0  0  0999 V2000
    2.2030   -0.2464   -0.0825 C   0  0  0  0  0  0  0  0  0  0  0  0
    0.8031   -0.1757    0.2264 C   0  0  0  0  0  0  0  0  0  0  0  0
    0.1585    1.2482    0.3981 C   0  0  0  0  0  0  0  0  0  0  0  0
   -1.3788    1.0583    0.2241 C   0  0  0  0  0  0  0  0  0  0  0  0
   -2.0666   -0.3118   -0.0787 C   0  0  0  0  0  0  0  0  0  0  0  0
   -1.4506   -1.5730   -0.1957 O   0  0  0  0  0  0  0  0  0  0  0  0
   -0.0371   -1.5009   -0.0298 C   0  0  0  0  0  0  0  0  0  0  0  0
   -0.2633   -0.5426    0.7414 C   0  0  0  0  0  0  0  0  0  0  0  0
   -0.9560    0.1376   -0.5821 C   0  0  0  0  0  0  0  0  0  0  0  0
    2.4907   -1.0136   -0.8583 H   0  0  0  0  0  0  0  0  0  0  0  0
    2.8656   -0.5011    0.7959 H   0  0  0  0  0  0  0  0  0  0  0  0
    2.5916    0.7172   -0.4812 H   0  0  0  0  0  0  0  0  0  0  0  0
    0.3335    1.6051    1.4213 H   0  0  0  0  0  0  0  0  0  0  0  0
    0.5406    1.9139   -0.3934 H   0  0  0  0  0  0  0  0  0  0  0  0
   -1.9714    1.9127   -0.0073 H   0  0  0  0  0  0  0  0  0  0  0  0
   -3.0553   -0.2659   -0.4446 H   0  0  0  0  0  0  0  0  0  0  0  0
    0.4403   -2.0676   -0.8210 H   0  0  0  0  0  0  0  0  0  0  0  0
   -0.6922   -0.5004    1.7160 H   0  0  0  0  0  0  0  0  0  0  0  0
   -0.5556    0.1059   -1.5486 H   0  0  0  0  0  0  0  0  0  0  0  0
  1  2  1  0
  2  3  1  0
  3  4  1  0
  4  5  1  0
  5  6  1  0
  6  7  1  0
  7  8  1  0
  8  9  1  0
  7  2  1  0
  8  2  1  0
  9  4  1  0
  9  5  1  0
  1 10  1  0
  1 11  1  0
  1 12  1  0
  3 13  1  0
  3 14  1  0
  4 15  1  0
  5 16  1  0
  7 17  1  0
  8 18  1  0
  9 19  1  0
M  END
