
     RDKit          3D

 17 19  0  0  0  0  0  0  0  0999 V2000
   -2.0213   -0.2237    0.0867 C   0  0  0  0  0  0  0  0  0  0  0  0
   -0.5749    0.0454    0.0843 C   0  0  0  0  0  0  0  0  0  0  0  0
   -0.0182    1.2560    0.8256 C   0  0  0  0  0  0  0  0  0  0  0  0
    1.3102    1.3466    0.5111 O   0  0  0  0  0  0  0  0  0  0  0  0
    1.6271    0.4310   -0.4696 C   0  0  0  0  0  0  0  0  0  0  0  0
    1.8189   -0.9164    0.1367 C   0  0  0  0  0  0  0  0  0  0  0  0
    2.7004   -1.6245    0.5874 O   0  0  0  0  0  0  0  0  0  0  0  0
    0.3533   -1.1290   -0.0208 C   0  0  0  0  0  0  0  0  0  0  0  0
    0.3335   -0.0819   -1.0343 C   0  0  0  0  0  0  0  0  0  0  0  0
   -2.6165    0.5651   -0.4302 H   0  0  0  0  0  0  0  0  0  0  0  0
   -2.2378   -1.2102   -0.3158 H   0  0  0  0  0  0  0  0  0  0  0  0
   -2.3662   -0.2440    1.1635 H   0  0  0  0  0  0  0  0  0  0  0  0
   -0.2257    1.1986    1.9158 H   0  0  0  0  0  0  0  0  0  0  0  0
   -0.5333    2.1467    0.3648 H   0  0  0  0  0  0  0  0  0  0  0  0
    2.3818    0.7467   -1.1937 H   0  0  0  0  0  0  0  0  0  0  0  0
   -0.0562   -2.1345   -0.1372 H   0  0  0  0  0  0  0  0  0  0  0  0
    0.1247   -0.1721   -2.0740 H   0  0  0  0  0  0  0  0  0  0  0  0
  1  2  1  0
  2  3  1  0
  3  4  1  0
  4  5  1  0
  5  6  1  0
  6  7  2  0
  6  8  1  0
  8  9  1  0
  8  2  1  0
  9  2  1  0
  9  5  1  0
  1 10  1  0
  1 11  1  0
  1 12  1  0
  3 13  1  0
  3 14  1  0
  5 15  1  0
  8 16  1  0
  9 17  1  0
M  END
