
     RDKit          3D

 19 22  0  0  0  0  0  0  0  0999 V2000
    2.3085    0.3638   -0.0124 C   0  0  0  0  0  0  0  0  0  0  0  0
    0.8482    0.0826   -0.0806 C   0  0  0  0  0  0  0  0  0  0  0  0
   -0.1067    1.0952   -0.6706 C   0  0  0  0  0  0  0  0  0  0  0  0
   -1.4386    0.3791   -0.5446 C   0  0  0  0  0  0  0  0  0  0  0  0
   -2.5928    0.9822   -0.9528 O   0  0  0  0  0  0  0  0  0  0  0  0
   -1.1392   -1.0194   -0.7713 C   0  0  0  0  0  0  0  0  0  0  0  0
    0.3077   -1.2069   -0.4964 C   0  0  0  0  0  0  0  0  0  0  0  0
    0.1167   -0.7217    0.8835 C   0  0  0  0  0  0  0  0  0  0  0  0
   -1.3163   -0.4290    0.6646 C   0  0  0  0  0  0  0  0  0  0  0  0
    2.5493    1.4115    0.1415 H   0  0  0  0  0  0  0  0  0  0  0  0
    2.8046   -0.0023   -0.9418 H   0  0  0  0  0  0  0  0  0  0  0  0
    2.7169   -0.2000    0.8721 H   0  0  0  0  0  0  0  0  0  0  0  0
   -0.1273    2.0433   -0.1318 H   0  0  0  0  0  0  0  0  0  0  0  0
    0.1128    1.1679   -1.7462 H   0  0  0  0  0  0  0  0  0  0  0  0
   -2.4795    1.9644   -0.8730 H   0  0  0  0  0  0  0  0  0  0  0  0
   -1.8288   -1.8187   -0.9844 H   0  0  0  0  0  0  0  0  0  0  0  0
    0.8709   -2.0806   -0.7785 H   0  0  0  0  0  0  0  0  0  0  0  0
    0.5174   -1.2007    1.7685 H   0  0  0  0  0  0  0  0  0  0  0  0
   -2.1237   -0.8107    1.2695 H   0  0  0  0  0  0  0  0  0  0  0  0
  1  2  1  0
  2  3  1  0
  3  4  1  0
  4  5  1  0
  4  6  1  0
  6  7  1  0
  7  8  1  0
  8  9  1  0
  7  2  1  0
  8  2  1  0
  9  4  1  0
  9  6  1  0
  1 10  1  0
  1 11  1  0
  1 12  1  0
  3 13  1  0
  3 14  1  0
  5 15  1  0
  6 16  1  0
  7 17  1  0
  8 18  1  0
  9 19  1  0
M  END
