
     RDKit          3D

 21 23  0  0  0  0  0  0  0  0999 V2000
   -2.3983    0.5072    0.4530 C   0  0  0  0  0  0  0  0  0  0  0  0
   -1.0265    0.1410    0.1995 C   0  0  0  0  0  0  0  0  0  0  0  0
   -0.5798   -1.2277    0.6664 C   0  0  0  0  0  0  0  0  0  0  0  0
    0.8795   -1.1452    0.1927 C   0  0  0  0  0  0  0  0  0  0  0  0
    0.8129   -0.3842   -1.0528 C   0  0  0  0  0  0  0  0  0  0  0  0
   -0.6257    0.0511   -1.2818 C   0  0  0  0  0  0  0  0  0  0  0  0
    1.1282    0.3000    0.2563 C   0  0  0  0  0  0  0  0  0  0  0  0
    2.4583    0.9292    0.3440 C   0  0  0  0  0  0  0  0  0  0  0  0
   -0.0236    0.9501    0.6813 O   0  0  0  0  0  0  0  0  0  0  0  0
   -2.9333    0.7128   -0.5171 H   0  0  0  0  0  0  0  0  0  0  0  0
   -2.5818    1.4114    1.0804 H   0  0  0  0  0  0  0  0  0  0  0  0
   -2.9531   -0.3443    0.9363 H   0  0  0  0  0  0  0  0  0  0  0  0
   -0.6629   -1.2706    1.7482 H   0  0  0  0  0  0  0  0  0  0  0  0
   -1.1130   -2.0483    0.1946 H   0  0  0  0  0  0  0  0  0  0  0  0
    1.5753   -1.9259    0.4360 H   0  0  0  0  0  0  0  0  0  0  0  0
    1.5230   -0.4161   -1.8642 H   0  0  0  0  0  0  0  0  0  0  0  0
   -0.6989    1.0716   -1.6715 H   0  0  0  0  0  0  0  0  0  0  0  0
   -1.2032   -0.7024   -1.8162 H   0  0  0  0  0  0  0  0  0  0  0  0
    2.4314    1.9295   -0.1804 H   0  0  0  0  0  0  0  0  0  0  0  0
    2.7968    1.1657    1.3772 H   0  0  0  0  0  0  0  0  0  0  0  0
    3.1948    0.2950   -0.1818 H   0  0  0  0  0  0  0  0  0  0  0  0
  1  2  1  0
  2  3  1  0
  3  4  1  0
  4  5  1  0
  5  6  1  0
  5  7  1  0
  7  8  1  0
  7  9  1  0
  6  2  1  0
  9  2  1  0
  7  4  1  0
  1 10  1  0
  1 11  1  0
  1 12  1  0
  3 13  1  0
  3 14  1  0
  4 15  1  0
  5 16  1  0
  6 17  1  0
  6 18  1  0
  8 19  1  0
  8 20  1  0
  8 21  1  0
M  END
