
     RDKit          3D

 19 22  0  0  0  0  0  0  0  0999 V2000
    2.1822    0.0137   -0.3125 C   0  0  0  0  0  0  0  0  0  0  0  0
    0.7860   -0.3688   -0.1068 C   0  0  0  0  0  0  0  0  0  0  0  0
    0.4124   -1.6814   -0.4880 O   0  0  0  0  0  0  0  0  0  0  0  0
   -0.8974   -1.1458   -0.5317 C   0  0  0  0  0  0  0  0  0  0  0  0
   -1.2628   -0.6964    0.8623 C   0  0  0  0  0  0  0  0  0  0  0  0
   -1.0577    0.7313    0.9953 C   0  0  0  0  0  0  0  0  0  0  0  0
   -0.9669    1.2232   -0.4491 C   0  0  0  0  0  0  0  0  0  0  0  0
   -0.2500    0.0951   -1.0919 C   0  0  0  0  0  0  0  0  0  0  0  0
    0.1319   -0.0590    1.2145 C   0  0  0  0  0  0  0  0  0  0  0  0
    2.4405    0.8470    0.3808 H   0  0  0  0  0  0  0  0  0  0  0  0
    2.3829    0.3623   -1.3589 H   0  0  0  0  0  0  0  0  0  0  0  0
    2.8744   -0.8203   -0.0327 H   0  0  0  0  0  0  0  0  0  0  0  0
   -1.6197   -1.6671   -1.1180 H   0  0  0  0  0  0  0  0  0  0  0  0
   -1.6755   -1.3742    1.5921 H   0  0  0  0  0  0  0  0  0  0  0  0
   -1.5499    1.3295    1.7398 H   0  0  0  0  0  0  0  0  0  0  0  0
   -0.4479    2.1905   -0.5090 H   0  0  0  0  0  0  0  0  0  0  0  0
   -2.0208    1.2935   -0.8060 H   0  0  0  0  0  0  0  0  0  0  0  0
   -0.0037    0.1221   -2.1321 H   0  0  0  0  0  0  0  0  0  0  0  0
    0.5420   -0.3951    2.1519 H   0  0  0  0  0  0  0  0  0  0  0  0
  1  2  1  0
  2  3  1  0
  3  4  1  0
  4  5  1  0
  5  6  1  0
  6  7  1  0
  7  8  1  0
  6  9  1  0
  8  2  1  0
  9  2  1  0
  8  4  1  0
  9  5  1  0
  1 10  1  0
  1 11  1  0
  1 12  1  0
  4 13  1  0
  5 14  1  0
  6 15  1  0
  7 16  1  0
  7 17  1  0
  8 18  1  0
  9 19  1  0
M  END
