
     RDKit          3D

 19 20  0  0  0  0  0  0  0  0999 V2000
    0.0608   -2.0391   -0.0624 C   0  0  0  0  0  0  0  0  0  0  0  0
   -0.0344   -0.5264   -0.1316 C   0  0  0  0  0  0  0  0  0  0  0  0
   -1.3460    0.0986    0.2056 C   0  0  0  0  0  0  0  0  0  0  0  0
   -2.0451    0.5335   -0.9235 O   0  0  0  0  0  0  0  0  0  0  0  0
   -1.0231    1.2586    1.0800 C   0  0  0  0  0  0  0  0  0  0  0  0
    0.2868    1.2920    1.2809 C   0  0  0  0  0  0  0  0  0  0  0  0
    0.9975    0.2125    0.6037 C   0  0  0  0  0  0  0  0  0  0  0  0
    0.9878    0.1494   -0.9307 C   0  0  0  0  0  0  0  0  0  0  0  0
    0.8468    1.4115   -1.4782 O   0  0  0  0  0  0  0  0  0  0  0  0
    0.9453   -2.3584    0.5587 H   0  0  0  0  0  0  0  0  0  0  0  0
   -0.8570   -2.4712    0.3988 H   0  0  0  0  0  0  0  0  0  0  0  0
    0.1811   -2.3955   -1.1057 H   0  0  0  0  0  0  0  0  0  0  0  0
   -1.9712   -0.6572    0.7304 H   0  0  0  0  0  0  0  0  0  0  0  0
   -1.5052    0.4476   -1.7302 H   0  0  0  0  0  0  0  0  0  0  0  0
   -1.7548    1.9549    1.4799 H   0  0  0  0  0  0  0  0  0  0  0  0
    0.7917    2.0576    1.8974 H   0  0  0  0  0  0  0  0  0  0  0  0
    1.8575   -0.2714    1.0993 H   0  0  0  0  0  0  0  0  0  0  0  0
    1.7912   -0.4523   -1.3796 H   0  0  0  0  0  0  0  0  0  0  0  0
    1.7904    1.7552   -1.5929 H   0  0  0  0  0  0  0  0  0  0  0  0
  1  2  1  0
  2  3  1  0
  3  4  1  0
  3  5  1  0
  5  6  2  0
  6  7  1  0
  7  8  1  0
  8  9  1  0
  7  2  1  0
  8  2  1  0
  1 10  1  0
  1 11  1  0
  1 12  1  0
  3 13  1  0
  4 14  1  0
  5 15  1  0
  6 16  1  0
  7 17  1  0
  8 18  1  0
  9 19  1  0
M  END
