
     RDKit          3D

 21 22  0  0  0  0  0  0  0  0999 V2000
   -1.6939   -1.2412   -0.1587 C   0  0  0  0  0  0  0  0  0  0  0  0
   -0.7517   -0.2347   -0.7103 C   0  0  0  0  0  0  0  0  0  0  0  0
   -1.0574    0.5223   -1.8242 O   0  0  0  0  0  0  0  0  0  0  0  0
   -1.2557    1.1821   -0.6532 C   0  0  0  0  0  0  0  0  0  0  0  0
   -0.2289    1.9706    0.0564 C   0  0  0  0  0  0  0  0  0  0  0  0
    0.9451    1.0801    0.3537 C   0  0  0  0  0  0  0  0  0  0  0  0
    0.6949   -0.2241   -0.3249 C   0  0  0  0  0  0  0  0  0  0  0  0
    1.0923   -1.3771    0.5527 C   0  0  0  0  0  0  0  0  0  0  0  0
    2.4695   -1.2192    0.8209 O   0  0  0  0  0  0  0  0  0  0  0  0
   -1.2638   -2.2376    0.0274 H   0  0  0  0  0  0  0  0  0  0  0  0
   -2.6173   -1.2559   -0.7689 H   0  0  0  0  0  0  0  0  0  0  0  0
   -2.0234   -0.8680    0.8563 H   0  0  0  0  0  0  0  0  0  0  0  0
   -2.3167    1.3879   -0.4014 H   0  0  0  0  0  0  0  0  0  0  0  0
    0.0410    2.8834   -0.5116 H   0  0  0  0  0  0  0  0  0  0  0  0
   -0.6627    2.2657    1.0573 H   0  0  0  0  0  0  0  0  0  0  0  0
    1.0751    0.8837    1.4482 H   0  0  0  0  0  0  0  0  0  0  0  0
    1.8530    1.5996   -0.0153 H   0  0  0  0  0  0  0  0  0  0  0  0
    1.3220   -0.2525   -1.2558 H   0  0  0  0  0  0  0  0  0  0  0  0
    0.9552   -2.3452    0.0415 H   0  0  0  0  0  0  0  0  0  0  0  0
    0.5125   -1.3404    1.4947 H   0  0  0  0  0  0  0  0  0  0  0  0
    2.9106   -1.1796   -0.0847 H   0  0  0  0  0  0  0  0  0  0  0  0
  1  2  1  0
  2  3  1  0
  3  4  1  0
  4  5  1  0
  5  6  1  0
  6  7  1  0
  7  8  1  0
  8  9  1  0
  4  2  1  0
  7  2  1  0
  1 10  1  0
  1 11  1  0
  1 12  1  0
  4 13  1  0
  5 14  1  0
  5 15  1  0
  6 16  1  0
  6 17  1  0
  7 18  1  0
  8 19  1  0
  8 20  1  0
  9 21  1  0
M  END
