
     RDKit          3D

 16 17  0  0  0  0  0  0  0  0999 V2000
    1.9012    0.4331   -0.1859 C   0  0  0  0  0  0  0  0  0  0  0  0
    0.6403   -0.4462   -0.3091 C   0  0  0  0  0  0  0  0  0  0  0  0
    0.1778   -0.9446    0.9442 C   0  0  0  0  0  0  0  0  0  0  0  0
   -0.6384    0.1402    0.4227 C   0  0  0  0  0  0  0  0  0  0  0  0
   -1.9809   -0.4004   -0.1250 C   0  0  0  0  0  0  0  0  0  0  0  0
   -0.1902    1.1780   -0.5396 C   0  0  0  0  0  0  0  0  0  0  0  0
   -0.0035    2.3939   -0.4806 O   0  0  0  0  0  0  0  0  0  0  0  0
   -0.1300    0.0839   -1.3931 O   0  0  0  0  0  0  0  0  0  0  0  0
    1.7026    1.1963    0.5710 H   0  0  0  0  0  0  0  0  0  0  0  0
    2.6865   -0.2977    0.1736 H   0  0  0  0  0  0  0  0  0  0  0  0
    2.2556    0.8090   -1.1368 H   0  0  0  0  0  0  0  0  0  0  0  0
    0.7044   -0.7024    1.9143 H   0  0  0  0  0  0  0  0  0  0  0  0
   -0.1651   -2.0169    0.9808 H   0  0  0  0  0  0  0  0  0  0  0  0
   -1.8330   -0.8125   -1.1425 H   0  0  0  0  0  0  0  0  0  0  0  0
   -2.6753    0.4741   -0.2622 H   0  0  0  0  0  0  0  0  0  0  0  0
   -2.4520   -1.0878    0.5679 H   0  0  0  0  0  0  0  0  0  0  0  0
  1  2  1  0
  2  3  1  0
  3  4  1  0
  4  5  1  0
  4  6  1  0
  6  7  2  0
  6  8  1  0
  4  2  1  0
  8  2  1  0
  1  9  1  0
  1 10  1  0
  1 11  1  0
  3 12  1  0
  3 13  1  0
  5 14  1  0
  5 15  1  0
  5 16  1  0
M  END
