
     RDKit          3D

 19 21  0  0  0  0  0  0  0  0999 V2000
    2.0252   -0.7310    0.0816 C   0  0  0  0  0  0  0  0  0  0  0  0
    0.7473   -0.0298   -0.1942 C   0  0  0  0  0  0  0  0  0  0  0  0
    0.4591    1.2135    0.6097 C   0  0  0  0  0  0  0  0  0  0  0  0
   -0.9830    1.5099    0.2577 C   0  0  0  0  0  0  0  0  0  0  0  0
   -1.5846    0.1682   -0.1858 C   0  0  0  0  0  0  0  0  0  0  0  0
   -0.8400   -0.3985   -1.3704 C   0  0  0  0  0  0  0  0  0  0  0  0
    0.4553    0.0614   -1.5460 O   0  0  0  0  0  0  0  0  0  0  0  0
   -0.5238   -0.8009   -0.0095 C   0  0  0  0  0  0  0  0  0  0  0  0
   -0.5921   -2.0305    0.5171 O   0  0  0  0  0  0  0  0  0  0  0  0
    2.8108   -0.3183   -0.6162 H   0  0  0  0  0  0  0  0  0  0  0  0
    2.3437   -0.6974    1.1218 H   0  0  0  0  0  0  0  0  0  0  0  0
    1.9045   -1.7993   -0.2625 H   0  0  0  0  0  0  0  0  0  0  0  0
    0.4643    0.9209    1.6866 H   0  0  0  0  0  0  0  0  0  0  0  0
    1.1355    2.0436    0.4130 H   0  0  0  0  0  0  0  0  0  0  0  0
   -1.5490    1.9644    1.0733 H   0  0  0  0  0  0  0  0  0  0  0  0
   -0.9761    2.1934   -0.6406 H   0  0  0  0  0  0  0  0  0  0  0  0
   -2.6480   -0.0100   -0.0477 H   0  0  0  0  0  0  0  0  0  0  0  0
   -1.2972   -1.1156   -2.0425 H   0  0  0  0  0  0  0  0  0  0  0  0
   -1.3520   -2.1438    1.1543 H   0  0  0  0  0  0  0  0  0  0  0  0
  1  2  1  0
  2  3  1  0
  3  4  1  0
  4  5  1  0
  5  6  1  0
  6  7  1  0
  6  8  1  0
  8  9  1  0
  7  2  1  0
  8  2  1  0
  8  5  1  0
  1 10  1  0
  1 11  1  0
  1 12  1  0
  3 13  1  0
  3 14  1  0
  4 15  1  0
  4 16  1  0
  5 17  1  0
  6 18  1  0
  9 19  1  0
M  END
