
     RDKit          3D

 19 21  0  0  0  0  0  0  0  0999 V2000
    1.7395   -0.8497   -0.0228 C   0  0  0  0  0  0  0  0  0  0  0  0
    0.6555   -0.0316   -0.1692 C   0  0  0  0  0  0  0  0  0  0  0  0
    0.6148    1.4733   -0.0672 C   0  0  0  0  0  0  0  0  0  0  0  0
   -0.8076    1.1008   -0.3258 C   0  0  0  0  0  0  0  0  0  0  0  0
   -0.2790    0.1012   -1.3242 C   0  0  0  0  0  0  0  0  0  0  0  0
   -1.0903   -1.0094   -1.2867 O   0  0  0  0  0  0  0  0  0  0  0  0
   -1.3970   -1.1264    0.0920 C   0  0  0  0  0  0  0  0  0  0  0  0
   -0.6036   -0.0097    0.6550 C   0  0  0  0  0  0  0  0  0  0  0  0
   -0.5458    0.2328    1.9597 O   0  0  0  0  0  0  0  0  0  0  0  0
    1.5496   -1.7526    0.6292 H   0  0  0  0  0  0  0  0  0  0  0  0
    2.1468   -1.2813   -0.9707 H   0  0  0  0  0  0  0  0  0  0  0  0
    2.6253   -0.3538    0.4697 H   0  0  0  0  0  0  0  0  0  0  0  0
    1.1474    2.0132   -0.8651 H   0  0  0  0  0  0  0  0  0  0  0  0
    0.7996    1.7825    0.9619 H   0  0  0  0  0  0  0  0  0  0  0  0
   -1.6037    1.6956   -0.4343 H   0  0  0  0  0  0  0  0  0  0  0  0
    0.0851    0.4637   -2.2657 H   0  0  0  0  0  0  0  0  0  0  0  0
   -1.1578   -2.1119    0.4886 H   0  0  0  0  0  0  0  0  0  0  0  0
   -2.4793   -0.8706    0.1606 H   0  0  0  0  0  0  0  0  0  0  0  0
   -1.3994    0.5340    2.3150 H   0  0  0  0  0  0  0  0  0  0  0  0
  1  2  1  0
  2  3  1  0
  3  4  1  0
  4  5  1  0
  5  6  1  0
  6  7  1  0
  7  8  1  0
  8  9  1  0
  5  2  1  0
  8  2  1  0
  8  4  1  0
  1 10  1  0
  1 11  1  0
  1 12  1  0
  3 13  1  0
  3 14  1  0
  4 15  1  0
  5 16  1  0
  7 17  1  0
  7 18  1  0
  9 19  1  0
M  END
