
     RDKit          3D

 23 25  0  0  0  0  0  0  0  0999 V2000
    2.3300   -0.5514   -0.3328 C   0  0  0  0  0  0  0  0  0  0  0  0
    0.9975    0.0386    0.0969 C   0  0  0  0  0  0  0  0  0  0  0  0
    0.2261   -0.7310    1.0978 C   0  0  0  0  0  0  0  0  0  0  0  0
   -1.2571   -0.7400    0.8193 C   0  0  0  0  0  0  0  0  0  0  0  0
   -1.4182   -0.9844   -0.6781 C   0  0  0  0  0  0  0  0  0  0  0  0
   -1.2323    0.5325   -0.8273 C   0  0  0  0  0  0  0  0  0  0  0  0
   -1.7947    0.6591    0.5552 C   0  0  0  0  0  0  0  0  0  0  0  0
    0.2428    0.8071   -0.8896 C   0  0  0  0  0  0  0  0  0  0  0  0
    0.9729    1.5544    0.1219 C   0  0  0  0  0  0  0  0  0  0  0  0
    2.2059   -0.9357   -1.3761 H   0  0  0  0  0  0  0  0  0  0  0  0
    3.1317    0.2071   -0.3875 H   0  0  0  0  0  0  0  0  0  0  0  0
    2.6826   -1.3462    0.3440 H   0  0  0  0  0  0  0  0  0  0  0  0
    0.3973   -0.4283    2.1496 H   0  0  0  0  0  0  0  0  0  0  0  0
    0.5576   -1.8030    1.0389 H   0  0  0  0  0  0  0  0  0  0  0  0
   -1.8475   -1.3672    1.4732 H   0  0  0  0  0  0  0  0  0  0  0  0
   -0.6337   -1.5729   -1.1484 H   0  0  0  0  0  0  0  0  0  0  0  0
   -2.4677   -1.2571   -0.9717 H   0  0  0  0  0  0  0  0  0  0  0  0
   -1.8422    0.9003   -1.6525 H   0  0  0  0  0  0  0  0  0  0  0  0
   -2.9026    0.6082    0.5314 H   0  0  0  0  0  0  0  0  0  0  0  0
   -1.4141    1.4495    1.1942 H   0  0  0  0  0  0  0  0  0  0  0  0
    0.6338    0.8282   -1.9424 H   0  0  0  0  0  0  0  0  0  0  0  0
    0.5313    2.0323    1.0061 H   0  0  0  0  0  0  0  0  0  0  0  0
    1.9005    2.1003   -0.2221 H   0  0  0  0  0  0  0  0  0  0  0  0
  1  2  1  0
  2  3  1  0
  3  4  1  0
  4  5  1  0
  5  6  1  0
  6  7  1  0
  6  8  1  0
  8  9  1  0
  8  2  1  0
  9  2  1  0
  7  4  1  0
  1 10  1  0
  1 11  1  0
  1 12  1  0
  3 13  1  0
  3 14  1  0
  4 15  1  0
  5 16  1  0
  5 17  1  0
  6 18  1  0
  7 19  1  0
  7 20  1  0
  8 21  1  0
  9 22  1  0
  9 23  1  0
M  END
