
     RDKit          3D

 19 20  0  0  0  0  0  0  0  0999 V2000
   -1.6336   -1.0555   -0.0141 C   0  0  0  0  0  0  0  0  0  0  0  0
   -0.4749   -0.1364   -0.1654 C   0  0  0  0  0  0  0  0  0  0  0  0
    0.7249   -0.6452   -0.8937 C   0  0  0  0  0  0  0  0  0  0  0  0
    1.7603   -0.7637    0.1684 C   0  0  0  0  0  0  0  0  0  0  0  0
    1.3280   -0.1504    1.3055 O   0  0  0  0  0  0  0  0  0  0  0  0
    0.1128    0.4322    1.0975 C   0  0  0  0  0  0  0  0  0  0  0  0
    0.1764    1.7560    0.3477 C   0  0  0  0  0  0  0  0  0  0  0  0
   -0.9268    1.2345   -0.5211 C   0  0  0  0  0  0  0  0  0  0  0  0
   -1.8094    1.6980   -1.2162 O   0  0  0  0  0  0  0  0  0  0  0  0
   -2.2815   -0.6430    0.8106 H   0  0  0  0  0  0  0  0  0  0  0  0
   -2.2699   -0.9675   -0.9319 H   0  0  0  0  0  0  0  0  0  0  0  0
   -1.3894   -2.0957    0.2123 H   0  0  0  0  0  0  0  0  0  0  0  0
    1.0701    0.1519   -1.6094 H   0  0  0  0  0  0  0  0  0  0  0  0
    0.5765   -1.5988   -1.4201 H   0  0  0  0  0  0  0  0  0  0  0  0
    2.7496   -0.3233   -0.1210 H   0  0  0  0  0  0  0  0  0  0  0  0
    1.9657   -1.8450    0.3681 H   0  0  0  0  0  0  0  0  0  0  0  0
   -0.5912    0.4468    1.9431 H   0  0  0  0  0  0  0  0  0  0  0  0
    1.0836    1.8736   -0.2684 H   0  0  0  0  0  0  0  0  0  0  0  0
   -0.1710    2.6315    0.9078 H   0  0  0  0  0  0  0  0  0  0  0  0
  1  2  1  0
  2  3  1  0
  3  4  1  0
  4  5  1  0
  5  6  1  0
  6  7  1  0
  7  8  1  0
  8  9  2  0
  6  2  1  0
  8  2  1  0
  1 10  1  0
  1 11  1  0
  1 12  1  0
  3 13  1  0
  3 14  1  0
  4 15  1  0
  4 16  1  0
  6 17  1  0
  7 18  1  0
  7 19  1  0
M  END
