
     RDKit          3D

 21 23  0  0  0  0  0  0  0  0999 V2000
    1.4712    1.3182    0.3090 C   0  0  0  0  0  0  0  0  0  0  0  0
    0.7574    0.1825    0.0586 C   0  0  0  0  0  0  0  0  0  0  0  0
    1.2766   -1.1628   -0.3753 C   0  0  0  0  0  0  0  0  0  0  0  0
   -0.2002   -1.3817   -0.2170 C   0  0  0  0  0  0  0  0  0  0  0  0
   -0.0979   -0.5909    1.0457 C   0  0  0  0  0  0  0  0  0  0  0  0
   -1.3847    0.1716    1.1972 C   0  0  0  0  0  0  0  0  0  0  0  0
   -1.5768    0.6179   -0.2642 C   0  0  0  0  0  0  0  0  0  0  0  0
   -0.3752   -0.0381   -0.8831 C   0  0  0  0  0  0  0  0  0  0  0  0
   -0.1809    0.0564   -2.2083 O   0  0  0  0  0  0  0  0  0  0  0  0
    2.5676    1.1385    0.5178 H   0  0  0  0  0  0  0  0  0  0  0  0
    1.1307    1.9017    1.2156 H   0  0  0  0  0  0  0  0  0  0  0  0
    1.4654    2.0791   -0.5138 H   0  0  0  0  0  0  0  0  0  0  0  0
    1.9265   -1.5894    0.3933 H   0  0  0  0  0  0  0  0  0  0  0  0
    1.5762   -1.2519   -1.4207 H   0  0  0  0  0  0  0  0  0  0  0  0
   -0.7227   -2.2137   -0.3957 H   0  0  0  0  0  0  0  0  0  0  0  0
    0.3756   -1.0081    1.9077 H   0  0  0  0  0  0  0  0  0  0  0  0
   -2.1859   -0.5324    1.4403 H   0  0  0  0  0  0  0  0  0  0  0  0
   -1.2753    1.0209    1.8696 H   0  0  0  0  0  0  0  0  0  0  0  0
   -1.4268    1.6972   -0.2795 H   0  0  0  0  0  0  0  0  0  0  0  0
   -2.5285    0.2679   -0.6708 H   0  0  0  0  0  0  0  0  0  0  0  0
   -0.5920   -0.6829   -2.7264 H   0  0  0  0  0  0  0  0  0  0  0  0
  1  2  1  0
  2  3  1  0
  3  4  1  0
  4  5  1  0
  5  6  1  0
  6  7  1  0
  7  8  1  0
  8  9  1  0
  5  2  1  0
  8  2  1  0
  8  4  1  0
  1 10  1  0
  1 11  1  0
  1 12  1  0
  3 13  1  0
  3 14  1  0
  4 15  1  0
  5 16  1  0
  6 17  1  0
  6 18  1  0
  7 19  1  0
  7 20  1  0
  9 21  1  0
M  END
