
     RDKit          3D

 17 18  0  0  0  0  0  0  0  0999 V2000
   -0.4487    0.9870    1.1780 C   0  0  0  0  0  0  0  0  0  0  0  0
   -0.3337    0.3385   -0.2493 C   0  0  0  0  0  0  0  0  0  0  0  0
    0.9364    0.7795   -0.7359 C   0  0  0  0  0  0  0  0  0  0  0  0
    1.8847    0.0292   -0.2026 C   0  0  0  0  0  0  0  0  0  0  0  0
    1.1363   -0.9347    0.6471 C   0  0  0  0  0  0  0  0  0  0  0  0
    1.4129   -1.3877    1.7539 O   0  0  0  0  0  0  0  0  0  0  0  0
   -0.0168   -1.1864   -0.2127 C   0  0  0  0  0  0  0  0  0  0  0  0
   -1.2912   -0.6462   -0.4407 C   0  0  0  0  0  0  0  0  0  0  0  0
   -1.8956   -0.7476   -1.7172 O   0  0  0  0  0  0  0  0  0  0  0  0
   -1.3894    0.7332    1.6557 H   0  0  0  0  0  0  0  0  0  0  0  0
   -0.4240    2.0843    0.9552 H   0  0  0  0  0  0  0  0  0  0  0  0
    0.4590    0.7672    1.7637 H   0  0  0  0  0  0  0  0  0  0  0  0
    1.1482    1.5847   -1.4258 H   0  0  0  0  0  0  0  0  0  0  0  0
    2.9869    0.0914   -0.3149 H   0  0  0  0  0  0  0  0  0  0  0  0
    0.3853   -1.6811   -1.1548 H   0  0  0  0  0  0  0  0  0  0  0  0
   -2.0842   -0.8619    0.3216 H   0  0  0  0  0  0  0  0  0  0  0  0
   -2.4659    0.0505   -1.8211 H   0  0  0  0  0  0  0  0  0  0  0  0
  1  2  1  0
  2  3  1  0
  3  4  2  0
  4  5  1  0
  5  6  2  0
  5  7  1  0
  7  8  1  0
  8  9  1  0
  7  2  1  0
  8  2  1  0
  1 10  1  0
  1 11  1  0
  1 12  1  0
  3 13  1  0
  4 14  1  0
  7 15  1  0
  8 16  1  0
  9 17  1  0
M  END
