
     RDKit          3D

 17 18  0  0  0  0  0  0  0  0999 V2000
    2.0128    0.0275   -0.0283 C   0  0  0  0  0  0  0  0  0  0  0  0
    0.5521   -0.0217    0.2796 C   0  0  0  0  0  0  0  0  0  0  0  0
    0.2227   -0.5120    1.5243 O   0  0  0  0  0  0  0  0  0  0  0  0
   -0.1951   -1.2712    0.4625 C   0  0  0  0  0  0  0  0  0  0  0  0
   -1.6345   -1.0497    0.0566 C   0  0  0  0  0  0  0  0  0  0  0  0
   -1.7144    0.4365    0.0271 C   0  0  0  0  0  0  0  0  0  0  0  0
   -2.6169    1.1863    0.3164 O   0  0  0  0  0  0  0  0  0  0  0  0
   -0.3849    0.8955   -0.4595 C   0  0  0  0  0  0  0  0  0  0  0  0
   -0.1200    2.2123   -0.1744 O   0  0  0  0  0  0  0  0  0  0  0  0
    2.5520    0.5691    0.7748 H   0  0  0  0  0  0  0  0  0  0  0  0
    2.4606   -0.9599   -0.2506 H   0  0  0  0  0  0  0  0  0  0  0  0
    2.1418    0.6378   -0.9503 H   0  0  0  0  0  0  0  0  0  0  0  0
    0.3214   -2.2018    0.1694 H   0  0  0  0  0  0  0  0  0  0  0  0
   -1.8577   -1.4795   -0.9394 H   0  0  0  0  0  0  0  0  0  0  0  0
   -2.2978   -1.4981    0.8032 H   0  0  0  0  0  0  0  0  0  0  0  0
   -0.3205    0.7485   -1.5716 H   0  0  0  0  0  0  0  0  0  0  0  0
    0.8784    2.2804   -0.0399 H   0  0  0  0  0  0  0  0  0  0  0  0
  1  2  1  0
  2  3  1  0
  3  4  1  0
  4  5  1  0
  5  6  1  0
  6  7  2  0
  6  8  1  0
  8  9  1  0
  4  2  1  0
  8  2  1  0
  1 10  1  0
  1 11  1  0
  1 12  1  0
  4 13  1  0
  5 14  1  0
  5 15  1  0
  8 16  1  0
  9 17  1  0
M  END
