
     RDKit          3D

 17 18  0  0  0  0  0  0  0  0999 V2000
    0.2743    1.5847    0.1169 C   0  0  0  0  0  0  0  0  0  0  0  0
    0.4206    0.2272   -0.5234 C   0  0  0  0  0  0  0  0  0  0  0  0
    1.6858   -0.1439   -0.8913 O   0  0  0  0  0  0  0  0  0  0  0  0
    1.8807   -0.5537    0.4596 C   0  0  0  0  0  0  0  0  0  0  0  0
    0.4108   -0.8802    0.5345 C   0  0  0  0  0  0  0  0  0  0  0  0
   -0.8408   -1.2706    0.7029 C   0  0  0  0  0  0  0  0  0  0  0  0
   -1.7651   -0.4823   -0.2124 C   0  0  0  0  0  0  0  0  0  0  0  0
   -0.7514   -0.1272   -1.2913 C   0  0  0  0  0  0  0  0  0  0  0  0
   -0.9675   -0.1636   -2.4645 O   0  0  0  0  0  0  0  0  0  0  0  0
   -0.7520    1.9343    0.0150 H   0  0  0  0  0  0  0  0  0  0  0  0
    0.5341    1.5267    1.1774 H   0  0  0  0  0  0  0  0  0  0  0  0
    0.9279    2.3054   -0.4426 H   0  0  0  0  0  0  0  0  0  0  0  0
    2.5338   -1.4280    0.4695 H   0  0  0  0  0  0  0  0  0  0  0  0
    2.1232    0.2512    1.1612 H   0  0  0  0  0  0  0  0  0  0  0  0
   -1.1113   -2.0478    1.4084 H   0  0  0  0  0  0  0  0  0  0  0  0
   -2.5484   -1.1358   -0.5742 H   0  0  0  0  0  0  0  0  0  0  0  0
   -2.0545    0.4036    0.3541 H   0  0  0  0  0  0  0  0  0  0  0  0
  1  2  1  0
  2  3  1  0
  3  4  1  0
  4  5  1  0
  5  6  2  0
  6  7  1  0
  7  8  1  0
  8  9  2  0
  5  2  1  0
  8  2  1  0
  1 10  1  0
  1 11  1  0
  1 12  1  0
  4 13  1  0
  4 14  1  0
  6 15  1  0
  7 16  1  0
  7 17  1  0
M  END
