
     RDKit          3D

 23 24  0  0  0  0  0  0  0  0999 V2000
    2.5110    0.3935    0.0331 C   0  0  0  0  0  0  0  0  0  0  0  0
    1.0264    0.2050   -0.1363 C   0  0  0  0  0  0  0  0  0  0  0  0
    0.6966   -1.0815   -0.9113 C   0  0  0  0  0  0  0  0  0  0  0  0
   -0.3584   -1.3048    0.1453 C   0  0  0  0  0  0  0  0  0  0  0  0
   -1.6813   -0.7683   -0.2068 C   0  0  0  0  0  0  0  0  0  0  0  0
   -1.9257    0.6738    0.0127 C   0  0  0  0  0  0  0  0  0  0  0  0
   -0.8173    1.6180   -0.1189 C   0  0  0  0  0  0  0  0  0  0  0  0
    0.3261    1.1948   -0.7350 O   0  0  0  0  0  0  0  0  0  0  0  0
    0.4014   -0.3952    1.0821 C   0  0  0  0  0  0  0  0  0  0  0  0
    3.0352   -0.1451   -0.7912 H   0  0  0  0  0  0  0  0  0  0  0  0
    2.7683    1.4732   -0.0043 H   0  0  0  0  0  0  0  0  0  0  0  0
    2.8653    0.0041    1.0297 H   0  0  0  0  0  0  0  0  0  0  0  0
    0.2830   -0.9107   -1.9141 H   0  0  0  0  0  0  0  0  0  0  0  0
    1.5139   -1.8034   -0.9517 H   0  0  0  0  0  0  0  0  0  0  0  0
   -0.3875   -2.3750    0.4414 H   0  0  0  0  0  0  0  0  0  0  0  0
   -2.4520   -1.3528    0.3640 H   0  0  0  0  0  0  0  0  0  0  0  0
   -1.8869   -1.0368   -1.2846 H   0  0  0  0  0  0  0  0  0  0  0  0
   -2.3608    0.8093    1.0507 H   0  0  0  0  0  0  0  0  0  0  0  0
   -2.7843    0.9624   -0.6519 H   0  0  0  0  0  0  0  0  0  0  0  0
   -1.1559    2.5165   -0.7004 H   0  0  0  0  0  0  0  0  0  0  0  0
   -0.5063    2.0772    0.8677 H   0  0  0  0  0  0  0  0  0  0  0  0
    1.1175   -0.9919    1.6762 H   0  0  0  0  0  0  0  0  0  0  0  0
   -0.2284    0.2377    1.7037 H   0  0  0  0  0  0  0  0  0  0  0  0
  1  2  1  0
  2  3  1  0
  3  4  1  0
  4  5  1  0
  5  6  1  0
  6  7  1  0
  7  8  1  0
  4  9  1  0
  8  2  1  0
  9  2  1  0
  1 10  1  0
  1 11  1  0
  1 12  1  0
  3 13  1  0
  3 14  1  0
  4 15  1  0
  5 16  1  0
  5 17  1  0
  6 18  1  0
  6 19  1  0
  7 20  1  0
  7 21  1  0
  9 22  1  0
  9 23  1  0
M  END
