
     RDKit          3D

 21 22  0  0  0  0  0  0  0  0999 V2000
    0.1516    1.8281    0.2715 C   0  0  0  0  0  0  0  0  0  0  0  0
   -0.0502    0.4206   -0.1758 C   0  0  0  0  0  0  0  0  0  0  0  0
    1.0393   -0.1032   -1.0737 C   0  0  0  0  0  0  0  0  0  0  0  0
    2.0911   -0.5701   -0.1497 C   0  0  0  0  0  0  0  0  0  0  0  0
    1.5223   -0.8419    1.0083 C   0  0  0  0  0  0  0  0  0  0  0  0
    0.0539   -0.5851    0.9738 C   0  0  0  0  0  0  0  0  0  0  0  0
   -0.6828   -1.6798    0.5399 O   0  0  0  0  0  0  0  0  0  0  0  0
   -1.8495   -1.0677    0.0902 C   0  0  0  0  0  0  0  0  0  0  0  0
   -1.4259    0.1381   -0.7198 C   0  0  0  0  0  0  0  0  0  0  0  0
   -0.3995    1.9865    1.2259 H   0  0  0  0  0  0  0  0  0  0  0  0
    1.2223    2.0031    0.4141 H   0  0  0  0  0  0  0  0  0  0  0  0
   -0.3074    2.5049   -0.4872 H   0  0  0  0  0  0  0  0  0  0  0  0
    0.6336   -0.9801   -1.6189 H   0  0  0  0  0  0  0  0  0  0  0  0
    1.4288    0.6746   -1.7578 H   0  0  0  0  0  0  0  0  0  0  0  0
    3.1733   -0.6720   -0.3961 H   0  0  0  0  0  0  0  0  0  0  0  0
    2.0857   -1.2114    1.8772 H   0  0  0  0  0  0  0  0  0  0  0  0
   -0.2623   -0.1690    1.9278 H   0  0  0  0  0  0  0  0  0  0  0  0
   -2.4868   -0.7636    0.9609 H   0  0  0  0  0  0  0  0  0  0  0  0
   -2.4302   -1.8002   -0.5416 H   0  0  0  0  0  0  0  0  0  0  0  0
   -1.3944   -0.1202   -1.7969 H   0  0  0  0  0  0  0  0  0  0  0  0
   -2.1130    1.0082   -0.5722 H   0  0  0  0  0  0  0  0  0  0  0  0
  1  2  1  0
  2  3  1  0
  3  4  1  0
  4  5  2  0
  5  6  1  0
  6  7  1  0
  7  8  1  0
  8  9  1  0
  6  2  1  0
  9  2  1  0
  1 10  1  0
  1 11  1  0
  1 12  1  0
  3 13  1  0
  3 14  1  0
  4 15  1  0
  5 16  1  0
  6 17  1  0
  8 18  1  0
  8 19  1  0
  9 20  1  0
  9 21  1  0
M  END
