
     RDKit          3D

 15 17  0  0  0  0  0  0  0  0999 V2000
    2.0751    0.1363   -0.2582 C   0  0  0  0  0  0  0  0  0  0  0  0
    0.6291    0.1050   -0.2025 C   0  0  0  0  0  0  0  0  0  0  0  0
   -0.0346   -0.6516   -1.1533 O   0  0  0  0  0  0  0  0  0  0  0  0
   -1.3780   -0.4478   -0.7560 C   0  0  0  0  0  0  0  0  0  0  0  0
   -1.3923    0.8728   -0.1461 C   0  0  0  0  0  0  0  0  0  0  0  0
   -0.0482    1.3051   -0.2546 O   0  0  0  0  0  0  0  0  0  0  0  0
   -1.4090   -0.3256    0.7128 C   0  0  0  0  0  0  0  0  0  0  0  0
    0.0462   -0.4849    1.0625 C   0  0  0  0  0  0  0  0  0  0  0  0
    0.5905   -0.9319    2.0258 O   0  0  0  0  0  0  0  0  0  0  0  0
    2.5111    1.1554   -0.1144 H   0  0  0  0  0  0  0  0  0  0  0  0
    2.5355   -0.5481    0.4936 H   0  0  0  0  0  0  0  0  0  0  0  0
    2.4364   -0.2320   -1.2621 H   0  0  0  0  0  0  0  0  0  0  0  0
   -2.1768   -0.9151   -1.3142 H   0  0  0  0  0  0  0  0  0  0  0  0
   -2.1956    1.6002   -0.1999 H   0  0  0  0  0  0  0  0  0  0  0  0
   -2.1894   -0.6377    1.3665 H   0  0  0  0  0  0  0  0  0  0  0  0
  1  2  1  0
  2  3  1  0
  3  4  1  0
  4  5  1  0
  5  6  1  0
  5  7  1  0
  7  8  1  0
  8  9  2  0
  6  2  1  0
  8  2  1  0
  7  4  1  0
  1 10  1  0
  1 11  1  0
  1 12  1  0
  4 13  1  0
  5 14  1  0
  7 15  1  0
M  END
