
     RDKit          3D

 20 22  0  0  0  0  0  0  0  0999 V2000
    2.0255    0.4081   -0.5857 C   0  0  0  0  0  0  0  0  0  0  0  0
    0.6512    0.2514   -0.1464 C   0  0  0  0  0  0  0  0  0  0  0  0
   -0.3734   -0.5969   -0.8212 C   0  0  0  0  0  0  0  0  0  0  0  0
   -1.6882    0.0851   -0.5518 C   0  0  0  0  0  0  0  0  0  0  0  0
   -1.4008    1.1949    0.4491 C   0  0  0  0  0  0  0  0  0  0  0  0
   -0.0138    0.8375    0.9970 C   0  0  0  0  0  0  0  0  0  0  0  0
    0.3635   -0.5779    1.1466 C   0  0  0  0  0  0  0  0  0  0  0  0
   -0.1142   -1.6512    0.2274 C   0  0  0  0  0  0  0  0  0  0  0  0
    2.2994   -0.4017   -1.3013 H   0  0  0  0  0  0  0  0  0  0  0  0
    2.1355    1.3668   -1.1658 H   0  0  0  0  0  0  0  0  0  0  0  0
    2.8010    0.4509    0.2204 H   0  0  0  0  0  0  0  0  0  0  0  0
   -0.1248   -0.8347   -1.8443 H   0  0  0  0  0  0  0  0  0  0  0  0
   -2.3718   -0.6652   -0.0617 H   0  0  0  0  0  0  0  0  0  0  0  0
   -2.1647    0.5095   -1.4418 H   0  0  0  0  0  0  0  0  0  0  0  0
   -1.2543    2.1328   -0.1283 H   0  0  0  0  0  0  0  0  0  0  0  0
   -2.1512    1.2789    1.2316 H   0  0  0  0  0  0  0  0  0  0  0  0
    0.4937    1.5705    1.6136 H   0  0  0  0  0  0  0  0  0  0  0  0
    1.2260   -0.7982    1.7890 H   0  0  0  0  0  0  0  0  0  0  0  0
    0.6727   -2.3555   -0.1252 H   0  0  0  0  0  0  0  0  0  0  0  0
   -1.0113   -2.2051    0.4989 H   0  0  0  0  0  0  0  0  0  0  0  0
  1  2  1  0
  2  3  1  0
  3  4  1  0
  4  5  1  0
  5  6  1  0
  6  7  1  0
  7  8  1  0
  6  2  1  0
  7  2  1  0
  8  3  1  0
  1  9  1  0
  1 10  1  0
  1 11  1  0
  3 12  1  0
  4 13  1  0
  4 14  1  0
  5 15  1  0
  5 16  1  0
  6 17  1  0
  7 18  1  0
  8 19  1  0
  8 20  1  0
M  END
