
     RDKit          3D

 17 18  0  0  0  0  0  0  0  0999 V2000
    1.9750    0.0790   -0.4337 C   0  0  0  0  0  0  0  0  0  0  0  0
    0.6195    0.0517    0.0902 C   0  0  0  0  0  0  0  0  0  0  0  0
   -0.2524    1.2834   -0.0615 C   0  0  0  0  0  0  0  0  0  0  0  0
   -1.4663    0.6975    0.6304 C   0  0  0  0  0  0  0  0  0  0  0  0
   -2.5423    1.2086    0.7743 O   0  0  0  0  0  0  0  0  0  0  0  0
   -0.9006   -0.6182    1.0318 C   0  0  0  0  0  0  0  0  0  0  0  0
    0.4053   -0.2814    1.4247 O   0  0  0  0  0  0  0  0  0  0  0  0
   -0.2760   -1.1202   -0.2419 C   0  0  0  0  0  0  0  0  0  0  0  0
   -1.0283   -0.9207   -1.3662 O   0  0  0  0  0  0  0  0  0  0  0  0
    2.3660    1.1130   -0.4538 H   0  0  0  0  0  0  0  0  0  0  0  0
    2.6495   -0.5235    0.2276 H   0  0  0  0  0  0  0  0  0  0  0  0
    2.0058   -0.3275   -1.4610 H   0  0  0  0  0  0  0  0  0  0  0  0
   -0.4593    1.5514   -1.0938 H   0  0  0  0  0  0  0  0  0  0  0  0
    0.1091    2.0751    0.5888 H   0  0  0  0  0  0  0  0  0  0  0  0
   -1.4665   -1.2711    1.6425 H   0  0  0  0  0  0  0  0  0  0  0  0
    0.2591   -2.0679   -0.1360 H   0  0  0  0  0  0  0  0  0  0  0  0
   -1.9976   -0.9292   -1.1623 H   0  0  0  0  0  0  0  0  0  0  0  0
  1  2  1  0
  2  3  1  0
  3  4  1  0
  4  5  2  0
  4  6  1  0
  6  7  1  0
  6  8  1  0
  8  9  1  0
  7  2  1  0
  8  2  1  0
  1 10  1  0
  1 11  1  0
  1 12  1  0
  3 13  1  0
  3 14  1  0
  6 15  1  0
  8 16  1  0
  9 17  1  0
M  END
