
     RDKit          3D

 19 20  0  0  0  0  0  0  0  0999 V2000
    1.8421   -0.9772    0.4918 C   0  0  0  0  0  0  0  0  0  0  0  0
    0.6695   -0.2825   -0.1191 C   0  0  0  0  0  0  0  0  0  0  0  0
   -0.4996   -1.1083   -0.5340 C   0  0  0  0  0  0  0  0  0  0  0  0
   -1.3641   -0.2497    0.3928 C   0  0  0  0  0  0  0  0  0  0  0  0
   -2.4974    0.3080   -0.3454 C   0  0  0  0  0  0  0  0  0  0  0  0
   -2.3204    1.0800   -1.2590 O   0  0  0  0  0  0  0  0  0  0  0  0
   -0.1956    0.6355    0.6511 C   0  0  0  0  0  0  0  0  0  0  0  0
    0.6710    1.1665   -0.4127 C   0  0  0  0  0  0  0  0  0  0  0  0
    1.8090    1.8462    0.0088 O   0  0  0  0  0  0  0  0  0  0  0  0
    1.7577   -2.0651    0.2403 H   0  0  0  0  0  0  0  0  0  0  0  0
    1.7909   -0.8409    1.5863 H   0  0  0  0  0  0  0  0  0  0  0  0
    2.7811   -0.5945    0.0469 H   0  0  0  0  0  0  0  0  0  0  0  0
   -0.7762   -1.0281   -1.6042 H   0  0  0  0  0  0  0  0  0  0  0  0
   -0.4294   -2.1617   -0.2488 H   0  0  0  0  0  0  0  0  0  0  0  0
   -1.6555   -0.7937    1.3212 H   0  0  0  0  0  0  0  0  0  0  0  0
   -3.5028    0.0377   -0.0842 H   0  0  0  0  0  0  0  0  0  0  0  0
   -0.0054    0.9430    1.6751 H   0  0  0  0  0  0  0  0  0  0  0  0
    0.2766    1.5414   -1.3774 H   0  0  0  0  0  0  0  0  0  0  0  0
    1.6484    2.5436    0.6606 H   0  0  0  0  0  0  0  0  0  0  0  0
  1  2  1  0
  2  3  1  0
  3  4  1  0
  4  5  1  0
  5  6  2  0
  4  7  1  0
  7  8  1  0
  8  9  1  0
  7  2  1  0
  8  2  1  0
  1 10  1  0
  1 11  1  0
  1 12  1  0
  3 13  1  0
  3 14  1  0
  4 15  1  0
  5 16  1  0
  7 17  1  0
  8 18  1  0
  9 19  1  0
M  END
