
     RDKit          3D

 21 23  0  0  0  0  0  0  0  0999 V2000
   -1.3546   -1.4480    0.2874 C   0  0  0  0  0  0  0  0  0  0  0  0
   -0.7648   -0.1754    0.0214 C   0  0  0  0  0  0  0  0  0  0  0  0
   -1.2159    0.6714   -1.1131 C   0  0  0  0  0  0  0  0  0  0  0  0
   -0.4497    1.7822   -0.9749 C   0  0  0  0  0  0  0  0  0  0  0  0
    0.3848    1.4413    0.2277 C   0  0  0  0  0  0  0  0  0  0  0  0
   -0.7343    0.8888    1.1332 C   0  0  0  0  0  0  0  0  0  0  0  0
    0.7168    0.0294   -0.0023 C   0  0  0  0  0  0  0  0  0  0  0  0
    1.6943   -0.7978    0.6231 C   0  0  0  0  0  0  0  0  0  0  0  0
    1.6491   -0.5388   -0.9183 C   0  0  0  0  0  0  0  0  0  0  0  0
   -2.3745   -1.5407   -0.0784 H   0  0  0  0  0  0  0  0  0  0  0  0
   -0.7504   -2.2803   -0.1818 H   0  0  0  0  0  0  0  0  0  0  0  0
   -1.3685   -1.7004    1.3741 H   0  0  0  0  0  0  0  0  0  0  0  0
   -1.9579    0.4925   -1.8762 H   0  0  0  0  0  0  0  0  0  0  0  0
   -0.4506    2.6767   -1.5828 H   0  0  0  0  0  0  0  0  0  0  0  0
    1.0390    2.1558    0.6285 H   0  0  0  0  0  0  0  0  0  0  0  0
   -1.6409    1.5032    1.0997 H   0  0  0  0  0  0  0  0  0  0  0  0
   -0.3913    0.5307    2.0990 H   0  0  0  0  0  0  0  0  0  0  0  0
    1.3844   -1.8494    0.8986 H   0  0  0  0  0  0  0  0  0  0  0  0
    2.6001   -0.4917    1.1513 H   0  0  0  0  0  0  0  0  0  0  0  0
    1.4744   -1.4283   -1.5500 H   0  0  0  0  0  0  0  0  0  0  0  0
    2.5103    0.0786   -1.2663 H   0  0  0  0  0  0  0  0  0  0  0  0
  1  2  1  0
  2  3  1  0
  3  4  2  0
  4  5  1  0
  5  6  1  0
  5  7  1  0
  7  8  1  0
  8  9  1  0
  6  2  1  0
  9  7  1  0
  7  2  1  0
  1 10  1  0
  1 11  1  0
  1 12  1  0
  3 13  1  0
  4 14  1  0
  5 15  1  0
  6 16  1  0
  6 17  1  0
  8 18  1  0
  8 19  1  0
  9 20  1  0
  9 21  1  0
M  END
