
     RDKit          3D

 19 20  0  0  0  0  0  0  0  0999 V2000
    2.4807    0.3947    0.2695 C   0  0  0  0  0  0  0  0  0  0  0  0
    1.0182   -0.0014    0.1691 C   0  0  0  0  0  0  0  0  0  0  0  0
    0.1345    1.0410   -0.3533 C   0  0  0  0  0  0  0  0  0  0  0  0
   -1.1799    1.1618   -0.2283 C   0  0  0  0  0  0  0  0  0  0  0  0
   -2.1479    0.2980    0.4651 C   0  0  0  0  0  0  0  0  0  0  0  0
   -1.8436   -1.0557    0.3522 O   0  0  0  0  0  0  0  0  0  0  0  0
   -0.8694   -1.3287   -0.5787 C   0  0  0  0  0  0  0  0  0  0  0  0
    0.5272   -1.3056    0.0373 C   0  0  0  0  0  0  0  0  0  0  0  0
    0.5657   -0.6303    1.3441 O   0  0  0  0  0  0  0  0  0  0  0  0
    2.9086    0.6424   -0.7321 H   0  0  0  0  0  0  0  0  0  0  0  0
    3.0835   -0.3534    0.8103 H   0  0  0  0  0  0  0  0  0  0  0  0
    2.5051    1.3459    0.8555 H   0  0  0  0  0  0  0  0  0  0  0  0
    0.6089    1.8282   -0.9232 H   0  0  0  0  0  0  0  0  0  0  0  0
   -1.5833    2.0223   -0.7094 H   0  0  0  0  0  0  0  0  0  0  0  0
   -3.1502    0.4599    0.0166 H   0  0  0  0  0  0  0  0  0  0  0  0
   -2.1948    0.5258    1.5565 H   0  0  0  0  0  0  0  0  0  0  0  0
   -0.8755   -0.5141   -1.3320 H   0  0  0  0  0  0  0  0  0  0  0  0
   -1.0382   -2.2683   -1.1371 H   0  0  0  0  0  0  0  0  0  0  0  0
    1.0505   -2.2625    0.1181 H   0  0  0  0  0  0  0  0  0  0  0  0
  1  2  1  0
  2  3  1  0
  3  4  2  0
  4  5  1  0
  5  6  1  0
  6  7  1  0
  7  8  1  0
  8  9  1  0
  8  2  1  0
  9  2  1  0
  1 10  1  0
  1 11  1  0
  1 12  1  0
  3 13  1  0
  4 14  1  0
  5 15  1  0
  5 16  1  0
  7 17  1  0
  7 18  1  0
  8 19  1  0
M  END
