
     RDKit          3D

 17 18  0  0  0  0  0  0  0  0999 V2000
    2.0210    0.1016    0.5415 C   0  0  0  0  0  0  0  0  0  0  0  0
    0.6201   -0.0491    0.2267 C   0  0  0  0  0  0  0  0  0  0  0  0
    0.1445   -1.1728   -0.6443 C   0  0  0  0  0  0  0  0  0  0  0  0
   -1.1025   -0.8669    0.1086 C   0  0  0  0  0  0  0  0  0  0  0  0
   -0.2773   -0.4904    1.1929 O   0  0  0  0  0  0  0  0  0  0  0  0
   -1.5074    0.4894   -0.4506 C   0  0  0  0  0  0  0  0  0  0  0  0
   -2.4220    1.1393    0.3540 O   0  0  0  0  0  0  0  0  0  0  0  0
   -0.1300    1.1239   -0.3411 C   0  0  0  0  0  0  0  0  0  0  0  0
    0.2283    2.2285   -0.6270 O   0  0  0  0  0  0  0  0  0  0  0  0
    2.2789   -0.0856    1.6040 H   0  0  0  0  0  0  0  0  0  0  0  0
    2.6391   -0.5768   -0.1171 H   0  0  0  0  0  0  0  0  0  0  0  0
    2.3847    1.1335    0.2704 H   0  0  0  0  0  0  0  0  0  0  0  0
    0.1268   -0.9069   -1.7349 H   0  0  0  0  0  0  0  0  0  0  0  0
    0.6627   -2.1073   -0.4111 H   0  0  0  0  0  0  0  0  0  0  0  0
   -1.8479   -1.5979    0.2762 H   0  0  0  0  0  0  0  0  0  0  0  0
   -1.7836    0.4325   -1.5049 H   0  0  0  0  0  0  0  0  0  0  0  0
   -2.0353    1.2049    1.2568 H   0  0  0  0  0  0  0  0  0  0  0  0
  1  2  1  0
  2  3  1  0
  3  4  1  0
  4  5  1  0
  4  6  1  0
  6  7  1  0
  6  8  1  0
  8  9  2  0
  5  2  1  0
  8  2  1  0
  1 10  1  0
  1 11  1  0
  1 12  1  0
  3 13  1  0
  3 14  1  0
  4 15  1  0
  6 16  1  0
  7 17  1  0
M  END
