
     RDKit          3D

 20 21  0  0  0  0  0  0  0  0999 V2000
    1.9611    0.3576   -0.7727 C   0  0  0  0  0  0  0  0  0  0  0  0
    0.6332    0.0513   -0.1303 C   0  0  0  0  0  0  0  0  0  0  0  0
    0.7060   -0.8208    1.0744 C   0  0  0  0  0  0  0  0  0  0  0  0
    0.0184   -1.2755   -0.1767 C   0  0  0  0  0  0  0  0  0  0  0  0
   -1.4692   -1.0796   -0.3012 C   0  0  0  0  0  0  0  0  0  0  0  0
   -1.7022    0.3555    0.1427 C   0  0  0  0  0  0  0  0  0  0  0  0
   -0.4314    1.0891   -0.1539 C   0  0  0  0  0  0  0  0  0  0  0  0
   -0.2017    2.1781    0.6524 O   0  0  0  0  0  0  0  0  0  0  0  0
    1.8947    0.5375   -1.8554 H   0  0  0  0  0  0  0  0  0  0  0  0
    2.6858   -0.4588   -0.5605 H   0  0  0  0  0  0  0  0  0  0  0  0
    2.3152    1.3224   -0.3152 H   0  0  0  0  0  0  0  0  0  0  0  0
    1.6475   -1.3771    1.2964 H   0  0  0  0  0  0  0  0  0  0  0  0
    0.1468   -0.4943    1.9553 H   0  0  0  0  0  0  0  0  0  0  0  0
    0.4156   -2.1266   -0.7509 H   0  0  0  0  0  0  0  0  0  0  0  0
   -2.0590   -1.7955    0.2881 H   0  0  0  0  0  0  0  0  0  0  0  0
   -1.7142   -1.1280   -1.3900 H   0  0  0  0  0  0  0  0  0  0  0  0
   -2.0398    0.4293    1.1858 H   0  0  0  0  0  0  0  0  0  0  0  0
   -2.5335    0.7702   -0.4818 H   0  0  0  0  0  0  0  0  0  0  0  0
   -0.5114    1.4729   -1.2077 H   0  0  0  0  0  0  0  0  0  0  0  0
    0.2382    1.9922    1.5011 H   0  0  0  0  0  0  0  0  0  0  0  0
  1  2  1  0
  2  3  1  0
  3  4  1  0
  4  5  1  0
  5  6  1  0
  6  7  1  0
  7  8  1  0
  4  2  1  0
  7  2  1  0
  1  9  1  0
  1 10  1  0
  1 11  1  0
  3 12  1  0
  3 13  1  0
  4 14  1  0
  5 15  1  0
  5 16  1  0
  6 17  1  0
  6 18  1  0
  7 19  1  0
  8 20  1  0
M  END
