
     RDKit          3D

 21 22  0  0  0  0  0  0  0  0999 V2000
   -0.5436    2.0411    0.5625 C   0  0  0  0  0  0  0  0  0  0  0  0
   -0.4276    0.6765   -0.0554 C   0  0  0  0  0  0  0  0  0  0  0  0
   -1.7453   -0.0717   -0.1420 C   0  0  0  0  0  0  0  0  0  0  0  0
   -1.3881   -1.5355   -0.1444 C   0  0  0  0  0  0  0  0  0  0  0  0
    0.1030   -1.6030   -0.3056 C   0  0  0  0  0  0  0  0  0  0  0  0
    0.6026   -0.2124   -0.0605 C   0  0  0  0  0  0  0  0  0  0  0  0
    1.9676   -0.1318    0.5596 C   0  0  0  0  0  0  0  0  0  0  0  0
    2.2744    1.1439    1.0286 O   0  0  0  0  0  0  0  0  0  0  0  0
    0.3922    0.6460   -1.1888 O   0  0  0  0  0  0  0  0  0  0  0  0
   -1.5441    2.2100    1.0183 H   0  0  0  0  0  0  0  0  0  0  0  0
   -0.4117    2.8394   -0.2210 H   0  0  0  0  0  0  0  0  0  0  0  0
    0.2243    2.2409    1.3393 H   0  0  0  0  0  0  0  0  0  0  0  0
   -2.3254    0.1243    0.7729 H   0  0  0  0  0  0  0  0  0  0  0  0
   -2.3508    0.2424   -0.9985 H   0  0  0  0  0  0  0  0  0  0  0  0
   -1.8968   -2.0817   -0.9763 H   0  0  0  0  0  0  0  0  0  0  0  0
   -1.6948   -2.0589    0.7875 H   0  0  0  0  0  0  0  0  0  0  0  0
    0.5422   -2.3101    0.4442 H   0  0  0  0  0  0  0  0  0  0  0  0
    0.3341   -1.9298   -1.3380 H   0  0  0  0  0  0  0  0  0  0  0  0
    2.7000   -0.4566   -0.2272 H   0  0  0  0  0  0  0  0  0  0  0  0
    1.9874   -0.8514    1.4045 H   0  0  0  0  0  0  0  0  0  0  0  0
    3.2003    1.0782    1.3997 H   0  0  0  0  0  0  0  0  0  0  0  0
  1  2  1  0
  2  3  1  0
  3  4  1  0
  4  5  1  0
  5  6  1  0
  6  7  1  0
  7  8  1  0
  6  9  1  0
  6  2  1  0
  9  2  1  0
  1 10  1  0
  1 11  1  0
  1 12  1  0
  3 13  1  0
  3 14  1  0
  4 15  1  0
  4 16  1  0
  5 17  1  0
  5 18  1  0
  7 19  1  0
  7 20  1  0
  8 21  1  0
M  END
