
     RDKit          3D

 20 21  0  0  0  0  0  0  0  0999 V2000
    1.9548    0.2304   -0.5574 C   0  0  0  0  0  0  0  0  0  0  0  0
    0.6031    0.1776    0.1111 C   0  0  0  0  0  0  0  0  0  0  0  0
    0.1054    1.4328    0.6590 C   0  0  0  0  0  0  0  0  0  0  0  0
   -1.1679    1.6311    0.4040 C   0  0  0  0  0  0  0  0  0  0  0  0
   -1.7131    0.5072   -0.3700 C   0  0  0  0  0  0  0  0  0  0  0  0
   -0.5303   -0.3163   -0.7369 C   0  0  0  0  0  0  0  0  0  0  0  0
   -0.4585   -1.6879   -0.0953 C   0  0  0  0  0  0  0  0  0  0  0  0
    0.3985   -1.0620    0.9841 C   0  0  0  0  0  0  0  0  0  0  0  0
    1.8677    0.2138   -1.6563 H   0  0  0  0  0  0  0  0  0  0  0  0
    2.4985    1.1601   -0.2844 H   0  0  0  0  0  0  0  0  0  0  0  0
    2.5679   -0.6069   -0.1522 H   0  0  0  0  0  0  0  0  0  0  0  0
    0.6977    2.1640    1.2305 H   0  0  0  0  0  0  0  0  0  0  0  0
   -1.7693    2.4947    0.7069 H   0  0  0  0  0  0  0  0  0  0  0  0
   -2.4550   -0.0115    0.2631 H   0  0  0  0  0  0  0  0  0  0  0  0
   -2.1796    0.8641   -1.3316 H   0  0  0  0  0  0  0  0  0  0  0  0
   -0.2330   -0.3151   -1.8148 H   0  0  0  0  0  0  0  0  0  0  0  0
   -1.4267   -2.0469    0.3194 H   0  0  0  0  0  0  0  0  0  0  0  0
    0.0655   -2.4138   -0.7427 H   0  0  0  0  0  0  0  0  0  0  0  0
    1.3048   -1.6474    1.1638 H   0  0  0  0  0  0  0  0  0  0  0  0
   -0.1305   -0.7678    1.8998 H   0  0  0  0  0  0  0  0  0  0  0  0
  1  2  1  0
  2  3  1  0
  3  4  2  0
  4  5  1  0
  5  6  1  0
  6  7  1  0
  7  8  1  0
  6  2  1  0
  8  2  1  0
  1  9  1  0
  1 10  1  0
  1 11  1  0
  3 12  1  0
  4 13  1  0
  5 14  1  0
  5 15  1  0
  6 16  1  0
  7 17  1  0
  7 18  1  0
  8 19  1  0
  8 20  1  0
M  END
