
     RDKit          3D

 19 20  0  0  0  0  0  0  0  0999 V2000
   -1.6456   -1.0028    0.4908 C   0  0  0  0  0  0  0  0  0  0  0  0
   -0.5073   -0.1973   -0.1184 C   0  0  0  0  0  0  0  0  0  0  0  0
    0.2925   -0.7761   -1.2365 C   0  0  0  0  0  0  0  0  0  0  0  0
    1.6217   -0.7720   -0.8763 O   0  0  0  0  0  0  0  0  0  0  0  0
    1.8212    0.2985   -0.0192 C   0  0  0  0  0  0  0  0  0  0  0  0
    0.5228    0.4192    0.7698 C   0  0  0  0  0  0  0  0  0  0  0  0
    0.4953   -0.0068    2.0859 O   0  0  0  0  0  0  0  0  0  0  0  0
   -0.5107    1.2604    0.1737 C   0  0  0  0  0  0  0  0  0  0  0  0
   -0.1352    2.1160   -0.8763 O   0  0  0  0  0  0  0  0  0  0  0  0
   -1.5745   -1.0632    1.5938 H   0  0  0  0  0  0  0  0  0  0  0  0
   -2.5833   -0.4234    0.2804 H   0  0  0  0  0  0  0  0  0  0  0  0
   -1.7724   -1.9809   -0.0019 H   0  0  0  0  0  0  0  0  0  0  0  0
    0.1568   -0.2478   -2.2003 H   0  0  0  0  0  0  0  0  0  0  0  0
   -0.0833   -1.8194   -1.4073 H   0  0  0  0  0  0  0  0  0  0  0  0
    1.9920    1.2324   -0.5904 H   0  0  0  0  0  0  0  0  0  0  0  0
    2.6829    0.1407    0.6515 H   0  0  0  0  0  0  0  0  0  0  0  0
    1.2473   -0.6688    2.1824 H   0  0  0  0  0  0  0  0  0  0  0  0
   -1.3540    1.6659    0.7601 H   0  0  0  0  0  0  0  0  0  0  0  0
   -0.6662    1.8254   -1.6617 H   0  0  0  0  0  0  0  0  0  0  0  0
  1  2  1  0
  2  3  1  0
  3  4  1  0
  4  5  1  0
  5  6  1  0
  6  7  1  0
  6  8  1  0
  8  9  1  0
  6  2  1  0
  8  2  1  0
  1 10  1  0
  1 11  1  0
  1 12  1  0
  3 13  1  0
  3 14  1  0
  5 15  1  0
  5 16  1  0
  7 17  1  0
  8 18  1  0
  9 19  1  0
M  END
