
     RDKit          3D

 19 21  0  0  0  0  0  0  0  0999 V2000
   -1.8524   -0.8203    1.1334 C   0  0  0  0  0  0  0  0  0  0  0  0
   -0.8228   -0.3953    0.1256 C   0  0  0  0  0  0  0  0  0  0  0  0
   -1.3869    0.2653   -1.1012 C   0  0  0  0  0  0  0  0  0  0  0  0
   -0.4444    0.9828   -0.1183 C   0  0  0  0  0  0  0  0  0  0  0  0
    0.9888    0.9339   -0.5489 C   0  0  0  0  0  0  0  0  0  0  0  0
    1.9396    1.3066    0.3567 O   0  0  0  0  0  0  0  0  0  0  0  0
    2.3531   -0.0194    0.5064 C   0  0  0  0  0  0  0  0  0  0  0  0
    1.3255   -0.5137   -0.4866 C   0  0  0  0  0  0  0  0  0  0  0  0
    0.2796   -1.2087    0.0412 O   0  0  0  0  0  0  0  0  0  0  0  0
   -1.3890   -1.1523    2.0955 H   0  0  0  0  0  0  0  0  0  0  0  0
   -2.4555   -1.6900    0.7644 H   0  0  0  0  0  0  0  0  0  0  0  0
   -2.6129   -0.0167    1.3300 H   0  0  0  0  0  0  0  0  0  0  0  0
   -2.4478    0.5667   -1.0950 H   0  0  0  0  0  0  0  0  0  0  0  0
   -1.0061    0.0195   -2.1019 H   0  0  0  0  0  0  0  0  0  0  0  0
   -0.8735    1.8632    0.3698 H   0  0  0  0  0  0  0  0  0  0  0  0
    1.1225    1.3524   -1.5720 H   0  0  0  0  0  0  0  0  0  0  0  0
    2.1560   -0.3327    1.5538 H   0  0  0  0  0  0  0  0  0  0  0  0
    3.3897   -0.2327    0.1857 H   0  0  0  0  0  0  0  0  0  0  0  0
    1.7362   -0.9086   -1.4385 H   0  0  0  0  0  0  0  0  0  0  0  0
  1  2  1  0
  2  3  1  0
  3  4  1  0
  4  5  1  0
  5  6  1  0
  6  7  1  0
  7  8  1  0
  8  9  1  0
  4  2  1  0
  8  5  1  0
  9  2  1  0
  1 10  1  0
  1 11  1  0
  1 12  1  0
  3 13  1  0
  3 14  1  0
  4 15  1  0
  5 16  1  0
  7 17  1  0
  7 18  1  0
  8 19  1  0
M  END
