
     RDKit          3D

 21 22  0  0  0  0  0  0  0  0999 V2000
   -1.4652    1.1928    0.9844 C   0  0  0  0  0  0  0  0  0  0  0  0
   -1.1890    0.3495   -0.2634 C   0  0  0  0  0  0  0  0  0  0  0  0
    0.1574    0.7096   -0.8095 C   0  0  0  0  0  0  0  0  0  0  0  0
    0.6008   -0.0231    0.4760 C   0  0  0  0  0  0  0  0  0  0  0  0
    2.0248   -0.4653    0.3755 C   0  0  0  0  0  0  0  0  0  0  0  0
    2.8412    0.6538    0.1890 O   0  0  0  0  0  0  0  0  0  0  0  0
   -0.4097   -1.0112   -0.0443 C   0  0  0  0  0  0  0  0  0  0  0  0
    0.1714   -1.5651   -1.2180 O   0  0  0  0  0  0  0  0  0  0  0  0
   -1.8207   -0.9263   -0.1436 C   0  0  0  0  0  0  0  0  0  0  0  0
   -1.5615    0.5953    1.9000 H   0  0  0  0  0  0  0  0  0  0  0  0
   -0.8436    2.0746    1.0926 H   0  0  0  0  0  0  0  0  0  0  0  0
   -2.5108    1.5932    0.8024 H   0  0  0  0  0  0  0  0  0  0  0  0
    0.5150    0.2476   -1.7157 H   0  0  0  0  0  0  0  0  0  0  0  0
    0.3616    1.7878   -0.7715 H   0  0  0  0  0  0  0  0  0  0  0  0
    0.4012    0.4955    1.3987 H   0  0  0  0  0  0  0  0  0  0  0  0
    2.3500   -1.1100    1.1889 H   0  0  0  0  0  0  0  0  0  0  0  0
    2.1111   -1.0494   -0.5888 H   0  0  0  0  0  0  0  0  0  0  0  0
    3.4720    0.5463   -0.5667 H   0  0  0  0  0  0  0  0  0  0  0  0
   -0.4046   -1.5491   -1.9915 H   0  0  0  0  0  0  0  0  0  0  0  0
   -2.3962   -1.2883    0.7627 H   0  0  0  0  0  0  0  0  0  0  0  0
   -2.4054   -1.2583   -1.0571 H   0  0  0  0  0  0  0  0  0  0  0  0
  1  2  1  0
  2  3  1  0
  3  4  1  0
  4  5  1  0
  5  6  1  0
  4  7  1  0
  7  8  1  0
  7  9  1  0
  7  2  1  0
  9  2  1  0
  1 10  1  0
  1 11  1  0
  1 12  1  0
  3 13  1  0
  3 14  1  0
  4 15  1  0
  5 16  1  0
  5 17  1  0
  6 18  1  0
  8 19  1  0
  9 20  1  0
  9 21  1  0
M  END
