
     RDKit          3D

 19 21  0  0  0  0  0  0  0  0999 V2000
    2.4572    0.1382    0.4697 C   0  0  0  0  0  0  0  0  0  0  0  0
    0.9656   -0.1148    0.4123 C   0  0  0  0  0  0  0  0  0  0  0  0
    0.6123   -1.4373    0.3198 O   0  0  0  0  0  0  0  0  0  0  0  0
   -0.3120   -1.2899   -0.7352 C   0  0  0  0  0  0  0  0  0  0  0  0
   -1.6667   -1.2340   -0.1757 C   0  0  0  0  0  0  0  0  0  0  0  0
   -2.1275   -0.1382    0.3727 C   0  0  0  0  0  0  0  0  0  0  0  0
   -1.3564    1.1002    0.4764 C   0  0  0  0  0  0  0  0  0  0  0  0
    0.0811    1.0152    0.1207 C   0  0  0  0  0  0  0  0  0  0  0  0
    0.2943    0.0538   -0.9908 C   0  0  0  0  0  0  0  0  0  0  0  0
    2.9002   -0.7104    1.0551 H   0  0  0  0  0  0  0  0  0  0  0  0
    2.7173    1.1125    0.8845 H   0  0  0  0  0  0  0  0  0  0  0  0
    2.8407    0.0757   -0.5747 H   0  0  0  0  0  0  0  0  0  0  0  0
   -0.1514   -1.9817   -1.5769 H   0  0  0  0  0  0  0  0  0  0  0  0
   -2.2877   -2.1130   -0.2200 H   0  0  0  0  0  0  0  0  0  0  0  0
   -3.1521   -0.1135    0.7905 H   0  0  0  0  0  0  0  0  0  0  0  0
   -1.8251    1.8243   -0.2571 H   0  0  0  0  0  0  0  0  0  0  0  0
   -1.5350    1.5746    1.4780 H   0  0  0  0  0  0  0  0  0  0  0  0
    0.5787    1.9953   -0.0238 H   0  0  0  0  0  0  0  0  0  0  0  0
    0.9665    0.2430   -1.8257 H   0  0  0  0  0  0  0  0  0  0  0  0
  1  2  1  0
  2  3  1  0
  3  4  1  0
  4  5  1  0
  5  6  2  0
  6  7  1  0
  7  8  1  0
  8  9  1  0
  8  2  1  0
  9  2  1  0
  9  4  1  0
  1 10  1  0
  1 11  1  0
  1 12  1  0
  4 13  1  0
  5 14  1  0
  6 15  1  0
  7 16  1  0
  7 17  1  0
  8 18  1  0
  9 19  1  0
M  END
