
     RDKit          3D

 19 21  0  0  0  0  0  0  0  0999 V2000
    2.2350   -0.1399    0.4272 C   0  0  0  0  0  0  0  0  0  0  0  0
    0.8559   -0.0719   -0.0804 C   0  0  0  0  0  0  0  0  0  0  0  0
    0.5836    0.4461   -1.3664 O   0  0  0  0  0  0  0  0  0  0  0  0
   -0.7789    0.5942   -1.3582 C   0  0  0  0  0  0  0  0  0  0  0  0
   -0.9657    1.3938   -0.0699 C   0  0  0  0  0  0  0  0  0  0  0  0
   -0.1920    0.4502    0.8441 C   0  0  0  0  0  0  0  0  0  0  0  0
   -0.2600   -0.9044    0.3023 C   0  0  0  0  0  0  0  0  0  0  0  0
   -0.2467   -2.0106    1.0721 O   0  0  0  0  0  0  0  0  0  0  0  0
   -1.2343   -0.7775   -0.8760 C   0  0  0  0  0  0  0  0  0  0  0  0
    2.4985   -1.0408    1.0060 H   0  0  0  0  0  0  0  0  0  0  0  0
    2.4058    0.7498    1.1011 H   0  0  0  0  0  0  0  0  0  0  0  0
    2.9518   -0.0084   -0.4057 H   0  0  0  0  0  0  0  0  0  0  0  0
   -1.2656    0.9749   -2.2130 H   0  0  0  0  0  0  0  0  0  0  0  0
   -0.4001    2.3235   -0.1808 H   0  0  0  0  0  0  0  0  0  0  0  0
   -2.0107    1.5011    0.2128 H   0  0  0  0  0  0  0  0  0  0  0  0
   -0.0063    0.7032    1.8762 H   0  0  0  0  0  0  0  0  0  0  0  0
   -0.8483   -1.8476    1.8670 H   0  0  0  0  0  0  0  0  0  0  0  0
   -2.2783   -0.7715   -0.5274 H   0  0  0  0  0  0  0  0  0  0  0  0
   -1.0436   -1.5641   -1.6310 H   0  0  0  0  0  0  0  0  0  0  0  0
  1  2  1  0
  2  3  1  0
  3  4  1  0
  4  5  1  0
  5  6  1  0
  6  7  1  0
  7  8  1  0
  7  9  1  0
  6  2  1  0
  7  2  1  0
  9  4  1  0
  1 10  1  0
  1 11  1  0
  1 12  1  0
  4 13  1  0
  5 14  1  0
  5 15  1  0
  6 16  1  0
  8 17  1  0
  9 18  1  0
  9 19  1  0
M  END
