
     RDKit          3D

 21 23  0  0  0  0  0  0  0  0999 V2000
    2.2383   -0.0685   -0.0240 C   0  0  0  0  0  0  0  0  0  0  0  0
    0.7564   -0.0537    0.0509 C   0  0  0  0  0  0  0  0  0  0  0  0
    0.2778   -0.8173    1.2337 C   0  0  0  0  0  0  0  0  0  0  0  0
   -1.0394   -0.8406    1.4079 C   0  0  0  0  0  0  0  0  0  0  0  0
   -1.8630   -0.1508    0.3798 C   0  0  0  0  0  0  0  0  0  0  0  0
   -1.2975    1.0783   -0.1627 C   0  0  0  0  0  0  0  0  0  0  0  0
    0.1526    1.3319    0.0556 C   0  0  0  0  0  0  0  0  0  0  0  0
   -1.3536   -0.2184   -0.9855 C   0  0  0  0  0  0  0  0  0  0  0  0
    0.0730   -0.6642   -1.1514 C   0  0  0  0  0  0  0  0  0  0  0  0
    2.6216    0.1916   -1.0299 H   0  0  0  0  0  0  0  0  0  0  0  0
    2.6311    0.6363    0.7446 H   0  0  0  0  0  0  0  0  0  0  0  0
    2.5950   -1.0867    0.1966 H   0  0  0  0  0  0  0  0  0  0  0  0
    1.0079   -1.2957    1.8655 H   0  0  0  0  0  0  0  0  0  0  0  0
   -1.4894   -1.3319    2.2476 H   0  0  0  0  0  0  0  0  0  0  0  0
   -2.9466   -0.1960    0.5250 H   0  0  0  0  0  0  0  0  0  0  0  0
   -1.9477    1.9124   -0.4919 H   0  0  0  0  0  0  0  0  0  0  0  0
    0.3939    1.9007    0.9619 H   0  0  0  0  0  0  0  0  0  0  0  0
    0.5629    1.8721   -0.8101 H   0  0  0  0  0  0  0  0  0  0  0  0
   -2.0610   -0.2787   -1.8188 H   0  0  0  0  0  0  0  0  0  0  0  0
    0.2165   -1.7445   -1.1316 H   0  0  0  0  0  0  0  0  0  0  0  0
    0.4711   -0.1762   -2.0631 H   0  0  0  0  0  0  0  0  0  0  0  0
  1  2  1  0
  2  3  1  0
  3  4  2  0
  4  5  1  0
  5  6  1  0
  6  7  1  0
  6  8  1  0
  8  9  1  0
  7  2  1  0
  9  2  1  0
  8  5  1  0
  1 10  1  0
  1 11  1  0
  1 12  1  0
  3 13  1  0
  4 14  1  0
  5 15  1  0
  6 16  1  0
  7 17  1  0
  7 18  1  0
  8 19  1  0
  9 20  1  0
  9 21  1  0
M  END
