
     RDKit          3D

 19 21  0  0  0  0  0  0  0  0999 V2000
    2.2442    0.1765    0.0671 C   0  0  0  0  0  0  0  0  0  0  0  0
    0.7567    0.0579    0.1551 C   0  0  0  0  0  0  0  0  0  0  0  0
    0.1201    0.7784    1.1294 O   0  0  0  0  0  0  0  0  0  0  0  0
   -0.8671    1.5521    0.5227 C   0  0  0  0  0  0  0  0  0  0  0  0
   -1.4059    0.5732   -0.5345 C   0  0  0  0  0  0  0  0  0  0  0  0
   -2.0335   -0.4831    0.0612 O   0  0  0  0  0  0  0  0  0  0  0  0
   -1.2149   -1.5698    0.1070 C   0  0  0  0  0  0  0  0  0  0  0  0
    0.1414   -1.1788   -0.4334 C   0  0  0  0  0  0  0  0  0  0  0  0
   -0.0868    0.0905   -1.0860 C   0  0  0  0  0  0  0  0  0  0  0  0
    2.6212    1.2046    0.1910 H   0  0  0  0  0  0  0  0  0  0  0  0
    2.5920   -0.2725   -0.8938 H   0  0  0  0  0  0  0  0  0  0  0  0
    2.6733   -0.4638    0.8916 H   0  0  0  0  0  0  0  0  0  0  0  0
   -1.6304    1.8940    1.2037 H   0  0  0  0  0  0  0  0  0  0  0  0
   -0.3513    2.3441   -0.0577 H   0  0  0  0  0  0  0  0  0  0  0  0
   -2.0045    1.1059   -1.2728 H   0  0  0  0  0  0  0  0  0  0  0  0
   -1.0470   -1.9483    1.1271 H   0  0  0  0  0  0  0  0  0  0  0  0
   -1.6194   -2.3419   -0.5813 H   0  0  0  0  0  0  0  0  0  0  0  0
    0.7582   -2.0005   -0.7865 H   0  0  0  0  0  0  0  0  0  0  0  0
    0.3538    0.4814   -1.9797 H   0  0  0  0  0  0  0  0  0  0  0  0
  1  2  1  0
  2  3  1  0
  3  4  1  0
  4  5  1  0
  5  6  1  0
  6  7  1  0
  7  8  1  0
  8  9  1  0
  8  2  1  0
  9  2  1  0
  9  5  1  0
  1 10  1  0
  1 11  1  0
  1 12  1  0
  4 13  1  0
  4 14  1  0
  5 15  1  0
  7 16  1  0
  7 17  1  0
  8 18  1  0
  9 19  1  0
M  END
