
     RDKit          3D

 15 16  0  0  0  0  0  0  0  0999 V2000
    1.8618    0.3420    0.1999 C   0  0  0  0  0  0  0  0  0  0  0  0
    0.4895    0.1933   -0.4040 C   0  0  0  0  0  0  0  0  0  0  0  0
    0.3462   -0.4082   -1.6347 O   0  0  0  0  0  0  0  0  0  0  0  0
   -0.1062   -1.1752   -0.5922 C   0  0  0  0  0  0  0  0  0  0  0  0
   -1.4179   -0.7066    0.0049 C   0  0  0  0  0  0  0  0  0  0  0  0
   -0.6841    0.5420    0.4439 C   0  0  0  0  0  0  0  0  0  0  0  0
   -1.3137    1.7335    0.2176 O   0  0  0  0  0  0  0  0  0  0  0  0
    2.0066   -0.3973    1.0190 H   0  0  0  0  0  0  0  0  0  0  0  0
    2.6607    0.2854   -0.5681 H   0  0  0  0  0  0  0  0  0  0  0  0
    1.9660    1.3588    0.6600 H   0  0  0  0  0  0  0  0  0  0  0  0
    0.3827   -2.0733   -0.2462 H   0  0  0  0  0  0  0  0  0  0  0  0
   -1.7973   -1.3540    0.7965 H   0  0  0  0  0  0  0  0  0  0  0  0
   -2.1645   -0.5670   -0.7940 H   0  0  0  0  0  0  0  0  0  0  0  0
   -0.3967    0.4686    1.5328 H   0  0  0  0  0  0  0  0  0  0  0  0
   -1.8333    1.7581   -0.6354 H   0  0  0  0  0  0  0  0  0  0  0  0
  1  2  1  0
  2  3  1  0
  3  4  1  0
  4  5  1  0
  5  6  1  0
  6  7  1  0
  4  2  1  0
  6  2  1  0
  1  8  1  0
  1  9  1  0
  1 10  1  0
  4 11  1  0
  5 12  1  0
  5 13  1  0
  6 14  1  0
  7 15  1  0
M  END
