
     RDKit          3D

 21 22  0  0  0  0  0  0  0  0999 V2000
   -0.6604   -1.3435    1.1334 C   0  0  0  0  0  0  0  0  0  0  0  0
   -0.5747   -0.5119   -0.0997 C   0  0  0  0  0  0  0  0  0  0  0  0
   -1.8866   -0.0040   -0.6465 C   0  0  0  0  0  0  0  0  0  0  0  0
   -1.3247    1.4112   -0.7490 C   0  0  0  0  0  0  0  0  0  0  0  0
   -0.0717    0.8749   -0.1046 C   0  0  0  0  0  0  0  0  0  0  0  0
    0.4010    1.4173    1.0554 O   0  0  0  0  0  0  0  0  0  0  0  0
    0.6325   -0.2110   -0.8344 C   0  0  0  0  0  0  0  0  0  0  0  0
    2.0156   -0.5073   -0.3890 C   0  0  0  0  0  0  0  0  0  0  0  0
    2.2792    0.1501    0.8133 O   0  0  0  0  0  0  0  0  0  0  0  0
   -0.9688   -2.3779    0.8146 H   0  0  0  0  0  0  0  0  0  0  0  0
    0.2436   -1.3900    1.7372 H   0  0  0  0  0  0  0  0  0  0  0  0
   -1.5069   -0.9997    1.7899 H   0  0  0  0  0  0  0  0  0  0  0  0
   -2.1026   -0.4646   -1.6481 H   0  0  0  0  0  0  0  0  0  0  0  0
   -2.7350   -0.0908    0.0677 H   0  0  0  0  0  0  0  0  0  0  0  0
   -1.1418    1.7199   -1.7843 H   0  0  0  0  0  0  0  0  0  0  0  0
   -1.8025    2.1454   -0.0902 H   0  0  0  0  0  0  0  0  0  0  0  0
    0.7447    2.3491    0.9144 H   0  0  0  0  0  0  0  0  0  0  0  0
    0.5298   -0.1423   -1.9551 H   0  0  0  0  0  0  0  0  0  0  0  0
    2.2248   -1.5922   -0.2760 H   0  0  0  0  0  0  0  0  0  0  0  0
    2.7771   -0.1047   -1.1082 H   0  0  0  0  0  0  0  0  0  0  0  0
    2.9274   -0.3279    1.3593 H   0  0  0  0  0  0  0  0  0  0  0  0
  1  2  1  0
  2  3  1  0
  3  4  1  0
  4  5  1  0
  5  6  1  0
  5  7  1  0
  7  8  1  0
  8  9  1  0
  5  2  1  0
  7  2  1  0
  1 10  1  0
  1 11  1  0
  1 12  1  0
  3 13  1  0
  3 14  1  0
  4 15  1  0
  4 16  1  0
  6 17  1  0
  7 18  1  0
  8 19  1  0
  8 20  1  0
  9 21  1  0
M  END
