
     RDKit          3D

 16 18  0  0  0  0  0  0  0  0999 V2000
    1.7972   -0.3142   -0.3715 C   0  0  0  0  0  0  0  0  0  0  0  0
    0.4487    0.0950   -0.0706 C   0  0  0  0  0  0  0  0  0  0  0  0
   -0.7646   -0.1472   -0.8943 C   0  0  0  0  0  0  0  0  0  0  0  0
   -1.6725   -0.7881    0.1643 C   0  0  0  0  0  0  0  0  0  0  0  0
   -1.2806   -0.3050    1.3762 O   0  0  0  0  0  0  0  0  0  0  0  0
   -0.1158    0.3984    1.2581 C   0  0  0  0  0  0  0  0  0  0  0  0
   -0.0926    1.4190    0.1199 C   0  0  0  0  0  0  0  0  0  0  0  0
   -0.9988    1.2151   -0.9077 O   0  0  0  0  0  0  0  0  0  0  0  0
    2.0028   -0.3259   -1.4406 H   0  0  0  0  0  0  0  0  0  0  0  0
    2.5401    0.3748    0.1265 H   0  0  0  0  0  0  0  0  0  0  0  0
    2.0310   -1.3223    0.0757 H   0  0  0  0  0  0  0  0  0  0  0  0
   -0.6836   -0.6729   -1.8321 H   0  0  0  0  0  0  0  0  0  0  0  0
   -1.5211   -1.9001    0.1554 H   0  0  0  0  0  0  0  0  0  0  0  0
   -2.7436   -0.5858   -0.0619 H   0  0  0  0  0  0  0  0  0  0  0  0
    0.5858    0.5181    2.0764 H   0  0  0  0  0  0  0  0  0  0  0  0
    0.4678    2.3412    0.2261 H   0  0  0  0  0  0  0  0  0  0  0  0
  1  2  1  0
  2  3  1  0
  3  4  1  0
  4  5  1  0
  5  6  1  0
  6  7  1  0
  7  8  1  0
  6  2  1  0
  7  2  1  0
  8  3  1  0
  1  9  1  0
  1 10  1  0
  1 11  1  0
  3 12  1  0
  4 13  1  0
  4 14  1  0
  6 15  1  0
  7 16  1  0
M  END
