
     RDKit          3D

 16 18  0  0  0  0  0  0  0  0999 V2000
    1.7865    0.3639   -0.1188 C   0  0  0  0  0  0  0  0  0  0  0  0
    0.6022   -0.2889    0.1768 C   0  0  0  0  0  0  0  0  0  0  0  0
   -0.1085   -1.2807   -0.6982 C   0  0  0  0  0  0  0  0  0  0  0  0
   -0.8808   -1.1331    0.5964 C   0  0  0  0  0  0  0  0  0  0  0  0
    0.3690   -1.1661    1.2211 O   0  0  0  0  0  0  0  0  0  0  0  0
   -0.7260    0.3013    0.4532 C   0  0  0  0  0  0  0  0  0  0  0  0
   -1.3526    1.3451   -0.0885 C   0  0  0  0  0  0  0  0  0  0  0  0
   -0.9769    1.2535    1.3689 O   0  0  0  0  0  0  0  0  0  0  0  0
    1.8686    1.3771    0.3204 H   0  0  0  0  0  0  0  0  0  0  0  0
    1.9724    0.4810   -1.2043 H   0  0  0  0  0  0  0  0  0  0  0  0
    2.6927   -0.1883    0.2673 H   0  0  0  0  0  0  0  0  0  0  0  0
   -0.6338   -0.8173   -1.5461 H   0  0  0  0  0  0  0  0  0  0  0  0
    0.3661   -2.2455   -0.8556 H   0  0  0  0  0  0  0  0  0  0  0  0
   -1.6743   -1.7039    0.8577 H   0  0  0  0  0  0  0  0  0  0  0  0
   -0.8353    2.2327   -0.5610 H   0  0  0  0  0  0  0  0  0  0  0  0
   -2.4693    1.4693   -0.1892 H   0  0  0  0  0  0  0  0  0  0  0  0
  1  2  1  0
  2  3  1  0
  3  4  1  0
  4  5  1  0
  4  6  1  0
  6  7  1  0
  7  8  1  0
  5  2  1  0
  8  6  1  0
  6  2  1  0
  1  9  1  0
  1 10  1  0
  1 11  1  0
  3 12  1  0
  3 13  1  0
  4 14  1  0
  7 15  1  0
  7 16  1  0
M  END
