
     RDKit          3D

 19 23  0  0  0  0  0  0  0  0999 V2000
    2.1478    0.1327   -0.3189 C   0  0  0  0  0  0  0  0  0  0  0  0
    0.7463    0.0478   -0.1257 C   0  0  0  0  0  0  0  0  0  0  0  0
   -0.1486   -0.9205   -0.7748 C   0  0  0  0  0  0  0  0  0  0  0  0
   -0.7966   -1.1936    0.5139 C   0  0  0  0  0  0  0  0  0  0  0  0
   -1.7705   -0.1175    0.2550 C   0  0  0  0  0  0  0  0  0  0  0  0
   -1.1265    0.1559   -1.0315 C   0  0  0  0  0  0  0  0  0  0  0  0
   -0.2183    1.1177   -0.3852 C   0  0  0  0  0  0  0  0  0  0  0  0
   -0.8731    0.8472    0.9110 C   0  0  0  0  0  0  0  0  0  0  0  0
    0.0933   -0.2221    1.1718 C   0  0  0  0  0  0  0  0  0  0  0  0
    2.5908   -0.3264   -1.2286 H   0  0  0  0  0  0  0  0  0  0  0  0
    2.7188   -0.3321    0.5387 H   0  0  0  0  0  0  0  0  0  0  0  0
    2.5072    1.2029   -0.3289 H   0  0  0  0  0  0  0  0  0  0  0  0
    0.1412   -1.6378   -1.4720 H   0  0  0  0  0  0  0  0  0  0  0  0
   -1.0339   -2.1376    0.8858 H   0  0  0  0  0  0  0  0  0  0  0  0
   -2.7966   -0.1901    0.4208 H   0  0  0  0  0  0  0  0  0  0  0  0
   -1.6147    0.3093   -1.9388 H   0  0  0  0  0  0  0  0  0  0  0  0
    0.0049    2.0679   -0.7486 H   0  0  0  0  0  0  0  0  0  0  0  0
   -1.1710    1.5798    1.5884 H   0  0  0  0  0  0  0  0  0  0  0  0
    0.5993   -0.3835    2.0677 H   0  0  0  0  0  0  0  0  0  0  0  0
  1  2  1  0
  2  3  1  0
  3  4  1  0
  4  5  1  0
  5  6  1  0
  6  7  1  0
  7  8  1  0
  8  9  1  0
  7  2  1  0
  9  2  1  0
  6  3  1  0
  9  4  1  0
  8  5  1  0
  1 10  1  0
  1 11  1  0
  1 12  1  0
  3 13  1  0
  4 14  1  0
  5 15  1  0
  6 16  1  0
  7 17  1  0
  8 18  1  0
  9 19  1  0
M  END
