
     RDKit          3D

 17 19  0  0  0  0  0  0  0  0999 V2000
    1.8977    0.2928    0.2456 C   0  0  0  0  0  0  0  0  0  0  0  0
    0.4666    0.1587    0.0270 C   0  0  0  0  0  0  0  0  0  0  0  0
   -0.5412   -0.0658    1.1112 C   0  0  0  0  0  0  0  0  0  0  0  0
   -0.9053   -1.3711    0.3908 C   0  0  0  0  0  0  0  0  0  0  0  0
   -0.2104   -0.8044   -0.8347 C   0  0  0  0  0  0  0  0  0  0  0  0
   -0.3105    0.6905   -1.0920 C   0  0  0  0  0  0  0  0  0  0  0  0
   -1.4330    1.3861   -0.4376 C   0  0  0  0  0  0  0  0  0  0  0  0
   -2.1977    2.2311   -0.9463 O   0  0  0  0  0  0  0  0  0  0  0  0
   -1.5046    0.9405    0.8643 O   0  0  0  0  0  0  0  0  0  0  0  0
    2.3388   -0.7153    0.4816 H   0  0  0  0  0  0  0  0  0  0  0  0
    2.1066    0.9162    1.1359 H   0  0  0  0  0  0  0  0  0  0  0  0
    2.4062    0.6839   -0.6325 H   0  0  0  0  0  0  0  0  0  0  0  0
   -0.1867   -0.1778    2.1311 H   0  0  0  0  0  0  0  0  0  0  0  0
   -1.9867   -1.5020    0.2807 H   0  0  0  0  0  0  0  0  0  0  0  0
   -0.3655   -2.2306    0.8416 H   0  0  0  0  0  0  0  0  0  0  0  0
    0.3315   -1.4498   -1.5214 H   0  0  0  0  0  0  0  0  0  0  0  0
    0.0942    1.0172   -2.0453 H   0  0  0  0  0  0  0  0  0  0  0  0
  1  2  1  0
  2  3  1  0
  3  4  1  0
  4  5  1  0
  5  6  1  0
  6  7  1  0
  7  8  2  0
  7  9  1  0
  5  2  1  0
  6  2  1  0
  9  3  1  0
  1 10  1  0
  1 11  1  0
  1 12  1  0
  3 13  1  0
  4 14  1  0
  4 15  1  0
  5 16  1  0
  6 17  1  0
M  END
