
     RDKit          3D

 23 24  0  0  0  0  0  0  0  0999 V2000
   -1.0650    0.6322   -1.6183 C   0  0  0  0  0  0  0  0  0  0  0  0
   -0.7483    0.2737   -0.2694 C   0  0  0  0  0  0  0  0  0  0  0  0
   -1.5675   -0.6919    0.4942 C   0  0  0  0  0  0  0  0  0  0  0  0
   -0.9162   -0.7510    1.6837 C   0  0  0  0  0  0  0  0  0  0  0  0
    0.2249    0.1691    1.4658 C   0  0  0  0  0  0  0  0  0  0  0  0
   -0.4819    1.3444    0.7730 C   0  0  0  0  0  0  0  0  0  0  0  0
    0.6674   -0.2081    0.0708 C   0  0  0  0  0  0  0  0  0  0  0  0
    0.8129   -1.6736   -0.1921 C   0  0  0  0  0  0  0  0  0  0  0  0
    1.7494    0.6804   -0.4856 C   0  0  0  0  0  0  0  0  0  0  0  0
   -0.7418    1.6649   -1.8643 H   0  0  0  0  0  0  0  0  0  0  0  0
   -2.1565    0.4825   -1.8163 H   0  0  0  0  0  0  0  0  0  0  0  0
   -0.5576   -0.0660   -2.3482 H   0  0  0  0  0  0  0  0  0  0  0  0
   -2.4628   -1.2405    0.2277 H   0  0  0  0  0  0  0  0  0  0  0  0
   -1.1869   -1.3343    2.5561 H   0  0  0  0  0  0  0  0  0  0  0  0
    0.9235    0.3724    2.2189 H   0  0  0  0  0  0  0  0  0  0  0  0
    0.2676    2.0907    0.5076 H   0  0  0  0  0  0  0  0  0  0  0  0
   -1.3953    1.6781    1.2752 H   0  0  0  0  0  0  0  0  0  0  0  0
   -0.1443   -2.1629    0.0222 H   0  0  0  0  0  0  0  0  0  0  0  0
    1.0373   -1.8104   -1.2604 H   0  0  0  0  0  0  0  0  0  0  0  0
    1.6709   -2.1120    0.3685 H   0  0  0  0  0  0  0  0  0  0  0  0
    2.4219    0.0631   -1.0909 H   0  0  0  0  0  0  0  0  0  0  0  0
    2.2920    1.1059    0.4011 H   0  0  0  0  0  0  0  0  0  0  0  0
    1.3564    1.4936   -1.1193 H   0  0  0  0  0  0  0  0  0  0  0  0
  1  2  1  0
  2  3  1  0
  3  4  2  0
  4  5  1  0
  5  6  1  0
  5  7  1  0
  7  8  1  0
  7  9  1  0
  6  2  1  0
  7  2  1  0
  1 10  1  0
  1 11  1  0
  1 12  1  0
  3 13  1  0
  4 14  1  0
  5 15  1  0
  6 16  1  0
  6 17  1  0
  8 18  1  0
  8 19  1  0
  8 20  1  0
  9 21  1  0
  9 22  1  0
  9 23  1  0
M  END
