
     RDKit          3D

 23 24  0  0  0  0  0  0  0  0999 V2000
    2.1262   -1.0433   -0.0574 C   0  0  0  0  0  0  0  0  0  0  0  0
    0.8071   -0.6625   -0.0643 C   0  0  0  0  0  0  0  0  0  0  0  0
   -0.3382   -1.3715    0.6252 C   0  0  0  0  0  0  0  0  0  0  0  0
   -0.9903   -0.1922   -0.0864 C   0  0  0  0  0  0  0  0  0  0  0  0
   -2.2957    0.1739   -0.0445 C   0  0  0  0  0  0  0  0  0  0  0  0
   -0.1117   -0.5433   -1.2415 C   0  0  0  0  0  0  0  0  0  0  0  0
    0.2016    0.5954    0.4599 C   0  0  0  0  0  0  0  0  0  0  0  0
    0.5170    1.8575   -0.2669 C   0  0  0  0  0  0  0  0  0  0  0  0
    0.2368    0.6364    1.8359 O   0  0  0  0  0  0  0  0  0  0  0  0
    2.4006   -1.7001   -0.9219 H   0  0  0  0  0  0  0  0  0  0  0  0
    2.8511   -0.2119   -0.0730 H   0  0  0  0  0  0  0  0  0  0  0  0
    2.3947   -1.6511    0.8541 H   0  0  0  0  0  0  0  0  0  0  0  0
   -0.3354   -1.2709    1.7082 H   0  0  0  0  0  0  0  0  0  0  0  0
   -0.5202   -2.3488    0.1838 H   0  0  0  0  0  0  0  0  0  0  0  0
   -2.7908    0.3432   -1.0473 H   0  0  0  0  0  0  0  0  0  0  0  0
   -2.5139    1.1383    0.5072 H   0  0  0  0  0  0  0  0  0  0  0  0
   -2.9949   -0.5621    0.4574 H   0  0  0  0  0  0  0  0  0  0  0  0
   -0.4239   -1.4816   -1.7195 H   0  0  0  0  0  0  0  0  0  0  0  0
    0.1011    0.2320   -1.9745 H   0  0  0  0  0  0  0  0  0  0  0  0
   -0.4135    2.2764   -0.7187 H   0  0  0  0  0  0  0  0  0  0  0  0
    1.2514    1.7111   -1.0720 H   0  0  0  0  0  0  0  0  0  0  0  0
    0.9389    2.5874    0.4834 H   0  0  0  0  0  0  0  0  0  0  0  0
   -0.0979    1.4877    2.1727 H   0  0  0  0  0  0  0  0  0  0  0  0
  1  2  1  0
  2  3  1  0
  3  4  1  0
  4  5  1  0
  4  6  1  0
  4  7  1  0
  7  8  1  0
  7  9  1  0
  6  2  1  0
  7  2  1  0
  1 10  1  0
  1 11  1  0
  1 12  1  0
  3 13  1  0
  3 14  1  0
  5 15  1  0
  5 16  1  0
  5 17  1  0
  6 18  1  0
  6 19  1  0
  8 20  1  0
  8 21  1  0
  8 22  1  0
  9 23  1  0
M  END
