
     RDKit          3D

 19 21  0  0  0  0  0  0  0  0999 V2000
    2.2443   -0.2516   -0.5356 C   0  0  0  0  0  0  0  0  0  0  0  0
    0.9388    0.0404    0.2155 C   0  0  0  0  0  0  0  0  0  0  0  0
    0.0974   -1.1081    0.6247 C   0  0  0  0  0  0  0  0  0  0  0  0
   -1.2989   -1.0752    0.0323 C   0  0  0  0  0  0  0  0  0  0  0  0
   -1.9066    0.2751    0.0028 C   0  0  0  0  0  0  0  0  0  0  0  0
   -1.6826    1.0420   -1.2362 O   0  0  0  0  0  0  0  0  0  0  0  0
   -1.1307    1.4320    0.0895 C   0  0  0  0  0  0  0  0  0  0  0  0
    0.3506    1.3107    0.0469 C   0  0  0  0  0  0  0  0  0  0  0  0
    1.0570    1.0662    1.2271 O   0  0  0  0  0  0  0  0  0  0  0  0
    3.0220    0.5106   -0.2620 H   0  0  0  0  0  0  0  0  0  0  0  0
    2.6142   -1.2690   -0.3072 H   0  0  0  0  0  0  0  0  0  0  0  0
    1.9807   -0.1231   -1.6169 H   0  0  0  0  0  0  0  0  0  0  0  0
    0.5706   -2.0483    0.2143 H   0  0  0  0  0  0  0  0  0  0  0  0
    0.0842   -1.2583    1.7242 H   0  0  0  0  0  0  0  0  0  0  0  0
   -1.9206   -1.7326    0.6769 H   0  0  0  0  0  0  0  0  0  0  0  0
   -1.3057   -1.5823   -0.9776 H   0  0  0  0  0  0  0  0  0  0  0  0
   -3.0034    0.3196    0.2065 H   0  0  0  0  0  0  0  0  0  0  0  0
   -1.5632    2.3778    0.4685 H   0  0  0  0  0  0  0  0  0  0  0  0
    0.8519    2.0741   -0.5939 H   0  0  0  0  0  0  0  0  0  0  0  0
  1  2  1  0
  2  3  1  0
  3  4  1  0
  4  5  1  0
  5  6  1  0
  6  7  1  0
  7  8  1  0
  8  9  1  0
  8  2  1  0
  9  2  1  0
  7  5  1  0
  1 10  1  0
  1 11  1  0
  1 12  1  0
  3 13  1  0
  3 14  1  0
  4 15  1  0
  4 16  1  0
  5 17  1  0
  7 18  1  0
  8 19  1  0
M  END
