
     RDKit          3D

 19 21  0  0  0  0  0  0  0  0999 V2000
   -1.8413    1.0487   -0.2520 C   0  0  0  0  0  0  0  0  0  0  0  0
   -0.5656    0.3475    0.0672 C   0  0  0  0  0  0  0  0  0  0  0  0
   -0.7134   -1.0800    0.5567 C   0  0  0  0  0  0  0  0  0  0  0  0
    0.3762   -1.4870   -0.3869 C   0  0  0  0  0  0  0  0  0  0  0  0
    1.5147   -0.5649   -0.5426 C   0  0  0  0  0  0  0  0  0  0  0  0
    1.7249    0.3689    0.6587 C   0  0  0  0  0  0  0  0  0  0  0  0
    0.4674    1.1345    0.7754 C   0  0  0  0  0  0  0  0  0  0  0  0
    0.3016    2.1852    1.3301 O   0  0  0  0  0  0  0  0  0  0  0  0
    0.2131   -0.2020   -1.0919 C   0  0  0  0  0  0  0  0  0  0  0  0
   -2.3194    0.5063   -1.1044 H   0  0  0  0  0  0  0  0  0  0  0  0
   -1.6370    2.0958   -0.4628 H   0  0  0  0  0  0  0  0  0  0  0  0
   -2.5267    0.9132    0.6355 H   0  0  0  0  0  0  0  0  0  0  0  0
   -1.6930   -1.5153    0.3509 H   0  0  0  0  0  0  0  0  0  0  0  0
   -0.3611   -1.1303    1.6138 H   0  0  0  0  0  0  0  0  0  0  0  0
    0.3257   -2.4583   -0.9144 H   0  0  0  0  0  0  0  0  0  0  0  0
    2.3862   -0.7936   -1.1698 H   0  0  0  0  0  0  0  0  0  0  0  0
    2.6139    0.9908    0.5006 H   0  0  0  0  0  0  0  0  0  0  0  0
    1.7942   -0.2868    1.5536 H   0  0  0  0  0  0  0  0  0  0  0  0
   -0.0603   -0.0728   -2.1177 H   0  0  0  0  0  0  0  0  0  0  0  0
  1  2  1  0
  2  3  1  0
  3  4  1  0
  4  5  1  0
  5  6  1  0
  6  7  1  0
  7  8  2  0
  5  9  1  0
  7  2  1  0
  9  2  1  0
  9  4  1  0
  1 10  1  0
  1 11  1  0
  1 12  1  0
  3 13  1  0
  3 14  1  0
  4 15  1  0
  5 16  1  0
  6 17  1  0
  6 18  1  0
  9 19  1  0
M  END
