
     RDKit          3D

 19 21  0  0  0  0  0  0  0  0999 V2000
   -2.4264    0.1890    0.3719 C   0  0  0  0  0  0  0  0  0  0  0  0
   -1.0593   -0.1944   -0.0994 C   0  0  0  0  0  0  0  0  0  0  0  0
   -0.3306    0.7976   -0.9597 C   0  0  0  0  0  0  0  0  0  0  0  0
    1.1290    0.3699   -0.9567 C   0  0  0  0  0  0  0  0  0  0  0  0
    1.9524    0.7849    0.1962 C   0  0  0  0  0  0  0  0  0  0  0  0
    1.3057   -0.5262    0.2050 C   0  0  0  0  0  0  0  0  0  0  0  0
    2.0853   -1.6825    0.0839 O   0  0  0  0  0  0  0  0  0  0  0  0
   -0.0602   -0.7674    0.7698 C   0  0  0  0  0  0  0  0  0  0  0  0
   -0.8489   -1.5466   -0.2503 O   0  0  0  0  0  0  0  0  0  0  0  0
   -2.4460    0.4724    1.4523 H   0  0  0  0  0  0  0  0  0  0  0  0
   -3.1892   -0.6162    0.2185 H   0  0  0  0  0  0  0  0  0  0  0  0
   -2.8421    1.0806   -0.1655 H   0  0  0  0  0  0  0  0  0  0  0  0
   -0.3562    1.7764   -0.4131 H   0  0  0  0  0  0  0  0  0  0  0  0
   -0.7233    0.8956   -1.9714 H   0  0  0  0  0  0  0  0  0  0  0  0
    1.5881    0.0598   -1.9268 H   0  0  0  0  0  0  0  0  0  0  0  0
    1.5757    1.6333    0.8175 H   0  0  0  0  0  0  0  0  0  0  0  0
    3.0651    0.7842    0.0777 H   0  0  0  0  0  0  0  0  0  0  0  0
    1.7900   -2.3396    0.7789 H   0  0  0  0  0  0  0  0  0  0  0  0
   -0.2090   -1.1708    1.7712 H   0  0  0  0  0  0  0  0  0  0  0  0
  1  2  1  0
  2  3  1  0
  3  4  1  0
  4  5  1  0
  5  6  1  0
  6  7  1  0
  6  8  1  0
  8  9  1  0
  8  2  1  0
  9  2  1  0
  6  4  1  0
  1 10  1  0
  1 11  1  0
  1 12  1  0
  3 13  1  0
  3 14  1  0
  4 15  1  0
  5 16  1  0
  5 17  1  0
  7 18  1  0
  8 19  1  0
M  END
