
     RDKit          3D

 19 20  0  0  0  0  0  0  0  0999 V2000
    2.0738   -0.5101   -0.5454 C   0  0  0  0  0  0  0  0  0  0  0  0
    0.6510   -0.0617   -0.3081 C   0  0  0  0  0  0  0  0  0  0  0  0
   -0.1063   -1.1226    0.4443 C   0  0  0  0  0  0  0  0  0  0  0  0
   -1.5897   -0.7794    0.4978 C   0  0  0  0  0  0  0  0  0  0  0  0
   -1.8376    0.5564   -0.0832 C   0  0  0  0  0  0  0  0  0  0  0  0
   -2.9358    1.0171   -0.1392 O   0  0  0  0  0  0  0  0  0  0  0  0
   -0.6790    1.3160   -0.5988 C   0  0  0  0  0  0  0  0  0  0  0  0
    0.4788    1.2439    0.3908 C   0  0  0  0  0  0  0  0  0  0  0  0
    0.0167    0.4048   -1.4350 O   0  0  0  0  0  0  0  0  0  0  0  0
    2.0036   -1.3953   -1.2385 H   0  0  0  0  0  0  0  0  0  0  0  0
    2.5151   -0.8193    0.4248 H   0  0  0  0  0  0  0  0  0  0  0  0
    2.6671    0.2434   -1.0789 H   0  0  0  0  0  0  0  0  0  0  0  0
    0.2654   -1.1020    1.4926 H   0  0  0  0  0  0  0  0  0  0  0  0
    0.0802   -2.1362    0.0632 H   0  0  0  0  0  0  0  0  0  0  0  0
   -2.1255   -1.5884   -0.0416 H   0  0  0  0  0  0  0  0  0  0  0  0
   -1.9672   -0.7898    1.5343 H   0  0  0  0  0  0  0  0  0  0  0  0
   -0.8692    2.2923   -1.0394 H   0  0  0  0  0  0  0  0  0  0  0  0
    1.2462    2.0056    0.2386 H   0  0  0  0  0  0  0  0  0  0  0  0
    0.1125    1.2252    1.4216 H   0  0  0  0  0  0  0  0  0  0  0  0
  1  2  1  0
  2  3  1  0
  3  4  1  0
  4  5  1  0
  5  6  2  0
  5  7  1  0
  7  8  1  0
  7  9  1  0
  8  2  1  0
  9  2  1  0
  1 10  1  0
  1 11  1  0
  1 12  1  0
  3 13  1  0
  3 14  1  0
  4 15  1  0
  4 16  1  0
  7 17  1  0
  8 18  1  0
  8 19  1  0
M  END
