
     RDKit          3D

 21 23  0  0  0  0  0  0  0  0999 V2000
    2.3956   -0.3013   -0.0622 C   0  0  0  0  0  0  0  0  0  0  0  0
    1.0052    0.0444    0.1200 C   0  0  0  0  0  0  0  0  0  0  0  0
   -0.0145   -1.0901    0.2810 C   0  0  0  0  0  0  0  0  0  0  0  0
   -0.9977    0.0030   -0.1564 C   0  0  0  0  0  0  0  0  0  0  0  0
   -2.2336   -0.3810   -0.7799 C   0  0  0  0  0  0  0  0  0  0  0  0
    0.1639    0.4757   -1.0453 C   0  0  0  0  0  0  0  0  0  0  0  0
   -0.9365    0.9769    0.9650 C   0  0  0  0  0  0  0  0  0  0  0  0
   -0.1466    2.1118    0.8412 O   0  0  0  0  0  0  0  0  0  0  0  0
    0.5868    0.9997    1.2028 C   0  0  0  0  0  0  0  0  0  0  0  0
    2.5015   -1.3717   -0.3601 H   0  0  0  0  0  0  0  0  0  0  0  0
    2.9371   -0.2169    0.9148 H   0  0  0  0  0  0  0  0  0  0  0  0
    2.8817    0.3882   -0.7929 H   0  0  0  0  0  0  0  0  0  0  0  0
    0.1231   -1.8989   -0.4404 H   0  0  0  0  0  0  0  0  0  0  0  0
   -0.1911   -1.3932    1.3249 H   0  0  0  0  0  0  0  0  0  0  0  0
   -2.2314   -0.4271   -1.9071 H   0  0  0  0  0  0  0  0  0  0  0  0
   -2.5526   -1.4162   -0.4710 H   0  0  0  0  0  0  0  0  0  0  0  0
   -3.0946    0.2724   -0.5233 H   0  0  0  0  0  0  0  0  0  0  0  0
    0.1477    1.5681   -1.2218 H   0  0  0  0  0  0  0  0  0  0  0  0
    0.2916   -0.1383   -1.9598 H   0  0  0  0  0  0  0  0  0  0  0  0
   -1.5908    0.9066    1.8455 H   0  0  0  0  0  0  0  0  0  0  0  0
    0.9552    0.8879    2.2251 H   0  0  0  0  0  0  0  0  0  0  0  0
  1  2  1  0
  2  3  1  0
  3  4  1  0
  4  5  1  0
  4  6  1  0
  4  7  1  0
  7  8  1  0
  8  9  1  0
  6  2  1  0
  9  7  1  0
  9  2  1  0
  1 10  1  0
  1 11  1  0
  1 12  1  0
  3 13  1  0
  3 14  1  0
  5 15  1  0
  5 16  1  0
  5 17  1  0
  6 18  1  0
  6 19  1  0
  7 20  1  0
  9 21  1  0
M  END
