
     RDKit          2D

 19 21  0  0  0  0  0  0  0  0999 V2000
   -0.5971   -1.4266    0.0000 C   0  0  0  0  0  0  0  0  0  0  0  0
   -1.0607    0.0000    0.0000 C   0  0  0  0  0  0  0  0  0  0  0  0
   -2.3972   -0.6810    0.0000 C   0  0  0  0  0  0  0  0  0  0  0  0
   -2.1625   -2.1625    0.0000 C   0  0  0  0  0  0  0  0  0  0  0  0
   -0.6810   -2.3972    0.0000 C   0  0  0  0  0  0  0  0  0  0  0  0
   -0.0000   -1.0607    0.0000 C   0  0  0  0  0  0  0  0  0  0  0  0
    1.0607    0.0000    0.0000 O   0  0  0  0  0  0  0  0  0  0  0  0
    0.0000    1.0607    0.0000 C   0  0  0  0  0  0  0  0  0  0  0  0
   -2.1625    0.8005    0.0000 C   0  0  0  0  0  0  0  0  0  0  0  0
   -0.4451   -2.2091    0.0000 H   0  0  0  0  0  0  0  0  0  0  0  0
   -1.8692   -2.2215    0.0000 H   0  0  0  0  0  0  0  0  0  0  0  0
    0.8295   -0.9631    0.0000 H   0  0  0  0  0  0  0  0  0  0  0  0
   -3.2232   -3.2232    0.0000 H   0  0  0  0  0  0  0  0  0  0  0  0
   -1.0692   -3.8461    0.0000 H   0  0  0  0  0  0  0  0  0  0  0  0
    0.6434   -3.1014    0.0000 H   0  0  0  0  0  0  0  0  0  0  0  0
    1.2135   -1.9423    0.0000 H   0  0  0  0  0  0  0  0  0  0  0  0
    0.0000    2.5607    0.0000 H   0  0  0  0  0  0  0  0  0  0  0  0
   -3.6441    1.0352    0.0000 H   0  0  0  0  0  0  0  0  0  0  0  0
   -1.9279    2.2821    0.0000 H   0  0  0  0  0  0  0  0  0  0  0  0
  1  2  1  0
  2  3  1  0
  3  4  2  0
  4  5  1  0
  5  6  1  0
  6  7  1  0
  7  8  1  0
  8  9  1  0
  6  2  1  0
  8  2  1  0
  9  3  1  0
  1 10  1  0
  1 11  1  0
  1 12  1  0
  4 13  1  0
  5 14  1  0
  5 15  1  0
  6 16  1  0
  8 17  1  0
  9 18  1  0
  9 19  1  0
M  END
