
     RDKit          3D

 23 24  0  0  0  0  0  0  0  0999 V2000
   -2.2609    0.0933   -0.1055 C   0  0  0  0  0  0  0  0  0  0  0  0
   -0.8296   -0.2522    0.2121 C   0  0  0  0  0  0  0  0  0  0  0  0
   -0.4513   -1.6672   -0.0188 C   0  0  0  0  0  0  0  0  0  0  0  0
    0.7909   -2.0850   -0.1355 C   0  0  0  0  0  0  0  0  0  0  0  0
    1.8974   -1.1002   -0.0342 C   0  0  0  0  0  0  0  0  0  0  0  0
    1.3634    0.1437   -0.7330 C   0  0  0  0  0  0  0  0  0  0  0  0
    0.2503    0.7332    0.0469 C   0  0  0  0  0  0  0  0  0  0  0  0
   -0.0450    2.1703   -0.3195 C   0  0  0  0  0  0  0  0  0  0  0  0
   -0.1461    0.3334    1.3943 C   0  0  0  0  0  0  0  0  0  0  0  0
   -2.9177   -0.5957    0.4992 H   0  0  0  0  0  0  0  0  0  0  0  0
   -2.5333    1.1223    0.0971 H   0  0  0  0  0  0  0  0  0  0  0  0
   -2.4378   -0.1805   -1.1692 H   0  0  0  0  0  0  0  0  0  0  0  0
   -1.2323   -2.4007   -0.0954 H   0  0  0  0  0  0  0  0  0  0  0  0
    0.9910   -3.1212   -0.3010 H   0  0  0  0  0  0  0  0  0  0  0  0
    2.1684   -0.8451    0.9901 H   0  0  0  0  0  0  0  0  0  0  0  0
    2.8031   -1.4292   -0.5907 H   0  0  0  0  0  0  0  0  0  0  0  0
    0.9498   -0.2117   -1.7102 H   0  0  0  0  0  0  0  0  0  0  0  0
    2.1765    0.8466   -0.9908 H   0  0  0  0  0  0  0  0  0  0  0  0
   -1.0557    2.3301   -0.6938 H   0  0  0  0  0  0  0  0  0  0  0  0
    0.0655    2.7745    0.6294 H   0  0  0  0  0  0  0  0  0  0  0  0
    0.7009    2.6052   -1.0156 H   0  0  0  0  0  0  0  0  0  0  0  0
   -0.7647    1.0237    1.9938 H   0  0  0  0  0  0  0  0  0  0  0  0
    0.5170   -0.2876    2.0502 H   0  0  0  0  0  0  0  0  0  0  0  0
  1  2  1  0
  2  3  1  0
  3  4  2  0
  4  5  1  0
  5  6  1  0
  6  7  1  0
  7  8  1  0
  7  9  1  0
  7  2  1  0
  9  2  1  0
  1 10  1  0
  1 11  1  0
  1 12  1  0
  3 13  1  0
  4 14  1  0
  5 15  1  0
  5 16  1  0
  6 17  1  0
  6 18  1  0
  8 19  1  0
  8 20  1  0
  8 21  1  0
  9 22  1  0
  9 23  1  0
M  END
