
     RDKit          3D

 18 19  0  0  0  0  0  0  0  0999 V2000
    1.1942    1.3084   -0.3830 C   0  0  0  0  0  0  0  0  0  0  0  0
    0.3785    0.2153    0.0380 C   0  0  0  0  0  0  0  0  0  0  0  0
    0.8889   -0.7664    1.0926 C   0  0  0  0  0  0  0  0  0  0  0  0
   -0.2228   -1.6486    1.1314 O   0  0  0  0  0  0  0  0  0  0  0  0
   -1.0855   -1.1174    0.2131 C   0  0  0  0  0  0  0  0  0  0  0  0
   -0.1583   -0.7889   -0.9620 C   0  0  0  0  0  0  0  0  0  0  0  0
   -1.0406    0.3938    0.4849 C   0  0  0  0  0  0  0  0  0  0  0  0
   -1.8658    1.1567   -0.2680 O   0  0  0  0  0  0  0  0  0  0  0  0
    1.9910    1.5361    0.3873 H   0  0  0  0  0  0  0  0  0  0  0  0
    0.6749    2.2648   -0.5574 H   0  0  0  0  0  0  0  0  0  0  0  0
    1.7816    1.0690   -1.3146 H   0  0  0  0  0  0  0  0  0  0  0  0
    1.0339   -0.2456    2.0351 H   0  0  0  0  0  0  0  0  0  0  0  0
    1.7728   -1.2558    0.6873 H   0  0  0  0  0  0  0  0  0  0  0  0
   -2.0234   -1.5510   -0.0004 H   0  0  0  0  0  0  0  0  0  0  0  0
   -0.6396   -0.3952   -1.8457 H   0  0  0  0  0  0  0  0  0  0  0  0
    0.5782   -1.5687   -1.1571 H   0  0  0  0  0  0  0  0  0  0  0  0
   -1.1567    0.5465    1.5689 H   0  0  0  0  0  0  0  0  0  0  0  0
   -2.1012    0.8472   -1.1504 H   0  0  0  0  0  0  0  0  0  0  0  0
  1  2  1  0
  2  3  1  0
  3  4  1  0
  4  5  1  0
  5  6  1  0
  5  7  1  0
  7  8  1  0
  6  2  1  0
  7  2  1  0
  1  9  1  0
  1 10  1  0
  1 11  1  0
  3 12  1  0
  3 13  1  0
  5 14  1  0
  6 15  1  0
  6 16  1  0
  7 17  1  0
  8 18  1  0
M  END
