
     RDKit          3D

 17 19  0  0  0  0  0  0  0  0999 V2000
    1.9922    0.0306   -0.4088 C   0  0  0  0  0  0  0  0  0  0  0  0
    0.5538    0.0450   -0.1437 C   0  0  0  0  0  0  0  0  0  0  0  0
   -0.2790   -1.1403    0.1673 C   0  0  0  0  0  0  0  0  0  0  0  0
   -1.6674   -0.7631   -0.3622 C   0  0  0  0  0  0  0  0  0  0  0  0
   -1.6555    0.7135   -0.4294 C   0  0  0  0  0  0  0  0  0  0  0  0
   -2.5774    1.4138   -0.7604 O   0  0  0  0  0  0  0  0  0  0  0  0
   -0.3185    1.2034   -0.0219 C   0  0  0  0  0  0  0  0  0  0  0  0
    0.1697    0.5435    1.2648 C   0  0  0  0  0  0  0  0  0  0  0  0
   -0.2280   -0.7738    1.5216 O   0  0  0  0  0  0  0  0  0  0  0  0
    2.2817   -0.8209   -1.0883 H   0  0  0  0  0  0  0  0  0  0  0  0
    2.6204   -0.1225    0.5117 H   0  0  0  0  0  0  0  0  0  0  0  0
    2.3160    0.9473   -0.9162 H   0  0  0  0  0  0  0  0  0  0  0  0
    0.0720   -2.1316   -0.0851 H   0  0  0  0  0  0  0  0  0  0  0  0
   -1.7983   -1.2434   -1.3550 H   0  0  0  0  0  0  0  0  0  0  0  0
   -2.3899   -1.1641    0.3782 H   0  0  0  0  0  0  0  0  0  0  0  0
   -0.0292    2.2391   -0.1411 H   0  0  0  0  0  0  0  0  0  0  0  0
    0.9374    1.0234    1.8684 H   0  0  0  0  0  0  0  0  0  0  0  0
  1  2  1  0
  2  3  1  0
  3  4  1  0
  4  5  1  0
  5  6  2  0
  5  7  1  0
  7  8  1  0
  8  9  1  0
  7  2  1  0
  8  2  1  0
  9  3  1  0
  1 10  1  0
  1 11  1  0
  1 12  1  0
  3 13  1  0
  4 14  1  0
  4 15  1  0
  7 16  1  0
  8 17  1  0
M  END
