
     RDKit          3D

 21 23  0  0  0  0  0  0  0  0999 V2000
   -1.2032   -1.6550    0.3588 C   0  0  0  0  0  0  0  0  0  0  0  0
   -0.7309   -0.3964    0.1326 C   0  0  0  0  0  0  0  0  0  0  0  0
   -1.4783    0.9102    0.2518 C   0  0  0  0  0  0  0  0  0  0  0  0
   -0.0923    1.3277   -0.1519 C   0  0  0  0  0  0  0  0  0  0  0  0
    0.3477    2.4879   -0.3324 O   0  0  0  0  0  0  0  0  0  0  0  0
   -0.0888    0.1656   -1.0970 C   0  0  0  0  0  0  0  0  0  0  0  0
    1.3111   -0.3936   -1.1192 C   0  0  0  0  0  0  0  0  0  0  0  0
    1.6622   -0.2475    0.3742 C   0  0  0  0  0  0  0  0  0  0  0  0
    0.3735    0.3218    0.8756 C   0  0  0  0  0  0  0  0  0  0  0  0
   -0.9234   -2.4261   -0.4201 H   0  0  0  0  0  0  0  0  0  0  0  0
   -0.8617   -2.1356    1.3247 H   0  0  0  0  0  0  0  0  0  0  0  0
   -2.3293   -1.7483    0.4144 H   0  0  0  0  0  0  0  0  0  0  0  0
   -2.2753    1.0439   -0.4724 H   0  0  0  0  0  0  0  0  0  0  0  0
   -1.6851    1.1726    1.3050 H   0  0  0  0  0  0  0  0  0  0  0  0
    0.7658    2.9186    0.4529 H   0  0  0  0  0  0  0  0  0  0  0  0
   -0.6426    0.2208   -2.0099 H   0  0  0  0  0  0  0  0  0  0  0  0
    1.2790   -1.4865   -1.3712 H   0  0  0  0  0  0  0  0  0  0  0  0
    1.9875    0.1826   -1.7469 H   0  0  0  0  0  0  0  0  0  0  0  0
    1.8495   -1.2553    0.8016 H   0  0  0  0  0  0  0  0  0  0  0  0
    2.4923    0.4525    0.5199 H   0  0  0  0  0  0  0  0  0  0  0  0
    0.2425    0.5400    1.9095 H   0  0  0  0  0  0  0  0  0  0  0  0
  1  2  1  0
  2  3  1  0
  3  4  1  0
  4  5  1  0
  4  6  1  0
  6  7  1  0
  7  8  1  0
  8  9  1  0
  6  2  1  0
  9  2  1  0
  9  4  1  0
  1 10  1  0
  1 11  1  0
  1 12  1  0
  3 13  1  0
  3 14  1  0
  5 15  1  0
  6 16  1  0
  7 17  1  0
  7 18  1  0
  8 19  1  0
  8 20  1  0
  9 21  1  0
M  END
