
     RDKit          3D

 17 18  0  0  0  0  0  0  0  0999 V2000
   -1.6784   -1.0278   -0.1826 C   0  0  0  0  0  0  0  0  0  0  0  0
   -0.5936   -0.0652    0.2298 C   0  0  0  0  0  0  0  0  0  0  0  0
   -0.6870    1.3226   -0.3821 C   0  0  0  0  0  0  0  0  0  0  0  0
    0.7033    1.8589   -0.2460 C   0  0  0  0  0  0  0  0  0  0  0  0
    1.5080    0.9331    0.2512 C   0  0  0  0  0  0  0  0  0  0  0  0
    0.7309   -0.3087    0.4940 C   0  0  0  0  0  0  0  0  0  0  0  0
    1.4338   -1.5494    0.2010 C   0  0  0  0  0  0  0  0  0  0  0  0
    1.2517   -2.5490    0.8597 O   0  0  0  0  0  0  0  0  0  0  0  0
   -0.1752   -0.2084    1.5331 O   0  0  0  0  0  0  0  0  0  0  0  0
   -2.5602   -0.8048    0.4726 H   0  0  0  0  0  0  0  0  0  0  0  0
   -1.9859   -0.9361   -1.2222 H   0  0  0  0  0  0  0  0  0  0  0  0
   -1.3176   -2.0544   -0.0079 H   0  0  0  0  0  0  0  0  0  0  0  0
   -1.4363    1.9435    0.1112 H   0  0  0  0  0  0  0  0  0  0  0  0
   -0.9306    1.1700   -1.4544 H   0  0  0  0  0  0  0  0  0  0  0  0
    1.0355    2.8561   -0.5077 H   0  0  0  0  0  0  0  0  0  0  0  0
    2.5680    1.0146    0.4658 H   0  0  0  0  0  0  0  0  0  0  0  0
    2.1335   -1.5951   -0.6155 H   0  0  0  0  0  0  0  0  0  0  0  0
  1  2  1  0
  2  3  1  0
  3  4  1  0
  4  5  2  0
  5  6  1  0
  6  7  1  0
  7  8  2  0
  6  9  1  0
  6  2  1  0
  9  2  1  0
  1 10  1  0
  1 11  1  0
  1 12  1  0
  3 13  1  0
  3 14  1  0
  4 15  1  0
  5 16  1  0
  7 17  1  0
M  END
