
     RDKit          3D

 16 18  0  0  0  0  0  0  0  0999 V2000
   -1.3704   -0.7228   -0.5138 C   0  0  0  0  0  0  0  0  0  0  0  0
   -1.0606    0.2448    0.6424 C   0  0  0  0  0  0  0  0  0  0  0  0
    0.2208   -0.1781    1.3158 C   0  0  0  0  0  0  0  0  0  0  0  0
    0.7750    0.3302   -0.0228 C   0  0  0  0  0  0  0  0  0  0  0  0
    1.3099   -0.3126   -1.0444 C   0  0  0  0  0  0  0  0  0  0  0  0
    2.0929    0.6126   -0.1755 O   0  0  0  0  0  0  0  0  0  0  0  0
   -0.1612    1.4468    0.2180 C   0  0  0  0  0  0  0  0  0  0  0  0
   -1.4865    1.4560    0.3641 O   0  0  0  0  0  0  0  0  0  0  0  0
   -1.1142   -0.3070   -1.4837 H   0  0  0  0  0  0  0  0  0  0  0  0
   -2.4961   -0.8159   -0.4942 H   0  0  0  0  0  0  0  0  0  0  0  0
   -0.9474   -1.7085   -0.3739 H   0  0  0  0  0  0  0  0  0  0  0  0
    0.2927   -1.2549    1.4322 H   0  0  0  0  0  0  0  0  0  0  0  0
    0.5931    0.4675    2.1156 H   0  0  0  0  0  0  0  0  0  0  0  0
    1.7959   -1.3287   -0.9511 H   0  0  0  0  0  0  0  0  0  0  0  0
    1.2853    0.0076   -2.1022 H   0  0  0  0  0  0  0  0  0  0  0  0
    0.2710    2.0629    1.0735 H   0  0  0  0  0  0  0  0  0  0  0  0
  1  2  1  0
  2  3  1  0
  3  4  1  0
  4  5  1  0
  5  6  1  0
  4  7  1  0
  7  8  1  0
  7  2  1  0
  8  2  1  0
  6  4  1  0
  1  9  1  0
  1 10  1  0
  1 11  1  0
  3 12  1  0
  3 13  1  0
  5 14  1  0
  5 15  1  0
  7 16  1  0
M  END
