
     RDKit          3D

 19 20  0  0  0  0  0  0  0  0999 V2000
   -0.0152    1.6561   -0.9243 C   0  0  0  0  0  0  0  0  0  0  0  0
   -0.1716    0.5582    0.0658 C   0  0  0  0  0  0  0  0  0  0  0  0
   -1.6069    0.1884    0.4251 C   0  0  0  0  0  0  0  0  0  0  0  0
   -1.2991   -1.2819    0.2026 C   0  0  0  0  0  0  0  0  0  0  0  0
   -0.0211   -0.8546   -0.4716 C   0  0  0  0  0  0  0  0  0  0  0  0
    1.2315   -1.2654    0.1829 C   0  0  0  0  0  0  0  0  0  0  0  0
    1.6886   -2.3678    0.2581 O   0  0  0  0  0  0  0  0  0  0  0  0
    1.8228   -0.0328    0.7370 C   0  0  0  0  0  0  0  0  0  0  0  0
    0.6770    0.6212    1.1893 O   0  0  0  0  0  0  0  0  0  0  0  0
   -1.0197    1.8876   -1.3843 H   0  0  0  0  0  0  0  0  0  0  0  0
    0.7255    1.4464   -1.7220 H   0  0  0  0  0  0  0  0  0  0  0  0
    0.3463    2.5643   -0.3705 H   0  0  0  0  0  0  0  0  0  0  0  0
   -1.7749    0.4653    1.4944 H   0  0  0  0  0  0  0  0  0  0  0  0
   -2.3324    0.5983   -0.2926 H   0  0  0  0  0  0  0  0  0  0  0  0
   -1.0558   -1.8549    1.1184 H   0  0  0  0  0  0  0  0  0  0  0  0
   -2.0317   -1.8087   -0.4465 H   0  0  0  0  0  0  0  0  0  0  0  0
   -0.0333   -0.8808   -1.5801 H   0  0  0  0  0  0  0  0  0  0  0  0
    2.3250    0.5834   -0.0335 H   0  0  0  0  0  0  0  0  0  0  0  0
    2.5451   -0.2221    1.5518 H   0  0  0  0  0  0  0  0  0  0  0  0
  1  2  1  0
  2  3  1  0
  3  4  1  0
  4  5  1  0
  5  6  1  0
  6  7  2  0
  6  8  1  0
  8  9  1  0
  5  2  1  0
  9  2  1  0
  1 10  1  0
  1 11  1  0
  1 12  1  0
  3 13  1  0
  3 14  1  0
  4 15  1  0
  4 16  1  0
  5 17  1  0
  8 18  1  0
  8 19  1  0
M  END
