
     RDKit          3D

 19 21  0  0  0  0  0  0  0  0999 V2000
    2.0867    0.0251    0.7458 C   0  0  0  0  0  0  0  0  0  0  0  0
    0.7023    0.0292    0.1977 C   0  0  0  0  0  0  0  0  0  0  0  0
   -0.1252   -1.1983    0.1032 C   0  0  0  0  0  0  0  0  0  0  0  0
   -1.5945   -0.9988    0.3213 C   0  0  0  0  0  0  0  0  0  0  0  0
   -2.0508    0.3926    0.1837 C   0  0  0  0  0  0  0  0  0  0  0  0
   -1.2530    1.3729   -0.2149 C   0  0  0  0  0  0  0  0  0  0  0  0
    0.1538    1.1762   -0.5572 C   0  0  0  0  0  0  0  0  0  0  0  0
    0.6502    0.0373   -1.3499 C   0  0  0  0  0  0  0  0  0  0  0  0
    0.1266   -1.2254   -1.2777 O   0  0  0  0  0  0  0  0  0  0  0  0
    2.6108    0.9357    0.3380 H   0  0  0  0  0  0  0  0  0  0  0  0
    2.1252    0.1050    1.8297 H   0  0  0  0  0  0  0  0  0  0  0  0
    2.7053   -0.8355    0.3932 H   0  0  0  0  0  0  0  0  0  0  0  0
    0.3131   -2.0575    0.6595 H   0  0  0  0  0  0  0  0  0  0  0  0
   -1.8495   -1.3405    1.3442 H   0  0  0  0  0  0  0  0  0  0  0  0
   -2.2123   -1.6166   -0.3922 H   0  0  0  0  0  0  0  0  0  0  0  0
   -3.0826    0.6067    0.4218 H   0  0  0  0  0  0  0  0  0  0  0  0
   -1.6935    2.3758   -0.2840 H   0  0  0  0  0  0  0  0  0  0  0  0
    0.7961    2.0819   -0.5677 H   0  0  0  0  0  0  0  0  0  0  0  0
    1.5912    0.1342   -1.8944 H   0  0  0  0  0  0  0  0  0  0  0  0
  1  2  1  0
  2  3  1  0
  3  4  1  0
  4  5  1  0
  5  6  2  0
  6  7  1  0
  7  8  1  0
  8  9  1  0
  7  2  1  0
  8  2  1  0
  9  3  1  0
  1 10  1  0
  1 11  1  0
  1 12  1  0
  3 13  1  0
  4 14  1  0
  4 15  1  0
  5 16  1  0
  6 17  1  0
  7 18  1  0
  8 19  1  0
M  END
