
     RDKit          3D

 15 17  0  0  0  0  0  0  0  0999 V2000
    1.8832   -0.7408    0.2799 C   0  0  0  0  0  0  0  0  0  0  0  0
    0.4630   -0.3607    0.1995 C   0  0  0  0  0  0  0  0  0  0  0  0
   -0.5584   -1.3155    0.5183 O   0  0  0  0  0  0  0  0  0  0  0  0
   -1.7856   -0.7727    0.1815 C   0  0  0  0  0  0  0  0  0  0  0  0
   -2.8867   -1.3289    0.3700 O   0  0  0  0  0  0  0  0  0  0  0  0
   -1.5875    0.5603   -0.4324 C   0  0  0  0  0  0  0  0  0  0  0  0
   -1.2201    1.4752    0.5612 O   0  0  0  0  0  0  0  0  0  0  0  0
    0.1094    1.0716    0.5179 C   0  0  0  0  0  0  0  0  0  0  0  0
   -0.1442    0.4853   -0.8125 C   0  0  0  0  0  0  0  0  0  0  0  0
    1.9667   -1.8544    0.1163 H   0  0  0  0  0  0  0  0  0  0  0  0
    2.3446   -0.5542    1.2727 H   0  0  0  0  0  0  0  0  0  0  0  0
    2.5295   -0.2676   -0.4824 H   0  0  0  0  0  0  0  0  0  0  0  0
   -2.3063    0.8912   -1.1672 H   0  0  0  0  0  0  0  0  0  0  0  0
    0.9112    1.8197    0.5795 H   0  0  0  0  0  0  0  0  0  0  0  0
    0.2812    0.8913   -1.7023 H   0  0  0  0  0  0  0  0  0  0  0  0
  1  2  1  0
  2  3  1  0
  3  4  1  0
  4  5  2  0
  4  6  1  0
  6  7  1  0
  7  8  1  0
  8  9  1  0
  8  2  1  0
  9  2  1  0
  9  6  1  0
  1 10  1  0
  1 11  1  0
  1 12  1  0
  6 13  1  0
  8 14  1  0
  9 15  1  0
M  END
