
     RDKit          3D

 21 23  0  0  0  0  0  0  0  0999 V2000
   -0.9410    1.8876   -0.2580 C   0  0  0  0  0  0  0  0  0  0  0  0
   -0.2681    0.6244   -0.0352 C   0  0  0  0  0  0  0  0  0  0  0  0
   -0.7728   -0.2604    1.1199 C   0  0  0  0  0  0  0  0  0  0  0  0
   -0.1075   -1.3587    0.2753 C   0  0  0  0  0  0  0  0  0  0  0  0
    1.3295   -0.9872    0.4443 C   0  0  0  0  0  0  0  0  0  0  0  0
    2.1068   -0.2945   -0.5952 C   0  0  0  0  0  0  0  0  0  0  0  0
    1.2043    0.5591    0.1828 C   0  0  0  0  0  0  0  0  0  0  0  0
   -0.6350   -0.5657   -0.9189 C   0  0  0  0  0  0  0  0  0  0  0  0
   -2.0083   -0.7153   -1.0019 O   0  0  0  0  0  0  0  0  0  0  0  0
   -0.2571    2.6959   -0.5834 H   0  0  0  0  0  0  0  0  0  0  0  0
   -1.8276    1.8078   -0.9385 H   0  0  0  0  0  0  0  0  0  0  0  0
   -1.3799    2.2510    0.7180 H   0  0  0  0  0  0  0  0  0  0  0  0
   -0.2374   -0.0400    2.0428 H   0  0  0  0  0  0  0  0  0  0  0  0
   -1.8562   -0.2727    1.1186 H   0  0  0  0  0  0  0  0  0  0  0  0
   -0.4430   -2.3528    0.4104 H   0  0  0  0  0  0  0  0  0  0  0  0
    1.7639   -1.2569    1.4169 H   0  0  0  0  0  0  0  0  0  0  0  0
    1.9479   -0.5852   -1.6395 H   0  0  0  0  0  0  0  0  0  0  0  0
    3.1946   -0.1692   -0.3546 H   0  0  0  0  0  0  0  0  0  0  0  0
    1.5974    1.2114    0.9641 H   0  0  0  0  0  0  0  0  0  0  0  0
   -0.0770   -0.6653   -1.8442 H   0  0  0  0  0  0  0  0  0  0  0  0
   -2.3333   -1.5133   -0.5299 H   0  0  0  0  0  0  0  0  0  0  0  0
  1  2  1  0
  2  3  1  0
  3  4  1  0
  4  5  1  0
  5  6  1  0
  6  7  1  0
  4  8  1  0
  8  9  1  0
  7  2  1  0
  8  2  1  0
  7  5  1  0
  1 10  1  0
  1 11  1  0
  1 12  1  0
  3 13  1  0
  3 14  1  0
  4 15  1  0
  5 16  1  0
  6 17  1  0
  6 18  1  0
  7 19  1  0
  8 20  1  0
  9 21  1  0
M  END
