
     RDKit          3D

 19 21  0  0  0  0  0  0  0  0999 V2000
    2.1966   -0.2476   -0.3031 C   0  0  0  0  0  0  0  0  0  0  0  0
    0.9173   -0.2382    0.4491 C   0  0  0  0  0  0  0  0  0  0  0  0
    0.6091   -1.2118    1.3823 O   0  0  0  0  0  0  0  0  0  0  0  0
    0.0167   -1.4098    0.1701 C   0  0  0  0  0  0  0  0  0  0  0  0
   -1.2891   -0.8488   -0.2176 C   0  0  0  0  0  0  0  0  0  0  0  0
   -2.1992   -0.1239    0.6549 C   0  0  0  0  0  0  0  0  0  0  0  0
   -1.1726    0.6306   -0.2020 C   0  0  0  0  0  0  0  0  0  0  0  0
    0.0680    0.9878    0.5399 C   0  0  0  0  0  0  0  0  0  0  0  0
    0.6877    2.1411    0.0999 O   0  0  0  0  0  0  0  0  0  0  0  0
    2.4594    0.8010   -0.6076 H   0  0  0  0  0  0  0  0  0  0  0  0
    2.1225   -0.8023   -1.2834 H   0  0  0  0  0  0  0  0  0  0  0  0
    3.0616   -0.6532    0.2288 H   0  0  0  0  0  0  0  0  0  0  0  0
    0.4296   -2.2722   -0.4077 H   0  0  0  0  0  0  0  0  0  0  0  0
   -1.7265   -1.2798   -1.1542 H   0  0  0  0  0  0  0  0  0  0  0  0
   -2.0856   -0.0635    1.7622 H   0  0  0  0  0  0  0  0  0  0  0  0
   -3.2278    0.0428    0.3217 H   0  0  0  0  0  0  0  0  0  0  0  0
   -1.5191    1.1968   -1.0685 H   0  0  0  0  0  0  0  0  0  0  0  0
   -0.2054    1.1746    1.6202 H   0  0  0  0  0  0  0  0  0  0  0  0
    0.8570    2.1763   -0.8554 H   0  0  0  0  0  0  0  0  0  0  0  0
  1  2  1  0
  2  3  1  0
  3  4  1  0
  4  5  1  0
  5  6  1  0
  6  7  1  0
  7  8  1  0
  8  9  1  0
  4  2  1  0
  7  5  1  0
  8  2  1  0
  1 10  1  0
  1 11  1  0
  1 12  1  0
  4 13  1  0
  5 14  1  0
  6 15  1  0
  6 16  1  0
  7 17  1  0
  8 18  1  0
  9 19  1  0
M  END
