
     RDKit          3D

 19 21  0  0  0  0  0  0  0  0999 V2000
   -1.0861   -1.2320   -0.6244 C   0  0  0  0  0  0  0  0  0  0  0  0
   -0.3277   -0.2441    0.0631 C   0  0  0  0  0  0  0  0  0  0  0  0
    0.7087    0.6693   -0.6314 C   0  0  0  0  0  0  0  0  0  0  0  0
    1.8415    0.0609   -0.4084 C   0  0  0  0  0  0  0  0  0  0  0  0
    1.3871   -1.1170    0.4573 C   0  0  0  0  0  0  0  0  0  0  0  0
    0.3292   -0.2979    1.3277 C   0  0  0  0  0  0  0  0  0  0  0  0
   -0.7277    0.6245    1.0476 C   0  0  0  0  0  0  0  0  0  0  0  0
   -1.0959    1.7448    0.0846 C   0  0  0  0  0  0  0  0  0  0  0  0
   -0.1947    1.7550   -0.9699 C   0  0  0  0  0  0  0  0  0  0  0  0
   -1.2472   -2.1369    0.0034 H   0  0  0  0  0  0  0  0  0  0  0  0
   -0.7400   -1.5783   -1.6217 H   0  0  0  0  0  0  0  0  0  0  0  0
   -2.1377   -0.8579   -0.8230 H   0  0  0  0  0  0  0  0  0  0  0  0
    2.7614    0.3851   -0.7788 H   0  0  0  0  0  0  0  0  0  0  0  0
    2.2316   -1.3919    1.0439 H   0  0  0  0  0  0  0  0  0  0  0  0
    0.9696   -1.9038   -0.0916 H   0  0  0  0  0  0  0  0  0  0  0  0
    0.9910    0.3358    1.8964 H   0  0  0  0  0  0  0  0  0  0  0  0
   -1.6613    0.3904    1.6810 H   0  0  0  0  0  0  0  0  0  0  0  0
   -1.9083    2.4412    0.1634 H   0  0  0  0  0  0  0  0  0  0  0  0
   -0.0936    2.3527   -1.8190 H   0  0  0  0  0  0  0  0  0  0  0  0
  1  2  1  0
  2  3  1  0
  3  4  2  0
  4  5  1  0
  5  6  1  0
  6  7  1  0
  7  8  1  0
  8  9  2  0
  6  2  1  0
  7  2  1  0
  9  3  1  0
  1 10  1  0
  1 11  1  0
  1 12  1  0
  4 13  1  0
  5 14  1  0
  5 15  1  0
  6 16  1  0
  7 17  1  0
  8 18  1  0
  9 19  1  0
M  END
