
     RDKit          3D

 21 22  0  0  0  0  0  0  0  0999 V2000
   -2.2511   -0.4480    0.7000 C   0  0  0  0  0  0  0  0  0  0  0  0
   -1.0124   -0.0200    0.1010 C   0  0  0  0  0  0  0  0  0  0  0  0
   -0.6309    1.4014    0.2212 C   0  0  0  0  0  0  0  0  0  0  0  0
    0.6724    1.4871   -0.0260 C   0  0  0  0  0  0  0  0  0  0  0  0
    1.1599    0.0992   -0.3010 C   0  0  0  0  0  0  0  0  0  0  0  0
    2.5842   -0.1241   -0.1172 C   0  0  0  0  0  0  0  0  0  0  0  0
    0.2625   -0.6608    0.6943 C   0  0  0  0  0  0  0  0  0  0  0  0
    0.6195   -0.3249   -1.5051 O   0  0  0  0  0  0  0  0  0  0  0  0
   -0.7702   -0.4049   -1.3441 C   0  0  0  0  0  0  0  0  0  0  0  0
   -2.6527    0.3262    1.3915 H   0  0  0  0  0  0  0  0  0  0  0  0
   -2.1177   -1.4086    1.2757 H   0  0  0  0  0  0  0  0  0  0  0  0
   -3.0476   -0.6636   -0.0373 H   0  0  0  0  0  0  0  0  0  0  0  0
   -1.3113    2.2005    0.4666 H   0  0  0  0  0  0  0  0  0  0  0  0
    1.2137    2.4253   -0.0127 H   0  0  0  0  0  0  0  0  0  0  0  0
    3.1516    0.7602   -0.5130 H   0  0  0  0  0  0  0  0  0  0  0  0
    2.9278   -0.9893   -0.6931 H   0  0  0  0  0  0  0  0  0  0  0  0
    2.8253   -0.3193    0.9440 H   0  0  0  0  0  0  0  0  0  0  0  0
    0.2944   -1.7341    0.5103 H   0  0  0  0  0  0  0  0  0  0  0  0
    0.4370   -0.3408    1.7176 H   0  0  0  0  0  0  0  0  0  0  0  0
   -1.0410   -1.4906   -1.4260 H   0  0  0  0  0  0  0  0  0  0  0  0
   -1.3132    0.2292   -2.0466 H   0  0  0  0  0  0  0  0  0  0  0  0
  1  2  1  0
  2  3  1  0
  3  4  2  0
  4  5  1  0
  5  6  1  0
  5  7  1  0
  5  8  1  0
  8  9  1  0
  7  2  1  0
  9  2  1  0
  1 10  1  0
  1 11  1  0
  1 12  1  0
  3 13  1  0
  4 14  1  0
  6 15  1  0
  6 16  1  0
  6 17  1  0
  7 18  1  0
  7 19  1  0
  9 20  1  0
  9 21  1  0
M  END
