
     RDKit          3D

 19 22  0  0  0  0  0  0  0  0999 V2000
    2.1745    0.6143    0.2647 C   0  0  0  0  0  0  0  0  0  0  0  0
    0.7857    0.2346    0.1841 C   0  0  0  0  0  0  0  0  0  0  0  0
   -0.1521    0.0047    1.3421 C   0  0  0  0  0  0  0  0  0  0  0  0
   -1.2816    0.9982    1.1876 C   0  0  0  0  0  0  0  0  0  0  0  0
   -1.9602    0.7167    0.0817 C   0  0  0  0  0  0  0  0  0  0  0  0
   -1.3937   -0.4436   -0.6027 C   0  0  0  0  0  0  0  0  0  0  0  0
   -0.6993   -1.1482    0.5579 C   0  0  0  0  0  0  0  0  0  0  0  0
    0.5020   -1.2016   -0.2508 C   0  0  0  0  0  0  0  0  0  0  0  0
    0.0296   -0.1277   -1.0776 C   0  0  0  0  0  0  0  0  0  0  0  0
    2.3018    1.7342    0.3199 H   0  0  0  0  0  0  0  0  0  0  0  0
    2.6959    0.1235    1.1246 H   0  0  0  0  0  0  0  0  0  0  0  0
    2.7252    0.2771   -0.6407 H   0  0  0  0  0  0  0  0  0  0  0  0
    0.2420   -0.1448    2.3209 H   0  0  0  0  0  0  0  0  0  0  0  0
   -1.5041    1.8178    1.8767 H   0  0  0  0  0  0  0  0  0  0  0  0
   -2.8158    1.2857   -0.2483 H   0  0  0  0  0  0  0  0  0  0  0  0
   -1.9934   -1.0445   -1.2466 H   0  0  0  0  0  0  0  0  0  0  0  0
   -1.1702   -1.9616    1.0237 H   0  0  0  0  0  0  0  0  0  0  0  0
    1.2449   -1.9285   -0.3669 H   0  0  0  0  0  0  0  0  0  0  0  0
    0.2690    0.1937   -2.0454 H   0  0  0  0  0  0  0  0  0  0  0  0
  1  2  1  0
  2  3  1  0
  3  4  1  0
  4  5  2  0
  5  6  1  0
  6  7  1  0
  7  8  1  0
  8  9  1  0
  8  2  1  0
  9  2  1  0
  7  3  1  0
  9  6  1  0
  1 10  1  0
  1 11  1  0
  1 12  1  0
  3 13  1  0
  4 14  1  0
  5 15  1  0
  6 16  1  0
  7 17  1  0
  8 18  1  0
  9 19  1  0
M  END
