
     RDKit          3D

 21 23  0  0  0  0  0  0  0  0999 V2000
   -1.5533   -1.2740    0.6075 C   0  0  0  0  0  0  0  0  0  0  0  0
   -0.6103   -0.3651   -0.1592 C   0  0  0  0  0  0  0  0  0  0  0  0
   -0.9250   -0.3692   -1.5028 O   0  0  0  0  0  0  0  0  0  0  0  0
   -2.0678    0.3496   -1.0655 C   0  0  0  0  0  0  0  0  0  0  0  0
   -1.0296    1.1457   -0.3091 C   0  0  0  0  0  0  0  0  0  0  0  0
   -0.0570    0.6634    0.6452 C   0  0  0  0  0  0  0  0  0  0  0  0
    1.4501    0.8697    0.5299 C   0  0  0  0  0  0  0  0  0  0  0  0
    2.3573   -0.2893    0.8837 C   0  0  0  0  0  0  0  0  0  0  0  0
    2.1486    0.0940   -0.5644 C   0  0  0  0  0  0  0  0  0  0  0  0
   -2.1873   -0.7203    1.3340 H   0  0  0  0  0  0  0  0  0  0  0  0
   -0.8698   -1.8885    1.2720 H   0  0  0  0  0  0  0  0  0  0  0  0
   -2.0774   -2.0055   -0.0049 H   0  0  0  0  0  0  0  0  0  0  0  0
   -2.8189   -0.1863   -0.5204 H   0  0  0  0  0  0  0  0  0  0  0  0
   -2.5075    0.8398   -1.9394 H   0  0  0  0  0  0  0  0  0  0  0  0
   -0.4658    1.7243   -1.1107 H   0  0  0  0  0  0  0  0  0  0  0  0
   -0.3615    0.8275    1.7231 H   0  0  0  0  0  0  0  0  0  0  0  0
    1.8590    1.8691    0.7929 H   0  0  0  0  0  0  0  0  0  0  0  0
    1.8829   -1.2673    1.1698 H   0  0  0  0  0  0  0  0  0  0  0  0
    3.3335   -0.0846    1.3260 H   0  0  0  0  0  0  0  0  0  0  0  0
    1.5699   -0.5961   -1.2040 H   0  0  0  0  0  0  0  0  0  0  0  0
    2.9297    0.6631   -1.1001 H   0  0  0  0  0  0  0  0  0  0  0  0
  1  2  1  0
  2  3  1  0
  3  4  1  0
  4  5  1  0
  5  6  1  0
  6  7  1  0
  7  8  1  0
  8  9  1  0
  5  2  1  0
  9  7  1  0
  6  2  1  0
  1 10  1  0
  1 11  1  0
  1 12  1  0
  4 13  1  0
  4 14  1  0
  5 15  1  0
  6 16  1  0
  7 17  1  0
  8 18  1  0
  8 19  1  0
  9 20  1  0
  9 21  1  0
M  END
