
     RDKit          3D

 19 21  0  0  0  0  0  0  0  0999 V2000
    2.1320    0.4628    0.1492 C   0  0  0  0  0  0  0  0  0  0  0  0
    0.8629    0.2189   -0.5770 C   0  0  0  0  0  0  0  0  0  0  0  0
    0.3057    1.1101   -1.4421 O   0  0  0  0  0  0  0  0  0  0  0  0
   -0.4093    0.6840   -0.3385 C   0  0  0  0  0  0  0  0  0  0  0  0
   -0.9300    1.7493    0.5463 C   0  0  0  0  0  0  0  0  0  0  0  0
   -0.9793   -0.7036   -0.2828 C   0  0  0  0  0  0  0  0  0  0  0  0
   -2.1383   -1.0185   -0.9346 O   0  0  0  0  0  0  0  0  0  0  0  0
   -0.2592   -1.7980    0.4366 C   0  0  0  0  0  0  0  0  0  0  0  0
    0.3541   -1.2169   -0.7546 C   0  0  0  0  0  0  0  0  0  0  0  0
    2.6309   -0.5317    0.3302 H   0  0  0  0  0  0  0  0  0  0  0  0
    1.9748    0.8787    1.1876 H   0  0  0  0  0  0  0  0  0  0  0  0
    2.8604    1.0927   -0.3825 H   0  0  0  0  0  0  0  0  0  0  0  0
   -0.2272    2.5424    0.8039 H   0  0  0  0  0  0  0  0  0  0  0  0
   -1.8126    2.2238    0.0255 H   0  0  0  0  0  0  0  0  0  0  0  0
   -1.3909    1.2723    1.4597 H   0  0  0  0  0  0  0  0  0  0  0  0
   -2.8847   -0.9462   -0.2569 H   0  0  0  0  0  0  0  0  0  0  0  0
   -0.7072   -2.7894    0.3695 H   0  0  0  0  0  0  0  0  0  0  0  0
    0.2686   -1.5739    1.4089 H   0  0  0  0  0  0  0  0  0  0  0  0
    0.3493   -1.6567   -1.7484 H   0  0  0  0  0  0  0  0  0  0  0  0
  1  2  1  0
  2  3  1  0
  3  4  1  0
  4  5  1  0
  4  6  1  0
  6  7  1  0
  6  8  1  0
  8  9  1  0
  4  2  1  0
  9  6  1  0
  9  2  1  0
  1 10  1  0
  1 11  1  0
  1 12  1  0
  5 13  1  0
  5 14  1  0
  5 15  1  0
  7 16  1  0
  8 17  1  0
  8 18  1  0
  9 19  1  0
M  END
