
     RDKit          3D

 21 22  0  0  0  0  0  0  0  0999 V2000
    1.8404   -0.7249   -0.6868 C   0  0  0  0  0  0  0  0  0  0  0  0
    0.6216   -0.8954    0.1762 C   0  0  0  0  0  0  0  0  0  0  0  0
    0.4903    0.1086    1.2366 C   0  0  0  0  0  0  0  0  0  0  0  0
    0.3015    1.4605    0.5778 C   0  0  0  0  0  0  0  0  0  0  0  0
   -0.6160    1.5197   -0.4221 O   0  0  0  0  0  0  0  0  0  0  0  0
   -0.6215    0.4323   -1.3069 C   0  0  0  0  0  0  0  0  0  0  0  0
   -0.7771   -0.7727   -0.4811 C   0  0  0  0  0  0  0  0  0  0  0  0
   -1.9646   -0.5667    0.4802 C   0  0  0  0  0  0  0  0  0  0  0  0
   -0.1331   -1.8760   -0.2684 O   0  0  0  0  0  0  0  0  0  0  0  0
    1.6679   -0.8777   -1.7584 H   0  0  0  0  0  0  0  0  0  0  0  0
    2.4264    0.1879   -0.4794 H   0  0  0  0  0  0  0  0  0  0  0  0
    2.5359   -1.5698   -0.3882 H   0  0  0  0  0  0  0  0  0  0  0  0
   -0.2739   -0.0958    2.0068 H   0  0  0  0  0  0  0  0  0  0  0  0
    1.4643    0.1792    1.7930 H   0  0  0  0  0  0  0  0  0  0  0  0
    0.0242    2.2183    1.3401 H   0  0  0  0  0  0  0  0  0  0  0  0
    1.2982    1.7576    0.1342 H   0  0  0  0  0  0  0  0  0  0  0  0
   -1.5903    0.5495   -1.8840 H   0  0  0  0  0  0  0  0  0  0  0  0
    0.1680    0.4661   -2.0369 H   0  0  0  0  0  0  0  0  0  0  0  0
   -2.8627   -0.6637   -0.1646 H   0  0  0  0  0  0  0  0  0  0  0  0
   -1.9817    0.4760    0.8677 H   0  0  0  0  0  0  0  0  0  0  0  0
   -2.0181   -1.3132    1.2643 H   0  0  0  0  0  0  0  0  0  0  0  0
  1  2  1  0
  2  3  1  0
  3  4  1  0
  4  5  1  0
  5  6  1  0
  6  7  1  0
  7  8  1  0
  7  9  1  0
  7  2  1  0
  9  2  1  0
  1 10  1  0
  1 11  1  0
  1 12  1  0
  3 13  1  0
  3 14  1  0
  4 15  1  0
  4 16  1  0
  6 17  1  0
  6 18  1  0
  8 19  1  0
  8 20  1  0
  8 21  1  0
M  END
