
     RDKit          3D

 19 21  0  0  0  0  0  0  0  0999 V2000
   -1.2682   -1.3205   -0.1447 C   0  0  0  0  0  0  0  0  0  0  0  0
   -0.5553    0.0218    0.1332 C   0  0  0  0  0  0  0  0  0  0  0  0
   -1.2469    1.1571   -0.2055 C   0  0  0  0  0  0  0  0  0  0  0  0
   -1.1705    2.2963    0.6326 O   0  0  0  0  0  0  0  0  0  0  0  0
   -0.1266    0.7153   -1.0549 C   0  0  0  0  0  0  0  0  0  0  0  0
    1.0604   -0.2011   -0.7772 C   0  0  0  0  0  0  0  0  0  0  0  0
    2.0555    0.3336    0.1618 C   0  0  0  0  0  0  0  0  0  0  0  0
    0.7931   -0.1613    0.7198 C   0  0  0  0  0  0  0  0  0  0  0  0
    0.9642   -1.3109    1.4906 O   0  0  0  0  0  0  0  0  0  0  0  0
   -1.1611   -1.8910    0.8039 H   0  0  0  0  0  0  0  0  0  0  0  0
   -0.7486   -1.8883   -0.9198 H   0  0  0  0  0  0  0  0  0  0  0  0
   -2.3244   -1.1767   -0.3647 H   0  0  0  0  0  0  0  0  0  0  0  0
   -2.2460    1.1170   -0.6929 H   0  0  0  0  0  0  0  0  0  0  0  0
   -1.0814    1.9971    1.5534 H   0  0  0  0  0  0  0  0  0  0  0  0
    0.3160    1.6250   -1.3958 H   0  0  0  0  0  0  0  0  0  0  0  0
    1.1601   -1.1486   -1.2888 H   0  0  0  0  0  0  0  0  0  0  0  0
    3.0027   -0.2430    0.2193 H   0  0  0  0  0  0  0  0  0  0  0  0
    2.2622    1.4424    0.1713 H   0  0  0  0  0  0  0  0  0  0  0  0
    0.3149   -1.3645    2.2237 H   0  0  0  0  0  0  0  0  0  0  0  0
  1  2  1  0
  2  3  1  0
  3  4  1  0
  3  5  1  0
  5  6  1  0
  6  7  1  0
  7  8  1  0
  8  9  1  0
  5  2  1  0
  8  6  1  0
  8  2  1  0
  1 10  1  0
  1 11  1  0
  1 12  1  0
  3 13  1  0
  4 14  1  0
  5 15  1  0
  6 16  1  0
  7 17  1  0
  7 18  1  0
  9 19  1  0
M  END
