
     RDKit          3D

 19 21  0  0  0  0  0  0  0  0999 V2000
   -1.0523    1.3287    0.0462 C   0  0  0  0  0  0  0  0  0  0  0  0
   -0.9294   -0.0033    0.4807 C   0  0  0  0  0  0  0  0  0  0  0  0
   -2.3045   -0.7072    0.2961 C   0  0  0  0  0  0  0  0  0  0  0  0
   -1.1402   -1.3909    0.4072 C   0  0  0  0  0  0  0  0  0  0  0  0
   -0.2683   -1.5007   -0.7009 O   0  0  0  0  0  0  0  0  0  0  0  0
    0.4057   -0.6072    0.1613 C   0  0  0  0  0  0  0  0  0  0  0  0
    1.3790    0.1926   -0.6027 C   0  0  0  0  0  0  0  0  0  0  0  0
    2.8022    0.1386   -0.0833 C   0  0  0  0  0  0  0  0  0  0  0  0
    2.3921   -0.4453   -1.2786 O   0  0  0  0  0  0  0  0  0  0  0  0
   -0.2411    1.9657    0.5182 H   0  0  0  0  0  0  0  0  0  0  0  0
   -1.9878    1.9135    0.2971 H   0  0  0  0  0  0  0  0  0  0  0  0
   -0.9323    1.5454   -1.0566 H   0  0  0  0  0  0  0  0  0  0  0  0
   -2.9962   -0.3826    1.1080 H   0  0  0  0  0  0  0  0  0  0  0  0
   -2.7976   -0.5619   -0.7107 H   0  0  0  0  0  0  0  0  0  0  0  0
   -0.7878   -2.0118    1.2803 H   0  0  0  0  0  0  0  0  0  0  0  0
    0.8539   -1.2060    0.9691 H   0  0  0  0  0  0  0  0  0  0  0  0
    1.0969    1.2430   -0.9065 H   0  0  0  0  0  0  0  0  0  0  0  0
    3.4723    0.9969   -0.2148 H   0  0  0  0  0  0  0  0  0  0  0  0
    3.0352   -0.5074    0.7864 H   0  0  0  0  0  0  0  0  0  0  0  0
  1  2  1  0
  2  3  1  0
  3  4  1  0
  4  5  1  0
  5  6  1  0
  6  7  1  0
  7  8  1  0
  8  9  1  0
  4  2  1  0
  9  7  1  0
  6  2  1  0
  1 10  1  0
  1 11  1  0
  1 12  1  0
  3 13  1  0
  3 14  1  0
  4 15  1  0
  6 16  1  0
  7 17  1  0
  8 18  1  0
  8 19  1  0
M  END
