
     RDKit          3D

 21 22  0  0  0  0  0  0  0  0999 V2000
    2.3075   -0.5217    0.0967 C   0  0  0  0  0  0  0  0  0  0  0  0
    0.8256   -0.2613    0.0536 C   0  0  0  0  0  0  0  0  0  0  0  0
    0.0506   -1.4214    0.5622 C   0  0  0  0  0  0  0  0  0  0  0  0
   -1.1996   -1.5623    0.1576 C   0  0  0  0  0  0  0  0  0  0  0  0
   -1.8657   -0.3492   -0.3962 C   0  0  0  0  0  0  0  0  0  0  0  0
   -0.8652    0.5272   -1.0972 C   0  0  0  0  0  0  0  0  0  0  0  0
   -0.4658    1.7098   -0.2089 C   0  0  0  0  0  0  0  0  0  0  0  0
    0.4460    1.0106    0.7773 C   0  0  0  0  0  0  0  0  0  0  0  0
    0.3795   -0.0736   -1.2770 O   0  0  0  0  0  0  0  0  0  0  0  0
    2.6413   -0.3311    1.1454 H   0  0  0  0  0  0  0  0  0  0  0  0
    2.4559   -1.6060   -0.1097 H   0  0  0  0  0  0  0  0  0  0  0  0
    2.8768    0.0593   -0.6381 H   0  0  0  0  0  0  0  0  0  0  0  0
    0.4648   -2.1448    1.2411 H   0  0  0  0  0  0  0  0  0  0  0  0
   -1.7342   -2.5274    0.2221 H   0  0  0  0  0  0  0  0  0  0  0  0
   -2.7172   -0.6363   -1.0446 H   0  0  0  0  0  0  0  0  0  0  0  0
   -2.2854    0.1956    0.4940 H   0  0  0  0  0  0  0  0  0  0  0  0
   -1.2464    0.9007   -2.0740 H   0  0  0  0  0  0  0  0  0  0  0  0
   -1.3323    2.1764    0.2685 H   0  0  0  0  0  0  0  0  0  0  0  0
    0.1169    2.4059   -0.8572 H   0  0  0  0  0  0  0  0  0  0  0  0
   -0.1518    0.7834    1.7064 H   0  0  0  0  0  0  0  0  0  0  0  0
    1.2988    1.6661    0.9780 H   0  0  0  0  0  0  0  0  0  0  0  0
  1  2  1  0
  2  3  1  0
  3  4  2  0
  4  5  1  0
  5  6  1  0
  6  7  1  0
  7  8  1  0
  6  9  1  0
  8  2  1  0
  9  2  1  0
  1 10  1  0
  1 11  1  0
  1 12  1  0
  3 13  1  0
  4 14  1  0
  5 15  1  0
  5 16  1  0
  6 17  1  0
  7 18  1  0
  7 19  1  0
  8 20  1  0
  8 21  1  0
M  END
