
     RDKit          3D

 19 21  0  0  0  0  0  0  0  0999 V2000
   -1.9345   -1.1249    0.6546 C   0  0  0  0  0  0  0  0  0  0  0  0
   -1.0426   -0.1914   -0.1641 C   0  0  0  0  0  0  0  0  0  0  0  0
   -1.6109    1.1191   -0.4413 C   0  0  0  0  0  0  0  0  0  0  0  0
   -0.5263    1.0866    0.5816 C   0  0  0  0  0  0  0  0  0  0  0  0
    0.8120    0.9179   -0.0439 C   0  0  0  0  0  0  0  0  0  0  0  0
    1.9529    0.7382    0.6642 O   0  0  0  0  0  0  0  0  0  0  0  0
    2.6333   -0.1213   -0.2735 C   0  0  0  0  0  0  0  0  0  0  0  0
    1.5244   -1.1304   -0.5060 C   0  0  0  0  0  0  0  0  0  0  0  0
    0.3734   -0.5249   -0.3042 C   0  0  0  0  0  0  0  0  0  0  0  0
   -2.5102   -1.7094   -0.0751 H   0  0  0  0  0  0  0  0  0  0  0  0
   -1.3206   -1.7616    1.3423 H   0  0  0  0  0  0  0  0  0  0  0  0
   -2.6191   -0.5242    1.2541 H   0  0  0  0  0  0  0  0  0  0  0  0
   -2.6500    1.3270   -0.1213 H   0  0  0  0  0  0  0  0  0  0  0  0
   -1.3705    1.7072   -1.3757 H   0  0  0  0  0  0  0  0  0  0  0  0
   -0.6964    1.0337    1.6500 H   0  0  0  0  0  0  0  0  0  0  0  0
    0.9371    1.4666   -1.0253 H   0  0  0  0  0  0  0  0  0  0  0  0
    2.7757    0.3899   -1.2312 H   0  0  0  0  0  0  0  0  0  0  0  0
    3.5095   -0.5486    0.2022 H   0  0  0  0  0  0  0  0  0  0  0  0
    1.7629   -2.1496   -0.7874 H   0  0  0  0  0  0  0  0  0  0  0  0
  1  2  1  0
  2  3  1  0
  3  4  1  0
  4  5  1  0
  5  6  1  0
  6  7  1  0
  7  8  1  0
  8  9  2  0
  4  2  1  0
  9  5  1  0
  9  2  1  0
  1 10  1  0
  1 11  1  0
  1 12  1  0
  3 13  1  0
  3 14  1  0
  4 15  1  0
  5 16  1  0
  7 17  1  0
  7 18  1  0
  8 19  1  0
M  END
