
     RDKit          3D

 17 20  0  0  0  0  0  0  0  0999 V2000
    2.1041   -0.3892   -0.0373 C   0  0  0  0  0  0  0  0  0  0  0  0
    0.7943    0.0953    0.4617 C   0  0  0  0  0  0  0  0  0  0  0  0
    0.4594   -0.0615    1.8007 O   0  0  0  0  0  0  0  0  0  0  0  0
   -0.2426   -0.9194    0.9697 C   0  0  0  0  0  0  0  0  0  0  0  0
   -1.4671   -0.4091    0.2643 C   0  0  0  0  0  0  0  0  0  0  0  0
   -1.3712    1.0827    0.2555 C   0  0  0  0  0  0  0  0  0  0  0  0
   -1.9743    1.0404   -0.9955 O   0  0  0  0  0  0  0  0  0  0  0  0
   -1.0601    0.0060   -1.1005 C   0  0  0  0  0  0  0  0  0  0  0  0
   -0.0746    0.9213   -0.4419 C   0  0  0  0  0  0  0  0  0  0  0  0
    2.4573   -1.3346    0.3681 H   0  0  0  0  0  0  0  0  0  0  0  0
    2.8604    0.4271    0.1539 H   0  0  0  0  0  0  0  0  0  0  0  0
    2.0672   -0.4601   -1.1591 H   0  0  0  0  0  0  0  0  0  0  0  0
    0.0022   -1.9765    0.9220 H   0  0  0  0  0  0  0  0  0  0  0  0
   -2.4109   -0.8827    0.4370 H   0  0  0  0  0  0  0  0  0  0  0  0
   -1.6059    1.7109    1.0100 H   0  0  0  0  0  0  0  0  0  0  0  0
   -0.8958   -0.5762   -1.9086 H   0  0  0  0  0  0  0  0  0  0  0  0
    0.3575    1.7257   -0.9999 H   0  0  0  0  0  0  0  0  0  0  0  0
  1  2  1  0
  2  3  1  0
  3  4  1  0
  4  5  1  0
  5  6  1  0
  6  7  1  0
  7  8  1  0
  8  9  1  0
  4  2  1  0
  8  5  1  0
  9  2  1  0
  9  6  1  0
  1 10  1  0
  1 11  1  0
  1 12  1  0
  4 13  1  0
  5 14  1  0
  6 15  1  0
  8 16  1  0
  9 17  1  0
M  END
