
     RDKit          3D

 18 19  0  0  0  0  0  0  0  0999 V2000
   -1.8232    0.8394   -0.1546 C   0  0  0  0  0  0  0  0  0  0  0  0
   -0.5322    0.2109   -0.0215 C   0  0  0  0  0  0  0  0  0  0  0  0
    0.6699    1.0008    0.4085 C   0  0  0  0  0  0  0  0  0  0  0  0
    1.6892   -0.1548    0.4809 C   0  0  0  0  0  0  0  0  0  0  0  0
    0.8238   -1.2542   -0.0499 C   0  0  0  0  0  0  0  0  0  0  0  0
    0.0412   -0.5802   -1.1856 C   0  0  0  0  0  0  0  0  0  0  0  0
   -0.4353   -1.0835    0.7494 C   0  0  0  0  0  0  0  0  0  0  0  0
   -1.0563   -1.6868    1.5902 O   0  0  0  0  0  0  0  0  0  0  0  0
   -2.0965    1.2246   -1.1769 H   0  0  0  0  0  0  0  0  0  0  0  0
   -1.8858    1.7516    0.5018 H   0  0  0  0  0  0  0  0  0  0  0  0
   -2.6389    0.1641    0.2146 H   0  0  0  0  0  0  0  0  0  0  0  0
    0.5682    1.5166    1.3582 H   0  0  0  0  0  0  0  0  0  0  0  0
    0.9621    1.6531   -0.4449 H   0  0  0  0  0  0  0  0  0  0  0  0
    2.5765    0.0632   -0.1245 H   0  0  0  0  0  0  0  0  0  0  0  0
    1.9235   -0.2736    1.5620 H   0  0  0  0  0  0  0  0  0  0  0  0
    1.1985   -2.2260   -0.2119 H   0  0  0  0  0  0  0  0  0  0  0  0
    0.6720    0.0736   -1.7960 H   0  0  0  0  0  0  0  0  0  0  0  0
   -0.6566   -1.2388   -1.7000 H   0  0  0  0  0  0  0  0  0  0  0  0
  1  2  1  0
  2  3  1  0
  3  4  1  0
  4  5  1  0
  5  6  1  0
  5  7  1  0
  7  8  2  0
  6  2  1  0
  7  2  1  0
  1  9  1  0
  1 10  1  0
  1 11  1  0
  3 12  1  0
  3 13  1  0
  4 14  1  0
  4 15  1  0
  5 16  1  0
  6 17  1  0
  6 18  1  0
M  END
