
     RDKit          3D

 17 20  0  0  0  0  0  0  0  0999 V2000
   -2.1246    0.1256   -0.2423 C   0  0  0  0  0  0  0  0  0  0  0  0
   -0.7298   -0.0709    0.1253 C   0  0  0  0  0  0  0  0  0  0  0  0
   -0.0993    0.2642    1.4014 C   0  0  0  0  0  0  0  0  0  0  0  0
    0.8896   -0.6848    1.6792 O   0  0  0  0  0  0  0  0  0  0  0  0
    1.3520   -1.0931    0.4205 C   0  0  0  0  0  0  0  0  0  0  0  0
    0.2224   -1.0129   -0.5070 C   0  0  0  0  0  0  0  0  0  0  0  0
    1.2500    0.0528   -0.4966 C   0  0  0  0  0  0  0  0  0  0  0  0
    2.0805    0.3434   -1.5059 O   0  0  0  0  0  0  0  0  0  0  0  0
    0.3107    0.9690    0.1694 C   0  0  0  0  0  0  0  0  0  0  0  0
   -2.2833   -0.0433   -1.3208 H   0  0  0  0  0  0  0  0  0  0  0  0
   -2.7879   -0.5380    0.3494 H   0  0  0  0  0  0  0  0  0  0  0  0
   -2.4421    1.1729    0.0379 H   0  0  0  0  0  0  0  0  0  0  0  0
   -0.6031    0.7392    2.2354 H   0  0  0  0  0  0  0  0  0  0  0  0
    2.2056   -1.7461    0.3372 H   0  0  0  0  0  0  0  0  0  0  0  0
    0.0078   -1.6634   -1.3291 H   0  0  0  0  0  0  0  0  0  0  0  0
    2.5743    1.1744   -1.3178 H   0  0  0  0  0  0  0  0  0  0  0  0
    0.1772    2.0111   -0.0362 H   0  0  0  0  0  0  0  0  0  0  0  0
  1  2  1  0
  2  3  1  0
  3  4  1  0
  4  5  1  0
  5  6  1  0
  6  7  1  0
  7  8  1  0
  7  9  1  0
  6  2  1  0
  9  2  1  0
  9  3  1  0
  7  5  1  0
  1 10  1  0
  1 11  1  0
  1 12  1  0
  3 13  1  0
  5 14  1  0
  6 15  1  0
  8 16  1  0
  9 17  1  0
M  END
