
     RDKit          3D

 21 22  0  0  0  0  0  0  0  0999 V2000
    2.3561    0.1248    0.0861 C   0  0  0  0  0  0  0  0  0  0  0  0
    0.9059   -0.0592   -0.1800 C   0  0  0  0  0  0  0  0  0  0  0  0
    0.1427    1.2246   -0.0049 C   0  0  0  0  0  0  0  0  0  0  0  0
   -1.3005    1.1056   -0.4446 C   0  0  0  0  0  0  0  0  0  0  0  0
   -1.6840   -0.3333   -0.4110 C   0  0  0  0  0  0  0  0  0  0  0  0
   -2.1431   -0.6091    0.8990 O   0  0  0  0  0  0  0  0  0  0  0  0
   -0.5264   -1.2640   -0.6552 C   0  0  0  0  0  0  0  0  0  0  0  0
    0.3430   -1.2073    0.5881 C   0  0  0  0  0  0  0  0  0  0  0  0
    0.5234   -0.6676   -1.3416 O   0  0  0  0  0  0  0  0  0  0  0  0
    2.4576    0.3557    1.1883 H   0  0  0  0  0  0  0  0  0  0  0  0
    2.9561   -0.7987   -0.0622 H   0  0  0  0  0  0  0  0  0  0  0  0
    2.8093    1.0060   -0.4230 H   0  0  0  0  0  0  0  0  0  0  0  0
    0.2372    1.6638    1.0028 H   0  0  0  0  0  0  0  0  0  0  0  0
    0.6133    1.9674   -0.7074 H   0  0  0  0  0  0  0  0  0  0  0  0
   -1.4834    1.5726   -1.4357 H   0  0  0  0  0  0  0  0  0  0  0  0
   -1.8980    1.7197    0.2811 H   0  0  0  0  0  0  0  0  0  0  0  0
   -2.5174   -0.5623   -1.0857 H   0  0  0  0  0  0  0  0  0  0  0  0
   -1.8808    0.1092    1.5269 H   0  0  0  0  0  0  0  0  0  0  0  0
   -0.7865   -2.2815   -0.9178 H   0  0  0  0  0  0  0  0  0  0  0  0
   -0.1691   -1.0024    1.5229 H   0  0  0  0  0  0  0  0  0  0  0  0
    1.0448   -2.0640    0.5740 H   0  0  0  0  0  0  0  0  0  0  0  0
  1  2  1  0
  2  3  1  0
  3  4  1  0
  4  5  1  0
  5  6  1  0
  5  7  1  0
  7  8  1  0
  7  9  1  0
  8  2  1  0
  9  2  1  0
  1 10  1  0
  1 11  1  0
  1 12  1  0
  3 13  1  0
  3 14  1  0
  4 15  1  0
  4 16  1  0
  5 17  1  0
  6 18  1  0
  7 19  1  0
  8 20  1  0
  8 21  1  0
M  END
