
     RDKit          3D

 23 24  0  0  0  0  0  0  0  0999 V2000
   -0.6702   -0.8149    1.5880 C   0  0  0  0  0  0  0  0  0  0  0  0
   -0.5536   -0.1809    0.3129 C   0  0  0  0  0  0  0  0  0  0  0  0
   -1.3912   -0.6620   -0.8650 C   0  0  0  0  0  0  0  0  0  0  0  0
   -1.0283    0.7373   -1.3915 C   0  0  0  0  0  0  0  0  0  0  0  0
   -1.2700    1.1554    0.0691 C   0  0  0  0  0  0  0  0  0  0  0  0
    0.3309    0.6823   -1.5556 O   0  0  0  0  0  0  0  0  0  0  0  0
    0.7581    0.0967   -0.3355 C   0  0  0  0  0  0  0  0  0  0  0  0
    1.6002   -1.1119   -0.5744 C   0  0  0  0  0  0  0  0  0  0  0  0
    1.5607    1.1410    0.4252 C   0  0  0  0  0  0  0  0  0  0  0  0
   -0.6697   -0.0709    2.4218 H   0  0  0  0  0  0  0  0  0  0  0  0
   -1.5541   -1.4733    1.6619 H   0  0  0  0  0  0  0  0  0  0  0  0
    0.2211   -1.4629    1.7828 H   0  0  0  0  0  0  0  0  0  0  0  0
   -2.4833   -0.6719   -0.6815 H   0  0  0  0  0  0  0  0  0  0  0  0
   -0.9774   -1.4878   -1.4394 H   0  0  0  0  0  0  0  0  0  0  0  0
   -1.6641    1.1577   -2.1279 H   0  0  0  0  0  0  0  0  0  0  0  0
   -2.3204    1.0660    0.3325 H   0  0  0  0  0  0  0  0  0  0  0  0
   -0.7128    2.0324    0.3919 H   0  0  0  0  0  0  0  0  0  0  0  0
    2.4819   -1.0924    0.1195 H   0  0  0  0  0  0  0  0  0  0  0  0
    1.9997   -1.1932   -1.6005 H   0  0  0  0  0  0  0  0  0  0  0  0
    1.0470   -2.0463   -0.3180 H   0  0  0  0  0  0  0  0  0  0  0  0
    1.3537    1.0295    1.5126 H   0  0  0  0  0  0  0  0  0  0  0  0
    2.6389    1.0010    0.1958 H   0  0  0  0  0  0  0  0  0  0  0  0
    1.3029    2.1689    0.0753 H   0  0  0  0  0  0  0  0  0  0  0  0
  1  2  1  0
  2  3  1  0
  3  4  1  0
  4  5  1  0
  4  6  1  0
  6  7  1  0
  7  8  1  0
  7  9  1  0
  5  2  1  0
  7  2  1  0
  1 10  1  0
  1 11  1  0
  1 12  1  0
  3 13  1  0
  3 14  1  0
  4 15  1  0
  5 16  1  0
  5 17  1  0
  8 18  1  0
  8 19  1  0
  8 20  1  0
  9 21  1  0
  9 22  1  0
  9 23  1  0
M  END
