
     RDKit          3D

 21 22  0  0  0  0  0  0  0  0999 V2000
    1.9231    0.9457   -0.6678 C   0  0  0  0  0  0  0  0  0  0  0  0
    0.8989    0.0585    0.0493 C   0  0  0  0  0  0  0  0  0  0  0  0
    0.1334    0.7718    1.1021 C   0  0  0  0  0  0  0  0  0  0  0  0
   -1.0606    0.2155    1.4536 O   0  0  0  0  0  0  0  0  0  0  0  0
   -1.9927    0.5235    0.4547 C   0  0  0  0  0  0  0  0  0  0  0  0
   -2.0407   -0.7082   -0.4417 C   0  0  0  0  0  0  0  0  0  0  0  0
   -0.9284   -1.4821   -0.3507 O   0  0  0  0  0  0  0  0  0  0  0  0
    0.2560   -0.9726   -0.7059 C   0  0  0  0  0  0  0  0  0  0  0  0
    1.4004   -1.3384    0.2666 C   0  0  0  0  0  0  0  0  0  0  0  0
    2.3752    0.3951   -1.5296 H   0  0  0  0  0  0  0  0  0  0  0  0
    1.5016    1.9063   -0.9671 H   0  0  0  0  0  0  0  0  0  0  0  0
    2.7604    1.0674    0.0804 H   0  0  0  0  0  0  0  0  0  0  0  0
    0.7984    0.9634    1.9939 H   0  0  0  0  0  0  0  0  0  0  0  0
   -0.0828    1.8075    0.7092 H   0  0  0  0  0  0  0  0  0  0  0  0
   -1.7214    1.4170   -0.1215 H   0  0  0  0  0  0  0  0  0  0  0  0
   -2.9585    0.6964    0.9739 H   0  0  0  0  0  0  0  0  0  0  0  0
   -2.9018   -1.3181   -0.0371 H   0  0  0  0  0  0  0  0  0  0  0  0
   -2.3508   -0.4450   -1.4788 H   0  0  0  0  0  0  0  0  0  0  0  0
    0.5149   -1.0610   -1.7982 H   0  0  0  0  0  0  0  0  0  0  0  0
    1.1356   -1.7695    1.2392 H   0  0  0  0  0  0  0  0  0  0  0  0
    2.3397   -1.6730   -0.2245 H   0  0  0  0  0  0  0  0  0  0  0  0
  1  2  1  0
  2  3  1  0
  3  4  1  0
  4  5  1  0
  5  6  1  0
  6  7  1  0
  7  8  1  0
  8  9  1  0
  8  2  1  0
  9  2  1  0
  1 10  1  0
  1 11  1  0
  1 12  1  0
  3 13  1  0
  3 14  1  0
  5 15  1  0
  5 16  1  0
  6 17  1  0
  6 18  1  0
  8 19  1  0
  9 20  1  0
  9 21  1  0
M  END
