
     RDKit          3D

 23 24  0  0  0  0  0  0  0  0999 V2000
   -1.7555   -1.0903    0.5999 C   0  0  0  0  0  0  0  0  0  0  0  0
   -0.4908   -0.5258   -0.0075 C   0  0  0  0  0  0  0  0  0  0  0  0
    0.6933   -1.4154   -0.0064 C   0  0  0  0  0  0  0  0  0  0  0  0
    2.0126   -0.7639   -0.1508 C   0  0  0  0  0  0  0  0  0  0  0  0
    2.0003    0.7233   -0.2102 C   0  0  0  0  0  0  0  0  0  0  0  0
    0.9669    1.3229    0.4549 O   0  0  0  0  0  0  0  0  0  0  0  0
   -0.2826    0.9024    0.1005 C   0  0  0  0  0  0  0  0  0  0  0  0
   -1.4071    1.7546    0.7078 C   0  0  0  0  0  0  0  0  0  0  0  0
   -0.6081    0.3585   -1.2403 C   0  0  0  0  0  0  0  0  0  0  0  0
   -2.2523   -0.3315    1.2667 H   0  0  0  0  0  0  0  0  0  0  0  0
   -1.4756   -1.9292    1.2679 H   0  0  0  0  0  0  0  0  0  0  0  0
   -2.4054   -1.4765   -0.1807 H   0  0  0  0  0  0  0  0  0  0  0  0
    0.6428   -2.1033    0.8895 H   0  0  0  0  0  0  0  0  0  0  0  0
    0.5652   -2.1230   -0.8804 H   0  0  0  0  0  0  0  0  0  0  0  0
    2.6588   -1.1080    0.7108 H   0  0  0  0  0  0  0  0  0  0  0  0
    2.5789   -1.1252   -1.0591 H   0  0  0  0  0  0  0  0  0  0  0  0
    2.9548    1.0843    0.2766 H   0  0  0  0  0  0  0  0  0  0  0  0
    2.0926    1.0665   -1.2711 H   0  0  0  0  0  0  0  0  0  0  0  0
   -1.2745    2.8099    0.3453 H   0  0  0  0  0  0  0  0  0  0  0  0
   -2.3996    1.4429    0.2706 H   0  0  0  0  0  0  0  0  0  0  0  0
   -1.4463    1.6713    1.7957 H   0  0  0  0  0  0  0  0  0  0  0  0
   -1.5911    0.5057   -1.6980 H   0  0  0  0  0  0  0  0  0  0  0  0
    0.2227    0.3497   -1.9814 H   0  0  0  0  0  0  0  0  0  0  0  0
  1  2  1  0
  2  3  1  0
  3  4  1  0
  4  5  1  0
  5  6  1  0
  6  7  1  0
  7  8  1  0
  7  9  1  0
  7  2  1  0
  9  2  1  0
  1 10  1  0
  1 11  1  0
  1 12  1  0
  3 13  1  0
  3 14  1  0
  4 15  1  0
  4 16  1  0
  5 17  1  0
  5 18  1  0
  8 19  1  0
  8 20  1  0
  8 21  1  0
  9 22  1  0
  9 23  1  0
M  END
