
     RDKit          3D

 21 22  0  0  0  0  0  0  0  0999 V2000
   -1.0561   -0.4867    1.5663 C   0  0  0  0  0  0  0  0  0  0  0  0
   -0.5917   -0.2045    0.1903 C   0  0  0  0  0  0  0  0  0  0  0  0
   -1.0985    1.0097   -0.5011 C   0  0  0  0  0  0  0  0  0  0  0  0
   -0.1028    1.2100   -1.6189 C   0  0  0  0  0  0  0  0  0  0  0  0
    0.9810    0.5084   -1.3882 C   0  0  0  0  0  0  0  0  0  0  0  0
    0.8532   -0.2396   -0.1076 C   0  0  0  0  0  0  0  0  0  0  0  0
    1.8049    0.2861    0.9120 C   0  0  0  0  0  0  0  0  0  0  0  0
    0.7773   -1.6157   -0.2383 O   0  0  0  0  0  0  0  0  0  0  0  0
   -0.5638   -1.4342   -0.6494 C   0  0  0  0  0  0  0  0  0  0  0  0
   -0.4916   -1.3574    1.9591 H   0  0  0  0  0  0  0  0  0  0  0  0
   -2.1240   -0.8483    1.4905 H   0  0  0  0  0  0  0  0  0  0  0  0
   -1.0292    0.3779    2.2573 H   0  0  0  0  0  0  0  0  0  0  0  0
   -1.1732    1.8908    0.1265 H   0  0  0  0  0  0  0  0  0  0  0  0
   -2.0872    0.7795   -0.9514 H   0  0  0  0  0  0  0  0  0  0  0  0
   -0.2431    1.8382   -2.4944 H   0  0  0  0  0  0  0  0  0  0  0  0
    1.8841    0.4322   -1.9959 H   0  0  0  0  0  0  0  0  0  0  0  0
    1.6195   -0.0758    1.9415 H   0  0  0  0  0  0  0  0  0  0  0  0
    1.7456    1.3880    0.9042 H   0  0  0  0  0  0  0  0  0  0  0  0
    2.8356    0.0252    0.5949 H   0  0  0  0  0  0  0  0  0  0  0  0
   -0.6979   -1.2201   -1.7070 H   0  0  0  0  0  0  0  0  0  0  0  0
   -1.2420   -2.2637   -0.2904 H   0  0  0  0  0  0  0  0  0  0  0  0
  1  2  1  0
  2  3  1  0
  3  4  1  0
  4  5  2  0
  5  6  1  0
  6  7  1  0
  6  8  1  0
  8  9  1  0
  6  2  1  0
  9  2  1  0
  1 10  1  0
  1 11  1  0
  1 12  1  0
  3 13  1  0
  3 14  1  0
  4 15  1  0
  5 16  1  0
  7 17  1  0
  7 18  1  0
  7 19  1  0
  9 20  1  0
  9 21  1  0
M  END
