
     RDKit          3D

 21 22  0  0  0  0  0  0  0  0999 V2000
   -2.2051   -0.9297    0.0722 C   0  0  0  0  0  0  0  0  0  0  0  0
   -1.0554   -0.0881   -0.3910 C   0  0  0  0  0  0  0  0  0  0  0  0
   -1.3173    1.3184   -0.6678 C   0  0  0  0  0  0  0  0  0  0  0  0
   -0.4075    0.9223    0.4472 C   0  0  0  0  0  0  0  0  0  0  0  0
    1.0770    1.1001    0.1127 C   0  0  0  0  0  0  0  0  0  0  0  0
    1.7823   -0.2390    0.3256 C   0  0  0  0  0  0  0  0  0  0  0  0
    2.8181   -0.3678   -0.6261 O   0  0  0  0  0  0  0  0  0  0  0  0
    0.7671   -1.3136   -0.0313 C   0  0  0  0  0  0  0  0  0  0  0  0
   -0.0627   -0.8107   -1.0613 O   0  0  0  0  0  0  0  0  0  0  0  0
   -2.9799   -0.3307    0.5823 H   0  0  0  0  0  0  0  0  0  0  0  0
   -2.7088   -1.3199   -0.8626 H   0  0  0  0  0  0  0  0  0  0  0  0
   -1.8446   -1.7913    0.6325 H   0  0  0  0  0  0  0  0  0  0  0  0
   -2.2919    1.7246   -0.3605 H   0  0  0  0  0  0  0  0  0  0  0  0
   -0.8979    1.8371   -1.5656 H   0  0  0  0  0  0  0  0  0  0  0  0
   -0.6898    0.9955    1.4941 H   0  0  0  0  0  0  0  0  0  0  0  0
    1.2349    1.3639   -0.9410 H   0  0  0  0  0  0  0  0  0  0  0  0
    1.5182    1.8998    0.7240 H   0  0  0  0  0  0  0  0  0  0  0  0
    2.1804   -0.3365    1.3350 H   0  0  0  0  0  0  0  0  0  0  0  0
    3.6308    0.0803   -0.3464 H   0  0  0  0  0  0  0  0  0  0  0  0
    1.2783   -2.2290   -0.3125 H   0  0  0  0  0  0  0  0  0  0  0  0
    0.1735   -1.4858    0.9014 H   0  0  0  0  0  0  0  0  0  0  0  0
  1  2  1  0
  2  3  1  0
  3  4  1  0
  4  5  1  0
  5  6  1  0
  6  7  1  0
  6  8  1  0
  8  9  1  0
  4  2  1  0
  9  2  1  0
  1 10  1  0
  1 11  1  0
  1 12  1  0
  3 13  1  0
  3 14  1  0
  4 15  1  0
  5 16  1  0
  5 17  1  0
  6 18  1  0
  7 19  1  0
  8 20  1  0
  8 21  1  0
M  END
