
     RDKit          3D

 19 20  0  0  0  0  0  0  0  0999 V2000
    1.4717    0.5825    1.1039 C   0  0  0  0  0  0  0  0  0  0  0  0
    0.7158    0.0043   -0.0239 C   0  0  0  0  0  0  0  0  0  0  0  0
    0.6577   -1.5091   -0.1431 C   0  0  0  0  0  0  0  0  0  0  0  0
   -0.8056   -1.3706   -0.3405 C   0  0  0  0  0  0  0  0  0  0  0  0
   -1.7070   -2.1640   -0.5326 O   0  0  0  0  0  0  0  0  0  0  0  0
   -0.7272    0.0872   -0.2122 C   0  0  0  0  0  0  0  0  0  0  0  0
   -1.6927    0.7919    0.6377 C   0  0  0  0  0  0  0  0  0  0  0  0
    0.1878    0.8095   -1.1399 C   0  0  0  0  0  0  0  0  0  0  0  0
    0.2372    0.3001   -2.4410 O   0  0  0  0  0  0  0  0  0  0  0  0
    1.2404    1.6680    1.2178 H   0  0  0  0  0  0  0  0  0  0  0  0
    1.3094    0.0635    2.0886 H   0  0  0  0  0  0  0  0  0  0  0  0
    2.5722    0.5519    0.8668 H   0  0  0  0  0  0  0  0  0  0  0  0
    0.9625   -2.0034    0.8034 H   0  0  0  0  0  0  0  0  0  0  0  0
    1.2228   -1.9278   -0.9789 H   0  0  0  0  0  0  0  0  0  0  0  0
   -2.3936    1.3963   -0.0057 H   0  0  0  0  0  0  0  0  0  0  0  0
   -1.2994    1.4357    1.4198 H   0  0  0  0  0  0  0  0  0  0  0  0
   -2.3634    0.0400    1.1349 H   0  0  0  0  0  0  0  0  0  0  0  0
    0.2781    1.9085   -1.0328 H   0  0  0  0  0  0  0  0  0  0  0  0
    0.1335   -0.6644   -2.4220 H   0  0  0  0  0  0  0  0  0  0  0  0
  1  2  1  0
  2  3  1  0
  3  4  1  0
  4  5  2  0
  4  6  1  0
  6  7  1  0
  6  8  1  0
  8  9  1  0
  6  2  1  0
  8  2  1  0
  1 10  1  0
  1 11  1  0
  1 12  1  0
  3 13  1  0
  3 14  1  0
  7 15  1  0
  7 16  1  0
  7 17  1  0
  8 18  1  0
  9 19  1  0
M  END
