
     RDKit          3D

 16 17  0  0  0  0  0  0  0  0999 V2000
   -1.6861   -0.4540    0.3033 C   0  0  0  0  0  0  0  0  0  0  0  0
   -0.6136   -0.1662   -0.6650 C   0  0  0  0  0  0  0  0  0  0  0  0
   -0.6162    1.1822   -1.1155 C   0  0  0  0  0  0  0  0  0  0  0  0
    0.5392    0.8113   -0.3653 C   0  0  0  0  0  0  0  0  0  0  0  0
    0.7985   -0.3779    0.5149 C   0  0  0  0  0  0  0  0  0  0  0  0
    2.2247   -0.6483    0.8438 C   0  0  0  0  0  0  0  0  0  0  0  0
    2.6556   -0.0524    1.8427 O   0  0  0  0  0  0  0  0  0  0  0  0
    0.4040   -1.0870   -0.6170 O   0  0  0  0  0  0  0  0  0  0  0  0
   -2.6111   -0.6361   -0.3265 H   0  0  0  0  0  0  0  0  0  0  0  0
   -1.5910   -1.3196    0.9393 H   0  0  0  0  0  0  0  0  0  0  0  0
   -1.9854    0.4066    0.9506 H   0  0  0  0  0  0  0  0  0  0  0  0
   -0.7030    1.3310   -2.2348 H   0  0  0  0  0  0  0  0  0  0  0  0
   -1.2340    1.9975   -0.6295 H   0  0  0  0  0  0  0  0  0  0  0  0
    1.4054    0.8034   -1.0999 H   0  0  0  0  0  0  0  0  0  0  0  0
    0.2087   -0.4825    1.4116 H   0  0  0  0  0  0  0  0  0  0  0  0
    2.8044   -1.3081    0.2472 H   0  0  0  0  0  0  0  0  0  0  0  0
  1  2  1  0
  2  3  1  0
  3  4  1  0
  4  5  1  0
  5  6  1  0
  6  7  2  0
  5  8  1  0
  4  2  1  0
  8  2  1  0
  1  9  1  0
  1 10  1  0
  1 11  1  0
  3 12  1  0
  3 13  1  0
  4 14  1  0
  5 15  1  0
  6 16  1  0
M  END
