
     RDKit          3D

 19 21  0  0  0  0  0  0  0  0999 V2000
    2.5113    0.6634    0.5963 C   0  0  0  0  0  0  0  0  0  0  0  0
    1.4964   -0.0397   -0.1976 C   0  0  0  0  0  0  0  0  0  0  0  0
    2.0733   -1.1796   -0.9726 O   0  0  0  0  0  0  0  0  0  0  0  0
    1.1799   -0.2258   -1.4761 C   0  0  0  0  0  0  0  0  0  0  0  0
   -0.2702   -0.6182   -1.1713 C   0  0  0  0  0  0  0  0  0  0  0  0
   -1.0866    0.2819   -0.3278 C   0  0  0  0  0  0  0  0  0  0  0  0
   -2.4126   -0.2838    0.1275 C   0  0  0  0  0  0  0  0  0  0  0  0
   -3.1145    0.6286    0.9152 O   0  0  0  0  0  0  0  0  0  0  0  0
    0.1083   -0.3111    0.3191 C   0  0  0  0  0  0  0  0  0  0  0  0
    3.4094    0.0059    0.7952 H   0  0  0  0  0  0  0  0  0  0  0  0
    2.8423    1.6438    0.1942 H   0  0  0  0  0  0  0  0  0  0  0  0
    2.1217    0.8914    1.6307 H   0  0  0  0  0  0  0  0  0  0  0  0
    1.3438    0.2080   -2.4538 H   0  0  0  0  0  0  0  0  0  0  0  0
   -0.5903   -1.6509   -1.3779 H   0  0  0  0  0  0  0  0  0  0  0  0
   -1.0781    1.3456   -0.6029 H   0  0  0  0  0  0  0  0  0  0  0  0
   -3.0829   -0.5288   -0.7235 H   0  0  0  0  0  0  0  0  0  0  0  0
   -2.2729   -1.2135    0.7049 H   0  0  0  0  0  0  0  0  0  0  0  0
   -3.1739    1.5138    0.4749 H   0  0  0  0  0  0  0  0  0  0  0  0
   -0.0043   -1.1311    1.0245 H   0  0  0  0  0  0  0  0  0  0  0  0
  1  2  1  0
  2  3  1  0
  3  4  1  0
  4  5  1  0
  5  6  1  0
  6  7  1  0
  7  8  1  0
  6  9  1  0
  4  2  1  0
  9  5  1  0
  9  2  1  0
  1 10  1  0
  1 11  1  0
  1 12  1  0
  4 13  1  0
  5 14  1  0
  6 15  1  0
  7 16  1  0
  7 17  1  0
  8 18  1  0
  9 19  1  0
M  END
