
     RDKit          3D

 16 18  0  0  0  0  0  0  0  0999 V2000
   -1.8579    0.5904    0.1695 C   0  0  0  0  0  0  0  0  0  0  0  0
   -0.7724   -0.3295   -0.2480 C   0  0  0  0  0  0  0  0  0  0  0  0
   -0.8940   -1.6549    0.0859 O   0  0  0  0  0  0  0  0  0  0  0  0
    0.0685   -1.0355    0.8368 C   0  0  0  0  0  0  0  0  0  0  0  0
    1.4262   -0.7743    0.2092 C   0  0  0  0  0  0  0  0  0  0  0  0
    1.4024    0.6776   -0.1496 C   0  0  0  0  0  0  0  0  0  0  0  0
    0.3739    0.1355   -1.1019 C   0  0  0  0  0  0  0  0  0  0  0  0
    1.1586   -1.0437   -1.1394 O   0  0  0  0  0  0  0  0  0  0  0  0
   -1.9363    0.6993    1.2867 H   0  0  0  0  0  0  0  0  0  0  0  0
   -1.8517    1.5715   -0.3321 H   0  0  0  0  0  0  0  0  0  0  0  0
   -2.8372    0.1125   -0.1274 H   0  0  0  0  0  0  0  0  0  0  0  0
   -0.1074   -0.6966    1.8635 H   0  0  0  0  0  0  0  0  0  0  0  0
    2.2885   -1.2076    0.6555 H   0  0  0  0  0  0  0  0  0  0  0  0
    2.3310    0.9816   -0.6312 H   0  0  0  0  0  0  0  0  0  0  0  0
    1.0202    1.3438    0.6464 H   0  0  0  0  0  0  0  0  0  0  0  0
    0.1877    0.6299   -2.0239 H   0  0  0  0  0  0  0  0  0  0  0  0
  1  2  1  0
  2  3  1  0
  3  4  1  0
  4  5  1  0
  5  6  1  0
  6  7  1  0
  7  8  1  0
  4  2  1  0
  8  5  1  0
  7  2  1  0
  1  9  1  0
  1 10  1  0
  1 11  1  0
  4 12  1  0
  5 13  1  0
  6 14  1  0
  6 15  1  0
  7 16  1  0
M  END
