
     RDKit          3D

 19 21  0  0  0  0  0  0  0  0999 V2000
    2.1535   -0.6242   -0.0475 C   0  0  0  0  0  0  0  0  0  0  0  0
    0.7148   -0.3176    0.0976 C   0  0  0  0  0  0  0  0  0  0  0  0
   -0.1277   -1.3435    0.4793 O   0  0  0  0  0  0  0  0  0  0  0  0
   -1.3565   -1.1859   -0.1311 C   0  0  0  0  0  0  0  0  0  0  0  0
   -1.3748    0.2631   -0.5205 C   0  0  0  0  0  0  0  0  0  0  0  0
   -1.1281    1.0455    0.7817 C   0  0  0  0  0  0  0  0  0  0  0  0
    0.3985    1.0434    0.6736 C   0  0  0  0  0  0  0  0  0  0  0  0
    0.5659    1.5604   -0.6058 O   0  0  0  0  0  0  0  0  0  0  0  0
    0.0450    0.3879   -1.0720 C   0  0  0  0  0  0  0  0  0  0  0  0
    2.3827   -1.5081    0.6184 H   0  0  0  0  0  0  0  0  0  0  0  0
    2.4798   -0.8925   -1.0531 H   0  0  0  0  0  0  0  0  0  0  0  0
    2.8029    0.1958    0.3750 H   0  0  0  0  0  0  0  0  0  0  0  0
   -1.5257   -1.8826   -0.9587 H   0  0  0  0  0  0  0  0  0  0  0  0
   -2.1454   -1.3186    0.6588 H   0  0  0  0  0  0  0  0  0  0  0  0
   -2.1515    0.6199   -1.1308 H   0  0  0  0  0  0  0  0  0  0  0  0
   -1.3852    0.4535    1.6647 H   0  0  0  0  0  0  0  0  0  0  0  0
   -1.5462    2.0474    0.7411 H   0  0  0  0  0  0  0  0  0  0  0  0
    0.9642    1.4204    1.4829 H   0  0  0  0  0  0  0  0  0  0  0  0
    0.2338    0.0358   -2.0535 H   0  0  0  0  0  0  0  0  0  0  0  0
  1  2  1  0
  2  3  1  0
  3  4  1  0
  4  5  1  0
  5  6  1  0
  6  7  1  0
  7  8  1  0
  8  9  1  0
  7  2  1  0
  9  2  1  0
  9  5  1  0
  1 10  1  0
  1 11  1  0
  1 12  1  0
  4 13  1  0
  4 14  1  0
  5 15  1  0
  6 16  1  0
  6 17  1  0
  7 18  1  0
  9 19  1  0
M  END
