
     RDKit          3D

 17 18  0  0  0  0  0  0  0  0999 V2000
    1.9276   -0.5935    0.3333 C   0  0  0  0  0  0  0  0  0  0  0  0
    0.5053   -0.2156    0.1874 C   0  0  0  0  0  0  0  0  0  0  0  0
    0.2025    0.6180   -1.0645 C   0  0  0  0  0  0  0  0  0  0  0  0
   -0.8977    1.2166   -0.1752 C   0  0  0  0  0  0  0  0  0  0  0  0
   -1.9737    0.3480   -0.2671 O   0  0  0  0  0  0  0  0  0  0  0  0
   -1.6884   -0.9453    0.0339 C   0  0  0  0  0  0  0  0  0  0  0  0
   -0.3832   -1.2649    0.2479 O   0  0  0  0  0  0  0  0  0  0  0  0
   -0.0149    0.8982    0.9781 C   0  0  0  0  0  0  0  0  0  0  0  0
    0.2085    1.3365    2.0936 O   0  0  0  0  0  0  0  0  0  0  0  0
    2.2443   -1.1139   -0.6132 H   0  0  0  0  0  0  0  0  0  0  0  0
    2.6021    0.2570    0.4524 H   0  0  0  0  0  0  0  0  0  0  0  0
    2.0167   -1.3257    1.1616 H   0  0  0  0  0  0  0  0  0  0  0  0
    0.9596    1.3691   -1.3006 H   0  0  0  0  0  0  0  0  0  0  0  0
   -0.2136    0.0406   -1.9038 H   0  0  0  0  0  0  0  0  0  0  0  0
   -1.1348    2.2533   -0.3550 H   0  0  0  0  0  0  0  0  0  0  0  0
   -2.2812   -1.2279    0.9502 H   0  0  0  0  0  0  0  0  0  0  0  0
   -2.0790   -1.6506   -0.7592 H   0  0  0  0  0  0  0  0  0  0  0  0
  1  2  1  0
  2  3  1  0
  3  4  1  0
  4  5  1  0
  5  6  1  0
  6  7  1  0
  4  8  1  0
  8  9  2  0
  7  2  1  0
  8  2  1  0
  1 10  1  0
  1 11  1  0
  1 12  1  0
  3 13  1  0
  3 14  1  0
  4 15  1  0
  6 16  1  0
  6 17  1  0
M  END
