
     RDKit          3D

 19 20  0  0  0  0  0  0  0  0999 V2000
   -1.9627   -0.2546   -0.9007 C   0  0  0  0  0  0  0  0  0  0  0  0
   -0.6716   -0.4100   -0.1550 C   0  0  0  0  0  0  0  0  0  0  0  0
   -0.7675   -0.0023    1.3124 C   0  0  0  0  0  0  0  0  0  0  0  0
    0.1352    0.7051    0.3157 C   0  0  0  0  0  0  0  0  0  0  0  0
   -0.1081    2.0268   -0.0013 O   0  0  0  0  0  0  0  0  0  0  0  0
    1.5524    0.1919    0.3458 C   0  0  0  0  0  0  0  0  0  0  0  0
    2.4373    0.9409   -0.3786 O   0  0  0  0  0  0  0  0  0  0  0  0
    1.4095   -1.2247   -0.0767 C   0  0  0  0  0  0  0  0  0  0  0  0
    0.1346   -1.4590   -0.4968 O   0  0  0  0  0  0  0  0  0  0  0  0
   -1.9757   -0.8505   -1.8472 H   0  0  0  0  0  0  0  0  0  0  0  0
   -2.2264    0.7706   -1.1585 H   0  0  0  0  0  0  0  0  0  0  0  0
   -2.7954   -0.6979   -0.2831 H   0  0  0  0  0  0  0  0  0  0  0  0
   -0.3441   -0.7359    2.0104 H   0  0  0  0  0  0  0  0  0  0  0  0
   -1.6481    0.5570    1.6569 H   0  0  0  0  0  0  0  0  0  0  0  0
   -0.9860    2.1915   -0.3799 H   0  0  0  0  0  0  0  0  0  0  0  0
    1.8775    0.2550    1.4270 H   0  0  0  0  0  0  0  0  0  0  0  0
    2.1194    1.3112   -1.2136 H   0  0  0  0  0  0  0  0  0  0  0  0
    1.7217   -1.8922    0.7571 H   0  0  0  0  0  0  0  0  0  0  0  0
    2.0979   -1.4228   -0.9339 H   0  0  0  0  0  0  0  0  0  0  0  0
  1  2  1  0
  2  3  1  0
  3  4  1  0
  4  5  1  0
  4  6  1  0
  6  7  1  0
  6  8  1  0
  8  9  1  0
  4  2  1  0
  9  2  1  0
  1 10  1  0
  1 11  1  0
  1 12  1  0
  3 13  1  0
  3 14  1  0
  5 15  1  0
  6 16  1  0
  7 17  1  0
  8 18  1  0
  8 19  1  0
M  END
