
     RDKit          3D

 19 21  0  0  0  0  0  0  0  0999 V2000
   -1.1252   -1.4901   -0.5468 C   0  0  0  0  0  0  0  0  0  0  0  0
   -0.6559   -0.2821    0.1736 C   0  0  0  0  0  0  0  0  0  0  0  0
   -1.0643   -0.1014    1.5398 O   0  0  0  0  0  0  0  0  0  0  0  0
   -1.4554    0.8089    0.5810 C   0  0  0  0  0  0  0  0  0  0  0  0
   -0.5936    2.0365    0.3177 C   0  0  0  0  0  0  0  0  0  0  0  0
    0.7100    1.6064    0.2574 O   0  0  0  0  0  0  0  0  0  0  0  0
    0.7322    0.2707   -0.0439 C   0  0  0  0  0  0  0  0  0  0  0  0
    1.8271   -0.6044    0.5741 C   0  0  0  0  0  0  0  0  0  0  0  0
    1.7260   -0.3789   -0.8822 C   0  0  0  0  0  0  0  0  0  0  0  0
   -1.7375   -2.1011    0.1778 H   0  0  0  0  0  0  0  0  0  0  0  0
   -0.3291   -2.1317   -0.9534 H   0  0  0  0  0  0  0  0  0  0  0  0
   -1.8621   -1.2046   -1.3524 H   0  0  0  0  0  0  0  0  0  0  0  0
   -2.5256    0.9719    0.5042 H   0  0  0  0  0  0  0  0  0  0  0  0
   -0.8618    2.3755   -0.7252 H   0  0  0  0  0  0  0  0  0  0  0  0
   -0.7962    2.8122    1.0556 H   0  0  0  0  0  0  0  0  0  0  0  0
    2.5160   -0.0335    1.2223 H   0  0  0  0  0  0  0  0  0  0  0  0
    1.5598   -1.5877    0.9750 H   0  0  0  0  0  0  0  0  0  0  0  0
    1.4631   -1.2674   -1.4890 H   0  0  0  0  0  0  0  0  0  0  0  0
    2.4723    0.3006   -1.3857 H   0  0  0  0  0  0  0  0  0  0  0  0
  1  2  1  0
  2  3  1  0
  3  4  1  0
  4  5  1  0
  5  6  1  0
  6  7  1  0
  7  8  1  0
  8  9  1  0
  4  2  1  0
  9  7  1  0
  7  2  1  0
  1 10  1  0
  1 11  1  0
  1 12  1  0
  4 13  1  0
  5 14  1  0
  5 15  1  0
  8 16  1  0
  8 17  1  0
  9 18  1  0
  9 19  1  0
M  END
