
     RDKit          3D

 19 21  0  0  0  0  0  0  0  0999 V2000
   -0.5608    1.4205   -0.7903 C   0  0  0  0  0  0  0  0  0  0  0  0
   -0.5287    0.3387    0.2462 C   0  0  0  0  0  0  0  0  0  0  0  0
    0.7417   -0.3844    0.4615 C   0  0  0  0  0  0  0  0  0  0  0  0
    1.9375   -0.1441   -0.3876 C   0  0  0  0  0  0  0  0  0  0  0  0
    2.3264    1.1923   -0.2914 O   0  0  0  0  0  0  0  0  0  0  0  0
   -0.3722   -1.1004   -0.1673 C   0  0  0  0  0  0  0  0  0  0  0  0
   -1.4844   -1.5331    0.7511 C   0  0  0  0  0  0  0  0  0  0  0  0
   -1.5891   -0.9606    2.0061 O   0  0  0  0  0  0  0  0  0  0  0  0
   -1.7536   -0.0453    0.9873 C   0  0  0  0  0  0  0  0  0  0  0  0
   -1.4682    1.3788   -1.4306 H   0  0  0  0  0  0  0  0  0  0  0  0
    0.3081    1.3778   -1.4583 H   0  0  0  0  0  0  0  0  0  0  0  0
   -0.5464    2.3980   -0.2851 H   0  0  0  0  0  0  0  0  0  0  0  0
    0.9741   -0.6243    1.5292 H   0  0  0  0  0  0  0  0  0  0  0  0
    1.7558   -0.4403   -1.4546 H   0  0  0  0  0  0  0  0  0  0  0  0
    2.7595   -0.8037   -0.0317 H   0  0  0  0  0  0  0  0  0  0  0  0
    2.9785    1.2201    0.4753 H   0  0  0  0  0  0  0  0  0  0  0  0
   -0.4363   -1.3698   -1.2144 H   0  0  0  0  0  0  0  0  0  0  0  0
   -2.2882   -2.1751    0.3968 H   0  0  0  0  0  0  0  0  0  0  0  0
   -2.7538    0.2549    0.6579 H   0  0  0  0  0  0  0  0  0  0  0  0
  1  2  1  0
  2  3  1  0
  3  4  1  0
  4  5  1  0
  3  6  1  0
  6  7  1  0
  7  8  1  0
  8  9  1  0
  6  2  1  0
  9  7  1  0
  9  2  1  0
  1 10  1  0
  1 11  1  0
  1 12  1  0
  3 13  1  0
  4 14  1  0
  4 15  1  0
  5 16  1  0
  6 17  1  0
  7 18  1  0
  9 19  1  0
M  END
