
     RDKit          3D

 15 16  0  0  0  0  0  0  0  0999 V2000
    1.2830   -0.9455    0.2011 C   0  0  0  0  0  0  0  0  0  0  0  0
    0.0561   -0.0319    0.3947 C   0  0  0  0  0  0  0  0  0  0  0  0
   -1.1907   -0.9304    0.3908 C   0  0  0  0  0  0  0  0  0  0  0  0
   -0.7190   -1.1207   -0.9389 O   0  0  0  0  0  0  0  0  0  0  0  0
   -0.7311    0.2738   -0.9429 C   0  0  0  0  0  0  0  0  0  0  0  0
    0.1769    1.1970   -0.3473 C   0  0  0  0  0  0  0  0  0  0  0  0
   -0.2787    2.3581    0.3284 O   0  0  0  0  0  0  0  0  0  0  0  0
    1.4733   -1.1234   -0.8779 H   0  0  0  0  0  0  0  0  0  0  0  0
    2.1756   -0.4531    0.6368 H   0  0  0  0  0  0  0  0  0  0  0  0
    1.1646   -1.9092    0.6803 H   0  0  0  0  0  0  0  0  0  0  0  0
   -1.0309   -1.8085    1.0456 H   0  0  0  0  0  0  0  0  0  0  0  0
   -2.1432   -0.4287    0.4950 H   0  0  0  0  0  0  0  0  0  0  0  0
   -1.8159    0.5722   -0.7981 H   0  0  0  0  0  0  0  0  0  0  0  0
    1.0961    1.4659   -0.9502 H   0  0  0  0  0  0  0  0  0  0  0  0
    0.4838    2.8845    0.6828 H   0  0  0  0  0  0  0  0  0  0  0  0
  1  2  1  0
  2  3  1  0
  3  4  1  0
  4  5  1  0
  5  6  1  0
  6  7  1  0
  5  2  1  0
  6  2  1  0
  1  8  1  0
  1  9  1  0
  1 10  1  0
  3 11  1  0
  3 12  1  0
  5 13  1  0
  6 14  1  0
  7 15  1  0
M  END
