
     RDKit          3D

 21 22  0  0  0  0  0  0  0  0999 V2000
   -2.7438    0.2759    0.0774 C   0  0  0  0  0  0  0  0  0  0  0  0
   -1.3502   -0.1698    0.4178 C   0  0  0  0  0  0  0  0  0  0  0  0
   -0.3041    0.9171    0.2332 C   0  0  0  0  0  0  0  0  0  0  0  0
    1.0325    0.2464    0.4715 C   0  0  0  0  0  0  0  0  0  0  0  0
    1.9857    0.7811   -0.5797 C   0  0  0  0  0  0  0  0  0  0  0  0
    3.2491    0.2521   -0.4810 O   0  0  0  0  0  0  0  0  0  0  0  0
    0.7643   -1.1958    0.1768 C   0  0  0  0  0  0  0  0  0  0  0  0
   -0.7396   -1.3880    0.1970 C   0  0  0  0  0  0  0  0  0  0  0  0
   -1.2628   -1.0247    1.4932 O   0  0  0  0  0  0  0  0  0  0  0  0
   -2.8615    1.3060    0.5241 H   0  0  0  0  0  0  0  0  0  0  0  0
   -2.9089    0.4180   -1.0083 H   0  0  0  0  0  0  0  0  0  0  0  0
   -3.5330   -0.3387    0.5513 H   0  0  0  0  0  0  0  0  0  0  0  0
   -0.4809    1.7865    0.8672 H   0  0  0  0  0  0  0  0  0  0  0  0
   -0.3813    1.2357   -0.8319 H   0  0  0  0  0  0  0  0  0  0  0  0
    1.3416    0.4604    1.4926 H   0  0  0  0  0  0  0  0  0  0  0  0
    2.0494    1.8863   -0.4382 H   0  0  0  0  0  0  0  0  0  0  0  0
    1.5030    0.6165   -1.5671 H   0  0  0  0  0  0  0  0  0  0  0  0
    3.3633   -0.4105    0.2483 H   0  0  0  0  0  0  0  0  0  0  0  0
    1.1637   -1.7902    1.0267 H   0  0  0  0  0  0  0  0  0  0  0  0
    1.2259   -1.5555   -0.7471 H   0  0  0  0  0  0  0  0  0  0  0  0
   -1.1124   -2.3088   -0.2470 H   0  0  0  0  0  0  0  0  0  0  0  0
  1  2  1  0
  2  3  1  0
  3  4  1  0
  4  5  1  0
  5  6  1  0
  4  7  1  0
  7  8  1  0
  8  9  1  0
  8  2  1  0
  9  2  1  0
  1 10  1  0
  1 11  1  0
  1 12  1  0
  3 13  1  0
  3 14  1  0
  4 15  1  0
  5 16  1  0
  5 17  1  0
  6 18  1  0
  7 19  1  0
  7 20  1  0
  8 21  1  0
M  END
