
     RDKit          3D

 23 24  0  0  0  0  0  0  0  0999 V2000
   -1.7119    1.4533   -0.0106 C   0  0  0  0  0  0  0  0  0  0  0  0
   -1.2136    0.1189    0.4788 C   0  0  0  0  0  0  0  0  0  0  0  0
   -2.1153   -0.9106    1.0150 C   0  0  0  0  0  0  0  0  0  0  0  0
   -1.5513   -1.1074   -0.3460 C   0  0  0  0  0  0  0  0  0  0  0  0
   -0.0719   -1.3563   -0.4650 C   0  0  0  0  0  0  0  0  0  0  0  0
    0.2352   -0.2140    0.4489 C   0  0  0  0  0  0  0  0  0  0  0  0
    1.1631    0.8411   -0.0797 C   0  0  0  0  0  0  0  0  0  0  0  0
    2.5798    0.3704   -0.0507 C   0  0  0  0  0  0  0  0  0  0  0  0
    2.7345   -0.7710   -0.8314 O   0  0  0  0  0  0  0  0  0  0  0  0
   -1.0791    1.8640   -0.8201 H   0  0  0  0  0  0  0  0  0  0  0  0
   -2.7293    1.3065   -0.4623 H   0  0  0  0  0  0  0  0  0  0  0  0
   -1.7507    2.1503    0.8511 H   0  0  0  0  0  0  0  0  0  0  0  0
   -3.1595   -0.6418    1.1515 H   0  0  0  0  0  0  0  0  0  0  0  0
   -1.6641   -1.5668    1.8118 H   0  0  0  0  0  0  0  0  0  0  0  0
   -2.1728   -1.0026   -1.2523 H   0  0  0  0  0  0  0  0  0  0  0  0
    0.1876   -2.3617   -0.0779 H   0  0  0  0  0  0  0  0  0  0  0  0
    0.3317   -1.2433   -1.4985 H   0  0  0  0  0  0  0  0  0  0  0  0
    0.5839   -0.5679    1.4358 H   0  0  0  0  0  0  0  0  0  0  0  0
    1.0872    1.7183    0.6269 H   0  0  0  0  0  0  0  0  0  0  0  0
    0.9214    1.1880   -1.0816 H   0  0  0  0  0  0  0  0  0  0  0  0
    3.2432    1.1908   -0.4471 H   0  0  0  0  0  0  0  0  0  0  0  0
    2.8915    0.0886    0.9849 H   0  0  0  0  0  0  0  0  0  0  0  0
    3.2605   -0.5471   -1.6487 H   0  0  0  0  0  0  0  0  0  0  0  0
  1  2  1  0
  2  3  1  0
  3  4  1  0
  4  5  1  0
  5  6  1  0
  6  7  1  0
  7  8  1  0
  8  9  1  0
  4  2  1  0
  6  2  1  0
  1 10  1  0
  1 11  1  0
  1 12  1  0
  3 13  1  0
  3 14  1  0
  4 15  1  0
  5 16  1  0
  5 17  1  0
  6 18  1  0
  7 19  1  0
  7 20  1  0
  8 21  1  0
  8 22  1  0
  9 23  1  0
M  END
