
     RDKit          3D

 17 18  0  0  0  0  0  0  0  0999 V2000
   -0.3809    1.8093    0.1418 C   0  0  0  0  0  0  0  0  0  0  0  0
   -0.3859    0.3740    0.1843 C   0  0  0  0  0  0  0  0  0  0  0  0
   -1.3473   -0.4179   -0.6763 C   0  0  0  0  0  0  0  0  0  0  0  0
   -1.0228   -1.3982    0.4053 C   0  0  0  0  0  0  0  0  0  0  0  0
    0.4408   -1.6447    0.2120 C   0  0  0  0  0  0  0  0  0  0  0  0
    0.8800   -0.3960    0.0793 C   0  0  0  0  0  0  0  0  0  0  0  0
    2.2363    0.1055   -0.1174 C   0  0  0  0  0  0  0  0  0  0  0  0
    3.2269   -0.6760   -0.1882 O   0  0  0  0  0  0  0  0  0  0  0  0
   -0.9880   -0.2875    1.2811 O   0  0  0  0  0  0  0  0  0  0  0  0
   -1.2149    2.2819   -0.4373 H   0  0  0  0  0  0  0  0  0  0  0  0
    0.5530    2.2076   -0.3376 H   0  0  0  0  0  0  0  0  0  0  0  0
   -0.4103    2.3262    1.1456 H   0  0  0  0  0  0  0  0  0  0  0  0
   -0.9825   -0.6437   -1.6870 H   0  0  0  0  0  0  0  0  0  0  0  0
   -2.3692   -0.0157   -0.6194 H   0  0  0  0  0  0  0  0  0  0  0  0
   -1.6600   -2.2046    0.6352 H   0  0  0  0  0  0  0  0  0  0  0  0
    0.9828   -2.5834    0.1882 H   0  0  0  0  0  0  0  0  0  0  0  0
    2.4418    1.1634   -0.2095 H   0  0  0  0  0  0  0  0  0  0  0  0
  1  2  1  0
  2  3  1  0
  3  4  1  0
  4  5  1  0
  5  6  2  0
  6  7  1  0
  7  8  2  0
  4  9  1  0
  6  2  1  0
  9  2  1  0
  1 10  1  0
  1 11  1  0
  1 12  1  0
  3 13  1  0
  3 14  1  0
  4 15  1  0
  5 16  1  0
  7 17  1  0
M  END
