
     RDKit          3D

 19 20  0  0  0  0  0  0  0  0999 V2000
   -0.9875   -1.7056   -0.1223 C   0  0  0  0  0  0  0  0  0  0  0  0
   -0.2082   -0.5181    0.3547 C   0  0  0  0  0  0  0  0  0  0  0  0
   -1.0973    0.6650    0.6208 C   0  0  0  0  0  0  0  0  0  0  0  0
   -0.5821    1.7759   -0.2353 C   0  0  0  0  0  0  0  0  0  0  0  0
    0.7551    1.3449   -0.6851 C   0  0  0  0  0  0  0  0  0  0  0  0
    1.6231    2.1060   -1.0694 O   0  0  0  0  0  0  0  0  0  0  0  0
    0.8548   -0.1113   -0.5923 C   0  0  0  0  0  0  0  0  0  0  0  0
    1.8030   -0.6490    0.4659 C   0  0  0  0  0  0  0  0  0  0  0  0
    0.7267   -0.7570    1.3386 O   0  0  0  0  0  0  0  0  0  0  0  0
   -0.3441   -2.4364   -0.6618 H   0  0  0  0  0  0  0  0  0  0  0  0
   -1.6986   -1.3216   -0.9117 H   0  0  0  0  0  0  0  0  0  0  0  0
   -1.6041   -2.1868    0.6467 H   0  0  0  0  0  0  0  0  0  0  0  0
   -2.1609    0.4292    0.3859 H   0  0  0  0  0  0  0  0  0  0  0  0
   -1.0659    0.9130    1.7165 H   0  0  0  0  0  0  0  0  0  0  0  0
   -1.3005    1.9207   -1.0703 H   0  0  0  0  0  0  0  0  0  0  0  0
   -0.4704    2.7016    0.3859 H   0  0  0  0  0  0  0  0  0  0  0  0
    0.9658   -0.6820   -1.5231 H   0  0  0  0  0  0  0  0  0  0  0  0
    2.5432    0.1388    0.7132 H   0  0  0  0  0  0  0  0  0  0  0  0
    2.2480   -1.6273    0.2430 H   0  0  0  0  0  0  0  0  0  0  0  0
  1  2  1  0
  2  3  1  0
  3  4  1  0
  4  5  1  0
  5  6  2  0
  5  7  1  0
  7  8  1  0
  8  9  1  0
  7  2  1  0
  9  2  1  0
  1 10  1  0
  1 11  1  0
  1 12  1  0
  3 13  1  0
  3 14  1  0
  4 15  1  0
  4 16  1  0
  7 17  1  0
  8 18  1  0
  8 19  1  0
M  END
