
     RDKit          3D

 18 19  0  0  0  0  0  0  0  0999 V2000
    1.6220    0.7691    0.4678 C   0  0  0  0  0  0  0  0  0  0  0  0
    0.4495   -0.0092   -0.0752 C   0  0  0  0  0  0  0  0  0  0  0  0
    0.7338   -1.1543   -0.9430 C   0  0  0  0  0  0  0  0  0  0  0  0
    0.1088   -1.3555    0.4152 C   0  0  0  0  0  0  0  0  0  0  0  0
   -1.2660   -1.5242    0.3794 O   0  0  0  0  0  0  0  0  0  0  0  0
   -1.8434   -0.2615    0.4308 C   0  0  0  0  0  0  0  0  0  0  0  0
   -0.8523    0.7249   -0.0818 C   0  0  0  0  0  0  0  0  0  0  0  0
   -1.1031    1.1885   -1.3552 O   0  0  0  0  0  0  0  0  0  0  0  0
    1.2816    1.7084    0.9956 H   0  0  0  0  0  0  0  0  0  0  0  0
    2.2028    0.1553    1.1597 H   0  0  0  0  0  0  0  0  0  0  0  0
    2.3132    1.1236   -0.3205 H   0  0  0  0  0  0  0  0  0  0  0  0
    1.7873   -1.4686   -1.0212 H   0  0  0  0  0  0  0  0  0  0  0  0
    0.1314   -1.4120   -1.8381 H   0  0  0  0  0  0  0  0  0  0  0  0
    0.6838   -1.8354    1.2276 H   0  0  0  0  0  0  0  0  0  0  0  0
   -2.8153   -0.2576   -0.0858 H   0  0  0  0  0  0  0  0  0  0  0  0
   -2.0161   -0.0548    1.5275 H   0  0  0  0  0  0  0  0  0  0  0  0
   -0.8037    1.5983    0.5901 H   0  0  0  0  0  0  0  0  0  0  0  0
   -0.6144    2.0651   -1.4727 H   0  0  0  0  0  0  0  0  0  0  0  0
  1  2  1  0
  2  3  1  0
  3  4  1  0
  4  5  1  0
  5  6  1  0
  6  7  1  0
  7  8  1  0
  4  2  1  0
  7  2  1  0
  1  9  1  0
  1 10  1  0
  1 11  1  0
  3 12  1  0
  3 13  1  0
  4 14  1  0
  6 15  1  0
  6 16  1  0
  7 17  1  0
  8 18  1  0
M  END
