
     RDKit          3D

 21 23  0  0  0  0  0  0  0  0999 V2000
    2.3831   -0.7667   -0.0436 C   0  0  0  0  0  0  0  0  0  0  0  0
    1.0772   -0.5260    0.6104 C   0  0  0  0  0  0  0  0  0  0  0  0
   -0.0928   -1.4713    0.3430 C   0  0  0  0  0  0  0  0  0  0  0  0
   -0.9143   -0.2700    0.0960 C   0  0  0  0  0  0  0  0  0  0  0  0
   -1.7866   -0.0292   -1.0200 C   0  0  0  0  0  0  0  0  0  0  0  0
   -2.2904   -0.0643    0.4525 C   0  0  0  0  0  0  0  0  0  0  0  0
    0.2322    0.5968    0.5086 C   0  0  0  0  0  0  0  0  0  0  0  0
    0.5004    1.8914   -0.1789 C   0  0  0  0  0  0  0  0  0  0  0  0
    0.9074    0.3173    1.6692 O   0  0  0  0  0  0  0  0  0  0  0  0
    2.4008   -0.4484   -1.1207 H   0  0  0  0  0  0  0  0  0  0  0  0
    3.1500   -0.1421    0.4578 H   0  0  0  0  0  0  0  0  0  0  0  0
    2.7013   -1.8273   -0.0466 H   0  0  0  0  0  0  0  0  0  0  0  0
   -0.3041   -2.0415    1.2939 H   0  0  0  0  0  0  0  0  0  0  0  0
    0.0533   -2.1781   -0.4746 H   0  0  0  0  0  0  0  0  0  0  0  0
   -1.8596    0.9402   -1.5428 H   0  0  0  0  0  0  0  0  0  0  0  0
   -2.1748   -0.8726   -1.6206 H   0  0  0  0  0  0  0  0  0  0  0  0
   -3.0113   -0.8338    0.7207 H   0  0  0  0  0  0  0  0  0  0  0  0
   -2.5801    0.9557    0.8382 H   0  0  0  0  0  0  0  0  0  0  0  0
   -0.3838    2.5623    0.0265 H   0  0  0  0  0  0  0  0  0  0  0  0
    1.3594    2.3898    0.2988 H   0  0  0  0  0  0  0  0  0  0  0  0
    0.6327    1.8176   -1.2677 H   0  0  0  0  0  0  0  0  0  0  0  0
  1  2  1  0
  2  3  1  0
  3  4  1  0
  4  5  1  0
  5  6  1  0
  4  7  1  0
  7  8  1  0
  7  9  1  0
  7  2  1  0
  9  2  1  0
  6  4  1  0
  1 10  1  0
  1 11  1  0
  1 12  1  0
  3 13  1  0
  3 14  1  0
  5 15  1  0
  5 16  1  0
  6 17  1  0
  6 18  1  0
  8 19  1  0
  8 20  1  0
  8 21  1  0
M  END
