
     RDKit          3D

 16 17  0  0  0  0  0  0  0  0999 V2000
    1.8139    0.5308   -0.1664 C   0  0  0  0  0  0  0  0  0  0  0  0
    0.6306   -0.0971    0.4729 C   0  0  0  0  0  0  0  0  0  0  0  0
    0.3727   -1.5823    0.3368 C   0  0  0  0  0  0  0  0  0  0  0  0
   -1.0839   -1.2638    0.3586 C   0  0  0  0  0  0  0  0  0  0  0  0
   -2.1118   -1.8747    0.3272 O   0  0  0  0  0  0  0  0  0  0  0  0
   -0.6982    0.1757    0.4381 C   0  0  0  0  0  0  0  0  0  0  0  0
   -1.4994    1.2053   -0.2806 C   0  0  0  0  0  0  0  0  0  0  0  0
    0.0570    0.5510    1.5625 O   0  0  0  0  0  0  0  0  0  0  0  0
    2.7251    0.2542    0.4408 H   0  0  0  0  0  0  0  0  0  0  0  0
    1.6630    1.6389   -0.1554 H   0  0  0  0  0  0  0  0  0  0  0  0
    1.9324    0.1877   -1.2250 H   0  0  0  0  0  0  0  0  0  0  0  0
    0.7549   -2.1098    1.2318 H   0  0  0  0  0  0  0  0  0  0  0  0
    0.7324   -1.9757   -0.6217 H   0  0  0  0  0  0  0  0  0  0  0  0
   -1.9143    1.9471    0.4462 H   0  0  0  0  0  0  0  0  0  0  0  0
   -0.9755    1.6987   -1.1164 H   0  0  0  0  0  0  0  0  0  0  0  0
   -2.3989    0.7141   -0.7365 H   0  0  0  0  0  0  0  0  0  0  0  0
  1  2  1  0
  2  3  1  0
  3  4  1  0
  4  5  2  0
  4  6  1  0
  6  7  1  0
  6  8  1  0
  6  2  1  0
  8  2  1  0
  1  9  1  0
  1 10  1  0
  1 11  1  0
  3 12  1  0
  3 13  1  0
  7 14  1  0
  7 15  1  0
  7 16  1  0
M  END
