
     RDKit          3D

 19 21  0  0  0  0  0  0  0  0999 V2000
   -2.3731   -0.1241    0.2225 C   0  0  0  0  0  0  0  0  0  0  0  0
   -0.9067    0.0951    0.2058 C   0  0  0  0  0  0  0  0  0  0  0  0
   -0.2993    1.4113    0.0066 C   0  0  0  0  0  0  0  0  0  0  0  0
   -0.5148    2.5329    0.3979 O   0  0  0  0  0  0  0  0  0  0  0  0
    0.7183    0.8064   -0.8939 C   0  0  0  0  0  0  0  0  0  0  0  0
    1.9451    0.2613   -0.2019 C   0  0  0  0  0  0  0  0  0  0  0  0
    1.3912   -0.5185    0.9707 C   0  0  0  0  0  0  0  0  0  0  0  0
    0.0608   -1.0302    0.3961 C   0  0  0  0  0  0  0  0  0  0  0  0
   -0.1248   -0.4359   -0.9176 C   0  0  0  0  0  0  0  0  0  0  0  0
   -2.5594   -1.1901   -0.0967 H   0  0  0  0  0  0  0  0  0  0  0  0
   -2.9236    0.4922   -0.5179 H   0  0  0  0  0  0  0  0  0  0  0  0
   -2.8309   -0.0501    1.2360 H   0  0  0  0  0  0  0  0  0  0  0  0
    0.8978    1.3105   -1.8419 H   0  0  0  0  0  0  0  0  0  0  0  0
    2.6726    1.0167    0.0736 H   0  0  0  0  0  0  0  0  0  0  0  0
    2.3664   -0.5205   -0.9011 H   0  0  0  0  0  0  0  0  0  0  0  0
    2.0435   -1.3376    1.2812 H   0  0  0  0  0  0  0  0  0  0  0  0
    1.1919    0.2150    1.7871 H   0  0  0  0  0  0  0  0  0  0  0  0
   -0.2527   -2.0456    0.5998 H   0  0  0  0  0  0  0  0  0  0  0  0
   -0.5023   -0.8888   -1.8063 H   0  0  0  0  0  0  0  0  0  0  0  0
  1  2  1  0
  2  3  1  0
  3  4  2  0
  3  5  1  0
  5  6  1  0
  6  7  1  0
  7  8  1  0
  8  9  1  0
  8  2  1  0
  9  2  1  0
  9  5  1  0
  1 10  1  0
  1 11  1  0
  1 12  1  0
  5 13  1  0
  6 14  1  0
  6 15  1  0
  7 16  1  0
  7 17  1  0
  8 18  1  0
  9 19  1  0
M  END
