
     RDKit          3D

 21 23  0  0  0  0  0  0  0  0999 V2000
    2.0494    0.0851   -0.2708 C   0  0  0  0  0  0  0  0  0  0  0  0
    0.6139   -0.0629   -0.1406 C   0  0  0  0  0  0  0  0  0  0  0  0
   -0.1470   -0.4924   -1.3714 C   0  0  0  0  0  0  0  0  0  0  0  0
   -1.5458   -0.5645   -0.7408 C   0  0  0  0  0  0  0  0  0  0  0  0
   -1.3988   -0.8800    0.6743 C   0  0  0  0  0  0  0  0  0  0  0  0
    0.1159   -1.0603    0.8779 C   0  0  0  0  0  0  0  0  0  0  0  0
   -1.5587    0.5281    0.3237 C   0  0  0  0  0  0  0  0  0  0  0  0
   -0.1670    1.1710    0.2555 C   0  0  0  0  0  0  0  0  0  0  0  0
    0.2270    1.6918    1.4597 O   0  0  0  0  0  0  0  0  0  0  0  0
    2.5518   -0.8991   -0.0381 H   0  0  0  0  0  0  0  0  0  0  0  0
    2.3080    0.4350   -1.2991 H   0  0  0  0  0  0  0  0  0  0  0  0
    2.4319    0.7888    0.5085 H   0  0  0  0  0  0  0  0  0  0  0  0
    0.0890   -1.5180   -1.6848 H   0  0  0  0  0  0  0  0  0  0  0  0
   -0.1352    0.2476   -2.1751 H   0  0  0  0  0  0  0  0  0  0  0  0
   -2.4094   -0.7309   -1.3589 H   0  0  0  0  0  0  0  0  0  0  0  0
   -2.0841   -1.4711    1.2693 H   0  0  0  0  0  0  0  0  0  0  0  0
    0.4058   -0.7598    1.9060 H   0  0  0  0  0  0  0  0  0  0  0  0
    0.4477   -2.0621    0.5917 H   0  0  0  0  0  0  0  0  0  0  0  0
   -2.4306    1.1376    0.4813 H   0  0  0  0  0  0  0  0  0  0  0  0
   -0.1898    1.9370   -0.5348 H   0  0  0  0  0  0  0  0  0  0  0  0
    0.8261    2.4791    1.2667 H   0  0  0  0  0  0  0  0  0  0  0  0
  1  2  1  0
  2  3  1  0
  3  4  1  0
  4  5  1  0
  5  6  1  0
  5  7  1  0
  7  8  1  0
  8  9  1  0
  6  2  1  0
  8  2  1  0
  7  4  1  0
  1 10  1  0
  1 11  1  0
  1 12  1  0
  3 13  1  0
  3 14  1  0
  4 15  1  0
  5 16  1  0
  6 17  1  0
  6 18  1  0
  7 19  1  0
  8 20  1  0
  9 21  1  0
M  END
