
     RDKit          3D

 18 19  0  0  0  0  0  0  0  0999 V2000
   -0.5309    1.9784   -0.1129 C   0  0  0  0  0  0  0  0  0  0  0  0
   -0.0123    0.6282    0.2493 C   0  0  0  0  0  0  0  0  0  0  0  0
   -0.8746   -0.2242    1.1357 C   0  0  0  0  0  0  0  0  0  0  0  0
   -1.1088   -1.3788    0.5665 C   0  0  0  0  0  0  0  0  0  0  0  0
   -0.4494   -1.4533   -0.7486 C   0  0  0  0  0  0  0  0  0  0  0  0
    0.3899   -0.2308   -0.9132 C   0  0  0  0  0  0  0  0  0  0  0  0
    1.3723    0.2060    0.0860 C   0  0  0  0  0  0  0  0  0  0  0  0
    1.8507   -0.7659    0.9890 O   0  0  0  0  0  0  0  0  0  0  0  0
    0.2781    2.7062   -0.3303 H   0  0  0  0  0  0  0  0  0  0  0  0
   -1.2159    2.3975    0.6670 H   0  0  0  0  0  0  0  0  0  0  0  0
   -1.1586    1.8699   -1.0236 H   0  0  0  0  0  0  0  0  0  0  0  0
   -1.2205    0.1147    2.0886 H   0  0  0  0  0  0  0  0  0  0  0  0
   -1.7010   -2.1777    0.9882 H   0  0  0  0  0  0  0  0  0  0  0  0
   -1.2139   -1.4663   -1.5647 H   0  0  0  0  0  0  0  0  0  0  0  0
    0.1270   -2.3933   -0.8143 H   0  0  0  0  0  0  0  0  0  0  0  0
    0.4727    0.1980   -1.9244 H   0  0  0  0  0  0  0  0  0  0  0  0
    2.1818    0.8862   -0.2509 H   0  0  0  0  0  0  0  0  0  0  0  0
    2.8136   -0.8951    0.9126 H   0  0  0  0  0  0  0  0  0  0  0  0
  1  2  1  0
  2  3  1  0
  3  4  2  0
  4  5  1  0
  5  6  1  0
  6  7  1  0
  7  8  1  0
  6  2  1  0
  7  2  1  0
  1  9  1  0
  1 10  1  0
  1 11  1  0
  3 12  1  0
  4 13  1  0
  5 14  1  0
  5 15  1  0
  6 16  1  0
  7 17  1  0
  8 18  1  0
M  END
