
     RDKit          3D

 21 23  0  0  0  0  0  0  0  0999 V2000
   -0.3272    2.0489   -0.0433 C   0  0  0  0  0  0  0  0  0  0  0  0
    0.2778    0.7217    0.3273 C   0  0  0  0  0  0  0  0  0  0  0  0
    1.5243    0.8016    0.9308 O   0  0  0  0  0  0  0  0  0  0  0  0
    2.1391    0.0410   -0.0802 C   0  0  0  0  0  0  0  0  0  0  0  0
    0.8253   -0.0959   -0.7980 C   0  0  0  0  0  0  0  0  0  0  0  0
    0.2874   -1.4956   -0.6572 C   0  0  0  0  0  0  0  0  0  0  0  0
   -0.8387   -1.4307    0.3367 C   0  0  0  0  0  0  0  0  0  0  0  0
   -1.9479   -0.4915    0.1624 C   0  0  0  0  0  0  0  0  0  0  0  0
   -0.7346   -0.1430    1.0211 C   0  0  0  0  0  0  0  0  0  0  0  0
   -1.3506    1.8636   -0.4337 H   0  0  0  0  0  0  0  0  0  0  0  0
   -0.4688    2.6250    0.9121 H   0  0  0  0  0  0  0  0  0  0  0  0
    0.2593    2.6268   -0.7605 H   0  0  0  0  0  0  0  0  0  0  0  0
    2.8746    0.5937   -0.6827 H   0  0  0  0  0  0  0  0  0  0  0  0
    2.5204   -0.9000    0.3971 H   0  0  0  0  0  0  0  0  0  0  0  0
    0.7496    0.3621   -1.7895 H   0  0  0  0  0  0  0  0  0  0  0  0
   -0.0289   -1.9458   -1.6072 H   0  0  0  0  0  0  0  0  0  0  0  0
    1.0482   -2.2019   -0.2237 H   0  0  0  0  0  0  0  0  0  0  0  0
   -1.0191   -2.3209    1.0013 H   0  0  0  0  0  0  0  0  0  0  0  0
   -2.0468   -0.0170   -0.8321 H   0  0  0  0  0  0  0  0  0  0  0  0
   -2.8771   -0.6458    0.7209 H   0  0  0  0  0  0  0  0  0  0  0  0
   -0.8663    0.0039    2.0982 H   0  0  0  0  0  0  0  0  0  0  0  0
  1  2  1  0
  2  3  1  0
  3  4  1  0
  4  5  1  0
  5  6  1  0
  6  7  1  0
  7  8  1  0
  8  9  1  0
  5  2  1  0
  9  7  1  0
  9  2  1  0
  1 10  1  0
  1 11  1  0
  1 12  1  0
  4 13  1  0
  4 14  1  0
  5 15  1  0
  6 16  1  0
  6 17  1  0
  7 18  1  0
  8 19  1  0
  8 20  1  0
  9 21  1  0
M  END
