
     RDKit          3D

 19 21  0  0  0  0  0  0  0  0999 V2000
    2.2386    0.3416    0.1798 C   0  0  0  0  0  0  0  0  0  0  0  0
    0.8081    0.1165   -0.1126 C   0  0  0  0  0  0  0  0  0  0  0  0
    0.2758   -1.2880    0.1022 C   0  0  0  0  0  0  0  0  0  0  0  0
   -1.1815   -0.9582    0.4447 C   0  0  0  0  0  0  0  0  0  0  0  0
   -1.8106   -0.1672   -0.6619 C   0  0  0  0  0  0  0  0  0  0  0  0
   -0.8666    1.0427   -0.6948 C   0  0  0  0  0  0  0  0  0  0  0  0
    0.3245    0.6838   -1.2924 O   0  0  0  0  0  0  0  0  0  0  0  0
   -0.1984    0.9389    0.6396 C   0  0  0  0  0  0  0  0  0  0  0  0
   -0.9582    0.0461    1.4107 O   0  0  0  0  0  0  0  0  0  0  0  0
    2.8835   -0.5323    0.1798 H   0  0  0  0  0  0  0  0  0  0  0  0
    2.3812    0.8774    1.1579 H   0  0  0  0  0  0  0  0  0  0  0  0
    2.6354    1.0707   -0.5850 H   0  0  0  0  0  0  0  0  0  0  0  0
    0.3412   -1.9173   -0.7880 H   0  0  0  0  0  0  0  0  0  0  0  0
    0.7226   -1.7233    1.0111 H   0  0  0  0  0  0  0  0  0  0  0  0
   -1.7413   -1.7990    0.8084 H   0  0  0  0  0  0  0  0  0  0  0  0
   -2.8246    0.1329   -0.3237 H   0  0  0  0  0  0  0  0  0  0  0  0
   -1.8477   -0.6848   -1.6270 H   0  0  0  0  0  0  0  0  0  0  0  0
   -1.3223    1.9830   -0.9752 H   0  0  0  0  0  0  0  0  0  0  0  0
    0.1402    1.8365    1.1264 H   0  0  0  0  0  0  0  0  0  0  0  0
  1  2  1  0
  2  3  1  0
  3  4  1  0
  4  5  1  0
  5  6  1  0
  6  7  1  0
  6  8  1  0
  8  9  1  0
  7  2  1  0
  8  2  1  0
  9  4  1  0
  1 10  1  0
  1 11  1  0
  1 12  1  0
  3 13  1  0
  3 14  1  0
  4 15  1  0
  5 16  1  0
  5 17  1  0
  6 18  1  0
  8 19  1  0
M  END
