
     RDKit          3D

 19 20  0  0  0  0  0  0  0  0999 V2000
   -1.6804   -0.8606   -0.8816 C   0  0  0  0  0  0  0  0  0  0  0  0
   -0.5765   -0.3882    0.0052 C   0  0  0  0  0  0  0  0  0  0  0  0
    0.3207   -1.3406    0.6775 C   0  0  0  0  0  0  0  0  0  0  0  0
    1.5209   -0.8380    0.8643 C   0  0  0  0  0  0  0  0  0  0  0  0
    1.6115    0.5584    0.3336 C   0  0  0  0  0  0  0  0  0  0  0  0
    2.6574    0.6899   -0.5673 O   0  0  0  0  0  0  0  0  0  0  0  0
    0.2730    0.7700   -0.3102 C   0  0  0  0  0  0  0  0  0  0  0  0
   -0.8738    0.9392    0.7004 C   0  0  0  0  0  0  0  0  0  0  0  0
   -1.9190    1.6933    0.2315 O   0  0  0  0  0  0  0  0  0  0  0  0
   -1.4264   -1.7181   -1.5142 H   0  0  0  0  0  0  0  0  0  0  0  0
   -2.5362   -1.1866   -0.2213 H   0  0  0  0  0  0  0  0  0  0  0  0
   -2.0429    0.0274   -1.4661 H   0  0  0  0  0  0  0  0  0  0  0  0
    0.0205   -2.3378    0.9803 H   0  0  0  0  0  0  0  0  0  0  0  0
    2.3392   -1.3665    1.3410 H   0  0  0  0  0  0  0  0  0  0  0  0
    1.7702    1.3016    1.1399 H   0  0  0  0  0  0  0  0  0  0  0  0
    2.7638   -0.1462   -1.1070 H   0  0  0  0  0  0  0  0  0  0  0  0
    0.1847    1.2776   -1.2824 H   0  0  0  0  0  0  0  0  0  0  0  0
   -0.6321    0.9125    1.7723 H   0  0  0  0  0  0  0  0  0  0  0  0
   -1.7747    2.0131   -0.6959 H   0  0  0  0  0  0  0  0  0  0  0  0
  1  2  1  0
  2  3  1  0
  3  4  2  0
  4  5  1  0
  5  6  1  0
  5  7  1  0
  7  8  1  0
  8  9  1  0
  7  2  1  0
  8  2  1  0
  1 10  1  0
  1 11  1  0
  1 12  1  0
  3 13  1  0
  4 14  1  0
  5 15  1  0
  6 16  1  0
  7 17  1  0
  8 18  1  0
  9 19  1  0
M  END
