
     RDKit          3D

 15 16  0  0  0  0  0  0  0  0999 V2000
    1.5889   -0.3729   -0.7350 C   0  0  0  0  0  0  0  0  0  0  0  0
    0.4126    0.1851    0.0098 C   0  0  0  0  0  0  0  0  0  0  0  0
    0.2162   -0.2722    1.4013 C   0  0  0  0  0  0  0  0  0  0  0  0
   -0.7631   -0.6575    0.3513 C   0  0  0  0  0  0  0  0  0  0  0  0
   -1.6837    0.4253   -0.1504 C   0  0  0  0  0  0  0  0  0  0  0  0
   -0.4790    1.1658   -0.6052 C   0  0  0  0  0  0  0  0  0  0  0  0
   -0.3026    2.1868   -1.2399 O   0  0  0  0  0  0  0  0  0  0  0  0
    1.6253   -0.0839   -1.8001 H   0  0  0  0  0  0  0  0  0  0  0  0
    2.5101    0.0822   -0.2735 H   0  0  0  0  0  0  0  0  0  0  0  0
    1.5787   -1.4727   -0.6130 H   0  0  0  0  0  0  0  0  0  0  0  0
    0.8664   -1.0897    1.7538 H   0  0  0  0  0  0  0  0  0  0  0  0
   -0.0920    0.4788    2.1601 H   0  0  0  0  0  0  0  0  0  0  0  0
   -0.8542   -1.6825   -0.0132 H   0  0  0  0  0  0  0  0  0  0  0  0
   -2.3969    0.1390   -0.9216 H   0  0  0  0  0  0  0  0  0  0  0  0
   -2.2266    0.9683    0.6757 H   0  0  0  0  0  0  0  0  0  0  0  0
  1  2  1  0
  2  3  1  0
  3  4  1  0
  4  5  1  0
  5  6  1  0
  6  7  2  0
  4  2  1  0
  6  2  1  0
  1  8  1  0
  1  9  1  0
  1 10  1  0
  3 11  1  0
  3 12  1  0
  4 13  1  0
  5 14  1  0
  5 15  1  0
M  END
