
     RDKit          3D

 23 24  0  0  0  0  0  0  0  0999 V2000
   -0.5502   -1.0049    1.3743 C   0  0  0  0  0  0  0  0  0  0  0  0
   -0.4561   -0.4479   -0.0184 C   0  0  0  0  0  0  0  0  0  0  0  0
    0.6988   -0.8996   -0.8471 C   0  0  0  0  0  0  0  0  0  0  0  0
    1.9664   -0.2212   -0.4688 C   0  0  0  0  0  0  0  0  0  0  0  0
    1.7815    0.8420    0.5796 C   0  0  0  0  0  0  0  0  0  0  0  0
    0.5894    1.6904    0.2230 C   0  0  0  0  0  0  0  0  0  0  0  0
   -0.5628    1.0620   -0.0857 C   0  0  0  0  0  0  0  0  0  0  0  0
   -1.9678    0.9451   -0.4782 C   0  0  0  0  0  0  0  0  0  0  0  0
   -1.7532   -0.5096   -0.7838 C   0  0  0  0  0  0  0  0  0  0  0  0
    0.3066   -1.6514    1.6474 H   0  0  0  0  0  0  0  0  0  0  0  0
   -1.5074   -1.5930    1.4301 H   0  0  0  0  0  0  0  0  0  0  0  0
   -0.6523   -0.2225    2.1568 H   0  0  0  0  0  0  0  0  0  0  0  0
    0.7819   -2.0050   -0.7026 H   0  0  0  0  0  0  0  0  0  0  0  0
    0.4300   -0.7375   -1.9280 H   0  0  0  0  0  0  0  0  0  0  0  0
    2.5042    0.2239   -1.3337 H   0  0  0  0  0  0  0  0  0  0  0  0
    2.6550   -0.9769   -0.0279 H   0  0  0  0  0  0  0  0  0  0  0  0
    2.6373    1.5506    0.6197 H   0  0  0  0  0  0  0  0  0  0  0  0
    1.5943    0.3711    1.5585 H   0  0  0  0  0  0  0  0  0  0  0  0
    0.6085    2.7692    0.2016 H   0  0  0  0  0  0  0  0  0  0  0  0
   -2.3016    1.5788   -1.3272 H   0  0  0  0  0  0  0  0  0  0  0  0
   -2.6319    1.1183    0.3974 H   0  0  0  0  0  0  0  0  0  0  0  0
   -1.6312   -0.7477   -1.8659 H   0  0  0  0  0  0  0  0  0  0  0  0
   -2.5395   -1.1343   -0.3208 H   0  0  0  0  0  0  0  0  0  0  0  0
  1  2  1  0
  2  3  1  0
  3  4  1  0
  4  5  1  0
  5  6  1  0
  6  7  2  0
  7  8  1  0
  8  9  1  0
  7  2  1  0
  9  2  1  0
  1 10  1  0
  1 11  1  0
  1 12  1  0
  3 13  1  0
  3 14  1  0
  4 15  1  0
  4 16  1  0
  5 17  1  0
  5 18  1  0
  6 19  1  0
  8 20  1  0
  8 21  1  0
  9 22  1  0
  9 23  1  0
M  END
