
     RDKit          3D

 19 20  0  0  0  0  0  0  0  0999 V2000
    1.9514    0.0308   -0.6298 C   0  0  0  0  0  0  0  0  0  0  0  0
    0.6157    0.1944   -0.1610 C   0  0  0  0  0  0  0  0  0  0  0  0
    0.2328    1.2554    0.7962 C   0  0  0  0  0  0  0  0  0  0  0  0
   -1.1000    1.0435    0.9436 C   0  0  0  0  0  0  0  0  0  0  0  0
   -1.3532   -0.1156    0.0873 C   0  0  0  0  0  0  0  0  0  0  0  0
   -2.5392   -0.6611   -0.0497 O   0  0  0  0  0  0  0  0  0  0  0  0
   -0.5450    0.2581   -1.1628 C   0  0  0  0  0  0  0  0  0  0  0  0
   -0.1466   -1.0064    0.4158 C   0  0  0  0  0  0  0  0  0  0  0  0
   -0.0450   -1.1483    1.7776 O   0  0  0  0  0  0  0  0  0  0  0  0
    2.7030    0.4747    0.0277 H   0  0  0  0  0  0  0  0  0  0  0  0
    2.1993   -1.0472   -0.8114 H   0  0  0  0  0  0  0  0  0  0  0  0
    2.0946    0.5239   -1.6356 H   0  0  0  0  0  0  0  0  0  0  0  0
    0.8498    2.0126    1.2656 H   0  0  0  0  0  0  0  0  0  0  0  0
   -1.7972    1.6051    1.5521 H   0  0  0  0  0  0  0  0  0  0  0  0
   -2.6590   -1.1239   -0.9035 H   0  0  0  0  0  0  0  0  0  0  0  0
   -0.4800   -0.5248   -1.9178 H   0  0  0  0  0  0  0  0  0  0  0  0
   -0.8120    1.2684   -1.4673 H   0  0  0  0  0  0  0  0  0  0  0  0
   -0.0570   -1.9035   -0.1948 H   0  0  0  0  0  0  0  0  0  0  0  0
    0.8874   -1.1360    2.0678 H   0  0  0  0  0  0  0  0  0  0  0  0
  1  2  1  0
  2  3  1  0
  3  4  2  0
  4  5  1  0
  5  6  1  0
  5  7  1  0
  5  8  1  0
  8  9  1  0
  7  2  1  0
  8  2  1  0
  1 10  1  0
  1 11  1  0
  1 12  1  0
  3 13  1  0
  4 14  1  0
  6 15  1  0
  7 16  1  0
  7 17  1  0
  8 18  1  0
  9 19  1  0
M  END
