
     RDKit          3D

 19 20  0  0  0  0  0  0  0  0999 V2000
   -0.8602    1.4672   -0.3615 C   0  0  0  0  0  0  0  0  0  0  0  0
   -0.7079    0.1856    0.3833 C   0  0  0  0  0  0  0  0  0  0  0  0
    0.3245    0.2363    1.4870 C   0  0  0  0  0  0  0  0  0  0  0  0
    1.4684    0.8027    0.9192 O   0  0  0  0  0  0  0  0  0  0  0  0
    1.9705    0.1210   -0.1634 C   0  0  0  0  0  0  0  0  0  0  0  0
    1.0876   -0.9023   -0.7195 C   0  0  0  0  0  0  0  0  0  0  0  0
   -0.2226   -0.9476   -0.5058 C   0  0  0  0  0  0  0  0  0  0  0  0
   -1.6471   -1.3191   -0.4979 C   0  0  0  0  0  0  0  0  0  0  0  0
   -1.8729   -0.5148    0.6516 O   0  0  0  0  0  0  0  0  0  0  0  0
    0.0942    1.7973   -0.7713 H   0  0  0  0  0  0  0  0  0  0  0  0
   -1.5890    1.2853   -1.2015 H   0  0  0  0  0  0  0  0  0  0  0  0
   -1.3137    2.2096    0.3367 H   0  0  0  0  0  0  0  0  0  0  0  0
    0.0236    0.9111    2.3125 H   0  0  0  0  0  0  0  0  0  0  0  0
    0.5469   -0.8001    1.8445 H   0  0  0  0  0  0  0  0  0  0  0  0
    2.9315   -0.3621    0.1816 H   0  0  0  0  0  0  0  0  0  0  0  0
    2.2904    0.8484   -0.9552 H   0  0  0  0  0  0  0  0  0  0  0  0
    1.4863   -1.6872   -1.3474 H   0  0  0  0  0  0  0  0  0  0  0  0
   -1.8610   -2.3728   -0.1933 H   0  0  0  0  0  0  0  0  0  0  0  0
   -2.1495   -0.9585   -1.3996 H   0  0  0  0  0  0  0  0  0  0  0  0
  1  2  1  0
  2  3  1  0
  3  4  1  0
  4  5  1  0
  5  6  1  0
  6  7  2  0
  7  8  1  0
  8  9  1  0
  7  2  1  0
  9  2  1  0
  1 10  1  0
  1 11  1  0
  1 12  1  0
  3 13  1  0
  3 14  1  0
  5 15  1  0
  5 16  1  0
  6 17  1  0
  8 18  1  0
  8 19  1  0
M  END
