
     RDKit          3D

 19 20  0  0  0  0  0  0  0  0999 V2000
   -1.9026    0.5862   -0.9119 C   0  0  0  0  0  0  0  0  0  0  0  0
   -1.0524    0.1874    0.2370 C   0  0  0  0  0  0  0  0  0  0  0  0
   -1.4766   -0.6680    1.3381 C   0  0  0  0  0  0  0  0  0  0  0  0
   -0.7134   -1.3254    0.2711 C   0  0  0  0  0  0  0  0  0  0  0  0
    0.6661   -1.2829    0.1930 O   0  0  0  0  0  0  0  0  0  0  0  0
    1.0090   -0.0414   -0.3456 C   0  0  0  0  0  0  0  0  0  0  0  0
    2.4752    0.1954   -0.0934 C   0  0  0  0  0  0  0  0  0  0  0  0
    2.9337    1.3898   -0.5790 O   0  0  0  0  0  0  0  0  0  0  0  0
    0.1915    0.8137    0.3703 O   0  0  0  0  0  0  0  0  0  0  0  0
   -1.4820    1.5373   -1.3534 H   0  0  0  0  0  0  0  0  0  0  0  0
   -2.9691    0.6673   -0.7073 H   0  0  0  0  0  0  0  0  0  0  0  0
   -1.8001   -0.1627   -1.7521 H   0  0  0  0  0  0  0  0  0  0  0  0
   -2.5113   -1.0038    1.4986 H   0  0  0  0  0  0  0  0  0  0  0  0
   -0.9246   -0.5481    2.3154 H   0  0  0  0  0  0  0  0  0  0  0  0
   -1.2588   -1.9781   -0.4236 H   0  0  0  0  0  0  0  0  0  0  0  0
    0.7551    0.0445   -1.4042 H   0  0  0  0  0  0  0  0  0  0  0  0
    2.7102    0.0708    0.9682 H   0  0  0  0  0  0  0  0  0  0  0  0
    3.0204   -0.6252   -0.6385 H   0  0  0  0  0  0  0  0  0  0  0  0
    2.3295    2.1431   -0.3714 H   0  0  0  0  0  0  0  0  0  0  0  0
  1  2  1  0
  2  3  1  0
  3  4  1  0
  4  5  1  0
  5  6  1  0
  6  7  1  0
  7  8  1  0
  6  9  1  0
  4  2  1  0
  9  2  1  0
  1 10  1  0
  1 11  1  0
  1 12  1  0
  3 13  1  0
  3 14  1  0
  4 15  1  0
  6 16  1  0
  7 17  1  0
  7 18  1  0
  8 19  1  0
M  END
