
     RDKit          3D

 21 22  0  0  0  0  0  0  0  0999 V2000
   -2.1172    0.9014    0.1524 C   0  0  0  0  0  0  0  0  0  0  0  0
   -0.7876    0.2739    0.0788 C   0  0  0  0  0  0  0  0  0  0  0  0
   -0.6540   -0.8806   -0.8460 C   0  0  0  0  0  0  0  0  0  0  0  0
    0.4026   -1.7370   -0.1298 C   0  0  0  0  0  0  0  0  0  0  0  0
    0.8202   -0.8027    0.9795 C   0  0  0  0  0  0  0  0  0  0  0  0
   -0.4425   -0.2696    1.3379 O   0  0  0  0  0  0  0  0  0  0  0  0
    1.5179    0.4324    0.4741 C   0  0  0  0  0  0  0  0  0  0  0  0
    2.4855    0.1578   -0.4672 O   0  0  0  0  0  0  0  0  0  0  0  0
    0.3567    1.2206   -0.1502 C   0  0  0  0  0  0  0  0  0  0  0  0
   -2.6098    1.0547   -0.8161 H   0  0  0  0  0  0  0  0  0  0  0  0
   -2.0483    1.8431    0.7260 H   0  0  0  0  0  0  0  0  0  0  0  0
   -2.7918    0.2343    0.7642 H   0  0  0  0  0  0  0  0  0  0  0  0
   -0.1512   -0.5496   -1.7959 H   0  0  0  0  0  0  0  0  0  0  0  0
   -1.5710   -1.4408   -1.0366 H   0  0  0  0  0  0  0  0  0  0  0  0
   -0.1481   -2.5698    0.3368 H   0  0  0  0  0  0  0  0  0  0  0  0
    1.2097   -2.0401   -0.7914 H   0  0  0  0  0  0  0  0  0  0  0  0
    1.3075   -1.2870    1.8188 H   0  0  0  0  0  0  0  0  0  0  0  0
    1.8554    1.0169    1.3304 H   0  0  0  0  0  0  0  0  0  0  0  0
    2.5892    0.9693   -1.0276 H   0  0  0  0  0  0  0  0  0  0  0  0
    0.2297    2.2016    0.3023 H   0  0  0  0  0  0  0  0  0  0  0  0
    0.5472    1.2712   -1.2405 H   0  0  0  0  0  0  0  0  0  0  0  0
  1  2  1  0
  2  3  1  0
  3  4  1  0
  4  5  1  0
  5  6  1  0
  5  7  1  0
  7  8  1  0
  7  9  1  0
  6  2  1  0
  9  2  1  0
  1 10  1  0
  1 11  1  0
  1 12  1  0
  3 13  1  0
  3 14  1  0
  4 15  1  0
  4 16  1  0
  5 17  1  0
  7 18  1  0
  8 19  1  0
  9 20  1  0
  9 21  1  0
M  END
