
     RDKit          3D

 18 20  0  0  0  0  0  0  0  0999 V2000
    2.1051    0.1111    0.2533 C   0  0  0  0  0  0  0  0  0  0  0  0
    0.6954    0.1694   -0.2153 C   0  0  0  0  0  0  0  0  0  0  0  0
    0.0717   -1.1795   -0.5865 C   0  0  0  0  0  0  0  0  0  0  0  0
   -1.4028   -1.0021   -0.4540 C   0  0  0  0  0  0  0  0  0  0  0  0
   -1.6095    0.3928    0.0984 C   0  0  0  0  0  0  0  0  0  0  0  0
   -0.7194    1.5020   -0.4336 C   0  0  0  0  0  0  0  0  0  0  0  0
    0.3780    1.0957   -1.1820 O   0  0  0  0  0  0  0  0  0  0  0  0
   -0.3294    0.7124    0.7199 C   0  0  0  0  0  0  0  0  0  0  0  0
    2.7043    0.8397   -0.3670 H   0  0  0  0  0  0  0  0  0  0  0  0
    2.2408    0.3427    1.3258 H   0  0  0  0  0  0  0  0  0  0  0  0
    2.4887   -0.9174    0.0742 H   0  0  0  0  0  0  0  0  0  0  0  0
    0.4914   -1.9499    0.1088 H   0  0  0  0  0  0  0  0  0  0  0  0
    0.4006   -1.4804   -1.5983 H   0  0  0  0  0  0  0  0  0  0  0  0
   -1.9679   -1.1954   -1.3713 H   0  0  0  0  0  0  0  0  0  0  0  0
   -1.7766   -1.7249    0.3222 H   0  0  0  0  0  0  0  0  0  0  0  0
   -2.5822    0.7112    0.4482 H   0  0  0  0  0  0  0  0  0  0  0  0
   -1.0459    2.5373   -0.4110 H   0  0  0  0  0  0  0  0  0  0  0  0
   -0.1420    1.0353    1.7169 H   0  0  0  0  0  0  0  0  0  0  0  0
  1  2  1  0
  2  3  1  0
  3  4  1  0
  4  5  1  0
  5  6  1  0
  6  7  1  0
  6  8  1  0
  7  2  1  0
  8  2  1  0
  8  5  1  0
  1  9  1  0
  1 10  1  0
  1 11  1  0
  3 12  1  0
  3 13  1  0
  4 14  1  0
  4 15  1  0
  5 16  1  0
  6 17  1  0
  8 18  1  0
M  END
