
     RDKit          3D

 21 22  0  0  0  0  0  0  0  0999 V2000
   -0.7023    1.1232    1.0853 C   0  0  0  0  0  0  0  0  0  0  0  0
   -0.4489    0.3204   -0.1451 C   0  0  0  0  0  0  0  0  0  0  0  0
   -1.6893   -0.2908   -0.7207 C   0  0  0  0  0  0  0  0  0  0  0  0
   -1.4814   -1.2930    0.4427 C   0  0  0  0  0  0  0  0  0  0  0  0
   -0.0520   -1.1265    0.1277 C   0  0  0  0  0  0  0  0  0  0  0  0
    1.2318   -1.2015   -0.1031 C   0  0  0  0  0  0  0  0  0  0  0  0
    1.8311    0.0924   -0.5344 C   0  0  0  0  0  0  0  0  0  0  0  0
    2.3383    0.7056    0.5956 O   0  0  0  0  0  0  0  0  0  0  0  0
    0.6098    0.8245   -1.0767 C   0  0  0  0  0  0  0  0  0  0  0  0
   -0.3499    2.1681    0.8818 H   0  0  0  0  0  0  0  0  0  0  0  0
   -0.1520    0.7480    1.9795 H   0  0  0  0  0  0  0  0  0  0  0  0
   -1.7974    1.2295    1.3010 H   0  0  0  0  0  0  0  0  0  0  0  0
   -1.5160   -0.8650   -1.6604 H   0  0  0  0  0  0  0  0  0  0  0  0
   -2.6125    0.2738   -0.6622 H   0  0  0  0  0  0  0  0  0  0  0  0
   -1.7191   -0.8591    1.4251 H   0  0  0  0  0  0  0  0  0  0  0  0
   -1.9272   -2.2795    0.2508 H   0  0  0  0  0  0  0  0  0  0  0  0
    1.8611   -2.1055   -0.0052 H   0  0  0  0  0  0  0  0  0  0  0  0
    2.5571   -0.0902   -1.3254 H   0  0  0  0  0  0  0  0  0  0  0  0
    2.8349    0.0623    1.1611 H   0  0  0  0  0  0  0  0  0  0  0  0
    0.4305    0.6569   -2.1331 H   0  0  0  0  0  0  0  0  0  0  0  0
    0.7535    1.9062   -0.8841 H   0  0  0  0  0  0  0  0  0  0  0  0
  1  2  1  0
  2  3  1  0
  3  4  1  0
  4  5  1  0
  5  6  2  0
  6  7  1  0
  7  8  1  0
  7  9  1  0
  5  2  1  0
  9  2  1  0
  1 10  1  0
  1 11  1  0
  1 12  1  0
  3 13  1  0
  3 14  1  0
  4 15  1  0
  4 16  1  0
  6 17  1  0
  7 18  1  0
  8 19  1  0
  9 20  1  0
  9 21  1  0
M  END
