
     RDKit          3D

 23 25  0  0  0  0  0  0  0  0999 V2000
   -1.9439   -0.9583    0.1509 C   0  0  0  0  0  0  0  0  0  0  0  0
   -0.5993   -0.5583   -0.3530 C   0  0  0  0  0  0  0  0  0  0  0  0
    0.5030   -1.5515   -0.1114 C   0  0  0  0  0  0  0  0  0  0  0  0
    1.4972   -0.7739    0.7077 C   0  0  0  0  0  0  0  0  0  0  0  0
    2.4037    0.1138   -0.0662 C   0  0  0  0  0  0  0  0  0  0  0  0
    1.2056    0.6638    0.5672 C   0  0  0  0  0  0  0  0  0  0  0  0
   -0.1140    0.7954   -0.0915 C   0  0  0  0  0  0  0  0  0  0  0  0
   -1.0675    1.8478    0.4850 C   0  0  0  0  0  0  0  0  0  0  0  0
   -0.3980    0.3784   -1.4695 C   0  0  0  0  0  0  0  0  0  0  0  0
   -2.7742   -0.3204   -0.1748 H   0  0  0  0  0  0  0  0  0  0  0  0
   -1.8721   -1.0230    1.2710 H   0  0  0  0  0  0  0  0  0  0  0  0
   -2.1223   -2.0160   -0.1783 H   0  0  0  0  0  0  0  0  0  0  0  0
    0.9155   -1.8323   -1.1173 H   0  0  0  0  0  0  0  0  0  0  0  0
    0.1608   -2.4785    0.3512 H   0  0  0  0  0  0  0  0  0  0  0  0
    1.7754   -1.1874    1.6912 H   0  0  0  0  0  0  0  0  0  0  0  0
    3.3806    0.3193    0.3827 H   0  0  0  0  0  0  0  0  0  0  0  0
    2.4620   -0.0302   -1.1744 H   0  0  0  0  0  0  0  0  0  0  0  0
    1.3792    1.3208    1.4651 H   0  0  0  0  0  0  0  0  0  0  0  0
   -2.1031    1.4645    0.5497 H   0  0  0  0  0  0  0  0  0  0  0  0
   -1.1185    2.7336   -0.1983 H   0  0  0  0  0  0  0  0  0  0  0  0
   -0.7279    2.1499    1.4927 H   0  0  0  0  0  0  0  0  0  0  0  0
   -1.2741    0.8001   -1.9813 H   0  0  0  0  0  0  0  0  0  0  0  0
    0.4318    0.1421   -2.1982 H   0  0  0  0  0  0  0  0  0  0  0  0
  1  2  1  0
  2  3  1  0
  3  4  1  0
  4  5  1  0
  5  6  1  0
  6  7  1  0
  7  8  1  0
  7  9  1  0
  7  2  1  0
  9  2  1  0
  6  4  1  0
  1 10  1  0
  1 11  1  0
  1 12  1  0
  3 13  1  0
  3 14  1  0
  4 15  1  0
  5 16  1  0
  5 17  1  0
  6 18  1  0
  8 19  1  0
  8 20  1  0
  8 21  1  0
  9 22  1  0
  9 23  1  0
M  END
