
     RDKit          3D

 19 22  0  0  0  0  0  0  0  0999 V2000
    1.9501   -0.9546   -0.3925 C   0  0  0  0  0  0  0  0  0  0  0  0
    0.9313    0.0140    0.0621 C   0  0  0  0  0  0  0  0  0  0  0  0
    1.2061    0.8456    1.1490 O   0  0  0  0  0  0  0  0  0  0  0  0
    0.0166    1.5323    1.3988 C   0  0  0  0  0  0  0  0  0  0  0  0
   -0.6685    1.7228    0.1037 C   0  0  0  0  0  0  0  0  0  0  0  0
   -1.1149    0.6745    0.9799 C   0  0  0  0  0  0  0  0  0  0  0  0
   -0.4657   -0.3708    0.1520 C   0  0  0  0  0  0  0  0  0  0  0  0
   -1.1482   -1.4501   -0.5413 C   0  0  0  0  0  0  0  0  0  0  0  0
    0.0398    0.7721   -0.7912 C   0  0  0  0  0  0  0  0  0  0  0  0
    2.3519   -0.6626   -1.3841 H   0  0  0  0  0  0  0  0  0  0  0  0
    1.4993   -1.9830   -0.4059 H   0  0  0  0  0  0  0  0  0  0  0  0
    2.8252   -1.0065    0.2891 H   0  0  0  0  0  0  0  0  0  0  0  0
   -0.0412    2.2115    2.2370 H   0  0  0  0  0  0  0  0  0  0  0  0
   -1.1732    2.6111   -0.2148 H   0  0  0  0  0  0  0  0  0  0  0  0
   -2.0425    0.5658    1.5026 H   0  0  0  0  0  0  0  0  0  0  0  0
   -0.9766   -1.4248   -1.6567 H   0  0  0  0  0  0  0  0  0  0  0  0
   -2.2615   -1.3287   -0.4359 H   0  0  0  0  0  0  0  0  0  0  0  0
   -0.7970   -2.4385   -0.2079 H   0  0  0  0  0  0  0  0  0  0  0  0
   -0.1310    0.6700   -1.8440 H   0  0  0  0  0  0  0  0  0  0  0  0
  1  2  1  0
  2  3  1  0
  3  4  1  0
  4  5  1  0
  5  6  1  0
  6  7  1  0
  7  8  1  0
  7  9  1  0
  7  2  1  0
  9  2  1  0
  6  4  1  0
  9  5  1  0
  1 10  1  0
  1 11  1  0
  1 12  1  0
  4 13  1  0
  5 14  1  0
  6 15  1  0
  8 16  1  0
  8 17  1  0
  8 18  1  0
  9 19  1  0
M  END
