
     RDKit          3D

 19 21  0  0  0  0  0  0  0  0999 V2000
   -2.0689   -0.7407   -0.5102 C   0  0  0  0  0  0  0  0  0  0  0  0
   -0.7106   -0.1508   -0.3661 C   0  0  0  0  0  0  0  0  0  0  0  0
    0.5079   -1.0480   -0.3298 C   0  0  0  0  0  0  0  0  0  0  0  0
    1.4168   -0.4251    0.7138 C   0  0  0  0  0  0  0  0  0  0  0  0
    2.7496   -0.5603    0.4271 O   0  0  0  0  0  0  0  0  0  0  0  0
    0.9641    1.0345    0.7478 C   0  0  0  0  0  0  0  0  0  0  0  0
    0.9266    1.6288   -0.5321 O   0  0  0  0  0  0  0  0  0  0  0  0
   -0.4091    1.2594   -0.7303 C   0  0  0  0  0  0  0  0  0  0  0  0
   -0.5111    0.8686    0.6616 C   0  0  0  0  0  0  0  0  0  0  0  0
   -2.2041   -1.3121   -1.4453 H   0  0  0  0  0  0  0  0  0  0  0  0
   -2.8078    0.0866   -0.4705 H   0  0  0  0  0  0  0  0  0  0  0  0
   -2.3368   -1.4050    0.3618 H   0  0  0  0  0  0  0  0  0  0  0  0
    1.0286   -0.8885   -1.3190 H   0  0  0  0  0  0  0  0  0  0  0  0
    0.2808   -2.0920   -0.1523 H   0  0  0  0  0  0  0  0  0  0  0  0
    1.1546   -0.8267    1.7274 H   0  0  0  0  0  0  0  0  0  0  0  0
    2.9387   -0.1636   -0.4367 H   0  0  0  0  0  0  0  0  0  0  0  0
    1.3834    1.6429    1.5399 H   0  0  0  0  0  0  0  0  0  0  0  0
   -1.0895    1.8958   -1.2847 H   0  0  0  0  0  0  0  0  0  0  0  0
   -1.2131    1.1964    1.3977 H   0  0  0  0  0  0  0  0  0  0  0  0
  1  2  1  0
  2  3  1  0
  3  4  1  0
  4  5  1  0
  4  6  1  0
  6  7  1  0
  7  8  1  0
  8  9  1  0
  8  2  1  0
  9  2  1  0
  9  6  1  0
  1 10  1  0
  1 11  1  0
  1 12  1  0
  3 13  1  0
  3 14  1  0
  4 15  1  0
  5 16  1  0
  6 17  1  0
  8 18  1  0
  9 19  1  0
M  END
