
     RDKit          3D

 21 22  0  0  0  0  0  0  0  0999 V2000
   -2.4322    0.2450    0.0951 C   0  0  0  0  0  0  0  0  0  0  0  0
   -1.0644   -0.0879    0.3140 C   0  0  0  0  0  0  0  0  0  0  0  0
   -0.6025   -1.0565    1.3503 C   0  0  0  0  0  0  0  0  0  0  0  0
    0.8068   -0.9370    1.2013 O   0  0  0  0  0  0  0  0  0  0  0  0
    0.9202   -0.1245    0.1160 C   0  0  0  0  0  0  0  0  0  0  0  0
    2.2129    0.2290   -0.4425 C   0  0  0  0  0  0  0  0  0  0  0  0
    2.9678    0.8921    0.5394 O   0  0  0  0  0  0  0  0  0  0  0  0
   -0.1868   -0.5280   -0.8695 C   0  0  0  0  0  0  0  0  0  0  0  0
   -0.0236    1.0316    0.4775 C   0  0  0  0  0  0  0  0  0  0  0  0
   -2.6419    0.4589   -0.9842 H   0  0  0  0  0  0  0  0  0  0  0  0
   -3.1302   -0.5077    0.4697 H   0  0  0  0  0  0  0  0  0  0  0  0
   -2.7085    1.2064    0.6201 H   0  0  0  0  0  0  0  0  0  0  0  0
   -0.8161   -2.1116    1.0708 H   0  0  0  0  0  0  0  0  0  0  0  0
   -0.9090   -0.8096    2.3770 H   0  0  0  0  0  0  0  0  0  0  0  0
    2.7724   -0.6767   -0.7071 H   0  0  0  0  0  0  0  0  0  0  0  0
    2.0795    0.8936   -1.3179 H   0  0  0  0  0  0  0  0  0  0  0  0
    3.2081    0.1700    1.2021 H   0  0  0  0  0  0  0  0  0  0  0  0
   -0.2327   -1.6075   -1.0608 H   0  0  0  0  0  0  0  0  0  0  0  0
   -0.2213    0.1411   -1.7254 H   0  0  0  0  0  0  0  0  0  0  0  0
    0.0971    1.3875    1.5076 H   0  0  0  0  0  0  0  0  0  0  0  0
   -0.0956    1.7917   -0.3176 H   0  0  0  0  0  0  0  0  0  0  0  0
  1  2  1  0
  2  3  1  0
  3  4  1  0
  4  5  1  0
  5  6  1  0
  6  7  1  0
  5  8  1  0
  5  9  1  0
  8  2  1  0
  9  2  1  0
  1 10  1  0
  1 11  1  0
  1 12  1  0
  3 13  1  0
  3 14  1  0
  6 15  1  0
  6 16  1  0
  7 17  1  0
  8 18  1  0
  8 19  1  0
  9 20  1  0
  9 21  1  0
M  END
