
     RDKit          3D

 21 24  0  0  0  0  0  0  0  0999 V2000
   -2.3267    0.5539   -0.5242 C   0  0  0  0  0  0  0  0  0  0  0  0
   -1.1115    0.1685    0.1184 C   0  0  0  0  0  0  0  0  0  0  0  0
   -0.8435   -0.5373    1.3305 C   0  0  0  0  0  0  0  0  0  0  0  0
   -0.6264   -1.3079    0.1465 C   0  0  0  0  0  0  0  0  0  0  0  0
    0.7444   -0.7799    0.0238 C   0  0  0  0  0  0  0  0  0  0  0  0
    1.9408   -1.4547   -0.3818 C   0  0  0  0  0  0  0  0  0  0  0  0
    0.5605   -0.0924    1.2784 C   0  0  0  0  0  0  0  0  0  0  0  0
    0.2699    0.5500   -0.1037 C   0  0  0  0  0  0  0  0  0  0  0  0
    0.8684    1.7920   -0.4750 C   0  0  0  0  0  0  0  0  0  0  0  0
   -2.3269    0.6362   -1.6282 H   0  0  0  0  0  0  0  0  0  0  0  0
   -3.1534   -0.1825   -0.2937 H   0  0  0  0  0  0  0  0  0  0  0  0
   -2.7005    1.5148   -0.0910 H   0  0  0  0  0  0  0  0  0  0  0  0
   -1.4338   -0.7121    2.1926 H   0  0  0  0  0  0  0  0  0  0  0  0
   -1.1760   -1.9465   -0.4601 H   0  0  0  0  0  0  0  0  0  0  0  0
    1.9601   -2.5144   -0.0007 H   0  0  0  0  0  0  0  0  0  0  0  0
    2.8488   -0.9815    0.0834 H   0  0  0  0  0  0  0  0  0  0  0  0
    2.1245   -1.5574   -1.4835 H   0  0  0  0  0  0  0  0  0  0  0  0
    1.1765    0.3541    1.9770 H   0  0  0  0  0  0  0  0  0  0  0  0
    0.9864    1.9060   -1.5694 H   0  0  0  0  0  0  0  0  0  0  0  0
    1.9114    1.9145   -0.0579 H   0  0  0  0  0  0  0  0  0  0  0  0
    0.3067    2.6764   -0.0815 H   0  0  0  0  0  0  0  0  0  0  0  0
  1  2  1  0
  2  3  1  0
  3  4  1  0
  4  5  1  0
  5  6  1  0
  5  7  1  0
  7  8  1  0
  8  9  1  0
  4  2  1  0
  8  5  1  0
  8  2  1  0
  7  3  1  0
  1 10  1  0
  1 11  1  0
  1 12  1  0
  3 13  1  0
  4 14  1  0
  6 15  1  0
  6 16  1  0
  6 17  1  0
  7 18  1  0
  9 19  1  0
  9 20  1  0
  9 21  1  0
M  END
