
     RDKit          3D

 17 19  0  0  0  0  0  0  0  0999 V2000
    2.1627    0.3378    0.1278 C   0  0  0  0  0  0  0  0  0  0  0  0
    0.8354   -0.0230   -0.4272 C   0  0  0  0  0  0  0  0  0  0  0  0
    0.6630   -1.0150   -1.3514 O   0  0  0  0  0  0  0  0  0  0  0  0
    0.2470   -1.4154   -0.1162 C   0  0  0  0  0  0  0  0  0  0  0  0
   -1.0660   -0.9375    0.4583 C   0  0  0  0  0  0  0  0  0  0  0  0
   -0.6106    0.1101    1.2944 O   0  0  0  0  0  0  0  0  0  0  0  0
   -0.3317    0.7849    0.0821 C   0  0  0  0  0  0  0  0  0  0  0  0
   -1.5640    0.1305   -0.4635 C   0  0  0  0  0  0  0  0  0  0  0  0
   -2.7023    0.7467    0.0313 O   0  0  0  0  0  0  0  0  0  0  0  0
    2.8651   -0.4817    0.2591 H   0  0  0  0  0  0  0  0  0  0  0  0
    2.6306    1.0872   -0.5600 H   0  0  0  0  0  0  0  0  0  0  0  0
    2.0422    0.8177    1.1399 H   0  0  0  0  0  0  0  0  0  0  0  0
    0.8758   -1.9797    0.5786 H   0  0  0  0  0  0  0  0  0  0  0  0
   -1.7398   -1.6448    0.8810 H   0  0  0  0  0  0  0  0  0  0  0  0
   -0.2589    1.8474    0.1186 H   0  0  0  0  0  0  0  0  0  0  0  0
   -1.5667   -0.0913   -1.5391 H   0  0  0  0  0  0  0  0  0  0  0  0
   -2.4819    1.7262    0.0884 H   0  0  0  0  0  0  0  0  0  0  0  0
  1  2  1  0
  2  3  1  0
  3  4  1  0
  4  5  1  0
  5  6  1  0
  6  7  1  0
  7  8  1  0
  8  9  1  0
  4  2  1  0
  8  5  1  0
  7  2  1  0
  1 10  1  0
  1 11  1  0
  1 12  1  0
  4 13  1  0
  5 14  1  0
  7 15  1  0
  8 16  1  0
  9 17  1  0
M  END
