
     RDKit          3D

 19 20  0  0  0  0  0  0  0  0999 V2000
    2.1478    0.0282   -0.3999 C   0  0  0  0  0  0  0  0  0  0  0  0
    0.7467    0.2738   -0.1230 C   0  0  0  0  0  0  0  0  0  0  0  0
    0.4391    0.7977    1.2591 C   0  0  0  0  0  0  0  0  0  0  0  0
   -0.8292    0.4989    1.5232 C   0  0  0  0  0  0  0  0  0  0  0  0
   -1.3709   -0.1734    0.3454 C   0  0  0  0  0  0  0  0  0  0  0  0
   -1.3267    0.8029   -0.8145 C   0  0  0  0  0  0  0  0  0  0  0  0
    0.0402    1.0406   -1.0081 O   0  0  0  0  0  0  0  0  0  0  0  0
   -0.1263   -0.9974   -0.0604 C   0  0  0  0  0  0  0  0  0  0  0  0
   -0.2803   -1.5683   -1.2981 O   0  0  0  0  0  0  0  0  0  0  0  0
    2.4424   -0.9947   -0.0194 H   0  0  0  0  0  0  0  0  0  0  0  0
    2.3207    0.1014   -1.5064 H   0  0  0  0  0  0  0  0  0  0  0  0
    2.7882    0.7510    0.1566 H   0  0  0  0  0  0  0  0  0  0  0  0
    1.1488    1.3176    1.8908 H   0  0  0  0  0  0  0  0  0  0  0  0
   -1.3601    0.7113    2.4333 H   0  0  0  0  0  0  0  0  0  0  0  0
   -2.2566   -0.7513    0.4424 H   0  0  0  0  0  0  0  0  0  0  0  0
   -1.7125    0.2800   -1.7193 H   0  0  0  0  0  0  0  0  0  0  0  0
   -1.9003    1.6933   -0.5825 H   0  0  0  0  0  0  0  0  0  0  0  0
    0.1839   -1.6646    0.7383 H   0  0  0  0  0  0  0  0  0  0  0  0
   -1.0950   -2.1470   -1.2574 H   0  0  0  0  0  0  0  0  0  0  0  0
  1  2  1  0
  2  3  1  0
  3  4  2  0
  4  5  1  0
  5  6  1  0
  6  7  1  0
  5  8  1  0
  8  9  1  0
  7  2  1  0
  8  2  1  0
  1 10  1  0
  1 11  1  0
  1 12  1  0
  3 13  1  0
  4 14  1  0
  5 15  1  0
  6 16  1  0
  6 17  1  0
  8 18  1  0
  9 19  1  0
M  END
