
     RDKit          3D

 19 21  0  0  0  0  0  0  0  0999 V2000
    2.4842    0.5196    0.2089 C   0  0  0  0  0  0  0  0  0  0  0  0
    1.1599    0.2430   -0.3975 C   0  0  0  0  0  0  0  0  0  0  0  0
    0.9477   -0.7637   -1.3002 O   0  0  0  0  0  0  0  0  0  0  0  0
    0.5792   -1.1302   -0.0303 C   0  0  0  0  0  0  0  0  0  0  0  0
   -0.4792   -0.4025    0.7292 C   0  0  0  0  0  0  0  0  0  0  0  0
   -1.8940   -0.5942    0.2363 C   0  0  0  0  0  0  0  0  0  0  0  0
   -1.9047    0.2474   -1.0146 C   0  0  0  0  0  0  0  0  0  0  0  0
   -0.9902    1.2471   -0.8406 O   0  0  0  0  0  0  0  0  0  0  0  0
   -0.0924    0.9028    0.1243 C   0  0  0  0  0  0  0  0  0  0  0  0
    2.3393    1.1753    1.1011 H   0  0  0  0  0  0  0  0  0  0  0  0
    3.2060    1.0042   -0.4904 H   0  0  0  0  0  0  0  0  0  0  0  0
    2.9962   -0.3941    0.5993 H   0  0  0  0  0  0  0  0  0  0  0  0
    1.2387   -1.8675    0.4484 H   0  0  0  0  0  0  0  0  0  0  0  0
   -0.3679   -0.3785    1.8265 H   0  0  0  0  0  0  0  0  0  0  0  0
   -2.5955   -0.2324    1.0100 H   0  0  0  0  0  0  0  0  0  0  0  0
   -2.1201   -1.6522    0.0602 H   0  0  0  0  0  0  0  0  0  0  0  0
   -1.7149   -0.3766   -1.9310 H   0  0  0  0  0  0  0  0  0  0  0  0
   -2.9010    0.7187   -1.1894 H   0  0  0  0  0  0  0  0  0  0  0  0
    0.1087    1.7339    0.8499 H   0  0  0  0  0  0  0  0  0  0  0  0
  1  2  1  0
  2  3  1  0
  3  4  1  0
  4  5  1  0
  5  6  1  0
  6  7  1  0
  7  8  1  0
  8  9  1  0
  4  2  1  0
  9  5  1  0
  9  2  1  0
  1 10  1  0
  1 11  1  0
  1 12  1  0
  4 13  1  0
  5 14  1  0
  6 15  1  0
  6 16  1  0
  7 17  1  0
  7 18  1  0
  9 19  1  0
M  END
