
     RDKit          3D

 17 18  0  0  0  0  0  0  0  0999 V2000
    1.8566    0.1002    0.5402 C   0  0  0  0  0  0  0  0  0  0  0  0
    0.4890    0.1192    0.1217 C   0  0  0  0  0  0  0  0  0  0  0  0
   -0.0878   -1.0802   -0.6454 C   0  0  0  0  0  0  0  0  0  0  0  0
   -1.4109   -0.5014   -0.1873 C   0  0  0  0  0  0  0  0  0  0  0  0
   -0.6417   -0.1193    1.0859 C   0  0  0  0  0  0  0  0  0  0  0  0
   -1.4273    0.7975   -0.8992 C   0  0  0  0  0  0  0  0  0  0  0  0
   -2.4066    1.2865   -1.4852 O   0  0  0  0  0  0  0  0  0  0  0  0
   -0.0509    1.2491   -0.6951 C   0  0  0  0  0  0  0  0  0  0  0  0
    0.5599    2.2761   -1.0704 O   0  0  0  0  0  0  0  0  0  0  0  0
    2.4861    0.7090   -0.1558 H   0  0  0  0  0  0  0  0  0  0  0  0
    1.9837    0.3990    1.5915 H   0  0  0  0  0  0  0  0  0  0  0  0
    2.2719   -0.9425    0.4704 H   0  0  0  0  0  0  0  0  0  0  0  0
    0.0129   -0.9797   -1.7295 H   0  0  0  0  0  0  0  0  0  0  0  0
    0.1342   -2.0489   -0.1889 H   0  0  0  0  0  0  0  0  0  0  0  0
   -2.2623   -1.0996   -0.1082 H   0  0  0  0  0  0  0  0  0  0  0  0
   -1.0097    0.8076    1.5686 H   0  0  0  0  0  0  0  0  0  0  0  0
   -0.4970   -0.9724    1.7866 H   0  0  0  0  0  0  0  0  0  0  0  0
  1  2  1  0
  2  3  1  0
  3  4  1  0
  4  5  1  0
  4  6  1  0
  6  7  2  0
  6  8  1  0
  8  9  2  0
  5  2  1  0
  8  2  1  0
  1 10  1  0
  1 11  1  0
  1 12  1  0
  3 13  1  0
  3 14  1  0
  4 15  1  0
  5 16  1  0
  5 17  1  0
M  END
