
     RDKit          3D

 15 17  0  0  0  0  0  0  0  0999 V2000
   -1.9328   -0.1096   -0.0841 C   0  0  0  0  0  0  0  0  0  0  0  0
   -0.5452    0.0631   -0.5905 C   0  0  0  0  0  0  0  0  0  0  0  0
   -0.0269   -0.7339   -1.5883 O   0  0  0  0  0  0  0  0  0  0  0  0
    0.3678   -1.1145   -0.3405 C   0  0  0  0  0  0  0  0  0  0  0  0
    1.5572   -0.5661    0.3453 C   0  0  0  0  0  0  0  0  0  0  0  0
    2.4284    0.2988   -0.2658 O   0  0  0  0  0  0  0  0  0  0  0  0
    1.4152    0.8779    0.4652 C   0  0  0  0  0  0  0  0  0  0  0  0
    0.2346    1.2850   -0.3076 C   0  0  0  0  0  0  0  0  0  0  0  0
   -0.0972    2.3951   -0.6768 O   0  0  0  0  0  0  0  0  0  0  0  0
   -2.6753    0.5721   -0.5002 H   0  0  0  0  0  0  0  0  0  0  0  0
   -2.2079   -1.1856   -0.1982 H   0  0  0  0  0  0  0  0  0  0  0  0
   -1.9085    0.0575    1.0291 H   0  0  0  0  0  0  0  0  0  0  0  0
   -0.0556   -2.0749    0.0119 H   0  0  0  0  0  0  0  0  0  0  0  0
    1.8632   -1.1152    1.2689 H   0  0  0  0  0  0  0  0  0  0  0  0
    1.5831    1.3502    1.4316 H   0  0  0  0  0  0  0  0  0  0  0  0
  1  2  1  0
  2  3  1  0
  3  4  1  0
  4  5  1  0
  5  6  1  0
  6  7  1  0
  7  8  1  0
  8  9  2  0
  4  2  1  0
  7  5  1  0
  8  2  1  0
  1 10  1  0
  1 11  1  0
  1 12  1  0
  4 13  1  0
  5 14  1  0
  7 15  1  0
M  END
