
     RDKit          3D

 16 17  0  0  0  0  0  0  0  0999 V2000
    1.7131   -0.1228   -0.5903 C   0  0  0  0  0  0  0  0  0  0  0  0
    0.4050   -0.1454    0.1403 C   0  0  0  0  0  0  0  0  0  0  0  0
   -0.5878   -1.2261   -0.0596 C   0  0  0  0  0  0  0  0  0  0  0  0
   -1.6637   -0.1590   -0.2264 C   0  0  0  0  0  0  0  0  0  0  0  0
   -0.6099    0.9101   -0.0698 C   0  0  0  0  0  0  0  0  0  0  0  0
    0.1906    0.8919    1.1613 C   0  0  0  0  0  0  0  0  0  0  0  0
    1.7311   -0.7211   -1.5110 H   0  0  0  0  0  0  0  0  0  0  0  0
    2.4953   -0.4718    0.1071 H   0  0  0  0  0  0  0  0  0  0  0  0
    1.9315    0.9604   -0.8100 H   0  0  0  0  0  0  0  0  0  0  0  0
   -0.4589   -1.7790   -0.9985 H   0  0  0  0  0  0  0  0  0  0  0  0
   -0.8002   -1.8271    0.8491 H   0  0  0  0  0  0  0  0  0  0  0  0
   -2.3742   -0.1034    0.6178 H   0  0  0  0  0  0  0  0  0  0  0  0
   -2.1343   -0.1490   -1.2238 H   0  0  0  0  0  0  0  0  0  0  0  0
   -0.5062    1.7125   -0.8024 H   0  0  0  0  0  0  0  0  0  0  0  0
   -0.2545    0.5347    2.1213 H   0  0  0  0  0  0  0  0  0  0  0  0
    0.9232    1.6950    1.2950 H   0  0  0  0  0  0  0  0  0  0  0  0
  1  2  1  0
  2  3  1  0
  3  4  1  0
  4  5  1  0
  5  6  1  0
  5  2  1  0
  6  2  1  0
  1  7  1  0
  1  8  1  0
  1  9  1  0
  3 10  1  0
  3 11  1  0
  4 12  1  0
  4 13  1  0
  5 14  1  0
  6 15  1  0
  6 16  1  0
M  END
