
     RDKit          3D

 17 18  0  0  0  0  0  0  0  0999 V2000
    1.6569   -0.5818   -0.5065 C   0  0  0  0  0  0  0  0  0  0  0  0
    0.4444   -0.0627    0.2207 C   0  0  0  0  0  0  0  0  0  0  0  0
   -0.5396   -1.1049    0.6708 C   0  0  0  0  0  0  0  0  0  0  0  0
   -1.7735   -0.5165    0.5853 O   0  0  0  0  0  0  0  0  0  0  0  0
   -1.7662    0.4123   -0.4206 C   0  0  0  0  0  0  0  0  0  0  0  0
   -0.3645    0.8751   -0.6351 C   0  0  0  0  0  0  0  0  0  0  0  0
    0.0807    1.9216    0.2005 O   0  0  0  0  0  0  0  0  0  0  0  0
    0.6606    1.0640    1.1170 C   0  0  0  0  0  0  0  0  0  0  0  0
    1.1564    1.2420    2.2498 O   0  0  0  0  0  0  0  0  0  0  0  0
    2.1577    0.2799   -0.9905 H   0  0  0  0  0  0  0  0  0  0  0  0
    2.2975   -1.1240    0.1972 H   0  0  0  0  0  0  0  0  0  0  0  0
    1.3150   -1.2373   -1.3460 H   0  0  0  0  0  0  0  0  0  0  0  0
   -0.4281   -2.0094    0.0390 H   0  0  0  0  0  0  0  0  0  0  0  0
   -0.3298   -1.3571    1.7480 H   0  0  0  0  0  0  0  0  0  0  0  0
   -2.4195    1.2566   -0.1138 H   0  0  0  0  0  0  0  0  0  0  0  0
   -2.1494   -0.0237   -1.3592 H   0  0  0  0  0  0  0  0  0  0  0  0
    0.0014    0.9659   -1.6564 H   0  0  0  0  0  0  0  0  0  0  0  0
  1  2  1  0
  2  3  1  0
  3  4  1  0
  4  5  1  0
  5  6  1  0
  6  7  1  0
  7  8  1  0
  8  9  2  0
  6  2  1  0
  8  2  1  0
  1 10  1  0
  1 11  1  0
  1 12  1  0
  3 13  1  0
  3 14  1  0
  5 15  1  0
  5 16  1  0
  6 17  1  0
M  END
