
     RDKit          3D

 23 24  0  0  0  0  0  0  0  0999 V2000
   -1.0087    1.1328   -1.1996 C   0  0  0  0  0  0  0  0  0  0  0  0
   -0.8087    0.1633   -0.1291 C   0  0  0  0  0  0  0  0  0  0  0  0
   -1.3712   -1.2214   -0.2918 C   0  0  0  0  0  0  0  0  0  0  0  0
    0.0057   -1.7582    0.0985 C   0  0  0  0  0  0  0  0  0  0  0  0
    0.5125   -0.3580    0.2274 C   0  0  0  0  0  0  0  0  0  0  0  0
    1.7093   -0.0230   -0.5786 C   0  0  0  0  0  0  0  0  0  0  0  0
    2.0039    1.3102   -0.6603 O   0  0  0  0  0  0  0  0  0  0  0  0
    0.4680    0.2693    1.5759 C   0  0  0  0  0  0  0  0  0  0  0  0
   -0.9621    0.6915    1.2983 C   0  0  0  0  0  0  0  0  0  0  0  0
   -1.4414    2.0794   -0.7628 H   0  0  0  0  0  0  0  0  0  0  0  0
   -1.8002    0.7703   -1.9186 H   0  0  0  0  0  0  0  0  0  0  0  0
   -0.1589    1.4319   -1.8015 H   0  0  0  0  0  0  0  0  0  0  0  0
   -2.1374   -1.5227    0.4450 H   0  0  0  0  0  0  0  0  0  0  0  0
   -1.6120   -1.4552   -1.3537 H   0  0  0  0  0  0  0  0  0  0  0  0
   -0.0055   -2.2613    1.0907 H   0  0  0  0  0  0  0  0  0  0  0  0
    0.5008   -2.3121   -0.7187 H   0  0  0  0  0  0  0  0  0  0  0  0
    2.5906   -0.5257   -0.0885 H   0  0  0  0  0  0  0  0  0  0  0  0
    1.6682   -0.4372   -1.5985 H   0  0  0  0  0  0  0  0  0  0  0  0
    2.9462    1.5105   -0.8300 H   0  0  0  0  0  0  0  0  0  0  0  0
    0.5670   -0.5059    2.3748 H   0  0  0  0  0  0  0  0  0  0  0  0
    1.1837    1.0975    1.7106 H   0  0  0  0  0  0  0  0  0  0  0  0
   -1.7314    0.1425    1.8638 H   0  0  0  0  0  0  0  0  0  0  0  0
   -1.1185    1.7814    1.2465 H   0  0  0  0  0  0  0  0  0  0  0  0
  1  2  1  0
  2  3  1  0
  3  4  1  0
  4  5  1  0
  5  6  1  0
  6  7  1  0
  5  8  1  0
  8  9  1  0
  5  2  1  0
  9  2  1  0
  1 10  1  0
  1 11  1  0
  1 12  1  0
  3 13  1  0
  3 14  1  0
  4 15  1  0
  4 16  1  0
  6 17  1  0
  6 18  1  0
  7 19  1  0
  8 20  1  0
  8 21  1  0
  9 22  1  0
  9 23  1  0
M  END
