
     RDKit          3D

 17 18  0  0  0  0  0  0  0  0999 V2000
   -2.1715   -0.9231   -0.4069 C   0  0  0  0  0  0  0  0  0  0  0  0
   -1.0367   -0.0555    0.0225 C   0  0  0  0  0  0  0  0  0  0  0  0
    0.2082   -0.7068    0.5452 C   0  0  0  0  0  0  0  0  0  0  0  0
    1.3053    0.2732    0.2755 C   0  0  0  0  0  0  0  0  0  0  0  0
    2.6843    0.0799    0.6981 C   0  0  0  0  0  0  0  0  0  0  0  0
    3.5691    0.9378    0.4444 O   0  0  0  0  0  0  0  0  0  0  0  0
    0.8301    1.3057   -0.3863 C   0  0  0  0  0  0  0  0  0  0  0  0
   -0.6201    1.1516   -0.6397 C   0  0  0  0  0  0  0  0  0  0  0  0
   -1.4007    1.2029    0.4993 O   0  0  0  0  0  0  0  0  0  0  0  0
   -1.8954   -1.5339   -1.2878 H   0  0  0  0  0  0  0  0  0  0  0  0
   -3.0847   -0.3185   -0.5825 H   0  0  0  0  0  0  0  0  0  0  0  0
   -2.3686   -1.6648    0.4200 H   0  0  0  0  0  0  0  0  0  0  0  0
    0.1610   -1.0242    1.5868 H   0  0  0  0  0  0  0  0  0  0  0  0
    0.4341   -1.5839   -0.1257 H   0  0  0  0  0  0  0  0  0  0  0  0
    3.0031   -0.7962    1.2402 H   0  0  0  0  0  0  0  0  0  0  0  0
    1.4170    2.1419   -0.6973 H   0  0  0  0  0  0  0  0  0  0  0  0
   -1.0344    1.5138   -1.6070 H   0  0  0  0  0  0  0  0  0  0  0  0
  1  2  1  0
  2  3  1  0
  3  4  1  0
  4  5  1  0
  5  6  2  0
  4  7  2  0
  7  8  1  0
  8  9  1  0
  8  2  1  0
  9  2  1  0
  1 10  1  0
  1 11  1  0
  1 12  1  0
  3 13  1  0
  3 14  1  0
  5 15  1  0
  7 16  1  0
  8 17  1  0
M  END
