
     RDKit          3D

 17 18  0  0  0  0  0  0  0  0999 V2000
   -1.5667    0.0221    0.8156 C   0  0  0  0  0  0  0  0  0  0  0  0
   -0.9761    0.0457   -0.5745 C   0  0  0  0  0  0  0  0  0  0  0  0
   -0.2388    1.2480   -0.8692 C   0  0  0  0  0  0  0  0  0  0  0  0
    0.9990    1.2982   -0.3198 C   0  0  0  0  0  0  0  0  0  0  0  0
    1.4562    0.1687    0.4906 C   0  0  0  0  0  0  0  0  0  0  0  0
    2.3696    0.3717    1.3075 O   0  0  0  0  0  0  0  0  0  0  0  0
    0.8207   -1.1659    0.3114 C   0  0  0  0  0  0  0  0  0  0  0  0
    0.0365   -1.0703   -0.9378 C   0  0  0  0  0  0  0  0  0  0  0  0
   -1.2252   -1.0524   -1.2567 O   0  0  0  0  0  0  0  0  0  0  0  0
   -1.0797    0.7329    1.5064 H   0  0  0  0  0  0  0  0  0  0  0  0
   -2.6130    0.4293    0.6720 H   0  0  0  0  0  0  0  0  0  0  0  0
   -1.6933   -0.9716    1.2335 H   0  0  0  0  0  0  0  0  0  0  0  0
   -0.5843    2.0655   -1.4637 H   0  0  0  0  0  0  0  0  0  0  0  0
    1.6547    2.1479   -0.4620 H   0  0  0  0  0  0  0  0  0  0  0  0
    1.6269   -1.9417    0.1503 H   0  0  0  0  0  0  0  0  0  0  0  0
    0.2840   -1.4728    1.2059 H   0  0  0  0  0  0  0  0  0  0  0  0
    0.7295   -0.8555   -1.8096 H   0  0  0  0  0  0  0  0  0  0  0  0
  1  2  1  0
  2  3  1  0
  3  4  2  0
  4  5  1  0
  5  6  2  0
  5  7  1  0
  7  8  1  0
  8  9  1  0
  8  2  1  0
  9  2  1  0
  1 10  1  0
  1 11  1  0
  1 12  1  0
  3 13  1  0
  4 14  1  0
  7 15  1  0
  7 16  1  0
  8 17  1  0
M  END
