
     RDKit          3D

 19 21  0  0  0  0  0  0  0  0999 V2000
   -2.0183   -0.7886   -0.4257 C   0  0  0  0  0  0  0  0  0  0  0  0
   -0.5343   -0.6583   -0.4042 C   0  0  0  0  0  0  0  0  0  0  0  0
    0.0825   -0.4896   -1.6292 O   0  0  0  0  0  0  0  0  0  0  0  0
    1.0967    0.2378   -1.0217 C   0  0  0  0  0  0  0  0  0  0  0  0
    2.0738   -0.7560   -0.3800 C   0  0  0  0  0  0  0  0  0  0  0  0
    1.5638   -1.1064    0.8370 O   0  0  0  0  0  0  0  0  0  0  0  0
    0.2162   -0.7510    0.8655 C   0  0  0  0  0  0  0  0  0  0  0  0
    0.1720    0.4995    0.1163 C   0  0  0  0  0  0  0  0  0  0  0  0
   -0.3608    1.7778    0.5172 C   0  0  0  0  0  0  0  0  0  0  0  0
   -2.5226    0.1833   -0.6946 H   0  0  0  0  0  0  0  0  0  0  0  0
   -2.2695   -1.4978   -1.2682 H   0  0  0  0  0  0  0  0  0  0  0  0
   -2.3554   -1.1771    0.5384 H   0  0  0  0  0  0  0  0  0  0  0  0
    1.5357    1.0630   -1.5587 H   0  0  0  0  0  0  0  0  0  0  0  0
    3.0958   -0.3722   -0.3762 H   0  0  0  0  0  0  0  0  0  0  0  0
    2.0934   -1.6900   -1.0149 H   0  0  0  0  0  0  0  0  0  0  0  0
   -0.3500   -0.8884    1.7708 H   0  0  0  0  0  0  0  0  0  0  0  0
    0.4449    2.5622    0.4953 H   0  0  0  0  0  0  0  0  0  0  0  0
   -0.7259    1.7495    1.5649 H   0  0  0  0  0  0  0  0  0  0  0  0
   -1.2378    2.1023   -0.1085 H   0  0  0  0  0  0  0  0  0  0  0  0
  1  2  1  0
  2  3  1  0
  3  4  1  0
  4  5  1  0
  5  6  1  0
  6  7  1  0
  7  8  1  0
  8  9  1  0
  7  2  1  0
  8  2  1  0
  8  4  1  0
  1 10  1  0
  1 11  1  0
  1 12  1  0
  4 13  1  0
  5 14  1  0
  5 15  1  0
  7 16  1  0
  9 17  1  0
  9 18  1  0
  9 19  1  0
M  END
