
     RDKit          3D

 21 22  0  0  0  0  0  0  0  0999 V2000
   -0.5671    1.9291    0.7449 C   0  0  0  0  0  0  0  0  0  0  0  0
   -0.3509    0.6469   -0.0534 C   0  0  0  0  0  0  0  0  0  0  0  0
    1.0347    0.6069   -0.5923 C   0  0  0  0  0  0  0  0  0  0  0  0
    1.5377   -0.7567   -0.9353 C   0  0  0  0  0  0  0  0  0  0  0  0
    1.1617   -1.6894    0.1909 C   0  0  0  0  0  0  0  0  0  0  0  0
   -0.2061   -1.7455    0.2636 O   0  0  0  0  0  0  0  0  0  0  0  0
   -0.8346   -0.5855    0.5925 C   0  0  0  0  0  0  0  0  0  0  0  0
   -2.0869   -0.4035   -0.2746 C   0  0  0  0  0  0  0  0  0  0  0  0
   -1.3618    0.5322   -1.0033 O   0  0  0  0  0  0  0  0  0  0  0  0
   -1.4837    2.4561    0.4578 H   0  0  0  0  0  0  0  0  0  0  0  0
    0.2732    2.6565    0.5725 H   0  0  0  0  0  0  0  0  0  0  0  0
   -0.5476    1.7188    1.8367 H   0  0  0  0  0  0  0  0  0  0  0  0
    1.1792    1.2580   -1.4885 H   0  0  0  0  0  0  0  0  0  0  0  0
    1.7323    1.0324    0.1888 H   0  0  0  0  0  0  0  0  0  0  0  0
    2.6263   -0.7292   -1.0239 H   0  0  0  0  0  0  0  0  0  0  0  0
    1.0647   -1.1237   -1.8608 H   0  0  0  0  0  0  0  0  0  0  0  0
    1.5436   -1.3150    1.1711 H   0  0  0  0  0  0  0  0  0  0  0  0
    1.5768   -2.6912    0.0554 H   0  0  0  0  0  0  0  0  0  0  0  0
   -1.0218   -0.4754    1.6795 H   0  0  0  0  0  0  0  0  0  0  0  0
   -2.3645   -1.3190   -0.8500 H   0  0  0  0  0  0  0  0  0  0  0  0
   -2.9052   -0.0029    0.3283 H   0  0  0  0  0  0  0  0  0  0  0  0
  1  2  1  0
  2  3  1  0
  3  4  1  0
  4  5  1  0
  5  6  1  0
  6  7  1  0
  7  8  1  0
  8  9  1  0
  7  2  1  0
  9  2  1  0
  1 10  1  0
  1 11  1  0
  1 12  1  0
  3 13  1  0
  3 14  1  0
  4 15  1  0
  4 16  1  0
  5 17  1  0
  5 18  1  0
  7 19  1  0
  8 20  1  0
  8 21  1  0
M  END
