
     RDKit          3D

 21 23  0  0  0  0  0  0  0  0999 V2000
    2.0264   -0.7452    0.4464 C   0  0  0  0  0  0  0  0  0  0  0  0
    0.6614   -0.2861    0.1223 C   0  0  0  0  0  0  0  0  0  0  0  0
    0.4234    1.1399    0.5664 C   0  0  0  0  0  0  0  0  0  0  0  0
   -0.4925    1.2546   -0.6612 C   0  0  0  0  0  0  0  0  0  0  0  0
    0.4530    0.2323   -1.3072 C   0  0  0  0  0  0  0  0  0  0  0  0
   -1.8224    0.6544   -0.3281 C   0  0  0  0  0  0  0  0  0  0  0  0
   -2.0637    0.4732    1.1295 O   0  0  0  0  0  0  0  0  0  0  0  0
   -1.7989   -0.5980    0.2210 C   0  0  0  0  0  0  0  0  0  0  0  0
   -0.4573   -1.2102    0.4319 C   0  0  0  0  0  0  0  0  0  0  0  0
    2.7699   -0.1042   -0.0478 H   0  0  0  0  0  0  0  0  0  0  0  0
    2.1511   -1.8178    0.2122 H   0  0  0  0  0  0  0  0  0  0  0  0
    2.1798   -0.6641    1.5571 H   0  0  0  0  0  0  0  0  0  0  0  0
   -0.0821    1.2753    1.5243 H   0  0  0  0  0  0  0  0  0  0  0  0
    1.3230    1.7526    0.3730 H   0  0  0  0  0  0  0  0  0  0  0  0
   -0.5068    2.2304   -1.1377 H   0  0  0  0  0  0  0  0  0  0  0  0
    1.3451    0.7443   -1.7069 H   0  0  0  0  0  0  0  0  0  0  0  0
   -0.0238   -0.4832   -1.9724 H   0  0  0  0  0  0  0  0  0  0  0  0
   -2.6999    1.1969   -0.7229 H   0  0  0  0  0  0  0  0  0  0  0  0
   -2.6336   -1.3376    0.1170 H   0  0  0  0  0  0  0  0  0  0  0  0
   -0.3840   -2.0960   -0.2647 H   0  0  0  0  0  0  0  0  0  0  0  0
   -0.3680   -1.6115    1.4479 H   0  0  0  0  0  0  0  0  0  0  0  0
  1  2  1  0
  2  3  1  0
  3  4  1  0
  4  5  1  0
  4  6  1  0
  6  7  1  0
  7  8  1  0
  8  9  1  0
  5  2  1  0
  8  6  1  0
  9  2  1  0
  1 10  1  0
  1 11  1  0
  1 12  1  0
  3 13  1  0
  3 14  1  0
  4 15  1  0
  5 16  1  0
  5 17  1  0
  6 18  1  0
  8 19  1  0
  9 20  1  0
  9 21  1  0
M  END
