
     RDKit          3D

 23 24  0  0  0  0  0  0  0  0999 V2000
    0.3980    1.4829   -0.9067 C   0  0  0  0  0  0  0  0  0  0  0  0
   -0.1365    0.6895    0.2103 C   0  0  0  0  0  0  0  0  0  0  0  0
   -1.3707    1.1769    0.9151 C   0  0  0  0  0  0  0  0  0  0  0  0
   -1.9963   -0.1583    0.5399 C   0  0  0  0  0  0  0  0  0  0  0  0
   -0.6752   -0.6734    0.0935 C   0  0  0  0  0  0  0  0  0  0  0  0
   -0.6871   -1.4579   -1.1734 C   0  0  0  0  0  0  0  0  0  0  0  0
    0.5681   -0.4268    0.8616 C   0  0  0  0  0  0  0  0  0  0  0  0
    1.8994   -0.7833    0.3185 C   0  0  0  0  0  0  0  0  0  0  0  0
    2.7291    0.3568    0.4451 O   0  0  0  0  0  0  0  0  0  0  0  0
   -0.3579    1.6074   -1.7318 H   0  0  0  0  0  0  0  0  0  0  0  0
    1.3405    1.1004   -1.3009 H   0  0  0  0  0  0  0  0  0  0  0  0
    0.6126    2.5262   -0.5302 H   0  0  0  0  0  0  0  0  0  0  0  0
   -1.2765    1.2164    2.0255 H   0  0  0  0  0  0  0  0  0  0  0  0
   -1.8263    2.0543    0.4415 H   0  0  0  0  0  0  0  0  0  0  0  0
   -2.6907    0.0072   -0.3240 H   0  0  0  0  0  0  0  0  0  0  0  0
   -2.4987   -0.6884    1.3635 H   0  0  0  0  0  0  0  0  0  0  0  0
   -0.8664   -2.5258   -0.9101 H   0  0  0  0  0  0  0  0  0  0  0  0
    0.2123   -1.4067   -1.7757 H   0  0  0  0  0  0  0  0  0  0  0  0
   -1.5431   -1.1736   -1.8355 H   0  0  0  0  0  0  0  0  0  0  0  0
    0.4849   -0.4774    1.9732 H   0  0  0  0  0  0  0  0  0  0  0  0
    2.3667   -1.6393    0.8807 H   0  0  0  0  0  0  0  0  0  0  0  0
    1.9332   -1.0587   -0.7376 H   0  0  0  0  0  0  0  0  0  0  0  0
    3.3806    0.2516    1.1574 H   0  0  0  0  0  0  0  0  0  0  0  0
  1  2  1  0
  2  3  1  0
  3  4  1  0
  4  5  1  0
  5  6  1  0
  5  7  1  0
  7  8  1  0
  8  9  1  0
  5  2  1  0
  7  2  1  0
  1 10  1  0
  1 11  1  0
  1 12  1  0
  3 13  1  0
  3 14  1  0
  4 15  1  0
  4 16  1  0
  6 17  1  0
  6 18  1  0
  6 19  1  0
  7 20  1  0
  8 21  1  0
  8 22  1  0
  9 23  1  0
M  END
