
     RDKit          3D

 21 22  0  0  0  0  0  0  0  0999 V2000
   -2.1877   -0.6335    0.4059 C   0  0  0  0  0  0  0  0  0  0  0  0
   -1.0269   -0.0031   -0.3315 C   0  0  0  0  0  0  0  0  0  0  0  0
   -0.1336   -0.9689   -0.9932 C   0  0  0  0  0  0  0  0  0  0  0  0
    1.1425   -1.2296   -0.7164 C   0  0  0  0  0  0  0  0  0  0  0  0
    2.0844   -0.7004    0.2760 C   0  0  0  0  0  0  0  0  0  0  0  0
    1.8581    0.7419    0.6305 C   0  0  0  0  0  0  0  0  0  0  0  0
    0.9395    1.3764   -0.1595 O   0  0  0  0  0  0  0  0  0  0  0  0
   -0.3707    1.1942    0.1965 C   0  0  0  0  0  0  0  0  0  0  0  0
   -1.3478    1.3113   -0.9918 C   0  0  0  0  0  0  0  0  0  0  0  0
   -1.9511   -0.7638    1.4773 H   0  0  0  0  0  0  0  0  0  0  0  0
   -3.1211   -0.0225    0.3159 H   0  0  0  0  0  0  0  0  0  0  0  0
   -2.4449   -1.6211   -0.0414 H   0  0  0  0  0  0  0  0  0  0  0  0
   -0.6089   -1.5201   -1.8043 H   0  0  0  0  0  0  0  0  0  0  0  0
    1.5412   -2.0034   -1.3860 H   0  0  0  0  0  0  0  0  0  0  0  0
    3.1286   -0.8539   -0.1251 H   0  0  0  0  0  0  0  0  0  0  0  0
    2.0677   -1.3063    1.2202 H   0  0  0  0  0  0  0  0  0  0  0  0
    1.6337    0.8473    1.7282 H   0  0  0  0  0  0  0  0  0  0  0  0
    2.8367    1.2923    0.5052 H   0  0  0  0  0  0  0  0  0  0  0  0
   -0.7647    1.6074    1.1481 H   0  0  0  0  0  0  0  0  0  0  0  0
   -0.9404    1.4854   -1.9868 H   0  0  0  0  0  0  0  0  0  0  0  0
   -2.3347    1.7704   -0.7895 H   0  0  0  0  0  0  0  0  0  0  0  0
  1  2  1  0
  2  3  1  0
  3  4  2  0
  4  5  1  0
  5  6  1  0
  6  7  1  0
  7  8  1  0
  8  9  1  0
  8  2  1  0
  9  2  1  0
  1 10  1  0
  1 11  1  0
  1 12  1  0
  3 13  1  0
  4 14  1  0
  5 15  1  0
  5 16  1  0
  6 17  1  0
  6 18  1  0
  8 19  1  0
  9 20  1  0
  9 21  1  0
M  END
