
     RDKit          3D

 21 22  0  0  0  0  0  0  0  0999 V2000
   -1.6299   -1.3924    0.0708 C   0  0  0  0  0  0  0  0  0  0  0  0
   -0.6015   -0.3667    0.2258 C   0  0  0  0  0  0  0  0  0  0  0  0
   -0.2142   -0.0172    1.6035 C   0  0  0  0  0  0  0  0  0  0  0  0
    0.9822    0.5994    1.5083 C   0  0  0  0  0  0  0  0  0  0  0  0
    1.4231    0.5705    0.0782 C   0  0  0  0  0  0  0  0  0  0  0  0
    0.5667    1.5473   -0.6664 C   0  0  0  0  0  0  0  0  0  0  0  0
   -0.8300    0.9184   -0.5348 C   0  0  0  0  0  0  0  0  0  0  0  0
    0.7704   -0.7587   -0.3464 C   0  0  0  0  0  0  0  0  0  0  0  0
    0.7365   -0.8883   -1.7105 O   0  0  0  0  0  0  0  0  0  0  0  0
   -2.0852   -1.3095   -0.9437 H   0  0  0  0  0  0  0  0  0  0  0  0
   -2.4297   -1.2076    0.8325 H   0  0  0  0  0  0  0  0  0  0  0  0
   -1.2182   -2.4054    0.2172 H   0  0  0  0  0  0  0  0  0  0  0  0
   -0.7520   -0.2005    2.5279 H   0  0  0  0  0  0  0  0  0  0  0  0
    1.5684    1.0551    2.2986 H   0  0  0  0  0  0  0  0  0  0  0  0
    2.4739    0.6112   -0.0828 H   0  0  0  0  0  0  0  0  0  0  0  0
    0.8431    1.6631   -1.7217 H   0  0  0  0  0  0  0  0  0  0  0  0
    0.6032    2.5249   -0.1266 H   0  0  0  0  0  0  0  0  0  0  0  0
   -1.4918    1.5477    0.0937 H   0  0  0  0  0  0  0  0  0  0  0  0
   -1.2527    0.7451   -1.5363 H   0  0  0  0  0  0  0  0  0  0  0  0
    1.2303   -1.5743    0.2019 H   0  0  0  0  0  0  0  0  0  0  0  0
    1.3075   -1.6621   -1.9894 H   0  0  0  0  0  0  0  0  0  0  0  0
  1  2  1  0
  2  3  1  0
  3  4  2  0
  4  5  1  0
  5  6  1  0
  6  7  1  0
  5  8  1  0
  8  9  1  0
  7  2  1  0
  8  2  1  0
  1 10  1  0
  1 11  1  0
  1 12  1  0
  3 13  1  0
  4 14  1  0
  5 15  1  0
  6 16  1  0
  6 17  1  0
  7 18  1  0
  7 19  1  0
  8 20  1  0
  9 21  1  0
M  END
