
     RDKit          3D

 21 23  0  0  0  0  0  0  0  0999 V2000
    2.2278    0.2364    0.7275 C   0  0  0  0  0  0  0  0  0  0  0  0
    0.9209    0.0716    0.0581 C   0  0  0  0  0  0  0  0  0  0  0  0
    0.1543    1.1944   -0.5320 C   0  0  0  0  0  0  0  0  0  0  0  0
   -1.2949    1.2389   -0.1010 C   0  0  0  0  0  0  0  0  0  0  0  0
   -1.9353   -0.1066   -0.0614 C   0  0  0  0  0  0  0  0  0  0  0  0
   -1.0881   -1.1891    0.4995 C   0  0  0  0  0  0  0  0  0  0  0  0
    0.2980   -1.2588   -0.0360 C   0  0  0  0  0  0  0  0  0  0  0  0
    0.7576   -0.5950   -1.2535 C   0  0  0  0  0  0  0  0  0  0  0  0
    0.2381    0.5537   -1.7695 O   0  0  0  0  0  0  0  0  0  0  0  0
    2.0835    0.0328    1.8258 H   0  0  0  0  0  0  0  0  0  0  0  0
    2.9794   -0.5231    0.4015 H   0  0  0  0  0  0  0  0  0  0  0  0
    2.6409    1.2487    0.6600 H   0  0  0  0  0  0  0  0  0  0  0  0
    0.6465    2.1577   -0.4423 H   0  0  0  0  0  0  0  0  0  0  0  0
   -1.4490    1.8348    0.8223 H   0  0  0  0  0  0  0  0  0  0  0  0
   -1.8290    1.8251   -0.9083 H   0  0  0  0  0  0  0  0  0  0  0  0
   -2.8449   -0.0164    0.6025 H   0  0  0  0  0  0  0  0  0  0  0  0
   -2.3627   -0.4193   -1.0578 H   0  0  0  0  0  0  0  0  0  0  0  0
   -1.6488   -2.1439    0.4214 H   0  0  0  0  0  0  0  0  0  0  0  0
   -0.9999   -1.0026    1.6112 H   0  0  0  0  0  0  0  0  0  0  0  0
    0.8996   -2.1004    0.3334 H   0  0  0  0  0  0  0  0  0  0  0  0
    1.6060   -1.0390   -1.8014 H   0  0  0  0  0  0  0  0  0  0  0  0
  1  2  1  0
  2  3  1  0
  3  4  1  0
  4  5  1  0
  5  6  1  0
  6  7  1  0
  7  8  1  0
  8  9  1  0
  7  2  1  0
  8  2  1  0
  9  3  1  0
  1 10  1  0
  1 11  1  0
  1 12  1  0
  3 13  1  0
  4 14  1  0
  4 15  1  0
  5 16  1  0
  5 17  1  0
  6 18  1  0
  6 19  1  0
  7 20  1  0
  8 21  1  0
M  END
