
     RDKit          3D

 19 22  0  0  0  0  0  0  0  0999 V2000
   -0.6863    2.0124    0.0876 C   0  0  0  0  0  0  0  0  0  0  0  0
   -0.4300    0.6415    0.3659 C   0  0  0  0  0  0  0  0  0  0  0  0
   -0.4055   -0.1125    1.5923 C   0  0  0  0  0  0  0  0  0  0  0  0
   -1.3273   -0.4854    0.5420 C   0  0  0  0  0  0  0  0  0  0  0  0
   -0.3103   -1.3895   -0.0334 C   0  0  0  0  0  0  0  0  0  0  0  0
   -0.4601   -2.4953   -0.7164 O   0  0  0  0  0  0  0  0  0  0  0  0
    0.6160   -1.0194    1.0148 C   0  0  0  0  0  0  0  0  0  0  0  0
    0.5854   -0.2623   -0.2166 C   0  0  0  0  0  0  0  0  0  0  0  0
    1.5793    0.0021   -1.1973 C   0  0  0  0  0  0  0  0  0  0  0  0
   -1.7306    2.3070    0.3374 H   0  0  0  0  0  0  0  0  0  0  0  0
   -0.0321    2.7099    0.6847 H   0  0  0  0  0  0  0  0  0  0  0  0
   -0.5706    2.2454   -1.0003 H   0  0  0  0  0  0  0  0  0  0  0  0
   -0.5534    0.1524    2.5950 H   0  0  0  0  0  0  0  0  0  0  0  0
   -2.3718   -0.5552    0.5134 H   0  0  0  0  0  0  0  0  0  0  0  0
   -0.9164   -2.3815   -1.5699 H   0  0  0  0  0  0  0  0  0  0  0  0
    1.3773   -1.5472    1.5007 H   0  0  0  0  0  0  0  0  0  0  0  0
    1.2212   -0.2345   -2.2404 H   0  0  0  0  0  0  0  0  0  0  0  0
    1.9262    1.0455   -1.1982 H   0  0  0  0  0  0  0  0  0  0  0  0
    2.4889   -0.6333   -1.0612 H   0  0  0  0  0  0  0  0  0  0  0  0
  1  2  1  0
  2  3  1  0
  3  4  1  0
  4  5  1  0
  5  6  1  0
  5  7  1  0
  7  8  1  0
  8  9  1  0
  4  2  1  0
  8  5  1  0
  8  2  1  0
  7  3  1  0
  1 10  1  0
  1 11  1  0
  1 12  1  0
  3 13  1  0
  4 14  1  0
  6 15  1  0
  7 16  1  0
  9 17  1  0
  9 18  1  0
  9 19  1  0
M  END
