
     RDKit          3D

 19 21  0  0  0  0  0  0  0  0999 V2000
    1.7574    0.9538   -0.2916 C   0  0  0  0  0  0  0  0  0  0  0  0
    1.0306   -0.2009   -0.0885 C   0  0  0  0  0  0  0  0  0  0  0  0
    1.5049   -1.4963   -0.0307 O   0  0  0  0  0  0  0  0  0  0  0  0
    0.1314   -1.7021    0.0932 C   0  0  0  0  0  0  0  0  0  0  0  0
   -0.0492   -0.7338   -1.0052 C   0  0  0  0  0  0  0  0  0  0  0  0
   -1.3072    0.0112   -0.7043 C   0  0  0  0  0  0  0  0  0  0  0  0
   -1.1504    0.2113    0.8143 C   0  0  0  0  0  0  0  0  0  0  0  0
   -1.0178    1.5657    1.0559 O   0  0  0  0  0  0  0  0  0  0  0  0
    0.1299   -0.5376    1.0390 C   0  0  0  0  0  0  0  0  0  0  0  0
    1.3708    1.8427    0.2713 H   0  0  0  0  0  0  0  0  0  0  0  0
    1.7909    1.2804   -1.3720 H   0  0  0  0  0  0  0  0  0  0  0  0
    2.8422    0.8830   -0.0028 H   0  0  0  0  0  0  0  0  0  0  0  0
   -0.3193   -2.5928    0.2391 H   0  0  0  0  0  0  0  0  0  0  0  0
    0.2098   -0.9727   -2.0134 H   0  0  0  0  0  0  0  0  0  0  0  0
   -2.1754   -0.6314   -0.9205 H   0  0  0  0  0  0  0  0  0  0  0  0
   -1.4157    0.9701   -1.2072 H   0  0  0  0  0  0  0  0  0  0  0  0
   -2.0008   -0.1990    1.3623 H   0  0  0  0  0  0  0  0  0  0  0  0
   -1.8383    2.0099    0.7309 H   0  0  0  0  0  0  0  0  0  0  0  0
    0.5061   -0.6615    2.0303 H   0  0  0  0  0  0  0  0  0  0  0  0
  1  2  1  0
  2  3  1  0
  3  4  1  0
  4  5  1  0
  5  6  1  0
  6  7  1  0
  7  8  1  0
  7  9  1  0
  5  2  1  0
  9  2  1  0
  9  4  1  0
  1 10  1  0
  1 11  1  0
  1 12  1  0
  4 13  1  0
  5 14  1  0
  6 15  1  0
  6 16  1  0
  7 17  1  0
  8 18  1  0
  9 19  1  0
M  END
