
     RDKit          3D

 17 18  0  0  0  0  0  0  0  0999 V2000
    1.9477   -0.3397    0.0208 C   0  0  0  0  0  0  0  0  0  0  0  0
    0.5314   -0.0812    0.4337 C   0  0  0  0  0  0  0  0  0  0  0  0
   -0.0801   -1.0948    1.1549 O   0  0  0  0  0  0  0  0  0  0  0  0
   -1.1080   -1.3272    0.2270 C   0  0  0  0  0  0  0  0  0  0  0  0
   -0.5167   -0.2537   -0.6277 C   0  0  0  0  0  0  0  0  0  0  0  0
   -1.3735    0.9724   -0.6377 C   0  0  0  0  0  0  0  0  0  0  0  0
   -0.9913    1.6174    0.5762 O   0  0  0  0  0  0  0  0  0  0  0  0
    0.3157    1.2849    0.9032 C   0  0  0  0  0  0  0  0  0  0  0  0
    1.1215    2.0536    1.4936 O   0  0  0  0  0  0  0  0  0  0  0  0
    2.4325    0.6412   -0.1890 H   0  0  0  0  0  0  0  0  0  0  0  0
    2.5196   -0.9034    0.7753 H   0  0  0  0  0  0  0  0  0  0  0  0
    1.9389   -0.9534   -0.8993 H   0  0  0  0  0  0  0  0  0  0  0  0
   -2.0755   -1.0760    0.7202 H   0  0  0  0  0  0  0  0  0  0  0  0
   -1.0686   -2.3115   -0.2730 H   0  0  0  0  0  0  0  0  0  0  0  0
   -0.0634   -0.5546   -1.5779 H   0  0  0  0  0  0  0  0  0  0  0  0
   -2.4375    0.7077   -0.6064 H   0  0  0  0  0  0  0  0  0  0  0  0
   -1.0925    1.6182   -1.4939 H   0  0  0  0  0  0  0  0  0  0  0  0
  1  2  1  0
  2  3  1  0
  3  4  1  0
  4  5  1  0
  5  6  1  0
  6  7  1  0
  7  8  1  0
  8  9  2  0
  5  2  1  0
  8  2  1  0
  1 10  1  0
  1 11  1  0
  1 12  1  0
  4 13  1  0
  4 14  1  0
  5 15  1  0
  6 16  1  0
  6 17  1  0
M  END
