
     RDKit          3D

 21 22  0  0  0  0  0  0  0  0999 V2000
    0.4156    2.0010   -0.4377 C   0  0  0  0  0  0  0  0  0  0  0  0
    0.3234    0.6307    0.1981 C   0  0  0  0  0  0  0  0  0  0  0  0
   -0.8738    0.4115    1.0536 C   0  0  0  0  0  0  0  0  0  0  0  0
   -1.5543   -0.8381    0.5834 C   0  0  0  0  0  0  0  0  0  0  0  0
   -0.9506   -1.1808   -0.7364 C   0  0  0  0  0  0  0  0  0  0  0  0
    0.3476   -0.4376   -0.8571 C   0  0  0  0  0  0  0  0  0  0  0  0
    1.5354   -1.0848   -0.1843 C   0  0  0  0  0  0  0  0  0  0  0  0
    1.6120    0.1164    0.7034 C   0  0  0  0  0  0  0  0  0  0  0  0
    2.4257    0.4972    1.5139 O   0  0  0  0  0  0  0  0  0  0  0  0
   -0.5487    2.2031   -0.9311 H   0  0  0  0  0  0  0  0  0  0  0  0
    0.6359    2.7922    0.3136 H   0  0  0  0  0  0  0  0  0  0  0  0
    1.2011    2.0058   -1.2172 H   0  0  0  0  0  0  0  0  0  0  0  0
   -0.6569    0.3187    2.1326 H   0  0  0  0  0  0  0  0  0  0  0  0
   -1.5737    1.2718    0.9350 H   0  0  0  0  0  0  0  0  0  0  0  0
   -2.6556   -0.6706    0.4435 H   0  0  0  0  0  0  0  0  0  0  0  0
   -1.4770   -1.6770    1.3301 H   0  0  0  0  0  0  0  0  0  0  0  0
   -0.8677   -2.2636   -0.9248 H   0  0  0  0  0  0  0  0  0  0  0  0
   -1.6203   -0.7881   -1.5561 H   0  0  0  0  0  0  0  0  0  0  0  0
    0.6052   -0.0750   -1.8628 H   0  0  0  0  0  0  0  0  0  0  0  0
    1.2431   -2.0179    0.3398 H   0  0  0  0  0  0  0  0  0  0  0  0
    2.4337   -1.2149   -0.8396 H   0  0  0  0  0  0  0  0  0  0  0  0
  1  2  1  0
  2  3  1  0
  3  4  1  0
  4  5  1  0
  5  6  1  0
  6  7  1  0
  7  8  1  0
  8  9  2  0
  6  2  1  0
  8  2  1  0
  1 10  1  0
  1 11  1  0
  1 12  1  0
  3 13  1  0
  3 14  1  0
  4 15  1  0
  4 16  1  0
  5 17  1  0
  5 18  1  0
  6 19  1  0
  7 20  1  0
  7 21  1  0
M  END
