
     RDKit          3D

 19 21  0  0  0  0  0  0  0  0999 V2000
    0.9239   -1.6253    0.2362 C   0  0  0  0  0  0  0  0  0  0  0  0
    0.8178   -0.3850   -0.3543 C   0  0  0  0  0  0  0  0  0  0  0  0
    1.3812    0.9065    0.0964 C   0  0  0  0  0  0  0  0  0  0  0  0
    0.7513    1.1449   -1.2370 C   0  0  0  0  0  0  0  0  0  0  0  0
    1.3665   -0.0497   -1.6148 O   0  0  0  0  0  0  0  0  0  0  0  0
   -0.3968    0.3194   -0.8256 C   0  0  0  0  0  0  0  0  0  0  0  0
   -1.3584    0.8420    0.1826 C   0  0  0  0  0  0  0  0  0  0  0  0
   -1.9758   -0.2369    1.0720 C   0  0  0  0  0  0  0  0  0  0  0  0
   -1.1274    0.7255    1.5519 O   0  0  0  0  0  0  0  0  0  0  0  0
    1.9117   -2.1374    0.0296 H   0  0  0  0  0  0  0  0  0  0  0  0
    0.1720   -2.3670   -0.1132 H   0  0  0  0  0  0  0  0  0  0  0  0
    0.8568   -1.6131    1.3441 H   0  0  0  0  0  0  0  0  0  0  0  0
    0.9864    1.4177    0.9662 H   0  0  0  0  0  0  0  0  0  0  0  0
    2.4986    0.9455   -0.0251 H   0  0  0  0  0  0  0  0  0  0  0  0
    0.7658    2.0019   -1.7710 H   0  0  0  0  0  0  0  0  0  0  0  0
   -0.8550   -0.1930   -1.7054 H   0  0  0  0  0  0  0  0  0  0  0  0
   -2.0054    1.7091   -0.0572 H   0  0  0  0  0  0  0  0  0  0  0  0
   -3.0802   -0.1344    1.2190 H   0  0  0  0  0  0  0  0  0  0  0  0
   -1.6330   -1.2705    1.0056 H   0  0  0  0  0  0  0  0  0  0  0  0
  1  2  1  0
  2  3  1  0
  3  4  1  0
  4  5  1  0
  4  6  1  0
  6  7  1  0
  7  8  1  0
  8  9  1  0
  5  2  1  0
  9  7  1  0
  6  2  1  0
  1 10  1  0
  1 11  1  0
  1 12  1  0
  3 13  1  0
  3 14  1  0
  4 15  1  0
  6 16  1  0
  7 17  1  0
  8 18  1  0
  8 19  1  0
M  END
