
     RDKit          3D

 18 20  0  0  0  0  0  0  0  0999 V2000
   -1.6542   -0.8120    0.8021 C   0  0  0  0  0  0  0  0  0  0  0  0
   -0.4861   -0.3532    0.0690 C   0  0  0  0  0  0  0  0  0  0  0  0
    0.6458    0.4230    0.6805 C   0  0  0  0  0  0  0  0  0  0  0  0
    1.8413   -0.3350    0.1511 C   0  0  0  0  0  0  0  0  0  0  0  0
    1.4536   -0.9969   -0.9839 O   0  0  0  0  0  0  0  0  0  0  0  0
    0.0935   -0.8823   -1.1488 C   0  0  0  0  0  0  0  0  0  0  0  0
   -0.4720    0.5378   -1.0937 C   0  0  0  0  0  0  0  0  0  0  0  0
    0.2344    1.5642   -0.2434 C   0  0  0  0  0  0  0  0  0  0  0  0
   -2.3563    0.0561    0.9748 H   0  0  0  0  0  0  0  0  0  0  0  0
   -1.3640   -1.1308    1.8385 H   0  0  0  0  0  0  0  0  0  0  0  0
   -2.1643   -1.6314    0.2737 H   0  0  0  0  0  0  0  0  0  0  0  0
    0.5980    0.6148    1.7423 H   0  0  0  0  0  0  0  0  0  0  0  0
    2.6392    0.4115   -0.0778 H   0  0  0  0  0  0  0  0  0  0  0  0
    2.2143   -0.9933    0.9467 H   0  0  0  0  0  0  0  0  0  0  0  0
   -0.3737   -1.5400   -1.8693 H   0  0  0  0  0  0  0  0  0  0  0  0
   -1.3686    0.7858   -1.6598 H   0  0  0  0  0  0  0  0  0  0  0  0
   -0.5382    2.1755    0.2946 H   0  0  0  0  0  0  0  0  0  0  0  0
    1.0574    2.1064   -0.6965 H   0  0  0  0  0  0  0  0  0  0  0  0
  1  2  1  0
  2  3  1  0
  3  4  1  0
  4  5  1  0
  5  6  1  0
  6  7  1  0
  7  8  1  0
  6  2  1  0
  7  2  1  0
  8  3  1  0
  1  9  1  0
  1 10  1  0
  1 11  1  0
  3 12  1  0
  4 13  1  0
  4 14  1  0
  6 15  1  0
  7 16  1  0
  8 17  1  0
  8 18  1  0
M  END
