
     RDKit          3D

 19 21  0  0  0  0  0  0  0  0999 V2000
   -1.4460   -1.2222   -0.1316 C   0  0  0  0  0  0  0  0  0  0  0  0
   -0.9242    0.1881   -0.1351 C   0  0  0  0  0  0  0  0  0  0  0  0
   -0.4027    0.7863   -1.3890 C   0  0  0  0  0  0  0  0  0  0  0  0
    0.5158    0.4882   -0.2493 C   0  0  0  0  0  0  0  0  0  0  0  0
    1.5483   -0.6072   -0.3712 C   0  0  0  0  0  0  0  0  0  0  0  0
    1.4389   -1.3992    0.7818 O   0  0  0  0  0  0  0  0  0  0  0  0
    0.4790    1.2979    0.9998 C   0  0  0  0  0  0  0  0  0  0  0  0
   -0.1002    0.8169    2.1475 O   0  0  0  0  0  0  0  0  0  0  0  0
   -1.0068    1.0297    1.1002 C   0  0  0  0  0  0  0  0  0  0  0  0
   -1.3305   -1.6408   -1.1455 H   0  0  0  0  0  0  0  0  0  0  0  0
   -2.5429   -1.1947    0.0670 H   0  0  0  0  0  0  0  0  0  0  0  0
   -0.9104   -1.8895    0.5679 H   0  0  0  0  0  0  0  0  0  0  0  0
   -0.3200    0.1044   -2.2467 H   0  0  0  0  0  0  0  0  0  0  0  0
   -0.5095    1.8477   -1.6344 H   0  0  0  0  0  0  0  0  0  0  0  0
    1.4539   -1.1831   -1.2928 H   0  0  0  0  0  0  0  0  0  0  0  0
    2.5467   -0.1219   -0.3092 H   0  0  0  0  0  0  0  0  0  0  0  0
    2.3041   -1.5658    1.2130 H   0  0  0  0  0  0  0  0  0  0  0  0
    0.8406    2.3359    0.9234 H   0  0  0  0  0  0  0  0  0  0  0  0
   -1.6339    1.9294    1.1043 H   0  0  0  0  0  0  0  0  0  0  0  0
  1  2  1  0
  2  3  1  0
  3  4  1  0
  4  5  1  0
  5  6  1  0
  4  7  1  0
  7  8  1  0
  8  9  1  0
  4  2  1  0
  9  7  1  0
  9  2  1  0
  1 10  1  0
  1 11  1  0
  1 12  1  0
  3 13  1  0
  3 14  1  0
  5 15  1  0
  5 16  1  0
  6 17  1  0
  7 18  1  0
  9 19  1  0
M  END
