
     RDKit          3D

 19 20  0  0  0  0  0  0  0  0999 V2000
   -2.1082    0.1974    0.2005 C   0  0  0  0  0  0  0  0  0  0  0  0
   -0.7244   -0.1659   -0.0037 C   0  0  0  0  0  0  0  0  0  0  0  0
   -0.8002   -1.6189    0.1533 C   0  0  0  0  0  0  0  0  0  0  0  0
    0.3375   -1.0659   -0.2619 C   0  0  0  0  0  0  0  0  0  0  0  0
    1.4300   -0.8267    0.6182 O   0  0  0  0  0  0  0  0  0  0  0  0
    2.1788    0.1624   -0.0176 C   0  0  0  0  0  0  0  0  0  0  0  0
    1.2739    1.4025   -0.0145 C   0  0  0  0  0  0  0  0  0  0  0  0
   -0.0152    0.9378   -0.5952 C   0  0  0  0  0  0  0  0  0  0  0  0
   -0.4450    1.5144   -1.5748 O   0  0  0  0  0  0  0  0  0  0  0  0
   -2.6052   -0.1525    1.1589 H   0  0  0  0  0  0  0  0  0  0  0  0
   -2.3210    1.2840    0.2211 H   0  0  0  0  0  0  0  0  0  0  0  0
   -2.8009   -0.2043   -0.5993 H   0  0  0  0  0  0  0  0  0  0  0  0
   -0.9435   -1.9532    1.2288 H   0  0  0  0  0  0  0  0  0  0  0  0
   -1.4319   -2.2911   -0.5056 H   0  0  0  0  0  0  0  0  0  0  0  0
    0.7754   -1.3331   -1.2763 H   0  0  0  0  0  0  0  0  0  0  0  0
    2.2459   -0.1297   -1.1041 H   0  0  0  0  0  0  0  0  0  0  0  0
    3.1463    0.3451    0.4251 H   0  0  0  0  0  0  0  0  0  0  0  0
    1.0729    1.6835    1.0564 H   0  0  0  0  0  0  0  0  0  0  0  0
    1.7348    2.2144   -0.5672 H   0  0  0  0  0  0  0  0  0  0  0  0
  1  2  1  0
  2  3  1  0
  3  4  1  0
  4  5  1  0
  5  6  1  0
  6  7  1  0
  7  8  1  0
  8  9  2  0
  4  2  1  0
  8  2  1  0
  1 10  1  0
  1 11  1  0
  1 12  1  0
  3 13  1  0
  3 14  1  0
  4 15  1  0
  6 16  1  0
  6 17  1  0
  7 18  1  0
  7 19  1  0
M  END
