
     RDKit          3D

 19 20  0  0  0  0  0  0  0  0999 V2000
   -1.5960   -0.0114    1.3512 C   0  0  0  0  0  0  0  0  0  0  0  0
   -0.3890   -0.6736    0.6374 C   0  0  0  0  0  0  0  0  0  0  0  0
   -0.7660   -0.8394   -0.8024 C   0  0  0  0  0  0  0  0  0  0  0  0
   -1.0328    0.6501   -1.0233 C   0  0  0  0  0  0  0  0  0  0  0  0
   -0.0972    1.2844   -0.3403 C   0  0  0  0  0  0  0  0  0  0  0  0
    0.7469    0.3223    0.2927 C   0  0  0  0  0  0  0  0  0  0  0  0
    1.8994   -0.1000   -0.5859 C   0  0  0  0  0  0  0  0  0  0  0  0
    3.0499    0.0017    0.2418 O   0  0  0  0  0  0  0  0  0  0  0  0
    0.6921   -0.5017    1.3200 O   0  0  0  0  0  0  0  0  0  0  0  0
   -1.4970   -0.0278    2.4278 H   0  0  0  0  0  0  0  0  0  0  0  0
   -1.7593    1.0011    0.9927 H   0  0  0  0  0  0  0  0  0  0  0  0
   -2.4784   -0.6627    1.0986 H   0  0  0  0  0  0  0  0  0  0  0  0
   -0.0493   -1.2566   -1.4731 H   0  0  0  0  0  0  0  0  0  0  0  0
   -1.7181   -1.4013   -0.8752 H   0  0  0  0  0  0  0  0  0  0  0  0
   -1.8408    1.0375   -1.6279 H   0  0  0  0  0  0  0  0  0  0  0  0
   -0.0189    2.3545   -0.2943 H   0  0  0  0  0  0  0  0  0  0  0  0
    1.8887   -1.1343   -0.9103 H   0  0  0  0  0  0  0  0  0  0  0  0
    2.0964    0.6026   -1.4201 H   0  0  0  0  0  0  0  0  0  0  0  0
    2.8694   -0.6454    0.9903 H   0  0  0  0  0  0  0  0  0  0  0  0
  1  2  1  0
  2  3  1  0
  3  4  1  0
  4  5  2  0
  5  6  1  0
  6  7  1  0
  7  8  1  0
  6  9  1  0
  6  2  1  0
  9  2  1  0
  1 10  1  0
  1 11  1  0
  1 12  1  0
  3 13  1  0
  3 14  1  0
  4 15  1  0
  5 16  1  0
  7 17  1  0
  7 18  1  0
  8 19  1  0
M  END
