
     RDKit          3D

 20 21  0  0  0  0  0  0  0  0999 V2000
   -2.1363   -0.1319    0.0877 C   0  0  0  0  0  0  0  0  0  0  0  0
   -0.7033    0.0145   -0.0677 C   0  0  0  0  0  0  0  0  0  0  0  0
   -0.2176    1.2375   -0.7508 C   0  0  0  0  0  0  0  0  0  0  0  0
    1.0283    1.4940   -0.3668 C   0  0  0  0  0  0  0  0  0  0  0  0
    1.4310    0.3801    0.5464 C   0  0  0  0  0  0  0  0  0  0  0  0
    1.5033   -0.8670   -0.2700 C   0  0  0  0  0  0  0  0  0  0  0  0
    0.0448   -1.1474   -0.6702 C   0  0  0  0  0  0  0  0  0  0  0  0
    0.0802    0.1514    1.2537 C   0  0  0  0  0  0  0  0  0  0  0  0
   -2.6687    0.2660   -0.8099 H   0  0  0  0  0  0  0  0  0  0  0  0
   -2.4983    0.5147    0.9402 H   0  0  0  0  0  0  0  0  0  0  0  0
   -2.4245   -1.1707    0.2508 H   0  0  0  0  0  0  0  0  0  0  0  0
   -0.8063    1.8094   -1.4461 H   0  0  0  0  0  0  0  0  0  0  0  0
    1.6184    2.3591   -0.6751 H   0  0  0  0  0  0  0  0  0  0  0  0
    2.2365    0.5920    1.2089 H   0  0  0  0  0  0  0  0  0  0  0  0
    1.8211   -1.6944    0.4042 H   0  0  0  0  0  0  0  0  0  0  0  0
    2.1459   -0.7811   -1.1652 H   0  0  0  0  0  0  0  0  0  0  0  0
   -0.0065   -1.1243   -1.7780 H   0  0  0  0  0  0  0  0  0  0  0  0
   -0.2898   -2.1285   -0.2978 H   0  0  0  0  0  0  0  0  0  0  0  0
   -0.2353    1.0233    1.8224 H   0  0  0  0  0  0  0  0  0  0  0  0
    0.0773   -0.7970    1.7836 H   0  0  0  0  0  0  0  0  0  0  0  0
  1  2  1  0
  2  3  1  0
  3  4  2  0
  4  5  1  0
  5  6  1  0
  6  7  1  0
  5  8  1  0
  7  2  1  0
  8  2  1  0
  1  9  1  0
  1 10  1  0
  1 11  1  0
  3 12  1  0
  4 13  1  0
  5 14  1  0
  6 15  1  0
  6 16  1  0
  7 17  1  0
  7 18  1  0
  8 19  1  0
  8 20  1  0
M  END
