
     RDKit          3D

 19 20  0  0  0  0  0  0  0  0999 V2000
   -2.4614    0.4191   -0.3385 C   0  0  0  0  0  0  0  0  0  0  0  0
   -1.0794   -0.1291   -0.2301 C   0  0  0  0  0  0  0  0  0  0  0  0
    0.0235    0.3617   -1.1102 C   0  0  0  0  0  0  0  0  0  0  0  0
    0.9382    0.4790    0.0911 C   0  0  0  0  0  0  0  0  0  0  0  0
    1.9309   -0.5396    0.0168 O   0  0  0  0  0  0  0  0  0  0  0  0
    3.2776   -0.2320    0.2284 C   0  0  0  0  0  0  0  0  0  0  0  0
    3.5434    0.9733    0.4819 O   0  0  0  0  0  0  0  0  0  0  0  0
   -0.2254    0.0536    0.9536 C   0  0  0  0  0  0  0  0  0  0  0  0
   -0.7929   -1.2774    0.6445 C   0  0  0  0  0  0  0  0  0  0  0  0
   -3.1787   -0.4529   -0.3685 H   0  0  0  0  0  0  0  0  0  0  0  0
   -2.7363    1.1610    0.4091 H   0  0  0  0  0  0  0  0  0  0  0  0
   -2.5692    0.8977   -1.3464 H   0  0  0  0  0  0  0  0  0  0  0  0
    0.3040   -0.4189   -1.8457 H   0  0  0  0  0  0  0  0  0  0  0  0
   -0.2160    1.3471   -1.5856 H   0  0  0  0  0  0  0  0  0  0  0  0
    1.3047    1.4825    0.3189 H   0  0  0  0  0  0  0  0  0  0  0  0
    4.0529   -1.0034    0.1749 H   0  0  0  0  0  0  0  0  0  0  0  0
   -0.5041    0.5969    1.8464 H   0  0  0  0  0  0  0  0  0  0  0  0
   -1.5448   -1.6735    1.3481 H   0  0  0  0  0  0  0  0  0  0  0  0
   -0.0667   -2.0451    0.3113 H   0  0  0  0  0  0  0  0  0  0  0  0
  1  2  1  0
  2  3  1  0
  3  4  1  0
  4  5  1  0
  5  6  1  0
  6  7  2  0
  4  8  1  0
  8  9  1  0
  8  2  1  0
  9  2  1  0
  1 10  1  0
  1 11  1  0
  1 12  1  0
  3 13  1  0
  3 14  1  0
  4 15  1  0
  6 16  1  0
  8 17  1  0
  9 18  1  0
  9 19  1  0
M  END
