
     RDKit          3D

 17 18  0  0  0  0  0  0  0  0999 V2000
   -2.0733   -0.2665    0.0008 C   0  0  0  0  0  0  0  0  0  0  0  0
   -0.6694    0.0383   -0.3582 C   0  0  0  0  0  0  0  0  0  0  0  0
   -0.1560    1.4200   -0.2518 C   0  0  0  0  0  0  0  0  0  0  0  0
    0.3997    0.3297    0.5737 C   0  0  0  0  0  0  0  0  0  0  0  0
    0.3087    0.3506    1.9316 O   0  0  0  0  0  0  0  0  0  0  0  0
    1.0537   -0.8771   -0.0503 C   0  0  0  0  0  0  0  0  0  0  0  0
    2.4532   -0.6077   -0.4575 C   0  0  0  0  0  0  0  0  0  0  0  0
    3.3470   -0.6062    0.3623 O   0  0  0  0  0  0  0  0  0  0  0  0
    0.1199   -0.8545   -1.0598 O   0  0  0  0  0  0  0  0  0  0  0  0
   -2.3215   -1.2953   -0.3441 H   0  0  0  0  0  0  0  0  0  0  0  0
   -2.7460    0.4102   -0.5731 H   0  0  0  0  0  0  0  0  0  0  0  0
   -2.3215   -0.1956    1.0640 H   0  0  0  0  0  0  0  0  0  0  0  0
    0.3880    1.7992   -1.1626 H   0  0  0  0  0  0  0  0  0  0  0  0
   -0.8092    2.1366    0.2749 H   0  0  0  0  0  0  0  0  0  0  0  0
   -0.6154    0.4538    2.2279 H   0  0  0  0  0  0  0  0  0  0  0  0
    0.9383   -1.8273    0.5467 H   0  0  0  0  0  0  0  0  0  0  0  0
    2.7036   -0.4084   -1.4870 H   0  0  0  0  0  0  0  0  0  0  0  0
  1  2  1  0
  2  3  1  0
  3  4  1  0
  4  5  1  0
  4  6  1  0
  6  7  1  0
  7  8  2  0
  6  9  1  0
  4  2  1  0
  9  2  1  0
  1 10  1  0
  1 11  1  0
  1 12  1  0
  3 13  1  0
  3 14  1  0
  5 15  1  0
  6 16  1  0
  7 17  1  0
M  END
