
     RDKit          3D

 17 19  0  0  0  0  0  0  0  0999 V2000
    2.2009   -0.2181    0.2899 C   0  0  0  0  0  0  0  0  0  0  0  0
    0.7073   -0.1865    0.3119 C   0  0  0  0  0  0  0  0  0  0  0  0
   -0.0275   -1.2866    0.7061 O   0  0  0  0  0  0  0  0  0  0  0  0
   -1.1702   -1.3726   -0.0500 C   0  0  0  0  0  0  0  0  0  0  0  0
   -1.4208    0.0538   -0.5653 C   0  0  0  0  0  0  0  0  0  0  0  0
   -1.4799    1.0655    0.5071 C   0  0  0  0  0  0  0  0  0  0  0  0
   -2.3179    1.6496    1.1600 O   0  0  0  0  0  0  0  0  0  0  0  0
    0.0013    1.1268    0.5099 C   0  0  0  0  0  0  0  0  0  0  0  0
    0.0102    0.4606   -0.7893 C   0  0  0  0  0  0  0  0  0  0  0  0
    2.6455   -0.4784    1.2544 H   0  0  0  0  0  0  0  0  0  0  0  0
    2.5150   -0.9136   -0.5156 H   0  0  0  0  0  0  0  0  0  0  0  0
    2.5510    0.8090    0.0231 H   0  0  0  0  0  0  0  0  0  0  0  0
   -0.9815   -1.9830   -0.9763 H   0  0  0  0  0  0  0  0  0  0  0  0
   -2.0538   -1.7183    0.4800 H   0  0  0  0  0  0  0  0  0  0  0  0
   -2.1096    0.1378   -1.3929 H   0  0  0  0  0  0  0  0  0  0  0  0
    0.5334    2.0361    0.7591 H   0  0  0  0  0  0  0  0  0  0  0  0
    0.3965    0.8181   -1.7120 H   0  0  0  0  0  0  0  0  0  0  0  0
  1  2  1  0
  2  3  1  0
  3  4  1  0
  4  5  1  0
  5  6  1  0
  6  7  2  0
  6  8  1  0
  8  9  1  0
  8  2  1  0
  9  2  1  0
  9  5  1  0
  1 10  1  0
  1 11  1  0
  1 12  1  0
  4 13  1  0
  4 14  1  0
  5 15  1  0
  8 16  1  0
  9 17  1  0
M  END
