
     RDKit          3D

 19 21  0  0  0  0  0  0  0  0999 V2000
    0.5999   -1.9695    0.5612 C   0  0  0  0  0  0  0  0  0  0  0  0
    0.4849   -0.5866    0.1421 C   0  0  0  0  0  0  0  0  0  0  0  0
   -0.1213    0.5173    0.9411 C   0  0  0  0  0  0  0  0  0  0  0  0
    0.7278    1.6804    0.5043 C   0  0  0  0  0  0  0  0  0  0  0  0
    1.3150    1.4157   -0.6575 C   0  0  0  0  0  0  0  0  0  0  0  0
    0.8981    0.0368   -1.0929 C   0  0  0  0  0  0  0  0  0  0  0  0
   -0.5495   -0.2992   -0.9581 C   0  0  0  0  0  0  0  0  0  0  0  0
   -1.3818    0.3534    0.1147 C   0  0  0  0  0  0  0  0  0  0  0  0
   -1.9919    1.5409   -0.2453 O   0  0  0  0  0  0  0  0  0  0  0  0
   -0.3772   -2.4864    0.5381 H   0  0  0  0  0  0  0  0  0  0  0  0
    0.9766   -2.0646    1.6152 H   0  0  0  0  0  0  0  0  0  0  0  0
    1.3211   -2.5170   -0.0624 H   0  0  0  0  0  0  0  0  0  0  0  0
   -0.2210    0.3849    2.0149 H   0  0  0  0  0  0  0  0  0  0  0  0
    0.8455    2.6064    1.0587 H   0  0  0  0  0  0  0  0  0  0  0  0
    1.9877    2.0262   -1.2536 H   0  0  0  0  0  0  0  0  0  0  0  0
    1.4483   -0.4604   -1.8823 H   0  0  0  0  0  0  0  0  0  0  0  0
   -0.9543   -1.1310   -1.5291 H   0  0  0  0  0  0  0  0  0  0  0  0
   -2.0422   -0.3956    0.5979 H   0  0  0  0  0  0  0  0  0  0  0  0
   -2.9658    1.3481   -0.4069 H   0  0  0  0  0  0  0  0  0  0  0  0
  1  2  1  0
  2  3  1  0
  3  4  1  0
  4  5  2  0
  5  6  1  0
  6  7  1  0
  7  8  1  0
  8  9  1  0
  6  2  1  0
  7  2  1  0
  8  3  1  0
  1 10  1  0
  1 11  1  0
  1 12  1  0
  3 13  1  0
  4 14  1  0
  5 15  1  0
  6 16  1  0
  7 17  1  0
  8 18  1  0
  9 19  1  0
M  END
