
     RDKit          3D

 21 23  0  0  0  0  0  0  0  0999 V2000
   -0.7510    1.5316   -0.2740 C   0  0  0  0  0  0  0  0  0  0  0  0
   -0.4181    0.0570   -0.5287 C   0  0  0  0  0  0  0  0  0  0  0  0
   -1.6850   -0.7564   -0.5362 C   0  0  0  0  0  0  0  0  0  0  0  0
   -1.6479   -0.3961    0.9659 C   0  0  0  0  0  0  0  0  0  0  0  0
   -0.2143   -0.8207    0.7788 C   0  0  0  0  0  0  0  0  0  0  0  0
    0.8400   -0.2488    0.0350 C   0  0  0  0  0  0  0  0  0  0  0  0
    1.8950    0.6670    0.4587 C   0  0  0  0  0  0  0  0  0  0  0  0
    2.5981    0.3321   -0.7230 O   0  0  0  0  0  0  0  0  0  0  0  0
    1.8977   -0.8979   -0.7523 C   0  0  0  0  0  0  0  0  0  0  0  0
   -0.1483    2.0761   -1.0666 H   0  0  0  0  0  0  0  0  0  0  0  0
   -0.3618    1.9128    0.6747 H   0  0  0  0  0  0  0  0  0  0  0  0
   -1.7875    1.7910   -0.4866 H   0  0  0  0  0  0  0  0  0  0  0  0
   -2.5261   -0.2488   -1.0056 H   0  0  0  0  0  0  0  0  0  0  0  0
   -1.5849   -1.8334   -0.6680 H   0  0  0  0  0  0  0  0  0  0  0  0
   -2.2345   -1.0593    1.6022 H   0  0  0  0  0  0  0  0  0  0  0  0
   -1.8548    0.6391    1.1927 H   0  0  0  0  0  0  0  0  0  0  0  0
   -0.2590   -1.9431    0.5677 H   0  0  0  0  0  0  0  0  0  0  0  0
    1.6846    1.7334    0.5703 H   0  0  0  0  0  0  0  0  0  0  0  0
    2.5506    0.3443    1.3178 H   0  0  0  0  0  0  0  0  0  0  0  0
    2.4602   -1.7309   -0.3346 H   0  0  0  0  0  0  0  0  0  0  0  0
    1.5470   -1.1489   -1.7880 H   0  0  0  0  0  0  0  0  0  0  0  0
  1  2  1  0
  2  3  1  0
  3  4  1  0
  4  5  1  0
  5  6  1  0
  6  7  1  0
  7  8  1  0
  8  9  1  0
  5  2  1  0
  9  6  1  0
  6  2  1  0
  1 10  1  0
  1 11  1  0
  1 12  1  0
  3 13  1  0
  3 14  1  0
  4 15  1  0
  4 16  1  0
  5 17  1  0
  7 18  1  0
  7 19  1  0
  9 20  1  0
  9 21  1  0
M  END
