
     RDKit          3D

 21 23  0  0  0  0  0  0  0  0999 V2000
   -1.2649   -1.4283    0.5140 C   0  0  0  0  0  0  0  0  0  0  0  0
   -0.7406   -0.2386   -0.2664 C   0  0  0  0  0  0  0  0  0  0  0  0
   -1.7761    0.7399   -0.6834 C   0  0  0  0  0  0  0  0  0  0  0  0
   -0.9107    1.9278   -0.2575 C   0  0  0  0  0  0  0  0  0  0  0  0
   -0.1051    0.9070    0.5624 C   0  0  0  0  0  0  0  0  0  0  0  0
    0.6792   -0.0178   -0.2255 C   0  0  0  0  0  0  0  0  0  0  0  0
    1.5839   -1.0639    0.2858 C   0  0  0  0  0  0  0  0  0  0  0  0
    2.5857   -0.1045   -0.3731 C   0  0  0  0  0  0  0  0  0  0  0  0
    1.5235    0.2628   -1.2333 O   0  0  0  0  0  0  0  0  0  0  0  0
   -0.5083   -2.2361    0.3925 H   0  0  0  0  0  0  0  0  0  0  0  0
   -2.1815   -1.7678   -0.0213 H   0  0  0  0  0  0  0  0  0  0  0  0
   -1.5179   -1.1994    1.5478 H   0  0  0  0  0  0  0  0  0  0  0  0
   -2.6663    0.7214    0.0130 H   0  0  0  0  0  0  0  0  0  0  0  0
   -2.0752    0.7453   -1.7323 H   0  0  0  0  0  0  0  0  0  0  0  0
   -0.3703    2.2899   -1.1624 H   0  0  0  0  0  0  0  0  0  0  0  0
   -1.4244    2.6842    0.3419 H   0  0  0  0  0  0  0  0  0  0  0  0
   -0.2512    0.8909    1.6402 H   0  0  0  0  0  0  0  0  0  0  0  0
    1.7002   -1.1664    1.3721 H   0  0  0  0  0  0  0  0  0  0  0  0
    1.4608   -2.0204   -0.2378 H   0  0  0  0  0  0  0  0  0  0  0  0
    3.4210   -0.6030   -0.8551 H   0  0  0  0  0  0  0  0  0  0  0  0
    2.8382    0.6769    0.3784 H   0  0  0  0  0  0  0  0  0  0  0  0
  1  2  1  0
  2  3  1  0
  3  4  1  0
  4  5  1  0
  5  6  1  0
  6  7  1  0
  7  8  1  0
  8  9  1  0
  5  2  1  0
  9  6  1  0
  6  2  1  0
  1 10  1  0
  1 11  1  0
  1 12  1  0
  3 13  1  0
  3 14  1  0
  4 15  1  0
  4 16  1  0
  5 17  1  0
  7 18  1  0
  7 19  1  0
  8 20  1  0
  8 21  1  0
M  END
