
     RDKit          3D

 21 22  0  0  0  0  0  0  0  0999 V2000
    0.8554    1.7422    0.3392 C   0  0  0  0  0  0  0  0  0  0  0  0
    0.3652    0.4624   -0.2467 C   0  0  0  0  0  0  0  0  0  0  0  0
   -0.7908    0.5103   -1.2200 C   0  0  0  0  0  0  0  0  0  0  0  0
   -1.9071   -0.1051   -0.3795 C   0  0  0  0  0  0  0  0  0  0  0  0
   -1.1496   -1.2450    0.2948 C   0  0  0  0  0  0  0  0  0  0  0  0
    0.2190   -0.7385    0.5984 C   0  0  0  0  0  0  0  0  0  0  0  0
    0.6639   -0.7905    1.9041 O   0  0  0  0  0  0  0  0  0  0  0  0
    1.2856   -0.7049   -0.4437 C   0  0  0  0  0  0  0  0  0  0  0  0
    2.5838   -0.4913   -0.0229 O   0  0  0  0  0  0  0  0  0  0  0  0
    1.3863    1.5649    1.2835 H   0  0  0  0  0  0  0  0  0  0  0  0
   -0.0424    2.3606    0.5927 H   0  0  0  0  0  0  0  0  0  0  0  0
    1.4448    2.2720   -0.4271 H   0  0  0  0  0  0  0  0  0  0  0  0
   -0.6290   -0.0916   -2.1235 H   0  0  0  0  0  0  0  0  0  0  0  0
   -0.9731    1.5605   -1.4617 H   0  0  0  0  0  0  0  0  0  0  0  0
   -2.1821    0.6480    0.3689 H   0  0  0  0  0  0  0  0  0  0  0  0
   -2.7365   -0.4441   -0.9931 H   0  0  0  0  0  0  0  0  0  0  0  0
   -1.6577   -1.4827    1.2646 H   0  0  0  0  0  0  0  0  0  0  0  0
   -1.1802   -2.1717   -0.2979 H   0  0  0  0  0  0  0  0  0  0  0  0
    0.1286   -0.2601    2.5306 H   0  0  0  0  0  0  0  0  0  0  0  0
    1.0983   -1.4030   -1.3028 H   0  0  0  0  0  0  0  0  0  0  0  0
    3.2173   -1.1926   -0.2578 H   0  0  0  0  0  0  0  0  0  0  0  0
  1  2  1  0
  2  3  1  0
  3  4  1  0
  4  5  1  0
  5  6  1  0
  6  7  1  0
  6  8  1  0
  8  9  1  0
  6  2  1  0
  8  2  1  0
  1 10  1  0
  1 11  1  0
  1 12  1  0
  3 13  1  0
  3 14  1  0
  4 15  1  0
  4 16  1  0
  5 17  1  0
  5 18  1  0
  7 19  1  0
  8 20  1  0
  9 21  1  0
M  END
