
     RDKit          3D

 19 21  0  0  0  0  0  0  0  0999 V2000
    0.9629   -0.5407   -1.2065 C   0  0  0  0  0  0  0  0  0  0  0  0
    0.6389   -0.3318    0.2723 C   0  0  0  0  0  0  0  0  0  0  0  0
    1.7336   -0.2235    1.0567 O   0  0  0  0  0  0  0  0  0  0  0  0
    1.8555    1.1053    0.4468 C   0  0  0  0  0  0  0  0  0  0  0  0
    0.3780    1.1292    0.6217 C   0  0  0  0  0  0  0  0  0  0  0  0
   -0.9075    1.3105    0.8159 C   0  0  0  0  0  0  0  0  0  0  0  0
   -1.6749    0.0740    0.6574 C   0  0  0  0  0  0  0  0  0  0  0  0
   -1.6823   -0.7876   -0.5153 C   0  0  0  0  0  0  0  0  0  0  0  0
   -0.6301   -0.9892    0.6017 C   0  0  0  0  0  0  0  0  0  0  0  0
    0.3502   -1.3920   -1.5628 H   0  0  0  0  0  0  0  0  0  0  0  0
    2.0424   -0.7679   -1.3762 H   0  0  0  0  0  0  0  0  0  0  0  0
    0.7125    0.3343   -1.8000 H   0  0  0  0  0  0  0  0  0  0  0  0
    2.1799    1.0445   -0.5781 H   0  0  0  0  0  0  0  0  0  0  0  0
    2.4355    1.7789    1.0756 H   0  0  0  0  0  0  0  0  0  0  0  0
   -1.3605    2.2815    1.0695 H   0  0  0  0  0  0  0  0  0  0  0  0
   -2.4888   -0.1293    1.4033 H   0  0  0  0  0  0  0  0  0  0  0  0
   -1.3756   -0.3735   -1.4751 H   0  0  0  0  0  0  0  0  0  0  0  0
   -2.4490   -1.5845   -0.6247 H   0  0  0  0  0  0  0  0  0  0  0  0
   -0.7209   -1.9382    1.1180 H   0  0  0  0  0  0  0  0  0  0  0  0
  1  2  1  0
  2  3  1  0
  3  4  1  0
  4  5  1  0
  5  6  2  0
  6  7  1  0
  7  8  1  0
  8  9  1  0
  5  2  1  0
  9  7  1  0
  9  2  1  0
  1 10  1  0
  1 11  1  0
  1 12  1  0
  4 13  1  0
  4 14  1  0
  6 15  1  0
  7 16  1  0
  8 17  1  0
  8 18  1  0
  9 19  1  0
M  END
