
     RDKit          3D

 23 24  0  0  0  0  0  0  0  0999 V2000
   -1.0991    1.5068    0.7050 C   0  0  0  0  0  0  0  0  0  0  0  0
   -0.7391    0.2520    0.1236 C   0  0  0  0  0  0  0  0  0  0  0  0
   -1.4194   -0.2528   -1.1304 C   0  0  0  0  0  0  0  0  0  0  0  0
   -0.6903   -1.4563   -1.3072 O   0  0  0  0  0  0  0  0  0  0  0  0
    0.0547   -1.5495   -0.1723 C   0  0  0  0  0  0  0  0  0  0  0  0
   -0.8647   -1.0369    0.9471 C   0  0  0  0  0  0  0  0  0  0  0  0
    0.6882   -0.1516   -0.0969 C   0  0  0  0  0  0  0  0  0  0  0  0
    1.3060    0.2978   -1.3996 C   0  0  0  0  0  0  0  0  0  0  0  0
    1.6352    0.0387    1.0307 C   0  0  0  0  0  0  0  0  0  0  0  0
   -1.8338    1.3669    1.5503 H   0  0  0  0  0  0  0  0  0  0  0  0
   -0.2294    2.1175    1.0298 H   0  0  0  0  0  0  0  0  0  0  0  0
   -1.6506    2.1436   -0.0321 H   0  0  0  0  0  0  0  0  0  0  0  0
   -2.4772   -0.4720   -0.8472 H   0  0  0  0  0  0  0  0  0  0  0  0
   -1.3552    0.4094   -1.9776 H   0  0  0  0  0  0  0  0  0  0  0  0
    0.6727   -2.3782    0.0434 H   0  0  0  0  0  0  0  0  0  0  0  0
   -1.8714   -1.4583    0.8489 H   0  0  0  0  0  0  0  0  0  0  0  0
   -0.4176   -1.0075    1.9302 H   0  0  0  0  0  0  0  0  0  0  0  0
    1.7344   -0.5717   -1.9626 H   0  0  0  0  0  0  0  0  0  0  0  0
    2.1871    0.9664   -1.1992 H   0  0  0  0  0  0  0  0  0  0  0  0
    0.6333    0.8599   -2.0439 H   0  0  0  0  0  0  0  0  0  0  0  0
    1.4578    1.0424    1.5003 H   0  0  0  0  0  0  0  0  0  0  0  0
    2.6774    0.0621    0.6498 H   0  0  0  0  0  0  0  0  0  0  0  0
    1.6008   -0.7286    1.8099 H   0  0  0  0  0  0  0  0  0  0  0  0
  1  2  1  0
  2  3  1  0
  3  4  1  0
  4  5  1  0
  5  6  1  0
  5  7  1  0
  7  8  1  0
  7  9  1  0
  6  2  1  0
  7  2  1  0
  1 10  1  0
  1 11  1  0
  1 12  1  0
  3 13  1  0
  3 14  1  0
  5 15  1  0
  6 16  1  0
  6 17  1  0
  8 18  1  0
  8 19  1  0
  8 20  1  0
  9 21  1  0
  9 22  1  0
  9 23  1  0
M  END
