
     RDKit          3D

 17 18  0  0  0  0  0  0  0  0999 V2000
   -0.5737    1.7046   -0.7778 C   0  0  0  0  0  0  0  0  0  0  0  0
   -0.1820    0.4530   -0.0761 C   0  0  0  0  0  0  0  0  0  0  0  0
   -1.0052   -0.1161    1.0259 C   0  0  0  0  0  0  0  0  0  0  0  0
   -0.8205   -1.5035    0.4764 C   0  0  0  0  0  0  0  0  0  0  0  0
   -1.0821   -2.5898    0.9126 O   0  0  0  0  0  0  0  0  0  0  0  0
   -0.2237   -0.8768   -0.7266 C   0  0  0  0  0  0  0  0  0  0  0  0
    1.0830   -0.2065   -0.5211 C   0  0  0  0  0  0  0  0  0  0  0  0
    1.9669   -0.6589    0.5790 C   0  0  0  0  0  0  0  0  0  0  0  0
    1.5285   -1.1185    1.6181 O   0  0  0  0  0  0  0  0  0  0  0  0
   -0.3288    1.6947   -1.8757 H   0  0  0  0  0  0  0  0  0  0  0  0
    0.0562    2.5439   -0.3639 H   0  0  0  0  0  0  0  0  0  0  0  0
   -1.6283    2.0071   -0.6232 H   0  0  0  0  0  0  0  0  0  0  0  0
   -0.6093   -0.0660    2.0458 H   0  0  0  0  0  0  0  0  0  0  0  0
   -2.0903    0.1382    0.9361 H   0  0  0  0  0  0  0  0  0  0  0  0
   -0.6915   -1.0065   -1.6986 H   0  0  0  0  0  0  0  0  0  0  0  0
    1.5550    0.1952   -1.4239 H   0  0  0  0  0  0  0  0  0  0  0  0
    3.0458   -0.5942    0.4928 H   0  0  0  0  0  0  0  0  0  0  0  0
  1  2  1  0
  2  3  1  0
  3  4  1  0
  4  5  2  0
  4  6  1  0
  6  7  1  0
  7  8  1  0
  8  9  2  0
  6  2  1  0
  7  2  1  0
  1 10  1  0
  1 11  1  0
  1 12  1  0
  3 13  1  0
  3 14  1  0
  6 15  1  0
  7 16  1  0
  8 17  1  0
M  END
