
     RDKit          3D

 17 20  0  0  0  0  0  0  0  0999 V2000
   -0.3191    1.5113   -1.0865 C   0  0  0  0  0  0  0  0  0  0  0  0
   -0.3040    0.7443    0.1643 C   0  0  0  0  0  0  0  0  0  0  0  0
    0.0821    0.1158    1.0758 C   0  0  0  0  0  0  0  0  0  0  0  0
    0.1098   -0.7407   -0.3626 C   0  0  0  0  0  0  0  0  0  0  0  0
    0.4944   -1.3722    0.5584 C   0  0  0  0  0  0  0  0  0  0  0  0
   -0.9583   -0.7166    0.1390 C   0  0  0  0  0  0  0  0  0  0  0  0
   -1.9478   -0.9381    1.0453 O   0  0  0  0  0  0  0  0  0  0  0  0
    1.1484    0.0911    0.5717 C   0  0  0  0  0  0  0  0  0  0  0  0
    2.1349    0.3145   -0.3385 O   0  0  0  0  0  0  0  0  0  0  0  0
    0.7123    1.8583   -1.3202 H   0  0  0  0  0  0  0  0  0  0  0  0
   -0.9033    2.4625   -0.9137 H   0  0  0  0  0  0  0  0  0  0  0  0
   -0.8183    1.0260   -1.9478 H   0  0  0  0  0  0  0  0  0  0  0  0
   -0.3630   -0.3423    1.9529 H   0  0  0  0  0  0  0  0  0  0  0  0
    0.5592   -0.3009   -1.2379 H   0  0  0  0  0  0  0  0  0  0  0  0
    0.4518   -1.8538    1.5452 H   0  0  0  0  0  0  0  0  0  0  0  0
   -2.7556   -1.3658    0.7325 H   0  0  0  0  0  0  0  0  0  0  0  0
    2.6765   -0.4934   -0.5780 H   0  0  0  0  0  0  0  0  0  0  0  0
  1  2  1  0
  2  3  1  0
  3  4  1  0
  4  5  1  0
  5  6  1  0
  6  7  1  0
  5  8  1  0
  8  9  1  0
  6  2  1  0
  8  2  1  0
  8  3  1  0
  6  4  1  0
  1 10  1  0
  1 11  1  0
  1 12  1  0
  3 13  1  0
  4 14  1  0
  5 15  1  0
  7 16  1  0
  9 17  1  0
M  END
