
     RDKit          3D

 21 23  0  0  0  0  0  0  0  0999 V2000
    1.9805   -0.5107   -0.2803 C   0  0  0  0  0  0  0  0  0  0  0  0
    0.6790    0.0760    0.0108 C   0  0  0  0  0  0  0  0  0  0  0  0
   -0.3421    0.2417   -1.0249 C   0  0  0  0  0  0  0  0  0  0  0  0
   -1.4953   -0.6240   -0.5604 C   0  0  0  0  0  0  0  0  0  0  0  0
   -1.1003   -1.2344    0.7475 C   0  0  0  0  0  0  0  0  0  0  0  0
    0.0544   -0.4145    1.2687 C   0  0  0  0  0  0  0  0  0  0  0  0
   -0.2258    0.8818    1.6239 O   0  0  0  0  0  0  0  0  0  0  0  0
    0.4648    1.4025    0.5276 C   0  0  0  0  0  0  0  0  0  0  0  0
   -0.5112    1.6997   -0.5810 C   0  0  0  0  0  0  0  0  0  0  0  0
    2.6292   -0.4596    0.6211 H   0  0  0  0  0  0  0  0  0  0  0  0
    1.8461   -1.6199   -0.4629 H   0  0  0  0  0  0  0  0  0  0  0  0
    2.5091   -0.1360   -1.1636 H   0  0  0  0  0  0  0  0  0  0  0  0
   -0.0753    0.1181   -2.0760 H   0  0  0  0  0  0  0  0  0  0  0  0
   -1.6874   -1.3957   -1.3347 H   0  0  0  0  0  0  0  0  0  0  0  0
   -2.3892    0.0135   -0.4365 H   0  0  0  0  0  0  0  0  0  0  0  0
   -0.6781   -2.2501    0.5168 H   0  0  0  0  0  0  0  0  0  0  0  0
   -1.9187   -1.3579    1.4524 H   0  0  0  0  0  0  0  0  0  0  0  0
    0.7416   -0.9040    1.9507 H   0  0  0  0  0  0  0  0  0  0  0  0
    1.2499    2.1088    0.7193 H   0  0  0  0  0  0  0  0  0  0  0  0
   -1.5204    1.9202   -0.2001 H   0  0  0  0  0  0  0  0  0  0  0  0
   -0.2109    2.4446   -1.3185 H   0  0  0  0  0  0  0  0  0  0  0  0
  1  2  1  0
  2  3  1  0
  3  4  1  0
  4  5  1  0
  5  6  1  0
  6  7  1  0
  7  8  1  0
  8  9  1  0
  6  2  1  0
  8  2  1  0
  9  3  1  0
  1 10  1  0
  1 11  1  0
  1 12  1  0
  3 13  1  0
  4 14  1  0
  4 15  1  0
  5 16  1  0
  5 17  1  0
  6 18  1  0
  8 19  1  0
  9 20  1  0
  9 21  1  0
M  END
