
     RDKit          3D

 21 22  0  0  0  0  0  0  0  0999 V2000
   -1.2233    1.7049   -0.1990 C   0  0  0  0  0  0  0  0  0  0  0  0
   -0.5685    0.4131    0.1756 C   0  0  0  0  0  0  0  0  0  0  0  0
    0.6727    0.4031    1.0023 C   0  0  0  0  0  0  0  0  0  0  0  0
    1.6808   -0.3917    0.2346 C   0  0  0  0  0  0  0  0  0  0  0  0
    2.6261    0.5074   -0.2770 O   0  0  0  0  0  0  0  0  0  0  0  0
    0.9371   -1.1139   -0.8646 C   0  0  0  0  0  0  0  0  0  0  0  0
   -0.4568   -0.6025   -0.8922 C   0  0  0  0  0  0  0  0  0  0  0  0
   -1.3588   -0.8578    0.2264 C   0  0  0  0  0  0  0  0  0  0  0  0
   -2.7247   -0.7017    0.1532 O   0  0  0  0  0  0  0  0  0  0  0  0
   -0.4698    2.2823   -0.8100 H   0  0  0  0  0  0  0  0  0  0  0  0
   -2.0603    1.5049   -0.8916 H   0  0  0  0  0  0  0  0  0  0  0  0
   -1.5556    2.3170    0.6378 H   0  0  0  0  0  0  0  0  0  0  0  0
    0.4373   -0.1267    1.9698 H   0  0  0  0  0  0  0  0  0  0  0  0
    0.9761    1.4184    1.2515 H   0  0  0  0  0  0  0  0  0  0  0  0
    2.1682   -1.1721    0.8575 H   0  0  0  0  0  0  0  0  0  0  0  0
    3.5206    0.1301   -0.1340 H   0  0  0  0  0  0  0  0  0  0  0  0
    0.9807   -2.2004   -0.7726 H   0  0  0  0  0  0  0  0  0  0  0  0
    1.4299   -0.8289   -1.8202 H   0  0  0  0  0  0  0  0  0  0  0  0
   -0.9063   -0.3596   -1.8977 H   0  0  0  0  0  0  0  0  0  0  0  0
   -1.0497   -1.6604    0.9429 H   0  0  0  0  0  0  0  0  0  0  0  0
   -3.0557   -0.6656    1.1074 H   0  0  0  0  0  0  0  0  0  0  0  0
  1  2  1  0
  2  3  1  0
  3  4  1  0
  4  5  1  0
  4  6  1  0
  6  7  1  0
  7  8  1  0
  8  9  1  0
  7  2  1  0
  8  2  1  0
  1 10  1  0
  1 11  1  0
  1 12  1  0
  3 13  1  0
  3 14  1  0
  4 15  1  0
  5 16  1  0
  6 17  1  0
  6 18  1  0
  7 19  1  0
  8 20  1  0
  9 21  1  0
M  END
