
     RDKit          3D

 19 21  0  0  0  0  0  0  0  0999 V2000
   -2.0383   -0.5367   -0.2197 C   0  0  0  0  0  0  0  0  0  0  0  0
   -0.7007   -0.0468   -0.0167 C   0  0  0  0  0  0  0  0  0  0  0  0
    0.2295    0.0815   -1.2334 C   0  0  0  0  0  0  0  0  0  0  0  0
    1.3167   -0.0054   -0.1525 C   0  0  0  0  0  0  0  0  0  0  0  0
    2.5273   -0.4120   -0.5028 O   0  0  0  0  0  0  0  0  0  0  0  0
    0.3680   -1.0045    0.5199 C   0  0  0  0  0  0  0  0  0  0  0  0
    1.0996    1.2736    0.5910 C   0  0  0  0  0  0  0  0  0  0  0  0
    0.2853    2.2574    0.0250 O   0  0  0  0  0  0  0  0  0  0  0  0
   -0.4405    1.2544    0.6810 C   0  0  0  0  0  0  0  0  0  0  0  0
   -2.3016   -1.3115    0.5441 H   0  0  0  0  0  0  0  0  0  0  0  0
   -2.2667   -0.9353   -1.2380 H   0  0  0  0  0  0  0  0  0  0  0  0
   -2.7871    0.2962   -0.0748 H   0  0  0  0  0  0  0  0  0  0  0  0
    0.1452    1.1001   -1.6590 H   0  0  0  0  0  0  0  0  0  0  0  0
    0.1970   -0.7585   -1.9222 H   0  0  0  0  0  0  0  0  0  0  0  0
    2.7661   -1.2907   -0.0833 H   0  0  0  0  0  0  0  0  0  0  0  0
    0.3640   -1.9696    0.0059 H   0  0  0  0  0  0  0  0  0  0  0  0
    0.4849   -1.0023    1.6052 H   0  0  0  0  0  0  0  0  0  0  0  0
    1.6649    1.4932    1.5073 H   0  0  0  0  0  0  0  0  0  0  0  0
   -0.9136    1.5168    1.6231 H   0  0  0  0  0  0  0  0  0  0  0  0
  1  2  1  0
  2  3  1  0
  3  4  1  0
  4  5  1  0
  4  6  1  0
  4  7  1  0
  7  8  1  0
  8  9  1  0
  6  2  1  0
  9  7  1  0
  9  2  1  0
  1 10  1  0
  1 11  1  0
  1 12  1  0
  3 13  1  0
  3 14  1  0
  5 15  1  0
  6 16  1  0
  6 17  1  0
  7 18  1  0
  9 19  1  0
M  END
