
     RDKit          3D

 19 22  0  0  0  0  0  0  0  0999 V2000
   -2.4409    0.4070    0.3335 C   0  0  0  0  0  0  0  0  0  0  0  0
   -1.1041   -0.0081    0.0366 C   0  0  0  0  0  0  0  0  0  0  0  0
   -0.1946    0.5422   -0.9418 C   0  0  0  0  0  0  0  0  0  0  0  0
   -0.5658   -0.8630   -0.9923 C   0  0  0  0  0  0  0  0  0  0  0  0
    0.5988   -1.1738   -0.0945 C   0  0  0  0  0  0  0  0  0  0  0  0
    1.2946   -2.2923   -0.0821 O   0  0  0  0  0  0  0  0  0  0  0  0
   -0.0152   -0.3940    0.9270 C   0  0  0  0  0  0  0  0  0  0  0  0
    0.9719    0.1993   -0.1336 C   0  0  0  0  0  0  0  0  0  0  0  0
    2.0461    0.9748    0.3652 C   0  0  0  0  0  0  0  0  0  0  0  0
   -3.0328    0.5747   -0.5859 H   0  0  0  0  0  0  0  0  0  0  0  0
   -3.0138   -0.2736    0.9839 H   0  0  0  0  0  0  0  0  0  0  0  0
   -2.4413    1.4050    0.8630 H   0  0  0  0  0  0  0  0  0  0  0  0
   -0.3232    1.3042   -1.6578 H   0  0  0  0  0  0  0  0  0  0  0  0
   -0.9825   -1.4571   -1.7364 H   0  0  0  0  0  0  0  0  0  0  0  0
    1.9451   -2.3176   -0.8530 H   0  0  0  0  0  0  0  0  0  0  0  0
    0.1456   -0.2303    1.9446 H   0  0  0  0  0  0  0  0  0  0  0  0
    1.8892    2.0712    0.2180 H   0  0  0  0  0  0  0  0  0  0  0  0
    3.0385    0.6943   -0.0716 H   0  0  0  0  0  0  0  0  0  0  0  0
    2.1844    0.8370    1.4772 H   0  0  0  0  0  0  0  0  0  0  0  0
  1  2  1  0
  2  3  1  0
  3  4  1  0
  4  5  1  0
  5  6  1  0
  5  7  1  0
  7  8  1  0
  8  9  1  0
  4  2  1  0
  8  5  1  0
  7  2  1  0
  8  3  1  0
  1 10  1  0
  1 11  1  0
  1 12  1  0
  3 13  1  0
  4 14  1  0
  6 15  1  0
  7 16  1  0
  9 17  1  0
  9 18  1  0
  9 19  1  0
M  END
