
     RDKit          3D

 19 21  0  0  0  0  0  0  0  0999 V2000
    1.5127   -0.3409   -1.1870 C   0  0  0  0  0  0  0  0  0  0  0  0
    0.5698   -0.1196   -0.0749 C   0  0  0  0  0  0  0  0  0  0  0  0
    0.0978   -1.3388    0.6832 C   0  0  0  0  0  0  0  0  0  0  0  0
   -1.2187   -1.0602    1.0897 O   0  0  0  0  0  0  0  0  0  0  0  0
   -1.8070   -0.4538   -0.0448 C   0  0  0  0  0  0  0  0  0  0  0  0
   -0.7619    0.5323   -0.4370 C   0  0  0  0  0  0  0  0  0  0  0  0
   -0.4928    1.5339    0.6558 C   0  0  0  0  0  0  0  0  0  0  0  0
   -0.0457    1.1329    1.8892 O   0  0  0  0  0  0  0  0  0  0  0  0
    0.8158    1.0750    0.8161 C   0  0  0  0  0  0  0  0  0  0  0  0
    2.5519   -0.0237   -0.8957 H   0  0  0  0  0  0  0  0  0  0  0  0
    1.2286    0.1720   -2.1082 H   0  0  0  0  0  0  0  0  0  0  0  0
    1.5183   -1.4419   -1.4366 H   0  0  0  0  0  0  0  0  0  0  0  0
    0.0401   -2.1892   -0.0017 H   0  0  0  0  0  0  0  0  0  0  0  0
    0.7059   -1.4895    1.5784 H   0  0  0  0  0  0  0  0  0  0  0  0
   -2.0295   -1.2092   -0.8000 H   0  0  0  0  0  0  0  0  0  0  0  0
   -2.7185    0.0827    0.3274 H   0  0  0  0  0  0  0  0  0  0  0  0
   -0.7923    0.9599   -1.4326 H   0  0  0  0  0  0  0  0  0  0  0  0
   -0.9138    2.5377    0.6105 H   0  0  0  0  0  0  0  0  0  0  0  0
    1.7393    1.6402    0.7682 H   0  0  0  0  0  0  0  0  0  0  0  0
  1  2  1  0
  2  3  1  0
  3  4  1  0
  4  5  1  0
  5  6  1  0
  6  7  1  0
  7  8  1  0
  8  9  1  0
  6  2  1  0
  9  7  1  0
  9  2  1  0
  1 10  1  0
  1 11  1  0
  1 12  1  0
  3 13  1  0
  3 14  1  0
  5 15  1  0
  5 16  1  0
  6 17  1  0
  7 18  1  0
  9 19  1  0
M  END
