
     RDKit          3D

 21 22  0  0  0  0  0  0  0  0999 V2000
   -2.0573   -0.7021   -0.2308 C   0  0  0  0  0  0  0  0  0  0  0  0
   -0.6520   -0.2055   -0.1100 C   0  0  0  0  0  0  0  0  0  0  0  0
    0.3699   -1.2867    0.0202 C   0  0  0  0  0  0  0  0  0  0  0  0
    1.6832   -0.7526    0.5162 C   0  0  0  0  0  0  0  0  0  0  0  0
    1.7938    0.6708    0.1419 C   0  0  0  0  0  0  0  0  0  0  0  0
    2.8885    1.1600   -0.0021 O   0  0  0  0  0  0  0  0  0  0  0  0
    0.5863    1.4664   -0.0487 C   0  0  0  0  0  0  0  0  0  0  0  0
   -0.4675    0.9205    0.9062 C   0  0  0  0  0  0  0  0  0  0  0  0
   -0.2368    0.8068   -1.1657 C   0  0  0  0  0  0  0  0  0  0  0  0
   -2.7649    0.1511   -0.2723 H   0  0  0  0  0  0  0  0  0  0  0  0
   -2.1391   -1.3314   -1.1268 H   0  0  0  0  0  0  0  0  0  0  0  0
   -2.2792   -1.3140    0.6622 H   0  0  0  0  0  0  0  0  0  0  0  0
    0.4794   -1.7848   -0.9786 H   0  0  0  0  0  0  0  0  0  0  0  0
    0.0127   -2.0743    0.7046 H   0  0  0  0  0  0  0  0  0  0  0  0
    1.7215   -0.9168    1.6104 H   0  0  0  0  0  0  0  0  0  0  0  0
    2.4852   -1.3802    0.0812 H   0  0  0  0  0  0  0  0  0  0  0  0
    0.6586    2.5439   -0.1068 H   0  0  0  0  0  0  0  0  0  0  0  0
   -0.0826    0.5950    1.8804 H   0  0  0  0  0  0  0  0  0  0  0  0
   -1.3835    1.5389    0.9150 H   0  0  0  0  0  0  0  0  0  0  0  0
    0.4437    0.4357   -1.9339 H   0  0  0  0  0  0  0  0  0  0  0  0
   -1.0601    1.4593   -1.4625 H   0  0  0  0  0  0  0  0  0  0  0  0
  1  2  1  0
  2  3  1  0
  3  4  1  0
  4  5  1  0
  5  6  2  0
  5  7  1  0
  7  8  1  0
  7  9  1  0
  8  2  1  0
  9  2  1  0
  1 10  1  0
  1 11  1  0
  1 12  1  0
  3 13  1  0
  3 14  1  0
  4 15  1  0
  4 16  1  0
  7 17  1  0
  8 18  1  0
  8 19  1  0
  9 20  1  0
  9 21  1  0
M  END
