
     RDKit          3D

 16 18  0  0  0  0  0  0  0  0999 V2000
   -2.1822   -0.1465   -0.3405 C   0  0  0  0  0  0  0  0  0  0  0  0
   -0.7073    0.0143   -0.4159 C   0  0  0  0  0  0  0  0  0  0  0  0
   -0.1200    1.2355   -0.6930 O   0  0  0  0  0  0  0  0  0  0  0  0
    0.8963    1.0423    0.2343 C   0  0  0  0  0  0  0  0  0  0  0  0
    2.0446    0.1768   -0.3070 C   0  0  0  0  0  0  0  0  0  0  0  0
    1.4663   -0.9851   -0.7447 O   0  0  0  0  0  0  0  0  0  0  0  0
    0.2233   -1.1314   -0.1248 C   0  0  0  0  0  0  0  0  0  0  0  0
    0.0542   -0.0513    0.8282 C   0  0  0  0  0  0  0  0  0  0  0  0
   -2.6625   -0.2013   -1.3177 H   0  0  0  0  0  0  0  0  0  0  0  0
   -2.5924    0.7545    0.1997 H   0  0  0  0  0  0  0  0  0  0  0  0
   -2.4399   -1.0110    0.3276 H   0  0  0  0  0  0  0  0  0  0  0  0
    1.1844    1.8712    0.8623 H   0  0  0  0  0  0  0  0  0  0  0  0
    2.6536    0.7111   -1.0378 H   0  0  0  0  0  0  0  0  0  0  0  0
    2.6442   -0.0866    0.6147 H   0  0  0  0  0  0  0  0  0  0  0  0
   -0.1563   -2.1246    0.0900 H   0  0  0  0  0  0  0  0  0  0  0  0
   -0.3063   -0.0678    1.8247 H   0  0  0  0  0  0  0  0  0  0  0  0
  1  2  1  0
  2  3  1  0
  3  4  1  0
  4  5  1  0
  5  6  1  0
  6  7  1  0
  7  8  1  0
  7  2  1  0
  8  2  1  0
  8  4  1  0
  1  9  1  0
  1 10  1  0
  1 11  1  0
  4 12  1  0
  5 13  1  0
  5 14  1  0
  7 15  1  0
  8 16  1  0
M  END
