
     RDKit          3D

 19 21  0  0  0  0  0  0  0  0999 V2000
   -1.8431   -1.0144   -0.3989 C   0  0  0  0  0  0  0  0  0  0  0  0
   -0.4872   -0.3253   -0.3479 C   0  0  0  0  0  0  0  0  0  0  0  0
   -0.5038    1.1325   -0.7122 C   0  0  0  0  0  0  0  0  0  0  0  0
    0.0821    1.4451    0.6399 C   0  0  0  0  0  0  0  0  0  0  0  0
    1.2125    0.5618    1.1483 C   0  0  0  0  0  0  0  0  0  0  0  0
    2.0838    0.1837    0.1913 O   0  0  0  0  0  0  0  0  0  0  0  0
    1.7616   -0.8320   -0.6317 C   0  0  0  0  0  0  0  0  0  0  0  0
    0.4746   -1.0985   -0.8968 O   0  0  0  0  0  0  0  0  0  0  0  0
   -0.1648    0.0631    1.0640 C   0  0  0  0  0  0  0  0  0  0  0  0
   -2.5189   -0.5293    0.3239 H   0  0  0  0  0  0  0  0  0  0  0  0
   -1.6812   -2.0547   -0.0338 H   0  0  0  0  0  0  0  0  0  0  0  0
   -2.2823   -0.9931   -1.4060 H   0  0  0  0  0  0  0  0  0  0  0  0
    0.2480    1.3292   -1.5088 H   0  0  0  0  0  0  0  0  0  0  0  0
   -1.4888    1.5859   -0.8551 H   0  0  0  0  0  0  0  0  0  0  0  0
   -0.2118    2.3304    1.2001 H   0  0  0  0  0  0  0  0  0  0  0  0
    1.5599    0.8591    2.1682 H   0  0  0  0  0  0  0  0  0  0  0  0
    2.2473   -1.7735   -0.2374 H   0  0  0  0  0  0  0  0  0  0  0  0
    2.3007   -0.6568   -1.6114 H   0  0  0  0  0  0  0  0  0  0  0  0
   -0.7886   -0.2132    1.9044 H   0  0  0  0  0  0  0  0  0  0  0  0
  1  2  1  0
  2  3  1  0
  3  4  1  0
  4  5  1  0
  5  6  1  0
  6  7  1  0
  7  8  1  0
  5  9  1  0
  8  2  1  0
  9  2  1  0
  9  4  1  0
  1 10  1  0
  1 11  1  0
  1 12  1  0
  3 13  1  0
  3 14  1  0
  4 15  1  0
  5 16  1  0
  7 17  1  0
  7 18  1  0
  9 19  1  0
M  END
