
     RDKit          3D

 19 21  0  0  0  0  0  0  0  0999 V2000
   -0.6206    1.3455   -0.8563 C   0  0  0  0  0  0  0  0  0  0  0  0
   -0.3084   -0.0077   -0.3026 C   0  0  0  0  0  0  0  0  0  0  0  0
   -1.4926   -0.8323    0.2831 C   0  0  0  0  0  0  0  0  0  0  0  0
   -2.7178   -0.2535    0.0985 O   0  0  0  0  0  0  0  0  0  0  0  0
   -0.5894   -0.2184    1.2313 C   0  0  0  0  0  0  0  0  0  0  0  0
    0.6164   -0.8277    1.6658 O   0  0  0  0  0  0  0  0  0  0  0  0
    1.5141   -0.0664    0.9721 C   0  0  0  0  0  0  0  0  0  0  0  0
    2.3341   -0.2461   -0.1521 C   0  0  0  0  0  0  0  0  0  0  0  0
    1.0027   -0.6463   -0.4119 C   0  0  0  0  0  0  0  0  0  0  0  0
   -0.0853    1.4707   -1.7983 H   0  0  0  0  0  0  0  0  0  0  0  0
   -1.7212    1.3924   -1.0272 H   0  0  0  0  0  0  0  0  0  0  0  0
   -0.3983    2.1366   -0.1076 H   0  0  0  0  0  0  0  0  0  0  0  0
   -1.3539   -1.9143    0.0690 H   0  0  0  0  0  0  0  0  0  0  0  0
   -3.4151   -0.9537    0.0311 H   0  0  0  0  0  0  0  0  0  0  0  0
   -0.7812    0.7249    1.7542 H   0  0  0  0  0  0  0  0  0  0  0  0
    1.2502    1.0215    1.1680 H   0  0  0  0  0  0  0  0  0  0  0  0
    2.7138    0.6400   -0.7441 H   0  0  0  0  0  0  0  0  0  0  0  0
    3.1673   -0.9880   -0.0869 H   0  0  0  0  0  0  0  0  0  0  0  0
    0.8852   -1.7772   -0.4380 H   0  0  0  0  0  0  0  0  0  0  0  0
  1  2  1  0
  2  3  1  0
  3  4  1  0
  3  5  1  0
  5  6  1  0
  6  7  1  0
  7  8  1  0
  8  9  1  0
  5  2  1  0
  9  7  1  0
  9  2  1  0
  1 10  1  0
  1 11  1  0
  1 12  1  0
  3 13  1  0
  4 14  1  0
  5 15  1  0
  7 16  1  0
  8 17  1  0
  8 18  1  0
  9 19  1  0
M  END
