
     RDKit          3D

 15 17  0  0  0  0  0  0  0  0999 V2000
   -1.5381   -0.8132   -0.1476 C   0  0  0  0  0  0  0  0  0  0  0  0
   -0.3113   -0.0707    0.2321 C   0  0  0  0  0  0  0  0  0  0  0  0
   -0.3420    1.4015    0.2381 C   0  0  0  0  0  0  0  0  0  0  0  0
    0.5102    0.6943   -0.7334 C   0  0  0  0  0  0  0  0  0  0  0  0
    1.7327   -0.0211   -0.1558 C   0  0  0  0  0  0  0  0  0  0  0  0
    1.9089    0.0639    1.2025 O   0  0  0  0  0  0  0  0  0  0  0  0
    0.9517   -0.8093    0.6291 C   0  0  0  0  0  0  0  0  0  0  0  0
   -1.6772   -1.7586    0.4367 H   0  0  0  0  0  0  0  0  0  0  0  0
   -1.6389   -1.0186   -1.2291 H   0  0  0  0  0  0  0  0  0  0  0  0
   -2.4222   -0.1759    0.1530 H   0  0  0  0  0  0  0  0  0  0  0  0
   -1.2736    1.8796   -0.0622 H   0  0  0  0  0  0  0  0  0  0  0  0
    0.1990    1.9181    1.0664 H   0  0  0  0  0  0  0  0  0  0  0  0
    0.3463    0.6955   -1.8040 H   0  0  0  0  0  0  0  0  0  0  0  0
    2.6275   -0.1378   -0.7551 H   0  0  0  0  0  0  0  0  0  0  0  0
    0.9269   -1.8475    0.9291 H   0  0  0  0  0  0  0  0  0  0  0  0
  1  2  1  0
  2  3  1  0
  3  4  1  0
  4  5  1  0
  5  6  1  0
  6  7  1  0
  4  2  1  0
  7  5  1  0
  7  2  1  0
  1  8  1  0
  1  9  1  0
  1 10  1  0
  3 11  1  0
  3 12  1  0
  4 13  1  0
  5 14  1  0
  7 15  1  0
M  END
