
     RDKit          3D

 23 24  0  0  0  0  0  0  0  0999 V2000
    2.1543    0.9408   -0.4141 C   0  0  0  0  0  0  0  0  0  0  0  0
    0.8307    0.3525   -0.0594 C   0  0  0  0  0  0  0  0  0  0  0  0
    0.0739    1.1371    0.9446 C   0  0  0  0  0  0  0  0  0  0  0  0
   -1.2485    1.1537    0.9565 C   0  0  0  0  0  0  0  0  0  0  0  0
   -2.0535    0.1544    0.1880 C   0  0  0  0  0  0  0  0  0  0  0  0
   -1.1530   -0.7307   -0.6467 C   0  0  0  0  0  0  0  0  0  0  0  0
   -0.3720   -1.6705    0.2286 C   0  0  0  0  0  0  0  0  0  0  0  0
    0.9810   -1.0641    0.4672 C   0  0  0  0  0  0  0  0  0  0  0  0
   -0.0881    0.1901   -1.2607 C   0  0  0  0  0  0  0  0  0  0  0  0
    2.9228    0.4757    0.2658 H   0  0  0  0  0  0  0  0  0  0  0  0
    2.4251    0.6724   -1.4588 H   0  0  0  0  0  0  0  0  0  0  0  0
    2.1768    2.0540   -0.2721 H   0  0  0  0  0  0  0  0  0  0  0  0
    0.5975    1.7125    1.6885 H   0  0  0  0  0  0  0  0  0  0  0  0
   -1.8162    1.8946    1.5255 H   0  0  0  0  0  0  0  0  0  0  0  0
   -2.7692    0.6758   -0.4980 H   0  0  0  0  0  0  0  0  0  0  0  0
   -2.6180   -0.5316    0.8834 H   0  0  0  0  0  0  0  0  0  0  0  0
   -1.7146   -1.2577   -1.4230 H   0  0  0  0  0  0  0  0  0  0  0  0
   -0.9241   -1.8025    1.1850 H   0  0  0  0  0  0  0  0  0  0  0  0
   -0.2660   -2.6766   -0.2711 H   0  0  0  0  0  0  0  0  0  0  0  0
    1.8108   -1.6092    0.0059 H   0  0  0  0  0  0  0  0  0  0  0  0
    1.2002   -0.9721    1.5540 H   0  0  0  0  0  0  0  0  0  0  0  0
   -0.5489    1.1752   -1.4712 H   0  0  0  0  0  0  0  0  0  0  0  0
    0.3989   -0.2741   -2.1180 H   0  0  0  0  0  0  0  0  0  0  0  0
  1  2  1  0
  2  3  1  0
  3  4  2  0
  4  5  1  0
  5  6  1  0
  6  7  1  0
  7  8  1  0
  6  9  1  0
  8  2  1  0
  9  2  1  0
  1 10  1  0
  1 11  1  0
  1 12  1  0
  3 13  1  0
  4 14  1  0
  5 15  1  0
  5 16  1  0
  6 17  1  0
  7 18  1  0
  7 19  1  0
  8 20  1  0
  8 21  1  0
  9 22  1  0
  9 23  1  0
M  END
