
     RDKit          3D

 19 20  0  0  0  0  0  0  0  0999 V2000
   -1.8746   -0.5451   -0.6110 C   0  0  0  0  0  0  0  0  0  0  0  0
   -0.6046   -0.0513   -0.0235 C   0  0  0  0  0  0  0  0  0  0  0  0
    0.2606   -1.0670    0.6696 C   0  0  0  0  0  0  0  0  0  0  0  0
    0.2336   -0.9180    2.0423 O   0  0  0  0  0  0  0  0  0  0  0  0
    1.4812   -0.4730   -0.0209 C   0  0  0  0  0  0  0  0  0  0  0  0
    0.5415    0.4221   -0.7853 C   0  0  0  0  0  0  0  0  0  0  0  0
    0.6026    0.5375   -2.1408 O   0  0  0  0  0  0  0  0  0  0  0  0
   -0.2431    1.3723    0.0660 C   0  0  0  0  0  0  0  0  0  0  0  0
    0.4508    1.8408    1.1811 O   0  0  0  0  0  0  0  0  0  0  0  0
   -2.7025   -0.2920    0.1082 H   0  0  0  0  0  0  0  0  0  0  0  0
   -2.0967   -0.1783   -1.6286 H   0  0  0  0  0  0  0  0  0  0  0  0
   -1.8377   -1.6566   -0.6869 H   0  0  0  0  0  0  0  0  0  0  0  0
    0.0104   -2.1043    0.3223 H   0  0  0  0  0  0  0  0  0  0  0  0
    1.1754   -0.8595    2.3670 H   0  0  0  0  0  0  0  0  0  0  0  0
    2.0571   -1.1949   -0.6211 H   0  0  0  0  0  0  0  0  0  0  0  0
    2.0942    0.1235    0.6821 H   0  0  0  0  0  0  0  0  0  0  0  0
    1.3790    1.1153   -2.4020 H   0  0  0  0  0  0  0  0  0  0  0  0
   -0.8496    2.0955   -0.5248 H   0  0  0  0  0  0  0  0  0  0  0  0
   -0.0773    1.8330    2.0063 H   0  0  0  0  0  0  0  0  0  0  0  0
  1  2  1  0
  2  3  1  0
  3  4  1  0
  3  5  1  0
  5  6  1  0
  6  7  1  0
  6  8  1  0
  8  9  1  0
  6  2  1  0
  8  2  1  0
  1 10  1  0
  1 11  1  0
  1 12  1  0
  3 13  1  0
  4 14  1  0
  5 15  1  0
  5 16  1  0
  7 17  1  0
  8 18  1  0
  9 19  1  0
M  END
