
     RDKit          3D

 19 21  0  0  0  0  0  0  0  0999 V2000
    2.6535    0.0435    0.2048 C   0  0  0  0  0  0  0  0  0  0  0  0
    1.2947   -0.0302   -0.0098 C   0  0  0  0  0  0  0  0  0  0  0  0
    0.4481   -1.2589   -0.1092 C   0  0  0  0  0  0  0  0  0  0  0  0
   -0.4291   -0.0737   -0.3654 C   0  0  0  0  0  0  0  0  0  0  0  0
   -1.7799   -0.0720   -0.6524 C   0  0  0  0  0  0  0  0  0  0  0  0
   -2.7409    0.6513    0.3018 C   0  0  0  0  0  0  0  0  0  0  0  0
   -2.6632   -0.7148    0.3188 O   0  0  0  0  0  0  0  0  0  0  0  0
    0.2081    0.5667    0.8365 C   0  0  0  0  0  0  0  0  0  0  0  0
    0.5889    0.4560   -1.1073 O   0  0  0  0  0  0  0  0  0  0  0  0
    2.9482    0.2480    1.2699 H   0  0  0  0  0  0  0  0  0  0  0  0
    3.2238   -0.8640   -0.0869 H   0  0  0  0  0  0  0  0  0  0  0  0
    3.1507    0.8811   -0.3698 H   0  0  0  0  0  0  0  0  0  0  0  0
    0.1816   -1.7749    0.8115 H   0  0  0  0  0  0  0  0  0  0  0  0
    0.7052   -1.8943   -0.9541 H   0  0  0  0  0  0  0  0  0  0  0  0
   -2.1518   -0.2154   -1.6822 H   0  0  0  0  0  0  0  0  0  0  0  0
   -2.2587    1.1869    1.1489 H   0  0  0  0  0  0  0  0  0  0  0  0
   -3.5945    1.1790   -0.1484 H   0  0  0  0  0  0  0  0  0  0  0  0
    0.1140    0.0363    1.7897 H   0  0  0  0  0  0  0  0  0  0  0  0
    0.1014    1.6493    0.8254 H   0  0  0  0  0  0  0  0  0  0  0  0
  1  2  1  0
  2  3  1  0
  3  4  1  0
  4  5  1  0
  5  6  1  0
  6  7  1  0
  4  8  1  0
  4  9  1  0
  8  2  1  0
  9  2  1  0
  7  5  1  0
  1 10  1  0
  1 11  1  0
  1 12  1  0
  3 13  1  0
  3 14  1  0
  5 15  1  0
  6 16  1  0
  6 17  1  0
  8 18  1  0
  8 19  1  0
M  END
