
     RDKit          3D

 23 25  0  0  0  0  0  0  0  0999 V2000
   -2.8256   -0.5309   -0.3284 C   0  0  0  0  0  0  0  0  0  0  0  0
   -1.5348   -0.1890   -0.0473 C   0  0  0  0  0  0  0  0  0  0  0  0
   -0.6340   -0.7336    1.0282 C   0  0  0  0  0  0  0  0  0  0  0  0
    0.2228    0.2958    0.3098 C   0  0  0  0  0  0  0  0  0  0  0  0
    1.5178    0.6323    0.5995 C   0  0  0  0  0  0  0  0  0  0  0  0
    2.5749   -0.4937    0.5202 C   0  0  0  0  0  0  0  0  0  0  0  0
    2.5970    0.6595   -0.4182 C   0  0  0  0  0  0  0  0  0  0  0  0
   -0.9999    1.1679    0.3492 C   0  0  0  0  0  0  0  0  0  0  0  0
   -0.3309   -0.2742   -0.9543 C   0  0  0  0  0  0  0  0  0  0  0  0
   -3.5971    0.2390   -0.0866 H   0  0  0  0  0  0  0  0  0  0  0  0
   -3.1939   -1.4552    0.2072 H   0  0  0  0  0  0  0  0  0  0  0  0
   -3.0235   -0.7750   -1.4141 H   0  0  0  0  0  0  0  0  0  0  0  0
   -0.3013   -1.7675    0.9161 H   0  0  0  0  0  0  0  0  0  0  0  0
   -0.9509   -0.4140    2.0416 H   0  0  0  0  0  0  0  0  0  0  0  0
    1.7134    1.3514    1.4520 H   0  0  0  0  0  0  0  0  0  0  0  0
    2.2493   -1.4538    0.0629 H   0  0  0  0  0  0  0  0  0  0  0  0
    3.2827   -0.5833    1.3469 H   0  0  0  0  0  0  0  0  0  0  0  0
    3.4822    1.3286   -0.3022 H   0  0  0  0  0  0  0  0  0  0  0  0
    2.3590    0.4982   -1.5027 H   0  0  0  0  0  0  0  0  0  0  0  0
   -1.0632    1.9268   -0.4432 H   0  0  0  0  0  0  0  0  0  0  0  0
   -1.2159    1.4891    1.3783 H   0  0  0  0  0  0  0  0  0  0  0  0
   -0.3113    0.4070   -1.8047 H   0  0  0  0  0  0  0  0  0  0  0  0
   -0.0167   -1.3251   -1.1880 H   0  0  0  0  0  0  0  0  0  0  0  0
  1  2  1  0
  2  3  1  0
  3  4  1  0
  4  5  1  0
  5  6  1  0
  6  7  1  0
  4  8  1  0
  4  9  1  0
  8  2  1  0
  9  2  1  0
  7  5  1  0
  1 10  1  0
  1 11  1  0
  1 12  1  0
  3 13  1  0
  3 14  1  0
  5 15  1  0
  6 16  1  0
  6 17  1  0
  7 18  1  0
  7 19  1  0
  8 20  1  0
  8 21  1  0
  9 22  1  0
  9 23  1  0
M  END
