
     RDKit          3D

 18 20  0  0  0  0  0  0  0  0999 V2000
    2.0232   -0.7169    0.0984 C   0  0  0  0  0  0  0  0  0  0  0  0
    0.7096   -0.0584    0.0322 C   0  0  0  0  0  0  0  0  0  0  0  0
    0.5448    1.3706   -0.4223 C   0  0  0  0  0  0  0  0  0  0  0  0
   -0.6818    1.8066   -0.0146 O   0  0  0  0  0  0  0  0  0  0  0  0
   -1.3981    0.7618    0.5219 C   0  0  0  0  0  0  0  0  0  0  0  0
   -1.7756   -0.2248   -0.5918 C   0  0  0  0  0  0  0  0  0  0  0  0
   -0.4689   -0.9365   -0.3196 C   0  0  0  0  0  0  0  0  0  0  0  0
   -0.3881   -0.2408    0.9752 C   0  0  0  0  0  0  0  0  0  0  0  0
    2.1084   -1.2424    1.0943 H   0  0  0  0  0  0  0  0  0  0  0  0
    2.8644   -0.0537   -0.1065 H   0  0  0  0  0  0  0  0  0  0  0  0
    2.0282   -1.5658   -0.6471 H   0  0  0  0  0  0  0  0  0  0  0  0
    0.5606    1.3564   -1.5365 H   0  0  0  0  0  0  0  0  0  0  0  0
    1.3151    2.0510   -0.0128 H   0  0  0  0  0  0  0  0  0  0  0  0
   -2.2084    1.0220    1.1880 H   0  0  0  0  0  0  0  0  0  0  0  0
   -2.6178   -0.8782   -0.3011 H   0  0  0  0  0  0  0  0  0  0  0  0
   -1.8540    0.2589   -1.5866 H   0  0  0  0  0  0  0  0  0  0  0  0
   -0.3989   -2.0177   -0.3134 H   0  0  0  0  0  0  0  0  0  0  0  0
   -0.3628   -0.6921    1.9425 H   0  0  0  0  0  0  0  0  0  0  0  0
  1  2  1  0
  2  3  1  0
  3  4  1  0
  4  5  1  0
  5  6  1  0
  6  7  1  0
  7  8  1  0
  7  2  1  0
  8  2  1  0
  8  5  1  0
  1  9  1  0
  1 10  1  0
  1 11  1  0
  3 12  1  0
  3 13  1  0
  5 14  1  0
  6 15  1  0
  6 16  1  0
  7 17  1  0
  8 18  1  0
M  END
