
     RDKit          3D

 19 21  0  0  0  0  0  0  0  0999 V2000
    1.8765    1.3386    0.1113 C   0  0  0  0  0  0  0  0  0  0  0  0
    1.1809    0.0743   -0.3182 C   0  0  0  0  0  0  0  0  0  0  0  0
    1.8427   -1.2086   -0.0066 C   0  0  0  0  0  0  0  0  0  0  0  0
    0.5522   -0.8287    0.6824 C   0  0  0  0  0  0  0  0  0  0  0  0
   -0.6314   -0.8098   -0.2055 C   0  0  0  0  0  0  0  0  0  0  0  0
   -1.9534   -0.4460    0.3807 C   0  0  0  0  0  0  0  0  0  0  0  0
   -2.5810    0.8355    0.3022 C   0  0  0  0  0  0  0  0  0  0  0  0
   -2.8988   -0.1430   -0.7297 O   0  0  0  0  0  0  0  0  0  0  0  0
   -0.0180    0.1476   -0.9871 O   0  0  0  0  0  0  0  0  0  0  0  0
    1.3027    1.9586    0.7969 H   0  0  0  0  0  0  0  0  0  0  0  0
    2.8984    1.0833    0.4692 H   0  0  0  0  0  0  0  0  0  0  0  0
    2.0474    1.9649   -0.8113 H   0  0  0  0  0  0  0  0  0  0  0  0
    2.7856   -1.1616    0.5312 H   0  0  0  0  0  0  0  0  0  0  0  0
    1.7254   -2.1083   -0.6605 H   0  0  0  0  0  0  0  0  0  0  0  0
    0.5448   -0.4834    1.7120 H   0  0  0  0  0  0  0  0  0  0  0  0
   -0.7119   -1.7617   -0.7885 H   0  0  0  0  0  0  0  0  0  0  0  0
   -2.4102   -1.2344    1.0128 H   0  0  0  0  0  0  0  0  0  0  0  0
   -3.4221    1.0635    0.9761 H   0  0  0  0  0  0  0  0  0  0  0  0
   -2.1297    1.7189   -0.1595 H   0  0  0  0  0  0  0  0  0  0  0  0
  1  2  1  0
  2  3  1  0
  3  4  1  0
  4  5  1  0
  5  6  1  0
  6  7  1  0
  7  8  1  0
  5  9  1  0
  4  2  1  0
  8  6  1  0
  9  2  1  0
  1 10  1  0
  1 11  1  0
  1 12  1  0
  3 13  1  0
  3 14  1  0
  4 15  1  0
  5 16  1  0
  6 17  1  0
  7 18  1  0
  7 19  1  0
M  END
