
     RDKit          3D

 23 24  0  0  0  0  0  0  0  0999 V2000
   -2.2588   -0.6518    0.6621 C   0  0  0  0  0  0  0  0  0  0  0  0
   -0.8690   -0.1929    0.3324 C   0  0  0  0  0  0  0  0  0  0  0  0
   -0.8272    1.1641   -0.3192 C   0  0  0  0  0  0  0  0  0  0  0  0
    0.5963    1.5992   -0.4187 C   0  0  0  0  0  0  0  0  0  0  0  0
    1.5553    0.5489   -0.8437 C   0  0  0  0  0  0  0  0  0  0  0  0
    1.2726   -0.8026   -0.2729 C   0  0  0  0  0  0  0  0  0  0  0  0
    1.1338   -0.6650    1.2248 C   0  0  0  0  0  0  0  0  0  0  0  0
   -0.1112   -0.1570    1.4691 O   0  0  0  0  0  0  0  0  0  0  0  0
   -0.1776   -1.1456   -0.6389 C   0  0  0  0  0  0  0  0  0  0  0  0
   -2.6814    0.0747    1.3837 H   0  0  0  0  0  0  0  0  0  0  0  0
   -2.1734   -1.6371    1.1573 H   0  0  0  0  0  0  0  0  0  0  0  0
   -2.8891   -0.7588   -0.2484 H   0  0  0  0  0  0  0  0  0  0  0  0
   -1.3906    1.9070    0.2753 H   0  0  0  0  0  0  0  0  0  0  0  0
   -1.2963    1.1367   -1.3248 H   0  0  0  0  0  0  0  0  0  0  0  0
    0.8948    2.0491    0.5471 H   0  0  0  0  0  0  0  0  0  0  0  0
    0.6583    2.4371   -1.1653 H   0  0  0  0  0  0  0  0  0  0  0  0
    2.5753    0.8537   -0.4658 H   0  0  0  0  0  0  0  0  0  0  0  0
    1.6622    0.4615   -1.9630 H   0  0  0  0  0  0  0  0  0  0  0  0
    1.9828   -1.5471   -0.6006 H   0  0  0  0  0  0  0  0  0  0  0  0
    1.9158    0.0072    1.5963 H   0  0  0  0  0  0  0  0  0  0  0  0
    1.1817   -1.6742    1.7289 H   0  0  0  0  0  0  0  0  0  0  0  0
   -0.3407   -0.8163   -1.6772 H   0  0  0  0  0  0  0  0  0  0  0  0
   -0.4136   -2.1909   -0.4382 H   0  0  0  0  0  0  0  0  0  0  0  0
  1  2  1  0
  2  3  1  0
  3  4  1  0
  4  5  1  0
  5  6  1  0
  6  7  1  0
  7  8  1  0
  6  9  1  0
  8  2  1  0
  9  2  1  0
  1 10  1  0
  1 11  1  0
  1 12  1  0
  3 13  1  0
  3 14  1  0
  4 15  1  0
  4 16  1  0
  5 17  1  0
  5 18  1  0
  6 19  1  0
  7 20  1  0
  7 21  1  0
  9 22  1  0
  9 23  1  0
M  END
