
     RDKit          3D

 18 19  0  0  0  0  0  0  0  0999 V2000
   -1.4400    1.0354   -0.3161 C   0  0  0  0  0  0  0  0  0  0  0  0
   -0.5116    0.2783    0.5489 C   0  0  0  0  0  0  0  0  0  0  0  0
   -0.9446   -1.1195    0.9133 C   0  0  0  0  0  0  0  0  0  0  0  0
    0.3324   -1.6522    0.4301 C   0  0  0  0  0  0  0  0  0  0  0  0
    0.8056   -2.7676    0.3498 O   0  0  0  0  0  0  0  0  0  0  0  0
    0.7754   -0.2764    0.0944 C   0  0  0  0  0  0  0  0  0  0  0  0
    1.3844    0.0358   -1.2241 C   0  0  0  0  0  0  0  0  0  0  0  0
    0.7052    0.7909    1.1474 C   0  0  0  0  0  0  0  0  0  0  0  0
   -1.1242    2.0848   -0.4946 H   0  0  0  0  0  0  0  0  0  0  0  0
   -1.5851    0.4962   -1.2720 H   0  0  0  0  0  0  0  0  0  0  0  0
   -2.4319    1.1224    0.2168 H   0  0  0  0  0  0  0  0  0  0  0  0
   -1.8564   -1.4799    0.3607 H   0  0  0  0  0  0  0  0  0  0  0  0
   -1.1099   -1.1591    2.0215 H   0  0  0  0  0  0  0  0  0  0  0  0
    0.6752    0.1664   -2.0506 H   0  0  0  0  0  0  0  0  0  0  0  0
    1.9379    1.0081   -1.1189 H   0  0  0  0  0  0  0  0  0  0  0  0
    2.1738   -0.7189   -1.4515 H   0  0  0  0  0  0  0  0  0  0  0  0
    1.0352    0.4195    2.1612 H   0  0  0  0  0  0  0  0  0  0  0  0
    1.1786    1.7357    0.8727 H   0  0  0  0  0  0  0  0  0  0  0  0
  1  2  1  0
  2  3  1  0
  3  4  1  0
  4  5  2  0
  4  6  1  0
  6  7  1  0
  6  8  1  0
  6  2  1  0
  8  2  1  0
  1  9  1  0
  1 10  1  0
  1 11  1  0
  3 12  1  0
  3 13  1  0
  7 14  1  0
  7 15  1  0
  7 16  1  0
  8 17  1  0
  8 18  1  0
M  END
