
     RDKit          3D

 22 23  0  0  0  0  0  0  0  0999 V2000
   -2.1667   -0.1262    0.3888 C   0  0  0  0  0  0  0  0  0  0  0  0
   -0.7571   -0.0116    0.0369 C   0  0  0  0  0  0  0  0  0  0  0  0
   -0.3397    1.2216   -0.7005 C   0  0  0  0  0  0  0  0  0  0  0  0
    1.1718    1.2253   -0.4878 C   0  0  0  0  0  0  0  0  0  0  0  0
    1.4688    0.0868    0.4648 C   0  0  0  0  0  0  0  0  0  0  0  0
    1.3389   -1.2000   -0.2725 C   0  0  0  0  0  0  0  0  0  0  0  0
   -0.1446   -1.2002   -0.6609 C   0  0  0  0  0  0  0  0  0  0  0  0
    0.1579    0.0805    1.2711 C   0  0  0  0  0  0  0  0  0  0  0  0
   -2.4327   -1.1621    0.6248 H   0  0  0  0  0  0  0  0  0  0  0  0
   -2.8561    0.2385   -0.3803 H   0  0  0  0  0  0  0  0  0  0  0  0
   -2.3714    0.5032    1.3028 H   0  0  0  0  0  0  0  0  0  0  0  0
   -0.7908    2.1487   -0.2525 H   0  0  0  0  0  0  0  0  0  0  0  0
   -0.6008    1.1271   -1.7693 H   0  0  0  0  0  0  0  0  0  0  0  0
    1.5005    2.1535   -0.0089 H   0  0  0  0  0  0  0  0  0  0  0  0
    1.7085    1.0169   -1.4390 H   0  0  0  0  0  0  0  0  0  0  0  0
    2.3420    0.2168    1.0751 H   0  0  0  0  0  0  0  0  0  0  0  0
    1.5407   -2.0376    0.4527 H   0  0  0  0  0  0  0  0  0  0  0  0
    1.9839   -1.3074   -1.1461 H   0  0  0  0  0  0  0  0  0  0  0  0
   -0.6273   -2.1468   -0.4155 H   0  0  0  0  0  0  0  0  0  0  0  0
   -0.1734   -1.0055   -1.7489 H   0  0  0  0  0  0  0  0  0  0  0  0
    0.0071    1.0147    1.8129 H   0  0  0  0  0  0  0  0  0  0  0  0
    0.0405   -0.8364    1.8521 H   0  0  0  0  0  0  0  0  0  0  0  0
  1  2  1  0
  2  3  1  0
  3  4  1  0
  4  5  1  0
  5  6  1  0
  6  7  1  0
  5  8  1  0
  7  2  1  0
  8  2  1  0
  1  9  1  0
  1 10  1  0
  1 11  1  0
  3 12  1  0
  3 13  1  0
  4 14  1  0
  4 15  1  0
  5 16  1  0
  6 17  1  0
  6 18  1  0
  7 19  1  0
  7 20  1  0
  8 21  1  0
  8 22  1  0
M  END
