
     RDKit          3D

 17 19  0  0  0  0  0  0  0  0999 V2000
    1.8989    0.4971   -0.0035 C   0  0  0  0  0  0  0  0  0  0  0  0
    0.4888    0.1781   -0.0580 C   0  0  0  0  0  0  0  0  0  0  0  0
   -0.1761   -0.6862   -1.0722 C   0  0  0  0  0  0  0  0  0  0  0  0
   -0.7695   -1.6687   -0.3036 O   0  0  0  0  0  0  0  0  0  0  0  0
   -1.1124   -1.1766    0.9193 C   0  0  0  0  0  0  0  0  0  0  0  0
   -0.4719    0.2072    1.0611 C   0  0  0  0  0  0  0  0  0  0  0  0
   -0.6418    1.0986   -0.1073 C   0  0  0  0  0  0  0  0  0  0  0  0
   -1.1287    0.4141   -1.3294 C   0  0  0  0  0  0  0  0  0  0  0  0
   -1.9581    0.6895   -2.1503 O   0  0  0  0  0  0  0  0  0  0  0  0
    2.4952   -0.2971   -0.5324 H   0  0  0  0  0  0  0  0  0  0  0  0
    2.2634    0.4378    1.0641 H   0  0  0  0  0  0  0  0  0  0  0  0
    2.2062    1.5044   -0.3538 H   0  0  0  0  0  0  0  0  0  0  0  0
    0.4038   -1.0638   -1.9045 H   0  0  0  0  0  0  0  0  0  0  0  0
   -0.6481   -1.7909    1.7336 H   0  0  0  0  0  0  0  0  0  0  0  0
   -2.2035   -1.0528    1.0650 H   0  0  0  0  0  0  0  0  0  0  0  0
   -0.0628    0.5244    2.0279 H   0  0  0  0  0  0  0  0  0  0  0  0
   -0.5833    2.1847   -0.0559 H   0  0  0  0  0  0  0  0  0  0  0  0
  1  2  1  0
  2  3  1  0
  3  4  1  0
  4  5  1  0
  5  6  1  0
  6  7  1  0
  7  8  1  0
  8  9  2  0
  6  2  1  0
  7  2  1  0
  8  3  1  0
  1 10  1  0
  1 11  1  0
  1 12  1  0
  3 13  1  0
  5 14  1  0
  5 15  1  0
  6 16  1  0
  7 17  1  0
M  END
