
     RDKit          3D

 19 20  0  0  0  0  0  0  0  0999 V2000
    2.3099    0.1586    0.1356 C   0  0  0  0  0  0  0  0  0  0  0  0
    0.8330    0.0697    0.0656 C   0  0  0  0  0  0  0  0  0  0  0  0
    0.3594   -0.9965   -0.9043 C   0  0  0  0  0  0  0  0  0  0  0  0
   -0.9650   -1.0873   -0.9458 C   0  0  0  0  0  0  0  0  0  0  0  0
   -1.6678   -0.1302   -0.0481 C   0  0  0  0  0  0  0  0  0  0  0  0
   -1.1642    1.2537   -0.4015 C   0  0  0  0  0  0  0  0  0  0  0  0
    0.1789    1.3340   -0.3805 C   0  0  0  0  0  0  0  0  0  0  0  0
   -1.0642   -0.3890    1.3411 C   0  0  0  0  0  0  0  0  0  0  0  0
    0.2922   -0.2203    1.3246 O   0  0  0  0  0  0  0  0  0  0  0  0
    2.7530   -0.8450    0.1671 H   0  0  0  0  0  0  0  0  0  0  0  0
    2.5961    0.6748    1.0642 H   0  0  0  0  0  0  0  0  0  0  0  0
    2.7562    0.7305   -0.7023 H   0  0  0  0  0  0  0  0  0  0  0  0
    1.0344   -1.5925   -1.4763 H   0  0  0  0  0  0  0  0  0  0  0  0
   -1.5486   -1.7597   -1.5426 H   0  0  0  0  0  0  0  0  0  0  0  0
   -2.7462   -0.2032   -0.0558 H   0  0  0  0  0  0  0  0  0  0  0  0
   -1.8072    2.0654   -0.6384 H   0  0  0  0  0  0  0  0  0  0  0  0
    0.7110    2.2323   -0.6619 H   0  0  0  0  0  0  0  0  0  0  0  0
   -1.5985    0.1836    2.1020 H   0  0  0  0  0  0  0  0  0  0  0  0
   -1.2622   -1.4789    1.5573 H   0  0  0  0  0  0  0  0  0  0  0  0
  1  2  1  0
  2  3  1  0
  3  4  2  0
  4  5  1  0
  5  6  1  0
  6  7  2  0
  5  8  1  0
  8  9  1  0
  7  2  1  0
  9  2  1  0
  1 10  1  0
  1 11  1  0
  1 12  1  0
  3 13  1  0
  4 14  1  0
  5 15  1  0
  6 16  1  0
  7 17  1  0
  8 18  1  0
  8 19  1  0
M  END
