
     RDKit          3D

 21 22  0  0  0  0  0  0  0  0999 V2000
    2.0266    0.5945   -0.5963 C   0  0  0  0  0  0  0  0  0  0  0  0
    0.7202    0.0820   -0.0001 C   0  0  0  0  0  0  0  0  0  0  0  0
    0.8696   -1.2331    0.6912 C   0  0  0  0  0  0  0  0  0  0  0  0
    0.0829   -1.0907   -0.6077 C   0  0  0  0  0  0  0  0  0  0  0  0
   -1.4020   -1.1899   -0.4199 C   0  0  0  0  0  0  0  0  0  0  0  0
   -2.0966    0.1009   -0.6702 C   0  0  0  0  0  0  0  0  0  0  0  0
   -1.4976    1.2003   -0.2068 C   0  0  0  0  0  0  0  0  0  0  0  0
   -0.1928    1.1342    0.5273 C   0  0  0  0  0  0  0  0  0  0  0  0
   -0.4635    0.9512    1.8891 O   0  0  0  0  0  0  0  0  0  0  0  0
    2.2569    0.1271   -1.5637 H   0  0  0  0  0  0  0  0  0  0  0  0
    2.0586    1.7076   -0.6190 H   0  0  0  0  0  0  0  0  0  0  0  0
    2.8766    0.3029    0.0873 H   0  0  0  0  0  0  0  0  0  0  0  0
    1.7964   -1.8141    0.5776 H   0  0  0  0  0  0  0  0  0  0  0  0
    0.3222   -1.4199    1.6305 H   0  0  0  0  0  0  0  0  0  0  0  0
    0.5541   -1.4662   -1.5483 H   0  0  0  0  0  0  0  0  0  0  0  0
   -1.6878   -1.5273    0.6090 H   0  0  0  0  0  0  0  0  0  0  0  0
   -1.7765   -1.9888   -1.0997 H   0  0  0  0  0  0  0  0  0  0  0  0
   -3.0232    0.1381   -1.1926 H   0  0  0  0  0  0  0  0  0  0  0  0
   -2.0116    2.1341   -0.3944 H   0  0  0  0  0  0  0  0  0  0  0  0
    0.2634    2.1651    0.4572 H   0  0  0  0  0  0  0  0  0  0  0  0
    0.3244    1.0920    2.4496 H   0  0  0  0  0  0  0  0  0  0  0  0
  1  2  1  0
  2  3  1  0
  3  4  1  0
  4  5  1  0
  5  6  1  0
  6  7  2  0
  7  8  1  0
  8  9  1  0
  4  2  1  0
  8  2  1  0
  1 10  1  0
  1 11  1  0
  1 12  1  0
  3 13  1  0
  3 14  1  0
  4 15  1  0
  5 16  1  0
  5 17  1  0
  6 18  1  0
  7 19  1  0
  8 20  1  0
  9 21  1  0
M  END
