
     RDKit          3D

 21 22  0  0  0  0  0  0  0  0999 V2000
    1.5428   -0.7796    0.8699 C   0  0  0  0  0  0  0  0  0  0  0  0
    0.8012   -0.2328   -0.3111 C   0  0  0  0  0  0  0  0  0  0  0  0
   -0.3170   -1.1077   -0.8185 C   0  0  0  0  0  0  0  0  0  0  0  0
   -1.5471   -0.9874    0.0489 C   0  0  0  0  0  0  0  0  0  0  0  0
   -2.0262    0.4219    0.1744 C   0  0  0  0  0  0  0  0  0  0  0  0
   -0.9677    1.4227    0.0563 C   0  0  0  0  0  0  0  0  0  0  0  0
    0.3128    1.1857   -0.1613 C   0  0  0  0  0  0  0  0  0  0  0  0
    1.7703    1.4036   -0.3932 C   0  0  0  0  0  0  0  0  0  0  0  0
    1.6725    0.2786   -1.2618 O   0  0  0  0  0  0  0  0  0  0  0  0
    1.1984   -1.8369    1.0397 H   0  0  0  0  0  0  0  0  0  0  0  0
    1.3439   -0.1781    1.7888 H   0  0  0  0  0  0  0  0  0  0  0  0
    2.6429   -0.8584    0.6843 H   0  0  0  0  0  0  0  0  0  0  0  0
    0.0358   -2.1572   -0.7870 H   0  0  0  0  0  0  0  0  0  0  0  0
   -0.5594   -0.7784   -1.8397 H   0  0  0  0  0  0  0  0  0  0  0  0
   -2.3466   -1.5808   -0.4613 H   0  0  0  0  0  0  0  0  0  0  0  0
   -1.3640   -1.4211    1.0523 H   0  0  0  0  0  0  0  0  0  0  0  0
   -2.7910    0.6177   -0.6284 H   0  0  0  0  0  0  0  0  0  0  0  0
   -2.5222    0.5472    1.1813 H   0  0  0  0  0  0  0  0  0  0  0  0
   -1.2163    2.4964    0.1516 H   0  0  0  0  0  0  0  0  0  0  0  0
    2.0100    2.3441   -0.9242 H   0  0  0  0  0  0  0  0  0  0  0  0
    2.3269    1.2006    0.5391 H   0  0  0  0  0  0  0  0  0  0  0  0
  1  2  1  0
  2  3  1  0
  3  4  1  0
  4  5  1  0
  5  6  1  0
  6  7  2  0
  7  8  1  0
  8  9  1  0
  7  2  1  0
  9  2  1  0
  1 10  1  0
  1 11  1  0
  1 12  1  0
  3 13  1  0
  3 14  1  0
  4 15  1  0
  4 16  1  0
  5 17  1  0
  5 18  1  0
  6 19  1  0
  8 20  1  0
  8 21  1  0
M  END
