
     RDKit          3D

 15 16  0  0  0  0  0  0  0  0999 V2000
   -2.1045    0.0896    0.0822 C   0  0  0  0  0  0  0  0  0  0  0  0
   -0.7347    0.0920    0.0837 C   0  0  0  0  0  0  0  0  0  0  0  0
    0.1819   -0.9658   -0.4611 C   0  0  0  0  0  0  0  0  0  0  0  0
    1.0232    0.0704    0.2344 C   0  0  0  0  0  0  0  0  0  0  0  0
    2.3743    0.0555    0.3705 C   0  0  0  0  0  0  0  0  0  0  0  0
    3.1364    0.0749   -0.5981 O   0  0  0  0  0  0  0  0  0  0  0  0
    0.0852    0.0516    1.2390 O   0  0  0  0  0  0  0  0  0  0  0  0
    0.1975    1.0894   -0.4275 C   0  0  0  0  0  0  0  0  0  0  0  0
    0.2629    2.1403   -1.0381 O   0  0  0  0  0  0  0  0  0  0  0  0
   -2.5812   -0.2475    1.0502 H   0  0  0  0  0  0  0  0  0  0  0  0
   -2.5860    1.0929   -0.1130 H   0  0  0  0  0  0  0  0  0  0  0  0
   -2.5838   -0.5825   -0.6897 H   0  0  0  0  0  0  0  0  0  0  0  0
    0.1439   -1.9510    0.0563 H   0  0  0  0  0  0  0  0  0  0  0  0
    0.2716   -1.0350   -1.5461 H   0  0  0  0  0  0  0  0  0  0  0  0
    2.9133    0.0252    1.3369 H   0  0  0  0  0  0  0  0  0  0  0  0
  1  2  1  0
  2  3  1  0
  3  4  1  0
  4  5  1  0
  5  6  2  0
  4  7  1  0
  4  8  1  0
  8  9  2  0
  7  2  1  0
  8  2  1  0
  1 10  1  0
  1 11  1  0
  1 12  1  0
  3 13  1  0
  3 14  1  0
  5 15  1  0
M  END
