
     RDKit          3D

 21 22  0  0  0  0  0  0  0  0999 V2000
    2.1684   -0.8951    0.3257 C   0  0  0  0  0  0  0  0  0  0  0  0
    0.8143   -0.3918   -0.0398 C   0  0  0  0  0  0  0  0  0  0  0  0
    0.8955    0.9107   -0.8157 C   0  0  0  0  0  0  0  0  0  0  0  0
   -0.3001    1.3867   -1.1294 C   0  0  0  0  0  0  0  0  0  0  0  0
   -1.4323    0.5932   -0.5872 C   0  0  0  0  0  0  0  0  0  0  0  0
   -1.2392    0.6494    0.9379 C   0  0  0  0  0  0  0  0  0  0  0  0
    0.0164   -0.1413    1.2240 C   0  0  0  0  0  0  0  0  0  0  0  0
   -1.2205   -0.8968   -0.9117 C   0  0  0  0  0  0  0  0  0  0  0  0
    0.1049   -1.2586   -0.8643 O   0  0  0  0  0  0  0  0  0  0  0  0
    2.0501   -1.6256    1.1540 H   0  0  0  0  0  0  0  0  0  0  0  0
    2.6890   -1.4082   -0.5181 H   0  0  0  0  0  0  0  0  0  0  0  0
    2.7626   -0.0502    0.7290 H   0  0  0  0  0  0  0  0  0  0  0  0
    1.8271    1.3639   -1.0635 H   0  0  0  0  0  0  0  0  0  0  0  0
   -0.4917    2.2557   -1.7143 H   0  0  0  0  0  0  0  0  0  0  0  0
   -2.4140    0.9251   -0.8995 H   0  0  0  0  0  0  0  0  0  0  0  0
   -1.0574    1.7201    1.1662 H   0  0  0  0  0  0  0  0  0  0  0  0
   -2.1358    0.2333    1.3871 H   0  0  0  0  0  0  0  0  0  0  0  0
   -0.2495   -1.1509    1.6520 H   0  0  0  0  0  0  0  0  0  0  0  0
    0.6897    0.4078    1.9235 H   0  0  0  0  0  0  0  0  0  0  0  0
   -1.7476   -1.4748   -0.1036 H   0  0  0  0  0  0  0  0  0  0  0  0
   -1.7300   -1.1527   -1.8523 H   0  0  0  0  0  0  0  0  0  0  0  0
  1  2  1  0
  2  3  1  0
  3  4  2  0
  4  5  1  0
  5  6  1  0
  6  7  1  0
  5  8  1  0
  8  9  1  0
  7  2  1  0
  9  2  1  0
  1 10  1  0
  1 11  1  0
  1 12  1  0
  3 13  1  0
  4 14  1  0
  5 15  1  0
  6 16  1  0
  6 17  1  0
  7 18  1  0
  7 19  1  0
  8 20  1  0
  8 21  1  0
M  END
