
     RDKit          3D

 19 20  0  0  0  0  0  0  0  0999 V2000
    2.1411    0.2185   -0.2069 C   0  0  0  0  0  0  0  0  0  0  0  0
    0.7177   -0.1068   -0.3986 C   0  0  0  0  0  0  0  0  0  0  0  0
    0.1583    0.4609   -1.5829 O   0  0  0  0  0  0  0  0  0  0  0  0
   -0.4481    0.5539   -0.3452 C   0  0  0  0  0  0  0  0  0  0  0  0
   -0.8692    1.8688    0.2194 C   0  0  0  0  0  0  0  0  0  0  0  0
   -1.2318   -0.6982    0.0299 C   0  0  0  0  0  0  0  0  0  0  0  0
   -1.9587   -1.1648   -1.0618 O   0  0  0  0  0  0  0  0  0  0  0  0
    0.1261   -1.4166    0.0678 C   0  0  0  0  0  0  0  0  0  0  0  0
    0.5311   -1.6815    1.3673 O   0  0  0  0  0  0  0  0  0  0  0  0
    2.6741   -0.4600    0.4997 H   0  0  0  0  0  0  0  0  0  0  0  0
    2.6661    0.0554   -1.1954 H   0  0  0  0  0  0  0  0  0  0  0  0
    2.3517    1.2900    0.0359 H   0  0  0  0  0  0  0  0  0  0  0  0
   -0.7580    1.8812    1.3194 H   0  0  0  0  0  0  0  0  0  0  0  0
   -0.2093    2.6488   -0.2117 H   0  0  0  0  0  0  0  0  0  0  0  0
   -1.9453    2.1093   -0.0041 H   0  0  0  0  0  0  0  0  0  0  0  0
   -1.7512   -0.6540    0.9849 H   0  0  0  0  0  0  0  0  0  0  0  0
   -2.7125   -1.7294   -0.8326 H   0  0  0  0  0  0  0  0  0  0  0  0
    0.2173   -2.2502   -0.6313 H   0  0  0  0  0  0  0  0  0  0  0  0
    0.3007   -0.9252    1.9460 H   0  0  0  0  0  0  0  0  0  0  0  0
  1  2  1  0
  2  3  1  0
  3  4  1  0
  4  5  1  0
  4  6  1  0
  6  7  1  0
  6  8  1  0
  8  9  1  0
  4  2  1  0
  8  2  1  0
  1 10  1  0
  1 11  1  0
  1 12  1  0
  5 13  1  0
  5 14  1  0
  5 15  1  0
  6 16  1  0
  7 17  1  0
  8 18  1  0
  9 19  1  0
M  END
