
     RDKit          3D

 19 21  0  0  0  0  0  0  0  0999 V2000
   -1.8459   -0.8626    0.0812 C   0  0  0  0  0  0  0  0  0  0  0  0
   -0.5452   -0.4538   -0.0160 C   0  0  0  0  0  0  0  0  0  0  0  0
    0.1992   -0.1450   -1.3143 C   0  0  0  0  0  0  0  0  0  0  0  0
    1.2388    0.0326   -0.2307 C   0  0  0  0  0  0  0  0  0  0  0  0
    2.4425    0.3411   -0.3651 O   0  0  0  0  0  0  0  0  0  0  0  0
    0.6875   -1.2680    0.3303 C   0  0  0  0  0  0  0  0  0  0  0  0
    0.1627    0.6939    0.5571 C   0  0  0  0  0  0  0  0  0  0  0  0
   -0.1189    1.9818    0.8238 C   0  0  0  0  0  0  0  0  0  0  0  0
    0.2653    0.9805    1.8842 O   0  0  0  0  0  0  0  0  0  0  0  0
   -2.0072   -1.7397    0.7780 H   0  0  0  0  0  0  0  0  0  0  0  0
   -2.5668   -0.0923    0.4590 H   0  0  0  0  0  0  0  0  0  0  0  0
   -2.2998   -1.2247   -0.8889 H   0  0  0  0  0  0  0  0  0  0  0  0
    0.3554   -1.0104   -1.9725 H   0  0  0  0  0  0  0  0  0  0  0  0
   -0.0884    0.7933   -1.7939 H   0  0  0  0  0  0  0  0  0  0  0  0
    2.8397    0.3211   -1.2517 H   0  0  0  0  0  0  0  0  0  0  0  0
    0.8557   -1.4419    1.3931 H   0  0  0  0  0  0  0  0  0  0  0  0
    0.8819   -2.0865   -0.3714 H   0  0  0  0  0  0  0  0  0  0  0  0
    0.6491    2.8107    0.7823 H   0  0  0  0  0  0  0  0  0  0  0  0
   -1.1055    2.3699    1.1156 H   0  0  0  0  0  0  0  0  0  0  0  0
  1  2  1  0
  2  3  1  0
  3  4  1  0
  4  5  1  0
  4  6  1  0
  4  7  1  0
  7  8  1  0
  8  9  1  0
  6  2  1  0
  9  7  1  0
  7  2  1  0
  1 10  1  0
  1 11  1  0
  1 12  1  0
  3 13  1  0
  3 14  1  0
  5 15  1  0
  6 16  1  0
  6 17  1  0
  8 18  1  0
  8 19  1  0
M  END
