
     RDKit          3D

 18 19  0  0  0  0  0  0  0  0999 V2000
    1.9871    0.0768    0.5566 C   0  0  0  0  0  0  0  0  0  0  0  0
    0.6288   -0.1644   -0.0288 C   0  0  0  0  0  0  0  0  0  0  0  0
    0.3365   -1.4318   -0.4440 O   0  0  0  0  0  0  0  0  0  0  0  0
   -0.9583   -1.7404   -0.0482 C   0  0  0  0  0  0  0  0  0  0  0  0
   -1.7117   -0.4329    0.0459 C   0  0  0  0  0  0  0  0  0  0  0  0
   -0.5735    0.5365    0.3668 C   0  0  0  0  0  0  0  0  0  0  0  0
    0.1359    1.0208   -0.8831 C   0  0  0  0  0  0  0  0  0  0  0  0
    0.7707    2.2420   -0.7168 O   0  0  0  0  0  0  0  0  0  0  0  0
    2.3036   -0.6728    1.2878 H   0  0  0  0  0  0  0  0  0  0  0  0
    2.0924    1.1195    0.9404 H   0  0  0  0  0  0  0  0  0  0  0  0
    2.7144   -0.0124   -0.3045 H   0  0  0  0  0  0  0  0  0  0  0  0
   -0.8730   -2.2398    0.9480 H   0  0  0  0  0  0  0  0  0  0  0  0
   -1.4882   -2.3879   -0.7754 H   0  0  0  0  0  0  0  0  0  0  0  0
   -2.1466   -0.1924   -0.9590 H   0  0  0  0  0  0  0  0  0  0  0  0
   -2.4876   -0.4332    0.8295 H   0  0  0  0  0  0  0  0  0  0  0  0
   -0.6580    1.1901    1.2421 H   0  0  0  0  0  0  0  0  0  0  0  0
   -0.2104    0.7048   -1.8726 H   0  0  0  0  0  0  0  0  0  0  0  0
    0.1380    2.8174   -0.1847 H   0  0  0  0  0  0  0  0  0  0  0  0
  1  2  1  0
  2  3  1  0
  3  4  1  0
  4  5  1  0
  5  6  1  0
  6  7  1  0
  7  8  1  0
  6  2  1  0
  7  2  1  0
  1  9  1  0
  1 10  1  0
  1 11  1  0
  4 12  1  0
  4 13  1  0
  5 14  1  0
  5 15  1  0
  6 16  1  0
  7 17  1  0
  8 18  1  0
M  END
