
     RDKit          3D

 19 23  0  0  0  0  0  0  0  0999 V2000
    2.1074   -0.9024   -0.2569 C   0  0  0  0  0  0  0  0  0  0  0  0
    0.8186   -0.1809   -0.2312 C   0  0  0  0  0  0  0  0  0  0  0  0
   -0.4570   -0.7379   -0.6966 C   0  0  0  0  0  0  0  0  0  0  0  0
   -1.2552    0.4548   -1.1119 C   0  0  0  0  0  0  0  0  0  0  0  0
   -1.8044    0.5736    0.2301 C   0  0  0  0  0  0  0  0  0  0  0  0
   -0.8010    1.5299   -0.2352 C   0  0  0  0  0  0  0  0  0  0  0  0
    0.5486    1.1068    0.3533 C   0  0  0  0  0  0  0  0  0  0  0  0
    0.2222   -0.0615    1.1852 C   0  0  0  0  0  0  0  0  0  0  0  0
   -1.0262   -0.6213    0.6705 C   0  0  0  0  0  0  0  0  0  0  0  0
    2.8775   -0.3390    0.3048 H   0  0  0  0  0  0  0  0  0  0  0  0
    1.9748   -1.8645    0.3191 H   0  0  0  0  0  0  0  0  0  0  0  0
    2.4322   -1.2132   -1.2644 H   0  0  0  0  0  0  0  0  0  0  0  0
   -0.5215   -1.6467   -1.2460 H   0  0  0  0  0  0  0  0  0  0  0  0
   -1.7715    0.5446   -2.0463 H   0  0  0  0  0  0  0  0  0  0  0  0
   -2.8167    0.7771    0.5122 H   0  0  0  0  0  0  0  0  0  0  0  0
   -1.0416    2.5813   -0.3343 H   0  0  0  0  0  0  0  0  0  0  0  0
    1.2532    1.8541    0.6877 H   0  0  0  0  0  0  0  0  0  0  0  0
    0.7835   -0.4075    2.0324 H   0  0  0  0  0  0  0  0  0  0  0  0
   -1.5231   -1.4475    1.1275 H   0  0  0  0  0  0  0  0  0  0  0  0
  1  2  1  0
  2  3  1  0
  3  4  1  0
  4  5  1  0
  5  6  1  0
  6  7  1  0
  7  8  1  0
  8  9  1  0
  7  2  1  0
  8  2  1  0
  9  3  1  0
  6  4  1  0
  9  5  1  0
  1 10  1  0
  1 11  1  0
  1 12  1  0
  3 13  1  0
  4 14  1  0
  5 15  1  0
  6 16  1  0
  7 17  1  0
  8 18  1  0
  9 19  1  0
M  END
