
     RDKit          3D

 18 19  0  0  0  0  0  0  0  0999 V2000
   -1.8386    0.4468   -0.2405 C   0  0  0  0  0  0  0  0  0  0  0  0
   -0.4618    0.2848    0.3381 C   0  0  0  0  0  0  0  0  0  0  0  0
    0.4986    1.4350    0.2396 C   0  0  0  0  0  0  0  0  0  0  0  0
    1.6502    0.8668   -0.5176 C   0  0  0  0  0  0  0  0  0  0  0  0
    1.4988   -0.4330   -0.7069 C   0  0  0  0  0  0  0  0  0  0  0  0
    0.2616   -0.9511   -0.1306 C   0  0  0  0  0  0  0  0  0  0  0  0
   -0.4683   -1.9273   -0.8411 O   0  0  0  0  0  0  0  0  0  0  0  0
   -0.1151   -0.7856    1.2801 C   0  0  0  0  0  0  0  0  0  0  0  0
   -2.3266    1.3917    0.0137 H   0  0  0  0  0  0  0  0  0  0  0  0
   -2.4305   -0.4321    0.0352 H   0  0  0  0  0  0  0  0  0  0  0  0
   -1.7024    0.4384   -1.3618 H   0  0  0  0  0  0  0  0  0  0  0  0
    0.0689    2.3314   -0.2464 H   0  0  0  0  0  0  0  0  0  0  0  0
    0.8392    1.7047    1.2583 H   0  0  0  0  0  0  0  0  0  0  0  0
    2.4831    1.4829   -0.8495 H   0  0  0  0  0  0  0  0  0  0  0  0
    2.2367   -1.0303   -1.2412 H   0  0  0  0  0  0  0  0  0  0  0  0
   -0.0237   -2.8043   -0.7126 H   0  0  0  0  0  0  0  0  0  0  0  0
    0.7276   -0.6005    1.9861 H   0  0  0  0  0  0  0  0  0  0  0  0
   -0.8979   -1.4180    1.6968 H   0  0  0  0  0  0  0  0  0  0  0  0
  1  2  1  0
  2  3  1  0
  3  4  1  0
  4  5  2  0
  5  6  1  0
  6  7  1  0
  6  8  1  0
  6  2  1  0
  8  2  1  0
  1  9  1  0
  1 10  1  0
  1 11  1  0
  3 12  1  0
  3 13  1  0
  4 14  1  0
  5 15  1  0
  7 16  1  0
  8 17  1  0
  8 18  1  0
M  END
