
     RDKit          3D

 21 23  0  0  0  0  0  0  0  0999 V2000
   -2.3861    0.2070   -0.9966 C   0  0  0  0  0  0  0  0  0  0  0  0
   -1.2376    0.2791   -0.0214 C   0  0  0  0  0  0  0  0  0  0  0  0
   -1.5242    0.2441    1.4576 C   0  0  0  0  0  0  0  0  0  0  0  0
   -0.9114   -0.9840    1.5181 O   0  0  0  0  0  0  0  0  0  0  0  0
   -0.5271   -1.0731    0.2091 C   0  0  0  0  0  0  0  0  0  0  0  0
    0.1233    0.0305   -0.5260 C   0  0  0  0  0  0  0  0  0  0  0  0
    1.3511    0.5934    0.0865 C   0  0  0  0  0  0  0  0  0  0  0  0
    2.6452    0.1733   -0.6350 C   0  0  0  0  0  0  0  0  0  0  0  0
    2.3732   -0.1966    0.7707 C   0  0  0  0  0  0  0  0  0  0  0  0
   -2.4959    1.1672   -1.5493 H   0  0  0  0  0  0  0  0  0  0  0  0
   -2.1530   -0.5553   -1.7905 H   0  0  0  0  0  0  0  0  0  0  0  0
   -3.3358   -0.1011   -0.5387 H   0  0  0  0  0  0  0  0  0  0  0  0
   -1.0109    1.0352    2.0291 H   0  0  0  0  0  0  0  0  0  0  0  0
   -2.6204    0.1928    1.6198 H   0  0  0  0  0  0  0  0  0  0  0  0
   -0.9137   -1.9474   -0.3478 H   0  0  0  0  0  0  0  0  0  0  0  0
    0.1900   -0.1301   -1.6375 H   0  0  0  0  0  0  0  0  0  0  0  0
    1.2737    1.6772    0.3654 H   0  0  0  0  0  0  0  0  0  0  0  0
    2.5837   -0.6529   -1.3658 H   0  0  0  0  0  0  0  0  0  0  0  0
    3.3130    0.9818   -0.9330 H   0  0  0  0  0  0  0  0  0  0  0  0
    3.0118    0.3289    1.5273 H   0  0  0  0  0  0  0  0  0  0  0  0
    2.2511   -1.2700    1.0202 H   0  0  0  0  0  0  0  0  0  0  0  0
  1  2  1  0
  2  3  1  0
  3  4  1  0
  4  5  1  0
  5  6  1  0
  6  7  1  0
  7  8  1  0
  8  9  1  0
  5  2  1  0
  9  7  1  0
  6  2  1  0
  1 10  1  0
  1 11  1  0
  1 12  1  0
  3 13  1  0
  3 14  1  0
  5 15  1  0
  6 16  1  0
  7 17  1  0
  8 18  1  0
  8 19  1  0
  9 20  1  0
  9 21  1  0
M  END
