
     RDKit          3D

 21 23  0  0  0  0  0  0  0  0999 V2000
   -1.4423    1.3608   -0.0053 C   0  0  0  0  0  0  0  0  0  0  0  0
   -0.4356    0.3111    0.1038 C   0  0  0  0  0  0  0  0  0  0  0  0
   -0.8323   -1.0493    0.5892 C   0  0  0  0  0  0  0  0  0  0  0  0
   -1.8630   -1.6269   -0.1046 O   0  0  0  0  0  0  0  0  0  0  0  0
    0.5016   -1.7861    0.3622 C   0  0  0  0  0  0  0  0  0  0  0  0
    1.3687   -0.6189    0.0214 C   0  0  0  0  0  0  0  0  0  0  0  0
    0.8582    0.5803    0.7837 C   0  0  0  0  0  0  0  0  0  0  0  0
    1.2523    1.3698   -0.4347 C   0  0  0  0  0  0  0  0  0  0  0  0
    0.5763    0.1451   -0.9911 C   0  0  0  0  0  0  0  0  0  0  0  0
   -2.4683    0.8990    0.1005 H   0  0  0  0  0  0  0  0  0  0  0  0
   -1.4155    2.1612    0.7640 H   0  0  0  0  0  0  0  0  0  0  0  0
   -1.4438    1.7950   -1.0346 H   0  0  0  0  0  0  0  0  0  0  0  0
   -1.0296   -1.0113    1.6815 H   0  0  0  0  0  0  0  0  0  0  0  0
   -1.8395   -1.4159   -1.0524 H   0  0  0  0  0  0  0  0  0  0  0  0
    0.3981   -2.4039   -0.5661 H   0  0  0  0  0  0  0  0  0  0  0  0
    0.8069   -2.3567    1.2397 H   0  0  0  0  0  0  0  0  0  0  0  0
    2.4204   -0.7430   -0.1031 H   0  0  0  0  0  0  0  0  0  0  0  0
    1.0418    0.8041    1.7400 H   0  0  0  0  0  0  0  0  0  0  0  0
    2.3635    1.3351   -0.5490 H   0  0  0  0  0  0  0  0  0  0  0  0
    0.7681    2.3277   -0.5934 H   0  0  0  0  0  0  0  0  0  0  0  0
    0.4140   -0.0771   -1.9518 H   0  0  0  0  0  0  0  0  0  0  0  0
  1  2  1  0
  2  3  1  0
  3  4  1  0
  3  5  1  0
  5  6  1  0
  6  7  1  0
  7  8  1  0
  8  9  1  0
  7  2  1  0
  9  2  1  0
  9  6  1  0
  1 10  1  0
  1 11  1  0
  1 12  1  0
  3 13  1  0
  4 14  1  0
  5 15  1  0
  5 16  1  0
  6 17  1  0
  7 18  1  0
  8 19  1  0
  8 20  1  0
  9 21  1  0
M  END
