
     RDKit          3D

 21 23  0  0  0  0  0  0  0  0999 V2000
    2.3228    0.4251   -0.1180 C   0  0  0  0  0  0  0  0  0  0  0  0
    0.8564    0.1571    0.0881 C   0  0  0  0  0  0  0  0  0  0  0  0
    0.4822   -0.6821    1.2466 C   0  0  0  0  0  0  0  0  0  0  0  0
   -0.8275   -0.5637    1.6618 O   0  0  0  0  0  0  0  0  0  0  0  0
   -1.6275   -0.3731    0.5622 C   0  0  0  0  0  0  0  0  0  0  0  0
   -1.4827    1.0748    0.1317 C   0  0  0  0  0  0  0  0  0  0  0  0
   -0.0992    1.1147   -0.4149 C   0  0  0  0  0  0  0  0  0  0  0  0
    0.0605   -0.2101   -1.1028 C   0  0  0  0  0  0  0  0  0  0  0  0
   -1.0886   -1.0838   -0.6830 C   0  0  0  0  0  0  0  0  0  0  0  0
    2.8990   -0.5167    0.0664 H   0  0  0  0  0  0  0  0  0  0  0  0
    2.4699    0.7438   -1.1624 H   0  0  0  0  0  0  0  0  0  0  0  0
    2.7049    1.1730    0.6218 H   0  0  0  0  0  0  0  0  0  0  0  0
    0.6246   -1.7714    0.9810 H   0  0  0  0  0  0  0  0  0  0  0  0
    1.2049   -0.4937    2.0701 H   0  0  0  0  0  0  0  0  0  0  0  0
   -2.6612   -0.6616    0.7731 H   0  0  0  0  0  0  0  0  0  0  0  0
   -1.7007    1.7888    0.9222 H   0  0  0  0  0  0  0  0  0  0  0  0
   -2.1927    1.1950   -0.7394 H   0  0  0  0  0  0  0  0  0  0  0  0
    0.2916    2.0365   -0.8950 H   0  0  0  0  0  0  0  0  0  0  0  0
    0.4577   -0.2351   -2.1173 H   0  0  0  0  0  0  0  0  0  0  0  0
   -0.8053   -2.1145   -0.4420 H   0  0  0  0  0  0  0  0  0  0  0  0
   -1.8892   -1.0030   -1.4501 H   0  0  0  0  0  0  0  0  0  0  0  0
  1  2  1  0
  2  3  1  0
  3  4  1  0
  4  5  1  0
  5  6  1  0
  6  7  1  0
  7  8  1  0
  8  9  1  0
  7  2  1  0
  8  2  1  0
  9  5  1  0
  1 10  1  0
  1 11  1  0
  1 12  1  0
  3 13  1  0
  3 14  1  0
  5 15  1  0
  6 16  1  0
  6 17  1  0
  7 18  1  0
  8 19  1  0
  9 20  1  0
  9 21  1  0
M  END
