
     RDKit          3D

 17 18  0  0  0  0  0  0  0  0999 V2000
   -1.4976    0.4992   -0.7046 C   0  0  0  0  0  0  0  0  0  0  0  0
   -1.0175   -0.0505    0.6350 C   0  0  0  0  0  0  0  0  0  0  0  0
   -0.9615    0.8346    1.5978 O   0  0  0  0  0  0  0  0  0  0  0  0
    0.2723    0.5779    1.2268 C   0  0  0  0  0  0  0  0  0  0  0  0
    1.0443    0.8277    0.0084 C   0  0  0  0  0  0  0  0  0  0  0  0
    1.3926   -0.5469   -0.5830 C   0  0  0  0  0  0  0  0  0  0  0  0
    0.7032   -1.5954    0.0596 O   0  0  0  0  0  0  0  0  0  0  0  0
   -0.6166   -1.4501    0.5471 C   0  0  0  0  0  0  0  0  0  0  0  0
   -1.3281   -2.4106    0.8561 O   0  0  0  0  0  0  0  0  0  0  0  0
   -2.5725    0.1745   -0.7798 H   0  0  0  0  0  0  0  0  0  0  0  0
   -1.5282    1.6035   -0.7162 H   0  0  0  0  0  0  0  0  0  0  0  0
   -0.9862    0.0559   -1.5583 H   0  0  0  0  0  0  0  0  0  0  0  0
    0.8449   -0.0334    1.9810 H   0  0  0  0  0  0  0  0  0  0  0  0
    0.4941    1.3558   -0.8017 H   0  0  0  0  0  0  0  0  0  0  0  0
    1.9481    1.4167    0.2324 H   0  0  0  0  0  0  0  0  0  0  0  0
    2.4795   -0.6985   -0.3309 H   0  0  0  0  0  0  0  0  0  0  0  0
    1.3292   -0.5602   -1.6698 H   0  0  0  0  0  0  0  0  0  0  0  0
  1  2  1  0
  2  3  1  0
  3  4  1  0
  4  5  1  0
  5  6  1  0
  6  7  1  0
  7  8  1  0
  8  9  2  0
  4  2  1  0
  8  2  1  0
  1 10  1  0
  1 11  1  0
  1 12  1  0
  4 13  1  0
  5 14  1  0
  5 15  1  0
  6 16  1  0
  6 17  1  0
M  END
