
     RDKit          3D

 23 24  0  0  0  0  0  0  0  0999 V2000
    2.3359    0.2557   -0.4773 C   0  0  0  0  0  0  0  0  0  0  0  0
    0.8938    0.0532   -0.1982 C   0  0  0  0  0  0  0  0  0  0  0  0
    0.4813   -1.3801   -0.0627 C   0  0  0  0  0  0  0  0  0  0  0  0
   -0.9694   -1.5671    0.2014 C   0  0  0  0  0  0  0  0  0  0  0  0
   -1.7849   -0.3268    0.2041 C   0  0  0  0  0  0  0  0  0  0  0  0
   -0.9681    0.9167    0.1127 C   0  0  0  0  0  0  0  0  0  0  0  0
   -1.6512    2.0920    0.2616 O   0  0  0  0  0  0  0  0  0  0  0  0
   -0.0699    0.8252   -1.1040 C   0  0  0  0  0  0  0  0  0  0  0  0
    0.3111    0.8213    0.9582 C   0  0  0  0  0  0  0  0  0  0  0  0
    2.9282    0.0627    0.4582 H   0  0  0  0  0  0  0  0  0  0  0  0
    2.6577   -0.4985   -1.2254 H   0  0  0  0  0  0  0  0  0  0  0  0
    2.6062    1.2457   -0.8403 H   0  0  0  0  0  0  0  0  0  0  0  0
    0.8616   -1.9251   -0.9548 H   0  0  0  0  0  0  0  0  0  0  0  0
    1.0694   -1.8011    0.8027 H   0  0  0  0  0  0  0  0  0  0  0  0
   -1.1334   -2.0814    1.1921 H   0  0  0  0  0  0  0  0  0  0  0  0
   -1.3574   -2.3141   -0.5505 H   0  0  0  0  0  0  0  0  0  0  0  0
   -2.4762   -0.3603   -0.6697 H   0  0  0  0  0  0  0  0  0  0  0  0
   -2.4527   -0.2388    1.1038 H   0  0  0  0  0  0  0  0  0  0  0  0
   -2.0683    2.0928    1.1584 H   0  0  0  0  0  0  0  0  0  0  0  0
    0.3531    1.7993   -1.3925 H   0  0  0  0  0  0  0  0  0  0  0  0
   -0.4817    0.2309   -1.9393 H   0  0  0  0  0  0  0  0  0  0  0  0
    0.1678    0.2538    1.8880 H   0  0  0  0  0  0  0  0  0  0  0  0
    0.7468    1.8440    1.0734 H   0  0  0  0  0  0  0  0  0  0  0  0
  1  2  1  0
  2  3  1  0
  3  4  1  0
  4  5  1  0
  5  6  1  0
  6  7  1  0
  6  8  1  0
  6  9  1  0
  8  2  1  0
  9  2  1  0
  1 10  1  0
  1 11  1  0
  1 12  1  0
  3 13  1  0
  3 14  1  0
  4 15  1  0
  4 16  1  0
  5 17  1  0
  5 18  1  0
  7 19  1  0
  8 20  1  0
  8 21  1  0
  9 22  1  0
  9 23  1  0
M  END
