
     RDKit          3D

 19 21  0  0  0  0  0  0  0  0999 V2000
    1.5729    1.3558   -0.2177 C   0  0  0  0  0  0  0  0  0  0  0  0
    1.0361   -0.0315   -0.2336 C   0  0  0  0  0  0  0  0  0  0  0  0
    1.8724   -1.0775   -0.6130 O   0  0  0  0  0  0  0  0  0  0  0  0
    1.3095   -1.0435    0.6457 C   0  0  0  0  0  0  0  0  0  0  0  0
   -0.1639   -1.4629    0.7271 C   0  0  0  0  0  0  0  0  0  0  0  0
   -0.8422   -1.7266   -0.5520 C   0  0  0  0  0  0  0  0  0  0  0  0
   -0.4168   -0.3270   -0.3129 C   0  0  0  0  0  0  0  0  0  0  0  0
   -1.4471    0.6774    0.0750 C   0  0  0  0  0  0  0  0  0  0  0  0
   -1.2736    1.8030   -0.7595 O   0  0  0  0  0  0  0  0  0  0  0  0
    1.5351    1.7583    0.8349 H   0  0  0  0  0  0  0  0  0  0  0  0
    1.0957    2.0531   -0.9053 H   0  0  0  0  0  0  0  0  0  0  0  0
    2.6664    1.3156   -0.4765 H   0  0  0  0  0  0  0  0  0  0  0  0
    1.9262   -1.1241    1.5453 H   0  0  0  0  0  0  0  0  0  0  0  0
   -0.6725   -1.3703    1.6862 H   0  0  0  0  0  0  0  0  0  0  0  0
   -1.9198   -1.9892   -0.5007 H   0  0  0  0  0  0  0  0  0  0  0  0
   -0.2784   -2.3846   -1.2663 H   0  0  0  0  0  0  0  0  0  0  0  0
   -1.4405    0.9517    1.1406 H   0  0  0  0  0  0  0  0  0  0  0  0
   -2.4544    0.2827   -0.1679 H   0  0  0  0  0  0  0  0  0  0  0  0
   -2.1053    2.3396   -0.6493 H   0  0  0  0  0  0  0  0  0  0  0  0
  1  2  1  0
  2  3  1  0
  3  4  1  0
  4  5  1  0
  5  6  1  0
  6  7  1  0
  7  8  1  0
  8  9  1  0
  4  2  1  0
  7  5  1  0
  7  2  1  0
  1 10  1  0
  1 11  1  0
  1 12  1  0
  4 13  1  0
  5 14  1  0
  6 15  1  0
  6 16  1  0
  8 17  1  0
  8 18  1  0
  9 19  1  0
M  END
