
     RDKit          3D

 23 25  0  0  0  0  0  0  0  0999 V2000
   -1.1957    1.6750    0.7095 C   0  0  0  0  0  0  0  0  0  0  0  0
   -0.7417    0.3392    0.1086 C   0  0  0  0  0  0  0  0  0  0  0  0
   -1.8025   -0.5567   -0.3441 C   0  0  0  0  0  0  0  0  0  0  0  0
   -0.9497   -0.8989    0.8631 C   0  0  0  0  0  0  0  0  0  0  0  0
    0.2094   -1.8216    0.5685 C   0  0  0  0  0  0  0  0  0  0  0  0
    1.1886   -1.0813   -0.2695 C   0  0  0  0  0  0  0  0  0  0  0  0
    0.8735   -0.5667   -1.6144 C   0  0  0  0  0  0  0  0  0  0  0  0
    0.6480    0.2969   -0.4377 C   0  0  0  0  0  0  0  0  0  0  0  0
    1.5934    1.4067   -0.0833 C   0  0  0  0  0  0  0  0  0  0  0  0
   -2.0509    1.4168    1.3967 H   0  0  0  0  0  0  0  0  0  0  0  0
   -0.3972    2.1909    1.2360 H   0  0  0  0  0  0  0  0  0  0  0  0
   -1.6171    2.3080   -0.1019 H   0  0  0  0  0  0  0  0  0  0  0  0
   -2.8456   -0.2867   -0.1022 H   0  0  0  0  0  0  0  0  0  0  0  0
   -1.7218   -1.2302   -1.2154 H   0  0  0  0  0  0  0  0  0  0  0  0
   -1.4043   -0.8768    1.8607 H   0  0  0  0  0  0  0  0  0  0  0  0
   -0.1582   -2.7627    0.1398 H   0  0  0  0  0  0  0  0  0  0  0  0
    0.6977   -2.0222    1.5679 H   0  0  0  0  0  0  0  0  0  0  0  0
    2.2782   -1.2312   -0.0127 H   0  0  0  0  0  0  0  0  0  0  0  0
    1.7459   -0.2885   -2.2506 H   0  0  0  0  0  0  0  0  0  0  0  0
    0.0430   -0.9875   -2.2097 H   0  0  0  0  0  0  0  0  0  0  0  0
    2.6219    1.1429   -0.4535 H   0  0  0  0  0  0  0  0  0  0  0  0
    1.2715    2.4005   -0.3951 H   0  0  0  0  0  0  0  0  0  0  0  0
    1.7135    1.4340    1.0395 H   0  0  0  0  0  0  0  0  0  0  0  0
  1  2  1  0
  2  3  1  0
  3  4  1  0
  4  5  1  0
  5  6  1  0
  6  7  1  0
  7  8  1  0
  8  9  1  0
  4  2  1  0
  8  6  1  0
  8  2  1  0
  1 10  1  0
  1 11  1  0
  1 12  1  0
  3 13  1  0
  3 14  1  0
  4 15  1  0
  5 16  1  0
  5 17  1  0
  6 18  1  0
  7 19  1  0
  7 20  1  0
  9 21  1  0
  9 22  1  0
  9 23  1  0
M  END
