
     RDKit          3D

 19 20  0  0  0  0  0  0  0  0999 V2000
    0.2324    1.7826   -0.1748 C   0  0  0  0  0  0  0  0  0  0  0  0
    0.0530    0.3588    0.1907 C   0  0  0  0  0  0  0  0  0  0  0  0
   -1.1822   -0.0187    0.9459 C   0  0  0  0  0  0  0  0  0  0  0  0
   -1.5041   -1.0066   -0.1644 C   0  0  0  0  0  0  0  0  0  0  0  0
   -0.3918   -0.4654   -1.0024 C   0  0  0  0  0  0  0  0  0  0  0  0
    0.6560   -1.3424   -1.3078 O   0  0  0  0  0  0  0  0  0  0  0  0
    1.7661   -0.9867   -0.5731 C   0  0  0  0  0  0  0  0  0  0  0  0
    2.9679   -1.1253   -0.8627 O   0  0  0  0  0  0  0  0  0  0  0  0
    1.2614   -0.3843    0.6760 C   0  0  0  0  0  0  0  0  0  0  0  0
    0.2404    1.9203   -1.2851 H   0  0  0  0  0  0  0  0  0  0  0  0
   -0.6682    2.3568    0.1729 H   0  0  0  0  0  0  0  0  0  0  0  0
    1.1116    2.2748    0.2844 H   0  0  0  0  0  0  0  0  0  0  0  0
   -1.9053    0.7917    1.0845 H   0  0  0  0  0  0  0  0  0  0  0  0
   -0.9841   -0.5295    1.8987 H   0  0  0  0  0  0  0  0  0  0  0  0
   -1.4270   -2.0624    0.0968 H   0  0  0  0  0  0  0  0  0  0  0  0
   -2.4921   -0.7105   -0.6208 H   0  0  0  0  0  0  0  0  0  0  0  0
   -0.6831    0.1311   -1.8870 H   0  0  0  0  0  0  0  0  0  0  0  0
    0.9461   -1.2272    1.3363 H   0  0  0  0  0  0  0  0  0  0  0  0
    2.0030    0.2429    1.1919 H   0  0  0  0  0  0  0  0  0  0  0  0
  1  2  1  0
  2  3  1  0
  3  4  1  0
  4  5  1  0
  5  6  1  0
  6  7  1  0
  7  8  2  0
  7  9  1  0
  5  2  1  0
  9  2  1  0
  1 10  1  0
  1 11  1  0
  1 12  1  0
  3 13  1  0
  3 14  1  0
  4 15  1  0
  4 16  1  0
  5 17  1  0
  9 18  1  0
  9 19  1  0
M  END
