
     RDKit          3D

 19 21  0  0  0  0  0  0  0  0999 V2000
    2.2747    0.4746    0.2136 C   0  0  0  0  0  0  0  0  0  0  0  0
    0.8992    0.3625    0.2571 C   0  0  0  0  0  0  0  0  0  0  0  0
   -0.0782    1.2141   -0.5203 C   0  0  0  0  0  0  0  0  0  0  0  0
   -0.8563    0.3210    0.4091 C   0  0  0  0  0  0  0  0  0  0  0  0
   -2.2278    0.3152    0.5751 C   0  0  0  0  0  0  0  0  0  0  0  0
    0.0943    0.6556    1.3700 O   0  0  0  0  0  0  0  0  0  0  0  0
    0.0335   -0.7827    0.0031 C   0  0  0  0  0  0  0  0  0  0  0  0
   -0.0319   -1.7945   -0.8679 C   0  0  0  0  0  0  0  0  0  0  0  0
    0.1004   -1.9945    0.6046 O   0  0  0  0  0  0  0  0  0  0  0  0
    2.6620    0.9555   -0.7344 H   0  0  0  0  0  0  0  0  0  0  0  0
    2.7110    1.1291    1.0259 H   0  0  0  0  0  0  0  0  0  0  0  0
    2.8256   -0.4951    0.2656 H   0  0  0  0  0  0  0  0  0  0  0  0
   -0.0490    2.2611   -0.2086 H   0  0  0  0  0  0  0  0  0  0  0  0
   -0.1663    0.9915   -1.5882 H   0  0  0  0  0  0  0  0  0  0  0  0
   -2.7395    1.2467    0.1906 H   0  0  0  0  0  0  0  0  0  0  0  0
   -2.7386   -0.5144    0.0090 H   0  0  0  0  0  0  0  0  0  0  0  0
   -2.5594    0.1616    1.6354 H   0  0  0  0  0  0  0  0  0  0  0  0
    0.8372   -2.2280   -1.4238 H   0  0  0  0  0  0  0  0  0  0  0  0
   -0.9907   -2.2792   -1.2161 H   0  0  0  0  0  0  0  0  0  0  0  0
  1  2  1  0
  2  3  1  0
  3  4  1  0
  4  5  1  0
  4  6  1  0
  4  7  1  0
  7  8  1  0
  8  9  1  0
  6  2  1  0
  9  7  1  0
  7  2  1  0
  1 10  1  0
  1 11  1  0
  1 12  1  0
  3 13  1  0
  3 14  1  0
  5 15  1  0
  5 16  1  0
  5 17  1  0
  8 18  1  0
  8 19  1  0
M  END
