
     RDKit          3D

 21 22  0  0  0  0  0  0  0  0999 V2000
    2.3088   -0.2346    0.0913 C   0  0  0  0  0  0  0  0  0  0  0  0
    0.8974    0.0625    0.0099 C   0  0  0  0  0  0  0  0  0  0  0  0
    0.4273    1.3904   -0.5225 C   0  0  0  0  0  0  0  0  0  0  0  0
   -1.0918    1.1835   -0.3422 C   0  0  0  0  0  0  0  0  0  0  0  0
   -1.0954   -0.2522    0.0724 C   0  0  0  0  0  0  0  0  0  0  0  0
   -2.2919   -0.9662    0.2928 C   0  0  0  0  0  0  0  0  0  0  0  0
   -2.9083   -1.0391    1.3647 O   0  0  0  0  0  0  0  0  0  0  0  0
    0.0007   -0.8881   -0.7958 C   0  0  0  0  0  0  0  0  0  0  0  0
   -0.0151   -0.2489    1.1624 C   0  0  0  0  0  0  0  0  0  0  0  0
    2.6826   -0.0436    1.1372 H   0  0  0  0  0  0  0  0  0  0  0  0
    2.8884    0.3451   -0.6344 H   0  0  0  0  0  0  0  0  0  0  0  0
    2.5067   -1.3053   -0.1098 H   0  0  0  0  0  0  0  0  0  0  0  0
    0.7887    2.2550    0.0223 H   0  0  0  0  0  0  0  0  0  0  0  0
    0.6083    1.4008   -1.6047 H   0  0  0  0  0  0  0  0  0  0  0  0
   -1.6374    1.3925   -1.2682 H   0  0  0  0  0  0  0  0  0  0  0  0
   -1.4133    1.7918    0.5214 H   0  0  0  0  0  0  0  0  0  0  0  0
   -2.7799   -1.5349   -0.5194 H   0  0  0  0  0  0  0  0  0  0  0  0
    0.1626   -1.9331   -0.5353 H   0  0  0  0  0  0  0  0  0  0  0  0
   -0.0605   -0.6302   -1.8520 H   0  0  0  0  0  0  0  0  0  0  0  0
    0.1558   -1.2527    1.5792 H   0  0  0  0  0  0  0  0  0  0  0  0
   -0.1336    0.5074    1.9304 H   0  0  0  0  0  0  0  0  0  0  0  0
  1  2  1  0
  2  3  1  0
  3  4  1  0
  4  5  1  0
  5  6  1  0
  6  7  2  0
  5  8  1  0
  5  9  1  0
  8  2  1  0
  9  2  1  0
  1 10  1  0
  1 11  1  0
  1 12  1  0
  3 13  1  0
  3 14  1  0
  4 15  1  0
  4 16  1  0
  6 17  1  0
  8 18  1  0
  8 19  1  0
  9 20  1  0
  9 21  1  0
M  END
