
     RDKit          3D

 21 22  0  0  0  0  0  0  0  0999 V2000
   -0.1599   -1.4710    1.2022 C   0  0  0  0  0  0  0  0  0  0  0  0
    0.2553   -0.6578    0.0071 C   0  0  0  0  0  0  0  0  0  0  0  0
    1.4516   -1.0622   -0.5832 O   0  0  0  0  0  0  0  0  0  0  0  0
    2.3737   -0.0581   -0.2862 C   0  0  0  0  0  0  0  0  0  0  0  0
    1.5653    1.1974   -0.5810 C   0  0  0  0  0  0  0  0  0  0  0  0
    0.2314    0.8246    0.0375 C   0  0  0  0  0  0  0  0  0  0  0  0
   -0.6984    0.0568   -0.8415 C   0  0  0  0  0  0  0  0  0  0  0  0
   -2.1483    0.1918   -0.5265 C   0  0  0  0  0  0  0  0  0  0  0  0
   -2.3405    0.8543    0.7046 O   0  0  0  0  0  0  0  0  0  0  0  0
   -0.0061   -0.9196    2.1623 H   0  0  0  0  0  0  0  0  0  0  0  0
    0.4352   -2.4115    1.2831 H   0  0  0  0  0  0  0  0  0  0  0  0
   -1.2307   -1.7565    1.1917 H   0  0  0  0  0  0  0  0  0  0  0  0
    3.2459   -0.1218   -0.9594 H   0  0  0  0  0  0  0  0  0  0  0  0
    2.6233   -0.0479    0.7787 H   0  0  0  0  0  0  0  0  0  0  0  0
    2.0358    2.0619   -0.1094 H   0  0  0  0  0  0  0  0  0  0  0  0
    1.4506    1.3383   -1.6715 H   0  0  0  0  0  0  0  0  0  0  0  0
   -0.1218    1.3783    0.9184 H   0  0  0  0  0  0  0  0  0  0  0  0
   -0.4721    0.0904   -1.9454 H   0  0  0  0  0  0  0  0  0  0  0  0
   -2.6865   -0.7763   -0.5563 H   0  0  0  0  0  0  0  0  0  0  0  0
   -2.6267    0.8448   -1.3053 H   0  0  0  0  0  0  0  0  0  0  0  0
   -3.1770    0.4440    1.0801 H   0  0  0  0  0  0  0  0  0  0  0  0
  1  2  1  0
  2  3  1  0
  3  4  1  0
  4  5  1  0
  5  6  1  0
  6  7  1  0
  7  8  1  0
  8  9  1  0
  6  2  1  0
  7  2  1  0
  1 10  1  0
  1 11  1  0
  1 12  1  0
  4 13  1  0
  4 14  1  0
  5 15  1  0
  5 16  1  0
  6 17  1  0
  7 18  1  0
  8 19  1  0
  8 20  1  0
  9 21  1  0
M  END
