
     RDKit          3D

 19 20  0  0  0  0  0  0  0  0999 V2000
   -2.0477    0.1052   -0.6615 C   0  0  0  0  0  0  0  0  0  0  0  0
   -0.7058   -0.0425   -0.1559 C   0  0  0  0  0  0  0  0  0  0  0  0
    0.0053   -1.3701   -0.2330 C   0  0  0  0  0  0  0  0  0  0  0  0
    1.2986   -0.9630    0.5067 C   0  0  0  0  0  0  0  0  0  0  0  0
    1.0492    0.5002    0.6275 C   0  0  0  0  0  0  0  0  0  0  0  0
    1.9507    1.3245    1.1462 O   0  0  0  0  0  0  0  0  0  0  0  0
    0.3866    0.8864   -0.7013 C   0  0  0  0  0  0  0  0  0  0  0  0
   -0.3541    0.5281    1.1805 C   0  0  0  0  0  0  0  0  0  0  0  0
   -0.8706    0.8632    2.2134 O   0  0  0  0  0  0  0  0  0  0  0  0
   -2.6183   -0.8382   -0.6440 H   0  0  0  0  0  0  0  0  0  0  0  0
   -2.6054    0.8834   -0.0722 H   0  0  0  0  0  0  0  0  0  0  0  0
   -2.0274    0.4195   -1.7455 H   0  0  0  0  0  0  0  0  0  0  0  0
   -0.5083   -2.1865    0.2701 H   0  0  0  0  0  0  0  0  0  0  0  0
    0.2521   -1.5861   -1.3045 H   0  0  0  0  0  0  0  0  0  0  0  0
    2.1880   -1.2506   -0.0479 H   0  0  0  0  0  0  0  0  0  0  0  0
    1.2174   -1.4337    1.5143 H   0  0  0  0  0  0  0  0  0  0  0  0
    2.5022    1.7400    0.4125 H   0  0  0  0  0  0  0  0  0  0  0  0
    0.8918    0.5117   -1.5907 H   0  0  0  0  0  0  0  0  0  0  0  0
   -0.0044    1.9085   -0.7145 H   0  0  0  0  0  0  0  0  0  0  0  0
  1  2  1  0
  2  3  1  0
  3  4  1  0
  4  5  1  0
  5  6  1  0
  5  7  1  0
  5  8  1  0
  8  9  2  0
  7  2  1  0
  8  2  1  0
  1 10  1  0
  1 11  1  0
  1 12  1  0
  3 13  1  0
  3 14  1  0
  4 15  1  0
  4 16  1  0
  6 17  1  0
  7 18  1  0
  7 19  1  0
M  END
