
     RDKit          3D

 23 24  0  0  0  0  0  0  0  0999 V2000
    2.4179   -0.3224    0.5809 C   0  0  0  0  0  0  0  0  0  0  0  0
    1.0673    0.1611    0.2640 C   0  0  0  0  0  0  0  0  0  0  0  0
    0.8904    1.5817   -0.0910 C   0  0  0  0  0  0  0  0  0  0  0  0
   -0.2939    1.9462   -0.5869 C   0  0  0  0  0  0  0  0  0  0  0  0
   -1.4186    0.9676   -0.5649 C   0  0  0  0  0  0  0  0  0  0  0  0
   -0.9160   -0.3540   -0.0936 C   0  0  0  0  0  0  0  0  0  0  0  0
   -1.8754   -1.4790   -0.0382 C   0  0  0  0  0  0  0  0  0  0  0  0
    0.3772   -0.6533   -0.8382 C   0  0  0  0  0  0  0  0  0  0  0  0
   -0.0645   -0.2290    1.1696 C   0  0  0  0  0  0  0  0  0  0  0  0
    2.5285   -1.3728    0.1923 H   0  0  0  0  0  0  0  0  0  0  0  0
    3.1681    0.3218    0.0489 H   0  0  0  0  0  0  0  0  0  0  0  0
    2.6579   -0.2656    1.6714 H   0  0  0  0  0  0  0  0  0  0  0  0
    1.6929    2.2695    0.0529 H   0  0  0  0  0  0  0  0  0  0  0  0
   -0.4819    2.9318   -1.0109 H   0  0  0  0  0  0  0  0  0  0  0  0
   -1.8290    0.8365   -1.5841 H   0  0  0  0  0  0  0  0  0  0  0  0
   -2.2513    1.3495    0.0920 H   0  0  0  0  0  0  0  0  0  0  0  0
   -2.8516   -1.1423   -0.4399 H   0  0  0  0  0  0  0  0  0  0  0  0
   -1.4745   -2.3329   -0.6498 H   0  0  0  0  0  0  0  0  0  0  0  0
   -2.0543   -1.8118    1.0021 H   0  0  0  0  0  0  0  0  0  0  0  0
    0.4457   -0.1178   -1.8089 H   0  0  0  0  0  0  0  0  0  0  0  0
    0.6712   -1.7067   -0.8523 H   0  0  0  0  0  0  0  0  0  0  0  0
    0.0353   -1.1826    1.7026 H   0  0  0  0  0  0  0  0  0  0  0  0
   -0.4416    0.6046    1.7819 H   0  0  0  0  0  0  0  0  0  0  0  0
  1  2  1  0
  2  3  1  0
  3  4  2  0
  4  5  1  0
  5  6  1  0
  6  7  1  0
  6  8  1  0
  6  9  1  0
  8  2  1  0
  9  2  1  0
  1 10  1  0
  1 11  1  0
  1 12  1  0
  3 13  1  0
  4 14  1  0
  5 15  1  0
  5 16  1  0
  7 17  1  0
  7 18  1  0
  7 19  1  0
  8 20  1  0
  8 21  1  0
  9 22  1  0
  9 23  1  0
M  END
