
     RDKit          3D

 17 18  0  0  0  0  0  0  0  0999 V2000
   -2.5160    0.4886    0.0082 C   0  0  0  0  0  0  0  0  0  0  0  0
   -1.2386    0.0492   -0.6629 C   0  0  0  0  0  0  0  0  0  0  0  0
   -0.3557   -0.9623   -0.0243 C   0  0  0  0  0  0  0  0  0  0  0  0
    0.8953   -0.1574   -0.3491 C   0  0  0  0  0  0  0  0  0  0  0  0
    1.8164   -0.0206    0.6769 O   0  0  0  0  0  0  0  0  0  0  0  0
    3.1671   -0.3326    0.4304 C   0  0  0  0  0  0  0  0  0  0  0  0
    3.5153   -0.7255   -0.7003 O   0  0  0  0  0  0  0  0  0  0  0  0
   -0.0328    1.0007   -0.6022 C   0  0  0  0  0  0  0  0  0  0  0  0
   -0.8353    0.8394   -1.7074 O   0  0  0  0  0  0  0  0  0  0  0  0
   -2.5625    0.2570    1.0755 H   0  0  0  0  0  0  0  0  0  0  0  0
   -3.3425   -0.1111   -0.4732 H   0  0  0  0  0  0  0  0  0  0  0  0
   -2.7218    1.5722   -0.1471 H   0  0  0  0  0  0  0  0  0  0  0  0
   -0.5156   -0.9517    1.0931 H   0  0  0  0  0  0  0  0  0  0  0  0
   -0.3742   -1.9792   -0.4214 H   0  0  0  0  0  0  0  0  0  0  0  0
    1.3374   -0.5211   -1.3233 H   0  0  0  0  0  0  0  0  0  0  0  0
    3.9284   -0.2466    1.1860 H   0  0  0  0  0  0  0  0  0  0  0  0
   -0.1650    1.8012    0.1164 H   0  0  0  0  0  0  0  0  0  0  0  0
  1  2  1  0
  2  3  1  0
  3  4  1  0
  4  5  1  0
  5  6  1  0
  6  7  2  0
  4  8  1  0
  8  9  1  0
  8  2  1  0
  9  2  1  0
  1 10  1  0
  1 11  1  0
  1 12  1  0
  3 13  1  0
  3 14  1  0
  4 15  1  0
  6 16  1  0
  8 17  1  0
M  END
