
     RDKit          3D

 21 22  0  0  0  0  0  0  0  0999 V2000
    2.2842    0.2977   -0.0803 C   0  0  0  0  0  0  0  0  0  0  0  0
    0.8423   -0.0405   -0.0309 C   0  0  0  0  0  0  0  0  0  0  0  0
    0.5111   -1.5043    0.0249 C   0  0  0  0  0  0  0  0  0  0  0  0
   -0.7757   -1.8067   -0.2123 C   0  0  0  0  0  0  0  0  0  0  0  0
   -1.7574   -0.7411    0.1923 C   0  0  0  0  0  0  0  0  0  0  0  0
   -1.1348    0.5933   -0.0378 C   0  0  0  0  0  0  0  0  0  0  0  0
   -1.9900    1.6506   -0.1295 O   0  0  0  0  0  0  0  0  0  0  0  0
   -0.0373    0.5506   -1.1070 C   0  0  0  0  0  0  0  0  0  0  0  0
    0.0048    0.7450    0.9711 C   0  0  0  0  0  0  0  0  0  0  0  0
    2.6438    0.6960    0.8963 H   0  0  0  0  0  0  0  0  0  0  0  0
    2.8544   -0.6659   -0.2357 H   0  0  0  0  0  0  0  0  0  0  0  0
    2.5844    0.9969   -0.8720 H   0  0  0  0  0  0  0  0  0  0  0  0
    1.2567   -2.2626    0.2411 H   0  0  0  0  0  0  0  0  0  0  0  0
   -1.0967   -2.7319   -0.6554 H   0  0  0  0  0  0  0  0  0  0  0  0
   -2.7429   -0.8846   -0.2573 H   0  0  0  0  0  0  0  0  0  0  0  0
   -1.9089   -0.8613    1.3059 H   0  0  0  0  0  0  0  0  0  0  0  0
   -1.7621    2.4461    0.3811 H   0  0  0  0  0  0  0  0  0  0  0  0
   -0.2381   -0.1234   -1.9417 H   0  0  0  0  0  0  0  0  0  0  0  0
    0.2059    1.5964   -1.3971 H   0  0  0  0  0  0  0  0  0  0  0  0
   -0.1540    0.2640    1.9336 H   0  0  0  0  0  0  0  0  0  0  0  0
    0.4101    1.7857    1.0104 H   0  0  0  0  0  0  0  0  0  0  0  0
  1  2  1  0
  2  3  1  0
  3  4  2  0
  4  5  1  0
  5  6  1  0
  6  7  1  0
  6  8  1  0
  6  9  1  0
  8  2  1  0
  9  2  1  0
  1 10  1  0
  1 11  1  0
  1 12  1  0
  3 13  1  0
  4 14  1  0
  5 15  1  0
  5 16  1  0
  7 17  1  0
  8 18  1  0
  8 19  1  0
  9 20  1  0
  9 21  1  0
M  END
