
     RDKit          3D

 20 21  0  0  0  0  0  0  0  0999 V2000
   -1.2790    1.5932    0.6250 C   0  0  0  0  0  0  0  0  0  0  0  0
   -0.3912    0.3785    0.4982 C   0  0  0  0  0  0  0  0  0  0  0  0
   -1.1244   -0.9064    0.1581 C   0  0  0  0  0  0  0  0  0  0  0  0
   -0.7417   -0.6810   -1.2825 C   0  0  0  0  0  0  0  0  0  0  0  0
    0.2979    0.3100   -0.8226 C   0  0  0  0  0  0  0  0  0  0  0  0
    1.6148   -0.3209   -0.5008 C   0  0  0  0  0  0  0  0  0  0  0  0
    1.6272   -0.4534    0.9862 C   0  0  0  0  0  0  0  0  0  0  0  0
    0.5143    0.1717    1.4959 O   0  0  0  0  0  0  0  0  0  0  0  0
   -1.7362    1.7904   -0.3712 H   0  0  0  0  0  0  0  0  0  0  0  0
   -2.0893    1.4031    1.3719 H   0  0  0  0  0  0  0  0  0  0  0  0
   -0.6469    2.4390    0.9241 H   0  0  0  0  0  0  0  0  0  0  0  0
   -0.6746   -1.8251    0.6051 H   0  0  0  0  0  0  0  0  0  0  0  0
   -2.2072   -0.8904    0.3809 H   0  0  0  0  0  0  0  0  0  0  0  0
   -1.5926   -0.2528   -1.8323 H   0  0  0  0  0  0  0  0  0  0  0  0
   -0.2959   -1.6042   -1.7072 H   0  0  0  0  0  0  0  0  0  0  0  0
    0.3634    1.2470   -1.3962 H   0  0  0  0  0  0  0  0  0  0  0  0
    1.6942   -1.2983   -1.0280 H   0  0  0  0  0  0  0  0  0  0  0  0
    2.4554    0.3436   -0.8214 H   0  0  0  0  0  0  0  0  0  0  0  0
    1.6904   -1.5294    1.2988 H   0  0  0  0  0  0  0  0  0  0  0  0
    2.5214    0.0854    1.4180 H   0  0  0  0  0  0  0  0  0  0  0  0
  1  2  1  0
  2  3  1  0
  3  4  1  0
  4  5  1  0
  5  6  1  0
  6  7  1  0
  7  8  1  0
  5  2  1  0
  8  2  1  0
  1  9  1  0
  1 10  1  0
  1 11  1  0
  3 12  1  0
  3 13  1  0
  4 14  1  0
  4 15  1  0
  5 16  1  0
  6 17  1  0
  6 18  1  0
  7 19  1  0
  7 20  1  0
M  END
