
     RDKit          3D

 21 23  0  0  0  0  0  0  0  0999 V2000
    2.2175   -0.1183   -0.3530 C   0  0  0  0  0  0  0  0  0  0  0  0
    0.7643   -0.2040   -0.1815 C   0  0  0  0  0  0  0  0  0  0  0  0
   -0.1621   -0.3732   -1.3947 C   0  0  0  0  0  0  0  0  0  0  0  0
   -1.4878   -0.1999   -0.6496 C   0  0  0  0  0  0  0  0  0  0  0  0
   -1.3220   -1.2163    0.4479 C   0  0  0  0  0  0  0  0  0  0  0  0
    0.0673   -0.7971    0.9594 C   0  0  0  0  0  0  0  0  0  0  0  0
    0.0953    0.6584    0.7913 C   0  0  0  0  0  0  0  0  0  0  0  0
    0.7026    1.4715    1.6818 O   0  0  0  0  0  0  0  0  0  0  0  0
   -1.2056    1.0856    0.0999 C   0  0  0  0  0  0  0  0  0  0  0  0
    2.5318    0.9651   -0.2953 H   0  0  0  0  0  0  0  0  0  0  0  0
    2.7875   -0.6070    0.4816 H   0  0  0  0  0  0  0  0  0  0  0  0
    2.6219   -0.4797   -1.3172 H   0  0  0  0  0  0  0  0  0  0  0  0
   -0.0015    0.3980   -2.1485 H   0  0  0  0  0  0  0  0  0  0  0  0
   -0.1305   -1.3957   -1.7907 H   0  0  0  0  0  0  0  0  0  0  0  0
   -2.3595   -0.2382   -1.2379 H   0  0  0  0  0  0  0  0  0  0  0  0
   -2.0999   -1.0094    1.2266 H   0  0  0  0  0  0  0  0  0  0  0  0
   -1.3383   -2.2525    0.1116 H   0  0  0  0  0  0  0  0  0  0  0  0
    0.5230   -1.3430    1.7728 H   0  0  0  0  0  0  0  0  0  0  0  0
    0.6730    2.4154    1.4912 H   0  0  0  0  0  0  0  0  0  0  0  0
   -1.9437    1.3199    0.8669 H   0  0  0  0  0  0  0  0  0  0  0  0
   -0.9333    1.9203   -0.5626 H   0  0  0  0  0  0  0  0  0  0  0  0
  1  2  1  0
  2  3  1  0
  3  4  1  0
  4  5  1  0
  5  6  1  0
  6  7  1  0
  7  8  1  0
  7  9  1  0
  6  2  1  0
  7  2  1  0
  9  4  1  0
  1 10  1  0
  1 11  1  0
  1 12  1  0
  3 13  1  0
  3 14  1  0
  4 15  1  0
  5 16  1  0
  5 17  1  0
  6 18  1  0
  8 19  1  0
  9 20  1  0
  9 21  1  0
M  END
