
     RDKit          3D

 19 20  0  0  0  0  0  0  0  0999 V2000
    2.0823   -0.0706    0.0402 C   0  0  0  0  0  0  0  0  0  0  0  0
    0.6525   -0.1557   -0.1657 C   0  0  0  0  0  0  0  0  0  0  0  0
    0.1226   -0.8040   -1.2523 O   0  0  0  0  0  0  0  0  0  0  0  0
   -1.2747   -0.6395   -1.0629 C   0  0  0  0  0  0  0  0  0  0  0  0
   -1.2834    0.1408    0.1973 C   0  0  0  0  0  0  0  0  0  0  0  0
   -0.1599    1.1442   -0.1185 C   0  0  0  0  0  0  0  0  0  0  0  0
   -0.2464    1.7222   -1.3604 O   0  0  0  0  0  0  0  0  0  0  0  0
   -0.2215   -0.5479    1.0388 C   0  0  0  0  0  0  0  0  0  0  0  0
   -0.3827   -1.9133    1.1829 O   0  0  0  0  0  0  0  0  0  0  0  0
    2.6065   -0.9225   -0.4135 H   0  0  0  0  0  0  0  0  0  0  0  0
    2.3062   -0.0080    1.1460 H   0  0  0  0  0  0  0  0  0  0  0  0
    2.4979    0.8452   -0.4731 H   0  0  0  0  0  0  0  0  0  0  0  0
   -1.6460    0.0024   -1.9090 H   0  0  0  0  0  0  0  0  0  0  0  0
   -1.8009   -1.5926   -1.0424 H   0  0  0  0  0  0  0  0  0  0  0  0
   -2.1582    0.5016    0.6499 H   0  0  0  0  0  0  0  0  0  0  0  0
    0.0358    1.7842    0.7316 H   0  0  0  0  0  0  0  0  0  0  0  0
   -0.7330    2.5806   -1.2612 H   0  0  0  0  0  0  0  0  0  0  0  0
    0.0717    0.0253    1.9151 H   0  0  0  0  0  0  0  0  0  0  0  0
   -0.4689   -2.0925    2.1573 H   0  0  0  0  0  0  0  0  0  0  0  0
  1  2  1  0
  2  3  1  0
  3  4  1  0
  4  5  1  0
  5  6  1  0
  6  7  1  0
  5  8  1  0
  8  9  1  0
  6  2  1  0
  8  2  1  0
  1 10  1  0
  1 11  1  0
  1 12  1  0
  4 13  1  0
  4 14  1  0
  5 15  1  0
  6 16  1  0
  7 17  1  0
  8 18  1  0
  9 19  1  0
M  END
