
     RDKit          3D

 21 23  0  0  0  0  0  0  0  0999 V2000
   -2.3503   -0.4760    0.1595 C   0  0  0  0  0  0  0  0  0  0  0  0
   -0.9886    0.0024   -0.1033 C   0  0  0  0  0  0  0  0  0  0  0  0
   -0.3429   -0.4018   -1.4198 C   0  0  0  0  0  0  0  0  0  0  0  0
    0.9347   -0.8272   -1.1527 O   0  0  0  0  0  0  0  0  0  0  0  0
    1.3121   -0.2319    0.0737 C   0  0  0  0  0  0  0  0  0  0  0  0
    2.5852   -0.6720    0.6976 C   0  0  0  0  0  0  0  0  0  0  0  0
    0.7249    1.0531    0.4626 C   0  0  0  0  0  0  0  0  0  0  0  0
   -0.6823    1.4594    0.1632 C   0  0  0  0  0  0  0  0  0  0  0  0
    0.0982   -0.3210    0.8695 C   0  0  0  0  0  0  0  0  0  0  0  0
   -2.3158   -1.5617    0.4633 H   0  0  0  0  0  0  0  0  0  0  0  0
   -2.8202    0.1069    0.9496 H   0  0  0  0  0  0  0  0  0  0  0  0
   -2.9471   -0.4635   -0.7781 H   0  0  0  0  0  0  0  0  0  0  0  0
   -0.2474    0.5079   -2.0828 H   0  0  0  0  0  0  0  0  0  0  0  0
   -0.9571   -1.1130   -1.9854 H   0  0  0  0  0  0  0  0  0  0  0  0
    2.4501   -1.3647    1.5592 H   0  0  0  0  0  0  0  0  0  0  0  0
    3.2629   -1.0932   -0.0610 H   0  0  0  0  0  0  0  0  0  0  0  0
    3.0981    0.2346    1.1161 H   0  0  0  0  0  0  0  0  0  0  0  0
    1.2288    1.6195    1.2482 H   0  0  0  0  0  0  0  0  0  0  0  0
   -0.8512    2.1101   -0.6992 H   0  0  0  0  0  0  0  0  0  0  0  0
   -1.1715    1.8523    1.0740 H   0  0  0  0  0  0  0  0  0  0  0  0
   -0.0205   -0.4201    1.9230 H   0  0  0  0  0  0  0  0  0  0  0  0
  1  2  1  0
  2  3  1  0
  3  4  1  0
  4  5  1  0
  5  6  1  0
  5  7  1  0
  7  8  1  0
  7  9  1  0
  8  2  1  0
  9  2  1  0
  9  5  1  0
  1 10  1  0
  1 11  1  0
  1 12  1  0
  3 13  1  0
  3 14  1  0
  6 15  1  0
  6 16  1  0
  6 17  1  0
  7 18  1  0
  8 19  1  0
  8 20  1  0
  9 21  1  0
M  END
