
     RDKit          3D

 19 21  0  0  0  0  0  0  0  0999 V2000
    2.1351   -0.3074   -0.3512 C   0  0  0  0  0  0  0  0  0  0  0  0
    0.7084   -0.3810    0.0500 C   0  0  0  0  0  0  0  0  0  0  0  0
    0.3389    0.2245    1.3857 C   0  0  0  0  0  0  0  0  0  0  0  0
   -0.9367    0.7221    0.7248 C   0  0  0  0  0  0  0  0  0  0  0  0
   -1.4438    1.9535    1.0341 O   0  0  0  0  0  0  0  0  0  0  0  0
   -1.5139   -0.0068   -0.4345 C   0  0  0  0  0  0  0  0  0  0  0  0
   -1.1414   -1.4768   -0.6157 C   0  0  0  0  0  0  0  0  0  0  0  0
    0.1139   -1.6100   -0.0843 O   0  0  0  0  0  0  0  0  0  0  0  0
   -0.2117    0.6220   -0.5742 C   0  0  0  0  0  0  0  0  0  0  0  0
    2.1756   -0.3965   -1.4690 H   0  0  0  0  0  0  0  0  0  0  0  0
    2.6565   -1.2043    0.0796 H   0  0  0  0  0  0  0  0  0  0  0  0
    2.6007    0.6310   -0.0602 H   0  0  0  0  0  0  0  0  0  0  0  0
    0.0892   -0.4996    2.1853 H   0  0  0  0  0  0  0  0  0  0  0  0
    0.9841    1.0503    1.7278 H   0  0  0  0  0  0  0  0  0  0  0  0
   -1.2527    2.6491    0.3280 H   0  0  0  0  0  0  0  0  0  0  0  0
   -2.4543    0.3585   -0.8177 H   0  0  0  0  0  0  0  0  0  0  0  0
   -1.8943   -2.1528   -0.1993 H   0  0  0  0  0  0  0  0  0  0  0  0
   -1.0409   -1.6165   -1.7320 H   0  0  0  0  0  0  0  0  0  0  0  0
    0.0872    1.4407   -1.1770 H   0  0  0  0  0  0  0  0  0  0  0  0
  1  2  1  0
  2  3  1  0
  3  4  1  0
  4  5  1  0
  4  6  1  0
  6  7  1  0
  7  8  1  0
  6  9  1  0
  8  2  1  0
  9  2  1  0
  9  4  1  0
  1 10  1  0
  1 11  1  0
  1 12  1  0
  3 13  1  0
  3 14  1  0
  5 15  1  0
  6 16  1  0
  7 17  1  0
  7 18  1  0
  9 19  1  0
M  END
