
     RDKit          3D

 17 19  0  0  0  0  0  0  0  0999 V2000
    1.9917    0.7828    0.0657 C   0  0  0  0  0  0  0  0  0  0  0  0
    0.7259    0.0134    0.0310 C   0  0  0  0  0  0  0  0  0  0  0  0
    0.7432   -1.4662   -0.2247 C   0  0  0  0  0  0  0  0  0  0  0  0
    1.7766   -2.1535   -0.1306 O   0  0  0  0  0  0  0  0  0  0  0  0
   -0.5519   -1.8376   -0.5587 O   0  0  0  0  0  0  0  0  0  0  0  0
   -1.3897   -0.6874   -0.6713 C   0  0  0  0  0  0  0  0  0  0  0  0
   -1.7666   -0.2032    0.7144 C   0  0  0  0  0  0  0  0  0  0  0  0
   -0.4491    0.5059    0.7885 C   0  0  0  0  0  0  0  0  0  0  0  0
   -0.4198    0.4374   -0.7533 C   0  0  0  0  0  0  0  0  0  0  0  0
    2.7546    0.2099   -0.5333 H   0  0  0  0  0  0  0  0  0  0  0  0
    1.8796    1.7526   -0.4797 H   0  0  0  0  0  0  0  0  0  0  0  0
    2.4242    0.9282    1.0724 H   0  0  0  0  0  0  0  0  0  0  0  0
   -2.1899   -0.7478   -1.4031 H   0  0  0  0  0  0  0  0  0  0  0  0
   -1.9726   -0.9740    1.4553 H   0  0  0  0  0  0  0  0  0  0  0  0
   -2.5941    0.5571    0.5977 H   0  0  0  0  0  0  0  0  0  0  0  0
   -0.3585    1.5019    1.2511 H   0  0  0  0  0  0  0  0  0  0  0  0
   -0.6035    1.3804   -1.2215 H   0  0  0  0  0  0  0  0  0  0  0  0
  1  2  1  0
  2  3  1  0
  3  4  2  0
  3  5  1  0
  5  6  1  0
  6  7  1  0
  7  8  1  0
  8  9  1  0
  8  2  1  0
  9  2  1  0
  9  6  1  0
  1 10  1  0
  1 11  1  0
  1 12  1  0
  6 13  1  0
  7 14  1  0
  7 15  1  0
  8 16  1  0
  9 17  1  0
M  END
