
     RDKit          3D

 23 25  0  0  0  0  0  0  0  0999 V2000
    2.3285   -0.0976   -0.6174 C   0  0  0  0  0  0  0  0  0  0  0  0
    0.9868    0.1916   -0.0201 C   0  0  0  0  0  0  0  0  0  0  0  0
    0.8798    0.3850    1.4228 C   0  0  0  0  0  0  0  0  0  0  0  0
    0.3751   -0.9092    0.8944 C   0  0  0  0  0  0  0  0  0  0  0  0
   -1.0356   -1.0386    0.3865 C   0  0  0  0  0  0  0  0  0  0  0  0
   -1.8386    0.2214    0.6725 C   0  0  0  0  0  0  0  0  0  0  0  0
   -1.1712    1.2896   -0.2055 C   0  0  0  0  0  0  0  0  0  0  0  0
   -0.1227    0.5367   -0.9710 C   0  0  0  0  0  0  0  0  0  0  0  0
   -0.7996   -0.8369   -1.1204 C   0  0  0  0  0  0  0  0  0  0  0  0
    2.5955   -1.1555   -0.6079 H   0  0  0  0  0  0  0  0  0  0  0  0
    3.1115    0.4867   -0.0536 H   0  0  0  0  0  0  0  0  0  0  0  0
    2.3472    0.3501   -1.6466 H   0  0  0  0  0  0  0  0  0  0  0  0
    1.8135    0.3249    2.0077 H   0  0  0  0  0  0  0  0  0  0  0  0
    0.1155    1.0294    1.9022 H   0  0  0  0  0  0  0  0  0  0  0  0
    0.9518   -1.8380    0.9431 H   0  0  0  0  0  0  0  0  0  0  0  0
   -1.5381   -1.9566    0.6210 H   0  0  0  0  0  0  0  0  0  0  0  0
   -2.8411    0.0523    0.2318 H   0  0  0  0  0  0  0  0  0  0  0  0
   -1.8456    0.4977    1.7252 H   0  0  0  0  0  0  0  0  0  0  0  0
   -0.7525    2.1090    0.4049 H   0  0  0  0  0  0  0  0  0  0  0  0
   -1.8763    1.7373   -0.9135 H   0  0  0  0  0  0  0  0  0  0  0  0
    0.1777    0.9645   -1.9087 H   0  0  0  0  0  0  0  0  0  0  0  0
   -0.1034   -1.5817   -1.5151 H   0  0  0  0  0  0  0  0  0  0  0  0
   -1.7583   -0.7622   -1.6322 H   0  0  0  0  0  0  0  0  0  0  0  0
  1  2  1  0
  2  3  1  0
  3  4  1  0
  4  5  1  0
  5  6  1  0
  6  7  1  0
  7  8  1  0
  8  9  1  0
  4  2  1  0
  9  5  1  0
  8  2  1  0
  1 10  1  0
  1 11  1  0
  1 12  1  0
  3 13  1  0
  3 14  1  0
  4 15  1  0
  5 16  1  0
  6 17  1  0
  6 18  1  0
  7 19  1  0
  7 20  1  0
  8 21  1  0
  9 22  1  0
  9 23  1  0
M  END
