
     RDKit          3D

 16 18  0  0  0  0  0  0  0  0999 V2000
    2.0655    0.2135    0.2800 C   0  0  0  0  0  0  0  0  0  0  0  0
    0.6295    0.2411   -0.0615 C   0  0  0  0  0  0  0  0  0  0  0  0
   -0.0948    1.4048   -0.1332 O   0  0  0  0  0  0  0  0  0  0  0  0
   -1.4269    1.1351    0.0448 C   0  0  0  0  0  0  0  0  0  0  0  0
   -1.5991   -0.3790   -0.0698 C   0  0  0  0  0  0  0  0  0  0  0  0
   -1.2468   -0.8338   -1.3227 O   0  0  0  0  0  0  0  0  0  0  0  0
    0.1025   -0.8632   -0.9713 C   0  0  0  0  0  0  0  0  0  0  0  0
   -0.2527   -0.8088    0.4279 C   0  0  0  0  0  0  0  0  0  0  0  0
    2.5817   -0.6692   -0.1031 H   0  0  0  0  0  0  0  0  0  0  0  0
    2.5466    1.1363   -0.1575 H   0  0  0  0  0  0  0  0  0  0  0  0
    2.1927    0.2544    1.3838 H   0  0  0  0  0  0  0  0  0  0  0  0
   -2.0663    1.6888   -0.6401 H   0  0  0  0  0  0  0  0  0  0  0  0
   -1.6772    1.3801    1.1144 H   0  0  0  0  0  0  0  0  0  0  0  0
   -2.4554   -0.8069    0.4248 H   0  0  0  0  0  0  0  0  0  0  0  0
    0.7876   -1.5774   -1.4186 H   0  0  0  0  0  0  0  0  0  0  0  0
   -0.0868   -1.5161    1.2021 H   0  0  0  0  0  0  0  0  0  0  0  0
  1  2  1  0
  2  3  1  0
  3  4  1  0
  4  5  1  0
  5  6  1  0
  6  7  1  0
  7  8  1  0
  7  2  1  0
  8  2  1  0
  8  5  1  0
  1  9  1  0
  1 10  1  0
  1 11  1  0
  4 12  1  0
  4 13  1  0
  5 14  1  0
  7 15  1  0
  8 16  1  0
M  END
