
     RDKit          3D

 21 23  0  0  0  0  0  0  0  0999 V2000
   -1.0016    1.6488   -0.3678 C   0  0  0  0  0  0  0  0  0  0  0  0
   -0.6483    0.2875   -0.0927 C   0  0  0  0  0  0  0  0  0  0  0  0
   -1.2304   -0.8407   -0.9322 C   0  0  0  0  0  0  0  0  0  0  0  0
   -0.6977   -1.9387   -0.2039 O   0  0  0  0  0  0  0  0  0  0  0  0
    0.0344   -1.3529    0.8117 C   0  0  0  0  0  0  0  0  0  0  0  0
   -0.9645   -0.2894    1.3021 C   0  0  0  0  0  0  0  0  0  0  0  0
    0.7101   -0.2029    0.1349 C   0  0  0  0  0  0  0  0  0  0  0  0
    1.9022    0.4539    0.4832 C   0  0  0  0  0  0  0  0  0  0  0  0
    1.7677   -0.3780   -0.8352 C   0  0  0  0  0  0  0  0  0  0  0  0
   -0.3166    2.1206   -1.0939 H   0  0  0  0  0  0  0  0  0  0  0  0
   -1.1069    2.2409    0.5676 H   0  0  0  0  0  0  0  0  0  0  0  0
   -2.0219    1.6897   -0.8465 H   0  0  0  0  0  0  0  0  0  0  0  0
   -0.8062   -0.7826   -1.9363 H   0  0  0  0  0  0  0  0  0  0  0  0
   -2.3252   -0.8485   -0.8831 H   0  0  0  0  0  0  0  0  0  0  0  0
    0.5259   -1.9360    1.5339 H   0  0  0  0  0  0  0  0  0  0  0  0
   -1.9890   -0.6459    1.3550 H   0  0  0  0  0  0  0  0  0  0  0  0
   -0.5848    0.3508    2.0996 H   0  0  0  0  0  0  0  0  0  0  0  0
    2.6285    0.0205    1.1975 H   0  0  0  0  0  0  0  0  0  0  0  0
    2.0036    1.5621    0.3204 H   0  0  0  0  0  0  0  0  0  0  0  0
    1.8298    0.1946   -1.7685 H   0  0  0  0  0  0  0  0  0  0  0  0
    2.2912   -1.3537   -0.8457 H   0  0  0  0  0  0  0  0  0  0  0  0
  1  2  1  0
  2  3  1  0
  3  4  1  0
  4  5  1  0
  5  6  1  0
  5  7  1  0
  7  8  1  0
  8  9  1  0
  6  2  1  0
  9  7  1  0
  7  2  1  0
  1 10  1  0
  1 11  1  0
  1 12  1  0
  3 13  1  0
  3 14  1  0
  5 15  1  0
  6 16  1  0
  6 17  1  0
  8 18  1  0
  8 19  1  0
  9 20  1  0
  9 21  1  0
M  END
