
     RDKit          3D

 21 23  0  0  0  0  0  0  0  0999 V2000
    2.4713   -0.3695    0.1675 C   0  0  0  0  0  0  0  0  0  0  0  0
    0.9967   -0.2481   -0.2090 C   0  0  0  0  0  0  0  0  0  0  0  0
    0.4957   -1.0527   -1.2032 O   0  0  0  0  0  0  0  0  0  0  0  0
    0.1204   -1.4524    0.0393 C   0  0  0  0  0  0  0  0  0  0  0  0
   -1.1608   -1.2201    0.6882 C   0  0  0  0  0  0  0  0  0  0  0  0
   -1.8781    0.0580    0.4397 C   0  0  0  0  0  0  0  0  0  0  0  0
   -1.0658    0.9110   -0.4303 C   0  0  0  0  0  0  0  0  0  0  0  0
   -0.2865    2.0733   -0.2310 C   0  0  0  0  0  0  0  0  0  0  0  0
    0.3037    0.9192    0.3422 C   0  0  0  0  0  0  0  0  0  0  0  0
    2.6149    0.1220    1.1576 H   0  0  0  0  0  0  0  0  0  0  0  0
    2.7968   -1.4084    0.2702 H   0  0  0  0  0  0  0  0  0  0  0  0
    3.0415    0.2128   -0.5641 H   0  0  0  0  0  0  0  0  0  0  0  0
    0.6231   -2.4109    0.3610 H   0  0  0  0  0  0  0  0  0  0  0  0
   -1.8694   -2.0539    0.4020 H   0  0  0  0  0  0  0  0  0  0  0  0
   -1.0391   -1.3613    1.8037 H   0  0  0  0  0  0  0  0  0  0  0  0
   -2.9130   -0.0910    0.0311 H   0  0  0  0  0  0  0  0  0  0  0  0
   -2.0521    0.6125    1.4093 H   0  0  0  0  0  0  0  0  0  0  0  0
   -1.0368    0.4644   -1.4729 H   0  0  0  0  0  0  0  0  0  0  0  0
   -0.6098    2.9085    0.4578 H   0  0  0  0  0  0  0  0  0  0  0  0
    0.2080    2.5453   -1.1258 H   0  0  0  0  0  0  0  0  0  0  0  0
    0.2392    0.8414    1.4696 H   0  0  0  0  0  0  0  0  0  0  0  0
  1  2  1  0
  2  3  1  0
  3  4  1  0
  4  5  1  0
  5  6  1  0
  6  7  1  0
  7  8  1  0
  8  9  1  0
  4  2  1  0
  9  7  1  0
  9  2  1  0
  1 10  1  0
  1 11  1  0
  1 12  1  0
  4 13  1  0
  5 14  1  0
  5 15  1  0
  6 16  1  0
  6 17  1  0
  7 18  1  0
  8 19  1  0
  8 20  1  0
  9 21  1  0
M  END
