
     RDKit          3D

 19 20  0  0  0  0  0  0  0  0999 V2000
    1.9923    0.3189    0.3931 C   0  0  0  0  0  0  0  0  0  0  0  0
    0.6138   -0.2167    0.1285 C   0  0  0  0  0  0  0  0  0  0  0  0
   -0.3698    0.3155    1.1335 C   0  0  0  0  0  0  0  0  0  0  0  0
   -1.6912    0.0894    0.4371 C   0  0  0  0  0  0  0  0  0  0  0  0
   -1.3419    0.5179   -0.9912 C   0  0  0  0  0  0  0  0  0  0  0  0
    0.0620    0.0525   -1.2399 C   0  0  0  0  0  0  0  0  0  0  0  0
    0.2038   -1.3162   -1.5465 O   0  0  0  0  0  0  0  0  0  0  0  0
    0.4994   -1.6213   -0.2314 C   0  0  0  0  0  0  0  0  0  0  0  0
    0.6141   -2.7081    0.3735 O   0  0  0  0  0  0  0  0  0  0  0  0
    1.8878    1.4000    0.6191 H   0  0  0  0  0  0  0  0  0  0  0  0
    2.6681    0.1987   -0.4663 H   0  0  0  0  0  0  0  0  0  0  0  0
    2.3871   -0.1501    1.3175 H   0  0  0  0  0  0  0  0  0  0  0  0
   -0.2576   -0.2731    2.0550 H   0  0  0  0  0  0  0  0  0  0  0  0
   -0.1443    1.3653    1.3153 H   0  0  0  0  0  0  0  0  0  0  0  0
   -1.9210   -0.9844    0.4517 H   0  0  0  0  0  0  0  0  0  0  0  0
   -2.4328    0.7372    0.9009 H   0  0  0  0  0  0  0  0  0  0  0  0
   -1.3658    1.6122   -1.0971 H   0  0  0  0  0  0  0  0  0  0  0  0
   -2.0663   -0.0098   -1.6491 H   0  0  0  0  0  0  0  0  0  0  0  0
    0.6623    0.6720   -1.9037 H   0  0  0  0  0  0  0  0  0  0  0  0
  1  2  1  0
  2  3  1  0
  3  4  1  0
  4  5  1  0
  5  6  1  0
  6  7  1  0
  7  8  1  0
  8  9  2  0
  6  2  1  0
  8  2  1  0
  1 10  1  0
  1 11  1  0
  1 12  1  0
  3 13  1  0
  3 14  1  0
  4 15  1  0
  4 16  1  0
  5 17  1  0
  5 18  1  0
  6 19  1  0
M  END
