
     RDKit          3D

 21 22  0  0  0  0  0  0  0  0999 V2000
   -1.8377   -0.9749    0.0199 C   0  0  0  0  0  0  0  0  0  0  0  0
   -0.5130   -0.3238    0.2423 C   0  0  0  0  0  0  0  0  0  0  0  0
   -0.4674    0.8264    1.1870 C   0  0  0  0  0  0  0  0  0  0  0  0
   -0.2089    2.0015    0.3068 C   0  0  0  0  0  0  0  0  0  0  0  0
    0.0919    1.6081   -0.9262 C   0  0  0  0  0  0  0  0  0  0  0  0
    0.0819    0.1475   -1.0600 C   0  0  0  0  0  0  0  0  0  0  0  0
    1.3536   -0.5696   -0.7242 C   0  0  0  0  0  0  0  0  0  0  0  0
    2.4134    0.2138   -0.3245 O   0  0  0  0  0  0  0  0  0  0  0  0
    0.6640   -1.2384    0.4297 C   0  0  0  0  0  0  0  0  0  0  0  0
   -2.3883   -0.3700   -0.7424 H   0  0  0  0  0  0  0  0  0  0  0  0
   -2.4362   -1.0004    0.9391 H   0  0  0  0  0  0  0  0  0  0  0  0
   -1.6769   -1.9929   -0.4091 H   0  0  0  0  0  0  0  0  0  0  0  0
   -1.3914    0.9508    1.7881 H   0  0  0  0  0  0  0  0  0  0  0  0
    0.3711    0.7710    1.9231 H   0  0  0  0  0  0  0  0  0  0  0  0
   -0.2710    3.0183    0.6722 H   0  0  0  0  0  0  0  0  0  0  0  0
    0.3151    2.3137   -1.7228 H   0  0  0  0  0  0  0  0  0  0  0  0
   -0.3924   -0.2705   -1.9659 H   0  0  0  0  0  0  0  0  0  0  0  0
    1.6994   -1.3172   -1.4748 H   0  0  0  0  0  0  0  0  0  0  0  0
    3.0572   -0.3757    0.1455 H   0  0  0  0  0  0  0  0  0  0  0  0
    0.3730   -2.2925    0.2835 H   0  0  0  0  0  0  0  0  0  0  0  0
    1.1626   -1.1252    1.4127 H   0  0  0  0  0  0  0  0  0  0  0  0
  1  2  1  0
  2  3  1  0
  3  4  1  0
  4  5  2  0
  5  6  1  0
  6  7  1  0
  7  8  1  0
  7  9  1  0
  6  2  1  0
  9  2  1  0
  1 10  1  0
  1 11  1  0
  1 12  1  0
  3 13  1  0
  3 14  1  0
  4 15  1  0
  5 16  1  0
  6 17  1  0
  7 18  1  0
  8 19  1  0
  9 20  1  0
  9 21  1  0
M  END
