
     RDKit          3D

 15 17  0  0  0  0  0  0  0  0999 V2000
    1.7795    0.4750    0.4325 C   0  0  0  0  0  0  0  0  0  0  0  0
    0.5891   -0.0610   -0.2729 C   0  0  0  0  0  0  0  0  0  0  0  0
    0.1539    0.6842   -1.3593 O   0  0  0  0  0  0  0  0  0  0  0  0
   -0.7063    0.3485   -0.3469 C   0  0  0  0  0  0  0  0  0  0  0  0
   -1.4745    1.3373    0.3921 C   0  0  0  0  0  0  0  0  0  0  0  0
   -2.2272    1.0147    1.2816 O   0  0  0  0  0  0  0  0  0  0  0  0
   -1.2403   -1.0754   -0.3188 C   0  0  0  0  0  0  0  0  0  0  0  0
   -0.7939   -1.9345    0.6533 O   0  0  0  0  0  0  0  0  0  0  0  0
    0.2193   -1.5170   -0.1784 C   0  0  0  0  0  0  0  0  0  0  0  0
    2.6556    0.4058   -0.2778 H   0  0  0  0  0  0  0  0  0  0  0  0
    2.0580   -0.0655    1.3473 H   0  0  0  0  0  0  0  0  0  0  0  0
    1.6354    1.5569    0.6869 H   0  0  0  0  0  0  0  0  0  0  0  0
   -1.3850    2.3818    0.1573 H   0  0  0  0  0  0  0  0  0  0  0  0
   -1.8200   -1.4162   -1.1713 H   0  0  0  0  0  0  0  0  0  0  0  0
    0.5563   -2.1345   -1.0253 H   0  0  0  0  0  0  0  0  0  0  0  0
  1  2  1  0
  2  3  1  0
  3  4  1  0
  4  5  1  0
  5  6  2  0
  4  7  1  0
  7  8  1  0
  8  9  1  0
  4  2  1  0
  9  7  1  0
  9  2  1  0
  1 10  1  0
  1 11  1  0
  1 12  1  0
  5 13  1  0
  7 14  1  0
  9 15  1  0
M  END
