
     RDKit          3D

 21 22  0  0  0  0  0  0  0  0999 V2000
    2.2598   -0.2614    0.0163 C   0  0  0  0  0  0  0  0  0  0  0  0
    0.7920   -0.0236    0.2727 C   0  0  0  0  0  0  0  0  0  0  0  0
    0.4544    1.4240    0.0357 C   0  0  0  0  0  0  0  0  0  0  0  0
   -1.0210    1.6707    0.2104 C   0  0  0  0  0  0  0  0  0  0  0  0
   -1.8764    0.8047   -0.3266 C   0  0  0  0  0  0  0  0  0  0  0  0
   -1.3045   -0.3476   -1.0628 C   0  0  0  0  0  0  0  0  0  0  0  0
   -0.1559   -0.9854   -0.3408 C   0  0  0  0  0  0  0  0  0  0  0  0
   -0.4818   -1.4531    1.0568 C   0  0  0  0  0  0  0  0  0  0  0  0
    0.4279   -0.4980    1.5296 O   0  0  0  0  0  0  0  0  0  0  0  0
    2.6174    0.3532   -0.8366 H   0  0  0  0  0  0  0  0  0  0  0  0
    2.4498   -1.3440   -0.1789 H   0  0  0  0  0  0  0  0  0  0  0  0
    2.8041    0.1000    0.9142 H   0  0  0  0  0  0  0  0  0  0  0  0
    0.7771    1.6836   -0.9956 H   0  0  0  0  0  0  0  0  0  0  0  0
    1.0083    2.0167    0.7952 H   0  0  0  0  0  0  0  0  0  0  0  0
   -1.3788    2.5240    0.7548 H   0  0  0  0  0  0  0  0  0  0  0  0
   -2.9615    0.9631   -0.2126 H   0  0  0  0  0  0  0  0  0  0  0  0
   -2.1162   -1.0592   -1.2474 H   0  0  0  0  0  0  0  0  0  0  0  0
   -0.9068   -0.0075   -2.0625 H   0  0  0  0  0  0  0  0  0  0  0  0
    0.2961   -1.7801   -0.9589 H   0  0  0  0  0  0  0  0  0  0  0  0
   -1.5351   -1.2689    1.3678 H   0  0  0  0  0  0  0  0  0  0  0  0
   -0.1488   -2.5112    1.2692 H   0  0  0  0  0  0  0  0  0  0  0  0
  1  2  1  0
  2  3  1  0
  3  4  1  0
  4  5  2  0
  5  6  1  0
  6  7  1  0
  7  8  1  0
  8  9  1  0
  7  2  1  0
  9  2  1  0
  1 10  1  0
  1 11  1  0
  1 12  1  0
  3 13  1  0
  3 14  1  0
  4 15  1  0
  5 16  1  0
  6 17  1  0
  6 18  1  0
  7 19  1  0
  8 20  1  0
  8 21  1  0
M  END
