
     RDKit          3D

 19 20  0  0  0  0  0  0  0  0999 V2000
    1.6458   -1.1136   -0.1922 C   0  0  0  0  0  0  0  0  0  0  0  0
    0.5066   -0.1766   -0.3248 C   0  0  0  0  0  0  0  0  0  0  0  0
    0.8167    1.2840   -0.2295 C   0  0  0  0  0  0  0  0  0  0  0  0
   -0.5027    1.9352    0.0647 C   0  0  0  0  0  0  0  0  0  0  0  0
   -0.6939    3.1441    0.0484 O   0  0  0  0  0  0  0  0  0  0  0  0
   -1.4925    0.8560    0.3684 C   0  0  0  0  0  0  0  0  0  0  0  0
   -0.6506   -0.3485    0.6135 C   0  0  0  0  0  0  0  0  0  0  0  0
   -0.9397   -1.4376   -0.4029 C   0  0  0  0  0  0  0  0  0  0  0  0
   -0.3499   -0.5569   -1.3461 O   0  0  0  0  0  0  0  0  0  0  0  0
    2.5670   -0.5037    0.0361 H   0  0  0  0  0  0  0  0  0  0  0  0
    1.5233   -1.9228    0.5238 H   0  0  0  0  0  0  0  0  0  0  0  0
    1.8555   -1.5471   -1.2136 H   0  0  0  0  0  0  0  0  0  0  0  0
    1.3203    1.7087   -1.0946 H   0  0  0  0  0  0  0  0  0  0  0  0
    1.4350    1.4368    0.6787 H   0  0  0  0  0  0  0  0  0  0  0  0
   -2.1018    0.7437   -0.5725 H   0  0  0  0  0  0  0  0  0  0  0  0
   -2.1620    1.1251    1.1991 H   0  0  0  0  0  0  0  0  0  0  0  0
   -0.4537   -0.6596    1.6255 H   0  0  0  0  0  0  0  0  0  0  0  0
   -1.9996   -1.6375   -0.5752 H   0  0  0  0  0  0  0  0  0  0  0  0
   -0.3238   -2.3297   -0.2405 H   0  0  0  0  0  0  0  0  0  0  0  0
  1  2  1  0
  2  3  1  0
  3  4  1  0
  4  5  2  0
  4  6  1  0
  6  7  1  0
  7  8  1  0
  8  9  1  0
  7  2  1  0
  9  2  1  0
  1 10  1  0
  1 11  1  0
  1 12  1  0
  3 13  1  0
  3 14  1  0
  6 15  1  0
  6 16  1  0
  7 17  1  0
  8 18  1  0
  8 19  1  0
M  END
