
     RDKit          2D

 19 22  0  0  0  0  0  0  0  0999 V2000
   -1.6984   -2.2315    0.0000 C   0  0  0  0  0  0  0  0  0  0  0  0
   -1.9330   -0.7500    0.0000 C   0  0  0  0  0  0  0  0  0  0  0  0
   -3.3596   -1.2135    0.0000 C   0  0  0  0  0  0  0  0  0  0  0  0
   -4.2413    0.0000    0.0000 C   0  0  0  0  0  0  0  0  0  0  0  0
   -3.3596    1.2135    0.0000 C   0  0  0  0  0  0  0  0  0  0  0  0
    0.8660    0.0000    0.0000 C   0  0  0  0  0  0  0  0  0  0  0  0
   -0.4330    0.7500    0.0000 C   0  0  0  0  0  0  0  0  0  0  0  0
   -1.9330    0.7500    0.0000 C   0  0  0  0  0  0  0  0  0  0  0  0
   -0.4330   -0.7500    0.0000 C   0  0  0  0  0  0  0  0  0  0  0  0
   -1.4637   -3.7131    0.0000 H   0  0  0  0  0  0  0  0  0  0  0  0
   -0.1993   -2.1792    0.0000 H   0  0  0  0  0  0  0  0  0  0  0  0
   -2.4646   -2.4513    0.0000 H   0  0  0  0  0  0  0  0  0  0  0  0
   -3.1266   -1.9759    0.0000 H   0  0  0  0  0  0  0  0  0  0  0  0
   -4.6586   -1.9635    0.0000 H   0  0  0  0  0  0  0  0  0  0  0  0
   -5.7413    0.0000    0.0000 H   0  0  0  0  0  0  0  0  0  0  0  0
    2.3660    0.0000    0.0000 H   0  0  0  0  0  0  0  0  0  0  0  0
   -0.0448    2.1989    0.0000 H   0  0  0  0  0  0  0  0  0  0  0  0
   -1.6984    2.2315    0.0000 H   0  0  0  0  0  0  0  0  0  0  0  0
    0.1289   -2.1408    0.0000 H   0  0  0  0  0  0  0  0  0  0  0  0
  1  2  1  0
  2  3  1  0
  3  4  1  0
  4  5  2  0
  5  6  1  0
  6  7  1  0
  7  8  1  0
  7  9  1  0
  8  2  1  0
  9  2  1  0
  8  5  1  0
  9  6  1  0
  1 10  1  0
  1 11  1  0
  1 12  1  0
  3 13  1  0
  3 14  1  0
  4 15  1  0
  6 16  1  0
  7 17  1  0
  8 18  1  0
  9 19  1  0
M  END
