
     RDKit          3D

 21 23  0  0  0  0  0  0  0  0999 V2000
    2.4696   -0.2459   -0.6239 C   0  0  0  0  0  0  0  0  0  0  0  0
    1.0214    0.0892   -0.2514 C   0  0  0  0  0  0  0  0  0  0  0  0
    0.9268    1.1535    0.8399 C   0  0  0  0  0  0  0  0  0  0  0  0
    0.5498   -0.3179    1.0417 C   0  0  0  0  0  0  0  0  0  0  0  0
   -0.9135   -0.5397    1.2190 C   0  0  0  0  0  0  0  0  0  0  0  0
   -1.6877   -0.6426   -0.0415 C   0  0  0  0  0  0  0  0  0  0  0  0
   -2.1697    0.5450   -0.7859 C   0  0  0  0  0  0  0  0  0  0  0  0
   -1.0123   -0.3496   -1.2848 C   0  0  0  0  0  0  0  0  0  0  0  0
    0.1878    0.2536   -1.2847 O   0  0  0  0  0  0  0  0  0  0  0  0
    2.9055    0.7024   -1.0172 H   0  0  0  0  0  0  0  0  0  0  0  0
    3.0538   -0.5678    0.2418 H   0  0  0  0  0  0  0  0  0  0  0  0
    2.4507   -1.0163   -1.4370 H   0  0  0  0  0  0  0  0  0  0  0  0
    0.1259    1.9025    0.7867 H   0  0  0  0  0  0  0  0  0  0  0  0
    1.8480    1.5007    1.3299 H   0  0  0  0  0  0  0  0  0  0  0  0
    1.2674   -0.8947    1.6955 H   0  0  0  0  0  0  0  0  0  0  0  0
   -1.3041    0.3210    1.8351 H   0  0  0  0  0  0  0  0  0  0  0  0
   -1.0352   -1.4383    1.8718 H   0  0  0  0  0  0  0  0  0  0  0  0
   -2.4116   -1.5111   -0.0574 H   0  0  0  0  0  0  0  0  0  0  0  0
   -3.0997    0.4657   -1.4009 H   0  0  0  0  0  0  0  0  0  0  0  0
   -1.9378    1.5725   -0.4935 H   0  0  0  0  0  0  0  0  0  0  0  0
   -1.2352   -0.9821   -2.1833 H   0  0  0  0  0  0  0  0  0  0  0  0
  1  2  1  0
  2  3  1  0
  3  4  1  0
  4  5  1  0
  5  6  1  0
  6  7  1  0
  7  8  1  0
  8  9  1  0
  4  2  1  0
  8  6  1  0
  9  2  1  0
  1 10  1  0
  1 11  1  0
  1 12  1  0
  3 13  1  0
  3 14  1  0
  4 15  1  0
  5 16  1  0
  5 17  1  0
  6 18  1  0
  7 19  1  0
  7 20  1  0
  8 21  1  0
M  END
