
     RDKit          3D

 21 22  0  0  0  0  0  0  0  0999 V2000
    2.3444    0.4694    0.1567 C   0  0  0  0  0  0  0  0  0  0  0  0
    0.8945    0.1585   -0.0262 C   0  0  0  0  0  0  0  0  0  0  0  0
    0.1665    1.2692   -0.7405 C   0  0  0  0  0  0  0  0  0  0  0  0
   -1.1497    1.4415   -0.0339 C   0  0  0  0  0  0  0  0  0  0  0  0
   -1.9689    0.4985    0.3991 C   0  0  0  0  0  0  0  0  0  0  0  0
   -1.8150   -0.9939    0.3084 C   0  0  0  0  0  0  0  0  0  0  0  0
   -0.3815   -1.2969    0.6753 C   0  0  0  0  0  0  0  0  0  0  0  0
    0.5449   -1.2024   -0.5289 C   0  0  0  0  0  0  0  0  0  0  0  0
    0.2810   -0.1760    1.1884 O   0  0  0  0  0  0  0  0  0  0  0  0
    2.8028   -0.3948    0.7079 H   0  0  0  0  0  0  0  0  0  0  0  0
    2.8393    0.5517   -0.8240 H   0  0  0  0  0  0  0  0  0  0  0  0
    2.4408    1.3803    0.7813 H   0  0  0  0  0  0  0  0  0  0  0  0
    0.7176    2.2036   -0.8003 H   0  0  0  0  0  0  0  0  0  0  0  0
   -0.1116    0.9312   -1.7803 H   0  0  0  0  0  0  0  0  0  0  0  0
   -1.4561    2.4803    0.1373 H   0  0  0  0  0  0  0  0  0  0  0  0
   -2.8919    0.8004    0.8944 H   0  0  0  0  0  0  0  0  0  0  0  0
   -1.9591   -1.2292   -0.7877 H   0  0  0  0  0  0  0  0  0  0  0  0
   -2.5520   -1.5051    0.9261 H   0  0  0  0  0  0  0  0  0  0  0  0
   -0.2463   -2.2218    1.2523 H   0  0  0  0  0  0  0  0  0  0  0  0
    1.4321   -1.8855   -0.4009 H   0  0  0  0  0  0  0  0  0  0  0  0
    0.0682   -1.2790   -1.5046 H   0  0  0  0  0  0  0  0  0  0  0  0
  1  2  1  0
  2  3  1  0
  3  4  1  0
  4  5  2  0
  5  6  1  0
  6  7  1  0
  7  8  1  0
  7  9  1  0
  8  2  1  0
  9  2  1  0
  1 10  1  0
  1 11  1  0
  1 12  1  0
  3 13  1  0
  3 14  1  0
  4 15  1  0
  5 16  1  0
  6 17  1  0
  6 18  1  0
  7 19  1  0
  8 20  1  0
  8 21  1  0
M  END
