
     RDKit          3D

 15 16  0  0  0  0  0  0  0  0999 V2000
    1.6033   -0.4112   -0.0830 C   0  0  0  0  0  0  0  0  0  0  0  0
    0.2143    0.0798   -0.4037 C   0  0  0  0  0  0  0  0  0  0  0  0
   -0.8502   -0.9649   -0.6154 C   0  0  0  0  0  0  0  0  0  0  0  0
   -1.5125   -0.4599    0.6168 C   0  0  0  0  0  0  0  0  0  0  0  0
   -2.5039   -0.8454    1.2081 O   0  0  0  0  0  0  0  0  0  0  0  0
   -0.5491    0.6244    0.8214 C   0  0  0  0  0  0  0  0  0  0  0  0
   -0.1236    1.5089   -0.2885 C   0  0  0  0  0  0  0  0  0  0  0  0
    2.0413    0.2933    0.6630 H   0  0  0  0  0  0  0  0  0  0  0  0
    1.5138   -1.3888    0.4012 H   0  0  0  0  0  0  0  0  0  0  0  0
    2.2690   -0.4139   -0.9720 H   0  0  0  0  0  0  0  0  0  0  0  0
   -0.4511   -1.9823   -0.5477 H   0  0  0  0  0  0  0  0  0  0  0  0
   -1.5111   -0.8227   -1.4828 H   0  0  0  0  0  0  0  0  0  0  0  0
   -0.0056    0.6767    1.7762 H   0  0  0  0  0  0  0  0  0  0  0  0
   -0.8489    1.9189   -1.0240 H   0  0  0  0  0  0  0  0  0  0  0  0
    0.7144    2.1871   -0.0696 H   0  0  0  0  0  0  0  0  0  0  0  0
  1  2  1  0
  2  3  1  0
  3  4  1  0
  4  5  2  0
  4  6  1  0
  6  7  1  0
  6  2  1  0
  7  2  1  0
  1  8  1  0
  1  9  1  0
  1 10  1  0
  3 11  1  0
  3 12  1  0
  6 13  1  0
  7 14  1  0
  7 15  1  0
M  END
