
     RDKit          3D

 19 21  0  0  0  0  0  0  0  0999 V2000
    1.9113   -0.8839    0.1002 C   0  0  0  0  0  0  0  0  0  0  0  0
    0.6004   -0.2516    0.0719 C   0  0  0  0  0  0  0  0  0  0  0  0
   -0.0132    0.0467    1.3135 O   0  0  0  0  0  0  0  0  0  0  0  0
   -0.7541    1.0035    0.5829 C   0  0  0  0  0  0  0  0  0  0  0  0
   -1.6260    0.1576   -0.3301 C   0  0  0  0  0  0  0  0  0  0  0  0
   -1.8122   -1.2320    0.0735 C   0  0  0  0  0  0  0  0  0  0  0  0
   -0.5348   -0.9264   -0.6490 C   0  0  0  0  0  0  0  0  0  0  0  0
    0.4919    1.2206   -0.2085 C   0  0  0  0  0  0  0  0  0  0  0  0
    1.4342    1.9216    0.5352 O   0  0  0  0  0  0  0  0  0  0  0  0
    2.4897   -0.7982    1.0356 H   0  0  0  0  0  0  0  0  0  0  0  0
    1.8049   -1.9754   -0.1726 H   0  0  0  0  0  0  0  0  0  0  0  0
    2.5440   -0.4670   -0.7369 H   0  0  0  0  0  0  0  0  0  0  0  0
   -1.2037    1.7998    1.1252 H   0  0  0  0  0  0  0  0  0  0  0  0
   -2.0528    0.6160   -1.2270 H   0  0  0  0  0  0  0  0  0  0  0  0
   -1.7048   -1.4529    1.1590 H   0  0  0  0  0  0  0  0  0  0  0  0
   -2.5126   -1.8909   -0.4484 H   0  0  0  0  0  0  0  0  0  0  0  0
   -0.4520   -1.2457   -1.6839 H   0  0  0  0  0  0  0  0  0  0  0  0
    0.3302    1.5329   -1.2325 H   0  0  0  0  0  0  0  0  0  0  0  0
    1.0598    2.8254    0.6920 H   0  0  0  0  0  0  0  0  0  0  0  0
  1  2  1  0
  2  3  1  0
  3  4  1  0
  4  5  1  0
  5  6  1  0
  6  7  1  0
  4  8  1  0
  8  9  1  0
  7  2  1  0
  8  2  1  0
  7  5  1  0
  1 10  1  0
  1 11  1  0
  1 12  1  0
  4 13  1  0
  5 14  1  0
  6 15  1  0
  6 16  1  0
  7 17  1  0
  8 18  1  0
  9 19  1  0
M  END
