
     RDKit          3D

 19 21  0  0  0  0  0  0  0  0999 V2000
    2.0848   -0.2322    0.8656 C   0  0  0  0  0  0  0  0  0  0  0  0
    0.9007   -0.0207    0.0034 C   0  0  0  0  0  0  0  0  0  0  0  0
    1.1251   -0.2085   -1.5032 C   0  0  0  0  0  0  0  0  0  0  0  0
   -0.0628   -0.6015   -2.0437 O   0  0  0  0  0  0  0  0  0  0  0  0
   -1.0035   -0.7733   -1.0609 C   0  0  0  0  0  0  0  0  0  0  0  0
   -0.2835   -0.9101    0.1890 C   0  0  0  0  0  0  0  0  0  0  0  0
   -1.0585    0.3105   -0.0271 C   0  0  0  0  0  0  0  0  0  0  0  0
   -2.2925    0.4926    0.8133 C   0  0  0  0  0  0  0  0  0  0  0  0
    0.0860    1.0646    0.2642 O   0  0  0  0  0  0  0  0  0  0  0  0
    1.9611   -1.1983    1.4090 H   0  0  0  0  0  0  0  0  0  0  0  0
    2.2717    0.6223    1.5354 H   0  0  0  0  0  0  0  0  0  0  0  0
    3.0089   -0.3184    0.2270 H   0  0  0  0  0  0  0  0  0  0  0  0
    1.5059    0.7204   -1.9693 H   0  0  0  0  0  0  0  0  0  0  0  0
    1.9278   -0.9981   -1.5692 H   0  0  0  0  0  0  0  0  0  0  0  0
   -1.9470   -1.2174   -1.3330 H   0  0  0  0  0  0  0  0  0  0  0  0
   -0.4300   -1.5907    0.9921 H   0  0  0  0  0  0  0  0  0  0  0  0
   -1.9601    0.8868    1.8058 H   0  0  0  0  0  0  0  0  0  0  0  0
   -3.0225    1.1843    0.3808 H   0  0  0  0  0  0  0  0  0  0  0  0
   -2.8115   -0.4707    1.0209 H   0  0  0  0  0  0  0  0  0  0  0  0
  1  2  1  0
  2  3  1  0
  3  4  1  0
  4  5  1  0
  5  6  1  0
  6  7  1  0
  7  8  1  0
  7  9  1  0
  6  2  1  0
  9  2  1  0
  7  5  1  0
  1 10  1  0
  1 11  1  0
  1 12  1  0
  3 13  1  0
  3 14  1  0
  5 15  1  0
  6 16  1  0
  8 17  1  0
  8 18  1  0
  8 19  1  0
M  END
