
     RDKit          3D

 21 22  0  0  0  0  0  0  0  0999 V2000
   -0.6784    2.0308   -0.1469 C   0  0  0  0  0  0  0  0  0  0  0  0
   -0.3369    0.5924    0.1655 C   0  0  0  0  0  0  0  0  0  0  0  0
   -0.8133    0.0615    1.4412 C   0  0  0  0  0  0  0  0  0  0  0  0
   -1.3623   -0.4697    0.1183 C   0  0  0  0  0  0  0  0  0  0  0  0
   -0.7063   -1.7585   -0.3074 C   0  0  0  0  0  0  0  0  0  0  0  0
    0.7533   -1.4630   -0.5153 C   0  0  0  0  0  0  0  0  0  0  0  0
    0.8174    0.0406   -0.5843 C   0  0  0  0  0  0  0  0  0  0  0  0
    2.1281    0.5850   -0.1989 C   0  0  0  0  0  0  0  0  0  0  0  0
    2.8140    0.0080    0.6259 O   0  0  0  0  0  0  0  0  0  0  0  0
   -0.4265    2.6233    0.7803 H   0  0  0  0  0  0  0  0  0  0  0  0
   -0.0324    2.4451   -0.9461 H   0  0  0  0  0  0  0  0  0  0  0  0
   -1.7332    2.2024   -0.3443 H   0  0  0  0  0  0  0  0  0  0  0  0
   -1.5567    0.6591    1.9922 H   0  0  0  0  0  0  0  0  0  0  0  0
   -0.2335   -0.6253    2.0846 H   0  0  0  0  0  0  0  0  0  0  0  0
   -2.3845   -0.2302   -0.1779 H   0  0  0  0  0  0  0  0  0  0  0  0
   -1.1902   -2.2596   -1.1405 H   0  0  0  0  0  0  0  0  0  0  0  0
   -0.7721   -2.4441    0.5858 H   0  0  0  0  0  0  0  0  0  0  0  0
    1.0992   -1.9414   -1.4721 H   0  0  0  0  0  0  0  0  0  0  0  0
    1.3937   -1.8629    0.3227 H   0  0  0  0  0  0  0  0  0  0  0  0
    0.6687    0.3048   -1.6729 H   0  0  0  0  0  0  0  0  0  0  0  0
    2.5518    1.5016   -0.6099 H   0  0  0  0  0  0  0  0  0  0  0  0
  1  2  1  0
  2  3  1  0
  3  4  1  0
  4  5  1  0
  5  6  1  0
  6  7  1  0
  7  8  1  0
  8  9  2  0
  4  2  1  0
  7  2  1  0
  1 10  1  0
  1 11  1  0
  1 12  1  0
  3 13  1  0
  3 14  1  0
  4 15  1  0
  5 16  1  0
  5 17  1  0
  6 18  1  0
  6 19  1  0
  7 20  1  0
  8 21  1  0
M  END
