
     RDKit          3D

 17 19  0  0  0  0  0  0  0  0999 V2000
   -1.0083    1.2742    0.3650 C   0  0  0  0  0  0  0  0  0  0  0  0
   -0.2773    0.2487   -0.5170 C   0  0  0  0  0  0  0  0  0  0  0  0
   -1.1064   -0.4532   -1.3243 O   0  0  0  0  0  0  0  0  0  0  0  0
   -1.5798   -1.2252   -0.1601 C   0  0  0  0  0  0  0  0  0  0  0  0
   -0.1076   -1.0782    0.2111 C   0  0  0  0  0  0  0  0  0  0  0  0
    1.1236   -1.1664    0.6128 C   0  0  0  0  0  0  0  0  0  0  0  0
    1.9871   -0.0191    0.2518 C   0  0  0  0  0  0  0  0  0  0  0  0
    1.6539    1.2804    0.4178 O   0  0  0  0  0  0  0  0  0  0  0  0
    1.1018    0.6654   -0.7299 C   0  0  0  0  0  0  0  0  0  0  0  0
   -0.5059    2.2553    0.2466 H   0  0  0  0  0  0  0  0  0  0  0  0
   -1.1045    0.9439    1.3949 H   0  0  0  0  0  0  0  0  0  0  0  0
   -2.0168    1.3802   -0.0829 H   0  0  0  0  0  0  0  0  0  0  0  0
   -2.2782   -0.6809    0.4469 H   0  0  0  0  0  0  0  0  0  0  0  0
   -1.8943   -2.2006   -0.4794 H   0  0  0  0  0  0  0  0  0  0  0  0
    1.5106   -2.0374    1.1873 H   0  0  0  0  0  0  0  0  0  0  0  0
    3.0093   -0.2660   -0.1710 H   0  0  0  0  0  0  0  0  0  0  0  0
    1.4928    1.0788   -1.6696 H   0  0  0  0  0  0  0  0  0  0  0  0
  1  2  1  0
  2  3  1  0
  3  4  1  0
  4  5  1  0
  5  6  2  0
  6  7  1  0
  7  8  1  0
  8  9  1  0
  5  2  1  0
  9  7  1  0
  9  2  1  0
  1 10  1  0
  1 11  1  0
  1 12  1  0
  4 13  1  0
  4 14  1  0
  6 15  1  0
  7 16  1  0
  9 17  1  0
M  END
