
     RDKit          3D

 19 22  0  0  0  0  0  0  0  0999 V2000
    2.0799    0.6171    0.6720 C   0  0  0  0  0  0  0  0  0  0  0  0
    0.8088    0.1357    0.1142 C   0  0  0  0  0  0  0  0  0  0  0  0
    0.1307    0.8031   -1.0112 C   0  0  0  0  0  0  0  0  0  0  0  0
   -1.3186    0.8244   -0.5870 C   0  0  0  0  0  0  0  0  0  0  0  0
   -1.4473   -0.5071    0.1162 C   0  0  0  0  0  0  0  0  0  0  0  0
   -2.6043   -0.8699    0.7281 O   0  0  0  0  0  0  0  0  0  0  0  0
   -0.4876   -1.4024   -0.5021 C   0  0  0  0  0  0  0  0  0  0  0  0
    0.5819   -0.5747   -1.1111 C   0  0  0  0  0  0  0  0  0  0  0  0
   -0.1900   -0.6560    0.8406 C   0  0  0  0  0  0  0  0  0  0  0  0
    2.6140   -0.1839    1.2015 H   0  0  0  0  0  0  0  0  0  0  0  0
    1.8448    1.4447    1.4057 H   0  0  0  0  0  0  0  0  0  0  0  0
    2.6789    1.1043   -0.1204 H   0  0  0  0  0  0  0  0  0  0  0  0
    0.6139    1.6760   -1.4333 H   0  0  0  0  0  0  0  0  0  0  0  0
   -2.0195    0.9040   -1.4213 H   0  0  0  0  0  0  0  0  0  0  0  0
   -1.4171    1.6844    0.1320 H   0  0  0  0  0  0  0  0  0  0  0  0
   -2.7210   -0.2764    1.5352 H   0  0  0  0  0  0  0  0  0  0  0  0
   -0.4660   -2.4795   -0.4463 H   0  0  0  0  0  0  0  0  0  0  0  0
    1.3212   -0.9607   -1.8064 H   0  0  0  0  0  0  0  0  0  0  0  0
   -0.0028   -1.2832    1.6937 H   0  0  0  0  0  0  0  0  0  0  0  0
  1  2  1  0
  2  3  1  0
  3  4  1  0
  4  5  1  0
  5  6  1  0
  5  7  1  0
  7  8  1  0
  7  9  1  0
  8  2  1  0
  9  2  1  0
  8  3  1  0
  9  5  1  0
  1 10  1  0
  1 11  1  0
  1 12  1  0
  3 13  1  0
  4 14  1  0
  4 15  1  0
  6 16  1  0
  7 17  1  0
  8 18  1  0
  9 19  1  0
M  END
