
     RDKit          2D

 19 22  0  0  0  0  0  0  0  0999 V2000
   -1.0607   -3.6213    0.0000 C   0  0  0  0  0  0  0  0  0  0  0  0
   -1.0607   -2.1213    0.0000 C   0  0  0  0  0  0  0  0  0  0  0  0
   -0.0000   -1.0607    0.0000 C   0  0  0  0  0  0  0  0  0  0  0  0
    1.0607    0.0000    0.0000 O   0  0  0  0  0  0  0  0  0  0  0  0
    0.0000    1.0607    0.0000 C   0  0  0  0  0  0  0  0  0  0  0  0
   -1.0607    0.0000    0.0000 C   0  0  0  0  0  0  0  0  0  0  0  0
   -2.1213   -1.0607    0.0000 C   0  0  0  0  0  0  0  0  0  0  0  0
   -3.4204   -1.8107    0.0000 C   0  0  0  0  0  0  0  0  0  0  0  0
   -3.4204   -0.3107    0.0000 C   0  0  0  0  0  0  0  0  0  0  0  0
   -1.0607   -5.1213    0.0000 H   0  0  0  0  0  0  0  0  0  0  0  0
    0.4393   -3.6213    0.0000 H   0  0  0  0  0  0  0  0  0  0  0  0
   -2.4006   -3.7859    0.0000 H   0  0  0  0  0  0  0  0  0  0  0  0
    1.0607   -2.1213    0.0000 H   0  0  0  0  0  0  0  0  0  0  0  0
    0.0000    2.5607    0.0000 H   0  0  0  0  0  0  0  0  0  0  0  0
   -1.9841    1.1820    0.0000 H   0  0  0  0  0  0  0  0  0  0  0  0
   -3.1167   -3.1261    0.0000 H   0  0  0  0  0  0  0  0  0  0  0  0
   -4.8976   -2.0711    0.0000 H   0  0  0  0  0  0  0  0  0  0  0  0
   -4.8976   -0.0502    0.0000 H   0  0  0  0  0  0  0  0  0  0  0  0
   -3.0830    1.1509    0.0000 H   0  0  0  0  0  0  0  0  0  0  0  0
  1  2  1  0
  2  3  1  0
  3  4  1  0
  4  5  1  0
  5  6  1  0
  6  7  1  0
  7  8  1  0
  8  9  1  0
  5  2  1  0
  9  7  1  0
  7  2  1  0
  6  3  1  0
  1 10  1  0
  1 11  1  0
  1 12  1  0
  3 13  1  0
  5 14  1  0
  6 15  1  0
  8 16  1  0
  8 17  1  0
  9 18  1  0
  9 19  1  0
M  END
