
     RDKit          3D

 16 17  0  0  0  0  0  0  0  0999 V2000
   -0.9052    1.0466    0.6330 C   0  0  0  0  0  0  0  0  0  0  0  0
   -0.4453    0.0234   -0.3664 C   0  0  0  0  0  0  0  0  0  0  0  0
   -1.3379   -1.1695   -0.4956 C   0  0  0  0  0  0  0  0  0  0  0  0
   -0.2680   -2.0587   -0.5523 O   0  0  0  0  0  0  0  0  0  0  0  0
    0.4832   -1.0999    0.1200 C   0  0  0  0  0  0  0  0  0  0  0  0
    0.9789    0.0059   -0.7315 C   0  0  0  0  0  0  0  0  0  0  0  0
    1.9774    0.8650   -0.0530 C   0  0  0  0  0  0  0  0  0  0  0  0
    2.9867    1.1571   -0.6625 O   0  0  0  0  0  0  0  0  0  0  0  0
   -1.0154    0.6207    1.6627 H   0  0  0  0  0  0  0  0  0  0  0  0
   -0.2996    1.9709    0.6261 H   0  0  0  0  0  0  0  0  0  0  0  0
   -1.9465    1.3673    0.3507 H   0  0  0  0  0  0  0  0  0  0  0  0
   -1.9088   -1.3830    0.4561 H   0  0  0  0  0  0  0  0  0  0  0  0
   -2.0134   -1.1787   -1.3710 H   0  0  0  0  0  0  0  0  0  0  0  0
    0.5808   -1.1207    1.2046 H   0  0  0  0  0  0  0  0  0  0  0  0
    1.2504   -0.3044   -1.7694 H   0  0  0  0  0  0  0  0  0  0  0  0
    1.8828    1.2578    0.9485 H   0  0  0  0  0  0  0  0  0  0  0  0
  1  2  1  0
  2  3  1  0
  3  4  1  0
  4  5  1  0
  5  6  1  0
  6  7  1  0
  7  8  2  0
  5  2  1  0
  6  2  1  0
  1  9  1  0
  1 10  1  0
  1 11  1  0
  3 12  1  0
  3 13  1  0
  5 14  1  0
  6 15  1  0
  7 16  1  0
M  END
