
     RDKit          3D

 23 25  0  0  0  0  0  0  0  0999 V2000
    2.1418   -0.5554   -0.1769 C   0  0  0  0  0  0  0  0  0  0  0  0
    0.7107   -0.3009    0.0762 C   0  0  0  0  0  0  0  0  0  0  0  0
   -0.0877   -1.4349    0.6240 C   0  0  0  0  0  0  0  0  0  0  0  0
   -1.5371   -1.2369    0.1570 C   0  0  0  0  0  0  0  0  0  0  0  0
   -1.4730    0.1729   -0.3739 C   0  0  0  0  0  0  0  0  0  0  0  0
   -1.0956    1.0427    0.8400 C   0  0  0  0  0  0  0  0  0  0  0  0
    0.3987    1.0627    0.6268 C   0  0  0  0  0  0  0  0  0  0  0  0
    0.4218    1.5323   -0.8337 C   0  0  0  0  0  0  0  0  0  0  0  0
   -0.1416    0.1600   -1.0872 C   0  0  0  0  0  0  0  0  0  0  0  0
    2.6352   -0.7409    0.8041 H   0  0  0  0  0  0  0  0  0  0  0  0
    2.3358   -1.4532   -0.7895 H   0  0  0  0  0  0  0  0  0  0  0  0
    2.6501    0.2813   -0.6397 H   0  0  0  0  0  0  0  0  0  0  0  0
   -0.0208   -1.4635    1.7155 H   0  0  0  0  0  0  0  0  0  0  0  0
    0.2712   -2.3677    0.1435 H   0  0  0  0  0  0  0  0  0  0  0  0
   -2.2103   -1.2689    1.0267 H   0  0  0  0  0  0  0  0  0  0  0  0
   -1.8004   -1.9037   -0.6642 H   0  0  0  0  0  0  0  0  0  0  0  0
   -2.3118    0.5234   -0.9261 H   0  0  0  0  0  0  0  0  0  0  0  0
   -1.5300    2.0549    0.7180 H   0  0  0  0  0  0  0  0  0  0  0  0
   -1.4056    0.5906    1.7790 H   0  0  0  0  0  0  0  0  0  0  0  0
    1.0374    1.5337    1.3163 H   0  0  0  0  0  0  0  0  0  0  0  0
    1.3953    1.7683   -1.2403 H   0  0  0  0  0  0  0  0  0  0  0  0
   -0.3422    2.3045   -1.0665 H   0  0  0  0  0  0  0  0  0  0  0  0
   -0.0420   -0.3011   -2.0291 H   0  0  0  0  0  0  0  0  0  0  0  0
  1  2  1  0
  2  3  1  0
  3  4  1  0
  4  5  1  0
  5  6  1  0
  6  7  1  0
  7  8  1  0
  8  9  1  0
  7  2  1  0
  9  2  1  0
  9  5  1  0
  1 10  1  0
  1 11  1  0
  1 12  1  0
  3 13  1  0
  3 14  1  0
  4 15  1  0
  4 16  1  0
  5 17  1  0
  6 18  1  0
  6 19  1  0
  7 20  1  0
  8 21  1  0
  8 22  1  0
  9 23  1  0
M  END
