
     RDKit          3D

 23 24  0  0  0  0  0  0  0  0999 V2000
   -1.9304   -1.2502    0.2309 C   0  0  0  0  0  0  0  0  0  0  0  0
   -0.7613   -0.3797    0.1289 C   0  0  0  0  0  0  0  0  0  0  0  0
   -0.9612    1.0421    0.6009 C   0  0  0  0  0  0  0  0  0  0  0  0
    0.2225    1.7569   -0.0360 C   0  0  0  0  0  0  0  0  0  0  0  0
    0.9190    0.7356   -0.9101 C   0  0  0  0  0  0  0  0  0  0  0  0
   -0.3006   -0.1166   -1.3141 C   0  0  0  0  0  0  0  0  0  0  0  0
    1.6475   -0.3001   -0.1040 C   0  0  0  0  0  0  0  0  0  0  0  0
    2.6615    0.1972    0.6586 O   0  0  0  0  0  0  0  0  0  0  0  0
    0.5062   -0.8856    0.7428 C   0  0  0  0  0  0  0  0  0  0  0  0
   -2.8377   -0.7236   -0.0540 H   0  0  0  0  0  0  0  0  0  0  0  0
   -1.9894   -1.7043    1.2277 H   0  0  0  0  0  0  0  0  0  0  0  0
   -1.8173   -2.1051   -0.4897 H   0  0  0  0  0  0  0  0  0  0  0  0
   -1.9167    1.4798    0.2335 H   0  0  0  0  0  0  0  0  0  0  0  0
   -0.9007    1.0982    1.7183 H   0  0  0  0  0  0  0  0  0  0  0  0
   -0.1675    2.5510   -0.7135 H   0  0  0  0  0  0  0  0  0  0  0  0
    0.8869    2.2046    0.7095 H   0  0  0  0  0  0  0  0  0  0  0  0
    1.4481    1.1399   -1.7541 H   0  0  0  0  0  0  0  0  0  0  0  0
    0.0017   -1.0255   -1.8241 H   0  0  0  0  0  0  0  0  0  0  0  0
   -1.0620    0.4847   -1.8040 H   0  0  0  0  0  0  0  0  0  0  0  0
    1.9635   -1.1026   -0.7946 H   0  0  0  0  0  0  0  0  0  0  0  0
    3.2643   -0.5730    0.9057 H   0  0  0  0  0  0  0  0  0  0  0  0
    0.5039   -1.9951    0.6817 H   0  0  0  0  0  0  0  0  0  0  0  0
    0.6197   -0.5286    1.8054 H   0  0  0  0  0  0  0  0  0  0  0  0
  1  2  1  0
  2  3  1  0
  3  4  1  0
  4  5  1  0
  5  6  1  0
  5  7  1  0
  7  8  1  0
  7  9  1  0
  6  2  1  0
  9  2  1  0
  1 10  1  0
  1 11  1  0
  1 12  1  0
  3 13  1  0
  3 14  1  0
  4 15  1  0
  4 16  1  0
  5 17  1  0
  6 18  1  0
  6 19  1  0
  7 20  1  0
  8 21  1  0
  9 22  1  0
  9 23  1  0
M  END
