
     RDKit          3D

 17 18  0  0  0  0  0  0  0  0999 V2000
   -1.3537   -1.0878   -0.1400 C   0  0  0  0  0  0  0  0  0  0  0  0
   -0.4905    0.1375   -0.2184 C   0  0  0  0  0  0  0  0  0  0  0  0
    0.7718    0.0814   -1.0836 C   0  0  0  0  0  0  0  0  0  0  0  0
    1.7752   -0.3163    0.0083 C   0  0  0  0  0  0  0  0  0  0  0  0
    1.4485    0.6614    0.9684 O   0  0  0  0  0  0  0  0  0  0  0  0
    0.0911    0.5654    1.1227 C   0  0  0  0  0  0  0  0  0  0  0  0
   -0.8658    1.4206    0.3782 C   0  0  0  0  0  0  0  0  0  0  0  0
   -1.0269   -1.7687    0.6830 H   0  0  0  0  0  0  0  0  0  0  0  0
   -1.2647   -1.6543   -1.0989 H   0  0  0  0  0  0  0  0  0  0  0  0
   -2.4351   -0.8538   -0.0339 H   0  0  0  0  0  0  0  0  0  0  0  0
    0.7061   -0.6525   -1.8793 H   0  0  0  0  0  0  0  0  0  0  0  0
    1.0194    1.1155   -1.4254 H   0  0  0  0  0  0  0  0  0  0  0  0
    2.8030   -0.2645   -0.3269 H   0  0  0  0  0  0  0  0  0  0  0  0
    1.4386   -1.3066    0.3676 H   0  0  0  0  0  0  0  0  0  0  0  0
   -0.2574    0.0539    2.0410 H   0  0  0  0  0  0  0  0  0  0  0  0
   -0.4928    2.3320   -0.1695 H   0  0  0  0  0  0  0  0  0  0  0  0
   -1.8670    1.5367    0.8067 H   0  0  0  0  0  0  0  0  0  0  0  0
  1  2  1  0
  2  3  1  0
  3  4  1  0
  4  5  1  0
  5  6  1  0
  6  7  1  0
  6  2  1  0
  7  2  1  0
  1  8  1  0
  1  9  1  0
  1 10  1  0
  3 11  1  0
  3 12  1  0
  4 13  1  0
  4 14  1  0
  6 15  1  0
  7 16  1  0
  7 17  1  0
M  END
