
     RDKit          3D

 19 21  0  0  0  0  0  0  0  0999 V2000
    2.5247    0.0497   -0.1545 C   0  0  0  0  0  0  0  0  0  0  0  0
    1.0186   -0.0133   -0.2539 C   0  0  0  0  0  0  0  0  0  0  0  0
    0.3153    1.2181   -0.7337 C   0  0  0  0  0  0  0  0  0  0  0  0
   -0.9674    0.8906   -1.1479 O   0  0  0  0  0  0  0  0  0  0  0  0
   -1.7803    0.4723   -0.1235 C   0  0  0  0  0  0  0  0  0  0  0  0
   -2.2012   -0.9453   -0.0790 C   0  0  0  0  0  0  0  0  0  0  0  0
   -1.1720   -0.3408    0.9205 C   0  0  0  0  0  0  0  0  0  0  0  0
    0.2568   -0.7230    0.7254 C   0  0  0  0  0  0  0  0  0  0  0  0
    0.5314   -1.2719   -0.5677 O   0  0  0  0  0  0  0  0  0  0  0  0
    2.9423    0.4393   -1.1153 H   0  0  0  0  0  0  0  0  0  0  0  0
    2.8127    0.6764    0.7146 H   0  0  0  0  0  0  0  0  0  0  0  0
    2.9502   -0.9602    0.0005 H   0  0  0  0  0  0  0  0  0  0  0  0
    0.8732    1.6952   -1.5346 H   0  0  0  0  0  0  0  0  0  0  0  0
    0.2153    1.9556    0.0945 H   0  0  0  0  0  0  0  0  0  0  0  0
   -2.5714    1.2096    0.1963 H   0  0  0  0  0  0  0  0  0  0  0  0
   -1.7751   -1.6373   -0.8468 H   0  0  0  0  0  0  0  0  0  0  0  0
   -3.1581   -1.2734    0.3519 H   0  0  0  0  0  0  0  0  0  0  0  0
   -1.5664   -0.2523    1.9702 H   0  0  0  0  0  0  0  0  0  0  0  0
    0.7514   -1.1894    1.5829 H   0  0  0  0  0  0  0  0  0  0  0  0
  1  2  1  0
  2  3  1  0
  3  4  1  0
  4  5  1  0
  5  6  1  0
  6  7  1  0
  7  8  1  0
  8  9  1  0
  8  2  1  0
  9  2  1  0
  7  5  1  0
  1 10  1  0
  1 11  1  0
  1 12  1  0
  3 13  1  0
  3 14  1  0
  5 15  1  0
  6 16  1  0
  6 17  1  0
  7 18  1  0
  8 19  1  0
M  END
