
     RDKit          3D

 23 24  0  0  0  0  0  0  0  0999 V2000
    0.3834    1.9614    0.1945 C   0  0  0  0  0  0  0  0  0  0  0  0
    0.0486    0.6453   -0.4112 C   0  0  0  0  0  0  0  0  0  0  0  0
   -1.4324    0.4013   -0.6680 C   0  0  0  0  0  0  0  0  0  0  0  0
   -2.0986   -0.2924    0.4972 C   0  0  0  0  0  0  0  0  0  0  0  0
   -1.1736   -1.0461    1.1821 O   0  0  0  0  0  0  0  0  0  0  0  0
   -0.2889   -1.6442    0.2548 C   0  0  0  0  0  0  0  0  0  0  0  0
    0.7652   -0.6032   -0.0406 C   0  0  0  0  0  0  0  0  0  0  0  0
    1.9480   -0.5955    0.8760 C   0  0  0  0  0  0  0  0  0  0  0  0
    0.9554   -0.0373   -1.3803 C   0  0  0  0  0  0  0  0  0  0  0  0
   -0.3795    2.1651    0.9968 H   0  0  0  0  0  0  0  0  0  0  0  0
    0.3335    2.8150   -0.5332 H   0  0  0  0  0  0  0  0  0  0  0  0
    1.3585    2.0287    0.6796 H   0  0  0  0  0  0  0  0  0  0  0  0
   -1.8801    1.3817   -0.9028 H   0  0  0  0  0  0  0  0  0  0  0  0
   -1.5968   -0.2494   -1.5569 H   0  0  0  0  0  0  0  0  0  0  0  0
   -2.9129   -0.9778    0.1239 H   0  0  0  0  0  0  0  0  0  0  0  0
   -2.6104    0.4445    1.1395 H   0  0  0  0  0  0  0  0  0  0  0  0
   -0.8715   -1.9486   -0.6125 H   0  0  0  0  0  0  0  0  0  0  0  0
    0.1316   -2.5255    0.7936 H   0  0  0  0  0  0  0  0  0  0  0  0
    2.6754   -1.3567    0.4661 H   0  0  0  0  0  0  0  0  0  0  0  0
    2.5086    0.3567    0.8855 H   0  0  0  0  0  0  0  0  0  0  0  0
    1.7409   -0.8835    1.9057 H   0  0  0  0  0  0  0  0  0  0  0  0
    0.5031   -0.5109   -2.2972 H   0  0  0  0  0  0  0  0  0  0  0  0
    1.8924    0.4714   -1.5926 H   0  0  0  0  0  0  0  0  0  0  0  0
  1  2  1  0
  2  3  1  0
  3  4  1  0
  4  5  1  0
  5  6  1  0
  6  7  1  0
  7  8  1  0
  7  9  1  0
  7  2  1  0
  9  2  1  0
  1 10  1  0
  1 11  1  0
  1 12  1  0
  3 13  1  0
  3 14  1  0
  4 15  1  0
  4 16  1  0
  6 17  1  0
  6 18  1  0
  8 19  1  0
  8 20  1  0
  8 21  1  0
  9 22  1  0
  9 23  1  0
M  END
