
     RDKit          3D

 25 26  0  0  0  0  0  0  0  0999 V2000
   -2.1549    0.6432   -0.0580 C   0  0  0  0  0  0  0  0  0  0  0  0
   -0.6993    0.3474   -0.4297 C   0  0  0  0  0  0  0  0  0  0  0  0
    0.1642    1.5447   -0.5838 C   0  0  0  0  0  0  0  0  0  0  0  0
    1.1938    1.6134    0.5294 C   0  0  0  0  0  0  0  0  0  0  0  0
    2.0412    0.3911    0.4361 C   0  0  0  0  0  0  0  0  0  0  0  0
    1.3270   -0.8953    0.4080 C   0  0  0  0  0  0  0  0  0  0  0  0
   -0.1027   -0.8723    0.0505 C   0  0  0  0  0  0  0  0  0  0  0  0
   -0.9859   -1.8938    0.7676 C   0  0  0  0  0  0  0  0  0  0  0  0
   -0.4371   -0.7604   -1.4294 C   0  0  0  0  0  0  0  0  0  0  0  0
   -2.8257    0.5329   -0.9412 H   0  0  0  0  0  0  0  0  0  0  0  0
   -2.2584    1.7085    0.2583 H   0  0  0  0  0  0  0  0  0  0  0  0
   -2.5185   -0.0021    0.7475 H   0  0  0  0  0  0  0  0  0  0  0  0
   -0.4405    2.4706   -0.6251 H   0  0  0  0  0  0  0  0  0  0  0  0
    0.7556    1.5156   -1.5390 H   0  0  0  0  0  0  0  0  0  0  0  0
    0.7268    1.7564    1.5266 H   0  0  0  0  0  0  0  0  0  0  0  0
    1.8581    2.4916    0.2769 H   0  0  0  0  0  0  0  0  0  0  0  0
    2.7541    0.4145    1.3058 H   0  0  0  0  0  0  0  0  0  0  0  0
    2.7089    0.5221   -0.4636 H   0  0  0  0  0  0  0  0  0  0  0  0
    1.4609   -1.4322    1.3933 H   0  0  0  0  0  0  0  0  0  0  0  0
    1.8576   -1.5701   -0.3279 H   0  0  0  0  0  0  0  0  0  0  0  0
   -0.5212   -2.8914    0.5578 H   0  0  0  0  0  0  0  0  0  0  0  0
   -1.0626   -1.7130    1.8371 H   0  0  0  0  0  0  0  0  0  0  0  0
   -1.9884   -1.9117    0.2627 H   0  0  0  0  0  0  0  0  0  0  0  0
    0.4257   -0.6839   -2.1160 H   0  0  0  0  0  0  0  0  0  0  0  0
   -1.2786   -1.3258   -1.8438 H   0  0  0  0  0  0  0  0  0  0  0  0
  1  2  1  0
  2  3  1  0
  3  4  1  0
  4  5  1  0
  5  6  1  0
  6  7  1  0
  7  8  1  0
  7  9  1  0
  7  2  1  0
  9  2  1  0
  1 10  1  0
  1 11  1  0
  1 12  1  0
  3 13  1  0
  3 14  1  0
  4 15  1  0
  4 16  1  0
  5 17  1  0
  5 18  1  0
  6 19  1  0
  6 20  1  0
  8 21  1  0
  8 22  1  0
  8 23  1  0
  9 24  1  0
  9 25  1  0
M  END
