
     RDKit          3D

 20 21  0  0  0  0  0  0  0  0999 V2000
   -2.4034    0.4240    0.0713 C   0  0  0  0  0  0  0  0  0  0  0  0
   -1.0633    0.1531    0.0466 C   0  0  0  0  0  0  0  0  0  0  0  0
   -0.0050    0.5583    1.0263 C   0  0  0  0  0  0  0  0  0  0  0  0
    0.7456   -0.2334   -0.0289 C   0  0  0  0  0  0  0  0  0  0  0  0
    2.0742   -0.5521   -0.0055 C   0  0  0  0  0  0  0  0  0  0  0  0
    2.9272    0.5428    0.0256 O   0  0  0  0  0  0  0  0  0  0  0  0
   -0.4057   -1.2115    0.0684 C   0  0  0  0  0  0  0  0  0  0  0  0
   -0.0628    0.4937   -1.0233 C   0  0  0  0  0  0  0  0  0  0  0  0
   -2.6984    1.3051    0.6660 H   0  0  0  0  0  0  0  0  0  0  0  0
   -2.8382    0.5969   -0.9546 H   0  0  0  0  0  0  0  0  0  0  0  0
   -3.0154   -0.4275    0.4769 H   0  0  0  0  0  0  0  0  0  0  0  0
    0.1866    1.6551    1.0021 H   0  0  0  0  0  0  0  0  0  0  0  0
   -0.0675    0.0960    2.0147 H   0  0  0  0  0  0  0  0  0  0  0  0
    2.4000   -1.1767   -0.8629 H   0  0  0  0  0  0  0  0  0  0  0  0
    2.3493   -1.1673    0.9026 H   0  0  0  0  0  0  0  0  0  0  0  0
    2.9814    0.8309    0.9906 H   0  0  0  0  0  0  0  0  0  0  0  0
   -0.3848   -1.7132    1.0418 H   0  0  0  0  0  0  0  0  0  0  0  0
   -0.5983   -1.8159   -0.8205 H   0  0  0  0  0  0  0  0  0  0  0  0
   -0.2432    0.0413   -2.0014 H   0  0  0  0  0  0  0  0  0  0  0  0
    0.1216    1.6005   -1.0922 H   0  0  0  0  0  0  0  0  0  0  0  0
  1  2  1  0
  2  3  1  0
  3  4  1  0
  4  5  1  0
  5  6  1  0
  4  7  1  0
  4  8  1  0
  7  2  1  0
  8  2  1  0
  1  9  1  0
  1 10  1  0
  1 11  1  0
  3 12  1  0
  3 13  1  0
  5 14  1  0
  5 15  1  0
  6 16  1  0
  7 17  1  0
  7 18  1  0
  8 19  1  0
  8 20  1  0
M  END
