
     RDKit          3D

 23 25  0  0  0  0  0  0  0  0999 V2000
   -2.4513   -0.3808   -0.2049 C   0  0  0  0  0  0  0  0  0  0  0  0
   -1.0205    0.0138    0.1886 C   0  0  0  0  0  0  0  0  0  0  0  0
   -0.1889   -1.1948    0.5869 C   0  0  0  0  0  0  0  0  0  0  0  0
    0.9872   -1.1693   -0.2876 C   0  0  0  0  0  0  0  0  0  0  0  0
    2.3793   -1.0623   -0.0598 C   0  0  0  0  0  0  0  0  0  0  0  0
    1.6902    0.1590    0.1586 C   0  0  0  0  0  0  0  0  0  0  0  0
    1.0746    1.1450   -0.7289 C   0  0  0  0  0  0  0  0  0  0  0  0
   -0.4193    1.0517   -0.5851 C   0  0  0  0  0  0  0  0  0  0  0  0
   -0.8922    1.3060    0.8521 C   0  0  0  0  0  0  0  0  0  0  0  0
   -3.1978    0.1837    0.4080 H   0  0  0  0  0  0  0  0  0  0  0  0
   -2.6541   -1.4412   -0.0675 H   0  0  0  0  0  0  0  0  0  0  0  0
   -2.6322   -0.1530   -1.2878 H   0  0  0  0  0  0  0  0  0  0  0  0
   -0.7410   -2.1355    0.5549 H   0  0  0  0  0  0  0  0  0  0  0  0
    0.1350   -1.0181    1.6535 H   0  0  0  0  0  0  0  0  0  0  0  0
    0.6626   -1.2221   -1.3722 H   0  0  0  0  0  0  0  0  0  0  0  0
    3.0754   -1.2583   -0.9296 H   0  0  0  0  0  0  0  0  0  0  0  0
    2.8116   -1.5959    0.8378 H   0  0  0  0  0  0  0  0  0  0  0  0
    1.5509    0.4657    1.2392 H   0  0  0  0  0  0  0  0  0  0  0  0
    1.3744    2.1797   -0.3897 H   0  0  0  0  0  0  0  0  0  0  0  0
    1.4001    1.0858   -1.7875 H   0  0  0  0  0  0  0  0  0  0  0  0
   -0.9773    1.5804   -1.3739 H   0  0  0  0  0  0  0  0  0  0  0  0
   -0.1559    1.5081    1.6319 H   0  0  0  0  0  0  0  0  0  0  0  0
   -1.8108    1.9522    0.9630 H   0  0  0  0  0  0  0  0  0  0  0  0
  1  2  1  0
  2  3  1  0
  3  4  1  0
  4  5  1  0
  5  6  1  0
  6  7  1  0
  7  8  1  0
  8  9  1  0
  8  2  1  0
  9  2  1  0
  6  4  1  0
  1 10  1  0
  1 11  1  0
  1 12  1  0
  3 13  1  0
  3 14  1  0
  4 15  1  0
  5 16  1  0
  5 17  1  0
  6 18  1  0
  7 19  1  0
  7 20  1  0
  8 21  1  0
  9 22  1  0
  9 23  1  0
M  END
