
     RDKit          3D

 21 22  0  0  0  0  0  0  0  0999 V2000
    1.5775    0.5719   -0.7402 C   0  0  0  0  0  0  0  0  0  0  0  0
    0.7103    0.1228    0.3779 C   0  0  0  0  0  0  0  0  0  0  0  0
    0.8650   -1.3561    0.6769 C   0  0  0  0  0  0  0  0  0  0  0  0
   -0.5169   -1.8764    0.2787 C   0  0  0  0  0  0  0  0  0  0  0  0
   -1.3268   -0.8413    0.7888 O   0  0  0  0  0  0  0  0  0  0  0  0
   -0.7606    0.2774    0.2295 C   0  0  0  0  0  0  0  0  0  0  0  0
   -1.2987    0.6612   -1.0989 C   0  0  0  0  0  0  0  0  0  0  0  0
   -0.5086    1.4466    1.1110 C   0  0  0  0  0  0  0  0  0  0  0  0
    0.6860    0.8884    1.5206 O   0  0  0  0  0  0  0  0  0  0  0  0
    1.8040    1.6646   -0.6929 H   0  0  0  0  0  0  0  0  0  0  0  0
    2.5168   -0.0428   -0.7205 H   0  0  0  0  0  0  0  0  0  0  0  0
    1.0230    0.4154   -1.6998 H   0  0  0  0  0  0  0  0  0  0  0  0
    1.6684   -1.8119    0.0896 H   0  0  0  0  0  0  0  0  0  0  0  0
    0.9864   -1.5722    1.7418 H   0  0  0  0  0  0  0  0  0  0  0  0
   -0.7662   -2.7978    0.8146 H   0  0  0  0  0  0  0  0  0  0  0  0
   -0.6071   -1.9362   -0.8169 H   0  0  0  0  0  0  0  0  0  0  0  0
   -1.3521   -0.2513   -1.7331 H   0  0  0  0  0  0  0  0  0  0  0  0
   -2.3615    1.0067   -0.9607 H   0  0  0  0  0  0  0  0  0  0  0  0
   -0.7456    1.4856   -1.5554 H   0  0  0  0  0  0  0  0  0  0  0  0
   -1.2855    1.5787    1.8619 H   0  0  0  0  0  0  0  0  0  0  0  0
   -0.3078    2.3666    0.5272 H   0  0  0  0  0  0  0  0  0  0  0  0
  1  2  1  0
  2  3  1  0
  3  4  1  0
  4  5  1  0
  5  6  1  0
  6  7  1  0
  6  8  1  0
  8  9  1  0
  6  2  1  0
  9  2  1  0
  1 10  1  0
  1 11  1  0
  1 12  1  0
  3 13  1  0
  3 14  1  0
  4 15  1  0
  4 16  1  0
  7 17  1  0
  7 18  1  0
  7 19  1  0
  8 20  1  0
  8 21  1  0
M  END
