
     RDKit          3D

 17 18  0  0  0  0  0  0  0  0999 V2000
   -2.1354   -0.1955    0.1142 C   0  0  0  0  0  0  0  0  0  0  0  0
   -0.7721   -0.1213    0.1260 C   0  0  0  0  0  0  0  0  0  0  0  0
    0.1952   -0.7688   -0.8336 C   0  0  0  0  0  0  0  0  0  0  0  0
    1.0609    0.0622    0.0827 C   0  0  0  0  0  0  0  0  0  0  0  0
    2.3999    0.1698    0.0705 C   0  0  0  0  0  0  0  0  0  0  0  0
    3.0256    1.2097    0.3340 O   0  0  0  0  0  0  0  0  0  0  0  0
    0.0499    1.1431   -0.1140 C   0  0  0  0  0  0  0  0  0  0  0  0
    0.1828   -0.4269    1.1709 C   0  0  0  0  0  0  0  0  0  0  0  0
    0.3298   -0.8328    2.2863 O   0  0  0  0  0  0  0  0  0  0  0  0
   -2.5870   -0.8553    0.9117 H   0  0  0  0  0  0  0  0  0  0  0  0
   -2.6725    0.7885    0.2585 H   0  0  0  0  0  0  0  0  0  0  0  0
   -2.5865   -0.5974   -0.8405 H   0  0  0  0  0  0  0  0  0  0  0  0
    0.3777   -1.8501   -0.6570 H   0  0  0  0  0  0  0  0  0  0  0  0
    0.1298   -0.4490   -1.8717 H   0  0  0  0  0  0  0  0  0  0  0  0
    3.0721   -0.6709   -0.1790 H   0  0  0  0  0  0  0  0  0  0  0  0
   -0.0481    1.5671   -1.1271 H   0  0  0  0  0  0  0  0  0  0  0  0
   -0.0220    1.8275    0.7330 H   0  0  0  0  0  0  0  0  0  0  0  0
  1  2  1  0
  2  3  1  0
  3  4  1  0
  4  5  1  0
  5  6  2  0
  4  7  1  0
  4  8  1  0
  8  9  2  0
  7  2  1  0
  8  2  1  0
  1 10  1  0
  1 11  1  0
  1 12  1  0
  3 13  1  0
  3 14  1  0
  5 15  1  0
  7 16  1  0
  7 17  1  0
M  END
