
     RDKit          3D

 21 24  0  0  0  0  0  0  0  0999 V2000
    1.7407    1.1755   -0.5707 C   0  0  0  0  0  0  0  0  0  0  0  0
    0.6912    0.1588   -0.3747 C   0  0  0  0  0  0  0  0  0  0  0  0
    0.4274   -0.9318   -1.3725 C   0  0  0  0  0  0  0  0  0  0  0  0
   -0.5879   -1.7991   -0.6208 C   0  0  0  0  0  0  0  0  0  0  0  0
   -0.2228   -1.6626    0.7877 C   0  0  0  0  0  0  0  0  0  0  0  0
   -1.3904   -0.8591    0.1449 C   0  0  0  0  0  0  0  0  0  0  0  0
   -0.5823    0.3685    0.2987 C   0  0  0  0  0  0  0  0  0  0  0  0
   -1.1177    1.6625    0.7524 C   0  0  0  0  0  0  0  0  0  0  0  0
    0.4828   -0.3853    0.9690 C   0  0  0  0  0  0  0  0  0  0  0  0
    1.8389    1.5680   -1.5935 H   0  0  0  0  0  0  0  0  0  0  0  0
    1.4976    2.0586    0.0879 H   0  0  0  0  0  0  0  0  0  0  0  0
    2.7655    0.8606   -0.2226 H   0  0  0  0  0  0  0  0  0  0  0  0
   -0.1384   -0.4940   -2.2233 H   0  0  0  0  0  0  0  0  0  0  0  0
    1.3138   -1.4959   -1.6746 H   0  0  0  0  0  0  0  0  0  0  0  0
   -0.9719   -2.7006   -1.0825 H   0  0  0  0  0  0  0  0  0  0  0  0
   -0.4634   -2.3620    1.5800 H   0  0  0  0  0  0  0  0  0  0  0  0
   -2.3388   -1.0420    0.6195 H   0  0  0  0  0  0  0  0  0  0  0  0
   -1.5547    2.1954   -0.1375 H   0  0  0  0  0  0  0  0  0  0  0  0
   -0.4174    2.2976    1.3168 H   0  0  0  0  0  0  0  0  0  0  0  0
   -1.9766    1.4662    1.4495 H   0  0  0  0  0  0  0  0  0  0  0  0
    1.0043   -0.0791    1.8663 H   0  0  0  0  0  0  0  0  0  0  0  0
  1  2  1  0
  2  3  1  0
  3  4  1  0
  4  5  1  0
  5  6  1  0
  6  7  1  0
  7  8  1  0
  7  9  1  0
  7  2  1  0
  9  2  1  0
  6  4  1  0
  9  5  1  0
  1 10  1  0
  1 11  1  0
  1 12  1  0
  3 13  1  0
  3 14  1  0
  4 15  1  0
  5 16  1  0
  6 17  1  0
  8 18  1  0
  8 19  1  0
  8 20  1  0
  9 21  1  0
M  END
