
     RDKit          3D

 21 24  0  0  0  0  0  0  0  0999 V2000
    2.3164   -0.4709   -0.0494 C   0  0  0  0  0  0  0  0  0  0  0  0
    1.0117    0.0988   -0.1951 C   0  0  0  0  0  0  0  0  0  0  0  0
   -0.1390   -0.5729   -0.9646 C   0  0  0  0  0  0  0  0  0  0  0  0
   -1.0290   -1.3759   -0.0551 C   0  0  0  0  0  0  0  0  0  0  0  0
   -1.6463   -0.4022    0.9216 C   0  0  0  0  0  0  0  0  0  0  0  0
   -1.1456    0.9729    0.5496 C   0  0  0  0  0  0  0  0  0  0  0  0
   -0.7930    0.7883   -0.9057 C   0  0  0  0  0  0  0  0  0  0  0  0
    0.5347    1.3649   -0.6214 C   0  0  0  0  0  0  0  0  0  0  0  0
    0.3464    1.0356    0.7950 C   0  0  0  0  0  0  0  0  0  0  0  0
    2.6737   -0.3876    1.0200 H   0  0  0  0  0  0  0  0  0  0  0  0
    3.1430    0.0177   -0.6413 H   0  0  0  0  0  0  0  0  0  0  0  0
    2.3719   -1.5824   -0.2456 H   0  0  0  0  0  0  0  0  0  0  0  0
    0.1082   -0.9745   -1.9298 H   0  0  0  0  0  0  0  0  0  0  0  0
   -1.8221   -1.8290   -0.7060 H   0  0  0  0  0  0  0  0  0  0  0  0
   -0.5158   -2.2061    0.4304 H   0  0  0  0  0  0  0  0  0  0  0  0
   -2.7426   -0.4296    0.9379 H   0  0  0  0  0  0  0  0  0  0  0  0
   -1.3081   -0.7167    1.9391 H   0  0  0  0  0  0  0  0  0  0  0  0
   -1.7398    1.8236    0.8264 H   0  0  0  0  0  0  0  0  0  0  0  0
   -1.4279    1.1201   -1.6694 H   0  0  0  0  0  0  0  0  0  0  0  0
    0.9826    2.2204   -1.0420 H   0  0  0  0  0  0  0  0  0  0  0  0
    0.8208    1.5053    1.6056 H   0  0  0  0  0  0  0  0  0  0  0  0
  1  2  1  0
  2  3  1  0
  3  4  1  0
  4  5  1  0
  5  6  1  0
  6  7  1  0
  7  8  1  0
  8  9  1  0
  8  2  1  0
  9  2  1  0
  7  3  1  0
  9  6  1  0
  1 10  1  0
  1 11  1  0
  1 12  1  0
  3 13  1  0
  4 14  1  0
  4 15  1  0
  5 16  1  0
  5 17  1  0
  6 18  1  0
  7 19  1  0
  8 20  1  0
  9 21  1  0
M  END
