
     RDKit          3D

 21 23  0  0  0  0  0  0  0  0999 V2000
    2.2481    0.1147   -0.8995 C   0  0  0  0  0  0  0  0  0  0  0  0
    1.4594   -0.2609    0.3010 C   0  0  0  0  0  0  0  0  0  0  0  0
    0.9778    0.7122    1.3005 C   0  0  0  0  0  0  0  0  0  0  0  0
    0.0222   -0.0702    0.4480 C   0  0  0  0  0  0  0  0  0  0  0  0
   -0.8209    0.6539   -0.5490 C   0  0  0  0  0  0  0  0  0  0  0  0
   -2.3010    0.8052   -0.3118 C   0  0  0  0  0  0  0  0  0  0  0  0
   -1.7914   -0.1686   -1.3326 C   0  0  0  0  0  0  0  0  0  0  0  0
   -0.0334   -1.5449    0.6300 C   0  0  0  0  0  0  0  0  0  0  0  0
    1.3663   -1.5934    0.6565 O   0  0  0  0  0  0  0  0  0  0  0  0
    3.1811   -0.5203   -0.9013 H   0  0  0  0  0  0  0  0  0  0  0  0
    2.6039    1.1562   -0.8991 H   0  0  0  0  0  0  0  0  0  0  0  0
    1.7167   -0.0524   -1.8645 H   0  0  0  0  0  0  0  0  0  0  0  0
    1.0097    0.4097    2.3598 H   0  0  0  0  0  0  0  0  0  0  0  0
    0.9668    1.7908    1.1280 H   0  0  0  0  0  0  0  0  0  0  0  0
   -0.3591    1.5201   -1.0666 H   0  0  0  0  0  0  0  0  0  0  0  0
   -2.8345    1.7011   -0.7078 H   0  0  0  0  0  0  0  0  0  0  0  0
   -2.7023    0.4408    0.6519 H   0  0  0  0  0  0  0  0  0  0  0  0
   -1.9258    0.1324   -2.4132 H   0  0  0  0  0  0  0  0  0  0  0  0
   -1.9665   -1.2369   -1.1066 H   0  0  0  0  0  0  0  0  0  0  0  0
   -0.3973   -2.1642   -0.2039 H   0  0  0  0  0  0  0  0  0  0  0  0
   -0.4200   -1.8253    1.6282 H   0  0  0  0  0  0  0  0  0  0  0  0
  1  2  1  0
  2  3  1  0
  3  4  1  0
  4  5  1  0
  5  6  1  0
  6  7  1  0
  4  8  1  0
  8  9  1  0
  4  2  1  0
  7  5  1  0
  9  2  1  0
  1 10  1  0
  1 11  1  0
  1 12  1  0
  3 13  1  0
  3 14  1  0
  5 15  1  0
  6 16  1  0
  6 17  1  0
  7 18  1  0
  7 19  1  0
  8 20  1  0
  8 21  1  0
M  END
