
     RDKit          3D

 21 23  0  0  0  0  0  0  0  0999 V2000
   -2.5605    0.0806   -0.3065 C   0  0  0  0  0  0  0  0  0  0  0  0
   -1.2430   -0.0892    0.4111 C   0  0  0  0  0  0  0  0  0  0  0  0
   -0.8420   -1.4153    0.8859 C   0  0  0  0  0  0  0  0  0  0  0  0
   -0.1529   -0.9071   -0.3252 C   0  0  0  0  0  0  0  0  0  0  0  0
    0.7194    0.2866   -0.2329 C   0  0  0  0  0  0  0  0  0  0  0  0
    1.6717    0.7300   -1.2155 C   0  0  0  0  0  0  0  0  0  0  0  0
    2.1101    0.3028    0.1656 C   0  0  0  0  0  0  0  0  0  0  0  0
    2.8959   -0.8207    0.3225 O   0  0  0  0  0  0  0  0  0  0  0  0
   -0.3034    1.0869    0.4625 C   0  0  0  0  0  0  0  0  0  0  0  0
   -2.4295    0.4887   -1.3402 H   0  0  0  0  0  0  0  0  0  0  0  0
   -3.1589    0.7899    0.2903 H   0  0  0  0  0  0  0  0  0  0  0  0
   -3.1002   -0.8822   -0.2953 H   0  0  0  0  0  0  0  0  0  0  0  0
   -1.5354   -2.2399    0.7358 H   0  0  0  0  0  0  0  0  0  0  0  0
   -0.2139   -1.4410    1.8076 H   0  0  0  0  0  0  0  0  0  0  0  0
   -0.3770   -1.2794   -1.3233 H   0  0  0  0  0  0  0  0  0  0  0  0
    1.9205    0.0111   -2.0496 H   0  0  0  0  0  0  0  0  0  0  0  0
    1.7359    1.7725   -1.5290 H   0  0  0  0  0  0  0  0  0  0  0  0
    2.4900    1.1779    0.7715 H   0  0  0  0  0  0  0  0  0  0  0  0
    3.1253   -0.8827    1.2852 H   0  0  0  0  0  0  0  0  0  0  0  0
   -0.0081    1.2805    1.5252 H   0  0  0  0  0  0  0  0  0  0  0  0
   -0.7440    1.9499   -0.0458 H   0  0  0  0  0  0  0  0  0  0  0  0
  1  2  1  0
  2  3  1  0
  3  4  1  0
  4  5  1  0
  5  6  1  0
  6  7  1  0
  7  8  1  0
  5  9  1  0
  4  2  1  0
  7  5  1  0
  9  2  1  0
  1 10  1  0
  1 11  1  0
  1 12  1  0
  3 13  1  0
  3 14  1  0
  4 15  1  0
  6 16  1  0
  6 17  1  0
  7 18  1  0
  8 19  1  0
  9 20  1  0
  9 21  1  0
M  END
