
     RDKit          3D

 19 21  0  0  0  0  0  0  0  0999 V2000
   -0.1330    1.2341    1.1067 C   0  0  0  0  0  0  0  0  0  0  0  0
   -0.0109    0.4559   -0.1259 C   0  0  0  0  0  0  0  0  0  0  0  0
    1.3358    0.5241   -0.7576 C   0  0  0  0  0  0  0  0  0  0  0  0
    1.6923   -0.7430   -0.0002 C   0  0  0  0  0  0  0  0  0  0  0  0
    0.2466   -1.0423    0.0316 C   0  0  0  0  0  0  0  0  0  0  0  0
   -0.9632   -1.5730    0.0863 C   0  0  0  0  0  0  0  0  0  0  0  0
   -1.9446   -0.5287   -0.0203 C   0  0  0  0  0  0  0  0  0  0  0  0
   -2.4476    0.2257   -0.9552 O   0  0  0  0  0  0  0  0  0  0  0  0
   -1.1536    0.3155   -1.0664 C   0  0  0  0  0  0  0  0  0  0  0  0
   -1.0923    1.7372    1.2886 H   0  0  0  0  0  0  0  0  0  0  0  0
    0.6386    2.0579    1.0763 H   0  0  0  0  0  0  0  0  0  0  0  0
    0.1016    0.6188    1.9952 H   0  0  0  0  0  0  0  0  0  0  0  0
    1.9768    1.3817   -0.4927 H   0  0  0  0  0  0  0  0  0  0  0  0
    1.3877    0.3154   -1.8499 H   0  0  0  0  0  0  0  0  0  0  0  0
    2.3351   -1.4481   -0.5460 H   0  0  0  0  0  0  0  0  0  0  0  0
    2.1172   -0.5711    1.0130 H   0  0  0  0  0  0  0  0  0  0  0  0
   -1.2063   -2.6521    0.1968 H   0  0  0  0  0  0  0  0  0  0  0  0
   -2.0752   -0.0278    0.9954 H   0  0  0  0  0  0  0  0  0  0  0  0
   -0.8051   -0.2804   -1.9756 H   0  0  0  0  0  0  0  0  0  0  0  0
  1  2  1  0
  2  3  1  0
  3  4  1  0
  4  5  1  0
  5  6  2  0
  6  7  1  0
  7  8  1  0
  8  9  1  0
  5  2  1  0
  9  7  1  0
  9  2  1  0
  1 10  1  0
  1 11  1  0
  1 12  1  0
  3 13  1  0
  3 14  1  0
  4 15  1  0
  4 16  1  0
  6 17  1  0
  7 18  1  0
  9 19  1  0
M  END
