
     RDKit          3D

 21 22  0  0  0  0  0  0  0  0999 V2000
   -1.4699    1.4870    0.0852 C   0  0  0  0  0  0  0  0  0  0  0  0
   -0.6225    0.3229   -0.0842 C   0  0  0  0  0  0  0  0  0  0  0  0
   -1.2974   -0.9529   -0.5383 C   0  0  0  0  0  0  0  0  0  0  0  0
   -0.2984   -1.9068   -0.3558 O   0  0  0  0  0  0  0  0  0  0  0  0
    0.6615   -1.4078    0.4783 C   0  0  0  0  0  0  0  0  0  0  0  0
   -0.0238   -0.2403    1.2191 C   0  0  0  0  0  0  0  0  0  0  0  0
    1.6152   -0.5680   -0.3693 C   0  0  0  0  0  0  0  0  0  0  0  0
    2.4615    0.0812    0.5007 O   0  0  0  0  0  0  0  0  0  0  0  0
    0.6255    0.4808   -0.9004 C   0  0  0  0  0  0  0  0  0  0  0  0
   -2.5360    1.2722   -0.1542 H   0  0  0  0  0  0  0  0  0  0  0  0
   -1.4306    1.9427    1.1137 H   0  0  0  0  0  0  0  0  0  0  0  0
   -1.1169    2.3225   -0.5888 H   0  0  0  0  0  0  0  0  0  0  0  0
   -2.0729   -1.1820    0.2506 H   0  0  0  0  0  0  0  0  0  0  0  0
   -1.7013   -0.9121   -1.5430 H   0  0  0  0  0  0  0  0  0  0  0  0
    1.1510   -2.0929    1.1400 H   0  0  0  0  0  0  0  0  0  0  0  0
    0.7154    0.4335    1.6487 H   0  0  0  0  0  0  0  0  0  0  0  0
   -0.8057   -0.5926    1.8877 H   0  0  0  0  0  0  0  0  0  0  0  0
    2.0922   -1.1296   -1.1628 H   0  0  0  0  0  0  0  0  0  0  0  0
    2.6370    1.0067    0.1820 H   0  0  0  0  0  0  0  0  0  0  0  0
    1.0316    1.4879   -0.8679 H   0  0  0  0  0  0  0  0  0  0  0  0
    0.3846    0.1476   -1.9414 H   0  0  0  0  0  0  0  0  0  0  0  0
  1  2  1  0
  2  3  1  0
  3  4  1  0
  4  5  1  0
  5  6  1  0
  5  7  1  0
  7  8  1  0
  7  9  1  0
  6  2  1  0
  9  2  1  0
  1 10  1  0
  1 11  1  0
  1 12  1  0
  3 13  1  0
  3 14  1  0
  5 15  1  0
  6 16  1  0
  6 17  1  0
  7 18  1  0
  8 19  1  0
  9 20  1  0
  9 21  1  0
M  END
