
     RDKit          3D

 19 21  0  0  0  0  0  0  0  0999 V2000
    1.0411    1.7305    0.2438 C   0  0  0  0  0  0  0  0  0  0  0  0
    0.5430    0.3631   -0.1219 C   0  0  0  0  0  0  0  0  0  0  0  0
    1.3317   -0.8129    0.2921 C   0  0  0  0  0  0  0  0  0  0  0  0
    1.5264   -1.7915   -0.6582 O   0  0  0  0  0  0  0  0  0  0  0  0
    0.0134   -0.5686    0.9214 C   0  0  0  0  0  0  0  0  0  0  0  0
   -1.2535   -0.6965    0.1319 C   0  0  0  0  0  0  0  0  0  0  0  0
   -1.7984   -1.9137   -0.1680 O   0  0  0  0  0  0  0  0  0  0  0  0
   -1.9858    0.5839   -0.1105 C   0  0  0  0  0  0  0  0  0  0  0  0
   -0.7398    0.2384   -0.8661 C   0  0  0  0  0  0  0  0  0  0  0  0
    0.1964    2.3181    0.6081 H   0  0  0  0  0  0  0  0  0  0  0  0
    1.8640    1.6767    0.9834 H   0  0  0  0  0  0  0  0  0  0  0  0
    1.5063    2.1608   -0.6911 H   0  0  0  0  0  0  0  0  0  0  0  0
    2.2078   -0.5875    0.9472 H   0  0  0  0  0  0  0  0  0  0  0  0
    2.5036   -1.9447   -0.7736 H   0  0  0  0  0  0  0  0  0  0  0  0
   -0.1147   -0.2718    1.9597 H   0  0  0  0  0  0  0  0  0  0  0  0
   -1.2541   -2.4544   -0.8154 H   0  0  0  0  0  0  0  0  0  0  0  0
   -2.9804    0.4693   -0.5578 H   0  0  0  0  0  0  0  0  0  0  0  0
   -1.8316    1.4256    0.6257 H   0  0  0  0  0  0  0  0  0  0  0  0
   -0.7754    0.0753   -1.9503 H   0  0  0  0  0  0  0  0  0  0  0  0
  1  2  1  0
  2  3  1  0
  3  4  1  0
  3  5  1  0
  5  6  1  0
  6  7  1  0
  6  8  1  0
  8  9  1  0
  5  2  1  0
  9  6  1  0
  9  2  1  0
  1 10  1  0
  1 11  1  0
  1 12  1  0
  3 13  1  0
  4 14  1  0
  5 15  1  0
  7 16  1  0
  8 17  1  0
  8 18  1  0
  9 19  1  0
M  END
