
     RDKit          3D

 19 21  0  0  0  0  0  0  0  0999 V2000
   -2.3077    0.0204   -0.1788 C   0  0  0  0  0  0  0  0  0  0  0  0
   -0.8905   -0.3025    0.1574 C   0  0  0  0  0  0  0  0  0  0  0  0
   -0.5904   -1.6317    0.3192 O   0  0  0  0  0  0  0  0  0  0  0  0
   -0.0285   -1.0685   -0.8308 C   0  0  0  0  0  0  0  0  0  0  0  0
    1.3066   -0.3761   -0.7254 C   0  0  0  0  0  0  0  0  0  0  0  0
    1.8172   -0.6094    0.6475 C   0  0  0  0  0  0  0  0  0  0  0  0
    1.0676    0.0823    1.4934 C   0  0  0  0  0  0  0  0  0  0  0  0
    0.0128    0.7721    0.7013 C   0  0  0  0  0  0  0  0  0  0  0  0
    0.8299    1.0823   -0.5679 C   0  0  0  0  0  0  0  0  0  0  0  0
   -2.4437    1.1193   -0.3826 H   0  0  0  0  0  0  0  0  0  0  0  0
   -2.9204   -0.1726    0.7440 H   0  0  0  0  0  0  0  0  0  0  0  0
   -2.7256   -0.6077   -0.9651 H   0  0  0  0  0  0  0  0  0  0  0  0
   -0.4309   -1.3960   -1.7843 H   0  0  0  0  0  0  0  0  0  0  0  0
    1.9906   -0.5251   -1.5256 H   0  0  0  0  0  0  0  0  0  0  0  0
    2.6486   -1.2265    0.9387 H   0  0  0  0  0  0  0  0  0  0  0  0
    1.2177    0.1206    2.5606 H   0  0  0  0  0  0  0  0  0  0  0  0
   -0.4460    1.6184    1.1475 H   0  0  0  0  0  0  0  0  0  0  0  0
    0.1971    1.3959   -1.3947 H   0  0  0  0  0  0  0  0  0  0  0  0
    1.6957    1.7047   -0.3545 H   0  0  0  0  0  0  0  0  0  0  0  0
  1  2  1  0
  2  3  1  0
  3  4  1  0
  4  5  1  0
  5  6  1  0
  6  7  2  0
  7  8  1  0
  8  9  1  0
  4  2  1  0
  9  5  1  0
  8  2  1  0
  1 10  1  0
  1 11  1  0
  1 12  1  0
  4 13  1  0
  5 14  1  0
  6 15  1  0
  7 16  1  0
  8 17  1  0
  9 18  1  0
  9 19  1  0
M  END
