
     RDKit          3D

 18 20  0  0  0  0  0  0  0  0999 V2000
   -0.9387    1.3678    0.7813 C   0  0  0  0  0  0  0  0  0  0  0  0
   -0.4894    0.2016    0.2253 C   0  0  0  0  0  0  0  0  0  0  0  0
   -1.1116   -1.1489    0.2187 C   0  0  0  0  0  0  0  0  0  0  0  0
    0.1680   -1.3441   -0.5612 C   0  0  0  0  0  0  0  0  0  0  0  0
    0.8200   -0.4943    0.4793 C   0  0  0  0  0  0  0  0  0  0  0  0
    1.7923    0.3207   -0.2850 C   0  0  0  0  0  0  0  0  0  0  0  0
    1.0637    0.5947   -1.4704 O   0  0  0  0  0  0  0  0  0  0  0  0
   -0.1379   -0.0368   -1.2267 C   0  0  0  0  0  0  0  0  0  0  0  0
   -1.6748    1.2447    1.6026 H   0  0  0  0  0  0  0  0  0  0  0  0
   -0.1081    2.0053    1.2078 H   0  0  0  0  0  0  0  0  0  0  0  0
   -1.4465    2.0652    0.0514 H   0  0  0  0  0  0  0  0  0  0  0  0
   -2.0371   -1.1860   -0.3818 H   0  0  0  0  0  0  0  0  0  0  0  0
   -1.1951   -1.6885    1.1633 H   0  0  0  0  0  0  0  0  0  0  0  0
    0.4960   -2.1899   -0.9774 H   0  0  0  0  0  0  0  0  0  0  0  0
    1.0376   -0.8800    1.4420 H   0  0  0  0  0  0  0  0  0  0  0  0
    2.7482   -0.1715   -0.5177 H   0  0  0  0  0  0  0  0  0  0  0  0
    1.9367    1.3269    0.2020 H   0  0  0  0  0  0  0  0  0  0  0  0
   -0.9231    0.0130   -1.9537 H   0  0  0  0  0  0  0  0  0  0  0  0
  1  2  1  0
  2  3  1  0
  3  4  1  0
  4  5  1  0
  5  6  1  0
  6  7  1  0
  7  8  1  0
  5  2  1  0
  8  2  1  0
  8  4  1  0
  1  9  1  0
  1 10  1  0
  1 11  1  0
  3 12  1  0
  3 13  1  0
  4 14  1  0
  5 15  1  0
  6 16  1  0
  6 17  1  0
  8 18  1  0
M  END
