
     RDKit          3D

 19 20  0  0  0  0  0  0  0  0999 V2000
    1.9958   -0.9157   -0.1766 C   0  0  0  0  0  0  0  0  0  0  0  0
    0.6244   -0.2798   -0.2746 C   0  0  0  0  0  0  0  0  0  0  0  0
    0.5305    0.9309   -1.1210 C   0  0  0  0  0  0  0  0  0  0  0  0
    0.8076    1.7324   -0.0188 O   0  0  0  0  0  0  0  0  0  0  0  0
    0.4222    0.7141    0.8175 C   0  0  0  0  0  0  0  0  0  0  0  0
   -0.9805    0.7563    1.3090 C   0  0  0  0  0  0  0  0  0  0  0  0
   -1.9689    0.0671    0.7574 C   0  0  0  0  0  0  0  0  0  0  0  0
   -1.6316   -0.7853   -0.4124 C   0  0  0  0  0  0  0  0  0  0  0  0
   -0.3481   -1.2368   -0.3760 O   0  0  0  0  0  0  0  0  0  0  0  0
    2.3068   -1.2810   -1.1537 H   0  0  0  0  0  0  0  0  0  0  0  0
    1.9384   -1.7384    0.5625 H   0  0  0  0  0  0  0  0  0  0  0  0
    2.7303   -0.1863    0.2362 H   0  0  0  0  0  0  0  0  0  0  0  0
    1.3278    0.9858   -1.8995 H   0  0  0  0  0  0  0  0  0  0  0  0
   -0.4824    1.1361   -1.4809 H   0  0  0  0  0  0  0  0  0  0  0  0
    1.1547    0.5929    1.6654 H   0  0  0  0  0  0  0  0  0  0  0  0
   -1.2003    1.3821    2.1590 H   0  0  0  0  0  0  0  0  0  0  0  0
   -3.0024    0.1202    1.1471 H   0  0  0  0  0  0  0  0  0  0  0  0
   -2.2979   -1.6981   -0.3651 H   0  0  0  0  0  0  0  0  0  0  0  0
   -1.9266   -0.2964   -1.3755 H   0  0  0  0  0  0  0  0  0  0  0  0
  1  2  1  0
  2  3  1  0
  3  4  1  0
  4  5  1  0
  5  6  1  0
  6  7  2  0
  7  8  1  0
  8  9  1  0
  5  2  1  0
  9  2  1  0
  1 10  1  0
  1 11  1  0
  1 12  1  0
  3 13  1  0
  3 14  1  0
  5 15  1  0
  6 16  1  0
  7 17  1  0
  8 18  1  0
  8 19  1  0
M  END
