
     RDKit          3D

 21 22  0  0  0  0  0  0  0  0999 V2000
   -0.1040    2.2423   -0.3926 C   0  0  0  0  0  0  0  0  0  0  0  0
    0.0021    0.7548   -0.1778 C   0  0  0  0  0  0  0  0  0  0  0  0
   -1.2061    0.2384    0.5485 C   0  0  0  0  0  0  0  0  0  0  0  0
   -1.6677   -1.0727    0.0579 C   0  0  0  0  0  0  0  0  0  0  0  0
   -0.7693   -1.8592   -0.5359 C   0  0  0  0  0  0  0  0  0  0  0  0
    0.5265   -1.2258   -0.9034 C   0  0  0  0  0  0  0  0  0  0  0  0
    1.3239   -1.0749    0.3715 C   0  0  0  0  0  0  0  0  0  0  0  0
    1.2884    0.4248    0.5931 C   0  0  0  0  0  0  0  0  0  0  0  0
    0.2354    0.0594   -1.3522 O   0  0  0  0  0  0  0  0  0  0  0  0
    0.5270    2.7778    0.3388 H   0  0  0  0  0  0  0  0  0  0  0  0
    0.1704    2.5221   -1.4278 H   0  0  0  0  0  0  0  0  0  0  0  0
   -1.1671    2.5426   -0.1903 H   0  0  0  0  0  0  0  0  0  0  0  0
   -1.0504    0.1853    1.6472 H   0  0  0  0  0  0  0  0  0  0  0  0
   -2.0389    0.9596    0.3950 H   0  0  0  0  0  0  0  0  0  0  0  0
   -2.6952   -1.3996    0.1682 H   0  0  0  0  0  0  0  0  0  0  0  0
   -0.9446   -2.8890   -0.7475 H   0  0  0  0  0  0  0  0  0  0  0  0
    1.0915   -1.8107   -1.6481 H   0  0  0  0  0  0  0  0  0  0  0  0
    2.3380   -1.4786    0.2886 H   0  0  0  0  0  0  0  0  0  0  0  0
    0.8097   -1.5285    1.2522 H   0  0  0  0  0  0  0  0  0  0  0  0
    2.1201    0.9334    0.0646 H   0  0  0  0  0  0  0  0  0  0  0  0
    1.2103    0.6984    1.6501 H   0  0  0  0  0  0  0  0  0  0  0  0
  1  2  1  0
  2  3  1  0
  3  4  1  0
  4  5  2  0
  5  6  1  0
  6  7  1  0
  7  8  1  0
  6  9  1  0
  8  2  1  0
  9  2  1  0
  1 10  1  0
  1 11  1  0
  1 12  1  0
  3 13  1  0
  3 14  1  0
  4 15  1  0
  5 16  1  0
  6 17  1  0
  7 18  1  0
  7 19  1  0
  8 20  1  0
  8 21  1  0
M  END
