
     RDKit          3D

 21 23  0  0  0  0  0  0  0  0999 V2000
   -2.6047    0.0178   -0.4341 C   0  0  0  0  0  0  0  0  0  0  0  0
   -1.1182    0.0459   -0.1910 C   0  0  0  0  0  0  0  0  0  0  0  0
   -0.6583   -0.0205    1.2380 C   0  0  0  0  0  0  0  0  0  0  0  0
    0.7476   -0.6153    1.3166 C   0  0  0  0  0  0  0  0  0  0  0  0
    1.6960    0.1998    0.5118 C   0  0  0  0  0  0  0  0  0  0  0  0
    2.2238   -0.2296   -0.7995 C   0  0  0  0  0  0  0  0  0  0  0  0
    1.1655    0.8588   -0.6734 C   0  0  0  0  0  0  0  0  0  0  0  0
   -0.2127    0.4950   -1.0969 C   0  0  0  0  0  0  0  0  0  0  0  0
   -0.4603   -0.9604   -1.0098 O   0  0  0  0  0  0  0  0  0  0  0  0
   -3.1356    0.8632    0.0005 H   0  0  0  0  0  0  0  0  0  0  0  0
   -3.0048   -0.9147    0.0402 H   0  0  0  0  0  0  0  0  0  0  0  0
   -2.7853   -0.1178   -1.5308 H   0  0  0  0  0  0  0  0  0  0  0  0
   -0.6512    0.9976    1.6748 H   0  0  0  0  0  0  0  0  0  0  0  0
   -1.3488   -0.7117    1.7700 H   0  0  0  0  0  0  0  0  0  0  0  0
    0.9979   -0.6135    2.4143 H   0  0  0  0  0  0  0  0  0  0  0  0
    0.6534   -1.6657    1.0107 H   0  0  0  0  0  0  0  0  0  0  0  0
    2.4398    0.7723    1.1408 H   0  0  0  0  0  0  0  0  0  0  0  0
    3.2018    0.1047   -1.1482 H   0  0  0  0  0  0  0  0  0  0  0  0
    1.8650   -1.2047   -1.2409 H   0  0  0  0  0  0  0  0  0  0  0  0
    1.4489    1.9059   -0.8464 H   0  0  0  0  0  0  0  0  0  0  0  0
   -0.4597    0.7930   -2.1468 H   0  0  0  0  0  0  0  0  0  0  0  0
  1  2  1  0
  2  3  1  0
  3  4  1  0
  4  5  1  0
  5  6  1  0
  6  7  1  0
  7  8  1  0
  8  9  1  0
  8  2  1  0
  9  2  1  0
  7  5  1  0
  1 10  1  0
  1 11  1  0
  1 12  1  0
  3 13  1  0
  3 14  1  0
  4 15  1  0
  4 16  1  0
  5 17  1  0
  6 18  1  0
  6 19  1  0
  7 20  1  0
  8 21  1  0
M  END
