
     RDKit          3D

 18 19  0  0  0  0  0  0  0  0999 V2000
   -1.3643   -0.5297    1.1404 C   0  0  0  0  0  0  0  0  0  0  0  0
   -0.5262    0.1138    0.1027 C   0  0  0  0  0  0  0  0  0  0  0  0
    0.3696    1.2143    0.5474 C   0  0  0  0  0  0  0  0  0  0  0  0
    1.6285    0.8923    0.3301 C   0  0  0  0  0  0  0  0  0  0  0  0
    1.7188   -0.4518   -0.2811 C   0  0  0  0  0  0  0  0  0  0  0  0
    0.3271   -0.8478   -0.6543 C   0  0  0  0  0  0  0  0  0  0  0  0
   -0.1620   -0.3168   -1.8352 O   0  0  0  0  0  0  0  0  0  0  0  0
   -1.1573    0.4333   -1.2102 C   0  0  0  0  0  0  0  0  0  0  0  0
   -0.8057   -0.4707    2.1164 H   0  0  0  0  0  0  0  0  0  0  0  0
   -2.3382   -0.0685    1.3133 H   0  0  0  0  0  0  0  0  0  0  0  0
   -1.4815   -1.6247    0.9349 H   0  0  0  0  0  0  0  0  0  0  0  0
   -0.0230    2.1337    0.9844 H   0  0  0  0  0  0  0  0  0  0  0  0
    2.4700    1.5140    0.5620 H   0  0  0  0  0  0  0  0  0  0  0  0
    2.4116   -0.4822   -1.1518 H   0  0  0  0  0  0  0  0  0  0  0  0
    2.0655   -1.1457    0.5205 H   0  0  0  0  0  0  0  0  0  0  0  0
    0.0705   -1.9242   -0.5135 H   0  0  0  0  0  0  0  0  0  0  0  0
   -1.0249    1.5073   -1.5242 H   0  0  0  0  0  0  0  0  0  0  0  0
   -2.1786    0.0534   -1.3816 H   0  0  0  0  0  0  0  0  0  0  0  0
  1  2  1  0
  2  3  1  0
  3  4  2  0
  4  5  1  0
  5  6  1  0
  6  7  1  0
  7  8  1  0
  6  2  1  0
  8  2  1  0
  1  9  1  0
  1 10  1  0
  1 11  1  0
  3 12  1  0
  4 13  1  0
  5 14  1  0
  5 15  1  0
  6 16  1  0
  8 17  1  0
  8 18  1  0
M  END
