
     RDKit          3D

 19 20  0  0  0  0  0  0  0  0999 V2000
   -1.1113    1.6221    0.5714 C   0  0  0  0  0  0  0  0  0  0  0  0
   -0.5736    0.2949    0.3285 C   0  0  0  0  0  0  0  0  0  0  0  0
   -0.9809   -0.4778   -0.8832 C   0  0  0  0  0  0  0  0  0  0  0  0
   -0.6099   -1.5990    0.0703 C   0  0  0  0  0  0  0  0  0  0  0  0
    0.8936   -1.4546    0.1549 C   0  0  0  0  0  0  0  0  0  0  0  0
    0.9134    0.0624    0.4404 C   0  0  0  0  0  0  0  0  0  0  0  0
    1.7065    0.7933   -0.5458 C   0  0  0  0  0  0  0  0  0  0  0  0
    2.2097    1.8545   -0.2309 O   0  0  0  0  0  0  0  0  0  0  0  0
   -1.0957   -0.7816    1.0871 O   0  0  0  0  0  0  0  0  0  0  0  0
   -1.6195    2.0615   -0.3276 H   0  0  0  0  0  0  0  0  0  0  0  0
   -0.2884    2.3332    0.8587 H   0  0  0  0  0  0  0  0  0  0  0  0
   -1.8564    1.6842    1.3958 H   0  0  0  0  0  0  0  0  0  0  0  0
   -0.2704   -0.3821   -1.7457 H   0  0  0  0  0  0  0  0  0  0  0  0
   -2.0400   -0.4530   -1.1420 H   0  0  0  0  0  0  0  0  0  0  0  0
   -1.0346   -2.5612   -0.0799 H   0  0  0  0  0  0  0  0  0  0  0  0
    1.3486   -2.0229    0.9648 H   0  0  0  0  0  0  0  0  0  0  0  0
    1.2970   -1.6574   -0.8494 H   0  0  0  0  0  0  0  0  0  0  0  0
    1.2345    0.2384    1.4871 H   0  0  0  0  0  0  0  0  0  0  0  0
    1.8773    0.4450   -1.5544 H   0  0  0  0  0  0  0  0  0  0  0  0
  1  2  1  0
  2  3  1  0
  3  4  1  0
  4  5  1  0
  5  6  1  0
  6  7  1  0
  7  8  2  0
  4  9  1  0
  6  2  1  0
  9  2  1  0
  1 10  1  0
  1 11  1  0
  1 12  1  0
  3 13  1  0
  3 14  1  0
  4 15  1  0
  5 16  1  0
  5 17  1  0
  6 18  1  0
  7 19  1  0
M  END
