
     RDKit          3D

 22 23  0  0  0  0  0  0  0  0999 V2000
    2.2144   -0.5546    0.6785 C   0  0  0  0  0  0  0  0  0  0  0  0
    0.8618   -0.2385    0.0359 C   0  0  0  0  0  0  0  0  0  0  0  0
   -0.1380   -1.3171    0.1555 C   0  0  0  0  0  0  0  0  0  0  0  0
   -1.4832   -0.8304    0.7094 C   0  0  0  0  0  0  0  0  0  0  0  0
   -1.9243    0.2509   -0.2826 C   0  0  0  0  0  0  0  0  0  0  0  0
   -1.0250    1.4284   -0.0606 C   0  0  0  0  0  0  0  0  0  0  0  0
    0.4156    1.1298   -0.0243 C   0  0  0  0  0  0  0  0  0  0  0  0
    0.9978    0.5404   -1.2807 C   0  0  0  0  0  0  0  0  0  0  0  0
    3.0568   -0.2958    0.0031 H   0  0  0  0  0  0  0  0  0  0  0  0
    2.3132   -1.6688    0.8401 H   0  0  0  0  0  0  0  0  0  0  0  0
    2.3722   -0.0191    1.6137 H   0  0  0  0  0  0  0  0  0  0  0  0
   -0.3755   -1.7252   -0.8550 H   0  0  0  0  0  0  0  0  0  0  0  0
    0.1933   -2.1821    0.7633 H   0  0  0  0  0  0  0  0  0  0  0  0
   -2.2083   -1.6418    0.6913 H   0  0  0  0  0  0  0  0  0  0  0  0
   -1.3225   -0.3674    1.6954 H   0  0  0  0  0  0  0  0  0  0  0  0
   -2.9701    0.5372   -0.1208 H   0  0  0  0  0  0  0  0  0  0  0  0
   -1.7698   -0.1001   -1.3340 H   0  0  0  0  0  0  0  0  0  0  0  0
   -1.3951    1.9556    0.8525 H   0  0  0  0  0  0  0  0  0  0  0  0
   -1.2151    2.1402   -0.9154 H   0  0  0  0  0  0  0  0  0  0  0  0
    1.0448    1.9072    0.4907 H   0  0  0  0  0  0  0  0  0  0  0  0
    0.3594    0.1625   -2.0765 H   0  0  0  0  0  0  0  0  0  0  0  0
    1.9975    0.8889   -1.5795 H   0  0  0  0  0  0  0  0  0  0  0  0
  1  2  1  0
  2  3  1  0
  3  4  1  0
  4  5  1  0
  5  6  1  0
  6  7  1  0
  7  8  1  0
  7  2  1  0
  8  2  1  0
  1  9  1  0
  1 10  1  0
  1 11  1  0
  3 12  1  0
  3 13  1  0
  4 14  1  0
  4 15  1  0
  5 16  1  0
  5 17  1  0
  6 18  1  0
  6 19  1  0
  7 20  1  0
  8 21  1  0
  8 22  1  0
M  END
