
     RDKit          3D

 17 19  0  0  0  0  0  0  0  0999 V2000
    0.4992    1.8637    0.3547 C   0  0  0  0  0  0  0  0  0  0  0  0
    0.4247    0.3577    0.3318 C   0  0  0  0  0  0  0  0  0  0  0  0
    1.5200   -0.4557   -0.2293 C   0  0  0  0  0  0  0  0  0  0  0  0
    0.2806   -0.2485   -1.0160 C   0  0  0  0  0  0  0  0  0  0  0  0
   -0.8673   -1.2095   -0.9283 C   0  0  0  0  0  0  0  0  0  0  0  0
   -0.8098   -2.2696   -0.0279 O   0  0  0  0  0  0  0  0  0  0  0  0
   -1.4484   -1.1092    0.3857 C   0  0  0  0  0  0  0  0  0  0  0  0
   -0.6101   -0.2146    1.2074 C   0  0  0  0  0  0  0  0  0  0  0  0
   -0.7549    0.0022    2.3842 O   0  0  0  0  0  0  0  0  0  0  0  0
    1.1271    2.2867   -0.4336 H   0  0  0  0  0  0  0  0  0  0  0  0
    0.7478    2.2191    1.3770 H   0  0  0  0  0  0  0  0  0  0  0  0
   -0.5491    2.2307    0.1582 H   0  0  0  0  0  0  0  0  0  0  0  0
    1.7880   -1.4393    0.1860 H   0  0  0  0  0  0  0  0  0  0  0  0
    2.4154    0.1087   -0.5902 H   0  0  0  0  0  0  0  0  0  0  0  0
    0.3198    0.3603   -1.9409 H   0  0  0  0  0  0  0  0  0  0  0  0
   -1.5269   -1.3449   -1.7968 H   0  0  0  0  0  0  0  0  0  0  0  0
   -2.5561   -1.1377    0.5781 H   0  0  0  0  0  0  0  0  0  0  0  0
  1  2  1  0
  2  3  1  0
  3  4  1  0
  4  5  1  0
  5  6  1  0
  6  7  1  0
  7  8  1  0
  8  9  2  0
  4  2  1  0
  7  5  1  0
  8  2  1  0
  1 10  1  0
  1 11  1  0
  1 12  1  0
  3 13  1  0
  3 14  1  0
  4 15  1  0
  5 16  1  0
  7 17  1  0
M  END
