
     RDKit          3D

 17 19  0  0  0  0  0  0  0  0999 V2000
   -2.5540    0.1457   -0.3180 C   0  0  0  0  0  0  0  0  0  0  0  0
   -1.1363    0.5170   -0.0853 C   0  0  0  0  0  0  0  0  0  0  0  0
   -0.6452    1.7116   -0.5972 O   0  0  0  0  0  0  0  0  0  0  0  0
   -0.1320    0.4570   -1.0472 C   0  0  0  0  0  0  0  0  0  0  0  0
    0.7834   -0.1764   -0.0657 C   0  0  0  0  0  0  0  0  0  0  0  0
    2.1048    0.3774    0.1510 C   0  0  0  0  0  0  0  0  0  0  0  0
    1.8497   -1.0828   -0.2944 C   0  0  0  0  0  0  0  0  0  0  0  0
   -0.2967   -0.2406    0.8840 C   0  0  0  0  0  0  0  0  0  0  0  0
   -0.5040   -0.6917    1.9939 O   0  0  0  0  0  0  0  0  0  0  0  0
   -3.1899    1.0293   -0.0599 H   0  0  0  0  0  0  0  0  0  0  0  0
   -2.6941    0.0083   -1.4207 H   0  0  0  0  0  0  0  0  0  0  0  0
   -2.8300   -0.7369    0.2646 H   0  0  0  0  0  0  0  0  0  0  0  0
   -0.1350    0.2412   -2.1050 H   0  0  0  0  0  0  0  0  0  0  0  0
    2.5049    0.5514    1.1463 H   0  0  0  0  0  0  0  0  0  0  0  0
    2.4959    1.0725   -0.6317 H   0  0  0  0  0  0  0  0  0  0  0  0
    2.2531   -1.3642   -1.2839 H   0  0  0  0  0  0  0  0  0  0  0  0
    2.1256   -1.8189    0.4970 H   0  0  0  0  0  0  0  0  0  0  0  0
  1  2  1  0
  2  3  1  0
  3  4  1  0
  4  5  1  0
  5  6  1  0
  6  7  1  0
  5  8  1  0
  8  9  2  0
  4  2  1  0
  7  5  1  0
  8  2  1  0
  1 10  1  0
  1 11  1  0
  1 12  1  0
  4 13  1  0
  6 14  1  0
  6 15  1  0
  7 16  1  0
  7 17  1  0
M  END
