
     RDKit          3D

 19 21  0  0  0  0  0  0  0  0999 V2000
    1.8835    0.8766   -0.2908 C   0  0  0  0  0  0  0  0  0  0  0  0
    0.6425    0.1583    0.0846 C   0  0  0  0  0  0  0  0  0  0  0  0
   -0.3951    0.9273    0.8522 C   0  0  0  0  0  0  0  0  0  0  0  0
   -1.7135    0.5234    0.2940 C   0  0  0  0  0  0  0  0  0  0  0  0
   -1.4413   -0.7407   -0.4613 C   0  0  0  0  0  0  0  0  0  0  0  0
   -0.3346   -1.6504   -0.1152 C   0  0  0  0  0  0  0  0  0  0  0  0
    0.8163   -1.1905    0.7008 C   0  0  0  0  0  0  0  0  0  0  0  0
    1.6172   -1.6016    1.5228 O   0  0  0  0  0  0  0  0  0  0  0  0
   -0.1126   -0.5148   -1.0194 C   0  0  0  0  0  0  0  0  0  0  0  0
    2.2356    1.4922    0.5476 H   0  0  0  0  0  0  0  0  0  0  0  0
    2.6356    0.1555   -0.6246 H   0  0  0  0  0  0  0  0  0  0  0  0
    1.6488    1.5193   -1.1878 H   0  0  0  0  0  0  0  0  0  0  0  0
   -0.3175    0.6657    1.9297 H   0  0  0  0  0  0  0  0  0  0  0  0
   -0.1699    1.9972    0.7657 H   0  0  0  0  0  0  0  0  0  0  0  0
   -2.5337    0.4617    1.0145 H   0  0  0  0  0  0  0  0  0  0  0  0
   -2.0022    1.2987   -0.4723 H   0  0  0  0  0  0  0  0  0  0  0  0
   -2.2895   -1.1638   -0.9882 H   0  0  0  0  0  0  0  0  0  0  0  0
   -0.3643   -2.6643   -0.5161 H   0  0  0  0  0  0  0  0  0  0  0  0
    0.1948   -0.5497   -2.0363 H   0  0  0  0  0  0  0  0  0  0  0  0
  1  2  1  0
  2  3  1  0
  3  4  1  0
  4  5  1  0
  5  6  1  0
  6  7  1  0
  7  8  2  0
  6  9  1  0
  7  2  1  0
  9  2  1  0
  9  5  1  0
  1 10  1  0
  1 11  1  0
  1 12  1  0
  3 13  1  0
  3 14  1  0
  4 15  1  0
  4 16  1  0
  5 17  1  0
  6 18  1  0
  9 19  1  0
M  END
