
     RDKit          3D

 19 21  0  0  0  0  0  0  0  0999 V2000
    2.2413    0.8212    0.1845 C   0  0  0  0  0  0  0  0  0  0  0  0
    0.7992    0.4865   -0.1083 C   0  0  0  0  0  0  0  0  0  0  0  0
    0.3669    0.8763   -1.3542 O   0  0  0  0  0  0  0  0  0  0  0  0
    0.4755   -0.4888   -1.2171 C   0  0  0  0  0  0  0  0  0  0  0  0
   -0.6622   -1.3223   -0.7342 C   0  0  0  0  0  0  0  0  0  0  0  0
   -1.2473   -0.6623    0.4807 C   0  0  0  0  0  0  0  0  0  0  0  0
   -1.9116    0.6499    0.2851 C   0  0  0  0  0  0  0  0  0  0  0  0
   -1.0766    1.2252    1.2404 O   0  0  0  0  0  0  0  0  0  0  0  0
   -0.1572    0.2264    1.0085 C   0  0  0  0  0  0  0  0  0  0  0  0
    2.3782    1.9181    0.0998 H   0  0  0  0  0  0  0  0  0  0  0  0
    2.4504    0.5181    1.2156 H   0  0  0  0  0  0  0  0  0  0  0  0
    2.8754    0.3295   -0.5760 H   0  0  0  0  0  0  0  0  0  0  0  0
    1.3642   -1.0077   -1.6550 H   0  0  0  0  0  0  0  0  0  0  0  0
   -0.2253   -2.3013   -0.3813 H   0  0  0  0  0  0  0  0  0  0  0  0
   -1.4068   -1.5678   -1.5020 H   0  0  0  0  0  0  0  0  0  0  0  0
   -1.7733   -1.2939    1.1923 H   0  0  0  0  0  0  0  0  0  0  0  0
   -2.9717    0.6989    0.6590 H   0  0  0  0  0  0  0  0  0  0  0  0
   -1.8717    1.0989   -0.7199 H   0  0  0  0  0  0  0  0  0  0  0  0
    0.3527   -0.2048    1.8821 H   0  0  0  0  0  0  0  0  0  0  0  0
  1  2  1  0
  2  3  1  0
  3  4  1  0
  4  5  1  0
  5  6  1  0
  6  7  1  0
  7  8  1  0
  8  9  1  0
  4  2  1  0
  9  6  1  0
  9  2  1  0
  1 10  1  0
  1 11  1  0
  1 12  1  0
  4 13  1  0
  5 14  1  0
  5 15  1  0
  6 16  1  0
  7 17  1  0
  7 18  1  0
  9 19  1  0
M  END
