
     RDKit          3D

 19 20  0  0  0  0  0  0  0  0999 V2000
    2.3213    0.5827   -0.2319 C   0  0  0  0  0  0  0  0  0  0  0  0
    0.9401    0.1530   -0.1784 C   0  0  0  0  0  0  0  0  0  0  0  0
    0.6428   -1.3492   -0.2425 C   0  0  0  0  0  0  0  0  0  0  0  0
   -0.8937   -1.2281   -0.1494 C   0  0  0  0  0  0  0  0  0  0  0  0
   -0.9467    0.2804   -0.0593 C   0  0  0  0  0  0  0  0  0  0  0  0
   -2.2355    0.9430    0.0277 C   0  0  0  0  0  0  0  0  0  0  0  0
   -0.0106    0.7455   -0.9989 O   0  0  0  0  0  0  0  0  0  0  0  0
    0.0866    0.5541    0.9687 C   0  0  0  0  0  0  0  0  0  0  0  0
    0.2820    0.8990    2.0963 O   0  0  0  0  0  0  0  0  0  0  0  0
    2.9321   -0.1521   -0.8205 H   0  0  0  0  0  0  0  0  0  0  0  0
    2.7701    0.5628    0.7950 H   0  0  0  0  0  0  0  0  0  0  0  0
    2.4252    1.5895   -0.6879 H   0  0  0  0  0  0  0  0  0  0  0  0
    0.9366   -1.7867   -1.1946 H   0  0  0  0  0  0  0  0  0  0  0  0
    1.0584   -1.8417    0.6400 H   0  0  0  0  0  0  0  0  0  0  0  0
   -1.3828   -1.6311   -1.0398 H   0  0  0  0  0  0  0  0  0  0  0  0
   -1.1899   -1.6808    0.8017 H   0  0  0  0  0  0  0  0  0  0  0  0
   -2.5682    0.9766    1.1068 H   0  0  0  0  0  0  0  0  0  0  0  0
   -3.0022    0.3915   -0.5436 H   0  0  0  0  0  0  0  0  0  0  0  0
   -2.1657    1.9917   -0.2894 H   0  0  0  0  0  0  0  0  0  0  0  0
  1  2  1  0
  2  3  1  0
  3  4  1  0
  4  5  1  0
  5  6  1  0
  5  7  1  0
  5  8  1  0
  8  9  2  0
  7  2  1  0
  8  2  1  0
  1 10  1  0
  1 11  1  0
  1 12  1  0
  3 13  1  0
  3 14  1  0
  4 15  1  0
  4 16  1  0
  6 17  1  0
  6 18  1  0
  6 19  1  0
M  END
