
     RDKit          3D

 23 24  0  0  0  0  0  0  0  0999 V2000
    0.9248   -1.4099    1.0615 C   0  0  0  0  0  0  0  0  0  0  0  0
    0.6478   -0.4456   -0.0042 C   0  0  0  0  0  0  0  0  0  0  0  0
    1.6830    0.6172   -0.2366 C   0  0  0  0  0  0  0  0  0  0  0  0
    0.5947    1.6652   -0.1932 C   0  0  0  0  0  0  0  0  0  0  0  0
   -0.3962    0.5582    0.0865 C   0  0  0  0  0  0  0  0  0  0  0  0
   -1.2681    0.6962    1.2535 C   0  0  0  0  0  0  0  0  0  0  0  0
   -1.0039    0.0891   -1.2093 C   0  0  0  0  0  0  0  0  0  0  0  0
   -2.3217   -0.2789   -1.1780 O   0  0  0  0  0  0  0  0  0  0  0  0
    0.0115   -1.0289   -1.2364 C   0  0  0  0  0  0  0  0  0  0  0  0
    1.9023   -1.1439    1.5490 H   0  0  0  0  0  0  0  0  0  0  0  0
    0.1673   -1.5661    1.8212 H   0  0  0  0  0  0  0  0  0  0  0  0
    1.1212   -2.4183    0.5941 H   0  0  0  0  0  0  0  0  0  0  0  0
    2.3192    0.7279    0.6775 H   0  0  0  0  0  0  0  0  0  0  0  0
    2.2677    0.5565   -1.1569 H   0  0  0  0  0  0  0  0  0  0  0  0
    0.6650    2.4064    0.6118 H   0  0  0  0  0  0  0  0  0  0  0  0
    0.5073    2.1270   -1.2097 H   0  0  0  0  0  0  0  0  0  0  0  0
   -1.1898    1.7217    1.7221 H   0  0  0  0  0  0  0  0  0  0  0  0
   -2.3430    0.5811    0.9241 H   0  0  0  0  0  0  0  0  0  0  0  0
   -1.1328   -0.0142    2.0735 H   0  0  0  0  0  0  0  0  0  0  0  0
   -0.8176    0.7575   -2.0904 H   0  0  0  0  0  0  0  0  0  0  0  0
   -2.5055   -1.1318   -0.7318 H   0  0  0  0  0  0  0  0  0  0  0  0
   -0.4806   -1.9819   -0.9951 H   0  0  0  0  0  0  0  0  0  0  0  0
    0.6476   -1.0846   -2.1331 H   0  0  0  0  0  0  0  0  0  0  0  0
  1  2  1  0
  2  3  1  0
  3  4  1  0
  4  5  1  0
  5  6  1  0
  5  7  1  0
  7  8  1  0
  7  9  1  0
  5  2  1  0
  9  2  1  0
  1 10  1  0
  1 11  1  0
  1 12  1  0
  3 13  1  0
  3 14  1  0
  4 15  1  0
  4 16  1  0
  6 17  1  0
  6 18  1  0
  6 19  1  0
  7 20  1  0
  8 21  1  0
  9 22  1  0
  9 23  1  0
M  END
