
     RDKit          3D

 19 20  0  0  0  0  0  0  0  0999 V2000
    0.9323    1.4704   -0.7924 C   0  0  0  0  0  0  0  0  0  0  0  0
    0.2227    0.3686   -0.0453 C   0  0  0  0  0  0  0  0  0  0  0  0
   -1.2014    0.0756   -0.4200 C   0  0  0  0  0  0  0  0  0  0  0  0
   -2.1169    0.9497    0.1092 O   0  0  0  0  0  0  0  0  0  0  0  0
   -1.3656   -1.3459    0.0648 C   0  0  0  0  0  0  0  0  0  0  0  0
   -0.1454   -1.9343   -0.1261 O   0  0  0  0  0  0  0  0  0  0  0  0
    0.8437   -0.9978   -0.0174 C   0  0  0  0  0  0  0  0  0  0  0  0
    0.8327   -0.1451    1.1931 C   0  0  0  0  0  0  0  0  0  0  0  0
    2.0693    0.4161    1.5284 O   0  0  0  0  0  0  0  0  0  0  0  0
    2.0318    1.3864   -0.6575 H   0  0  0  0  0  0  0  0  0  0  0  0
    0.5747    2.4374   -0.3851 H   0  0  0  0  0  0  0  0  0  0  0  0
    0.7084    1.3524   -1.8760 H   0  0  0  0  0  0  0  0  0  0  0  0
   -1.2709    0.0560   -1.5290 H   0  0  0  0  0  0  0  0  0  0  0  0
   -3.0102    0.5499    0.1981 H   0  0  0  0  0  0  0  0  0  0  0  0
   -1.7597   -1.4098    1.0902 H   0  0  0  0  0  0  0  0  0  0  0  0
   -2.1086   -1.8400   -0.5940 H   0  0  0  0  0  0  0  0  0  0  0  0
    1.7414   -1.0918   -0.6628 H   0  0  0  0  0  0  0  0  0  0  0  0
    0.2462   -0.4824    2.0647 H   0  0  0  0  0  0  0  0  0  0  0  0
    2.7754    0.1846    0.8572 H   0  0  0  0  0  0  0  0  0  0  0  0
  1  2  1  0
  2  3  1  0
  3  4  1  0
  3  5  1  0
  5  6  1  0
  6  7  1  0
  7  8  1  0
  8  9  1  0
  7  2  1  0
  8  2  1  0
  1 10  1  0
  1 11  1  0
  1 12  1  0
  3 13  1  0
  4 14  1  0
  5 15  1  0
  5 16  1  0
  7 17  1  0
  8 18  1  0
  9 19  1  0
M  END
