
     RDKit          3D

 21 22  0  0  0  0  0  0  0  0999 V2000
   -2.1149    0.3252   -0.0710 C   0  0  0  0  0  0  0  0  0  0  0  0
   -0.6789    0.0097    0.1213 C   0  0  0  0  0  0  0  0  0  0  0  0
   -0.2454   -0.4465    1.4826 C   0  0  0  0  0  0  0  0  0  0  0  0
    1.1156   -0.3614    1.6470 O   0  0  0  0  0  0  0  0  0  0  0  0
    1.8594   -0.6380    0.5340 C   0  0  0  0  0  0  0  0  0  0  0  0
    1.2051   -0.1708   -0.7360 C   0  0  0  0  0  0  0  0  0  0  0  0
   -0.0769   -0.9621   -0.9024 C   0  0  0  0  0  0  0  0  0  0  0  0
    0.3189    1.0266   -0.3694 C   0  0  0  0  0  0  0  0  0  0  0  0
   -0.0635    1.8111   -1.4237 O   0  0  0  0  0  0  0  0  0  0  0  0
   -2.5387   -0.4483   -0.7771 H   0  0  0  0  0  0  0  0  0  0  0  0
   -2.3256    1.3237   -0.4748 H   0  0  0  0  0  0  0  0  0  0  0  0
   -2.6400    0.1566    0.9094 H   0  0  0  0  0  0  0  0  0  0  0  0
   -0.6997    0.2810    2.2182 H   0  0  0  0  0  0  0  0  0  0  0  0
   -0.6519   -1.4630    1.6731 H   0  0  0  0  0  0  0  0  0  0  0  0
    2.8279   -0.0696    0.6321 H   0  0  0  0  0  0  0  0  0  0  0  0
    2.1376   -1.7097    0.4587 H   0  0  0  0  0  0  0  0  0  0  0  0
    1.8239   -0.0448   -1.6120 H   0  0  0  0  0  0  0  0  0  0  0  0
   -0.0228   -1.9776   -0.4423 H   0  0  0  0  0  0  0  0  0  0  0  0
   -0.5762   -0.8896   -1.8625 H   0  0  0  0  0  0  0  0  0  0  0  0
    0.8422    1.6069    0.4203 H   0  0  0  0  0  0  0  0  0  0  0  0
    0.5038    2.6406   -1.4255 H   0  0  0  0  0  0  0  0  0  0  0  0
  1  2  1  0
  2  3  1  0
  3  4  1  0
  4  5  1  0
  5  6  1  0
  6  7  1  0
  6  8  1  0
  8  9  1  0
  7  2  1  0
  8  2  1  0
  1 10  1  0
  1 11  1  0
  1 12  1  0
  3 13  1  0
  3 14  1  0
  5 15  1  0
  5 16  1  0
  6 17  1  0
  7 18  1  0
  7 19  1  0
  8 20  1  0
  9 21  1  0
M  END
