
     RDKit          3D

 19 21  0  0  0  0  0  0  0  0999 V2000
   -1.8565   -0.1087   -0.2805 C   0  0  0  0  0  0  0  0  0  0  0  0
   -0.4233   -0.4592    0.0089 C   0  0  0  0  0  0  0  0  0  0  0  0
    0.4814   -0.7027   -1.1924 C   0  0  0  0  0  0  0  0  0  0  0  0
    1.8050   -0.4166   -0.5895 C   0  0  0  0  0  0  0  0  0  0  0  0
    2.5615    0.6418   -0.4796 O   0  0  0  0  0  0  0  0  0  0  0  0
    1.3631    0.9958   -0.1110 C   0  0  0  0  0  0  0  0  0  0  0  0
    0.3765    0.5814    0.8783 C   0  0  0  0  0  0  0  0  0  0  0  0
   -0.4207    1.6666    1.3400 O   0  0  0  0  0  0  0  0  0  0  0  0
    0.0228   -0.7199    1.3784 C   0  0  0  0  0  0  0  0  0  0  0  0
   -2.0522   -0.0972   -1.3775 H   0  0  0  0  0  0  0  0  0  0  0  0
   -2.4695   -0.9778    0.1023 H   0  0  0  0  0  0  0  0  0  0  0  0
   -2.2194    0.7809    0.2444 H   0  0  0  0  0  0  0  0  0  0  0  0
    0.3692   -1.6840   -1.6240 H   0  0  0  0  0  0  0  0  0  0  0  0
    0.2357    0.0979   -1.9301 H   0  0  0  0  0  0  0  0  0  0  0  0
    2.0547   -1.1728    0.1981 H   0  0  0  0  0  0  0  0  0  0  0  0
    0.8771    1.6331   -0.9231 H   0  0  0  0  0  0  0  0  0  0  0  0
   -0.5955    2.2496    0.5798 H   0  0  0  0  0  0  0  0  0  0  0  0
    0.7273   -1.5408    1.6597 H   0  0  0  0  0  0  0  0  0  0  0  0
   -0.8372   -0.7674    2.1179 H   0  0  0  0  0  0  0  0  0  0  0  0
  1  2  1  0
  2  3  1  0
  3  4  1  0
  4  5  1  0
  5  6  1  0
  6  7  1  0
  7  8  1  0
  7  9  1  0
  7  2  1  0
  9  2  1  0
  6  4  1  0
  1 10  1  0
  1 11  1  0
  1 12  1  0
  3 13  1  0
  3 14  1  0
  4 15  1  0
  6 16  1  0
  8 17  1  0
  9 18  1  0
  9 19  1  0
M  END
