
     RDKit          3D

 21 22  0  0  0  0  0  0  0  0999 V2000
   -1.0358    0.5690    1.2719 C   0  0  0  0  0  0  0  0  0  0  0  0
   -0.7461    0.2281   -0.1761 C   0  0  0  0  0  0  0  0  0  0  0  0
   -0.0473    1.3156   -0.8678 C   0  0  0  0  0  0  0  0  0  0  0  0
    1.2313    1.4067   -0.4626 O   0  0  0  0  0  0  0  0  0  0  0  0
    1.8073    0.5684    0.3862 C   0  0  0  0  0  0  0  0  0  0  0  0
    1.1552   -0.7770    0.6364 C   0  0  0  0  0  0  0  0  0  0  0  0
    0.2022   -0.9910   -0.4703 C   0  0  0  0  0  0  0  0  0  0  0  0
   -1.1955   -1.0529   -0.5999 C   0  0  0  0  0  0  0  0  0  0  0  0
   -1.7635   -1.0891   -1.8960 O   0  0  0  0  0  0  0  0  0  0  0  0
   -2.0244    1.1199    1.2398 H   0  0  0  0  0  0  0  0  0  0  0  0
   -1.2350   -0.3182    1.8954 H   0  0  0  0  0  0  0  0  0  0  0  0
   -0.3263    1.2880    1.7061 H   0  0  0  0  0  0  0  0  0  0  0  0
   -0.0683    1.1006   -1.9769 H   0  0  0  0  0  0  0  0  0  0  0  0
   -0.6404    2.2686   -0.7686 H   0  0  0  0  0  0  0  0  0  0  0  0
    2.8375    0.3148   -0.0140 H   0  0  0  0  0  0  0  0  0  0  0  0
    2.0344    1.0828    1.3588 H   0  0  0  0  0  0  0  0  0  0  0  0
    0.7388   -0.7487    1.6475 H   0  0  0  0  0  0  0  0  0  0  0  0
    1.8938   -1.6176    0.6301 H   0  0  0  0  0  0  0  0  0  0  0  0
    0.7804   -0.9539   -1.4452 H   0  0  0  0  0  0  0  0  0  0  0  0
   -1.7908   -1.6865    0.0817 H   0  0  0  0  0  0  0  0  0  0  0  0
   -1.8075   -2.0277   -2.1764 H   0  0  0  0  0  0  0  0  0  0  0  0
  1  2  1  0
  2  3  1  0
  3  4  1  0
  4  5  1  0
  5  6  1  0
  6  7  1  0
  7  8  1  0
  8  9  1  0
  7  2  1  0
  8  2  1  0
  1 10  1  0
  1 11  1  0
  1 12  1  0
  3 13  1  0
  3 14  1  0
  5 15  1  0
  5 16  1  0
  6 17  1  0
  6 18  1  0
  7 19  1  0
  8 20  1  0
  9 21  1  0
M  END
