
     RDKit          3D

 18 20  0  0  0  0  0  0  0  0999 V2000
   -1.9075   -0.9163   -0.3336 C   0  0  0  0  0  0  0  0  0  0  0  0
   -0.5545   -0.4259    0.0282 C   0  0  0  0  0  0  0  0  0  0  0  0
   -0.4833    0.6930    1.0333 C   0  0  0  0  0  0  0  0  0  0  0  0
    0.6053    1.3606    0.2402 C   0  0  0  0  0  0  0  0  0  0  0  0
    1.5301    0.4292   -0.5403 C   0  0  0  0  0  0  0  0  0  0  0  0
    1.6306   -0.8983    0.2248 C   0  0  0  0  0  0  0  0  0  0  0  0
    0.3713   -1.4482    0.2094 O   0  0  0  0  0  0  0  0  0  0  0  0
    0.1383    0.4707   -0.9404 C   0  0  0  0  0  0  0  0  0  0  0  0
   -2.5064   -0.0258   -0.6805 H   0  0  0  0  0  0  0  0  0  0  0  0
   -1.8047   -1.6139   -1.1933 H   0  0  0  0  0  0  0  0  0  0  0  0
   -2.3864   -1.4214    0.4991 H   0  0  0  0  0  0  0  0  0  0  0  0
   -0.2099    0.4174    2.0596 H   0  0  0  0  0  0  0  0  0  0  0  0
   -1.4208    1.3148    0.9477 H   0  0  0  0  0  0  0  0  0  0  0  0
    0.6471    2.4301    0.0917 H   0  0  0  0  0  0  0  0  0  0  0  0
    2.3851    0.8170   -1.0699 H   0  0  0  0  0  0  0  0  0  0  0  0
    2.4234   -1.5369   -0.1623 H   0  0  0  0  0  0  0  0  0  0  0  0
    1.8744   -0.6737    1.3024 H   0  0  0  0  0  0  0  0  0  0  0  0
   -0.3320    1.0276   -1.7161 H   0  0  0  0  0  0  0  0  0  0  0  0
  1  2  1  0
  2  3  1  0
  3  4  1  0
  4  5  1  0
  5  6  1  0
  6  7  1  0
  5  8  1  0
  7  2  1  0
  8  2  1  0
  8  4  1  0
  1  9  1  0
  1 10  1  0
  1 11  1  0
  3 12  1  0
  3 13  1  0
  4 14  1  0
  5 15  1  0
  6 16  1  0
  6 17  1  0
  8 18  1  0
M  END
