
     RDKit          3D

 19 20  0  0  0  0  0  0  0  0999 V2000
   -1.4278    0.6774   -0.7739 C   0  0  0  0  0  0  0  0  0  0  0  0
   -0.8270   -0.2751    0.1873 C   0  0  0  0  0  0  0  0  0  0  0  0
   -1.2289   -0.2835    1.6343 C   0  0  0  0  0  0  0  0  0  0  0  0
    0.0957   -0.2032    1.9809 O   0  0  0  0  0  0  0  0  0  0  0  0
    0.5566   -0.1852    0.6777 C   0  0  0  0  0  0  0  0  0  0  0  0
    1.5105    0.8783    0.2294 C   0  0  0  0  0  0  0  0  0  0  0  0
    1.8124    0.6667   -1.1141 O   0  0  0  0  0  0  0  0  0  0  0  0
    0.1645   -1.3034   -0.2335 C   0  0  0  0  0  0  0  0  0  0  0  0
    0.5814   -1.2065   -1.5575 O   0  0  0  0  0  0  0  0  0  0  0  0
   -0.9949    0.5031   -1.7726 H   0  0  0  0  0  0  0  0  0  0  0  0
   -1.3832    1.7453   -0.4574 H   0  0  0  0  0  0  0  0  0  0  0  0
   -2.5229    0.4189   -0.8708 H   0  0  0  0  0  0  0  0  0  0  0  0
   -1.7690   -1.2059    1.8875 H   0  0  0  0  0  0  0  0  0  0  0  0
   -1.7885    0.5914    1.9936 H   0  0  0  0  0  0  0  0  0  0  0  0
    2.4386    0.7893    0.8271 H   0  0  0  0  0  0  0  0  0  0  0  0
    1.1176    1.9126    0.4039 H   0  0  0  0  0  0  0  0  0  0  0  0
    2.7703    0.8612   -1.3117 H   0  0  0  0  0  0  0  0  0  0  0  0
    0.1450   -2.3020    0.2503 H   0  0  0  0  0  0  0  0  0  0  0  0
    0.7495   -2.0794   -1.9806 H   0  0  0  0  0  0  0  0  0  0  0  0
  1  2  1  0
  2  3  1  0
  3  4  1  0
  4  5  1  0
  5  6  1  0
  6  7  1  0
  5  8  1  0
  8  9  1  0
  5  2  1  0
  8  2  1  0
  1 10  1  0
  1 11  1  0
  1 12  1  0
  3 13  1  0
  3 14  1  0
  6 15  1  0
  6 16  1  0
  7 17  1  0
  8 18  1  0
  9 19  1  0
M  END
