
     RDKit          2D

 19 22  0  0  0  0  0  0  0  0999 V2000
   -0.3107   -3.4204    0.0000 C   0  0  0  0  0  0  0  0  0  0  0  0
   -1.0607   -2.1213    0.0000 C   0  0  0  0  0  0  0  0  0  0  0  0
   -0.0000   -1.0607    0.0000 C   0  0  0  0  0  0  0  0  0  0  0  0
    1.0607    0.0000    0.0000 O   0  0  0  0  0  0  0  0  0  0  0  0
    0.0000    1.0607    0.0000 C   0  0  0  0  0  0  0  0  0  0  0  0
   -1.0607    0.0000    0.0000 C   0  0  0  0  0  0  0  0  0  0  0  0
   -2.1213   -1.0607    0.0000 C   0  0  0  0  0  0  0  0  0  0  0  0
   -3.4204   -0.3107    0.0000 C   0  0  0  0  0  0  0  0  0  0  0  0
   -2.5095   -2.5095    0.0000 C   0  0  0  0  0  0  0  0  0  0  0  0
    0.4393   -4.7194    0.0000 H   0  0  0  0  0  0  0  0  0  0  0  0
    0.9320   -2.8929    0.0000 H   0  0  0  0  0  0  0  0  0  0  0  0
   -1.6097   -4.1704    0.0000 H   0  0  0  0  0  0  0  0  0  0  0  0
    1.0638   -1.8918    0.0000 H   0  0  0  0  0  0  0  0  0  0  0  0
    0.0000    2.5607    0.0000 H   0  0  0  0  0  0  0  0  0  0  0  0
   -1.8918    1.0638    0.0000 H   0  0  0  0  0  0  0  0  0  0  0  0
   -4.7194    0.4393    0.0000 H   0  0  0  0  0  0  0  0  0  0  0  0
   -4.1704   -1.6097    0.0000 H   0  0  0  0  0  0  0  0  0  0  0  0
   -2.8929    0.9320    0.0000 H   0  0  0  0  0  0  0  0  0  0  0  0
   -3.5702   -3.5702    0.0000 H   0  0  0  0  0  0  0  0  0  0  0  0
  1  2  1  0
  2  3  1  0
  3  4  1  0
  4  5  1  0
  5  6  1  0
  6  7  1  0
  7  8  1  0
  7  9  1  0
  7  2  1  0
  9  2  1  0
  6  3  1  0
  9  5  1  0
  1 10  1  0
  1 11  1  0
  1 12  1  0
  3 13  1  0
  5 14  1  0
  6 15  1  0
  8 16  1  0
  8 17  1  0
  8 18  1  0
  9 19  1  0
M  END
