
     RDKit          3D

 21 22  0  0  0  0  0  0  0  0999 V2000
   -0.8440    1.6645    0.6337 C   0  0  0  0  0  0  0  0  0  0  0  0
   -0.0939    0.6298   -0.1030 C   0  0  0  0  0  0  0  0  0  0  0  0
    1.2843    0.9773   -0.5900 C   0  0  0  0  0  0  0  0  0  0  0  0
    1.7699   -0.3377   -0.0106 C   0  0  0  0  0  0  0  0  0  0  0  0
    0.3761   -0.5822    0.5484 C   0  0  0  0  0  0  0  0  0  0  0  0
    0.3642   -0.7629    1.8744 O   0  0  0  0  0  0  0  0  0  0  0  0
   -0.4776   -1.4544   -0.3219 C   0  0  0  0  0  0  0  0  0  0  0  0
   -1.5071   -2.1185    0.3136 O   0  0  0  0  0  0  0  0  0  0  0  0
   -0.9207   -0.1946   -1.0595 C   0  0  0  0  0  0  0  0  0  0  0  0
   -1.2016    1.3884    1.6332 H   0  0  0  0  0  0  0  0  0  0  0  0
   -0.2273    2.6066    0.6403 H   0  0  0  0  0  0  0  0  0  0  0  0
   -1.7652    1.9512    0.0494 H   0  0  0  0  0  0  0  0  0  0  0  0
    1.6901    1.8366   -0.0384 H   0  0  0  0  0  0  0  0  0  0  0  0
    1.3361    1.0513   -1.6872 H   0  0  0  0  0  0  0  0  0  0  0  0
    1.9798   -1.0767   -0.8117 H   0  0  0  0  0  0  0  0  0  0  0  0
    2.5505   -0.2485    0.7601 H   0  0  0  0  0  0  0  0  0  0  0  0
   -0.1582   -0.1755    2.4324 H   0  0  0  0  0  0  0  0  0  0  0  0
    0.1520   -2.1349   -0.9333 H   0  0  0  0  0  0  0  0  0  0  0  0
   -1.7708   -2.8859   -0.2676 H   0  0  0  0  0  0  0  0  0  0  0  0
   -2.0021    0.0320   -0.9587 H   0  0  0  0  0  0  0  0  0  0  0  0
   -0.5344   -0.1662   -2.1036 H   0  0  0  0  0  0  0  0  0  0  0  0
  1  2  1  0
  2  3  1  0
  3  4  1  0
  4  5  1  0
  5  6  1  0
  5  7  1  0
  7  8  1  0
  7  9  1  0
  5  2  1  0
  9  2  1  0
  1 10  1  0
  1 11  1  0
  1 12  1  0
  3 13  1  0
  3 14  1  0
  4 15  1  0
  4 16  1  0
  6 17  1  0
  7 18  1  0
  8 19  1  0
  9 20  1  0
  9 21  1  0
M  END
