
     RDKit          3D

 19 21  0  0  0  0  0  0  0  0999 V2000
   -1.3901   -1.2895    0.1934 C   0  0  0  0  0  0  0  0  0  0  0  0
   -0.6251   -0.0894    0.0488 C   0  0  0  0  0  0  0  0  0  0  0  0
   -1.2857    1.2356   -0.1213 C   0  0  0  0  0  0  0  0  0  0  0  0
   -0.2442    2.0659   -0.2206 C   0  0  0  0  0  0  0  0  0  0  0  0
    0.9148    1.1656   -0.1796 C   0  0  0  0  0  0  0  0  0  0  0  0
    0.5206    0.2330    0.9700 C   0  0  0  0  0  0  0  0  0  0  0  0
    1.4279   -0.9190    0.7637 C   0  0  0  0  0  0  0  0  0  0  0  0
    1.3856   -1.0761   -0.5822 C   0  0  0  0  0  0  0  0  0  0  0  0
    0.4760   -0.0143   -1.0129 C   0  0  0  0  0  0  0  0  0  0  0  0
   -2.4184   -1.0519    0.5884 H   0  0  0  0  0  0  0  0  0  0  0  0
   -1.5949   -1.7619   -0.8111 H   0  0  0  0  0  0  0  0  0  0  0  0
   -0.9283   -2.0518    0.8330 H   0  0  0  0  0  0  0  0  0  0  0  0
   -2.3512    1.4299   -0.1512 H   0  0  0  0  0  0  0  0  0  0  0  0
   -0.2256    3.1430   -0.3105 H   0  0  0  0  0  0  0  0  0  0  0  0
    1.9047    1.5170   -0.2269 H   0  0  0  0  0  0  0  0  0  0  0  0
    0.3569    0.6413    1.9225 H   0  0  0  0  0  0  0  0  0  0  0  0
    1.9792   -1.4846    1.5016 H   0  0  0  0  0  0  0  0  0  0  0  0
    1.9025   -1.8118   -1.1863 H   0  0  0  0  0  0  0  0  0  0  0  0
    0.1951    0.1193   -2.0186 H   0  0  0  0  0  0  0  0  0  0  0  0
  1  2  1  0
  2  3  1  0
  3  4  2  0
  4  5  1  0
  5  6  1  0
  6  7  1  0
  7  8  2  0
  8  9  1  0
  6  2  1  0
  9  2  1  0
  9  5  1  0
  1 10  1  0
  1 11  1  0
  1 12  1  0
  3 13  1  0
  4 14  1  0
  5 15  1  0
  6 16  1  0
  7 17  1  0
  8 18  1  0
  9 19  1  0
M  END
