
     RDKit          3D

 23 24  0  0  0  0  0  0  0  0999 V2000
   -0.9004    1.8515   -0.3222 C   0  0  0  0  0  0  0  0  0  0  0  0
   -0.5967    0.4501   -0.2068 C   0  0  0  0  0  0  0  0  0  0  0  0
   -1.5136   -0.5579   -0.9243 C   0  0  0  0  0  0  0  0  0  0  0  0
   -0.9505   -1.5149    0.1358 C   0  0  0  0  0  0  0  0  0  0  0  0
    0.5331   -1.5654   -0.1232 C   0  0  0  0  0  0  0  0  0  0  0  0
    0.7353   -0.1048   -0.5714 C   0  0  0  0  0  0  0  0  0  0  0  0
    1.9048    0.5200    0.1056 C   0  0  0  0  0  0  0  0  0  0  0  0
    1.8976    0.4288    1.4753 O   0  0  0  0  0  0  0  0  0  0  0  0
   -1.0416   -0.2997    1.0575 C   0  0  0  0  0  0  0  0  0  0  0  0
   -1.3547    2.0750   -1.3288 H   0  0  0  0  0  0  0  0  0  0  0  0
   -1.6217    2.2109    0.4672 H   0  0  0  0  0  0  0  0  0  0  0  0
   -0.0166    2.4928   -0.2448 H   0  0  0  0  0  0  0  0  0  0  0  0
   -1.1427   -0.7328   -1.9317 H   0  0  0  0  0  0  0  0  0  0  0  0
   -2.5772   -0.3891   -0.7725 H   0  0  0  0  0  0  0  0  0  0  0  0
   -1.4948   -2.3813    0.3742 H   0  0  0  0  0  0  0  0  0  0  0  0
    0.8304   -2.2745   -0.8963 H   0  0  0  0  0  0  0  0  0  0  0  0
    1.0642   -1.6885    0.8427 H   0  0  0  0  0  0  0  0  0  0  0  0
    0.9149   -0.1570   -1.6642 H   0  0  0  0  0  0  0  0  0  0  0  0
    2.0222    1.5611   -0.1789 H   0  0  0  0  0  0  0  0  0  0  0  0
    2.8177   -0.0189   -0.2548 H   0  0  0  0  0  0  0  0  0  0  0  0
    2.8360    0.4413    1.7914 H   0  0  0  0  0  0  0  0  0  0  0  0
   -2.0650   -0.0226    1.3397 H   0  0  0  0  0  0  0  0  0  0  0  0
   -0.2808   -0.3241    1.8304 H   0  0  0  0  0  0  0  0  0  0  0  0
  1  2  1  0
  2  3  1  0
  3  4  1  0
  4  5  1  0
  5  6  1  0
  6  7  1  0
  7  8  1  0
  4  9  1  0
  6  2  1  0
  9  2  1  0
  1 10  1  0
  1 11  1  0
  1 12  1  0
  3 13  1  0
  3 14  1  0
  4 15  1  0
  5 16  1  0
  5 17  1  0
  6 18  1  0
  7 19  1  0
  7 20  1  0
  8 21  1  0
  9 22  1  0
  9 23  1  0
M  END
