
     RDKit          3D

 21 23  0  0  0  0  0  0  0  0999 V2000
   -1.2492    1.5389   -0.1341 C   0  0  0  0  0  0  0  0  0  0  0  0
   -0.2380    0.4409   -0.0921 C   0  0  0  0  0  0  0  0  0  0  0  0
    1.1184    0.9336   -0.4747 C   0  0  0  0  0  0  0  0  0  0  0  0
    2.1689   -0.0588   -0.0822 C   0  0  0  0  0  0  0  0  0  0  0  0
    1.6788   -1.3293   -0.0914 O   0  0  0  0  0  0  0  0  0  0  0  0
    0.3800   -1.5042    0.2063 C   0  0  0  0  0  0  0  0  0  0  0  0
   -0.6032   -0.8548   -0.7317 C   0  0  0  0  0  0  0  0  0  0  0  0
   -1.5656   -1.0589    0.4053 C   0  0  0  0  0  0  0  0  0  0  0  0
   -0.3218   -0.5027    1.0641 C   0  0  0  0  0  0  0  0  0  0  0  0
   -0.7231    2.5216   -0.0047 H   0  0  0  0  0  0  0  0  0  0  0  0
   -1.7618    1.6182   -1.1301 H   0  0  0  0  0  0  0  0  0  0  0  0
   -1.9842    1.5058    0.7049 H   0  0  0  0  0  0  0  0  0  0  0  0
    1.1473    1.1376   -1.5838 H   0  0  0  0  0  0  0  0  0  0  0  0
    1.3176    1.8862    0.0513 H   0  0  0  0  0  0  0  0  0  0  0  0
    2.6671    0.2397    0.8663 H   0  0  0  0  0  0  0  0  0  0  0  0
    2.9702   -0.0087   -0.8716 H   0  0  0  0  0  0  0  0  0  0  0  0
    0.1409   -2.5404    0.4879 H   0  0  0  0  0  0  0  0  0  0  0  0
   -0.7478   -1.0658   -1.6979 H   0  0  0  0  0  0  0  0  0  0  0  0
   -2.4578   -0.4599    0.4357 H   0  0  0  0  0  0  0  0  0  0  0  0
   -1.7387   -2.1239    0.6354 H   0  0  0  0  0  0  0  0  0  0  0  0
   -0.1981   -0.3151    2.0373 H   0  0  0  0  0  0  0  0  0  0  0  0
  1  2  1  0
  2  3  1  0
  3  4  1  0
  4  5  1  0
  5  6  1  0
  6  7  1  0
  7  8  1  0
  8  9  1  0
  7  2  1  0
  9  2  1  0
  9  6  1  0
  1 10  1  0
  1 11  1  0
  1 12  1  0
  3 13  1  0
  3 14  1  0
  4 15  1  0
  4 16  1  0
  6 17  1  0
  7 18  1  0
  8 19  1  0
  8 20  1  0
  9 21  1  0
M  END
