
     RDKit          3D

 17 18  0  0  0  0  0  0  0  0999 V2000
   -1.0712   -1.3716    0.4777 C   0  0  0  0  0  0  0  0  0  0  0  0
   -0.9872    0.0968    0.2264 C   0  0  0  0  0  0  0  0  0  0  0  0
   -2.1603    0.8044    0.0776 O   0  0  0  0  0  0  0  0  0  0  0  0
   -1.1995    0.8439   -0.8922 C   0  0  0  0  0  0  0  0  0  0  0  0
   -0.0732    1.7702   -0.5994 C   0  0  0  0  0  0  0  0  0  0  0  0
    0.3032    2.8193   -1.0813 O   0  0  0  0  0  0  0  0  0  0  0  0
    0.3103    0.8276    0.4867 C   0  0  0  0  0  0  0  0  0  0  0  0
    1.5413    0.0483    0.0306 C   0  0  0  0  0  0  0  0  0  0  0  0
    1.6449   -1.1707    0.6776 O   0  0  0  0  0  0  0  0  0  0  0  0
   -2.0952   -1.7142    0.2532 H   0  0  0  0  0  0  0  0  0  0  0  0
   -0.3901   -1.9819   -0.1483 H   0  0  0  0  0  0  0  0  0  0  0  0
   -0.9221   -1.5620    1.5736 H   0  0  0  0  0  0  0  0  0  0  0  0
   -1.4015    0.5486   -1.9363 H   0  0  0  0  0  0  0  0  0  0  0  0
    0.4041    1.2692    1.4926 H   0  0  0  0  0  0  0  0  0  0  0  0
    2.4152    0.6551    0.3254 H   0  0  0  0  0  0  0  0  0  0  0  0
    1.4991   -0.0989   -1.0612 H   0  0  0  0  0  0  0  0  0  0  0  0
    2.1823   -1.7842    0.0973 H   0  0  0  0  0  0  0  0  0  0  0  0
  1  2  1  0
  2  3  1  0
  3  4  1  0
  4  5  1  0
  5  6  2  0
  5  7  1  0
  7  8  1  0
  8  9  1  0
  4  2  1  0
  7  2  1  0
  1 10  1  0
  1 11  1  0
  1 12  1  0
  4 13  1  0
  7 14  1  0
  8 15  1  0
  8 16  1  0
  9 17  1  0
M  END
