
     RDKit          2D

 19 21  0  0  0  0  0  0  0  0999 V2000
   -1.1054    4.0360    0.0000 C   0  0  0  0  0  0  0  0  0  0  0  0
   -1.4937    2.5871    0.0000 C   0  0  0  0  0  0  0  0  0  0  0  0
   -2.9426    2.9753    0.0000 C   0  0  0  0  0  0  0  0  0  0  0  0
   -3.3308    1.5265    0.0000 O   0  0  0  0  0  0  0  0  0  0  0  0
   -1.8819    1.1382    0.0000 C   0  0  0  0  0  0  0  0  0  0  0  0
   -0.4330    0.7500    0.0000 C   0  0  0  0  0  0  0  0  0  0  0  0
    0.8660    0.0000    0.0000 C   0  0  0  0  0  0  0  0  0  0  0  0
   -0.4330   -0.7500    0.0000 O   0  0  0  0  0  0  0  0  0  0  0  0
   -0.0448    2.1989    0.0000 C   0  0  0  0  0  0  0  0  0  0  0  0
   -0.7172    5.4849    0.0000 H   0  0  0  0  0  0  0  0  0  0  0  0
   -0.2283    3.9128    0.0000 H   0  0  0  0  0  0  0  0  0  0  0  0
   -1.9267    4.3678    0.0000 H   0  0  0  0  0  0  0  0  0  0  0  0
   -4.3915    3.3636    0.0000 H   0  0  0  0  0  0  0  0  0  0  0  0
   -2.8193    3.8525    0.0000 H   0  0  0  0  0  0  0  0  0  0  0  0
   -2.2701   -0.3107    0.0000 H   0  0  0  0  0  0  0  0  0  0  0  0
    1.9631    1.0230    0.0000 H   0  0  0  0  0  0  0  0  0  0  0  0
    1.8302   -1.1491    0.0000 H   0  0  0  0  0  0  0  0  0  0  0  0
    0.2870    3.0201    0.0000 H   0  0  0  0  0  0  0  0  0  0  0  0
    1.4406    1.9902    0.0000 H   0  0  0  0  0  0  0  0  0  0  0  0
  1  2  1  0
  2  3  1  0
  3  4  1  0
  4  5  1  0
  5  6  1  0
  6  7  1  0
  7  8  1  0
  6  9  1  0
  5  2  1  0
  8  6  1  0
  9  2  1  0
  1 10  1  0
  1 11  1  0
  1 12  1  0
  3 13  1  0
  3 14  1  0
  5 15  1  0
  7 16  1  0
  7 17  1  0
  9 18  1  0
  9 19  1  0
M  END
