
     RDKit          3D

 19 21  0  0  0  0  0  0  0  0999 V2000
   -1.3138   -1.3770   -0.2010 C   0  0  0  0  0  0  0  0  0  0  0  0
   -0.6245   -0.1370   -0.0167 C   0  0  0  0  0  0  0  0  0  0  0  0
   -1.3365    1.1153    0.3076 C   0  0  0  0  0  0  0  0  0  0  0  0
   -0.3313    2.0108    0.3793 C   0  0  0  0  0  0  0  0  0  0  0  0
    0.8515    1.2183    0.0397 C   0  0  0  0  0  0  0  0  0  0  0  0
    0.6369   -0.0702    0.8218 C   0  0  0  0  0  0  0  0  0  0  0  0
    1.5359   -1.0180    0.1103 C   0  0  0  0  0  0  0  0  0  0  0  0
    1.2531   -0.6874   -1.2406 O   0  0  0  0  0  0  0  0  0  0  0  0
    0.3546    0.3421   -1.1019 C   0  0  0  0  0  0  0  0  0  0  0  0
   -1.0043   -2.1366    0.5675 H   0  0  0  0  0  0  0  0  0  0  0  0
   -2.4359   -1.3467   -0.1161 H   0  0  0  0  0  0  0  0  0  0  0  0
   -1.0662   -1.8350   -1.1928 H   0  0  0  0  0  0  0  0  0  0  0  0
   -2.4016    1.2478    0.4466 H   0  0  0  0  0  0  0  0  0  0  0  0
   -0.3460    3.0643    0.6232 H   0  0  0  0  0  0  0  0  0  0  0  0
    1.8160    1.6339   -0.0127 H   0  0  0  0  0  0  0  0  0  0  0  0
    0.5676   -0.0311    1.8727 H   0  0  0  0  0  0  0  0  0  0  0  0
    2.5913   -0.7371    0.3477 H   0  0  0  0  0  0  0  0  0  0  0  0
    1.3224   -2.0770    0.3197 H   0  0  0  0  0  0  0  0  0  0  0  0
   -0.0691    0.8209   -1.9543 H   0  0  0  0  0  0  0  0  0  0  0  0
  1  2  1  0
  2  3  1  0
  3  4  2  0
  4  5  1  0
  5  6  1  0
  6  7  1  0
  7  8  1  0
  8  9  1  0
  6  2  1  0
  9  2  1  0
  9  5  1  0
  1 10  1  0
  1 11  1  0
  1 12  1  0
  3 13  1  0
  4 14  1  0
  5 15  1  0
  6 16  1  0
  7 17  1  0
  7 18  1  0
  9 19  1  0
M  END
