
     RDKit          3D

 21 23  0  0  0  0  0  0  0  0999 V2000
    0.0360    2.0486    0.3086 C   0  0  0  0  0  0  0  0  0  0  0  0
   -0.1936    0.5934    0.1582 C   0  0  0  0  0  0  0  0  0  0  0  0
   -1.5599    0.0759    0.6332 C   0  0  0  0  0  0  0  0  0  0  0  0
   -1.7749   -1.2337   -0.0824 C   0  0  0  0  0  0  0  0  0  0  0  0
   -0.4206   -1.5678   -0.7091 C   0  0  0  0  0  0  0  0  0  0  0  0
    0.5139   -1.7403    0.3094 O   0  0  0  0  0  0  0  0  0  0  0  0
    0.8781   -0.4191    0.2369 C   0  0  0  0  0  0  0  0  0  0  0  0
    2.3245   -0.0872    0.1914 C   0  0  0  0  0  0  0  0  0  0  0  0
    0.1047   -0.2002   -1.0067 C   0  0  0  0  0  0  0  0  0  0  0  0
   -0.9597    2.5617    0.3407 H   0  0  0  0  0  0  0  0  0  0  0  0
    0.5078    2.2536    1.2879 H   0  0  0  0  0  0  0  0  0  0  0  0
    0.6118    2.5158   -0.5050 H   0  0  0  0  0  0  0  0  0  0  0  0
   -2.3597    0.7957    0.4289 H   0  0  0  0  0  0  0  0  0  0  0  0
   -1.4356   -0.1080    1.7204 H   0  0  0  0  0  0  0  0  0  0  0  0
   -2.1389   -2.0171    0.5810 H   0  0  0  0  0  0  0  0  0  0  0  0
   -2.4555   -1.0519   -0.9647 H   0  0  0  0  0  0  0  0  0  0  0  0
   -0.4343   -2.3025   -1.5034 H   0  0  0  0  0  0  0  0  0  0  0  0
    2.7380   -0.4338   -0.8008 H   0  0  0  0  0  0  0  0  0  0  0  0
    2.8536   -0.7208    0.9483 H   0  0  0  0  0  0  0  0  0  0  0  0
    2.5604    0.9657    0.3377 H   0  0  0  0  0  0  0  0  0  0  0  0
    0.6038    0.0721   -1.9104 H   0  0  0  0  0  0  0  0  0  0  0  0
  1  2  1  0
  2  3  1  0
  3  4  1  0
  4  5  1  0
  5  6  1  0
  6  7  1  0
  7  8  1  0
  7  9  1  0
  7  2  1  0
  9  2  1  0
  9  5  1  0
  1 10  1  0
  1 11  1  0
  1 12  1  0
  3 13  1  0
  3 14  1  0
  4 15  1  0
  4 16  1  0
  5 17  1  0
  8 18  1  0
  8 19  1  0
  8 20  1  0
  9 21  1  0
M  END
