
     RDKit          2D

 21 23  0  0  0  0  0  0  0  0999 V2000
    1.7477    1.2135    0.0000 C   0  0  0  0  0  0  0  0  0  0  0  0
    0.8660    0.0000    0.0000 C   0  0  0  0  0  0  0  0  0  0  0  0
    1.9807   -1.0037    0.0000 C   0  0  0  0  0  0  0  0  0  0  0  0
    1.3706   -2.3740    0.0000 C   0  0  0  0  0  0  0  0  0  0  0  0
   -0.1211   -2.2172    0.0000 C   0  0  0  0  0  0  0  0  0  0  0  0
   -1.3770   -0.4157    0.0000 C   0  0  0  0  0  0  0  0  0  0  0  0
   -0.4330    0.7500    0.0000 C   0  0  0  0  0  0  0  0  0  0  0  0
   -1.1830    2.0490    0.0000 C   0  0  0  0  0  0  0  0  0  0  0  0
   -0.4330   -0.7500    0.0000 C   0  0  0  0  0  0  0  0  0  0  0  0
    2.6294    2.4271    0.0000 H   0  0  0  0  0  0  0  0  0  0  0  0
    0.6507    2.2366    0.0000 H   0  0  0  0  0  0  0  0  0  0  0  0
    2.6085    0.7364    0.0000 H   0  0  0  0  0  0  0  0  0  0  0  0
    2.6520   -0.2840    0.0000 H   0  0  0  0  0  0  0  0  0  0  0  0
    3.2798   -1.7537    0.0000 H   0  0  0  0  0  0  0  0  0  0  0  0
    2.1206   -3.6731    0.0000 H   0  0  0  0  0  0  0  0  0  0  0  0
   -2.6491    0.3791    0.0000 H   0  0  0  0  0  0  0  0  0  0  0  0
   -2.4560   -1.4577    0.0000 H   0  0  0  0  0  0  0  0  0  0  0  0
   -1.9330    3.3481    0.0000 H   0  0  0  0  0  0  0  0  0  0  0  0
    0.0149    2.9518    0.0000 H   0  0  0  0  0  0  0  0  0  0  0  0
   -2.5638    1.4630    0.0000 H   0  0  0  0  0  0  0  0  0  0  0  0
   -1.2301   -0.7361    0.0000 H   0  0  0  0  0  0  0  0  0  0  0  0
  1  2  1  0
  2  3  1  0
  3  4  1  0
  4  5  2  0
  5  6  1  0
  6  7  1  0
  7  8  1  0
  7  9  1  0
  7  2  1  0
  9  2  1  0
  9  5  1  0
  1 10  1  0
  1 11  1  0
  1 12  1  0
  3 13  1  0
  3 14  1  0
  4 15  1  0
  6 16  1  0
  6 17  1  0
  8 18  1  0
  8 19  1  0
  8 20  1  0
  9 21  1  0
M  END
