
     RDKit          3D

 19 21  0  0  0  0  0  0  0  0999 V2000
   -2.1638    0.0978    0.0930 C   0  0  0  0  0  0  0  0  0  0  0  0
   -0.6833    0.0894    0.1805 C   0  0  0  0  0  0  0  0  0  0  0  0
   -0.0710    1.4721    0.0763 C   0  0  0  0  0  0  0  0  0  0  0  0
    1.2795    1.4515    0.1968 O   0  0  0  0  0  0  0  0  0  0  0  0
    1.8694    0.2340    0.3359 C   0  0  0  0  0  0  0  0  0  0  0  0
    1.3301   -0.8778   -0.4467 C   0  0  0  0  0  0  0  0  0  0  0  0
   -0.0558   -0.6880   -0.9865 C   0  0  0  0  0  0  0  0  0  0  0  0
    1.1361   -0.8119    1.0299 C   0  0  0  0  0  0  0  0  0  0  0  0
   -0.1787   -0.5294    1.2974 O   0  0  0  0  0  0  0  0  0  0  0  0
   -2.5271   -0.8764    0.5358 H   0  0  0  0  0  0  0  0  0  0  0  0
   -2.6199    0.9161    0.6499 H   0  0  0  0  0  0  0  0  0  0  0  0
   -2.4531    0.0956   -0.9887 H   0  0  0  0  0  0  0  0  0  0  0  0
   -0.6026    2.1814    0.7332 H   0  0  0  0  0  0  0  0  0  0  0  0
   -0.3111    1.8117   -0.9751 H   0  0  0  0  0  0  0  0  0  0  0  0
    2.9687    0.2596    0.4677 H   0  0  0  0  0  0  0  0  0  0  0  0
    1.9647   -1.6865   -0.8145 H   0  0  0  0  0  0  0  0  0  0  0  0
   -0.5869   -1.6143   -1.2002 H   0  0  0  0  0  0  0  0  0  0  0  0
    0.0143   -0.0492   -1.8924 H   0  0  0  0  0  0  0  0  0  0  0  0
    1.6904   -1.4759    1.7076 H   0  0  0  0  0  0  0  0  0  0  0  0
  1  2  1  0
  2  3  1  0
  3  4  1  0
  4  5  1  0
  5  6  1  0
  6  7  1  0
  6  8  1  0
  8  9  1  0
  7  2  1  0
  9  2  1  0
  8  5  1  0
  1 10  1  0
  1 11  1  0
  1 12  1  0
  3 13  1  0
  3 14  1  0
  5 15  1  0
  6 16  1  0
  7 17  1  0
  7 18  1  0
  8 19  1  0
M  END
