
     RDKit          3D

 21 23  0  0  0  0  0  0  0  0999 V2000
   -1.7677    0.7874   -1.0563 C   0  0  0  0  0  0  0  0  0  0  0  0
   -1.0527    0.3223    0.1696 C   0  0  0  0  0  0  0  0  0  0  0  0
   -1.7829   -0.5761    1.0765 C   0  0  0  0  0  0  0  0  0  0  0  0
   -0.5668   -1.0621    0.3367 C   0  0  0  0  0  0  0  0  0  0  0  0
    0.7211   -0.5832    0.8958 C   0  0  0  0  0  0  0  0  0  0  0  0
    1.9794   -0.9161    0.2037 C   0  0  0  0  0  0  0  0  0  0  0  0
    2.0915    0.1402   -0.8334 C   0  0  0  0  0  0  0  0  0  0  0  0
    1.1898    1.0962   -0.6838 C   0  0  0  0  0  0  0  0  0  0  0  0
    0.3326    0.8208    0.4848 C   0  0  0  0  0  0  0  0  0  0  0  0
   -1.9297   -0.0084   -1.8131 H   0  0  0  0  0  0  0  0  0  0  0  0
   -1.3357    1.7171   -1.4988 H   0  0  0  0  0  0  0  0  0  0  0  0
   -2.8066    1.0905   -0.7345 H   0  0  0  0  0  0  0  0  0  0  0  0
   -2.7260   -0.9840    0.7249 H   0  0  0  0  0  0  0  0  0  0  0  0
   -1.6675   -0.3389    2.1703 H   0  0  0  0  0  0  0  0  0  0  0  0
   -0.6400   -1.8324   -0.4299 H   0  0  0  0  0  0  0  0  0  0  0  0
    0.7790   -0.6710    2.0012 H   0  0  0  0  0  0  0  0  0  0  0  0
    2.0240   -1.9266   -0.2437 H   0  0  0  0  0  0  0  0  0  0  0  0
    2.8299   -0.7584    0.9174 H   0  0  0  0  0  0  0  0  0  0  0  0
    2.8439    0.1399   -1.6494 H   0  0  0  0  0  0  0  0  0  0  0  0
    1.0863    1.9849   -1.3420 H   0  0  0  0  0  0  0  0  0  0  0  0
    0.3980    1.5578    1.3041 H   0  0  0  0  0  0  0  0  0  0  0  0
  1  2  1  0
  2  3  1  0
  3  4  1  0
  4  5  1  0
  5  6  1  0
  6  7  1  0
  7  8  2  0
  8  9  1  0
  4  2  1  0
  9  5  1  0
  9  2  1  0
  1 10  1  0
  1 11  1  0
  1 12  1  0
  3 13  1  0
  3 14  1  0
  4 15  1  0
  5 16  1  0
  6 17  1  0
  6 18  1  0
  7 19  1  0
  8 20  1  0
  9 21  1  0
M  END
