
     RDKit          3D

 19 23  0  0  0  0  0  0  0  0999 V2000
    2.1290   -0.2517    0.0556 C   0  0  0  0  0  0  0  0  0  0  0  0
    0.6823   -0.1185    0.0867 C   0  0  0  0  0  0  0  0  0  0  0  0
    0.0126    0.7909    1.0342 C   0  0  0  0  0  0  0  0  0  0  0  0
   -1.4145    0.5903    0.8768 C   0  0  0  0  0  0  0  0  0  0  0  0
   -1.5596   -0.7820    0.2039 C   0  0  0  0  0  0  0  0  0  0  0  0
   -0.9425   -0.6796   -1.1126 C   0  0  0  0  0  0  0  0  0  0  0  0
   -0.1991   -1.3003    0.0005 C   0  0  0  0  0  0  0  0  0  0  0  0
   -0.0530    0.5099   -1.0431 C   0  0  0  0  0  0  0  0  0  0  0  0
   -0.7285    1.4229   -0.1088 C   0  0  0  0  0  0  0  0  0  0  0  0
    2.6970    0.5423   -0.4606 H   0  0  0  0  0  0  0  0  0  0  0  0
    2.5225   -0.2481    1.1158 H   0  0  0  0  0  0  0  0  0  0  0  0
    2.4351   -1.2649   -0.3328 H   0  0  0  0  0  0  0  0  0  0  0  0
    0.5135    1.4120    1.7585 H   0  0  0  0  0  0  0  0  0  0  0  0
   -2.1834    0.9255    1.5683 H   0  0  0  0  0  0  0  0  0  0  0  0
   -2.4243   -1.4003    0.4483 H   0  0  0  0  0  0  0  0  0  0  0  0
   -1.2426   -1.1704   -2.0178 H   0  0  0  0  0  0  0  0  0  0  0  0
    0.1107   -2.3243    0.0568 H   0  0  0  0  0  0  0  0  0  0  0  0
    0.4653    0.8575   -1.9054 H   0  0  0  0  0  0  0  0  0  0  0  0
   -0.8207    2.4889   -0.2245 H   0  0  0  0  0  0  0  0  0  0  0  0
  1  2  1  0
  2  3  1  0
  3  4  1  0
  4  5  1  0
  5  6  1  0
  6  7  1  0
  6  8  1  0
  8  9  1  0
  7  2  1  0
  8  2  1  0
  9  3  1  0
  9  4  1  0
  7  5  1  0
  1 10  1  0
  1 11  1  0
  1 12  1  0
  3 13  1  0
  4 14  1  0
  5 15  1  0
  6 16  1  0
  7 17  1  0
  8 18  1  0
  9 19  1  0
M  END
