
     RDKit          3D

 23 24  0  0  0  0  0  0  0  0999 V2000
   -1.7245   -1.5591   -0.1604 C   0  0  0  0  0  0  0  0  0  0  0  0
   -0.8291   -0.3993    0.0638 C   0  0  0  0  0  0  0  0  0  0  0  0
   -1.4206    0.8363    0.6609 C   0  0  0  0  0  0  0  0  0  0  0  0
   -0.4005    1.9311    0.6177 C   0  0  0  0  0  0  0  0  0  0  0  0
    0.8988    1.5117    0.6489 O   0  0  0  0  0  0  0  0  0  0  0  0
    1.1310    0.2729    0.1198 C   0  0  0  0  0  0  0  0  0  0  0  0
    2.5506   -0.0678   -0.1376 C   0  0  0  0  0  0  0  0  0  0  0  0
    0.1552   -0.0701   -1.0124 C   0  0  0  0  0  0  0  0  0  0  0  0
    0.3737   -0.7833    0.9377 C   0  0  0  0  0  0  0  0  0  0  0  0
   -2.3840   -1.4798   -1.0428 H   0  0  0  0  0  0  0  0  0  0  0  0
   -1.1450   -2.5009   -0.2293 H   0  0  0  0  0  0  0  0  0  0  0  0
   -2.3880   -1.6674    0.7196 H   0  0  0  0  0  0  0  0  0  0  0  0
   -1.6573    0.6428    1.7390 H   0  0  0  0  0  0  0  0  0  0  0  0
   -2.3126    1.1250    0.0823 H   0  0  0  0  0  0  0  0  0  0  0  0
   -0.5514    2.6157    1.5017 H   0  0  0  0  0  0  0  0  0  0  0  0
   -0.5604    2.5554   -0.2732 H   0  0  0  0  0  0  0  0  0  0  0  0
    2.9542   -0.5639    0.7925 H   0  0  0  0  0  0  0  0  0  0  0  0
    2.7063   -0.7422   -1.0046 H   0  0  0  0  0  0  0  0  0  0  0  0
    3.1178    0.8637   -0.3104 H   0  0  0  0  0  0  0  0  0  0  0  0
   -0.0729    0.7530   -1.6851 H   0  0  0  0  0  0  0  0  0  0  0  0
    0.5494   -0.9455   -1.5531 H   0  0  0  0  0  0  0  0  0  0  0  0
    0.2681   -0.5550    1.9952 H   0  0  0  0  0  0  0  0  0  0  0  0
    0.7411   -1.7732    0.6451 H   0  0  0  0  0  0  0  0  0  0  0  0
  1  2  1  0
  2  3  1  0
  3  4  1  0
  4  5  1  0
  5  6  1  0
  6  7  1  0
  6  8  1  0
  6  9  1  0
  8  2  1  0
  9  2  1  0
  1 10  1  0
  1 11  1  0
  1 12  1  0
  3 13  1  0
  3 14  1  0
  4 15  1  0
  4 16  1  0
  7 17  1  0
  7 18  1  0
  7 19  1  0
  8 20  1  0
  8 21  1  0
  9 22  1  0
  9 23  1  0
M  END
