
     RDKit          3D

 17 18  0  0  0  0  0  0  0  0999 V2000
    1.8456   -0.7026   -0.3168 C   0  0  0  0  0  0  0  0  0  0  0  0
    0.7357   -0.1121    0.4560 C   0  0  0  0  0  0  0  0  0  0  0  0
    0.5383   -0.3483    1.7894 O   0  0  0  0  0  0  0  0  0  0  0  0
    0.6608    0.9373    1.3219 C   0  0  0  0  0  0  0  0  0  0  0  0
   -0.4490    1.5699    0.5162 C   0  0  0  0  0  0  0  0  0  0  0  0
   -0.5580    0.3078   -0.2637 C   0  0  0  0  0  0  0  0  0  0  0  0
   -1.5397   -0.6118    0.0647 O   0  0  0  0  0  0  0  0  0  0  0  0
   -2.2641   -1.3900   -0.8098 C   0  0  0  0  0  0  0  0  0  0  0  0
   -1.9549   -1.2000   -2.0329 O   0  0  0  0  0  0  0  0  0  0  0  0
    2.8517   -0.3096   -0.0485 H   0  0  0  0  0  0  0  0  0  0  0  0
    1.6839   -0.4830   -1.4007 H   0  0  0  0  0  0  0  0  0  0  0  0
    1.8366   -1.8134   -0.2288 H   0  0  0  0  0  0  0  0  0  0  0  0
    1.3819    1.5593    1.8580 H   0  0  0  0  0  0  0  0  0  0  0  0
   -1.3178    1.9234    1.0747 H   0  0  0  0  0  0  0  0  0  0  0  0
   -0.0380    2.3985   -0.1001 H   0  0  0  0  0  0  0  0  0  0  0  0
   -0.3869    0.3759   -1.3569 H   0  0  0  0  0  0  0  0  0  0  0  0
   -3.0261   -2.1010   -0.5227 H   0  0  0  0  0  0  0  0  0  0  0  0
  1  2  1  0
  2  3  1  0
  3  4  1  0
  4  5  1  0
  5  6  1  0
  6  7  1  0
  7  8  1  0
  8  9  2  0
  4  2  1  0
  6  2  1  0
  1 10  1  0
  1 11  1  0
  1 12  1  0
  4 13  1  0
  5 14  1  0
  5 15  1  0
  6 16  1  0
  8 17  1  0
M  END
