
     RDKit          3D

 19 20  0  0  0  0  0  0  0  0999 V2000
   -1.4764   -1.0757   -0.3223 C   0  0  0  0  0  0  0  0  0  0  0  0
   -0.5729    0.0176    0.1717 C   0  0  0  0  0  0  0  0  0  0  0  0
   -0.9070    1.4496   -0.1223 C   0  0  0  0  0  0  0  0  0  0  0  0
    0.3845    2.1430   -0.3841 C   0  0  0  0  0  0  0  0  0  0  0  0
    0.4593    3.3372   -0.7314 O   0  0  0  0  0  0  0  0  0  0  0  0
    1.4073    1.2274   -0.1698 O   0  0  0  0  0  0  0  0  0  0  0  0
    0.8825   -0.0513    0.1115 C   0  0  0  0  0  0  0  0  0  0  0  0
    1.6493   -1.1885   -0.4674 C   0  0  0  0  0  0  0  0  0  0  0  0
    0.1524   -0.2554    1.4284 C   0  0  0  0  0  0  0  0  0  0  0  0
   -1.1199   -1.5842   -1.2238 H   0  0  0  0  0  0  0  0  0  0  0  0
   -2.4601   -0.5926   -0.5776 H   0  0  0  0  0  0  0  0  0  0  0  0
   -1.7239   -1.8283    0.4622 H   0  0  0  0  0  0  0  0  0  0  0  0
   -1.3574    1.8902    0.7743 H   0  0  0  0  0  0  0  0  0  0  0  0
   -1.5538    1.6050   -0.9836 H   0  0  0  0  0  0  0  0  0  0  0  0
    1.0781   -2.1182   -0.5814 H   0  0  0  0  0  0  0  0  0  0  0  0
    2.0068   -0.8726   -1.4810 H   0  0  0  0  0  0  0  0  0  0  0  0
    2.5839   -1.3229    0.1453 H   0  0  0  0  0  0  0  0  0  0  0  0
    0.3866    0.5361    2.1681 H   0  0  0  0  0  0  0  0  0  0  0  0
    0.1807   -1.3164    1.7832 H   0  0  0  0  0  0  0  0  0  0  0  0
  1  2  1  0
  2  3  1  0
  3  4  1  0
  4  5  2  0
  4  6  1  0
  6  7  1  0
  7  8  1  0
  7  9  1  0
  7  2  1  0
  9  2  1  0
  1 10  1  0
  1 11  1  0
  1 12  1  0
  3 13  1  0
  3 14  1  0
  8 15  1  0
  8 16  1  0
  8 17  1  0
  9 18  1  0
  9 19  1  0
M  END
