
     RDKit          3D

 21 23  0  0  0  0  0  0  0  0999 V2000
    2.3673   -0.6249   -0.3786 C   0  0  0  0  0  0  0  0  0  0  0  0
    1.1471   -0.1892    0.4050 C   0  0  0  0  0  0  0  0  0  0  0  0
    1.1099    1.1942    0.8711 C   0  0  0  0  0  0  0  0  0  0  0  0
    0.2342    0.8539   -0.3095 C   0  0  0  0  0  0  0  0  0  0  0  0
   -0.9191    0.0049    0.0545 C   0  0  0  0  0  0  0  0  0  0  0  0
   -1.8695    0.4982    1.0874 C   0  0  0  0  0  0  0  0  0  0  0  0
   -2.9181    0.1405    0.2284 O   0  0  0  0  0  0  0  0  0  0  0  0
   -2.0488   -0.1752   -0.8430 C   0  0  0  0  0  0  0  0  0  0  0  0
   -0.0163   -1.1108    0.3804 C   0  0  0  0  0  0  0  0  0  0  0  0
    3.1566    0.1265   -0.4018 H   0  0  0  0  0  0  0  0  0  0  0  0
    2.7760   -1.5146    0.1528 H   0  0  0  0  0  0  0  0  0  0  0  0
    2.0897   -0.9881   -1.3941 H   0  0  0  0  0  0  0  0  0  0  0  0
    0.5140    1.5148    1.7653 H   0  0  0  0  0  0  0  0  0  0  0  0
    1.9787    1.8208    0.6907 H   0  0  0  0  0  0  0  0  0  0  0  0
    0.5270    1.0924   -1.3243 H   0  0  0  0  0  0  0  0  0  0  0  0
   -1.7493    1.5824    1.2549 H   0  0  0  0  0  0  0  0  0  0  0  0
   -1.7975   -0.0870    2.0137 H   0  0  0  0  0  0  0  0  0  0  0  0
   -2.2802   -1.2168   -1.2038 H   0  0  0  0  0  0  0  0  0  0  0  0
   -2.1202    0.6067   -1.6288 H   0  0  0  0  0  0  0  0  0  0  0  0
   -0.2306   -1.6985    1.2871 H   0  0  0  0  0  0  0  0  0  0  0  0
    0.0493   -1.8303   -0.4889 H   0  0  0  0  0  0  0  0  0  0  0  0
  1  2  1  0
  2  3  1  0
  3  4  1  0
  4  5  1  0
  5  6  1  0
  6  7  1  0
  7  8  1  0
  5  9  1  0
  4  2  1  0
  8  5  1  0
  9  2  1  0
  1 10  1  0
  1 11  1  0
  1 12  1  0
  3 13  1  0
  3 14  1  0
  4 15  1  0
  6 16  1  0
  6 17  1  0
  8 18  1  0
  8 19  1  0
  9 20  1  0
  9 21  1  0
M  END
