
     RDKit          3D

 19 20  0  0  0  0  0  0  0  0999 V2000
    1.9445   -0.6117    0.5798 C   0  0  0  0  0  0  0  0  0  0  0  0
    0.7345   -0.2088   -0.2625 C   0  0  0  0  0  0  0  0  0  0  0  0
    0.7164    1.1529   -0.7938 C   0  0  0  0  0  0  0  0  0  0  0  0
   -0.2047    0.8015    0.3343 C   0  0  0  0  0  0  0  0  0  0  0  0
    0.0728    1.1735    1.6287 O   0  0  0  0  0  0  0  0  0  0  0  0
   -1.5992    0.4338   -0.0837 C   0  0  0  0  0  0  0  0  0  0  0  0
   -1.5404   -1.0443   -0.3037 C   0  0  0  0  0  0  0  0  0  0  0  0
   -0.1387   -1.2863   -0.7341 C   0  0  0  0  0  0  0  0  0  0  0  0
    0.2023   -2.2538   -1.3861 O   0  0  0  0  0  0  0  0  0  0  0  0
    2.8483   -0.4290   -0.0197 H   0  0  0  0  0  0  0  0  0  0  0  0
    1.8208   -1.6420    0.9189 H   0  0  0  0  0  0  0  0  0  0  0  0
    1.9548    0.0421    1.4989 H   0  0  0  0  0  0  0  0  0  0  0  0
    1.5543    1.8105   -0.5196 H   0  0  0  0  0  0  0  0  0  0  0  0
    0.2711    1.3921   -1.7961 H   0  0  0  0  0  0  0  0  0  0  0  0
   -0.3937    2.0325    1.8072 H   0  0  0  0  0  0  0  0  0  0  0  0
   -2.3763    0.7593    0.6174 H   0  0  0  0  0  0  0  0  0  0  0  0
   -1.8472    0.9187   -1.0736 H   0  0  0  0  0  0  0  0  0  0  0  0
   -1.7541   -1.6203    0.6363 H   0  0  0  0  0  0  0  0  0  0  0  0
   -2.2656   -1.4206   -1.0485 H   0  0  0  0  0  0  0  0  0  0  0  0
  1  2  1  0
  2  3  1  0
  3  4  1  0
  4  5  1  0
  4  6  1  0
  6  7  1  0
  7  8  1  0
  8  9  2  0
  4  2  1  0
  8  2  1  0
  1 10  1  0
  1 11  1  0
  1 12  1  0
  3 13  1  0
  3 14  1  0
  5 15  1  0
  6 16  1  0
  6 17  1  0
  7 18  1  0
  7 19  1  0
M  END
