
     RDKit          3D

 21 23  0  0  0  0  0  0  0  0999 V2000
   -2.1393   -0.4849    0.5247 C   0  0  0  0  0  0  0  0  0  0  0  0
   -0.7114   -0.4989    0.1800 C   0  0  0  0  0  0  0  0  0  0  0  0
   -0.2090   -0.9850   -1.1593 C   0  0  0  0  0  0  0  0  0  0  0  0
    0.9673   -0.0388   -0.9876 C   0  0  0  0  0  0  0  0  0  0  0  0
    2.0539   -0.7413   -0.2037 C   0  0  0  0  0  0  0  0  0  0  0  0
    1.5743   -1.0005    1.0442 O   0  0  0  0  0  0  0  0  0  0  0  0
    0.3691   -0.3649    1.2342 C   0  0  0  0  0  0  0  0  0  0  0  0
    0.2051    0.6006    0.1378 C   0  0  0  0  0  0  0  0  0  0  0  0
   -0.0272    2.0266    0.2587 C   0  0  0  0  0  0  0  0  0  0  0  0
   -2.7019    0.3980    0.1589 H   0  0  0  0  0  0  0  0  0  0  0  0
   -2.2521   -0.5899    1.6264 H   0  0  0  0  0  0  0  0  0  0  0  0
   -2.6357   -1.3737    0.0811 H   0  0  0  0  0  0  0  0  0  0  0  0
    0.0517   -2.0611   -1.0962 H   0  0  0  0  0  0  0  0  0  0  0  0
   -0.8391   -0.7311   -2.0247 H   0  0  0  0  0  0  0  0  0  0  0  0
    1.2544    0.5620   -1.8316 H   0  0  0  0  0  0  0  0  0  0  0  0
    2.9580   -0.1142   -0.2431 H   0  0  0  0  0  0  0  0  0  0  0  0
    2.2835   -1.6806   -0.7747 H   0  0  0  0  0  0  0  0  0  0  0  0
    0.0165   -0.2047    2.2464 H   0  0  0  0  0  0  0  0  0  0  0  0
   -0.5313    2.2762    1.1871 H   0  0  0  0  0  0  0  0  0  0  0  0
   -0.6219    2.4177   -0.6011 H   0  0  0  0  0  0  0  0  0  0  0  0
    0.9350    2.5885    0.2424 H   0  0  0  0  0  0  0  0  0  0  0  0
  1  2  1  0
  2  3  1  0
  3  4  1  0
  4  5  1  0
  5  6  1  0
  6  7  1  0
  7  8  1  0
  8  9  1  0
  7  2  1  0
  8  2  1  0
  8  4  1  0
  1 10  1  0
  1 11  1  0
  1 12  1  0
  3 13  1  0
  3 14  1  0
  4 15  1  0
  5 16  1  0
  5 17  1  0
  7 18  1  0
  9 19  1  0
  9 20  1  0
  9 21  1  0
M  END
