
     RDKit          3D

 21 23  0  0  0  0  0  0  0  0999 V2000
   -2.4119    0.6324    0.4211 C   0  0  0  0  0  0  0  0  0  0  0  0
   -1.1422   -0.0984    0.1649 C   0  0  0  0  0  0  0  0  0  0  0  0
   -1.0358   -0.7395   -1.2276 C   0  0  0  0  0  0  0  0  0  0  0  0
    0.4125   -0.2998   -1.2369 C   0  0  0  0  0  0  0  0  0  0  0  0
    0.0507    0.7027   -0.2381 C   0  0  0  0  0  0  0  0  0  0  0  0
    1.1649   -0.2120    0.0465 C   0  0  0  0  0  0  0  0  0  0  0  0
    2.5267    0.3629    0.0597 C   0  0  0  0  0  0  0  0  0  0  0  0
    0.6215   -0.9784    1.2411 C   0  0  0  0  0  0  0  0  0  0  0  0
   -0.7448   -1.0149    1.1098 O   0  0  0  0  0  0  0  0  0  0  0  0
   -2.9725    0.0814    1.2208 H   0  0  0  0  0  0  0  0  0  0  0  0
   -3.0388    0.8114   -0.4544 H   0  0  0  0  0  0  0  0  0  0  0  0
   -2.1517    1.6177    0.8846 H   0  0  0  0  0  0  0  0  0  0  0  0
   -1.6015   -0.1127   -1.9717 H   0  0  0  0  0  0  0  0  0  0  0  0
   -1.2219   -1.8086   -1.2569 H   0  0  0  0  0  0  0  0  0  0  0  0
    0.9245   -0.0818   -2.1722 H   0  0  0  0  0  0  0  0  0  0  0  0
    0.0849    1.7615   -0.3243 H   0  0  0  0  0  0  0  0  0  0  0  0
    2.7583    0.6934    1.1075 H   0  0  0  0  0  0  0  0  0  0  0  0
    2.5352    1.3061   -0.5455 H   0  0  0  0  0  0  0  0  0  0  0  0
    3.3139   -0.2768   -0.3522 H   0  0  0  0  0  0  0  0  0  0  0  0
    1.0895   -1.9705    1.3515 H   0  0  0  0  0  0  0  0  0  0  0  0
    0.8385   -0.3763    2.1724 H   0  0  0  0  0  0  0  0  0  0  0  0
  1  2  1  0
  2  3  1  0
  3  4  1  0
  4  5  1  0
  5  6  1  0
  6  7  1  0
  6  8  1  0
  8  9  1  0
  5  2  1  0
  9  2  1  0
  6  4  1  0
  1 10  1  0
  1 11  1  0
  1 12  1  0
  3 13  1  0
  3 14  1  0
  4 15  1  0
  5 16  1  0
  7 17  1  0
  7 18  1  0
  7 19  1  0
  8 20  1  0
  8 21  1  0
M  END
