
     RDKit          2D

 23 25  0  0  0  0  0  0  0  0999 V2000
   -1.9423    1.2135    0.0000 C   0  0  0  0  0  0  0  0  0  0  0  0
   -1.0607    0.0000    0.0000 C   0  0  0  0  0  0  0  0  0  0  0  0
   -2.3972   -0.6810    0.0000 C   0  0  0  0  0  0  0  0  0  0  0  0
   -2.1625   -2.1625    0.0000 C   0  0  0  0  0  0  0  0  0  0  0  0
   -0.6810   -2.3972    0.0000 C   0  0  0  0  0  0  0  0  0  0  0  0
   -0.0000   -1.0607    0.0000 C   0  0  0  0  0  0  0  0  0  0  0  0
    1.0607    0.0000    0.0000 C   0  0  0  0  0  0  0  0  0  0  0  0
    0.0000    1.0607    0.0000 C   0  0  0  0  0  0  0  0  0  0  0  0
   -0.3607    0.0000    0.0000 C   0  0  0  0  0  0  0  0  0  0  0  0
   -2.8240    2.4271    0.0000 H   0  0  0  0  0  0  0  0  0  0  0  0
   -0.8453    2.2366    0.0000 H   0  0  0  0  0  0  0  0  0  0  0  0
   -2.6396    0.8271    0.0000 H   0  0  0  0  0  0  0  0  0  0  0  0
   -2.8544   -0.0280    0.0000 H   0  0  0  0  0  0  0  0  0  0  0  0
   -3.8461   -1.0692    0.0000 H   0  0  0  0  0  0  0  0  0  0  0  0
   -3.6605   -2.2410    0.0000 H   0  0  0  0  0  0  0  0  0  0  0  0
   -2.2410   -3.6605    0.0000 H   0  0  0  0  0  0  0  0  0  0  0  0
   -1.0692   -3.8461    0.0000 H   0  0  0  0  0  0  0  0  0  0  0  0
    0.7194   -2.9347    0.0000 H   0  0  0  0  0  0  0  0  0  0  0  0
    2.1213    1.0607    0.0000 H   0  0  0  0  0  0  0  0  0  0  0  0
    2.1213   -1.0607    0.0000 H   0  0  0  0  0  0  0  0  0  0  0  0
    0.1828    2.5495    0.0000 H   0  0  0  0  0  0  0  0  0  0  0  0
   -1.8331   -1.2858    0.0000 H   0  0  0  0  0  0  0  0  0  0  0  0
   -2.2427    0.9235    0.0000 H   0  0  0  0  0  0  0  0  0  0  0  0
  1  2  1  0
  2  3  1  0
  3  4  1  0
  4  5  1  0
  5  6  1  0
  6  7  1  0
  7  8  1  0
  8  9  1  0
  6  2  1  0
  8  2  1  0
  9  6  1  0
  1 10  1  0
  1 11  1  0
  1 12  1  0
  3 13  1  0
  3 14  1  0
  4 15  1  0
  4 16  1  0
  5 17  1  0
  5 18  1  0
  7 19  1  0
  7 20  1  0
  8 21  1  0
  9 22  1  0
  9 23  1  0
M  END
