
     RDKit          3D

 21 23  0  0  0  0  0  0  0  0999 V2000
    2.2391    0.6854    0.4891 C   0  0  0  0  0  0  0  0  0  0  0  0
    0.8573    0.1526    0.2835 C   0  0  0  0  0  0  0  0  0  0  0  0
    0.6212   -1.0970   -0.4937 C   0  0  0  0  0  0  0  0  0  0  0  0
   -0.8330   -1.4157   -0.1152 C   0  0  0  0  0  0  0  0  0  0  0  0
   -1.6602   -0.4688   -0.9873 C   0  0  0  0  0  0  0  0  0  0  0  0
   -1.4069    0.9173   -0.5039 C   0  0  0  0  0  0  0  0  0  0  0  0
   -0.2647    1.0666    0.4307 C   0  0  0  0  0  0  0  0  0  0  0  0
   -0.0954    0.0225    1.4298 C   0  0  0  0  0  0  0  0  0  0  0  0
   -0.9186   -1.0491    1.2024 O   0  0  0  0  0  0  0  0  0  0  0  0
    2.2880    1.2907    1.4141 H   0  0  0  0  0  0  0  0  0  0  0  0
    2.4680    1.4048   -0.3495 H   0  0  0  0  0  0  0  0  0  0  0  0
    3.0265   -0.0963    0.4498 H   0  0  0  0  0  0  0  0  0  0  0  0
    0.7161   -0.9793   -1.5744 H   0  0  0  0  0  0  0  0  0  0  0  0
    1.2661   -1.9321   -0.1430 H   0  0  0  0  0  0  0  0  0  0  0  0
   -1.0787   -2.4616   -0.2927 H   0  0  0  0  0  0  0  0  0  0  0  0
   -2.7159   -0.7618   -1.0177 H   0  0  0  0  0  0  0  0  0  0  0  0
   -1.2444   -0.5417   -2.0321 H   0  0  0  0  0  0  0  0  0  0  0  0
   -2.3234    1.3179    0.0217 H   0  0  0  0  0  0  0  0  0  0  0  0
   -1.2481    1.6355   -1.3608 H   0  0  0  0  0  0  0  0  0  0  0  0
   -0.0402    2.1019    0.7318 H   0  0  0  0  0  0  0  0  0  0  0  0
    0.3474    0.2081    2.4174 H   0  0  0  0  0  0  0  0  0  0  0  0
  1  2  1  0
  2  3  1  0
  3  4  1  0
  4  5  1  0
  5  6  1  0
  6  7  1  0
  7  8  1  0
  8  9  1  0
  7  2  1  0
  8  2  1  0
  9  4  1  0
  1 10  1  0
  1 11  1  0
  1 12  1  0
  3 13  1  0
  3 14  1  0
  4 15  1  0
  5 16  1  0
  5 17  1  0
  6 18  1  0
  6 19  1  0
  7 20  1  0
  8 21  1  0
M  END
