
     RDKit          3D

 21 23  0  0  0  0  0  0  0  0999 V2000
    2.2795   -0.0130   -0.0196 C   0  0  0  0  0  0  0  0  0  0  0  0
    0.7967    0.0119   -0.1242 C   0  0  0  0  0  0  0  0  0  0  0  0
   -0.0662    0.1452    1.0808 C   0  0  0  0  0  0  0  0  0  0  0  0
   -0.8614    1.3741    0.7850 C   0  0  0  0  0  0  0  0  0  0  0  0
   -0.7288    1.7043   -0.4940 C   0  0  0  0  0  0  0  0  0  0  0  0
    0.1436    0.7800   -1.2216 C   0  0  0  0  0  0  0  0  0  0  0  0
    0.0056   -0.6909   -1.1101 C   0  0  0  0  0  0  0  0  0  0  0  0
   -1.2473   -1.2229   -0.4226 C   0  0  0  0  0  0  0  0  0  0  0  0
   -1.0439   -1.0143    1.0531 C   0  0  0  0  0  0  0  0  0  0  0  0
    2.5922    0.9436    0.4931 H   0  0  0  0  0  0  0  0  0  0  0  0
    2.5657   -0.8697    0.6333 H   0  0  0  0  0  0  0  0  0  0  0  0
    2.7459   -0.0903   -0.9950 H   0  0  0  0  0  0  0  0  0  0  0  0
    0.4990    0.2134    2.0178 H   0  0  0  0  0  0  0  0  0  0  0  0
   -1.4441    1.8746    1.5614 H   0  0  0  0  0  0  0  0  0  0  0  0
   -1.2265    2.5675   -0.9130 H   0  0  0  0  0  0  0  0  0  0  0  0
    0.7188    1.1474   -2.0876 H   0  0  0  0  0  0  0  0  0  0  0  0
    0.4698   -1.3173   -1.8715 H   0  0  0  0  0  0  0  0  0  0  0  0
   -1.3894   -2.3092   -0.6481 H   0  0  0  0  0  0  0  0  0  0  0  0
   -2.1139   -0.6721   -0.8314 H   0  0  0  0  0  0  0  0  0  0  0  0
   -0.6886   -1.8962    1.5911 H   0  0  0  0  0  0  0  0  0  0  0  0
   -2.0067   -0.6660    1.5232 H   0  0  0  0  0  0  0  0  0  0  0  0
  1  2  1  0
  2  3  1  0
  3  4  1  0
  4  5  2  0
  5  6  1  0
  6  7  1  0
  7  8  1  0
  8  9  1  0
  6  2  1  0
  7  2  1  0
  9  3  1  0
  1 10  1  0
  1 11  1  0
  1 12  1  0
  3 13  1  0
  4 14  1  0
  5 15  1  0
  6 16  1  0
  7 17  1  0
  8 18  1  0
  8 19  1  0
  9 20  1  0
  9 21  1  0
M  END
