
     RDKit          3D

 19 21  0  0  0  0  0  0  0  0999 V2000
    1.5569   -0.5477    1.2411 C   0  0  0  0  0  0  0  0  0  0  0  0
    0.7353   -0.1816    0.0435 C   0  0  0  0  0  0  0  0  0  0  0  0
    1.1251    0.9603   -0.7663 C   0  0  0  0  0  0  0  0  0  0  0  0
   -0.0265    1.1918    0.1114 C   0  0  0  0  0  0  0  0  0  0  0  0
   -1.3906    0.6987   -0.2549 C   0  0  0  0  0  0  0  0  0  0  0  0
   -1.1909   -0.3486   -1.3408 C   0  0  0  0  0  0  0  0  0  0  0  0
   -0.4443   -1.0541   -0.2277 C   0  0  0  0  0  0  0  0  0  0  0  0
   -1.4994   -0.4852    0.6650 C   0  0  0  0  0  0  0  0  0  0  0  0
   -2.1502   -0.7629    1.6345 O   0  0  0  0  0  0  0  0  0  0  0  0
    1.3834    0.0844    2.1168 H   0  0  0  0  0  0  0  0  0  0  0  0
    2.6373   -0.4559    0.9357 H   0  0  0  0  0  0  0  0  0  0  0  0
    1.4164   -1.6423    1.4486 H   0  0  0  0  0  0  0  0  0  0  0  0
    2.0691    1.4845   -0.4299 H   0  0  0  0  0  0  0  0  0  0  0  0
    1.0557    1.0061   -1.8768 H   0  0  0  0  0  0  0  0  0  0  0  0
    0.0565    1.7360    1.0640 H   0  0  0  0  0  0  0  0  0  0  0  0
   -2.2148    1.3592   -0.3248 H   0  0  0  0  0  0  0  0  0  0  0  0
   -2.1425   -0.8695   -1.5437 H   0  0  0  0  0  0  0  0  0  0  0  0
   -0.6380   -0.0590   -2.2218 H   0  0  0  0  0  0  0  0  0  0  0  0
   -0.3384   -2.1141   -0.2740 H   0  0  0  0  0  0  0  0  0  0  0  0
  1  2  1  0
  2  3  1  0
  3  4  1  0
  4  5  1  0
  5  6  1  0
  6  7  1  0
  7  8  1  0
  8  9  2  0
  4  2  1  0
  8  5  1  0
  7  2  1  0
  1 10  1  0
  1 11  1  0
  1 12  1  0
  3 13  1  0
  3 14  1  0
  4 15  1  0
  5 16  1  0
  6 17  1  0
  6 18  1  0
  7 19  1  0
M  END
