
     RDKit          3D

 23 24  0  0  0  0  0  0  0  0999 V2000
   -2.1549    0.6100   -0.5863 C   0  0  0  0  0  0  0  0  0  0  0  0
   -0.7685    0.2859   -0.1095 C   0  0  0  0  0  0  0  0  0  0  0  0
   -0.7116   -1.0810    0.5541 C   0  0  0  0  0  0  0  0  0  0  0  0
    0.6864   -1.5872    0.3052 C   0  0  0  0  0  0  0  0  0  0  0  0
    1.3916   -0.5197   -0.5166 C   0  0  0  0  0  0  0  0  0  0  0  0
    1.9381    0.5073    0.4346 C   0  0  0  0  0  0  0  0  0  0  0  0
    1.1231    1.5836    0.6415 O   0  0  0  0  0  0  0  0  0  0  0  0
   -0.2051    1.2823    0.8475 C   0  0  0  0  0  0  0  0  0  0  0  0
    0.2085    0.1044   -1.2495 C   0  0  0  0  0  0  0  0  0  0  0  0
   -2.8091    0.7089    0.2841 H   0  0  0  0  0  0  0  0  0  0  0  0
   -2.0983    1.5788   -1.1271 H   0  0  0  0  0  0  0  0  0  0  0  0
   -2.4545   -0.1944   -1.2932 H   0  0  0  0  0  0  0  0  0  0  0  0
   -1.4886   -1.7057    0.0843 H   0  0  0  0  0  0  0  0  0  0  0  0
   -0.9217   -0.9976    1.6388 H   0  0  0  0  0  0  0  0  0  0  0  0
    1.2403   -1.7177    1.2644 H   0  0  0  0  0  0  0  0  0  0  0  0
    0.6770   -2.5643   -0.1976 H   0  0  0  0  0  0  0  0  0  0  0  0
    2.1322   -0.9515   -1.1939 H   0  0  0  0  0  0  0  0  0  0  0  0
    2.8885    0.8969   -0.0355 H   0  0  0  0  0  0  0  0  0  0  0  0
    2.2748    0.0053    1.3687 H   0  0  0  0  0  0  0  0  0  0  0  0
   -0.4343    0.9933    1.9048 H   0  0  0  0  0  0  0  0  0  0  0  0
   -0.7753    2.2446    0.6886 H   0  0  0  0  0  0  0  0  0  0  0  0
    0.4649    1.0778   -1.6836 H   0  0  0  0  0  0  0  0  0  0  0  0
   -0.2034   -0.5600   -2.0235 H   0  0  0  0  0  0  0  0  0  0  0  0
  1  2  1  0
  2  3  1  0
  3  4  1  0
  4  5  1  0
  5  6  1  0
  6  7  1  0
  7  8  1  0
  5  9  1  0
  8  2  1  0
  9  2  1  0
  1 10  1  0
  1 11  1  0
  1 12  1  0
  3 13  1  0
  3 14  1  0
  4 15  1  0
  4 16  1  0
  5 17  1  0
  6 18  1  0
  6 19  1  0
  8 20  1  0
  8 21  1  0
  9 22  1  0
  9 23  1  0
M  END
