
     RDKit          3D

 19 21  0  0  0  0  0  0  0  0999 V2000
    2.2285   -0.3485    0.0545 C   0  0  0  0  0  0  0  0  0  0  0  0
    0.7946   -0.0018    0.1317 C   0  0  0  0  0  0  0  0  0  0  0  0
    0.0900   -0.5854    1.3267 C   0  0  0  0  0  0  0  0  0  0  0  0
   -1.2197   -0.3606    1.3397 C   0  0  0  0  0  0  0  0  0  0  0  0
   -1.7677    0.5158    0.2777 C   0  0  0  0  0  0  0  0  0  0  0  0
   -1.1987    0.2822   -1.0655 C   0  0  0  0  0  0  0  0  0  0  0  0
    0.0271   -0.5794   -1.0666 C   0  0  0  0  0  0  0  0  0  0  0  0
   -0.8098    1.5065   -0.2456 C   0  0  0  0  0  0  0  0  0  0  0  0
    0.5005    1.3442    0.1211 O   0  0  0  0  0  0  0  0  0  0  0  0
    2.3527   -1.1719   -0.7064 H   0  0  0  0  0  0  0  0  0  0  0  0
    2.8982    0.4645   -0.2772 H   0  0  0  0  0  0  0  0  0  0  0  0
    2.5569   -0.8093    1.0179 H   0  0  0  0  0  0  0  0  0  0  0  0
    0.6545   -1.1185    2.0565 H   0  0  0  0  0  0  0  0  0  0  0  0
   -1.8479   -0.8028    2.0963 H   0  0  0  0  0  0  0  0  0  0  0  0
   -2.8264    0.8524    0.3288 H   0  0  0  0  0  0  0  0  0  0  0  0
   -1.7662    0.4417   -1.9854 H   0  0  0  0  0  0  0  0  0  0  0  0
   -0.1925   -1.6426   -0.8755 H   0  0  0  0  0  0  0  0  0  0  0  0
    0.6493   -0.4841   -1.9550 H   0  0  0  0  0  0  0  0  0  0  0  0
   -1.1234    2.4976   -0.5738 H   0  0  0  0  0  0  0  0  0  0  0  0
  1  2  1  0
  2  3  1  0
  3  4  2  0
  4  5  1  0
  5  6  1  0
  6  7  1  0
  6  8  1  0
  8  9  1  0
  7  2  1  0
  9  2  1  0
  8  5  1  0
  1 10  1  0
  1 11  1  0
  1 12  1  0
  3 13  1  0
  4 14  1  0
  5 15  1  0
  6 16  1  0
  7 17  1  0
  7 18  1  0
  8 19  1  0
M  END
