
     RDKit          3D

 17 18  0  0  0  0  0  0  0  0999 V2000
    1.5671   -0.7862   -0.2771 C   0  0  0  0  0  0  0  0  0  0  0  0
    0.8058    0.3850    0.2065 C   0  0  0  0  0  0  0  0  0  0  0  0
   -0.0871    0.2245    1.3817 C   0  0  0  0  0  0  0  0  0  0  0  0
   -0.6154    0.5969    0.0696 C   0  0  0  0  0  0  0  0  0  0  0  0
   -1.5156   -0.1419   -0.6763 O   0  0  0  0  0  0  0  0  0  0  0  0
   -1.7949   -1.4776   -0.5356 C   0  0  0  0  0  0  0  0  0  0  0  0
   -1.2229   -2.1568    0.3231 O   0  0  0  0  0  0  0  0  0  0  0  0
   -0.1381    1.9196   -0.5058 C   0  0  0  0  0  0  0  0  0  0  0  0
    1.1825    1.6472   -0.1916 O   0  0  0  0  0  0  0  0  0  0  0  0
    1.7839   -1.4489    0.6037 H   0  0  0  0  0  0  0  0  0  0  0  0
    2.5827   -0.4402   -0.6183 H   0  0  0  0  0  0  0  0  0  0  0  0
    1.1075   -1.3866   -1.0544 H   0  0  0  0  0  0  0  0  0  0  0  0
   -0.1366    1.0380    2.1627 H   0  0  0  0  0  0  0  0  0  0  0  0
   -0.1234   -0.7810    1.8131 H   0  0  0  0  0  0  0  0  0  0  0  0
   -2.5351   -1.9063   -1.2076 H   0  0  0  0  0  0  0  0  0  0  0  0
   -0.3446    1.9677   -1.5907 H   0  0  0  0  0  0  0  0  0  0  0  0
   -0.5160    2.7466    0.0970 H   0  0  0  0  0  0  0  0  0  0  0  0
  1  2  1  0
  2  3  1  0
  3  4  1  0
  4  5  1  0
  5  6  1  0
  6  7  2  0
  4  8  1  0
  8  9  1  0
  4  2  1  0
  9  2  1  0
  1 10  1  0
  1 11  1  0
  1 12  1  0
  3 13  1  0
  3 14  1  0
  6 15  1  0
  8 16  1  0
  8 17  1  0
M  END
