
     RDKit          3D

 19 21  0  0  0  0  0  0  0  0999 V2000
    2.3586    0.1647   -0.7469 C   0  0  0  0  0  0  0  0  0  0  0  0
    1.1030    0.1504    0.0248 C   0  0  0  0  0  0  0  0  0  0  0  0
    0.7673   -1.1285    0.7792 C   0  0  0  0  0  0  0  0  0  0  0  0
   -0.5777   -1.4003    0.5416 O   0  0  0  0  0  0  0  0  0  0  0  0
   -1.1632   -0.1652    0.2251 C   0  0  0  0  0  0  0  0  0  0  0  0
   -2.5896   -0.1400   -0.1648 C   0  0  0  0  0  0  0  0  0  0  0  0
   -0.5180    1.1027    0.6140 C   0  0  0  0  0  0  0  0  0  0  0  0
    0.8314    1.2298    0.8565 O   0  0  0  0  0  0  0  0  0  0  0  0
   -0.1806    0.4371   -0.6702 C   0  0  0  0  0  0  0  0  0  0  0  0
    2.6551    1.2147   -0.9403 H   0  0  0  0  0  0  0  0  0  0  0  0
    2.1986   -0.3791   -1.7060 H   0  0  0  0  0  0  0  0  0  0  0  0
    3.1441   -0.3974   -0.2046 H   0  0  0  0  0  0  0  0  0  0  0  0
    1.4212   -1.9638    0.4772 H   0  0  0  0  0  0  0  0  0  0  0  0
    0.8605   -0.9941    1.8778 H   0  0  0  0  0  0  0  0  0  0  0  0
   -2.7874    0.5635   -0.9966 H   0  0  0  0  0  0  0  0  0  0  0  0
   -3.2103    0.0361    0.7235 H   0  0  0  0  0  0  0  0  0  0  0  0
   -2.8621   -1.1615   -0.5543 H   0  0  0  0  0  0  0  0  0  0  0  0
   -1.1467    1.9874    0.6724 H   0  0  0  0  0  0  0  0  0  0  0  0
   -0.3043    0.8436   -1.6383 H   0  0  0  0  0  0  0  0  0  0  0  0
  1  2  1  0
  2  3  1  0
  3  4  1  0
  4  5  1  0
  5  6  1  0
  5  7  1  0
  7  8  1  0
  7  9  1  0
  8  2  1  0
  9  2  1  0
  9  5  1  0
  1 10  1  0
  1 11  1  0
  1 12  1  0
  3 13  1  0
  3 14  1  0
  6 15  1  0
  6 16  1  0
  6 17  1  0
  7 18  1  0
  9 19  1  0
M  END
