
     RDKit          3D

 17 19  0  0  0  0  0  0  0  0999 V2000
    1.9205    0.4109   -0.0627 C   0  0  0  0  0  0  0  0  0  0  0  0
    0.4839    0.4941    0.0618 C   0  0  0  0  0  0  0  0  0  0  0  0
   -0.1182    1.7617    0.3598 O   0  0  0  0  0  0  0  0  0  0  0  0
   -1.4858    1.4027    0.4290 C   0  0  0  0  0  0  0  0  0  0  0  0
   -2.4832    2.0964    0.6855 O   0  0  0  0  0  0  0  0  0  0  0  0
   -1.4716   -0.0176    0.1214 C   0  0  0  0  0  0  0  0  0  0  0  0
   -0.4187   -0.1261   -0.9512 C   0  0  0  0  0  0  0  0  0  0  0  0
   -0.0878   -1.4459   -0.3236 C   0  0  0  0  0  0  0  0  0  0  0  0
   -0.2753   -0.5326    0.8521 C   0  0  0  0  0  0  0  0  0  0  0  0
    2.2631   -0.2978   -0.8375 H   0  0  0  0  0  0  0  0  0  0  0  0
    2.3587    1.4033   -0.3000 H   0  0  0  0  0  0  0  0  0  0  0  0
    2.4153    0.1054    0.9051 H   0  0  0  0  0  0  0  0  0  0  0  0
   -2.3577   -0.5939    0.0503 H   0  0  0  0  0  0  0  0  0  0  0  0
   -0.5197    0.0905   -1.9203 H   0  0  0  0  0  0  0  0  0  0  0  0
    0.9036   -1.8548   -0.4931 H   0  0  0  0  0  0  0  0  0  0  0  0
   -0.9455   -2.1445   -0.3997 H   0  0  0  0  0  0  0  0  0  0  0  0
   -0.1816   -0.7518    1.8229 H   0  0  0  0  0  0  0  0  0  0  0  0
  1  2  1  0
  2  3  1  0
  3  4  1  0
  4  5  2  0
  4  6  1  0
  6  7  1  0
  7  8  1  0
  8  9  1  0
  7  2  1  0
  9  2  1  0
  9  6  1  0
  1 10  1  0
  1 11  1  0
  1 12  1  0
  6 13  1  0
  7 14  1  0
  8 15  1  0
  8 16  1  0
  9 17  1  0
M  END
