
     RDKit          3D

 16 19  0  0  0  0  0  0  0  0999 V2000
    2.0272   -0.2992   -0.1736 C   0  0  0  0  0  0  0  0  0  0  0  0
    0.7366   -0.0357    0.4593 C   0  0  0  0  0  0  0  0  0  0  0  0
    0.2696    1.2897    0.3812 O   0  0  0  0  0  0  0  0  0  0  0  0
   -1.0907    1.3454    0.0242 C   0  0  0  0  0  0  0  0  0  0  0  0
   -0.8670    0.3161   -0.6585 C   0  0  0  0  0  0  0  0  0  0  0  0
   -1.7227   -0.1415   -0.0574 C   0  0  0  0  0  0  0  0  0  0  0  0
   -0.3907   -1.0758   -0.0491 C   0  0  0  0  0  0  0  0  0  0  0  0
   -0.4141   -0.3392    0.8175 C   0  0  0  0  0  0  0  0  0  0  0  0
    2.0277    0.1836   -1.1960 H   0  0  0  0  0  0  0  0  0  0  0  0
    2.2200   -1.3816   -0.3728 H   0  0  0  0  0  0  0  0  0  0  0  0
    2.8837    0.1298    0.3519 H   0  0  0  0  0  0  0  0  0  0  0  0
   -1.7570    2.0002    0.5872 H   0  0  0  0  0  0  0  0  0  0  0  0
   -0.3040    0.1133   -1.5457 H   0  0  0  0  0  0  0  0  0  0  0  0
   -2.4413   -0.3802    0.7303 H   0  0  0  0  0  0  0  0  0  0  0  0
   -0.1820   -1.5645   -1.0019 H   0  0  0  0  0  0  0  0  0  0  0  0
   -0.9954   -0.1603    1.7034 H   0  0  0  0  0  0  0  0  0  0  0  0
  1  2  1  0
  2  3  1  0
  3  4  1  0
  4  5  1  0
  5  6  1  0
  6  7  1  0
  7  8  1  0
  7  2  1  0
  8  2  1  0
  6  4  1  0
  8  5  1  0
  1  9  1  0
  1 10  1  0
  1 11  1  0
  4 12  1  0
  5 13  1  0
  6 14  1  0
  7 15  1  0
  8 16  1  0
M  END
