
     RDKit          3D

 17 19  0  0  0  0  0  0  0  0999 V2000
    1.9552    0.0978   -0.3131 C   0  0  0  0  0  0  0  0  0  0  0  0
    0.5091   -0.0446   -0.0657 C   0  0  0  0  0  0  0  0  0  0  0  0
    0.1002   -1.2060    0.7712 C   0  0  0  0  0  0  0  0  0  0  0  0
   -1.2359   -1.4008    0.3650 O   0  0  0  0  0  0  0  0  0  0  0  0
   -1.4744   -0.4749   -0.6494 C   0  0  0  0  0  0  0  0  0  0  0  0
   -0.1978   -0.3536   -1.2569 O   0  0  0  0  0  0  0  0  0  0  0  0
   -1.6276    0.9258   -0.0990 C   0  0  0  0  0  0  0  0  0  0  0  0
   -0.8576    1.9508   -0.6469 O   0  0  0  0  0  0  0  0  0  0  0  0
   -0.1972    1.2189    0.3472 C   0  0  0  0  0  0  0  0  0  0  0  0
    2.4989    0.1772    0.6300 H   0  0  0  0  0  0  0  0  0  0  0  0
    2.1186    0.9762   -0.9707 H   0  0  0  0  0  0  0  0  0  0  0  0
    2.3089   -0.7831   -0.8994 H   0  0  0  0  0  0  0  0  0  0  0  0
    0.1768   -1.0622    1.8465 H   0  0  0  0  0  0  0  0  0  0  0  0
    0.6439   -2.1131    0.4253 H   0  0  0  0  0  0  0  0  0  0  0  0
   -2.2441   -0.7714   -1.3467 H   0  0  0  0  0  0  0  0  0  0  0  0
   -2.4613    1.1884    0.5430 H   0  0  0  0  0  0  0  0  0  0  0  0
   -0.0157    1.6746    1.3196 H   0  0  0  0  0  0  0  0  0  0  0  0
  1  2  1  0
  2  3  1  0
  3  4  1  0
  4  5  1  0
  5  6  1  0
  5  7  1  0
  7  8  1  0
  8  9  1  0
  6  2  1  0
  9  7  1  0
  9  2  1  0
  1 10  1  0
  1 11  1  0
  1 12  1  0
  3 13  1  0
  3 14  1  0
  5 15  1  0
  7 16  1  0
  9 17  1  0
M  END
