
     RDKit          3D

 20 21  0  0  0  0  0  0  0  0999 V2000
   -2.0128   -1.0453   -0.4555 C   0  0  0  0  0  0  0  0  0  0  0  0
   -0.7146   -0.4624    0.0429 C   0  0  0  0  0  0  0  0  0  0  0  0
    0.5109   -1.1935   -0.4072 C   0  0  0  0  0  0  0  0  0  0  0  0
    1.6806   -0.3161   -0.1064 C   0  0  0  0  0  0  0  0  0  0  0  0
    1.1188    1.0864   -0.3021 C   0  0  0  0  0  0  0  0  0  0  0  0
    1.6434    1.8733    0.7064 O   0  0  0  0  0  0  0  0  0  0  0  0
   -0.3849    0.9533   -0.0745 C   0  0  0  0  0  0  0  0  0  0  0  0
   -0.7441    0.3756    1.2520 C   0  0  0  0  0  0  0  0  0  0  0  0
   -2.8386   -0.7160    0.1892 H   0  0  0  0  0  0  0  0  0  0  0  0
   -2.1588   -0.8243   -1.5280 H   0  0  0  0  0  0  0  0  0  0  0  0
   -1.9349   -2.1440   -0.3574 H   0  0  0  0  0  0  0  0  0  0  0  0
    0.4660   -1.3164   -1.5203 H   0  0  0  0  0  0  0  0  0  0  0  0
    0.6082   -2.2082    0.0341 H   0  0  0  0  0  0  0  0  0  0  0  0
    2.5579   -0.4773   -0.7431 H   0  0  0  0  0  0  0  0  0  0  0  0
    1.9632   -0.4811    0.9553 H   0  0  0  0  0  0  0  0  0  0  0  0
    1.3224    1.4530   -1.3143 H   0  0  0  0  0  0  0  0  0  0  0  0
    1.6639    2.8251    0.5221 H   0  0  0  0  0  0  0  0  0  0  0  0
   -1.0284    1.7032   -0.5735 H   0  0  0  0  0  0  0  0  0  0  0  0
    0.0357    0.2914    2.0345 H   0  0  0  0  0  0  0  0  0  0  0  0
   -1.7540    0.6232    1.6456 H   0  0  0  0  0  0  0  0  0  0  0  0
  1  2  1  0
  2  3  1  0
  3  4  1  0
  4  5  1  0
  5  6  1  0
  5  7  1  0
  7  8  1  0
  7  2  1  0
  8  2  1  0
  1  9  1  0
  1 10  1  0
  1 11  1  0
  3 12  1  0
  3 13  1  0
  4 14  1  0
  4 15  1  0
  5 16  1  0
  6 17  1  0
  7 18  1  0
  8 19  1  0
  8 20  1  0
M  END
