
     RDKit          3D

 21 23  0  0  0  0  0  0  0  0999 V2000
    2.4879    0.4885   -0.0020 C   0  0  0  0  0  0  0  0  0  0  0  0
    0.9672    0.3452    0.0187 C   0  0  0  0  0  0  0  0  0  0  0  0
    0.2980    1.4843    0.2878 O   0  0  0  0  0  0  0  0  0  0  0  0
   -1.0533    1.4727    0.1876 C   0  0  0  0  0  0  0  0  0  0  0  0
   -1.5979    0.0702    0.1127 C   0  0  0  0  0  0  0  0  0  0  0  0
   -1.0537   -0.5228   -1.1937 C   0  0  0  0  0  0  0  0  0  0  0  0
    0.4006   -0.6219   -0.8957 C   0  0  0  0  0  0  0  0  0  0  0  0
    0.4729   -0.9025    0.6185 C   0  0  0  0  0  0  0  0  0  0  0  0
   -0.9288   -0.8344    1.1238 C   0  0  0  0  0  0  0  0  0  0  0  0
    2.9590   -0.1914   -0.7090 H   0  0  0  0  0  0  0  0  0  0  0  0
    2.8325    0.2363    1.0376 H   0  0  0  0  0  0  0  0  0  0  0  0
    2.7777    1.5536   -0.1717 H   0  0  0  0  0  0  0  0  0  0  0  0
   -1.3322    1.9637   -0.7913 H   0  0  0  0  0  0  0  0  0  0  0  0
   -1.4882    2.0695    1.0027 H   0  0  0  0  0  0  0  0  0  0  0  0
   -2.6826    0.0492    0.1411 H   0  0  0  0  0  0  0  0  0  0  0  0
   -1.5296   -1.5262   -1.2752 H   0  0  0  0  0  0  0  0  0  0  0  0
   -1.3326    0.1660   -1.9878 H   0  0  0  0  0  0  0  0  0  0  0  0
    1.0415   -1.2500   -1.5353 H   0  0  0  0  0  0  0  0  0  0  0  0
    1.1613   -1.7071    0.9082 H   0  0  0  0  0  0  0  0  0  0  0  0
   -1.0171   -0.4863    2.1549 H   0  0  0  0  0  0  0  0  0  0  0  0
   -1.3826   -1.8564    0.9679 H   0  0  0  0  0  0  0  0  0  0  0  0
  1  2  1  0
  2  3  1  0
  3  4  1  0
  4  5  1  0
  5  6  1  0
  6  7  1  0
  7  8  1  0
  8  9  1  0
  7  2  1  0
  8  2  1  0
  9  5  1  0
  1 10  1  0
  1 11  1  0
  1 12  1  0
  4 13  1  0
  4 14  1  0
  5 15  1  0
  6 16  1  0
  6 17  1  0
  7 18  1  0
  8 19  1  0
  9 20  1  0
  9 21  1  0
M  END
