
     RDKit          3D

 19 20  0  0  0  0  0  0  0  0999 V2000
   -0.9256    1.7812   -0.0707 C   0  0  0  0  0  0  0  0  0  0  0  0
   -0.4644    0.4297    0.0392 C   0  0  0  0  0  0  0  0  0  0  0  0
   -0.4245   -0.2818    1.3320 C   0  0  0  0  0  0  0  0  0  0  0  0
    0.0253   -1.5120    0.9744 C   0  0  0  0  0  0  0  0  0  0  0  0
    0.2099   -1.3793   -0.4735 C   0  0  0  0  0  0  0  0  0  0  0  0
   -1.0882   -0.6495   -0.8611 C   0  0  0  0  0  0  0  0  0  0  0  0
    0.8377   -0.0003   -0.6039 C   0  0  0  0  0  0  0  0  0  0  0  0
    2.0370    0.2375    0.1958 C   0  0  0  0  0  0  0  0  0  0  0  0
    3.1160   -0.1089   -0.2324 O   0  0  0  0  0  0  0  0  0  0  0  0
   -1.6019    2.0527    0.7537 H   0  0  0  0  0  0  0  0  0  0  0  0
   -1.4768    1.9348   -1.0369 H   0  0  0  0  0  0  0  0  0  0  0  0
   -0.0731    2.5070   -0.0400 H   0  0  0  0  0  0  0  0  0  0  0  0
   -0.6845    0.0736    2.3209 H   0  0  0  0  0  0  0  0  0  0  0  0
    0.2015   -2.3728    1.6068 H   0  0  0  0  0  0  0  0  0  0  0  0
    0.5402   -2.1653   -1.0820 H   0  0  0  0  0  0  0  0  0  0  0  0
   -1.1597   -0.3755   -1.9130 H   0  0  0  0  0  0  0  0  0  0  0  0
   -1.9369   -1.1473   -0.3924 H   0  0  0  0  0  0  0  0  0  0  0  0
    0.9250    0.2561   -1.6766 H   0  0  0  0  0  0  0  0  0  0  0  0
    1.9429    0.7200    1.1597 H   0  0  0  0  0  0  0  0  0  0  0  0
  1  2  1  0
  2  3  1  0
  3  4  2  0
  4  5  1  0
  5  6  1  0
  5  7  1  0
  7  8  1  0
  8  9  2  0
  6  2  1  0
  7  2  1  0
  1 10  1  0
  1 11  1  0
  1 12  1  0
  3 13  1  0
  4 14  1  0
  5 15  1  0
  6 16  1  0
  6 17  1  0
  7 18  1  0
  8 19  1  0
M  END
