
     RDKit          3D

 18 19  0  0  0  0  0  0  0  0999 V2000
    2.3080   -0.4634    0.1645 C   0  0  0  0  0  0  0  0  0  0  0  0
    1.0337    0.1509    0.6566 C   0  0  0  0  0  0  0  0  0  0  0  0
    0.7297    1.5803    0.5325 C   0  0  0  0  0  0  0  0  0  0  0  0
    0.1459    0.6851   -0.4654 C   0  0  0  0  0  0  0  0  0  0  0  0
   -0.5890   -0.5823   -0.0897 C   0  0  0  0  0  0  0  0  0  0  0  0
   -2.0648   -0.3627   -0.1238 C   0  0  0  0  0  0  0  0  0  0  0  0
   -2.7924   -1.3508    0.5092 O   0  0  0  0  0  0  0  0  0  0  0  0
    0.0090   -0.6546    1.1436 O   0  0  0  0  0  0  0  0  0  0  0  0
    2.0223   -1.1999   -0.6388 H   0  0  0  0  0  0  0  0  0  0  0  0
    2.8787    0.3580   -0.3564 H   0  0  0  0  0  0  0  0  0  0  0  0
    2.9118   -0.9496    0.9289 H   0  0  0  0  0  0  0  0  0  0  0  0
    0.0410    2.0015    1.2940 H   0  0  0  0  0  0  0  0  0  0  0  0
    1.5024    2.2819    0.1893 H   0  0  0  0  0  0  0  0  0  0  0  0
    0.5275    0.6849   -1.4959 H   0  0  0  0  0  0  0  0  0  0  0  0
   -0.2815   -1.4578   -0.7259 H   0  0  0  0  0  0  0  0  0  0  0  0
   -2.3675   -0.2989   -1.1986 H   0  0  0  0  0  0  0  0  0  0  0  0
   -2.2663    0.6228    0.3673 H   0  0  0  0  0  0  0  0  0  0  0  0
   -3.7484   -1.0453    0.4993 H   0  0  0  0  0  0  0  0  0  0  0  0
  1  2  1  0
  2  3  1  0
  3  4  1  0
  4  5  1  0
  5  6  1  0
  6  7  1  0
  5  8  1  0
  4  2  1  0
  8  2  1  0
  1  9  1  0
  1 10  1  0
  1 11  1  0
  3 12  1  0
  3 13  1  0
  4 14  1  0
  5 15  1  0
  6 16  1  0
  6 17  1  0
  7 18  1  0
M  END
