
     RDKit          3D

 21 22  0  0  0  0  0  0  0  0999 V2000
   -2.0984   -0.8131    0.2377 C   0  0  0  0  0  0  0  0  0  0  0  0
   -0.6676   -0.4657    0.0778 C   0  0  0  0  0  0  0  0  0  0  0  0
    0.2815   -1.5396   -0.3215 C   0  0  0  0  0  0  0  0  0  0  0  0
    1.5860   -1.2388   -0.0150 O   0  0  0  0  0  0  0  0  0  0  0  0
    1.9323    0.0755   -0.1223 C   0  0  0  0  0  0  0  0  0  0  0  0
    0.7789    1.0241    0.0969 C   0  0  0  0  0  0  0  0  0  0  0  0
    1.1070    2.3329    0.2641 O   0  0  0  0  0  0  0  0  0  0  0  0
   -0.0914    0.4088    1.2000 C   0  0  0  0  0  0  0  0  0  0  0  0
   -0.3779    0.7270   -0.8458 C   0  0  0  0  0  0  0  0  0  0  0  0
   -2.6656    0.1270    0.4278 H   0  0  0  0  0  0  0  0  0  0  0  0
   -2.2160   -1.4264    1.1518 H   0  0  0  0  0  0  0  0  0  0  0  0
   -2.4564   -1.3011   -0.6746 H   0  0  0  0  0  0  0  0  0  0  0  0
    0.2048   -1.6657   -1.4386 H   0  0  0  0  0  0  0  0  0  0  0  0
    0.0368   -2.5308    0.1054 H   0  0  0  0  0  0  0  0  0  0  0  0
    2.6758    0.2953    0.6790 H   0  0  0  0  0  0  0  0  0  0  0  0
    2.4718    0.3228   -1.0809 H   0  0  0  0  0  0  0  0  0  0  0  0
    1.0987    2.8045   -0.6277 H   0  0  0  0  0  0  0  0  0  0  0  0
    0.5147   -0.1373    1.9300 H   0  0  0  0  0  0  0  0  0  0  0  0
   -0.8809    1.0606    1.5725 H   0  0  0  0  0  0  0  0  0  0  0  0
   -0.0968    0.4216   -1.8584 H   0  0  0  0  0  0  0  0  0  0  0  0
   -1.1375    1.5184   -0.7585 H   0  0  0  0  0  0  0  0  0  0  0  0
  1  2  1  0
  2  3  1  0
  3  4  1  0
  4  5  1  0
  5  6  1  0
  6  7  1  0
  6  8  1  0
  6  9  1  0
  8  2  1  0
  9  2  1  0
  1 10  1  0
  1 11  1  0
  1 12  1  0
  3 13  1  0
  3 14  1  0
  5 15  1  0
  5 16  1  0
  7 17  1  0
  8 18  1  0
  8 19  1  0
  9 20  1  0
  9 21  1  0
M  END
