
     RDKit          3D

 17 18  0  0  0  0  0  0  0  0999 V2000
    1.7060    0.0448   -0.9542 C   0  0  0  0  0  0  0  0  0  0  0  0
    0.4728    0.1927   -0.1261 C   0  0  0  0  0  0  0  0  0  0  0  0
   -0.0057    1.5047    0.3165 C   0  0  0  0  0  0  0  0  0  0  0  0
    0.7082    2.4932    0.5997 O   0  0  0  0  0  0  0  0  0  0  0  0
   -1.4595    1.4975    0.3823 C   0  0  0  0  0  0  0  0  0  0  0  0
   -1.9224    0.3376   -0.0531 C   0  0  0  0  0  0  0  0  0  0  0  0
   -0.7817   -0.5330   -0.4502 C   0  0  0  0  0  0  0  0  0  0  0  0
    0.0586   -1.0314    0.6440 C   0  0  0  0  0  0  0  0  0  0  0  0
    0.7579   -2.1983    0.4517 O   0  0  0  0  0  0  0  0  0  0  0  0
    1.7488    0.6886   -1.8404 H   0  0  0  0  0  0  0  0  0  0  0  0
    1.7729   -1.0103   -1.2915 H   0  0  0  0  0  0  0  0  0  0  0  0
    2.6064    0.1958   -0.2915 H   0  0  0  0  0  0  0  0  0  0  0  0
   -2.0554    2.3215    0.7352 H   0  0  0  0  0  0  0  0  0  0  0  0
   -2.9494    0.0212   -0.1293 H   0  0  0  0  0  0  0  0  0  0  0  0
   -0.8027   -1.0141   -1.4446 H   0  0  0  0  0  0  0  0  0  0  0  0
   -0.2277   -0.8318    1.6854 H   0  0  0  0  0  0  0  0  0  0  0  0
    0.3731   -2.6787   -0.3460 H   0  0  0  0  0  0  0  0  0  0  0  0
  1  2  1  0
  2  3  1  0
  3  4  2  0
  3  5  1  0
  5  6  2  0
  6  7  1  0
  7  8  1  0
  8  9  1  0
  7  2  1  0
  8  2  1  0
  1 10  1  0
  1 11  1  0
  1 12  1  0
  5 13  1  0
  6 14  1  0
  7 15  1  0
  8 16  1  0
  9 17  1  0
M  END
