
     RDKit          3D

 19 21  0  0  0  0  0  0  0  0999 V2000
   -2.2277   -0.0436   -0.4936 C   0  0  0  0  0  0  0  0  0  0  0  0
   -0.8451   -0.1211    0.1703 C   0  0  0  0  0  0  0  0  0  0  0  0
   -0.0265   -1.3044   -0.3111 C   0  0  0  0  0  0  0  0  0  0  0  0
    1.2461   -0.7573   -0.7867 C   0  0  0  0  0  0  0  0  0  0  0  0
    2.4926   -0.8693   -0.3882 O   0  0  0  0  0  0  0  0  0  0  0  0
    1.8422   -0.1685    0.5170 C   0  0  0  0  0  0  0  0  0  0  0  0
    1.2939    1.1962    0.5281 C   0  0  0  0  0  0  0  0  0  0  0  0
   -0.2283    1.0538    0.5627 C   0  0  0  0  0  0  0  0  0  0  0  0
   -0.7615    0.1834    1.5181 O   0  0  0  0  0  0  0  0  0  0  0  0
   -2.4252   -0.9221   -1.1336 H   0  0  0  0  0  0  0  0  0  0  0  0
   -2.1574    0.8389   -1.1942 H   0  0  0  0  0  0  0  0  0  0  0  0
   -3.0259    0.1066    0.2278 H   0  0  0  0  0  0  0  0  0  0  0  0
    0.1842   -2.0025    0.5523 H   0  0  0  0  0  0  0  0  0  0  0  0
   -0.5777   -1.9305   -1.0451 H   0  0  0  0  0  0  0  0  0  0  0  0
    1.1108   -0.0397   -1.6497 H   0  0  0  0  0  0  0  0  0  0  0  0
    1.6434   -0.7224    1.4699 H   0  0  0  0  0  0  0  0  0  0  0  0
    1.6639    1.7729    1.3973 H   0  0  0  0  0  0  0  0  0  0  0  0
    1.5306    1.7012   -0.4416 H   0  0  0  0  0  0  0  0  0  0  0  0
   -0.7324    2.0286    0.5000 H   0  0  0  0  0  0  0  0  0  0  0  0
  1  2  1  0
  2  3  1  0
  3  4  1  0
  4  5  1  0
  5  6  1  0
  6  7  1  0
  7  8  1  0
  8  9  1  0
  8  2  1  0
  9  2  1  0
  6  4  1  0
  1 10  1  0
  1 11  1  0
  1 12  1  0
  3 13  1  0
  3 14  1  0
  4 15  1  0
  6 16  1  0
  7 17  1  0
  7 18  1  0
  8 19  1  0
M  END
