
     RDKit          3D

 19 22  0  0  0  0  0  0  0  0999 V2000
    2.2427   -0.6003    0.1981 C   0  0  0  0  0  0  0  0  0  0  0  0
    0.9059   -0.0982    0.0144 C   0  0  0  0  0  0  0  0  0  0  0  0
   -0.1366   -0.7907   -0.8971 C   0  0  0  0  0  0  0  0  0  0  0  0
   -0.9700   -1.5412   -0.1179 O   0  0  0  0  0  0  0  0  0  0  0  0
   -1.8608   -0.7432    0.5490 C   0  0  0  0  0  0  0  0  0  0  0  0
   -1.3491    0.6702    0.4353 C   0  0  0  0  0  0  0  0  0  0  0  0
   -0.7755    0.5885   -0.9565 C   0  0  0  0  0  0  0  0  0  0  0  0
    0.4517    1.1709   -0.5120 C   0  0  0  0  0  0  0  0  0  0  0  0
    0.1011    0.7227    0.9447 C   0  0  0  0  0  0  0  0  0  0  0  0
    2.5746   -0.5730    1.2609 H   0  0  0  0  0  0  0  0  0  0  0  0
    3.0157    0.0071   -0.3543 H   0  0  0  0  0  0  0  0  0  0  0  0
    2.4131   -1.6501   -0.1784 H   0  0  0  0  0  0  0  0  0  0  0  0
    0.2549   -1.1896   -1.8146 H   0  0  0  0  0  0  0  0  0  0  0  0
   -2.0739   -1.0532    1.5843 H   0  0  0  0  0  0  0  0  0  0  0  0
   -2.8250   -0.7688   -0.0388 H   0  0  0  0  0  0  0  0  0  0  0  0
   -1.9852    1.4823    0.6934 H   0  0  0  0  0  0  0  0  0  0  0  0
   -1.3539    0.8557   -1.7921 H   0  0  0  0  0  0  0  0  0  0  0  0
    0.9377    2.0809   -0.6815 H   0  0  0  0  0  0  0  0  0  0  0  0
    0.4324    1.4301    1.6631 H   0  0  0  0  0  0  0  0  0  0  0  0
  1  2  1  0
  2  3  1  0
  3  4  1  0
  4  5  1  0
  5  6  1  0
  6  7  1  0
  7  8  1  0
  8  9  1  0
  8  2  1  0
  9  2  1  0
  7  3  1  0
  9  6  1  0
  1 10  1  0
  1 11  1  0
  1 12  1  0
  3 13  1  0
  5 14  1  0
  5 15  1  0
  6 16  1  0
  7 17  1  0
  8 18  1  0
  9 19  1  0
M  END
