
     RDKit          3D

 17 19  0  0  0  0  0  0  0  0999 V2000
    2.0369   -0.6010    0.3489 C   0  0  0  0  0  0  0  0  0  0  0  0
    0.6436   -0.4578   -0.0137 C   0  0  0  0  0  0  0  0  0  0  0  0
   -0.2795   -1.1846    0.7417 O   0  0  0  0  0  0  0  0  0  0  0  0
   -1.4931   -0.7856    0.1342 C   0  0  0  0  0  0  0  0  0  0  0  0
   -1.1217   -0.5222   -1.2457 C   0  0  0  0  0  0  0  0  0  0  0  0
    0.2698   -0.7777   -1.3011 O   0  0  0  0  0  0  0  0  0  0  0  0
   -1.3393    0.5972   -0.3096 C   0  0  0  0  0  0  0  0  0  0  0  0
    0.0939    0.9753    0.0724 C   0  0  0  0  0  0  0  0  0  0  0  0
    0.1910    1.5001    1.3268 O   0  0  0  0  0  0  0  0  0  0  0  0
    2.4992    0.3976    0.5909 H   0  0  0  0  0  0  0  0  0  0  0  0
    2.6690   -1.1438   -0.3669 H   0  0  0  0  0  0  0  0  0  0  0  0
    2.1231   -1.1740    1.3188 H   0  0  0  0  0  0  0  0  0  0  0  0
   -2.4237   -1.2445    0.4678 H   0  0  0  0  0  0  0  0  0  0  0  0
   -1.7305   -0.6816   -2.1258 H   0  0  0  0  0  0  0  0  0  0  0  0
   -2.1051    1.3427   -0.3872 H   0  0  0  0  0  0  0  0  0  0  0  0
    0.4880    1.5866   -0.7410 H   0  0  0  0  0  0  0  0  0  0  0  0
   -0.5217    2.1735    1.4896 H   0  0  0  0  0  0  0  0  0  0  0  0
  1  2  1  0
  2  3  1  0
  3  4  1  0
  4  5  1  0
  5  6  1  0
  5  7  1  0
  7  8  1  0
  8  9  1  0
  6  2  1  0
  8  2  1  0
  7  4  1  0
  1 10  1  0
  1 11  1  0
  1 12  1  0
  4 13  1  0
  5 14  1  0
  7 15  1  0
  8 16  1  0
  9 17  1  0
M  END
