
     RDKit          3D

 19 22  0  0  0  0  0  0  0  0999 V2000
    1.1339   -0.9063    0.9781 C   0  0  0  0  0  0  0  0  0  0  0  0
    0.3694   -0.2763   -0.0567 C   0  0  0  0  0  0  0  0  0  0  0  0
   -1.3031   -0.2315   -0.0833 C   0  0  0  0  0  0  0  0  0  0  0  0
   -1.1349   -1.3866    0.3816 C   0  0  0  0  0  0  0  0  0  0  0  0
   -0.4303   -1.6723   -0.8064 O   0  0  0  0  0  0  0  0  0  0  0  0
    0.2790   -0.5378   -1.2891 C   0  0  0  0  0  0  0  0  0  0  0  0
   -0.0637    0.7320   -0.3833 C   0  0  0  0  0  0  0  0  0  0  0  0
    0.1625    2.0335   -0.7004 C   0  0  0  0  0  0  0  0  0  0  0  0
   -0.7681    0.0937    0.8937 C   0  0  0  0  0  0  0  0  0  0  0  0
    0.9175   -2.0084    1.0349 H   0  0  0  0  0  0  0  0  0  0  0  0
    2.1803   -0.9094    0.5352 H   0  0  0  0  0  0  0  0  0  0  0  0
    1.2642   -0.5398    1.9718 H   0  0  0  0  0  0  0  0  0  0  0  0
   -1.8452    0.1804   -0.9003 H   0  0  0  0  0  0  0  0  0  0  0  0
   -1.0824   -2.0569    1.2415 H   0  0  0  0  0  0  0  0  0  0  0  0
   -0.0021   -0.2780   -2.3096 H   0  0  0  0  0  0  0  0  0  0  0  0
    0.2560    2.6866    0.2183 H   0  0  0  0  0  0  0  0  0  0  0  0
    1.1656    2.1969   -1.2028 H   0  0  0  0  0  0  0  0  0  0  0  0
   -0.5588    2.5571   -1.3771 H   0  0  0  0  0  0  0  0  0  0  0  0
   -0.5396    0.3233    1.8537 H   0  0  0  0  0  0  0  0  0  0  0  0
  1  2  1  0
  2  3  1  0
  3  4  1  0
  4  5  1  0
  5  6  1  0
  6  7  1  0
  7  8  1  0
  7  9  1  0
  6  2  1  0
  7  2  1  0
  9  3  1  0
  9  4  1  0
  1 10  1  0
  1 11  1  0
  1 12  1  0
  3 13  1  0
  4 14  1  0
  6 15  1  0
  8 16  1  0
  8 17  1  0
  8 18  1  0
  9 19  1  0
M  END
