
     RDKit          3D

 19 21  0  0  0  0  0  0  0  0999 V2000
    2.4171   -0.0622    0.0127 C   0  0  0  0  0  0  0  0  0  0  0  0
    0.9705    0.4273    0.0622 C   0  0  0  0  0  0  0  0  0  0  0  0
    0.0997   -0.1387    1.1255 C   0  0  0  0  0  0  0  0  0  0  0  0
   -1.1978   -0.4214    0.4621 C   0  0  0  0  0  0  0  0  0  0  0  0
   -1.8832   -1.5926    0.6801 O   0  0  0  0  0  0  0  0  0  0  0  0
   -1.9502    0.8225    0.0398 C   0  0  0  0  0  0  0  0  0  0  0  0
   -1.1625    0.0480   -0.9381 C   0  0  0  0  0  0  0  0  0  0  0  0
    0.2474    0.4283   -1.1856 C   0  0  0  0  0  0  0  0  0  0  0  0
    0.6685    1.6012   -0.5789 O   0  0  0  0  0  0  0  0  0  0  0  0
    3.0125    0.7091    0.5390 H   0  0  0  0  0  0  0  0  0  0  0  0
    2.4617   -0.9971    0.5993 H   0  0  0  0  0  0  0  0  0  0  0  0
    2.7442   -0.2111   -1.0443 H   0  0  0  0  0  0  0  0  0  0  0  0
   -0.0681    0.6147    1.9389 H   0  0  0  0  0  0  0  0  0  0  0  0
    0.5725   -1.0012    1.5945 H   0  0  0  0  0  0  0  0  0  0  0  0
   -1.4474   -2.2899    0.0936 H   0  0  0  0  0  0  0  0  0  0  0  0
   -1.5514    1.8173    0.3017 H   0  0  0  0  0  0  0  0  0  0  0  0
   -3.0358    0.7374    0.1494 H   0  0  0  0  0  0  0  0  0  0  0  0
   -1.6518   -0.5618   -1.7402 H   0  0  0  0  0  0  0  0  0  0  0  0
    0.7544    0.0703   -2.1117 H   0  0  0  0  0  0  0  0  0  0  0  0
  1  2  1  0
  2  3  1  0
  3  4  1  0
  4  5  1  0
  4  6  1  0
  6  7  1  0
  7  8  1  0
  8  9  1  0
  8  2  1  0
  9  2  1  0
  7  4  1  0
  1 10  1  0
  1 11  1  0
  1 12  1  0
  3 13  1  0
  3 14  1  0
  5 15  1  0
  6 16  1  0
  6 17  1  0
  7 18  1  0
  8 19  1  0
M  END
