
     RDKit          3D

 21 23  0  0  0  0  0  0  0  0999 V2000
   -1.8343    1.2829   -0.4096 C   0  0  0  0  0  0  0  0  0  0  0  0
   -0.7105    0.4960    0.0302 C   0  0  0  0  0  0  0  0  0  0  0  0
   -1.0324   -0.9768    0.3650 C   0  0  0  0  0  0  0  0  0  0  0  0
    0.4590   -1.3051    0.6046 C   0  0  0  0  0  0  0  0  0  0  0  0
    0.8401   -1.1092   -0.8790 C   0  0  0  0  0  0  0  0  0  0  0  0
    0.4837    0.3933   -0.8528 C   0  0  0  0  0  0  0  0  0  0  0  0
    1.6017    0.7455    0.1550 C   0  0  0  0  0  0  0  0  0  0  0  0
    0.9110   -0.0599    1.2814 C   0  0  0  0  0  0  0  0  0  0  0  0
   -0.2244    0.7933    1.3342 O   0  0  0  0  0  0  0  0  0  0  0  0
   -1.7520    2.3364   -0.0118 H   0  0  0  0  0  0  0  0  0  0  0  0
   -1.8567    1.3892   -1.5067 H   0  0  0  0  0  0  0  0  0  0  0  0
   -2.7900    0.8826   -0.0110 H   0  0  0  0  0  0  0  0  0  0  0  0
   -1.5930   -1.0711    1.2887 H   0  0  0  0  0  0  0  0  0  0  0  0
   -1.3987   -1.5172   -0.4980 H   0  0  0  0  0  0  0  0  0  0  0  0
    0.6591   -2.2418    1.0098 H   0  0  0  0  0  0  0  0  0  0  0  0
    0.1783   -1.6637   -1.5387 H   0  0  0  0  0  0  0  0  0  0  0  0
    1.9105   -1.2523   -1.0290 H   0  0  0  0  0  0  0  0  0  0  0  0
    0.5214    0.8900   -1.7663 H   0  0  0  0  0  0  0  0  0  0  0  0
    1.6072    1.8095    0.3875 H   0  0  0  0  0  0  0  0  0  0  0  0
    2.5536    0.3048   -0.1278 H   0  0  0  0  0  0  0  0  0  0  0  0
    1.4665   -0.1264    2.1742 H   0  0  0  0  0  0  0  0  0  0  0  0
  1  2  1  0
  2  3  1  0
  3  4  1  0
  4  5  1  0
  5  6  1  0
  6  7  1  0
  7  8  1  0
  8  9  1  0
  6  2  1  0
  9  2  1  0
  8  4  1  0
  1 10  1  0
  1 11  1  0
  1 12  1  0
  3 13  1  0
  3 14  1  0
  4 15  1  0
  5 16  1  0
  5 17  1  0
  6 18  1  0
  7 19  1  0
  7 20  1  0
  8 21  1  0
M  END
