
     RDKit          3D

 21 23  0  0  0  0  0  0  0  0999 V2000
    1.9054   -0.8357    0.0654 C   0  0  0  0  0  0  0  0  0  0  0  0
    0.6109   -0.2085   -0.2272 C   0  0  0  0  0  0  0  0  0  0  0  0
   -0.5231   -1.1176   -0.6769 C   0  0  0  0  0  0  0  0  0  0  0  0
   -1.7062   -0.3361   -0.1017 C   0  0  0  0  0  0  0  0  0  0  0  0
   -1.1500   -0.1281    1.3204 C   0  0  0  0  0  0  0  0  0  0  0  0
    0.0828    0.6282    0.8862 C   0  0  0  0  0  0  0  0  0  0  0  0
   -0.5037    1.5341   -0.1682 C   0  0  0  0  0  0  0  0  0  0  0  0
    0.6129    1.0340   -1.0981 C   0  0  0  0  0  0  0  0  0  0  0  0
   -1.6989    0.9643   -0.5657 O   0  0  0  0  0  0  0  0  0  0  0  0
    2.7209   -0.0797   -0.1329 H   0  0  0  0  0  0  0  0  0  0  0  0
    2.1437   -1.7597   -0.4638 H   0  0  0  0  0  0  0  0  0  0  0  0
    1.9779   -1.0127    1.1781 H   0  0  0  0  0  0  0  0  0  0  0  0
   -0.5728   -1.1621   -1.7735 H   0  0  0  0  0  0  0  0  0  0  0  0
   -0.4634   -2.0925   -0.1887 H   0  0  0  0  0  0  0  0  0  0  0  0
   -2.6389   -0.8509   -0.1272 H   0  0  0  0  0  0  0  0  0  0  0  0
   -0.9433   -1.1141    1.7344 H   0  0  0  0  0  0  0  0  0  0  0  0
   -1.8828    0.4764    1.8516 H   0  0  0  0  0  0  0  0  0  0  0  0
    0.7324    1.0361    1.6232 H   0  0  0  0  0  0  0  0  0  0  0  0
   -0.4849    2.6004    0.0240 H   0  0  0  0  0  0  0  0  0  0  0  0
    0.2382    0.8102   -2.1170 H   0  0  0  0  0  0  0  0  0  0  0  0
    1.5428    1.6139   -1.0423 H   0  0  0  0  0  0  0  0  0  0  0  0
  1  2  1  0
  2  3  1  0
  3  4  1  0
  4  5  1  0
  5  6  1  0
  6  7  1  0
  7  8  1  0
  7  9  1  0
  6  2  1  0
  8  2  1  0
  9  4  1  0
  1 10  1  0
  1 11  1  0
  1 12  1  0
  3 13  1  0
  3 14  1  0
  4 15  1  0
  5 16  1  0
  5 17  1  0
  6 18  1  0
  7 19  1  0
  8 20  1  0
  8 21  1  0
M  END
