
     RDKit          3D

 21 23  0  0  0  0  0  0  0  0999 V2000
    2.4875    0.3153    0.0148 C   0  0  0  0  0  0  0  0  0  0  0  0
    1.1279   -0.2722    0.1956 C   0  0  0  0  0  0  0  0  0  0  0  0
    0.8568   -1.5665   -0.4211 C   0  0  0  0  0  0  0  0  0  0  0  0
    0.2084   -0.3658   -1.0544 C   0  0  0  0  0  0  0  0  0  0  0  0
   -0.8747    0.2167   -0.2164 C   0  0  0  0  0  0  0  0  0  0  0  0
   -2.1498   -0.4633    0.0550 C   0  0  0  0  0  0  0  0  0  0  0  0
   -2.0456    0.9017   -0.6537 C   0  0  0  0  0  0  0  0  0  0  0  0
    0.1030    0.6138    0.8014 C   0  0  0  0  0  0  0  0  0  0  0  0
   -0.1535    0.3004    2.1192 O   0  0  0  0  0  0  0  0  0  0  0  0
    2.6187    0.9286   -0.8786 H   0  0  0  0  0  0  0  0  0  0  0  0
    2.6883    0.9594    0.9212 H   0  0  0  0  0  0  0  0  0  0  0  0
    3.2291   -0.5150    0.0963 H   0  0  0  0  0  0  0  0  0  0  0  0
    1.6396   -2.0296   -1.0177 H   0  0  0  0  0  0  0  0  0  0  0  0
    0.1491   -2.2809    0.0532 H   0  0  0  0  0  0  0  0  0  0  0  0
    0.6218    0.1224   -1.9275 H   0  0  0  0  0  0  0  0  0  0  0  0
   -2.4731   -0.4587    1.1192 H   0  0  0  0  0  0  0  0  0  0  0  0
   -2.4761   -1.3288   -0.5296 H   0  0  0  0  0  0  0  0  0  0  0  0
   -2.3655    0.9171   -1.7251 H   0  0  0  0  0  0  0  0  0  0  0  0
   -2.4955    1.7247   -0.0704 H   0  0  0  0  0  0  0  0  0  0  0  0
    0.3651    1.7047    0.7107 H   0  0  0  0  0  0  0  0  0  0  0  0
   -1.0614    0.5759    2.4080 H   0  0  0  0  0  0  0  0  0  0  0  0
  1  2  1  0
  2  3  1  0
  3  4  1  0
  4  5  1  0
  5  6  1  0
  6  7  1  0
  5  8  1  0
  8  9  1  0
  4  2  1  0
  7  5  1  0
  8  2  1  0
  1 10  1  0
  1 11  1  0
  1 12  1  0
  3 13  1  0
  3 14  1  0
  4 15  1  0
  6 16  1  0
  6 17  1  0
  7 18  1  0
  7 19  1  0
  8 20  1  0
  9 21  1  0
M  END
