
     RDKit          3D

 19 20  0  0  0  0  0  0  0  0999 V2000
    2.3267    0.1422    0.1145 C   0  0  0  0  0  0  0  0  0  0  0  0
    0.8423   -0.0083    0.1047 C   0  0  0  0  0  0  0  0  0  0  0  0
    0.2566   -0.8484   -0.9939 C   0  0  0  0  0  0  0  0  0  0  0  0
   -0.6480   -1.2472    0.1365 C   0  0  0  0  0  0  0  0  0  0  0  0
   -1.7750   -0.3111    0.4101 C   0  0  0  0  0  0  0  0  0  0  0  0
   -1.4219    1.1124    0.0611 C   0  0  0  0  0  0  0  0  0  0  0  0
    0.0459    1.2334    0.1596 C   0  0  0  0  0  0  0  0  0  0  0  0
    0.5897    2.2967    0.2804 O   0  0  0  0  0  0  0  0  0  0  0  0
    0.3993   -0.9615    1.0213 O   0  0  0  0  0  0  0  0  0  0  0  0
    2.7813   -0.8479    0.3086 H   0  0  0  0  0  0  0  0  0  0  0  0
    2.7067    0.6255   -0.7930 H   0  0  0  0  0  0  0  0  0  0  0  0
    2.5944    0.7966    0.9697 H   0  0  0  0  0  0  0  0  0  0  0  0
    0.8592   -1.6738   -1.3736 H   0  0  0  0  0  0  0  0  0  0  0  0
   -0.2300   -0.2560   -1.7946 H   0  0  0  0  0  0  0  0  0  0  0  0
   -0.9108   -2.3269    0.1069 H   0  0  0  0  0  0  0  0  0  0  0  0
   -2.7399   -0.6329   -0.0313 H   0  0  0  0  0  0  0  0  0  0  0  0
   -1.9455   -0.3196    1.5270 H   0  0  0  0  0  0  0  0  0  0  0  0
   -1.7941    1.3907   -0.9622 H   0  0  0  0  0  0  0  0  0  0  0  0
   -1.9367    1.8362    0.7481 H   0  0  0  0  0  0  0  0  0  0  0  0
  1  2  1  0
  2  3  1  0
  3  4  1  0
  4  5  1  0
  5  6  1  0
  6  7  1  0
  7  8  2  0
  4  9  1  0
  7  2  1  0
  9  2  1  0
  1 10  1  0
  1 11  1  0
  1 12  1  0
  3 13  1  0
  3 14  1  0
  4 15  1  0
  5 16  1  0
  5 17  1  0
  6 18  1  0
  6 19  1  0
M  END
