
     RDKit          3D

 23 24  0  0  0  0  0  0  0  0999 V2000
    2.1600   -1.2767   -0.1278 C   0  0  0  0  0  0  0  0  0  0  0  0
    0.9575   -0.3936   -0.1218 C   0  0  0  0  0  0  0  0  0  0  0  0
    1.2807    1.0709   -0.1454 C   0  0  0  0  0  0  0  0  0  0  0  0
    0.0832    1.9414   -0.3138 C   0  0  0  0  0  0  0  0  0  0  0  0
   -1.1520    1.1183   -0.5430 C   0  0  0  0  0  0  0  0  0  0  0  0
   -0.9651   -0.3344   -0.3041 C   0  0  0  0  0  0  0  0  0  0  0  0
   -2.2378   -1.1082   -0.4173 C   0  0  0  0  0  0  0  0  0  0  0  0
   -0.1078   -0.6801    0.8708 C   0  0  0  0  0  0  0  0  0  0  0  0
    0.0804   -0.7742   -1.1399 O   0  0  0  0  0  0  0  0  0  0  0  0
    2.6432   -1.2338    0.8673 H   0  0  0  0  0  0  0  0  0  0  0  0
    2.8678   -0.8728   -0.8942 H   0  0  0  0  0  0  0  0  0  0  0  0
    1.8873   -2.3305   -0.4060 H   0  0  0  0  0  0  0  0  0  0  0  0
    2.0782    1.2740   -0.8979 H   0  0  0  0  0  0  0  0  0  0  0  0
    1.7481    1.3154    0.8446 H   0  0  0  0  0  0  0  0  0  0  0  0
   -0.1036    2.5783    0.5802 H   0  0  0  0  0  0  0  0  0  0  0  0
    0.2686    2.6759   -1.1516 H   0  0  0  0  0  0  0  0  0  0  0  0
   -1.4153    1.2467   -1.6349 H   0  0  0  0  0  0  0  0  0  0  0  0
   -2.0418    1.4926    0.0045 H   0  0  0  0  0  0  0  0  0  0  0  0
   -3.0520   -0.4788    0.0258 H   0  0  0  0  0  0  0  0  0  0  0  0
   -2.4542   -1.4143   -1.4511 H   0  0  0  0  0  0  0  0  0  0  0  0
   -2.1501   -1.9915    0.2661 H   0  0  0  0  0  0  0  0  0  0  0  0
   -0.1947   -1.7724    1.0957 H   0  0  0  0  0  0  0  0  0  0  0  0
   -0.1805   -0.0521    1.7604 H   0  0  0  0  0  0  0  0  0  0  0  0
  1  2  1  0
  2  3  1  0
  3  4  1  0
  4  5  1  0
  5  6  1  0
  6  7  1  0
  6  8  1  0
  6  9  1  0
  8  2  1  0
  9  2  1  0
  1 10  1  0
  1 11  1  0
  1 12  1  0
  3 13  1  0
  3 14  1  0
  4 15  1  0
  4 16  1  0
  5 17  1  0
  5 18  1  0
  7 19  1  0
  7 20  1  0
  7 21  1  0
  8 22  1  0
  8 23  1  0
M  END
