
     RDKit          3D

 23 25  0  0  0  0  0  0  0  0999 V2000
    2.2702    0.2106    0.2415 C   0  0  0  0  0  0  0  0  0  0  0  0
    0.8022    0.0645    0.0474 C   0  0  0  0  0  0  0  0  0  0  0  0
    0.1622    1.4277   -0.2418 C   0  0  0  0  0  0  0  0  0  0  0  0
   -1.3047    1.2349    0.0613 C   0  0  0  0  0  0  0  0  0  0  0  0
   -1.8439   -0.0874   -0.2754 C   0  0  0  0  0  0  0  0  0  0  0  0
   -1.0136   -1.0913   -0.8846 C   0  0  0  0  0  0  0  0  0  0  0  0
    0.4174   -0.8055   -1.1157 C   0  0  0  0  0  0  0  0  0  0  0  0
   -1.1567   -1.1296    0.5947 C   0  0  0  0  0  0  0  0  0  0  0  0
    0.1119   -0.6055    1.2017 C   0  0  0  0  0  0  0  0  0  0  0  0
    2.4345    1.0513    0.9608 H   0  0  0  0  0  0  0  0  0  0  0  0
    2.7124   -0.6797    0.6984 H   0  0  0  0  0  0  0  0  0  0  0  0
    2.7437    0.5137   -0.7069 H   0  0  0  0  0  0  0  0  0  0  0  0
    0.6217    2.2334    0.3232 H   0  0  0  0  0  0  0  0  0  0  0  0
    0.2329    1.6078   -1.3422 H   0  0  0  0  0  0  0  0  0  0  0  0
   -1.8807    2.0845   -0.3989 H   0  0  0  0  0  0  0  0  0  0  0  0
   -1.4453    1.3942    1.1733 H   0  0  0  0  0  0  0  0  0  0  0  0
   -2.9395   -0.1508   -0.4234 H   0  0  0  0  0  0  0  0  0  0  0  0
   -1.5053   -1.8785   -1.4969 H   0  0  0  0  0  0  0  0  0  0  0  0
    0.6760   -0.3973   -2.0944 H   0  0  0  0  0  0  0  0  0  0  0  0
    0.9992   -1.7688   -1.0201 H   0  0  0  0  0  0  0  0  0  0  0  0
   -1.7936   -1.8432    1.1090 H   0  0  0  0  0  0  0  0  0  0  0  0
   -0.0397    0.0593    2.0562 H   0  0  0  0  0  0  0  0  0  0  0  0
    0.7387   -1.4443    1.5326 H   0  0  0  0  0  0  0  0  0  0  0  0
  1  2  1  0
  2  3  1  0
  3  4  1  0
  4  5  1  0
  5  6  1  0
  6  7  1  0
  6  8  1  0
  8  9  1  0
  7  2  1  0
  9  2  1  0
  8  5  1  0
  1 10  1  0
  1 11  1  0
  1 12  1  0
  3 13  1  0
  3 14  1  0
  4 15  1  0
  4 16  1  0
  5 17  1  0
  6 18  1  0
  7 19  1  0
  7 20  1  0
  8 21  1  0
  9 22  1  0
  9 23  1  0
M  END
