
     RDKit          3D

 17 18  0  0  0  0  0  0  0  0999 V2000
   -1.8061   -0.1968   -0.4063 C   0  0  0  0  0  0  0  0  0  0  0  0
   -0.4797   -0.2048    0.2571 C   0  0  0  0  0  0  0  0  0  0  0  0
    0.2405   -1.4377    0.6285 C   0  0  0  0  0  0  0  0  0  0  0  0
    0.6782   -0.7913   -0.6137 C   0  0  0  0  0  0  0  0  0  0  0  0
    1.2010    0.5988   -0.6847 C   0  0  0  0  0  0  0  0  0  0  0  0
    0.3037    1.0720    0.4529 C   0  0  0  0  0  0  0  0  0  0  0  0
    0.9812    1.0009    1.6848 O   0  0  0  0  0  0  0  0  0  0  0  0
   -1.9566   -1.0758   -1.0841 H   0  0  0  0  0  0  0  0  0  0  0  0
   -1.9735    0.7227   -1.0177 H   0  0  0  0  0  0  0  0  0  0  0  0
   -2.5901   -0.2748    0.3941 H   0  0  0  0  0  0  0  0  0  0  0  0
   -0.3287   -2.3780    0.5239 H   0  0  0  0  0  0  0  0  0  0  0  0
    0.8909   -1.4514    1.5454 H   0  0  0  0  0  0  0  0  0  0  0  0
    0.3830   -1.2466   -1.5728 H   0  0  0  0  0  0  0  0  0  0  0  0
    0.8508    1.1228   -1.6221 H   0  0  0  0  0  0  0  0  0  0  0  0
    2.2662    0.7591   -0.4435 H   0  0  0  0  0  0  0  0  0  0  0  0
   -0.2506    1.9917    0.2702 H   0  0  0  0  0  0  0  0  0  0  0  0
    1.5900    1.7892    1.6877 H   0  0  0  0  0  0  0  0  0  0  0  0
  1  2  1  0
  2  3  1  0
  3  4  1  0
  4  5  1  0
  5  6  1  0
  6  7  1  0
  4  2  1  0
  6  2  1  0
  1  8  1  0
  1  9  1  0
  1 10  1  0
  3 11  1  0
  3 12  1  0
  4 13  1  0
  5 14  1  0
  5 15  1  0
  6 16  1  0
  7 17  1  0
M  END
