
     RDKit          3D

 19 20  0  0  0  0  0  0  0  0999 V2000
    0.7716    1.2644   -0.6875 C   0  0  0  0  0  0  0  0  0  0  0  0
    0.4186    0.2959    0.4080 C   0  0  0  0  0  0  0  0  0  0  0  0
    1.4288    0.1490    1.3044 O   0  0  0  0  0  0  0  0  0  0  0  0
    2.0251   -0.7372    0.3390 C   0  0  0  0  0  0  0  0  0  0  0  0
    0.6408   -1.1529    0.0414 C   0  0  0  0  0  0  0  0  0  0  0  0
   -0.5185   -1.6996   -0.2589 C   0  0  0  0  0  0  0  0  0  0  0  0
   -1.6278   -0.6786   -0.1186 C   0  0  0  0  0  0  0  0  0  0  0  0
   -1.0044    0.3700    0.8181 C   0  0  0  0  0  0  0  0  0  0  0  0
   -1.6085    1.5883    0.5162 O   0  0  0  0  0  0  0  0  0  0  0  0
    1.7848    1.6883   -0.5979 H   0  0  0  0  0  0  0  0  0  0  0  0
    0.0725    2.1433   -0.5686 H   0  0  0  0  0  0  0  0  0  0  0  0
    0.5660    0.8272   -1.6938 H   0  0  0  0  0  0  0  0  0  0  0  0
    2.6860   -1.4662    0.8038 H   0  0  0  0  0  0  0  0  0  0  0  0
    2.5212   -0.2104   -0.4777 H   0  0  0  0  0  0  0  0  0  0  0  0
   -0.7291   -2.7142   -0.5668 H   0  0  0  0  0  0  0  0  0  0  0  0
   -1.8670   -0.2484   -1.1053 H   0  0  0  0  0  0  0  0  0  0  0  0
   -2.4978   -1.0838    0.4087 H   0  0  0  0  0  0  0  0  0  0  0  0
   -1.1822    0.0958    1.8662 H   0  0  0  0  0  0  0  0  0  0  0  0
   -1.8801    1.5693   -0.4307 H   0  0  0  0  0  0  0  0  0  0  0  0
  1  2  1  0
  2  3  1  0
  3  4  1  0
  4  5  1  0
  5  6  2  0
  6  7  1  0
  7  8  1  0
  8  9  1  0
  5  2  1  0
  8  2  1  0
  1 10  1  0
  1 11  1  0
  1 12  1  0
  4 13  1  0
  4 14  1  0
  6 15  1  0
  7 16  1  0
  7 17  1  0
  8 18  1  0
  9 19  1  0
M  END
