
     RDKit          3D

 19 22  0  0  0  0  0  0  0  0999 V2000
   -0.7743    1.3334   -1.2926 C   0  0  0  0  0  0  0  0  0  0  0  0
   -0.3738    0.2688   -0.4306 C   0  0  0  0  0  0  0  0  0  0  0  0
    0.0590    0.5450    0.9982 C   0  0  0  0  0  0  0  0  0  0  0  0
    1.5436    0.4942    0.8143 C   0  0  0  0  0  0  0  0  0  0  0  0
    1.8281   -0.1823   -0.3393 O   0  0  0  0  0  0  0  0  0  0  0  0
    0.6800   -0.7298   -0.8550 C   0  0  0  0  0  0  0  0  0  0  0  0
   -0.0414   -1.6907    0.1093 C   0  0  0  0  0  0  0  0  0  0  0  0
   -0.4575   -0.8737    1.2785 C   0  0  0  0  0  0  0  0  0  0  0  0
   -1.2019   -0.8225    0.0306 C   0  0  0  0  0  0  0  0  0  0  0  0
    0.1101    1.7522   -1.8564 H   0  0  0  0  0  0  0  0  0  0  0  0
   -1.5213    1.0126   -2.0405 H   0  0  0  0  0  0  0  0  0  0  0  0
   -1.1823    2.1888   -0.7156 H   0  0  0  0  0  0  0  0  0  0  0  0
   -0.3988    1.3472    1.5256 H   0  0  0  0  0  0  0  0  0  0  0  0
    1.9923    1.4886    0.8638 H   0  0  0  0  0  0  0  0  0  0  0  0
    1.9624   -0.1034    1.6716 H   0  0  0  0  0  0  0  0  0  0  0  0
    0.7017   -1.0292   -1.8881 H   0  0  0  0  0  0  0  0  0  0  0  0
    0.0376   -2.7384    0.0424 H   0  0  0  0  0  0  0  0  0  0  0  0
   -0.7473   -1.2076    2.2331 H   0  0  0  0  0  0  0  0  0  0  0  0
   -2.2162   -1.0531   -0.1495 H   0  0  0  0  0  0  0  0  0  0  0  0
  1  2  1  0
  2  3  1  0
  3  4  1  0
  4  5  1  0
  5  6  1  0
  6  7  1  0
  7  8  1  0
  8  9  1  0
  6  2  1  0
  9  7  1  0
  9  2  1  0
  8  3  1  0
  1 10  1  0
  1 11  1  0
  1 12  1  0
  3 13  1  0
  4 14  1  0
  4 15  1  0
  6 16  1  0
  7 17  1  0
  8 18  1  0
  9 19  1  0
M  END
