
     RDKit          3D

 19 20  0  0  0  0  0  0  0  0999 V2000
   -1.3800   -1.5959   -0.2281 C   0  0  0  0  0  0  0  0  0  0  0  0
   -0.6394   -0.3500   -0.2809 C   0  0  0  0  0  0  0  0  0  0  0  0
   -0.5974    0.5277    0.9632 C   0  0  0  0  0  0  0  0  0  0  0  0
    0.1265    1.7250    0.3135 C   0  0  0  0  0  0  0  0  0  0  0  0
    0.4427    1.0390   -1.0059 C   0  0  0  0  0  0  0  0  0  0  0  0
   -0.8360    0.5297   -1.3353 O   0  0  0  0  0  0  0  0  0  0  0  0
    0.8180   -0.3697   -0.6720 C   0  0  0  0  0  0  0  0  0  0  0  0
    1.7657   -0.5246    0.4564 C   0  0  0  0  0  0  0  0  0  0  0  0
    1.8466   -1.5973    1.0195 O   0  0  0  0  0  0  0  0  0  0  0  0
   -1.3923   -2.0220    0.7723 H   0  0  0  0  0  0  0  0  0  0  0  0
   -2.4580   -1.4131   -0.5057 H   0  0  0  0  0  0  0  0  0  0  0  0
   -0.9841   -2.3164   -0.9764 H   0  0  0  0  0  0  0  0  0  0  0  0
   -1.6002    0.8210    1.2886 H   0  0  0  0  0  0  0  0  0  0  0  0
    0.0161    0.0684    1.7461 H   0  0  0  0  0  0  0  0  0  0  0  0
   -0.5767    2.5370    0.1065 H   0  0  0  0  0  0  0  0  0  0  0  0
    1.0201    1.9985    0.8748 H   0  0  0  0  0  0  0  0  0  0  0  0
    0.9663    1.5804   -1.7529 H   0  0  0  0  0  0  0  0  0  0  0  0
    1.0766   -0.9311   -1.5729 H   0  0  0  0  0  0  0  0  0  0  0  0
    2.3855    0.2934    0.7894 H   0  0  0  0  0  0  0  0  0  0  0  0
  1  2  1  0
  2  3  1  0
  3  4  1  0
  4  5  1  0
  5  6  1  0
  5  7  1  0
  7  8  1  0
  8  9  2  0
  6  2  1  0
  7  2  1  0
  1 10  1  0
  1 11  1  0
  1 12  1  0
  3 13  1  0
  3 14  1  0
  4 15  1  0
  4 16  1  0
  5 17  1  0
  7 18  1  0
  8 19  1  0
M  END
