
     RDKit          3D

 17 18  0  0  0  0  0  0  0  0999 V2000
   -0.5708   -1.4381   -0.8575 C   0  0  0  0  0  0  0  0  0  0  0  0
   -0.1746   -0.4246    0.1511 C   0  0  0  0  0  0  0  0  0  0  0  0
   -1.2448    0.1276    1.0262 C   0  0  0  0  0  0  0  0  0  0  0  0
   -1.5421    1.3604    0.4016 O   0  0  0  0  0  0  0  0  0  0  0  0
   -0.3428    1.8823   -0.0327 C   0  0  0  0  0  0  0  0  0  0  0  0
   -0.0468    3.0980   -0.0748 O   0  0  0  0  0  0  0  0  0  0  0  0
    0.5479    0.7896   -0.4441 C   0  0  0  0  0  0  0  0  0  0  0  0
    1.2171   -0.1105    0.5000 C   0  0  0  0  0  0  0  0  0  0  0  0
    2.2814   -0.8641    0.0336 O   0  0  0  0  0  0  0  0  0  0  0  0
   -1.2228   -0.9207   -1.6214 H   0  0  0  0  0  0  0  0  0  0  0  0
   -1.2657   -2.1881   -0.3819 H   0  0  0  0  0  0  0  0  0  0  0  0
    0.2520   -1.9578   -1.3589 H   0  0  0  0  0  0  0  0  0  0  0  0
   -0.9221    0.3270    2.0643 H   0  0  0  0  0  0  0  0  0  0  0  0
   -2.1481   -0.5005    0.9721 H   0  0  0  0  0  0  0  0  0  0  0  0
    0.8779    0.7329   -1.4998 H   0  0  0  0  0  0  0  0  0  0  0  0
    1.3893    0.2950    1.5214 H   0  0  0  0  0  0  0  0  0  0  0  0
    2.9150   -0.2083   -0.3994 H   0  0  0  0  0  0  0  0  0  0  0  0
  1  2  1  0
  2  3  1  0
  3  4  1  0
  4  5  1  0
  5  6  2  0
  5  7  1  0
  7  8  1  0
  8  9  1  0
  7  2  1  0
  8  2  1  0
  1 10  1  0
  1 11  1  0
  1 12  1  0
  3 13  1  0
  3 14  1  0
  7 15  1  0
  8 16  1  0
  9 17  1  0
M  END
