
     RDKit          3D

 19 22  0  0  0  0  0  0  0  0999 V2000
   -2.5177    0.6206    0.3773 C   0  0  0  0  0  0  0  0  0  0  0  0
   -1.1263    0.1789    0.1590 C   0  0  0  0  0  0  0  0  0  0  0  0
   -0.0868    1.1035    0.2045 O   0  0  0  0  0  0  0  0  0  0  0  0
    1.0865    0.3804    0.0249 C   0  0  0  0  0  0  0  0  0  0  0  0
    2.3726    1.0993   -0.0351 C   0  0  0  0  0  0  0  0  0  0  0  0
    0.7612   -0.6418   -0.9535 C   0  0  0  0  0  0  0  0  0  0  0  0
   -0.7078   -0.7969   -0.8571 C   0  0  0  0  0  0  0  0  0  0  0  0
   -0.6036   -1.1446    0.5498 C   0  0  0  0  0  0  0  0  0  0  0  0
    0.8668   -0.9438    0.5750 C   0  0  0  0  0  0  0  0  0  0  0  0
   -2.8271    0.6561    1.4486 H   0  0  0  0  0  0  0  0  0  0  0  0
   -3.2405   -0.0838   -0.1128 H   0  0  0  0  0  0  0  0  0  0  0  0
   -2.6659    1.6182   -0.0799 H   0  0  0  0  0  0  0  0  0  0  0  0
    2.6061    1.5464   -1.0399 H   0  0  0  0  0  0  0  0  0  0  0  0
    3.2460    0.4750    0.2396 H   0  0  0  0  0  0  0  0  0  0  0  0
    2.3001    1.9891    0.6509 H   0  0  0  0  0  0  0  0  0  0  0  0
    1.4197   -1.2449   -1.5404 H   0  0  0  0  0  0  0  0  0  0  0  0
   -1.3354   -1.2473   -1.6030 H   0  0  0  0  0  0  0  0  0  0  0  0
   -1.1365   -1.9012    1.0877 H   0  0  0  0  0  0  0  0  0  0  0  0
    1.5886   -1.6631    0.9045 H   0  0  0  0  0  0  0  0  0  0  0  0
  1  2  1  0
  2  3  1  0
  3  4  1  0
  4  5  1  0
  4  6  1  0
  6  7  1  0
  7  8  1  0
  8  9  1  0
  7  2  1  0
  8  2  1  0
  9  4  1  0
  9  6  1  0
  1 10  1  0
  1 11  1  0
  1 12  1  0
  5 13  1  0
  5 14  1  0
  5 15  1  0
  6 16  1  0
  7 17  1  0
  8 18  1  0
  9 19  1  0
M  END
