
     RDKit          3D

 21 22  0  0  0  0  0  0  0  0999 V2000
   -0.9396    1.7217    0.6021 C   0  0  0  0  0  0  0  0  0  0  0  0
   -0.6760    0.3939    0.0931 C   0  0  0  0  0  0  0  0  0  0  0  0
   -1.1975   -0.8059    0.9049 C   0  0  0  0  0  0  0  0  0  0  0  0
   -0.0632   -1.5053    0.1341 C   0  0  0  0  0  0  0  0  0  0  0  0
   -0.5639   -1.3117   -1.2633 C   0  0  0  0  0  0  0  0  0  0  0  0
   -0.8432    0.0793   -1.2313 O   0  0  0  0  0  0  0  0  0  0  0  0
    0.6994   -0.2301    0.3869 C   0  0  0  0  0  0  0  0  0  0  0  0
    1.7470    0.1577   -0.5978 C   0  0  0  0  0  0  0  0  0  0  0  0
    1.8656    1.5617   -0.5450 O   0  0  0  0  0  0  0  0  0  0  0  0
   -0.0908    2.0689    1.2545 H   0  0  0  0  0  0  0  0  0  0  0  0
   -1.0494    2.4537   -0.2456 H   0  0  0  0  0  0  0  0  0  0  0  0
   -1.8840    1.7928    1.1823 H   0  0  0  0  0  0  0  0  0  0  0  0
   -0.9572   -0.6828    1.9576 H   0  0  0  0  0  0  0  0  0  0  0  0
   -2.1984   -1.1325    0.6240 H   0  0  0  0  0  0  0  0  0  0  0  0
    0.2846   -2.4285    0.4857 H   0  0  0  0  0  0  0  0  0  0  0  0
   -1.5752   -1.7939   -1.3944 H   0  0  0  0  0  0  0  0  0  0  0  0
    0.1072   -1.6041   -2.0630 H   0  0  0  0  0  0  0  0  0  0  0  0
    0.9401   -0.1091    1.4484 H   0  0  0  0  0  0  0  0  0  0  0  0
    1.3809   -0.0845   -1.6184 H   0  0  0  0  0  0  0  0  0  0  0  0
    2.7131   -0.3091   -0.4384 H   0  0  0  0  0  0  0  0  0  0  0  0
    2.3007    1.7676    0.3235 H   0  0  0  0  0  0  0  0  0  0  0  0
  1  2  1  0
  2  3  1  0
  3  4  1  0
  4  5  1  0
  5  6  1  0
  4  7  1  0
  7  8  1  0
  8  9  1  0
  6  2  1  0
  7  2  1  0
  1 10  1  0
  1 11  1  0
  1 12  1  0
  3 13  1  0
  3 14  1  0
  4 15  1  0
  5 16  1  0
  5 17  1  0
  7 18  1  0
  8 19  1  0
  8 20  1  0
  9 21  1  0
M  END
