
     RDKit          3D

 18 20  0  0  0  0  0  0  0  0999 V2000
    1.9940   -0.2097    0.2924 C   0  0  0  0  0  0  0  0  0  0  0  0
    0.5612   -0.1490    0.0696 C   0  0  0  0  0  0  0  0  0  0  0  0
   -0.3457    0.9600    0.4579 C   0  0  0  0  0  0  0  0  0  0  0  0
   -1.0029    1.2934   -0.8367 C   0  0  0  0  0  0  0  0  0  0  0  0
   -0.9191    0.2410   -1.6387 C   0  0  0  0  0  0  0  0  0  0  0  0
   -0.2056   -0.8780   -0.9637 C   0  0  0  0  0  0  0  0  0  0  0  0
   -0.4445   -1.1335    0.4749 C   0  0  0  0  0  0  0  0  0  0  0  0
   -1.1492   -0.0806    1.2607 C   0  0  0  0  0  0  0  0  0  0  0  0
    2.3996    0.8394    0.3938 H   0  0  0  0  0  0  0  0  0  0  0  0
    2.3578   -0.8074    1.1449 H   0  0  0  0  0  0  0  0  0  0  0  0
    2.5060   -0.5975   -0.6373 H   0  0  0  0  0  0  0  0  0  0  0  0
    0.0419    1.7845    1.0421 H   0  0  0  0  0  0  0  0  0  0  0  0
   -1.4595    2.2510   -1.0409 H   0  0  0  0  0  0  0  0  0  0  0  0
   -1.3238    0.2240   -2.6450 H   0  0  0  0  0  0  0  0  0  0  0  0
    0.3899   -1.5783   -1.5833 H   0  0  0  0  0  0  0  0  0  0  0  0
   -0.2027   -2.1130    0.9322 H   0  0  0  0  0  0  0  0  0  0  0  0
   -2.2311   -0.0256    0.9460 H   0  0  0  0  0  0  0  0  0  0  0  0
   -0.9665   -0.0207    2.3311 H   0  0  0  0  0  0  0  0  0  0  0  0
  1  2  1  0
  2  3  1  0
  3  4  1  0
  4  5  2  0
  5  6  1  0
  6  7  1  0
  7  8  1  0
  6  2  1  0
  7  2  1  0
  8  3  1  0
  1  9  1  0
  1 10  1  0
  1 11  1  0
  3 12  1  0
  4 13  1  0
  5 14  1  0
  6 15  1  0
  7 16  1  0
  8 17  1  0
  8 18  1  0
M  END
