
     RDKit          3D

 20 21  0  0  0  0  0  0  0  0999 V2000
    2.2563   -0.3874    0.0783 C   0  0  0  0  0  0  0  0  0  0  0  0
    0.8986   -0.2184    0.0495 C   0  0  0  0  0  0  0  0  0  0  0  0
   -0.0512   -0.5981   -1.0519 C   0  0  0  0  0  0  0  0  0  0  0  0
   -0.9405   -0.0535    0.0402 C   0  0  0  0  0  0  0  0  0  0  0  0
   -2.3048    0.0659    0.0104 C   0  0  0  0  0  0  0  0  0  0  0  0
   -0.1064   -0.8644    0.9884 C   0  0  0  0  0  0  0  0  0  0  0  0
    0.0902    1.0210    0.1968 C   0  0  0  0  0  0  0  0  0  0  0  0
    0.1723    1.8987   -0.8855 O   0  0  0  0  0  0  0  0  0  0  0  0
    2.7190   -0.4709   -0.9399 H   0  0  0  0  0  0  0  0  0  0  0  0
    2.8132    0.3955    0.6268 H   0  0  0  0  0  0  0  0  0  0  0  0
    2.5584   -1.3534    0.5837 H   0  0  0  0  0  0  0  0  0  0  0  0
    0.0129   -0.0046   -1.9600 H   0  0  0  0  0  0  0  0  0  0  0  0
   -0.1292   -1.6758   -1.2304 H   0  0  0  0  0  0  0  0  0  0  0  0
   -2.8260   -0.6782    0.6837 H   0  0  0  0  0  0  0  0  0  0  0  0
   -2.6736    1.0585    0.3825 H   0  0  0  0  0  0  0  0  0  0  0  0
   -2.7649   -0.1389   -1.0001 H   0  0  0  0  0  0  0  0  0  0  0  0
   -0.1191   -0.4039    2.0007 H   0  0  0  0  0  0  0  0  0  0  0  0
   -0.1787   -1.9467    0.9317 H   0  0  0  0  0  0  0  0  0  0  0  0
    0.1369    1.5534    1.1408 H   0  0  0  0  0  0  0  0  0  0  0  0
    0.4365    2.8014   -0.6457 H   0  0  0  0  0  0  0  0  0  0  0  0
  1  2  1  0
  2  3  1  0
  3  4  1  0
  4  5  1  0
  4  6  1  0
  4  7  1  0
  7  8  1  0
  6  2  1  0
  7  2  1  0
  1  9  1  0
  1 10  1  0
  1 11  1  0
  3 12  1  0
  3 13  1  0
  5 14  1  0
  5 15  1  0
  5 16  1  0
  6 17  1  0
  6 18  1  0
  7 19  1  0
  8 20  1  0
M  END
