
     RDKit          3D

 17 18  0  0  0  0  0  0  0  0999 V2000
   -1.9269    1.2049   -0.2765 C   0  0  0  0  0  0  0  0  0  0  0  0
   -0.6779    0.6149   -0.1902 C   0  0  0  0  0  0  0  0  0  0  0  0
    0.3774    1.0525    0.6033 O   0  0  0  0  0  0  0  0  0  0  0  0
    0.9133   -0.0779   -0.0012 C   0  0  0  0  0  0  0  0  0  0  0  0
    2.1909   -0.5726    0.1767 C   0  0  0  0  0  0  0  0  0  0  0  0
    0.2922    0.3848   -1.2332 C   0  0  0  0  0  0  0  0  0  0  0  0
    0.6052    0.4482   -2.3994 O   0  0  0  0  0  0  0  0  0  0  0  0
   -0.3736   -0.7559    0.3287 C   0  0  0  0  0  0  0  0  0  0  0  0
   -0.6880   -0.9015    1.6574 O   0  0  0  0  0  0  0  0  0  0  0  0
   -2.4065    1.0769   -1.2695 H   0  0  0  0  0  0  0  0  0  0  0  0
   -2.6361    0.8161    0.5092 H   0  0  0  0  0  0  0  0  0  0  0  0
   -1.8889    2.3147   -0.0703 H   0  0  0  0  0  0  0  0  0  0  0  0
    2.8632   -0.3456   -0.7020 H   0  0  0  0  0  0  0  0  0  0  0  0
    2.2256   -1.6851    0.2704 H   0  0  0  0  0  0  0  0  0  0  0  0
    2.7207   -0.1516    1.0532 H   0  0  0  0  0  0  0  0  0  0  0  0
   -0.5773   -1.5952   -0.3379 H   0  0  0  0  0  0  0  0  0  0  0  0
   -1.0134   -1.8276    1.8817 H   0  0  0  0  0  0  0  0  0  0  0  0
  1  2  1  0
  2  3  1  0
  3  4  1  0
  4  5  1  0
  4  6  1  0
  6  7  2  0
  4  8  1  0
  8  9  1  0
  6  2  1  0
  8  2  1  0
  1 10  1  0
  1 11  1  0
  1 12  1  0
  5 13  1  0
  5 14  1  0
  5 15  1  0
  8 16  1  0
  9 17  1  0
M  END
