
     RDKit          3D

 19 21  0  0  0  0  0  0  0  0999 V2000
   -2.5152    0.2010   -0.5482 C   0  0  0  0  0  0  0  0  0  0  0  0
   -1.1651   -0.0580    0.0995 C   0  0  0  0  0  0  0  0  0  0  0  0
   -0.4777   -1.2410   -0.4069 C   0  0  0  0  0  0  0  0  0  0  0  0
    0.8035   -1.4639   -0.2765 C   0  0  0  0  0  0  0  0  0  0  0  0
    1.7080   -0.5358    0.4043 C   0  0  0  0  0  0  0  0  0  0  0  0
    2.1610    0.7281   -0.2124 C   0  0  0  0  0  0  0  0  0  0  0  0
    1.0941    0.7047    0.8187 C   0  0  0  0  0  0  0  0  0  0  0  0
   -0.3020    0.9952    0.4551 C   0  0  0  0  0  0  0  0  0  0  0  0
   -1.1704    0.2582    1.4494 O   0  0  0  0  0  0  0  0  0  0  0  0
   -3.2848   -0.1579    0.1675 H   0  0  0  0  0  0  0  0  0  0  0  0
   -2.6323    1.2715   -0.7945 H   0  0  0  0  0  0  0  0  0  0  0  0
   -2.6559   -0.4321   -1.4671 H   0  0  0  0  0  0  0  0  0  0  0  0
   -1.0948   -2.0136   -0.9436 H   0  0  0  0  0  0  0  0  0  0  0  0
    1.2371   -2.4192   -0.7097 H   0  0  0  0  0  0  0  0  0  0  0  0
    2.4617   -1.0695    1.0403 H   0  0  0  0  0  0  0  0  0  0  0  0
    3.1907    1.0478    0.0275 H   0  0  0  0  0  0  0  0  0  0  0  0
    1.8607    1.0156   -1.2527 H   0  0  0  0  0  0  0  0  0  0  0  0
    1.4459    1.1185    1.8107 H   0  0  0  0  0  0  0  0  0  0  0  0
   -0.6645    2.0505    0.3384 H   0  0  0  0  0  0  0  0  0  0  0  0
  1  2  1  0
  2  3  1  0
  3  4  2  0
  4  5  1  0
  5  6  1  0
  6  7  1  0
  7  8  1  0
  8  9  1  0
  8  2  1  0
  9  2  1  0
  7  5  1  0
  1 10  1  0
  1 11  1  0
  1 12  1  0
  3 13  1  0
  4 14  1  0
  5 15  1  0
  6 16  1  0
  6 17  1  0
  7 18  1  0
  8 19  1  0
M  END
