
     RDKit          3D

 18 19  0  0  0  0  0  0  0  0999 V2000
   -1.9383   -0.6150    0.3859 C   0  0  0  0  0  0  0  0  0  0  0  0
   -0.6757    0.1982    0.2328 C   0  0  0  0  0  0  0  0  0  0  0  0
   -0.6251    1.4069   -0.6061 C   0  0  0  0  0  0  0  0  0  0  0  0
   -0.0077    0.1423   -1.0791 C   0  0  0  0  0  0  0  0  0  0  0  0
    1.2641   -0.2764   -0.4283 C   0  0  0  0  0  0  0  0  0  0  0  0
    1.7705   -1.5113   -0.7647 O   0  0  0  0  0  0  0  0  0  0  0  0
    0.5852   -0.2414    0.9250 C   0  0  0  0  0  0  0  0  0  0  0  0
    1.1577    0.7217    1.7486 O   0  0  0  0  0  0  0  0  0  0  0  0
   -2.7862   -0.0393   -0.0086 H   0  0  0  0  0  0  0  0  0  0  0  0
   -2.0454   -0.8665    1.4555 H   0  0  0  0  0  0  0  0  0  0  0  0
   -1.7731   -1.5671   -0.1595 H   0  0  0  0  0  0  0  0  0  0  0  0
    0.0177    2.2243   -0.2491 H   0  0  0  0  0  0  0  0  0  0  0  0
   -1.5740    1.7014   -1.1040 H   0  0  0  0  0  0  0  0  0  0  0  0
   -0.4171   -0.3715   -1.9515 H   0  0  0  0  0  0  0  0  0  0  0  0
    2.0454    0.5161   -0.5704 H   0  0  0  0  0  0  0  0  0  0  0  0
    2.7375   -1.5186   -0.4980 H   0  0  0  0  0  0  0  0  0  0  0  0
    0.4840   -1.2212    1.4310 H   0  0  0  0  0  0  0  0  0  0  0  0
    1.7806    1.3172    1.2407 H   0  0  0  0  0  0  0  0  0  0  0  0
  1  2  1  0
  2  3  1  0
  3  4  1  0
  4  5  1  0
  5  6  1  0
  5  7  1  0
  7  8  1  0
  4  2  1  0
  7  2  1  0
  1  9  1  0
  1 10  1  0
  1 11  1  0
  3 12  1  0
  3 13  1  0
  4 14  1  0
  5 15  1  0
  6 16  1  0
  7 17  1  0
  8 18  1  0
M  END
