
     RDKit          3D

 21 23  0  0  0  0  0  0  0  0999 V2000
   -1.6814   -1.0389    0.8909 C   0  0  0  0  0  0  0  0  0  0  0  0
   -0.8966   -0.3365   -0.0184 C   0  0  0  0  0  0  0  0  0  0  0  0
   -1.4765    1.0373   -0.3565 C   0  0  0  0  0  0  0  0  0  0  0  0
   -0.2669    1.8839    0.0263 C   0  0  0  0  0  0  0  0  0  0  0  0
    0.7811    1.1387   -0.1225 C   0  0  0  0  0  0  0  0  0  0  0  0
    2.1399    0.5635   -0.1818 C   0  0  0  0  0  0  0  0  0  0  0  0
    1.7164   -0.8875    0.3048 C   0  0  0  0  0  0  0  0  0  0  0  0
    0.3158   -1.0648   -0.2468 C   0  0  0  0  0  0  0  0  0  0  0  0
    0.0735   -0.0089   -0.9856 C   0  0  0  0  0  0  0  0  0  0  0  0
   -2.5217   -1.6125    0.3895 H   0  0  0  0  0  0  0  0  0  0  0  0
   -2.2514   -0.3782    1.6198 H   0  0  0  0  0  0  0  0  0  0  0  0
   -1.2579   -1.8074    1.6051 H   0  0  0  0  0  0  0  0  0  0  0  0
   -1.7608    1.1587   -1.4045 H   0  0  0  0  0  0  0  0  0  0  0  0
   -2.2642    1.3327    0.2979 H   0  0  0  0  0  0  0  0  0  0  0  0
   -0.2737    2.9277    0.3654 H   0  0  0  0  0  0  0  0  0  0  0  0
    2.8325    0.9578    0.5571 H   0  0  0  0  0  0  0  0  0  0  0  0
    2.4824    0.5248   -1.2111 H   0  0  0  0  0  0  0  0  0  0  0  0
    1.7429   -0.9549    1.3763 H   0  0  0  0  0  0  0  0  0  0  0  0
    2.4208   -1.5300   -0.2438 H   0  0  0  0  0  0  0  0  0  0  0  0
    0.1869   -2.1236   -0.6456 H   0  0  0  0  0  0  0  0  0  0  0  0
   -0.0411    0.2182   -2.0163 H   0  0  0  0  0  0  0  0  0  0  0  0
  1  2  1  0
  2  3  1  0
  3  4  1  0
  4  5  2  0
  5  6  1  0
  6  7  1  0
  7  8  1  0
  8  9  1  0
  8  2  1  0
  9  2  1  0
  9  5  1  0
  1 10  1  0
  1 11  1  0
  1 12  1  0
  3 13  1  0
  3 14  1  0
  4 15  1  0
  6 16  1  0
  6 17  1  0
  7 18  1  0
  7 19  1  0
  8 20  1  0
  9 21  1  0
M  END
