
     RDKit          3D

 19 20  0  0  0  0  0  0  0  0999 V2000
   -2.1499    0.7068   -0.3670 C   0  0  0  0  0  0  0  0  0  0  0  0
   -0.7877    0.2349   -0.2460 C   0  0  0  0  0  0  0  0  0  0  0  0
   -0.1999    0.1078    1.1692 C   0  0  0  0  0  0  0  0  0  0  0  0
    0.7186   -0.8675    0.4528 C   0  0  0  0  0  0  0  0  0  0  0  0
   -0.5509   -1.2849   -0.3052 C   0  0  0  0  0  0  0  0  0  0  0  0
    1.3461    0.0039   -0.5796 C   0  0  0  0  0  0  0  0  0  0  0  0
    2.4813    0.8005   -0.1038 C   0  0  0  0  0  0  0  0  0  0  0  0
    3.4938    0.2083    0.2276 O   0  0  0  0  0  0  0  0  0  0  0  0
    0.2400    0.8218   -0.9295 O   0  0  0  0  0  0  0  0  0  0  0  0
   -2.4599    1.4854    0.3900 H   0  0  0  0  0  0  0  0  0  0  0  0
   -2.8657   -0.1566   -0.2286 H   0  0  0  0  0  0  0  0  0  0  0  0
   -2.3564    1.1330   -1.3433 H   0  0  0  0  0  0  0  0  0  0  0  0
   -0.8729   -0.4507    1.8323 H   0  0  0  0  0  0  0  0  0  0  0  0
    0.2675    1.0138    1.5526 H   0  0  0  0  0  0  0  0  0  0  0  0
    1.2464   -1.5929    0.9925 H   0  0  0  0  0  0  0  0  0  0  0  0
   -1.2917   -1.8095    0.2959 H   0  0  0  0  0  0  0  0  0  0  0  0
   -0.3451   -1.6534   -1.3166 H   0  0  0  0  0  0  0  0  0  0  0  0
    1.5921   -0.5820   -1.4716 H   0  0  0  0  0  0  0  0  0  0  0  0
    2.4942    1.8814   -0.0219 H   0  0  0  0  0  0  0  0  0  0  0  0
  1  2  1  0
  2  3  1  0
  3  4  1  0
  4  5  1  0
  4  6  1  0
  6  7  1  0
  7  8  2  0
  6  9  1  0
  5  2  1  0
  9  2  1  0
  1 10  1  0
  1 11  1  0
  1 12  1  0
  3 13  1  0
  3 14  1  0
  4 15  1  0
  5 16  1  0
  5 17  1  0
  6 18  1  0
  7 19  1  0
M  END
