
     RDKit          3D

 21 23  0  0  0  0  0  0  0  0999 V2000
   -2.5635   -0.3524   -0.0502 C   0  0  0  0  0  0  0  0  0  0  0  0
   -1.2482    0.3356   -0.2816 C   0  0  0  0  0  0  0  0  0  0  0  0
   -0.8606    1.5058    0.6198 C   0  0  0  0  0  0  0  0  0  0  0  0
   -0.2377    0.1765    0.7871 C   0  0  0  0  0  0  0  0  0  0  0  0
    1.0109   -0.2111    0.0351 C   0  0  0  0  0  0  0  0  0  0  0  0
    2.3162    0.0985    0.6792 C   0  0  0  0  0  0  0  0  0  0  0  0
    1.0019   -1.3358   -0.9343 C   0  0  0  0  0  0  0  0  0  0  0  0
    0.6940    0.0832   -1.3633 C   0  0  0  0  0  0  0  0  0  0  0  0
   -0.6456    0.3506   -1.5035 O   0  0  0  0  0  0  0  0  0  0  0  0
   -2.3692   -1.4226    0.2303 H   0  0  0  0  0  0  0  0  0  0  0  0
   -3.0064    0.0984    0.8817 H   0  0  0  0  0  0  0  0  0  0  0  0
   -3.2518   -0.2615   -0.9049 H   0  0  0  0  0  0  0  0  0  0  0  0
   -0.3046    2.3595    0.1495 H   0  0  0  0  0  0  0  0  0  0  0  0
   -1.6303    1.7805    1.3448 H   0  0  0  0  0  0  0  0  0  0  0  0
   -0.4617   -0.3837    1.7192 H   0  0  0  0  0  0  0  0  0  0  0  0
    2.2075    0.9477    1.4121 H   0  0  0  0  0  0  0  0  0  0  0  0
    2.6502   -0.7658    1.3255 H   0  0  0  0  0  0  0  0  0  0  0  0
    3.1409    0.2966   -0.0048 H   0  0  0  0  0  0  0  0  0  0  0  0
    1.9527   -1.7682   -1.2327 H   0  0  0  0  0  0  0  0  0  0  0  0
    0.1733   -2.0545   -0.8449 H   0  0  0  0  0  0  0  0  0  0  0  0
    1.4323    0.5226   -2.0642 H   0  0  0  0  0  0  0  0  0  0  0  0
  1  2  1  0
  2  3  1  0
  3  4  1  0
  4  5  1  0
  5  6  1  0
  5  7  1  0
  7  8  1  0
  8  9  1  0
  4  2  1  0
  8  5  1  0
  9  2  1  0
  1 10  1  0
  1 11  1  0
  1 12  1  0
  3 13  1  0
  3 14  1  0
  4 15  1  0
  6 16  1  0
  6 17  1  0
  6 18  1  0
  7 19  1  0
  7 20  1  0
  8 21  1  0
M  END
