
     RDKit          3D

 19 21  0  0  0  0  0  0  0  0999 V2000
   -1.2050   -1.0883   -0.6870 C   0  0  0  0  0  0  0  0  0  0  0  0
   -0.6088    0.3144   -0.3923 C   0  0  0  0  0  0  0  0  0  0  0  0
   -1.5460    1.2037    0.1574 C   0  0  0  0  0  0  0  0  0  0  0  0
   -0.6418    0.7133    1.1389 C   0  0  0  0  0  0  0  0  0  0  0  0
   -0.2188   -0.5068    1.5206 O   0  0  0  0  0  0  0  0  0  0  0  0
    0.9192   -0.8270    0.7314 C   0  0  0  0  0  0  0  0  0  0  0  0
    1.8737    0.2505    0.5535 C   0  0  0  0  0  0  0  0  0  0  0  0
    0.8527    0.2303   -0.4414 C   0  0  0  0  0  0  0  0  0  0  0  0
    1.2417   -0.2765   -1.7174 O   0  0  0  0  0  0  0  0  0  0  0  0
   -2.2602   -0.9523   -1.0355 H   0  0  0  0  0  0  0  0  0  0  0  0
   -0.6211   -1.6267   -1.4218 H   0  0  0  0  0  0  0  0  0  0  0  0
   -1.2353   -1.6686    0.2616 H   0  0  0  0  0  0  0  0  0  0  0  0
   -1.5012    2.2792   -0.1873 H   0  0  0  0  0  0  0  0  0  0  0  0
   -2.6220    0.9310    0.2816 H   0  0  0  0  0  0  0  0  0  0  0  0
    0.1129    1.4896    1.4611 H   0  0  0  0  0  0  0  0  0  0  0  0
    1.0396   -1.8533    0.3789 H   0  0  0  0  0  0  0  0  0  0  0  0
    2.0405    0.9635    1.3850 H   0  0  0  0  0  0  0  0  0  0  0  0
    2.9053   -0.1176    0.2447 H   0  0  0  0  0  0  0  0  0  0  0  0
    1.4749    0.5414   -2.2319 H   0  0  0  0  0  0  0  0  0  0  0  0
  1  2  1  0
  2  3  1  0
  3  4  1  0
  4  5  1  0
  5  6  1  0
  6  7  1  0
  7  8  1  0
  8  9  1  0
  4  2  1  0
  8  6  1  0
  8  2  1  0
  1 10  1  0
  1 11  1  0
  1 12  1  0
  3 13  1  0
  3 14  1  0
  4 15  1  0
  6 16  1  0
  7 17  1  0
  7 18  1  0
  9 19  1  0
M  END
