
     RDKit          3D

 23 24  0  0  0  0  0  0  0  0999 V2000
   -0.8203    1.7846   -0.4572 C   0  0  0  0  0  0  0  0  0  0  0  0
   -0.0470    0.6896    0.1835 C   0  0  0  0  0  0  0  0  0  0  0  0
    1.1503    1.1949    0.8930 C   0  0  0  0  0  0  0  0  0  0  0  0
    2.1536    0.3359    0.7792 C   0  0  0  0  0  0  0  0  0  0  0  0
    1.7061   -0.8284   -0.0243 C   0  0  0  0  0  0  0  0  0  0  0  0
    0.5476   -0.2940   -0.8028 C   0  0  0  0  0  0  0  0  0  0  0  0
   -0.5181   -1.3473   -0.9914 C   0  0  0  0  0  0  0  0  0  0  0  0
   -1.6322   -1.0242   -0.0296 C   0  0  0  0  0  0  0  0  0  0  0  0
   -0.9369   -0.1668    1.0046 C   0  0  0  0  0  0  0  0  0  0  0  0
   -1.4187    2.2923    0.3275 H   0  0  0  0  0  0  0  0  0  0  0  0
   -1.5366    1.4119   -1.2066 H   0  0  0  0  0  0  0  0  0  0  0  0
   -0.1648    2.5150   -1.0065 H   0  0  0  0  0  0  0  0  0  0  0  0
    1.2227    2.1290    1.4350 H   0  0  0  0  0  0  0  0  0  0  0  0
    3.1621    0.4067    1.1806 H   0  0  0  0  0  0  0  0  0  0  0  0
    2.5102   -1.2648   -0.6433 H   0  0  0  0  0  0  0  0  0  0  0  0
    1.3201   -1.5937    0.6925 H   0  0  0  0  0  0  0  0  0  0  0  0
    0.8204    0.2121   -1.7397 H   0  0  0  0  0  0  0  0  0  0  0  0
   -0.8363   -1.3269   -2.0448 H   0  0  0  0  0  0  0  0  0  0  0  0
   -0.1426   -2.3662   -0.7057 H   0  0  0  0  0  0  0  0  0  0  0  0
   -2.0947   -1.9299    0.4157 H   0  0  0  0  0  0  0  0  0  0  0  0
   -2.4283   -0.4387   -0.5409 H   0  0  0  0  0  0  0  0  0  0  0  0
   -1.6627    0.4367    1.5969 H   0  0  0  0  0  0  0  0  0  0  0  0
   -0.3540   -0.8278    1.6845 H   0  0  0  0  0  0  0  0  0  0  0  0
  1  2  1  0
  2  3  1  0
  3  4  2  0
  4  5  1  0
  5  6  1  0
  6  7  1  0
  7  8  1  0
  8  9  1  0
  6  2  1  0
  9  2  1  0
  1 10  1  0
  1 11  1  0
  1 12  1  0
  3 13  1  0
  4 14  1  0
  5 15  1  0
  5 16  1  0
  6 17  1  0
  7 18  1  0
  7 19  1  0
  8 20  1  0
  8 21  1  0
  9 22  1  0
  9 23  1  0
M  END
