
     RDKit          3D

 19 20  0  0  0  0  0  0  0  0999 V2000
   -0.5219    1.6797   -0.3630 C   0  0  0  0  0  0  0  0  0  0  0  0
    0.2223    0.4265    0.1593 C   0  0  0  0  0  0  0  0  0  0  0  0
   -0.6809   -0.2589    1.1157 C   0  0  0  0  0  0  0  0  0  0  0  0
   -1.7460   -0.6888    0.0857 C   0  0  0  0  0  0  0  0  0  0  0  0
   -1.0965   -0.6031   -1.1743 O   0  0  0  0  0  0  0  0  0  0  0  0
    0.1970   -0.8055   -0.8406 C   0  0  0  0  0  0  0  0  0  0  0  0
    1.3237    0.0317   -0.5996 C   0  0  0  0  0  0  0  0  0  0  0  0
    2.5184   -0.5093    0.1260 C   0  0  0  0  0  0  0  0  0  0  0  0
    2.3584   -1.2241    1.1186 O   0  0  0  0  0  0  0  0  0  0  0  0
   -1.0460    2.1945    0.4550 H   0  0  0  0  0  0  0  0  0  0  0  0
   -1.2127    1.3301   -1.1320 H   0  0  0  0  0  0  0  0  0  0  0  0
    0.2261    2.3798   -0.7726 H   0  0  0  0  0  0  0  0  0  0  0  0
   -0.2841   -1.2159    1.5240 H   0  0  0  0  0  0  0  0  0  0  0  0
   -1.1102    0.3676    1.8993 H   0  0  0  0  0  0  0  0  0  0  0  0
   -2.0948   -1.7038    0.2724 H   0  0  0  0  0  0  0  0  0  0  0  0
   -2.5421    0.0840    0.1209 H   0  0  0  0  0  0  0  0  0  0  0  0
    0.2856   -1.8282   -0.3583 H   0  0  0  0  0  0  0  0  0  0  0  0
    1.6585    0.6601   -1.4759 H   0  0  0  0  0  0  0  0  0  0  0  0
    3.5452   -0.3166   -0.1606 H   0  0  0  0  0  0  0  0  0  0  0  0
  1  2  1  0
  2  3  1  0
  3  4  1  0
  4  5  1  0
  5  6  1  0
  6  7  1  0
  7  8  1  0
  8  9  2  0
  6  2  1  0
  7  2  1  0
  1 10  1  0
  1 11  1  0
  1 12  1  0
  3 13  1  0
  3 14  1  0
  4 15  1  0
  4 16  1  0
  6 17  1  0
  7 18  1  0
  8 19  1  0
M  END
