
     RDKit          3D

 19 21  0  0  0  0  0  0  0  0999 V2000
   -1.3783    1.3221   -0.1108 C   0  0  0  0  0  0  0  0  0  0  0  0
   -0.6780    0.0087    0.1297 C   0  0  0  0  0  0  0  0  0  0  0  0
   -1.5310   -1.2195    0.1178 C   0  0  0  0  0  0  0  0  0  0  0  0
   -0.7921   -1.7954   -0.9049 O   0  0  0  0  0  0  0  0  0  0  0  0
   -0.0249   -0.6769   -1.0964 C   0  0  0  0  0  0  0  0  0  0  0  0
    0.7616   -0.1545   -0.0220 C   0  0  0  0  0  0  0  0  0  0  0  0
    1.6451   -0.8647    0.9095 C   0  0  0  0  0  0  0  0  0  0  0  0
    2.4907    0.2691    0.8968 O   0  0  0  0  0  0  0  0  0  0  0  0
    1.7298    0.9556   -0.0774 C   0  0  0  0  0  0  0  0  0  0  0  0
   -2.2920    1.3044    0.5549 H   0  0  0  0  0  0  0  0  0  0  0  0
   -1.7965    1.3366   -1.1460 H   0  0  0  0  0  0  0  0  0  0  0  0
   -0.7467    2.1942    0.1084 H   0  0  0  0  0  0  0  0  0  0  0  0
   -1.4909   -1.8644    1.0134 H   0  0  0  0  0  0  0  0  0  0  0  0
   -2.5908   -0.9952   -0.1154 H   0  0  0  0  0  0  0  0  0  0  0  0
   -0.1753   -0.1521   -2.0588 H   0  0  0  0  0  0  0  0  0  0  0  0
    2.1543   -1.7796    0.5879 H   0  0  0  0  0  0  0  0  0  0  0  0
    1.1851   -0.9234    1.9375 H   0  0  0  0  0  0  0  0  0  0  0  0
    1.2739    1.9000    0.3008 H   0  0  0  0  0  0  0  0  0  0  0  0
    2.2560    1.1347   -1.0251 H   0  0  0  0  0  0  0  0  0  0  0  0
  1  2  1  0
  2  3  1  0
  3  4  1  0
  4  5  1  0
  5  6  1  0
  6  7  1  0
  7  8  1  0
  8  9  1  0
  5  2  1  0
  9  6  1  0
  6  2  1  0
  1 10  1  0
  1 11  1  0
  1 12  1  0
  3 13  1  0
  3 14  1  0
  5 15  1  0
  7 16  1  0
  7 17  1  0
  9 18  1  0
  9 19  1  0
M  END
