
     RDKit          3D

 19 21  0  0  0  0  0  0  0  0999 V2000
    0.2115    2.2848    0.4124 C   0  0  0  0  0  0  0  0  0  0  0  0
    0.1997    0.8280   -0.0478 C   0  0  0  0  0  0  0  0  0  0  0  0
    1.3079    0.4810   -0.7849 O   0  0  0  0  0  0  0  0  0  0  0  0
    1.8212   -0.7626   -0.4957 C   0  0  0  0  0  0  0  0  0  0  0  0
    0.8754   -1.7606   -0.6119 O   0  0  0  0  0  0  0  0  0  0  0  0
   -0.2228   -1.5547    0.1921 C   0  0  0  0  0  0  0  0  0  0  0  0
   -1.4077   -1.1415   -0.6362 C   0  0  0  0  0  0  0  0  0  0  0  0
   -1.1386    0.2840   -0.3143 C   0  0  0  0  0  0  0  0  0  0  0  0
   -0.2608   -0.2244    0.8654 C   0  0  0  0  0  0  0  0  0  0  0  0
    0.2524    2.8852   -0.5433 H   0  0  0  0  0  0  0  0  0  0  0  0
   -0.7502    2.5488    0.9111 H   0  0  0  0  0  0  0  0  0  0  0  0
    1.0953    2.5069    1.0392 H   0  0  0  0  0  0  0  0  0  0  0  0
    2.6029   -0.9755   -1.2782 H   0  0  0  0  0  0  0  0  0  0  0  0
    2.2942   -0.8226    0.5158 H   0  0  0  0  0  0  0  0  0  0  0  0
   -0.4040   -2.4408    0.8266 H   0  0  0  0  0  0  0  0  0  0  0  0
   -1.3943   -1.4013   -1.6953 H   0  0  0  0  0  0  0  0  0  0  0  0
   -2.3425   -1.5416   -0.1511 H   0  0  0  0  0  0  0  0  0  0  0  0
   -2.0333    0.8762   -0.0412 H   0  0  0  0  0  0  0  0  0  0  0  0
   -0.7064   -0.0690    1.8373 H   0  0  0  0  0  0  0  0  0  0  0  0
  1  2  1  0
  2  3  1  0
  3  4  1  0
  4  5  1  0
  5  6  1  0
  6  7  1  0
  7  8  1  0
  8  9  1  0
  8  2  1  0
  9  2  1  0
  9  6  1  0
  1 10  1  0
  1 11  1  0
  1 12  1  0
  4 13  1  0
  4 14  1  0
  6 15  1  0
  7 16  1  0
  7 17  1  0
  8 18  1  0
  9 19  1  0
M  END
