
     RDKit          3D

 19 21  0  0  0  0  0  0  0  0999 V2000
   -0.1136    1.8970    0.9231 C   0  0  0  0  0  0  0  0  0  0  0  0
   -0.1605    0.6486    0.0401 C   0  0  0  0  0  0  0  0  0  0  0  0
   -1.5119    0.3243   -0.3837 C   0  0  0  0  0  0  0  0  0  0  0  0
   -1.5995   -0.9898   -0.4007 C   0  0  0  0  0  0  0  0  0  0  0  0
   -0.4108   -1.7012   -0.0302 C   0  0  0  0  0  0  0  0  0  0  0  0
    1.0247   -1.3390    0.1870 C   0  0  0  0  0  0  0  0  0  0  0  0
    1.6646   -0.4751   -0.8545 C   0  0  0  0  0  0  0  0  0  0  0  0
    0.9472    0.6395   -0.8975 C   0  0  0  0  0  0  0  0  0  0  0  0
    0.1133   -0.5871    0.8086 C   0  0  0  0  0  0  0  0  0  0  0  0
    0.1774    2.7281    0.2472 H   0  0  0  0  0  0  0  0  0  0  0  0
   -1.0543    2.0402    1.4474 H   0  0  0  0  0  0  0  0  0  0  0  0
    0.7417    1.7501    1.6134 H   0  0  0  0  0  0  0  0  0  0  0  0
   -2.3037    1.0212   -0.6391 H   0  0  0  0  0  0  0  0  0  0  0  0
   -2.5312   -1.5510   -0.6720 H   0  0  0  0  0  0  0  0  0  0  0  0
   -0.2209   -2.3365   -0.8770 H   0  0  0  0  0  0  0  0  0  0  0  0
    1.6381   -2.1500    0.6453 H   0  0  0  0  0  0  0  0  0  0  0  0
    2.5472   -0.7327   -1.4488 H   0  0  0  0  0  0  0  0  0  0  0  0
    1.1908    1.4768   -1.5960 H   0  0  0  0  0  0  0  0  0  0  0  0
   -0.1385   -0.6634    1.8874 H   0  0  0  0  0  0  0  0  0  0  0  0
  1  2  1  0
  2  3  1  0
  3  4  2  0
  4  5  1  0
  5  6  1  0
  6  7  1  0
  7  8  2  0
  6  9  1  0
  8  2  1  0
  9  2  1  0
  9  5  1  0
  1 10  1  0
  1 11  1  0
  1 12  1  0
  3 13  1  0
  4 14  1  0
  5 15  1  0
  6 16  1  0
  7 17  1  0
  8 18  1  0
  9 19  1  0
M  END
