
     RDKit          3D

 19 21  0  0  0  0  0  0  0  0999 V2000
   -1.4066   -1.1165   -0.9081 C   0  0  0  0  0  0  0  0  0  0  0  0
   -0.4712   -0.2660   -0.1945 C   0  0  0  0  0  0  0  0  0  0  0  0
   -0.0086    1.0738   -0.6726 C   0  0  0  0  0  0  0  0  0  0  0  0
    1.4696    0.9042   -0.6807 C   0  0  0  0  0  0  0  0  0  0  0  0
    1.8106   -0.1047    0.1033 C   0  0  0  0  0  0  0  0  0  0  0  0
    0.5975   -0.7077    0.7111 C   0  0  0  0  0  0  0  0  0  0  0  0
    0.6593   -1.9412    1.2897 O   0  0  0  0  0  0  0  0  0  0  0  0
   -0.5115    0.1968    1.1676 C   0  0  0  0  0  0  0  0  0  0  0  0
   -0.5063    1.6445    0.6583 C   0  0  0  0  0  0  0  0  0  0  0  0
   -1.9697   -1.8042   -0.2758 H   0  0  0  0  0  0  0  0  0  0  0  0
   -2.1432   -0.4893   -1.4666 H   0  0  0  0  0  0  0  0  0  0  0  0
   -0.8720   -1.7066   -1.6973 H   0  0  0  0  0  0  0  0  0  0  0  0
   -0.4752    1.4685   -1.5656 H   0  0  0  0  0  0  0  0  0  0  0  0
    2.1217    1.5599   -1.2764 H   0  0  0  0  0  0  0  0  0  0  0  0
    2.8183   -0.4368    0.2734 H   0  0  0  0  0  0  0  0  0  0  0  0
    1.3226   -2.5471    0.8788 H   0  0  0  0  0  0  0  0  0  0  0  0
   -1.1961   -0.0931    1.9543 H   0  0  0  0  0  0  0  0  0  0  0  0
    0.2670    2.2815    1.1038 H   0  0  0  0  0  0  0  0  0  0  0  0
   -1.5062    2.0841    0.5971 H   0  0  0  0  0  0  0  0  0  0  0  0
  1  2  1  0
  2  3  1  0
  3  4  1  0
  4  5  2  0
  5  6  1  0
  6  7  1  0
  6  8  1  0
  8  9  1  0
  6  2  1  0
  8  2  1  0
  9  3  1  0
  1 10  1  0
  1 11  1  0
  1 12  1  0
  3 13  1  0
  4 14  1  0
  5 15  1  0
  7 16  1  0
  8 17  1  0
  9 18  1  0
  9 19  1  0
M  END
