
     RDKit          3D

 21 23  0  0  0  0  0  0  0  0999 V2000
    1.8135    1.1827   -0.2070 C   0  0  0  0  0  0  0  0  0  0  0  0
    0.7995    0.0932   -0.0498 C   0  0  0  0  0  0  0  0  0  0  0  0
    1.3079   -1.0321    0.7977 C   0  0  0  0  0  0  0  0  0  0  0  0
    0.1198   -0.9644    1.5291 O   0  0  0  0  0  0  0  0  0  0  0  0
   -0.1522    0.3430    1.0796 C   0  0  0  0  0  0  0  0  0  0  0  0
   -1.5174    0.4805    0.4536 C   0  0  0  0  0  0  0  0  0  0  0  0
   -2.1558   -0.8387    0.0700 C   0  0  0  0  0  0  0  0  0  0  0  0
   -1.4339   -0.0325   -0.9291 C   0  0  0  0  0  0  0  0  0  0  0  0
    0.0036   -0.2718   -1.2569 C   0  0  0  0  0  0  0  0  0  0  0  0
    2.7766    0.8103   -0.6386 H   0  0  0  0  0  0  0  0  0  0  0  0
    1.9997    1.6144    0.7982 H   0  0  0  0  0  0  0  0  0  0  0  0
    1.3969    1.9424   -0.9045 H   0  0  0  0  0  0  0  0  0  0  0  0
    1.4891   -1.9700    0.2597 H   0  0  0  0  0  0  0  0  0  0  0  0
    2.1515   -0.7285    1.4493 H   0  0  0  0  0  0  0  0  0  0  0  0
    0.1457    1.1430    1.7649 H   0  0  0  0  0  0  0  0  0  0  0  0
   -2.1608    1.3418    0.7080 H   0  0  0  0  0  0  0  0  0  0  0  0
   -3.2707   -0.8906   -0.0112 H   0  0  0  0  0  0  0  0  0  0  0  0
   -1.7175   -1.7692    0.5104 H   0  0  0  0  0  0  0  0  0  0  0  0
   -2.0653    0.4148   -1.7509 H   0  0  0  0  0  0  0  0  0  0  0  0
    0.2861    0.4562   -2.0697 H   0  0  0  0  0  0  0  0  0  0  0  0
    0.1835   -1.3246   -1.6028 H   0  0  0  0  0  0  0  0  0  0  0  0
  1  2  1  0
  2  3  1  0
  3  4  1  0
  4  5  1  0
  5  6  1  0
  6  7  1  0
  7  8  1  0
  8  9  1  0
  5  2  1  0
  8  6  1  0
  9  2  1  0
  1 10  1  0
  1 11  1  0
  1 12  1  0
  3 13  1  0
  3 14  1  0
  5 15  1  0
  6 16  1  0
  7 17  1  0
  7 18  1  0
  8 19  1  0
  9 20  1  0
  9 21  1  0
M  END
