
     RDKit          3D

 17 20  0  0  0  0  0  0  0  0999 V2000
    1.9585    0.3394    0.0899 C   0  0  0  0  0  0  0  0  0  0  0  0
    0.5189    0.1413    0.0352 C   0  0  0  0  0  0  0  0  0  0  0  0
   -0.4128    1.2906    0.2048 C   0  0  0  0  0  0  0  0  0  0  0  0
   -1.2189    1.5894   -0.8629 O   0  0  0  0  0  0  0  0  0  0  0  0
   -1.7603    0.5937   -0.0559 C   0  0  0  0  0  0  0  0  0  0  0  0
   -1.2839   -0.8200   -0.1921 C   0  0  0  0  0  0  0  0  0  0  0  0
   -0.1203   -0.9957    0.7409 C   0  0  0  0  0  0  0  0  0  0  0  0
    0.4228   -1.8262   -0.2225 O   0  0  0  0  0  0  0  0  0  0  0  0
   -0.0520   -0.7652   -1.0031 C   0  0  0  0  0  0  0  0  0  0  0  0
    2.4686   -0.6360    0.2863 H   0  0  0  0  0  0  0  0  0  0  0  0
    2.3242    0.6865   -0.9211 H   0  0  0  0  0  0  0  0  0  0  0  0
    2.2497    1.1088    0.7982 H   0  0  0  0  0  0  0  0  0  0  0  0
   -0.3697    1.9104    1.1009 H   0  0  0  0  0  0  0  0  0  0  0  0
   -2.6098    0.8571    0.5738 H   0  0  0  0  0  0  0  0  0  0  0  0
   -1.9933   -1.6141   -0.3027 H   0  0  0  0  0  0  0  0  0  0  0  0
   -0.1717   -1.1688    1.7338 H   0  0  0  0  0  0  0  0  0  0  0  0
    0.0500   -0.6911   -2.0034 H   0  0  0  0  0  0  0  0  0  0  0  0
  1  2  1  0
  2  3  1  0
  3  4  1  0
  4  5  1  0
  5  6  1  0
  6  7  1  0
  7  8  1  0
  8  9  1  0
  7  2  1  0
  9  2  1  0
  5  3  1  0
  9  6  1  0
  1 10  1  0
  1 11  1  0
  1 12  1  0
  3 13  1  0
  5 14  1  0
  6 15  1  0
  7 16  1  0
  9 17  1  0
M  END
