
     RDKit          3D

 21 22  0  0  0  0  0  0  0  0999 V2000
    2.1446    0.3168   -0.4537 C   0  0  0  0  0  0  0  0  0  0  0  0
    0.7415    0.1645    0.0217 C   0  0  0  0  0  0  0  0  0  0  0  0
    0.5947   -0.5972    1.2762 C   0  0  0  0  0  0  0  0  0  0  0  0
   -0.6226   -1.1152    1.2741 C   0  0  0  0  0  0  0  0  0  0  0  0
   -1.2531   -0.9414   -0.0700 C   0  0  0  0  0  0  0  0  0  0  0  0
   -1.9826    0.3519   -0.1943 C   0  0  0  0  0  0  0  0  0  0  0  0
   -1.2914    1.4825    0.0100 O   0  0  0  0  0  0  0  0  0  0  0  0
    0.0377    1.4642    0.1623 C   0  0  0  0  0  0  0  0  0  0  0  0
    0.0109   -0.7911   -0.9349 C   0  0  0  0  0  0  0  0  0  0  0  0
    2.4605   -0.6467   -0.9153 H   0  0  0  0  0  0  0  0  0  0  0  0
    2.1309    1.1241   -1.2408 H   0  0  0  0  0  0  0  0  0  0  0  0
    2.8556    0.6421    0.3104 H   0  0  0  0  0  0  0  0  0  0  0  0
    1.3287   -0.7140    2.0478 H   0  0  0  0  0  0  0  0  0  0  0  0
   -1.1270   -1.6024    2.1013 H   0  0  0  0  0  0  0  0  0  0  0  0
   -1.8717   -1.7736   -0.3785 H   0  0  0  0  0  0  0  0  0  0  0  0
   -2.9019    0.2734    0.4582 H   0  0  0  0  0  0  0  0  0  0  0  0
   -2.4087    0.3774   -1.2389 H   0  0  0  0  0  0  0  0  0  0  0  0
    0.2982    1.8759    1.1822 H   0  0  0  0  0  0  0  0  0  0  0  0
    0.5032    2.1834   -0.5627 H   0  0  0  0  0  0  0  0  0  0  0  0
    0.5536   -1.7391   -0.9590 H   0  0  0  0  0  0  0  0  0  0  0  0
   -0.2013   -0.3354   -1.8961 H   0  0  0  0  0  0  0  0  0  0  0  0
  1  2  1  0
  2  3  1  0
  3  4  2  0
  4  5  1  0
  5  6  1  0
  6  7  1  0
  7  8  1  0
  5  9  1  0
  8  2  1  0
  9  2  1  0
  1 10  1  0
  1 11  1  0
  1 12  1  0
  3 13  1  0
  4 14  1  0
  5 15  1  0
  6 16  1  0
  6 17  1  0
  8 18  1  0
  8 19  1  0
  9 20  1  0
  9 21  1  0
M  END
