
     RDKit          3D

 21 23  0  0  0  0  0  0  0  0999 V2000
    2.5395   -0.4724   -0.3464 C   0  0  0  0  0  0  0  0  0  0  0  0
    1.1704   -0.3257    0.2022 C   0  0  0  0  0  0  0  0  0  0  0  0
    0.8351    0.9904    0.8546 C   0  0  0  0  0  0  0  0  0  0  0  0
   -0.5809    1.3442    0.4500 C   0  0  0  0  0  0  0  0  0  0  0  0
   -1.1293    0.0016   -0.0435 C   0  0  0  0  0  0  0  0  0  0  0  0
   -2.5241   -0.0175   -0.5572 C   0  0  0  0  0  0  0  0  0  0  0  0
   -0.5953   -1.2453    0.5470 C   0  0  0  0  0  0  0  0  0  0  0  0
    0.6954   -1.3716    0.9944 O   0  0  0  0  0  0  0  0  0  0  0  0
    0.0180   -0.5704   -0.7172 C   0  0  0  0  0  0  0  0  0  0  0  0
    2.4737   -0.5791   -1.4588 H   0  0  0  0  0  0  0  0  0  0  0  0
    3.0490   -1.3433    0.1085 H   0  0  0  0  0  0  0  0  0  0  0  0
    3.1749    0.4353   -0.1324 H   0  0  0  0  0  0  0  0  0  0  0  0
    1.5625    1.7885    0.5938 H   0  0  0  0  0  0  0  0  0  0  0  0
    0.8026    0.8644    1.9763 H   0  0  0  0  0  0  0  0  0  0  0  0
   -0.5276    2.0460   -0.4300 H   0  0  0  0  0  0  0  0  0  0  0  0
   -1.1750    1.7682    1.2583 H   0  0  0  0  0  0  0  0  0  0  0  0
   -3.2185   -0.0226    0.3132 H   0  0  0  0  0  0  0  0  0  0  0  0
   -2.7268    0.9115   -1.1672 H   0  0  0  0  0  0  0  0  0  0  0  0
   -2.7263   -0.8651   -1.2218 H   0  0  0  0  0  0  0  0  0  0  0  0
   -1.1755   -2.1619    0.3708 H   0  0  0  0  0  0  0  0  0  0  0  0
    0.0582   -1.1750   -1.5945 H   0  0  0  0  0  0  0  0  0  0  0  0
  1  2  1  0
  2  3  1  0
  3  4  1  0
  4  5  1  0
  5  6  1  0
  5  7  1  0
  7  8  1  0
  7  9  1  0
  8  2  1  0
  9  2  1  0
  9  5  1  0
  1 10  1  0
  1 11  1  0
  1 12  1  0
  3 13  1  0
  3 14  1  0
  4 15  1  0
  4 16  1  0
  6 17  1  0
  6 18  1  0
  6 19  1  0
  7 20  1  0
  9 21  1  0
M  END
