
     RDKit          3D

 21 23  0  0  0  0  0  0  0  0999 V2000
    2.3123   -0.6534    0.0751 C   0  0  0  0  0  0  0  0  0  0  0  0
    0.8685   -0.4244    0.0961 C   0  0  0  0  0  0  0  0  0  0  0  0
    0.1989    0.4447    1.1409 C   0  0  0  0  0  0  0  0  0  0  0  0
   -1.1568    0.5882    0.4916 C   0  0  0  0  0  0  0  0  0  0  0  0
   -2.0666    1.3196    1.1114 O   0  0  0  0  0  0  0  0  0  0  0  0
   -0.7335    1.0497   -0.9001 C   0  0  0  0  0  0  0  0  0  0  0  0
    0.2087   -0.0938   -1.2299 C   0  0  0  0  0  0  0  0  0  0  0  0
   -0.1686   -1.2741   -0.4563 C   0  0  0  0  0  0  0  0  0  0  0  0
   -1.4897   -0.8603    0.2094 C   0  0  0  0  0  0  0  0  0  0  0  0
    2.8523    0.3169    0.2768 H   0  0  0  0  0  0  0  0  0  0  0  0
    2.6350   -0.9322   -0.9645 H   0  0  0  0  0  0  0  0  0  0  0  0
    2.7044   -1.3800    0.8068 H   0  0  0  0  0  0  0  0  0  0  0  0
    0.6852    1.4373    1.2198 H   0  0  0  0  0  0  0  0  0  0  0  0
    0.1310   -0.0925    2.0917 H   0  0  0  0  0  0  0  0  0  0  0  0
   -1.9667    2.2775    0.8969 H   0  0  0  0  0  0  0  0  0  0  0  0
   -0.1800    1.9908   -0.8858 H   0  0  0  0  0  0  0  0  0  0  0  0
   -1.5896    1.0066   -1.5746 H   0  0  0  0  0  0  0  0  0  0  0  0
    0.7811   -0.0953   -2.1536 H   0  0  0  0  0  0  0  0  0  0  0  0
   -0.0532   -2.2805   -0.8327 H   0  0  0  0  0  0  0  0  0  0  0  0
   -2.2910   -0.9016   -0.5408 H   0  0  0  0  0  0  0  0  0  0  0  0
   -1.6817   -1.4433    1.1219 H   0  0  0  0  0  0  0  0  0  0  0  0
  1  2  1  0
  2  3  1  0
  3  4  1  0
  4  5  1  0
  4  6  1  0
  6  7  1  0
  7  8  1  0
  8  9  1  0
  7  2  1  0
  8  2  1  0
  9  4  1  0
  1 10  1  0
  1 11  1  0
  1 12  1  0
  3 13  1  0
  3 14  1  0
  5 15  1  0
  6 16  1  0
  6 17  1  0
  7 18  1  0
  8 19  1  0
  9 20  1  0
  9 21  1  0
M  END
