
     RDKit          3D

 21 23  0  0  0  0  0  0  0  0999 V2000
   -1.9869    0.7906   -0.9181 C   0  0  0  0  0  0  0  0  0  0  0  0
   -0.6821    0.1616   -0.5685 C   0  0  0  0  0  0  0  0  0  0  0  0
   -0.4557   -1.3116   -0.7634 C   0  0  0  0  0  0  0  0  0  0  0  0
    0.2717   -1.3099    0.5877 C   0  0  0  0  0  0  0  0  0  0  0  0
    1.7311   -0.9869    0.3392 C   0  0  0  0  0  0  0  0  0  0  0  0
    1.7736    0.5285    0.2106 C   0  0  0  0  0  0  0  0  0  0  0  0
    0.3472    0.9876    0.1135 C   0  0  0  0  0  0  0  0  0  0  0  0
    0.1136    2.3270    0.2596 O   0  0  0  0  0  0  0  0  0  0  0  0
   -0.3967   -0.0128    0.8728 C   0  0  0  0  0  0  0  0  0  0  0  0
   -2.8063    0.0812   -0.6019 H   0  0  0  0  0  0  0  0  0  0  0  0
   -2.1258    1.6797   -0.2540 H   0  0  0  0  0  0  0  0  0  0  0  0
   -2.0657    1.0431   -1.9869 H   0  0  0  0  0  0  0  0  0  0  0  0
    0.2061   -1.5217   -1.6245 H   0  0  0  0  0  0  0  0  0  0  0  0
   -1.3691   -1.9254   -0.6841 H   0  0  0  0  0  0  0  0  0  0  0  0
    0.0619   -2.1629    1.2279 H   0  0  0  0  0  0  0  0  0  0  0  0
    2.3847   -1.3568    1.1534 H   0  0  0  0  0  0  0  0  0  0  0  0
    2.1096   -1.4138   -0.6003 H   0  0  0  0  0  0  0  0  0  0  0  0
    2.4245    0.8786   -0.5868 H   0  0  0  0  0  0  0  0  0  0  0  0
    2.1525    0.8936    1.2106 H   0  0  0  0  0  0  0  0  0  0  0  0
   -0.5969    2.4722    0.9440 H   0  0  0  0  0  0  0  0  0  0  0  0
   -1.0913    0.1581    1.6693 H   0  0  0  0  0  0  0  0  0  0  0  0
  1  2  1  0
  2  3  1  0
  3  4  1  0
  4  5  1  0
  5  6  1  0
  6  7  1  0
  7  8  1  0
  7  9  1  0
  7  2  1  0
  9  2  1  0
  9  4  1  0
  1 10  1  0
  1 11  1  0
  1 12  1  0
  3 13  1  0
  3 14  1  0
  4 15  1  0
  5 16  1  0
  5 17  1  0
  6 18  1  0
  6 19  1  0
  8 20  1  0
  9 21  1  0
M  END
