
     RDKit          3D

 21 22  0  0  0  0  0  0  0  0999 V2000
   -1.8337   -1.3301    0.6693 C   0  0  0  0  0  0  0  0  0  0  0  0
   -0.8792   -0.3682    0.0030 C   0  0  0  0  0  0  0  0  0  0  0  0
    0.1372   -0.9743   -0.8599 C   0  0  0  0  0  0  0  0  0  0  0  0
    1.4468   -0.8423   -0.7881 C   0  0  0  0  0  0  0  0  0  0  0  0
    2.3543   -0.1076    0.0956 C   0  0  0  0  0  0  0  0  0  0  0  0
    1.7547    0.7818    0.9364 O   0  0  0  0  0  0  0  0  0  0  0  0
    0.7472    1.5123    0.3286 C   0  0  0  0  0  0  0  0  0  0  0  0
   -0.5607    0.8851    0.6460 C   0  0  0  0  0  0  0  0  0  0  0  0
   -1.5749    0.9162   -0.4870 C   0  0  0  0  0  0  0  0  0  0  0  0
   -2.1041   -2.0914   -0.0923 H   0  0  0  0  0  0  0  0  0  0  0  0
   -2.7920   -0.8299    0.9536 H   0  0  0  0  0  0  0  0  0  0  0  0
   -1.4387   -1.7949    1.5696 H   0  0  0  0  0  0  0  0  0  0  0  0
   -0.2363   -1.6176   -1.6656 H   0  0  0  0  0  0  0  0  0  0  0  0
    1.9705   -1.4129   -1.5676 H   0  0  0  0  0  0  0  0  0  0  0  0
    2.9677   -0.8234    0.7124 H   0  0  0  0  0  0  0  0  0  0  0  0
    3.1094    0.4315   -0.5458 H   0  0  0  0  0  0  0  0  0  0  0  0
    0.9262    1.6929   -0.7484 H   0  0  0  0  0  0  0  0  0  0  0  0
    0.7593    2.5320    0.8148 H   0  0  0  0  0  0  0  0  0  0  0  0
   -0.9213    1.0519    1.6801 H   0  0  0  0  0  0  0  0  0  0  0  0
   -2.6050    1.1040   -0.1727 H   0  0  0  0  0  0  0  0  0  0  0  0
   -1.2275    1.2850   -1.4821 H   0  0  0  0  0  0  0  0  0  0  0  0
  1  2  1  0
  2  3  1  0
  3  4  2  0
  4  5  1  0
  5  6  1  0
  6  7  1  0
  7  8  1  0
  8  9  1  0
  8  2  1  0
  9  2  1  0
  1 10  1  0
  1 11  1  0
  1 12  1  0
  3 13  1  0
  4 14  1  0
  5 15  1  0
  5 16  1  0
  7 17  1  0
  7 18  1  0
  8 19  1  0
  9 20  1  0
  9 21  1  0
M  END
