
     RDKit          3D

 21 22  0  0  0  0  0  0  0  0999 V2000
   -0.6209   -1.8393    0.0522 C   0  0  0  0  0  0  0  0  0  0  0  0
   -0.4904   -0.3615    0.2227 C   0  0  0  0  0  0  0  0  0  0  0  0
   -1.7853    0.3680    0.0230 C   0  0  0  0  0  0  0  0  0  0  0  0
   -1.3256    1.7395   -0.3144 C   0  0  0  0  0  0  0  0  0  0  0  0
   -0.0895    1.6869   -0.7954 C   0  0  0  0  0  0  0  0  0  0  0  0
    0.3984    0.2811   -0.8274 C   0  0  0  0  0  0  0  0  0  0  0  0
    1.7591    0.1057   -0.2506 C   0  0  0  0  0  0  0  0  0  0  0  0
    1.4835   -0.1955    1.1990 C   0  0  0  0  0  0  0  0  0  0  0  0
    0.1313    0.0025    1.4174 O   0  0  0  0  0  0  0  0  0  0  0  0
   -0.3893   -2.1974   -0.9599 H   0  0  0  0  0  0  0  0  0  0  0  0
    0.0711   -2.3939    0.7472 H   0  0  0  0  0  0  0  0  0  0  0  0
   -1.6686   -2.1205    0.3532 H   0  0  0  0  0  0  0  0  0  0  0  0
   -2.3191   -0.1201   -0.8179 H   0  0  0  0  0  0  0  0  0  0  0  0
   -2.4516    0.3397    0.9004 H   0  0  0  0  0  0  0  0  0  0  0  0
   -1.9314    2.6284   -0.1771 H   0  0  0  0  0  0  0  0  0  0  0  0
    0.5119    2.5246   -1.1278 H   0  0  0  0  0  0  0  0  0  0  0  0
    0.2589   -0.1808   -1.8209 H   0  0  0  0  0  0  0  0  0  0  0  0
    2.3508   -0.6870   -0.7532 H   0  0  0  0  0  0  0  0  0  0  0  0
    2.3204    1.0535   -0.3753 H   0  0  0  0  0  0  0  0  0  0  0  0
    2.0153    0.5865    1.8148 H   0  0  0  0  0  0  0  0  0  0  0  0
    1.7710   -1.2203    1.4901 H   0  0  0  0  0  0  0  0  0  0  0  0
  1  2  1  0
  2  3  1  0
  3  4  1  0
  4  5  2  0
  5  6  1  0
  6  7  1  0
  7  8  1  0
  8  9  1  0
  6  2  1  0
  9  2  1  0
  1 10  1  0
  1 11  1  0
  1 12  1  0
  3 13  1  0
  3 14  1  0
  4 15  1  0
  5 16  1  0
  6 17  1  0
  7 18  1  0
  7 19  1  0
  8 20  1  0
  8 21  1  0
M  END
