
     RDKit          3D

 17 18  0  0  0  0  0  0  0  0999 V2000
    1.9837    0.1750   -0.3272 C   0  0  0  0  0  0  0  0  0  0  0  0
    0.5768   -0.1313   -0.1287 C   0  0  0  0  0  0  0  0  0  0  0  0
    0.1930   -1.0686    0.8091 O   0  0  0  0  0  0  0  0  0  0  0  0
   -1.2182   -1.0697    0.6607 C   0  0  0  0  0  0  0  0  0  0  0  0
   -1.3726    0.0072   -0.3709 C   0  0  0  0  0  0  0  0  0  0  0  0
   -0.2909   -0.3561   -1.3132 C   0  0  0  0  0  0  0  0  0  0  0  0
   -0.1494   -0.6713   -2.4427 O   0  0  0  0  0  0  0  0  0  0  0  0
   -0.3707    1.0295    0.1711 C   0  0  0  0  0  0  0  0  0  0  0  0
   -0.5165    1.3486    1.4920 O   0  0  0  0  0  0  0  0  0  0  0  0
    2.3875    1.0037    0.2859 H   0  0  0  0  0  0  0  0  0  0  0  0
    2.1515    0.4945   -1.3983 H   0  0  0  0  0  0  0  0  0  0  0  0
    2.6053   -0.7159   -0.1685 H   0  0  0  0  0  0  0  0  0  0  0  0
   -1.7211   -0.8436    1.6061 H   0  0  0  0  0  0  0  0  0  0  0  0
   -1.4736   -2.0348    0.2097 H   0  0  0  0  0  0  0  0  0  0  0  0
   -2.3082    0.3335   -0.7057 H   0  0  0  0  0  0  0  0  0  0  0  0
   -0.1566    1.8592   -0.5041 H   0  0  0  0  0  0  0  0  0  0  0  0
   -0.3201    0.6401    2.1246 H   0  0  0  0  0  0  0  0  0  0  0  0
  1  2  1  0
  2  3  1  0
  3  4  1  0
  4  5  1  0
  5  6  1  0
  6  7  2  0
  5  8  1  0
  8  9  1  0
  6  2  1  0
  8  2  1  0
  1 10  1  0
  1 11  1  0
  1 12  1  0
  4 13  1  0
  4 14  1  0
  5 15  1  0
  8 16  1  0
  9 17  1  0
M  END
