
     RDKit          3D

 19 20  0  0  0  0  0  0  0  0999 V2000
   -1.9751   -0.2340    0.0181 C   0  0  0  0  0  0  0  0  0  0  0  0
   -0.6052   -0.1444    0.0752 C   0  0  0  0  0  0  0  0  0  0  0  0
    0.3161   -0.7261    1.0986 C   0  0  0  0  0  0  0  0  0  0  0  0
    1.2438    0.0047    0.1548 C   0  0  0  0  0  0  0  0  0  0  0  0
    2.4811    0.1171    0.2204 O   0  0  0  0  0  0  0  0  0  0  0  0
    0.2079    1.1189    0.2405 C   0  0  0  0  0  0  0  0  0  0  0  0
    0.1990    1.9826   -0.8274 O   0  0  0  0  0  0  0  0  0  0  0  0
    0.3936   -0.5213   -0.9678 C   0  0  0  0  0  0  0  0  0  0  0  0
    0.5236   -1.8283   -1.3053 O   0  0  0  0  0  0  0  0  0  0  0  0
   -2.3157   -1.0802   -0.6502 H   0  0  0  0  0  0  0  0  0  0  0  0
   -2.4398   -0.4910    1.0149 H   0  0  0  0  0  0  0  0  0  0  0  0
   -2.4782    0.6661   -0.4066 H   0  0  0  0  0  0  0  0  0  0  0  0
    0.4157   -1.8131    1.1387 H   0  0  0  0  0  0  0  0  0  0  0  0
    0.2609   -0.1833    2.0617 H   0  0  0  0  0  0  0  0  0  0  0  0
    2.8628    0.9970    0.4659 H   0  0  0  0  0  0  0  0  0  0  0  0
    0.1915    1.5623    1.2519 H   0  0  0  0  0  0  0  0  0  0  0  0
    0.3246    2.9023   -0.4801 H   0  0  0  0  0  0  0  0  0  0  0  0
    0.3884    0.1436   -1.8560 H   0  0  0  0  0  0  0  0  0  0  0  0
    0.0050   -2.4730   -0.7985 H   0  0  0  0  0  0  0  0  0  0  0  0
  1  2  1  0
  2  3  1  0
  3  4  1  0
  4  5  1  0
  4  6  1  0
  6  7  1  0
  4  8  1  0
  8  9  1  0
  6  2  1  0
  8  2  1  0
  1 10  1  0
  1 11  1  0
  1 12  1  0
  3 13  1  0
  3 14  1  0
  5 15  1  0
  6 16  1  0
  7 17  1  0
  8 18  1  0
  9 19  1  0
M  END
