
     RDKit          3D

 21 23  0  0  0  0  0  0  0  0999 V2000
   -1.7396    1.5463   -0.3237 C   0  0  0  0  0  0  0  0  0  0  0  0
   -0.7580    0.4749    0.1672 C   0  0  0  0  0  0  0  0  0  0  0  0
   -1.2732   -0.4812    1.1382 C   0  0  0  0  0  0  0  0  0  0  0  0
   -1.1397   -0.9892   -0.2341 C   0  0  0  0  0  0  0  0  0  0  0  0
    0.3091   -1.2025   -0.6855 C   0  0  0  0  0  0  0  0  0  0  0  0
    1.0482   -1.6871    0.3581 O   0  0  0  0  0  0  0  0  0  0  0  0
    1.9751   -0.7593    0.7401 C   0  0  0  0  0  0  0  0  0  0  0  0
    1.7856    0.4850   -0.0665 C   0  0  0  0  0  0  0  0  0  0  0  0
    0.4347    0.3057   -0.6755 C   0  0  0  0  0  0  0  0  0  0  0  0
   -1.4682    2.4685    0.2330 H   0  0  0  0  0  0  0  0  0  0  0  0
   -1.6588    1.6730   -1.4131 H   0  0  0  0  0  0  0  0  0  0  0  0
   -2.7887    1.2512   -0.0653 H   0  0  0  0  0  0  0  0  0  0  0  0
   -0.6104   -0.9840    1.8982 H   0  0  0  0  0  0  0  0  0  0  0  0
   -2.2949   -0.3360    1.5142 H   0  0  0  0  0  0  0  0  0  0  0  0
   -1.9454   -1.0626   -0.9559 H   0  0  0  0  0  0  0  0  0  0  0  0
    0.4212   -1.6821   -1.6626 H   0  0  0  0  0  0  0  0  0  0  0  0
    3.0359   -1.1234    0.6546 H   0  0  0  0  0  0  0  0  0  0  0  0
    1.8799   -0.4608    1.8253 H   0  0  0  0  0  0  0  0  0  0  0  0
    2.5328    0.4371   -0.9125 H   0  0  0  0  0  0  0  0  0  0  0  0
    1.9359    1.4182    0.4680 H   0  0  0  0  0  0  0  0  0  0  0  0
    0.3185    0.7081   -1.7077 H   0  0  0  0  0  0  0  0  0  0  0  0
  1  2  1  0
  2  3  1  0
  3  4  1  0
  4  5  1  0
  5  6  1  0
  6  7  1  0
  7  8  1  0
  8  9  1  0
  4  2  1  0
  9  5  1  0
  9  2  1  0
  1 10  1  0
  1 11  1  0
  1 12  1  0
  3 13  1  0
  3 14  1  0
  4 15  1  0
  5 16  1  0
  7 17  1  0
  7 18  1  0
  8 19  1  0
  8 20  1  0
  9 21  1  0
M  END
