
     RDKit          3D

 17 18  0  0  0  0  0  0  0  0999 V2000
   -1.9059   -0.5482   -0.0539 C   0  0  0  0  0  0  0  0  0  0  0  0
   -0.6278    0.1971    0.1529 C   0  0  0  0  0  0  0  0  0  0  0  0
    0.0052   -0.1618    1.3034 O   0  0  0  0  0  0  0  0  0  0  0  0
    1.3564   -0.1990    1.0988 C   0  0  0  0  0  0  0  0  0  0  0  0
    1.5247   -0.5223   -0.3685 C   0  0  0  0  0  0  0  0  0  0  0  0
    0.3502    0.1552   -0.9829 C   0  0  0  0  0  0  0  0  0  0  0  0
    0.3792    1.5585   -1.0428 O   0  0  0  0  0  0  0  0  0  0  0  0
   -0.6252    1.6305   -0.0977 C   0  0  0  0  0  0  0  0  0  0  0  0
   -1.2676    2.6016    0.3465 O   0  0  0  0  0  0  0  0  0  0  0  0
   -2.7792    0.0949    0.0868 H   0  0  0  0  0  0  0  0  0  0  0  0
   -1.9296   -1.0494   -1.0599 H   0  0  0  0  0  0  0  0  0  0  0  0
   -1.9833   -1.3935    0.6789 H   0  0  0  0  0  0  0  0  0  0  0  0
    1.8307    0.7436    1.3985 H   0  0  0  0  0  0  0  0  0  0  0  0
    1.7947   -1.0148    1.7234 H   0  0  0  0  0  0  0  0  0  0  0  0
    1.3993   -1.6143   -0.5049 H   0  0  0  0  0  0  0  0  0  0  0  0
    2.5018   -0.1764   -0.7543 H   0  0  0  0  0  0  0  0  0  0  0  0
   -0.0236   -0.3016   -1.9245 H   0  0  0  0  0  0  0  0  0  0  0  0
  1  2  1  0
  2  3  1  0
  3  4  1  0
  4  5  1  0
  5  6  1  0
  6  7  1  0
  7  8  1  0
  8  9  2  0
  6  2  1  0
  8  2  1  0
  1 10  1  0
  1 11  1  0
  1 12  1  0
  4 13  1  0
  4 14  1  0
  5 15  1  0
  5 16  1  0
  6 17  1  0
M  END
