
     RDKit          3D

 15 17  0  0  0  0  0  0  0  0999 V2000
   -1.8476   -0.0279   -0.2679 C   0  0  0  0  0  0  0  0  0  0  0  0
   -0.4067    0.0763   -0.1783 C   0  0  0  0  0  0  0  0  0  0  0  0
    0.3329    1.2320    0.3687 C   0  0  0  0  0  0  0  0  0  0  0  0
   -0.0352    2.3026    0.6884 O   0  0  0  0  0  0  0  0  0  0  0  0
    1.6935    0.6592    0.4044 C   0  0  0  0  0  0  0  0  0  0  0  0
    1.4557   -0.5083    1.1237 O   0  0  0  0  0  0  0  0  0  0  0  0
    0.3765   -1.0479    0.4001 C   0  0  0  0  0  0  0  0  0  0  0  0
    0.6026   -0.6009   -0.9859 C   0  0  0  0  0  0  0  0  0  0  0  0
    1.7953    0.1494   -0.8815 O   0  0  0  0  0  0  0  0  0  0  0  0
   -2.1896   -0.4984   -1.2306 H   0  0  0  0  0  0  0  0  0  0  0  0
   -2.2333   -0.7261    0.5292 H   0  0  0  0  0  0  0  0  0  0  0  0
   -2.3941    0.9307   -0.0865 H   0  0  0  0  0  0  0  0  0  0  0  0
    2.4795    1.2830    0.7455 H   0  0  0  0  0  0  0  0  0  0  0  0
   -0.0543   -2.0005    0.6811 H   0  0  0  0  0  0  0  0  0  0  0  0
    0.4247   -1.2232   -1.8515 H   0  0  0  0  0  0  0  0  0  0  0  0
  1  2  1  0
  2  3  1  0
  3  4  2  0
  3  5  1  0
  5  6  1  0
  6  7  1  0
  7  8  1  0
  8  9  1  0
  7  2  1  0
  8  2  1  0
  9  5  1  0
  1 10  1  0
  1 11  1  0
  1 12  1  0
  5 13  1  0
  7 14  1  0
  8 15  1  0
M  END
