
     RDKit          3D

 21 23  0  0  0  0  0  0  0  0999 V2000
    2.5378    0.6897   -0.4474 C   0  0  0  0  0  0  0  0  0  0  0  0
    1.2533    0.2740   -0.2458 C   0  0  0  0  0  0  0  0  0  0  0  0
    0.0384    1.1130    0.0538 C   0  0  0  0  0  0  0  0  0  0  0  0
   -0.4897   -0.3271    0.0106 C   0  0  0  0  0  0  0  0  0  0  0  0
   -1.7731   -0.7249    0.2186 C   0  0  0  0  0  0  0  0  0  0  0  0
   -2.8880   -0.2148   -0.6699 C   0  0  0  0  0  0  0  0  0  0  0  0
   -2.4877   -1.5247   -0.7599 O   0  0  0  0  0  0  0  0  0  0  0  0
    0.7362   -0.6845    0.7955 C   0  0  0  0  0  0  0  0  0  0  0  0
    0.3574   -0.4609   -1.2173 C   0  0  0  0  0  0  0  0  0  0  0  0
    2.8479    0.7691   -1.5268 H   0  0  0  0  0  0  0  0  0  0  0  0
    3.3242    0.0126    0.0029 H   0  0  0  0  0  0  0  0  0  0  0  0
    2.7897    1.7000   -0.0226 H   0  0  0  0  0  0  0  0  0  0  0  0
   -0.0060    1.5870    1.0319 H   0  0  0  0  0  0  0  0  0  0  0  0
   -0.2543    1.7166   -0.8171 H   0  0  0  0  0  0  0  0  0  0  0  0
   -2.1120   -1.0834    1.2366 H   0  0  0  0  0  0  0  0  0  0  0  0
   -3.8303    0.0594   -0.1548 H   0  0  0  0  0  0  0  0  0  0  0  0
   -2.6269    0.4098   -1.5333 H   0  0  0  0  0  0  0  0  0  0  0  0
    1.0856   -1.7161    0.7389 H   0  0  0  0  0  0  0  0  0  0  0  0
    0.6934   -0.2325    1.8007 H   0  0  0  0  0  0  0  0  0  0  0  0
    0.0748    0.1305   -2.0942 H   0  0  0  0  0  0  0  0  0  0  0  0
    0.7292   -1.4927   -1.4202 H   0  0  0  0  0  0  0  0  0  0  0  0
  1  2  1  0
  2  3  1  0
  3  4  1  0
  4  5  1  0
  5  6  1  0
  6  7  1  0
  4  8  1  0
  4  9  1  0
  8  2  1  0
  9  2  1  0
  7  5  1  0
  1 10  1  0
  1 11  1  0
  1 12  1  0
  3 13  1  0
  3 14  1  0
  5 15  1  0
  6 16  1  0
  6 17  1  0
  8 18  1  0
  8 19  1  0
  9 20  1  0
  9 21  1  0
M  END
