
     RDKit          3D

 21 22  0  0  0  0  0  0  0  0999 V2000
   -2.3160   -0.9830    0.5537 C   0  0  0  0  0  0  0  0  0  0  0  0
   -1.1183   -0.3379    0.1279 C   0  0  0  0  0  0  0  0  0  0  0  0
    0.1258   -0.3732    0.9522 C   0  0  0  0  0  0  0  0  0  0  0  0
    0.9990    0.2812    0.1812 C   0  0  0  0  0  0  0  0  0  0  0  0
    2.4393    0.5762    0.3827 C   0  0  0  0  0  0  0  0  0  0  0  0
    2.8678    0.0440    1.6068 O   0  0  0  0  0  0  0  0  0  0  0  0
    0.2000    0.6774   -0.9819 C   0  0  0  0  0  0  0  0  0  0  0  0
   -1.1277    1.1039   -0.3472 C   0  0  0  0  0  0  0  0  0  0  0  0
   -0.5389   -0.6418   -1.2628 C   0  0  0  0  0  0  0  0  0  0  0  0
   -3.0672   -0.3260    1.0557 H   0  0  0  0  0  0  0  0  0  0  0  0
   -2.8618   -1.4648   -0.2915 H   0  0  0  0  0  0  0  0  0  0  0  0
   -2.0888   -1.7797    1.3188 H   0  0  0  0  0  0  0  0  0  0  0  0
    0.3084   -0.8084    1.9276 H   0  0  0  0  0  0  0  0  0  0  0  0
    3.0735    0.0576   -0.3948 H   0  0  0  0  0  0  0  0  0  0  0  0
    2.6863    1.6447    0.3053 H   0  0  0  0  0  0  0  0  0  0  0  0
    3.8630    0.0490    1.6357 H   0  0  0  0  0  0  0  0  0  0  0  0
    0.5826    1.2223   -1.7872 H   0  0  0  0  0  0  0  0  0  0  0  0
   -1.9175    1.2416   -1.1053 H   0  0  0  0  0  0  0  0  0  0  0  0
   -1.0420    1.8664    0.4295 H   0  0  0  0  0  0  0  0  0  0  0  0
   -1.2637   -0.5964   -2.0738 H   0  0  0  0  0  0  0  0  0  0  0  0
    0.1961   -1.4532   -1.2575 H   0  0  0  0  0  0  0  0  0  0  0  0
  1  2  1  0
  2  3  1  0
  3  4  2  0
  4  5  1  0
  5  6  1  0
  4  7  1  0
  7  8  1  0
  7  9  1  0
  8  2  1  0
  9  2  1  0
  1 10  1  0
  1 11  1  0
  1 12  1  0
  3 13  1  0
  5 14  1  0
  5 15  1  0
  6 16  1  0
  7 17  1  0
  8 18  1  0
  8 19  1  0
  9 20  1  0
  9 21  1  0
M  END
