
     RDKit          3D

 21 22  0  0  0  0  0  0  0  0999 V2000
    1.3670    1.5033    0.3110 C   0  0  0  0  0  0  0  0  0  0  0  0
    0.5462    0.3490    0.0601 C   0  0  0  0  0  0  0  0  0  0  0  0
    0.1849   -0.5831    1.2023 C   0  0  0  0  0  0  0  0  0  0  0  0
   -0.0182   -1.5936    0.0653 C   0  0  0  0  0  0  0  0  0  0  0  0
   -1.1354   -1.0288   -0.7418 C   0  0  0  0  0  0  0  0  0  0  0  0
   -0.7538    0.4661   -0.6812 C   0  0  0  0  0  0  0  0  0  0  0  0
   -1.8110    1.1395    0.0875 C   0  0  0  0  0  0  0  0  0  0  0  0
   -2.6390    0.5708    0.7818 O   0  0  0  0  0  0  0  0  0  0  0  0
    1.1994   -0.8972   -0.5576 C   0  0  0  0  0  0  0  0  0  0  0  0
    1.9325    1.4356    1.2820 H   0  0  0  0  0  0  0  0  0  0  0  0
    2.1813    1.5834   -0.4665 H   0  0  0  0  0  0  0  0  0  0  0  0
    0.8089    2.4414    0.2701 H   0  0  0  0  0  0  0  0  0  0  0  0
    1.0639   -0.9114    1.8027 H   0  0  0  0  0  0  0  0  0  0  0  0
   -0.7141   -0.3263    1.7585 H   0  0  0  0  0  0  0  0  0  0  0  0
    0.0552   -2.6205    0.2899 H   0  0  0  0  0  0  0  0  0  0  0  0
   -1.0193   -1.3649   -1.8130 H   0  0  0  0  0  0  0  0  0  0  0  0
   -2.1349   -1.2070   -0.3456 H   0  0  0  0  0  0  0  0  0  0  0  0
   -0.5874    0.8747   -1.6870 H   0  0  0  0  0  0  0  0  0  0  0  0
   -1.8822    2.2294    0.0514 H   0  0  0  0  0  0  0  0  0  0  0  0
    2.1383   -1.1451   -0.0246 H   0  0  0  0  0  0  0  0  0  0  0  0
    1.2179   -0.9151   -1.6452 H   0  0  0  0  0  0  0  0  0  0  0  0
  1  2  1  0
  2  3  1  0
  3  4  1  0
  4  5  1  0
  5  6  1  0
  6  7  1  0
  7  8  2  0
  4  9  1  0
  6  2  1  0
  9  2  1  0
  1 10  1  0
  1 11  1  0
  1 12  1  0
  3 13  1  0
  3 14  1  0
  4 15  1  0
  5 16  1  0
  5 17  1  0
  6 18  1  0
  7 19  1  0
  9 20  1  0
  9 21  1  0
M  END
