
     RDKit          3D

 21 22  0  0  0  0  0  0  0  0999 V2000
   -2.2508   -0.2850    0.3653 C   0  0  0  0  0  0  0  0  0  0  0  0
   -0.8403   -0.1211    0.1142 C   0  0  0  0  0  0  0  0  0  0  0  0
   -0.0306   -1.2141   -0.5079 C   0  0  0  0  0  0  0  0  0  0  0  0
    1.3193   -0.4750   -0.6265 C   0  0  0  0  0  0  0  0  0  0  0  0
    2.3389   -1.2364   -0.0850 O   0  0  0  0  0  0  0  0  0  0  0  0
    0.9826    0.7454    0.1649 C   0  0  0  0  0  0  0  0  0  0  0  0
    1.8858    1.6812    0.4229 O   0  0  0  0  0  0  0  0  0  0  0  0
    0.0673    0.2687    1.2924 C   0  0  0  0  0  0  0  0  0  0  0  0
   -0.3327    1.1668   -0.5071 C   0  0  0  0  0  0  0  0  0  0  0  0
   -2.8600    0.2048   -0.4225 H   0  0  0  0  0  0  0  0  0  0  0  0
   -2.5011   -1.3731    0.4194 H   0  0  0  0  0  0  0  0  0  0  0  0
   -2.5383    0.2344    1.3199 H   0  0  0  0  0  0  0  0  0  0  0  0
    0.0844   -2.0510    0.2161 H   0  0  0  0  0  0  0  0  0  0  0  0
   -0.3895   -1.5513   -1.4865 H   0  0  0  0  0  0  0  0  0  0  0  0
    1.4795   -0.1826   -1.6728 H   0  0  0  0  0  0  0  0  0  0  0  0
    2.6625   -1.8438   -0.7996 H   0  0  0  0  0  0  0  0  0  0  0  0
    1.8821    2.3839   -0.2891 H   0  0  0  0  0  0  0  0  0  0  0  0
   -0.2945    1.1062    1.8893 H   0  0  0  0  0  0  0  0  0  0  0  0
    0.4436   -0.6160    1.8347 H   0  0  0  0  0  0  0  0  0  0  0  0
   -0.8023    2.0500   -0.0484 H   0  0  0  0  0  0  0  0  0  0  0  0
   -0.3059    1.1082   -1.5938 H   0  0  0  0  0  0  0  0  0  0  0  0
  1  2  1  0
  2  3  1  0
  3  4  1  0
  4  5  1  0
  4  6  1  0
  6  7  1  0
  6  8  1  0
  6  9  1  0
  8  2  1  0
  9  2  1  0
  1 10  1  0
  1 11  1  0
  1 12  1  0
  3 13  1  0
  3 14  1  0
  4 15  1  0
  5 16  1  0
  7 17  1  0
  8 18  1  0
  8 19  1  0
  9 20  1  0
  9 21  1  0
M  END
