
     RDKit          3D

 17 18  0  0  0  0  0  0  0  0999 V2000
   -1.0329    1.2744   -0.6808 C   0  0  0  0  0  0  0  0  0  0  0  0
   -0.3709    0.2670    0.1903 C   0  0  0  0  0  0  0  0  0  0  0  0
   -0.9070   -1.1126    0.3622 C   0  0  0  0  0  0  0  0  0  0  0  0
    0.4744   -1.6445   -0.0280 C   0  0  0  0  0  0  0  0  0  0  0  0
    0.9977   -0.2283   -0.0349 C   0  0  0  0  0  0  0  0  0  0  0  0
    1.7660    0.1507   -1.1143 O   0  0  0  0  0  0  0  0  0  0  0  0
    0.7334    0.6614    1.1097 C   0  0  0  0  0  0  0  0  0  0  0  0
   -0.6250    2.2719   -0.4340 H   0  0  0  0  0  0  0  0  0  0  0  0
   -0.9738    1.0414   -1.7719 H   0  0  0  0  0  0  0  0  0  0  0  0
   -2.1229    1.2981   -0.4378 H   0  0  0  0  0  0  0  0  0  0  0  0
   -1.7112   -1.4411   -0.3022 H   0  0  0  0  0  0  0  0  0  0  0  0
   -1.1708   -1.3185    1.4324 H   0  0  0  0  0  0  0  0  0  0  0  0
    0.4268   -2.0779   -1.0385 H   0  0  0  0  0  0  0  0  0  0  0  0
    0.8609   -2.2912    0.7756 H   0  0  0  0  0  0  0  0  0  0  0  0
    1.8445    1.1341   -1.1906 H   0  0  0  0  0  0  0  0  0  0  0  0
    0.7127    0.3139    2.1559 H   0  0  0  0  0  0  0  0  0  0  0  0
    1.0982    1.7013    1.0070 H   0  0  0  0  0  0  0  0  0  0  0  0
  1  2  1  0
  2  3  1  0
  3  4  1  0
  4  5  1  0
  5  6  1  0
  5  7  1  0
  5  2  1  0
  7  2  1  0
  1  8  1  0
  1  9  1  0
  1 10  1  0
  3 11  1  0
  3 12  1  0
  4 13  1  0
  4 14  1  0
  6 15  1  0
  7 16  1  0
  7 17  1  0
M  END
