
     RDKit          3D

 21 23  0  0  0  0  0  0  0  0999 V2000
    2.1948   -0.4178    0.2331 C   0  0  0  0  0  0  0  0  0  0  0  0
    0.9420    0.4541    0.0599 C   0  0  0  0  0  0  0  0  0  0  0  0
    0.1597    0.2449   -1.2297 C   0  0  0  0  0  0  0  0  0  0  0  0
   -0.6679   -0.9239   -0.8203 C   0  0  0  0  0  0  0  0  0  0  0  0
   -1.9779   -1.1254   -0.3519 C   0  0  0  0  0  0  0  0  0  0  0  0
   -1.3654   -0.0237    0.2809 C   0  0  0  0  0  0  0  0  0  0  0  0
   -1.8317    1.2352   -0.1769 O   0  0  0  0  0  0  0  0  0  0  0  0
   -0.1670    0.1135    1.1225 C   0  0  0  0  0  0  0  0  0  0  0  0
    0.6140    1.4215    1.0790 C   0  0  0  0  0  0  0  0  0  0  0  0
    2.2196   -0.8194    1.2823 H   0  0  0  0  0  0  0  0  0  0  0  0
    2.1858   -1.2861   -0.4287 H   0  0  0  0  0  0  0  0  0  0  0  0
    3.1031    0.1825    0.0670 H   0  0  0  0  0  0  0  0  0  0  0  0
   -0.3791    1.1601   -1.4533 H   0  0  0  0  0  0  0  0  0  0  0  0
    0.8330   -0.0474   -2.0704 H   0  0  0  0  0  0  0  0  0  0  0  0
    0.0612   -1.7032   -0.4231 H   0  0  0  0  0  0  0  0  0  0  0  0
   -2.2387   -1.9902    0.3305 H   0  0  0  0  0  0  0  0  0  0  0  0
   -2.8291   -0.9811   -1.0561 H   0  0  0  0  0  0  0  0  0  0  0  0
   -2.3665    1.1690   -0.9991 H   0  0  0  0  0  0  0  0  0  0  0  0
    0.1109   -0.5714    1.9196 H   0  0  0  0  0  0  0  0  0  0  0  0
    1.3725    1.5921    1.8620 H   0  0  0  0  0  0  0  0  0  0  0  0
    0.0269    2.3166    0.7727 H   0  0  0  0  0  0  0  0  0  0  0  0
  1  2  1  0
  2  3  1  0
  3  4  1  0
  4  5  1  0
  5  6  1  0
  6  7  1  0
  6  8  1  0
  8  9  1  0
  8  2  1  0
  9  2  1  0
  6  4  1  0
  1 10  1  0
  1 11  1  0
  1 12  1  0
  3 13  1  0
  3 14  1  0
  4 15  1  0
  5 16  1  0
  5 17  1  0
  7 18  1  0
  8 19  1  0
  9 20  1  0
  9 21  1  0
M  END
