
     RDKit          3D

 18 19  0  0  0  0  0  0  0  0999 V2000
    1.9265    0.0026    0.0111 C   0  0  0  0  0  0  0  0  0  0  0  0
    0.4974   -0.0422    0.0034 C   0  0  0  0  0  0  0  0  0  0  0  0
   -0.2472   -1.3646    0.0884 C   0  0  0  0  0  0  0  0  0  0  0  0
   -1.6207   -0.8313   -0.0806 C   0  0  0  0  0  0  0  0  0  0  0  0
   -2.6451   -1.4061   -0.2338 O   0  0  0  0  0  0  0  0  0  0  0  0
   -1.4099    0.6206   -0.0120 C   0  0  0  0  0  0  0  0  0  0  0  0
   -0.2826    0.7573   -1.0523 C   0  0  0  0  0  0  0  0  0  0  0  0
   -0.2996    0.7897    1.0112 C   0  0  0  0  0  0  0  0  0  0  0  0
    2.3405    0.1851   -1.0228 H   0  0  0  0  0  0  0  0  0  0  0  0
    2.3952    0.7982    0.6449 H   0  0  0  0  0  0  0  0  0  0  0  0
    2.3763   -0.9793    0.3213 H   0  0  0  0  0  0  0  0  0  0  0  0
   -0.1352   -1.7426    1.1353 H   0  0  0  0  0  0  0  0  0  0  0  0
    0.0553   -2.0823   -0.6711 H   0  0  0  0  0  0  0  0  0  0  0  0
   -2.2004    1.3077   -0.0465 H   0  0  0  0  0  0  0  0  0  0  0  0
    0.1138    1.7703   -1.1462 H   0  0  0  0  0  0  0  0  0  0  0  0
   -0.4387    0.1718   -1.9648 H   0  0  0  0  0  0  0  0  0  0  0  0
   -0.0163    1.8369    1.0818 H   0  0  0  0  0  0  0  0  0  0  0  0
   -0.4094    0.2082    1.9328 H   0  0  0  0  0  0  0  0  0  0  0  0
  1  2  1  0
  2  3  1  0
  3  4  1  0
  4  5  2  0
  4  6  1  0
  6  7  1  0
  6  8  1  0
  7  2  1  0
  8  2  1  0
  1  9  1  0
  1 10  1  0
  1 11  1  0
  3 12  1  0
  3 13  1  0
  6 14  1  0
  7 15  1  0
  7 16  1  0
  8 17  1  0
  8 18  1  0
M  END
