
     RDKit          3D

 19 20  0  0  0  0  0  0  0  0999 V2000
   -2.3880   -0.5022    0.3974 C   0  0  0  0  0  0  0  0  0  0  0  0
   -1.1302    0.1221   -0.1757 C   0  0  0  0  0  0  0  0  0  0  0  0
   -0.2714   -0.7253   -1.0465 C   0  0  0  0  0  0  0  0  0  0  0  0
    0.9872   -1.1436   -0.9345 C   0  0  0  0  0  0  0  0  0  0  0  0
    1.8692   -0.7877    0.2380 C   0  0  0  0  0  0  0  0  0  0  0  0
    1.9468    0.7144    0.2126 C   0  0  0  0  0  0  0  0  0  0  0  0
    0.8905    1.5096    0.3280 C   0  0  0  0  0  0  0  0  0  0  0  0
   -0.5403    1.2151    0.4993 C   0  0  0  0  0  0  0  0  0  0  0  0
   -1.3166    1.4839   -0.6230 O   0  0  0  0  0  0  0  0  0  0  0  0
   -2.4404   -1.5951    0.1570 H   0  0  0  0  0  0  0  0  0  0  0  0
   -3.2648    0.0442    0.0100 H   0  0  0  0  0  0  0  0  0  0  0  0
   -2.2936   -0.4472    1.5086 H   0  0  0  0  0  0  0  0  0  0  0  0
   -0.7267   -1.1023   -1.9779 H   0  0  0  0  0  0  0  0  0  0  0  0
    1.4109   -1.7673   -1.7109 H   0  0  0  0  0  0  0  0  0  0  0  0
    1.3226   -1.0485    1.1544 H   0  0  0  0  0  0  0  0  0  0  0  0
    2.8391   -1.2618    0.1132 H   0  0  0  0  0  0  0  0  0  0  0  0
    2.9236    1.1638    0.0930 H   0  0  0  0  0  0  0  0  0  0  0  0
    1.1347    2.5599    0.2879 H   0  0  0  0  0  0  0  0  0  0  0  0
   -0.9525    1.5679    1.4690 H   0  0  0  0  0  0  0  0  0  0  0  0
  1  2  1  0
  2  3  1  0
  3  4  2  0
  4  5  1  0
  5  6  1  0
  6  7  2  0
  7  8  1  0
  8  9  1  0
  8  2  1  0
  9  2  1  0
  1 10  1  0
  1 11  1  0
  1 12  1  0
  3 13  1  0
  4 14  1  0
  5 15  1  0
  5 16  1  0
  6 17  1  0
  7 18  1  0
  8 19  1  0
M  END
