
     RDKit          3D

 17 19  0  0  0  0  0  0  0  0999 V2000
    1.8191   -0.1153    0.7380 C   0  0  0  0  0  0  0  0  0  0  0  0
    0.7136   -0.6907   -0.0837 C   0  0  0  0  0  0  0  0  0  0  0  0
    0.9185   -1.3313   -1.2575 O   0  0  0  0  0  0  0  0  0  0  0  0
    0.5660   -0.0077   -1.4451 C   0  0  0  0  0  0  0  0  0  0  0  0
   -0.7143    0.5609   -1.0079 C   0  0  0  0  0  0  0  0  0  0  0  0
   -0.8298    1.2410    0.3564 C   0  0  0  0  0  0  0  0  0  0  0  0
   -0.6732   -0.2160    0.2512 C   0  0  0  0  0  0  0  0  0  0  0  0
   -1.7653   -1.1669    0.4678 C   0  0  0  0  0  0  0  0  0  0  0  0
   -1.6380   -2.1633    1.1278 O   0  0  0  0  0  0  0  0  0  0  0  0
    1.3988    0.3081    1.6738 H   0  0  0  0  0  0  0  0  0  0  0  0
    2.3577    0.7255    0.2411 H   0  0  0  0  0  0  0  0  0  0  0  0
    2.5565   -0.8954    1.0618 H   0  0  0  0  0  0  0  0  0  0  0  0
    1.3672    0.6323   -1.8097 H   0  0  0  0  0  0  0  0  0  0  0  0
   -1.5955    0.6559   -1.6333 H   0  0  0  0  0  0  0  0  0  0  0  0
   -1.8048    1.6092    0.6588 H   0  0  0  0  0  0  0  0  0  0  0  0
    0.0699    1.8296    0.6448 H   0  0  0  0  0  0  0  0  0  0  0  0
   -2.7465   -0.9757    0.0155 H   0  0  0  0  0  0  0  0  0  0  0  0
  1  2  1  0
  2  3  1  0
  3  4  1  0
  4  5  1  0
  5  6  1  0
  6  7  1  0
  7  8  1  0
  8  9  2  0
  4  2  1  0
  7  5  1  0
  7  2  1  0
  1 10  1  0
  1 11  1  0
  1 12  1  0
  4 13  1  0
  5 14  1  0
  6 15  1  0
  6 16  1  0
  8 17  1  0
M  END
