
     RDKit          3D

 23 25  0  0  0  0  0  0  0  0999 V2000
    2.4500   -0.9512    0.1564 C   0  0  0  0  0  0  0  0  0  0  0  0
    1.1818   -0.1667    0.2663 C   0  0  0  0  0  0  0  0  0  0  0  0
    0.0736   -0.8264    1.0275 C   0  0  0  0  0  0  0  0  0  0  0  0
   -1.1203   -0.8317    0.1122 C   0  0  0  0  0  0  0  0  0  0  0  0
   -2.1077    0.2256    0.5518 C   0  0  0  0  0  0  0  0  0  0  0  0
   -1.8629    1.0014   -0.7378 C   0  0  0  0  0  0  0  0  0  0  0  0
   -0.7797    0.0467   -1.0668 C   0  0  0  0  0  0  0  0  0  0  0  0
    0.6270    0.4854   -0.9357 C   0  0  0  0  0  0  0  0  0  0  0  0
    1.1378    1.2997    0.1668 C   0  0  0  0  0  0  0  0  0  0  0  0
    2.1928   -1.9958   -0.1610 H   0  0  0  0  0  0  0  0  0  0  0  0
    2.9796   -1.0776    1.1353 H   0  0  0  0  0  0  0  0  0  0  0  0
    3.1331   -0.5474   -0.6309 H   0  0  0  0  0  0  0  0  0  0  0  0
    0.2841   -1.8883    1.2892 H   0  0  0  0  0  0  0  0  0  0  0  0
   -0.0952   -0.2152    1.9519 H   0  0  0  0  0  0  0  0  0  0  0  0
   -1.5469   -1.8163   -0.1239 H   0  0  0  0  0  0  0  0  0  0  0  0
   -3.1092   -0.2201    0.6435 H   0  0  0  0  0  0  0  0  0  0  0  0
   -1.8068    0.8056    1.4539 H   0  0  0  0  0  0  0  0  0  0  0  0
   -1.6124    2.0573   -0.6075 H   0  0  0  0  0  0  0  0  0  0  0  0
   -2.7503    0.8845   -1.4055 H   0  0  0  0  0  0  0  0  0  0  0  0
   -0.9490   -0.5198   -2.0124 H   0  0  0  0  0  0  0  0  0  0  0  0
    1.2270    0.5234   -1.8917 H   0  0  0  0  0  0  0  0  0  0  0  0
    0.3879    1.8376    0.8084 H   0  0  0  0  0  0  0  0  0  0  0  0
    2.0658    1.8890    0.0100 H   0  0  0  0  0  0  0  0  0  0  0  0
  1  2  1  0
  2  3  1  0
  3  4  1  0
  4  5  1  0
  5  6  1  0
  6  7  1  0
  7  8  1  0
  8  9  1  0
  8  2  1  0
  9  2  1  0
  7  4  1  0
  1 10  1  0
  1 11  1  0
  1 12  1  0
  3 13  1  0
  3 14  1  0
  4 15  1  0
  5 16  1  0
  5 17  1  0
  6 18  1  0
  6 19  1  0
  7 20  1  0
  8 21  1  0
  9 22  1  0
  9 23  1  0
M  END
