
     RDKit          3D

 18 20  0  0  0  0  0  0  0  0999 V2000
   -2.1231   -0.2404    0.4585 C   0  0  0  0  0  0  0  0  0  0  0  0
   -0.6510   -0.0279    0.3925 C   0  0  0  0  0  0  0  0  0  0  0  0
    0.2809   -1.1979    0.5661 C   0  0  0  0  0  0  0  0  0  0  0  0
    1.0507   -0.6880   -0.6432 C   0  0  0  0  0  0  0  0  0  0  0  0
    2.0541    0.3135   -0.1686 C   0  0  0  0  0  0  0  0  0  0  0  0
    1.4128    1.4164    0.1916 C   0  0  0  0  0  0  0  0  0  0  0  0
   -0.0542    1.2711   -0.0004 C   0  0  0  0  0  0  0  0  0  0  0  0
   -0.1131    0.1632   -0.9720 C   0  0  0  0  0  0  0  0  0  0  0  0
   -2.4391   -0.9253    1.2790 H   0  0  0  0  0  0  0  0  0  0  0  0
   -2.4852   -0.7408   -0.4866 H   0  0  0  0  0  0  0  0  0  0  0  0
   -2.6383    0.7294    0.4922 H   0  0  0  0  0  0  0  0  0  0  0  0
   -0.2129   -2.1957    0.3967 H   0  0  0  0  0  0  0  0  0  0  0  0
    0.8565   -1.1233    1.5099 H   0  0  0  0  0  0  0  0  0  0  0  0
    1.3966   -1.4319   -1.3488 H   0  0  0  0  0  0  0  0  0  0  0  0
    3.1160    0.0967   -0.1524 H   0  0  0  0  0  0  0  0  0  0  0  0
    1.9043    2.2965    0.5725 H   0  0  0  0  0  0  0  0  0  0  0  0
   -0.6741    2.1432   -0.2094 H   0  0  0  0  0  0  0  0  0  0  0  0
   -0.6809    0.1413   -1.8777 H   0  0  0  0  0  0  0  0  0  0  0  0
  1  2  1  0
  2  3  1  0
  3  4  1  0
  4  5  1  0
  5  6  2  0
  6  7  1  0
  7  8  1  0
  7  2  1  0
  8  2  1  0
  8  4  1  0
  1  9  1  0
  1 10  1  0
  1 11  1  0
  3 12  1  0
  3 13  1  0
  4 14  1  0
  5 15  1  0
  6 16  1  0
  7 17  1  0
  8 18  1  0
M  END
