
     RDKit          3D

 19 21  0  0  0  0  0  0  0  0999 V2000
    2.1606   -0.3292    0.3303 C   0  0  0  0  0  0  0  0  0  0  0  0
    0.7753   -0.4994   -0.1581 C   0  0  0  0  0  0  0  0  0  0  0  0
    0.6166   -1.1081   -1.3836 O   0  0  0  0  0  0  0  0  0  0  0  0
    0.3197    0.2559   -1.4223 C   0  0  0  0  0  0  0  0  0  0  0  0
   -1.0011    0.7502   -0.9499 C   0  0  0  0  0  0  0  0  0  0  0  0
   -0.7615    1.2263    0.4898 C   0  0  0  0  0  0  0  0  0  0  0  0
   -0.4157   -0.2241    0.7227 C   0  0  0  0  0  0  0  0  0  0  0  0
   -0.4950   -0.7466    1.9389 O   0  0  0  0  0  0  0  0  0  0  0  0
   -1.5645   -0.5047   -0.2636 C   0  0  0  0  0  0  0  0  0  0  0  0
    2.8533   -0.2221   -0.5401 H   0  0  0  0  0  0  0  0  0  0  0  0
    2.3363    0.4671    1.0425 H   0  0  0  0  0  0  0  0  0  0  0  0
    2.4676   -1.2939    0.8315 H   0  0  0  0  0  0  0  0  0  0  0  0
    1.0382    0.8746   -1.9506 H   0  0  0  0  0  0  0  0  0  0  0  0
   -1.6502    1.3140   -1.5611 H   0  0  0  0  0  0  0  0  0  0  0  0
    0.0335    1.9537    0.6118 H   0  0  0  0  0  0  0  0  0  0  0  0
   -1.7366    1.4796    0.9725 H   0  0  0  0  0  0  0  0  0  0  0  0
   -1.0463   -1.5920    1.9198 H   0  0  0  0  0  0  0  0  0  0  0  0
   -2.5507   -0.3714    0.1880 H   0  0  0  0  0  0  0  0  0  0  0  0
   -1.3794   -1.4300   -0.8186 H   0  0  0  0  0  0  0  0  0  0  0  0
  1  2  1  0
  2  3  1  0
  3  4  1  0
  4  5  1  0
  5  6  1  0
  6  7  1  0
  7  8  1  0
  7  9  1  0
  4  2  1  0
  9  5  1  0
  7  2  1  0
  1 10  1  0
  1 11  1  0
  1 12  1  0
  4 13  1  0
  5 14  1  0
  6 15  1  0
  6 16  1  0
  8 17  1  0
  9 18  1  0
  9 19  1  0
M  END
