
     RDKit          3D

 20 21  0  0  0  0  0  0  0  0999 V2000
   -2.2189   -0.0018    0.3379 C   0  0  0  0  0  0  0  0  0  0  0  0
   -0.7594    0.0765    0.1100 C   0  0  0  0  0  0  0  0  0  0  0  0
   -0.2035    1.3861   -0.3161 C   0  0  0  0  0  0  0  0  0  0  0  0
    1.0929    1.4091   -0.5828 C   0  0  0  0  0  0  0  0  0  0  0  0
    1.9341    0.1580   -0.4509 C   0  0  0  0  0  0  0  0  0  0  0  0
    1.0907   -0.8885    0.1713 C   0  0  0  0  0  0  0  0  0  0  0  0
    0.1363   -0.3941    1.2404 C   0  0  0  0  0  0  0  0  0  0  0  0
   -0.1465   -1.0581   -0.7144 C   0  0  0  0  0  0  0  0  0  0  0  0
   -2.7013    1.0119    0.2368 H   0  0  0  0  0  0  0  0  0  0  0  0
   -2.5065   -0.4399    1.3222 H   0  0  0  0  0  0  0  0  0  0  0  0
   -2.6691   -0.6019   -0.5035 H   0  0  0  0  0  0  0  0  0  0  0  0
   -0.8635    2.2243   -0.3841 H   0  0  0  0  0  0  0  0  0  0  0  0
    1.5883    2.3156   -0.9009 H   0  0  0  0  0  0  0  0  0  0  0  0
    2.8761    0.3757    0.0591 H   0  0  0  0  0  0  0  0  0  0  0  0
    2.1661   -0.1468   -1.4960 H   0  0  0  0  0  0  0  0  0  0  0  0
    1.5631   -1.8292    0.4672 H   0  0  0  0  0  0  0  0  0  0  0  0
   -0.2758   -1.2264    1.8203 H   0  0  0  0  0  0  0  0  0  0  0  0
    0.5597    0.4210    1.8638 H   0  0  0  0  0  0  0  0  0  0  0  0
    0.0182   -0.8025   -1.7631 H   0  0  0  0  0  0  0  0  0  0  0  0
   -0.6810   -1.9890   -0.4965 H   0  0  0  0  0  0  0  0  0  0  0  0
  1  2  1  0
  2  3  1  0
  3  4  2  0
  4  5  1  0
  5  6  1  0
  6  7  1  0
  6  8  1  0
  7  2  1  0
  8  2  1  0
  1  9  1  0
  1 10  1  0
  1 11  1  0
  3 12  1  0
  4 13  1  0
  5 14  1  0
  5 15  1  0
  6 16  1  0
  7 17  1  0
  7 18  1  0
  8 19  1  0
  8 20  1  0
M  END
