
     RDKit          3D

 19 20  0  0  0  0  0  0  0  0999 V2000
    2.2129    0.3107   -0.4357 C   0  0  0  0  0  0  0  0  0  0  0  0
    0.8117    0.0821    0.0855 C   0  0  0  0  0  0  0  0  0  0  0  0
    0.5615   -1.3732    0.4619 C   0  0  0  0  0  0  0  0  0  0  0  0
   -0.1584   -0.6598   -0.7041 C   0  0  0  0  0  0  0  0  0  0  0  0
   -1.5919   -0.3933   -0.4660 C   0  0  0  0  0  0  0  0  0  0  0  0
   -1.9461    0.9092    0.1275 C   0  0  0  0  0  0  0  0  0  0  0  0
   -0.9269    1.6872    0.6541 O   0  0  0  0  0  0  0  0  0  0  0  0
    0.2978    1.1401    0.9514 C   0  0  0  0  0  0  0  0  0  0  0  0
    0.9430    1.5506    1.9434 O   0  0  0  0  0  0  0  0  0  0  0  0
    2.8999    0.0363    0.4183 H   0  0  0  0  0  0  0  0  0  0  0  0
    2.3814    1.3411   -0.7759 H   0  0  0  0  0  0  0  0  0  0  0  0
    2.4430   -0.4381   -1.2270 H   0  0  0  0  0  0  0  0  0  0  0  0
   -0.0200   -1.5601    1.3780 H   0  0  0  0  0  0  0  0  0  0  0  0
    1.3021   -2.1320    0.2232 H   0  0  0  0  0  0  0  0  0  0  0  0
    0.1392   -1.0635   -1.7114 H   0  0  0  0  0  0  0  0  0  0  0  0
   -2.1554   -0.5253   -1.4368 H   0  0  0  0  0  0  0  0  0  0  0  0
   -1.9922   -1.2282    0.1827 H   0  0  0  0  0  0  0  0  0  0  0  0
   -2.7067    0.7670    0.9522 H   0  0  0  0  0  0  0  0  0  0  0  0
   -2.4949    1.5492   -0.6212 H   0  0  0  0  0  0  0  0  0  0  0  0
  1  2  1  0
  2  3  1  0
  3  4  1  0
  4  5  1  0
  5  6  1  0
  6  7  1  0
  7  8  1  0
  8  9  2  0
  4  2  1  0
  8  2  1  0
  1 10  1  0
  1 11  1  0
  1 12  1  0
  3 13  1  0
  3 14  1  0
  4 15  1  0
  5 16  1  0
  5 17  1  0
  6 18  1  0
  6 19  1  0
M  END
