
     RDKit          3D

 19 20  0  0  0  0  0  0  0  0999 V2000
   -2.5868    0.1595    0.2057 C   0  0  0  0  0  0  0  0  0  0  0  0
   -1.3888   -0.6977    0.0071 C   0  0  0  0  0  0  0  0  0  0  0  0
   -0.4870   -0.4891   -1.1905 C   0  0  0  0  0  0  0  0  0  0  0  0
    0.4712    0.1824   -0.2652 C   0  0  0  0  0  0  0  0  0  0  0  0
    1.9160   -0.1742   -0.3960 C   0  0  0  0  0  0  0  0  0  0  0  0
    2.6641    0.6149    0.6216 C   0  0  0  0  0  0  0  0  0  0  0  0
    2.1531    1.3974    1.3995 O   0  0  0  0  0  0  0  0  0  0  0  0
   -0.2277   -0.3348    0.9463 C   0  0  0  0  0  0  0  0  0  0  0  0
   -0.8935   -1.5295    0.9605 O   0  0  0  0  0  0  0  0  0  0  0  0
   -3.1598   -0.2202    1.0604 H   0  0  0  0  0  0  0  0  0  0  0  0
   -3.2386    0.2670   -0.6703 H   0  0  0  0  0  0  0  0  0  0  0  0
   -2.2207    1.2021    0.4387 H   0  0  0  0  0  0  0  0  0  0  0  0
   -0.9479    0.1021   -1.9788 H   0  0  0  0  0  0  0  0  0  0  0  0
   -0.0497   -1.4456   -1.5935 H   0  0  0  0  0  0  0  0  0  0  0  0
    0.3563    1.3019   -0.3600 H   0  0  0  0  0  0  0  0  0  0  0  0
    2.2768    0.1083   -1.4079 H   0  0  0  0  0  0  0  0  0  0  0  0
    2.0470   -1.2617   -0.2262 H   0  0  0  0  0  0  0  0  0  0  0  0
    3.7336    0.4765    0.6646 H   0  0  0  0  0  0  0  0  0  0  0  0
   -0.4175    0.3405    1.7837 H   0  0  0  0  0  0  0  0  0  0  0  0
  1  2  1  0
  2  3  1  0
  3  4  1  0
  4  5  1  0
  5  6  1  0
  6  7  2  0
  4  8  1  0
  8  9  1  0
  8  2  1  0
  9  2  1  0
  1 10  1  0
  1 11  1  0
  1 12  1  0
  3 13  1  0
  3 14  1  0
  4 15  1  0
  5 16  1  0
  5 17  1  0
  6 18  1  0
  8 19  1  0
M  END
