
     RDKit          3D

 19 21  0  0  0  0  0  0  0  0999 V2000
    2.2008    0.7380    0.4062 C   0  0  0  0  0  0  0  0  0  0  0  0
    0.7737    0.1572    0.3078 C   0  0  0  0  0  0  0  0  0  0  0  0
    0.6236   -1.2818    0.5602 C   0  0  0  0  0  0  0  0  0  0  0  0
   -0.3658   -1.8019   -0.1350 C   0  0  0  0  0  0  0  0  0  0  0  0
   -1.0222   -0.7354   -0.9631 C   0  0  0  0  0  0  0  0  0  0  0  0
   -2.1123   -0.2113   -0.1001 C   0  0  0  0  0  0  0  0  0  0  0  0
   -1.6805    0.8409    0.5637 C   0  0  0  0  0  0  0  0  0  0  0  0
   -0.2832    1.1490    0.2353 C   0  0  0  0  0  0  0  0  0  0  0  0
    0.0350    0.3404   -0.9680 C   0  0  0  0  0  0  0  0  0  0  0  0
    2.9521   -0.0537    0.3517 H   0  0  0  0  0  0  0  0  0  0  0  0
    2.2850    1.4920   -0.3979 H   0  0  0  0  0  0  0  0  0  0  0  0
    2.2218    1.3052    1.3739 H   0  0  0  0  0  0  0  0  0  0  0  0
    1.2642   -1.8400    1.2457 H   0  0  0  0  0  0  0  0  0  0  0  0
   -0.6821   -2.8229   -0.1348 H   0  0  0  0  0  0  0  0  0  0  0  0
   -1.3374   -1.0750   -1.9427 H   0  0  0  0  0  0  0  0  0  0  0  0
   -3.0914   -0.6346   -0.0387 H   0  0  0  0  0  0  0  0  0  0  0  0
   -2.2554    1.4514    1.2884 H   0  0  0  0  0  0  0  0  0  0  0  0
    0.0201    2.2246    0.2207 H   0  0  0  0  0  0  0  0  0  0  0  0
    0.4539    0.7580   -1.8735 H   0  0  0  0  0  0  0  0  0  0  0  0
  1  2  1  0
  2  3  1  0
  3  4  2  0
  4  5  1  0
  5  6  1  0
  6  7  2  0
  7  8  1  0
  8  9  1  0
  8  2  1  0
  9  2  1  0
  9  5  1  0
  1 10  1  0
  1 11  1  0
  1 12  1  0
  3 13  1  0
  4 14  1  0
  5 15  1  0
  6 16  1  0
  7 17  1  0
  8 18  1  0
  9 19  1  0
M  END
