
     RDKit          3D

 19 20  0  0  0  0  0  0  0  0999 V2000
   -2.3649   -0.3570   -0.1470 C   0  0  0  0  0  0  0  0  0  0  0  0
   -1.0523   -0.1064    0.4901 C   0  0  0  0  0  0  0  0  0  0  0  0
   -0.8843   -0.6314    1.7563 O   0  0  0  0  0  0  0  0  0  0  0  0
    0.0262   -0.8847    0.7504 C   0  0  0  0  0  0  0  0  0  0  0  0
    1.0060    0.2554    0.5207 C   0  0  0  0  0  0  0  0  0  0  0  0
    1.9150   -0.0570   -0.6189 C   0  0  0  0  0  0  0  0  0  0  0  0
    2.6255   -1.2130   -0.3325 O   0  0  0  0  0  0  0  0  0  0  0  0
   -0.2235    1.1016    0.1513 C   0  0  0  0  0  0  0  0  0  0  0  0
   -0.1512    1.4245   -1.1897 O   0  0  0  0  0  0  0  0  0  0  0  0
   -2.5777   -1.4584   -0.0797 H   0  0  0  0  0  0  0  0  0  0  0  0
   -3.1597    0.1217    0.4850 H   0  0  0  0  0  0  0  0  0  0  0  0
   -2.4452   -0.0718   -1.2029 H   0  0  0  0  0  0  0  0  0  0  0  0
    0.2310   -1.8818    0.3794 H   0  0  0  0  0  0  0  0  0  0  0  0
    1.4697    0.5397    1.4638 H   0  0  0  0  0  0  0  0  0  0  0  0
    2.6019    0.7840   -0.8679 H   0  0  0  0  0  0  0  0  0  0  0  0
    1.2655   -0.3004   -1.5108 H   0  0  0  0  0  0  0  0  0  0  0  0
    2.2528   -1.6414    0.4693 H   0  0  0  0  0  0  0  0  0  0  0  0
   -0.3330    1.9775    0.8021 H   0  0  0  0  0  0  0  0  0  0  0  0
   -0.2020    2.3990   -1.3190 H   0  0  0  0  0  0  0  0  0  0  0  0
  1  2  1  0
  2  3  1  0
  3  4  1  0
  4  5  1  0
  5  6  1  0
  6  7  1  0
  5  8  1  0
  8  9  1  0
  4  2  1  0
  8  2  1  0
  1 10  1  0
  1 11  1  0
  1 12  1  0
  4 13  1  0
  5 14  1  0
  6 15  1  0
  6 16  1  0
  7 17  1  0
  8 18  1  0
  9 19  1  0
M  END
