
     RDKit          3D

 21 24  0  0  0  0  0  0  0  0999 V2000
    2.6147   -0.5477   -0.0283 C   0  0  0  0  0  0  0  0  0  0  0  0
    1.2157   -0.2834    0.1370 C   0  0  0  0  0  0  0  0  0  0  0  0
    0.1997   -1.0265    0.8536 C   0  0  0  0  0  0  0  0  0  0  0  0
    0.4919    0.3628    1.1916 C   0  0  0  0  0  0  0  0  0  0  0  0
   -0.5984    0.7708    0.2974 C   0  0  0  0  0  0  0  0  0  0  0  0
   -1.1441    2.0589    0.0417 C   0  0  0  0  0  0  0  0  0  0  0  0
    0.2201    0.1216   -0.8529 C   0  0  0  0  0  0  0  0  0  0  0  0
   -0.8205   -0.5489   -0.1354 C   0  0  0  0  0  0  0  0  0  0  0  0
   -1.9586   -1.2949   -0.5945 C   0  0  0  0  0  0  0  0  0  0  0  0
    2.9599   -1.4010    0.5985 H   0  0  0  0  0  0  0  0  0  0  0  0
    3.2620    0.3147    0.2707 H   0  0  0  0  0  0  0  0  0  0  0  0
    2.8798   -0.7486   -1.0995 H   0  0  0  0  0  0  0  0  0  0  0  0
    0.2080   -1.9001    1.4130 H   0  0  0  0  0  0  0  0  0  0  0  0
    0.7930    0.7793    2.1105 H   0  0  0  0  0  0  0  0  0  0  0  0
   -1.7548    2.0768   -0.8904 H   0  0  0  0  0  0  0  0  0  0  0  0
   -0.3306    2.8302   -0.0999 H   0  0  0  0  0  0  0  0  0  0  0  0
   -1.7441    2.4427    0.8951 H   0  0  0  0  0  0  0  0  0  0  0  0
    0.2958    0.6358   -1.7531 H   0  0  0  0  0  0  0  0  0  0  0  0
   -2.2620   -0.9548   -1.6289 H   0  0  0  0  0  0  0  0  0  0  0  0
   -2.8556   -1.3107    0.0257 H   0  0  0  0  0  0  0  0  0  0  0  0
   -1.6720   -2.3769   -0.7519 H   0  0  0  0  0  0  0  0  0  0  0  0
  1  2  1  0
  2  3  1  0
  3  4  1  0
  4  5  1  0
  5  6  1  0
  5  7  1  0
  7  8  1  0
  8  9  1  0
  4  2  1  0
  8  5  1  0
  7  2  1  0
  8  3  1  0
  1 10  1  0
  1 11  1  0
  1 12  1  0
  3 13  1  0
  4 14  1  0
  6 15  1  0
  6 16  1  0
  6 17  1  0
  7 18  1  0
  9 19  1  0
  9 20  1  0
  9 21  1  0
M  END
