
     RDKit          3D

 21 22  0  0  0  0  0  0  0  0999 V2000
   -1.2374   -1.0366    0.8575 C   0  0  0  0  0  0  0  0  0  0  0  0
   -0.6952   -0.0215   -0.1092 C   0  0  0  0  0  0  0  0  0  0  0  0
   -1.0202    1.3889    0.2487 C   0  0  0  0  0  0  0  0  0  0  0  0
    0.0851    2.1631    0.0953 O   0  0  0  0  0  0  0  0  0  0  0  0
    1.1916    1.3939   -0.0913 C   0  0  0  0  0  0  0  0  0  0  0  0
    0.7754   -0.0201   -0.3321 C   0  0  0  0  0  0  0  0  0  0  0  0
    1.5934   -0.9941    0.4525 C   0  0  0  0  0  0  0  0  0  0  0  0
    0.6256   -0.3910   -1.6539 O   0  0  0  0  0  0  0  0  0  0  0  0
   -0.7731   -0.3958   -1.5560 C   0  0  0  0  0  0  0  0  0  0  0  0
   -0.7663   -2.0194    0.7951 H   0  0  0  0  0  0  0  0  0  0  0  0
   -2.3312   -1.1603    0.6760 H   0  0  0  0  0  0  0  0  0  0  0  0
   -1.1004   -0.6589    1.8824 H   0  0  0  0  0  0  0  0  0  0  0  0
   -1.8315    1.8116   -0.4034 H   0  0  0  0  0  0  0  0  0  0  0  0
   -1.3571    1.4588    1.3101 H   0  0  0  0  0  0  0  0  0  0  0  0
    1.7471    1.7419   -0.9900 H   0  0  0  0  0  0  0  0  0  0  0  0
    1.8533    1.4880    0.7990 H   0  0  0  0  0  0  0  0  0  0  0  0
    1.4738   -0.8647    1.5570 H   0  0  0  0  0  0  0  0  0  0  0  0
    2.6697   -0.7709    0.2370 H   0  0  0  0  0  0  0  0  0  0  0  0
    1.4482   -2.0524    0.1491 H   0  0  0  0  0  0  0  0  0  0  0  0
   -1.1717   -1.4171   -1.6749 H   0  0  0  0  0  0  0  0  0  0  0  0
   -1.1792    0.3564   -2.2490 H   0  0  0  0  0  0  0  0  0  0  0  0
  1  2  1  0
  2  3  1  0
  3  4  1  0
  4  5  1  0
  5  6  1  0
  6  7  1  0
  6  8  1  0
  8  9  1  0
  6  2  1  0
  9  2  1  0
  1 10  1  0
  1 11  1  0
  1 12  1  0
  3 13  1  0
  3 14  1  0
  5 15  1  0
  5 16  1  0
  7 17  1  0
  7 18  1  0
  7 19  1  0
  9 20  1  0
  9 21  1  0
M  END
