
     RDKit          3D

 23 25  0  0  0  0  0  0  0  0999 V2000
    2.3205   -0.2333    0.4552 C   0  0  0  0  0  0  0  0  0  0  0  0
    0.9038   -0.0622    0.1566 C   0  0  0  0  0  0  0  0  0  0  0  0
    0.1595    0.9572    0.9619 C   0  0  0  0  0  0  0  0  0  0  0  0
   -1.1317    1.0987    0.1747 C   0  0  0  0  0  0  0  0  0  0  0  0
   -2.0743   -0.0556    0.5116 C   0  0  0  0  0  0  0  0  0  0  0  0
   -1.2385   -0.8743   -0.4813 C   0  0  0  0  0  0  0  0  0  0  0  0
    0.0762   -1.3381    0.1635 C   0  0  0  0  0  0  0  0  0  0  0  0
   -0.9033    0.4128   -1.1556 C   0  0  0  0  0  0  0  0  0  0  0  0
    0.6075    0.4189   -1.2709 C   0  0  0  0  0  0  0  0  0  0  0  0
    2.9366    0.3998   -0.2342 H   0  0  0  0  0  0  0  0  0  0  0  0
    2.6537   -1.2837    0.2547 H   0  0  0  0  0  0  0  0  0  0  0  0
    2.6041    0.0297    1.4995 H   0  0  0  0  0  0  0  0  0  0  0  0
    0.6878    1.9188    1.0724 H   0  0  0  0  0  0  0  0  0  0  0  0
   -0.0886    0.4927    1.9481 H   0  0  0  0  0  0  0  0  0  0  0  0
   -1.5770    2.0839    0.1348 H   0  0  0  0  0  0  0  0  0  0  0  0
   -3.0603    0.1620    0.0760 H   0  0  0  0  0  0  0  0  0  0  0  0
   -2.0371   -0.4059    1.5439 H   0  0  0  0  0  0  0  0  0  0  0  0
   -1.7794   -1.6321   -1.0349 H   0  0  0  0  0  0  0  0  0  0  0  0
    0.5273   -2.0985   -0.4880 H   0  0  0  0  0  0  0  0  0  0  0  0
   -0.0711   -1.7498    1.1587 H   0  0  0  0  0  0  0  0  0  0  0  0
   -1.4749    0.7413   -1.9983 H   0  0  0  0  0  0  0  0  0  0  0  0
    1.0304    1.3982   -1.4762 H   0  0  0  0  0  0  0  0  0  0  0  0
    0.9288   -0.3804   -1.9720 H   0  0  0  0  0  0  0  0  0  0  0  0
  1  2  1  0
  2  3  1  0
  3  4  1  0
  4  5  1  0
  5  6  1  0
  6  7  1  0
  6  8  1  0
  8  9  1  0
  7  2  1  0
  9  2  1  0
  8  4  1  0
  1 10  1  0
  1 11  1  0
  1 12  1  0
  3 13  1  0
  3 14  1  0
  4 15  1  0
  5 16  1  0
  5 17  1  0
  6 18  1  0
  7 19  1  0
  7 20  1  0
  8 21  1  0
  9 22  1  0
  9 23  1  0
M  END
