
     RDKit          3D

 17 18  0  0  0  0  0  0  0  0999 V2000
   -1.0149   -1.6785    0.4700 C   0  0  0  0  0  0  0  0  0  0  0  0
   -0.3030   -0.5803   -0.2518 C   0  0  0  0  0  0  0  0  0  0  0  0
    0.8425   -0.9511   -1.0308 O   0  0  0  0  0  0  0  0  0  0  0  0
    1.9528   -0.2478   -0.5949 C   0  0  0  0  0  0  0  0  0  0  0  0
    3.1671   -0.5814   -0.6579 O   0  0  0  0  0  0  0  0  0  0  0  0
    1.4740    1.0133   -0.0171 C   0  0  0  0  0  0  0  0  0  0  0  0
    0.0827    0.6620    0.4447 C   0  0  0  0  0  0  0  0  0  0  0  0
   -0.9541    0.6672   -0.6669 C   0  0  0  0  0  0  0  0  0  0  0  0
   -2.2160    1.0332   -0.2391 O   0  0  0  0  0  0  0  0  0  0  0  0
   -1.2744   -1.4303    1.5241 H   0  0  0  0  0  0  0  0  0  0  0  0
   -0.3060   -2.5481    0.5414 H   0  0  0  0  0  0  0  0  0  0  0  0
   -1.8938   -2.0752   -0.0878 H   0  0  0  0  0  0  0  0  0  0  0  0
    1.4748    1.8527   -0.7450 H   0  0  0  0  0  0  0  0  0  0  0  0
    2.0573    1.3616    0.8543 H   0  0  0  0  0  0  0  0  0  0  0  0
   -0.2277    0.8096    1.4795 H   0  0  0  0  0  0  0  0  0  0  0  0
   -0.6689    1.1208   -1.6385 H   0  0  0  0  0  0  0  0  0  0  0  0
   -2.1923    1.5723    0.6155 H   0  0  0  0  0  0  0  0  0  0  0  0
  1  2  1  0
  2  3  1  0
  3  4  1  0
  4  5  2  0
  4  6  1  0
  6  7  1  0
  7  8  1  0
  8  9  1  0
  7  2  1  0
  8  2  1  0
  1 10  1  0
  1 11  1  0
  1 12  1  0
  6 13  1  0
  6 14  1  0
  7 15  1  0
  8 16  1  0
  9 17  1  0
M  END
