
     RDKit          3D

 17 18  0  0  0  0  0  0  0  0999 V2000
   -0.9712   -1.2151   -0.6831 C   0  0  0  0  0  0  0  0  0  0  0  0
   -0.3307   -0.0550   -0.0403 C   0  0  0  0  0  0  0  0  0  0  0  0
    0.0992   -0.2612    1.4121 C   0  0  0  0  0  0  0  0  0  0  0  0
    1.5140   -0.3005    1.3894 O   0  0  0  0  0  0  0  0  0  0  0  0
    2.0076    0.0676    0.1570 C   0  0  0  0  0  0  0  0  0  0  0  0
    3.2492   -0.0095   -0.1267 O   0  0  0  0  0  0  0  0  0  0  0  0
    0.8867    0.5291   -0.6874 C   0  0  0  0  0  0  0  0  0  0  0  0
    0.4042    1.7919   -0.3933 O   0  0  0  0  0  0  0  0  0  0  0  0
   -0.8909    1.2943   -0.2348 C   0  0  0  0  0  0  0  0  0  0  0  0
   -0.3027   -1.7880   -1.3778 H   0  0  0  0  0  0  0  0  0  0  0  0
   -1.9174   -1.0130   -1.2026 H   0  0  0  0  0  0  0  0  0  0  0  0
   -1.2270   -1.9602    0.1266 H   0  0  0  0  0  0  0  0  0  0  0  0
   -0.3477   -1.2371    1.7171 H   0  0  0  0  0  0  0  0  0  0  0  0
   -0.2863    0.5619    2.0539 H   0  0  0  0  0  0  0  0  0  0  0  0
    1.0168    0.3677   -1.7613 H   0  0  0  0  0  0  0  0  0  0  0  0
   -1.5866    1.4728   -1.0529 H   0  0  0  0  0  0  0  0  0  0  0  0
   -1.3172    1.7542    0.7039 H   0  0  0  0  0  0  0  0  0  0  0  0
  1  2  1  0
  2  3  1  0
  3  4  1  0
  4  5  1  0
  5  6  2  0
  5  7  1  0
  7  8  1  0
  8  9  1  0
  7  2  1  0
  9  2  1  0
  1 10  1  0
  1 11  1  0
  1 12  1  0
  3 13  1  0
  3 14  1  0
  7 15  1  0
  9 16  1  0
  9 17  1  0
M  END
