
     RDKit          3D

 18 20  0  0  0  0  0  0  0  0999 V2000
    1.7975   -1.0226   -0.1125 C   0  0  0  0  0  0  0  0  0  0  0  0
    0.6337   -0.1520    0.1665 C   0  0  0  0  0  0  0  0  0  0  0  0
    0.9230    1.2219    0.6481 C   0  0  0  0  0  0  0  0  0  0  0  0
    0.2355    0.9981   -0.6450 C   0  0  0  0  0  0  0  0  0  0  0  0
   -1.2322    0.6506   -0.5410 C   0  0  0  0  0  0  0  0  0  0  0  0
   -1.7928    0.2377    0.7604 C   0  0  0  0  0  0  0  0  0  0  0  0
   -0.7620   -0.6436    0.2027 C   0  0  0  0  0  0  0  0  0  0  0  0
   -1.1535   -1.8046   -0.4186 O   0  0  0  0  0  0  0  0  0  0  0  0
    2.6080   -0.4430   -0.6263 H   0  0  0  0  0  0  0  0  0  0  0  0
    2.2490   -1.3187    0.8783 H   0  0  0  0  0  0  0  0  0  0  0  0
    1.5991   -1.9422   -0.6589 H   0  0  0  0  0  0  0  0  0  0  0  0
    1.9535    1.6278    0.5652 H   0  0  0  0  0  0  0  0  0  0  0  0
    0.3890    1.5147    1.5619 H   0  0  0  0  0  0  0  0  0  0  0  0
    0.6534    1.2743   -1.6058 H   0  0  0  0  0  0  0  0  0  0  0  0
   -1.7412    0.5167   -1.4922 H   0  0  0  0  0  0  0  0  0  0  0  0
   -1.5700    0.9414    1.6094 H   0  0  0  0  0  0  0  0  0  0  0  0
   -2.8736   -0.0330    0.7452 H   0  0  0  0  0  0  0  0  0  0  0  0
   -1.9165   -1.6233   -1.0374 H   0  0  0  0  0  0  0  0  0  0  0  0
  1  2  1  0
  2  3  1  0
  3  4  1  0
  4  5  1  0
  5  6  1  0
  6  7  1  0
  7  8  1  0
  4  2  1  0
  7  5  1  0
  7  2  1  0
  1  9  1  0
  1 10  1  0
  1 11  1  0
  3 12  1  0
  3 13  1  0
  4 14  1  0
  5 15  1  0
  6 16  1  0
  6 17  1  0
  8 18  1  0
M  END
