
     RDKit          3D

 19 20  0  0  0  0  0  0  0  0999 V2000
   -2.0261   -0.1169   -0.9023 C   0  0  0  0  0  0  0  0  0  0  0  0
   -0.7212    0.0152   -0.1771 C   0  0  0  0  0  0  0  0  0  0  0  0
    0.2690    0.9483   -0.8563 C   0  0  0  0  0  0  0  0  0  0  0  0
    1.4821    0.9773    0.0328 C   0  0  0  0  0  0  0  0  0  0  0  0
    1.9691    1.9973    0.4281 O   0  0  0  0  0  0  0  0  0  0  0  0
    2.0472   -0.3612    0.3954 C   0  0  0  0  0  0  0  0  0  0  0  0
    1.2060   -1.3962    0.1223 O   0  0  0  0  0  0  0  0  0  0  0  0
   -0.1191   -1.1799    0.4218 C   0  0  0  0  0  0  0  0  0  0  0  0
   -0.6102   -0.1198    1.2876 C   0  0  0  0  0  0  0  0  0  0  0  0
   -1.8807    0.0964   -1.9718 H   0  0  0  0  0  0  0  0  0  0  0  0
   -2.7657    0.5674   -0.4513 H   0  0  0  0  0  0  0  0  0  0  0  0
   -2.3910   -1.1590   -0.7767 H   0  0  0  0  0  0  0  0  0  0  0  0
    0.6084    0.4957   -1.8112 H   0  0  0  0  0  0  0  0  0  0  0  0
   -0.1718    1.9403   -0.9881 H   0  0  0  0  0  0  0  0  0  0  0  0
    2.9554   -0.4815   -0.2661 H   0  0  0  0  0  0  0  0  0  0  0  0
    2.3887   -0.2976    1.4513 H   0  0  0  0  0  0  0  0  0  0  0  0
   -0.7373   -2.1187    0.3538 H   0  0  0  0  0  0  0  0  0  0  0  0
   -1.5837   -0.2981    1.8234 H   0  0  0  0  0  0  0  0  0  0  0  0
    0.0809    0.4910    1.8844 H   0  0  0  0  0  0  0  0  0  0  0  0
  1  2  1  0
  2  3  1  0
  3  4  1  0
  4  5  2  0
  4  6  1  0
  6  7  1  0
  7  8  1  0
  8  9  1  0
  8  2  1  0
  9  2  1  0
  1 10  1  0
  1 11  1  0
  1 12  1  0
  3 13  1  0
  3 14  1  0
  6 15  1  0
  6 16  1  0
  8 17  1  0
  9 18  1  0
  9 19  1  0
M  END
