
     RDKit          3D

 18 19  0  0  0  0  0  0  0  0999 V2000
    0.1826   -0.0132    1.6446 C   0  0  0  0  0  0  0  0  0  0  0  0
    0.4571    0.2565    0.1434 C   0  0  0  0  0  0  0  0  0  0  0  0
   -0.6951    1.0093   -0.4069 C   0  0  0  0  0  0  0  0  0  0  0  0
   -1.7402   -0.1189   -0.2589 C   0  0  0  0  0  0  0  0  0  0  0  0
   -0.9772   -1.3110   -0.1353 O   0  0  0  0  0  0  0  0  0  0  0  0
    0.1578   -0.9863   -0.7963 C   0  0  0  0  0  0  0  0  0  0  0  0
    1.4492   -0.5563   -0.4229 C   0  0  0  0  0  0  0  0  0  0  0  0
    2.3063    0.0355   -1.3806 O   0  0  0  0  0  0  0  0  0  0  0  0
   -0.2963    0.8362    2.1228 H   0  0  0  0  0  0  0  0  0  0  0  0
    1.2159   -0.0887    2.0930 H   0  0  0  0  0  0  0  0  0  0  0  0
   -0.3206   -0.9815    1.7721 H   0  0  0  0  0  0  0  0  0  0  0  0
   -0.9357    1.8627    0.2239 H   0  0  0  0  0  0  0  0  0  0  0  0
   -0.6405    1.2179   -1.4850 H   0  0  0  0  0  0  0  0  0  0  0  0
   -2.4049   -0.1521   -1.1210 H   0  0  0  0  0  0  0  0  0  0  0  0
   -2.2821    0.0535    0.6947 H   0  0  0  0  0  0  0  0  0  0  0  0
   -0.1140   -0.7388   -1.8690 H   0  0  0  0  0  0  0  0  0  0  0  0
    2.0597   -1.2396    0.2251 H   0  0  0  0  0  0  0  0  0  0  0  0
    2.5779    0.9150   -1.0439 H   0  0  0  0  0  0  0  0  0  0  0  0
  1  2  1  0
  2  3  1  0
  3  4  1  0
  4  5  1  0
  5  6  1  0
  6  7  1  0
  7  8  1  0
  6  2  1  0
  7  2  1  0
  1  9  1  0
  1 10  1  0
  1 11  1  0
  3 12  1  0
  3 13  1  0
  4 14  1  0
  4 15  1  0
  6 16  1  0
  7 17  1  0
  8 18  1  0
M  END
