
     RDKit          3D

 20 21  0  0  0  0  0  0  0  0999 V2000
   -1.8628    0.5400   -0.9507 C   0  0  0  0  0  0  0  0  0  0  0  0
   -0.7845   -0.0473   -0.0986 C   0  0  0  0  0  0  0  0  0  0  0  0
    0.0239    0.8748    0.7628 C   0  0  0  0  0  0  0  0  0  0  0  0
    1.4461    1.0315    0.3205 C   0  0  0  0  0  0  0  0  0  0  0  0
    2.0857   -0.2747   -0.0518 C   0  0  0  0  0  0  0  0  0  0  0  0
    1.2407   -1.3471    0.0286 O   0  0  0  0  0  0  0  0  0  0  0  0
    0.0127   -1.1954   -0.5266 C   0  0  0  0  0  0  0  0  0  0  0  0
   -1.1480   -1.4207    0.4664 C   0  0  0  0  0  0  0  0  0  0  0  0
   -2.1515   -0.1378   -1.7926 H   0  0  0  0  0  0  0  0  0  0  0  0
   -1.6772    1.5621   -1.2906 H   0  0  0  0  0  0  0  0  0  0  0  0
   -2.7920    0.5926   -0.3097 H   0  0  0  0  0  0  0  0  0  0  0  0
   -0.4473    1.8939    0.7238 H   0  0  0  0  0  0  0  0  0  0  0  0
    0.0153    0.5212    1.7966 H   0  0  0  0  0  0  0  0  0  0  0  0
    1.5940    1.7341   -0.5082 H   0  0  0  0  0  0  0  0  0  0  0  0
    2.0105    1.4591    1.1923 H   0  0  0  0  0  0  0  0  0  0  0  0
    2.5309   -0.2366   -1.0771 H   0  0  0  0  0  0  0  0  0  0  0  0
    2.9662   -0.5014    0.6199 H   0  0  0  0  0  0  0  0  0  0  0  0
   -0.1383   -1.5695   -1.5598 H   0  0  0  0  0  0  0  0  0  0  0  0
   -2.0205   -1.9485    0.0567 H   0  0  0  0  0  0  0  0  0  0  0  0
   -0.9039   -1.5303    1.5288 H   0  0  0  0  0  0  0  0  0  0  0  0
  1  2  1  0
  2  3  1  0
  3  4  1  0
  4  5  1  0
  5  6  1  0
  6  7  1  0
  7  8  1  0
  7  2  1  0
  8  2  1  0
  1  9  1  0
  1 10  1  0
  1 11  1  0
  3 12  1  0
  3 13  1  0
  4 14  1  0
  4 15  1  0
  5 16  1  0
  5 17  1  0
  7 18  1  0
  8 19  1  0
  8 20  1  0
M  END
