
     RDKit          3D

 21 22  0  0  0  0  0  0  0  0999 V2000
    2.2425   -0.4708   -0.3943 C   0  0  0  0  0  0  0  0  0  0  0  0
    0.8094   -0.0938   -0.0260 C   0  0  0  0  0  0  0  0  0  0  0  0
   -0.1824   -1.1644   -0.2567 C   0  0  0  0  0  0  0  0  0  0  0  0
   -1.6122   -0.8115   -0.2712 C   0  0  0  0  0  0  0  0  0  0  0  0
   -2.2102   -1.2149    0.9231 O   0  0  0  0  0  0  0  0  0  0  0  0
   -1.8995    0.6284   -0.4651 C   0  0  0  0  0  0  0  0  0  0  0  0
   -0.9939    1.5753   -0.4480 C   0  0  0  0  0  0  0  0  0  0  0  0
    0.4158    1.2864   -0.2306 C   0  0  0  0  0  0  0  0  0  0  0  0
    0.7379    0.8096    1.1660 C   0  0  0  0  0  0  0  0  0  0  0  0
    2.6752   -0.9093    0.5299 H   0  0  0  0  0  0  0  0  0  0  0  0
    2.2754   -1.1925   -1.2345 H   0  0  0  0  0  0  0  0  0  0  0  0
    2.8366    0.4539   -0.6124 H   0  0  0  0  0  0  0  0  0  0  0  0
    0.0357   -1.9856    0.4897 H   0  0  0  0  0  0  0  0  0  0  0  0
    0.0667   -1.6465   -1.2489 H   0  0  0  0  0  0  0  0  0  0  0  0
   -2.1844   -1.3454   -1.0873 H   0  0  0  0  0  0  0  0  0  0  0  0
   -1.5138   -1.2785    1.6529 H   0  0  0  0  0  0  0  0  0  0  0  0
   -2.9350    0.9021   -0.6314 H   0  0  0  0  0  0  0  0  0  0  0  0
   -1.3058    2.5909   -0.5992 H   0  0  0  0  0  0  0  0  0  0  0  0
    1.1325    1.9507   -0.7554 H   0  0  0  0  0  0  0  0  0  0  0  0
   -0.0585    0.6704    1.9058 H   0  0  0  0  0  0  0  0  0  0  0  0
    1.6681    1.2457    1.5939 H   0  0  0  0  0  0  0  0  0  0  0  0
  1  2  1  0
  2  3  1  0
  3  4  1  0
  4  5  1  0
  4  6  1  0
  6  7  2  0
  7  8  1  0
  8  9  1  0
  8  2  1  0
  9  2  1  0
  1 10  1  0
  1 11  1  0
  1 12  1  0
  3 13  1  0
  3 14  1  0
  4 15  1  0
  5 16  1  0
  6 17  1  0
  7 18  1  0
  8 19  1  0
  9 20  1  0
  9 21  1  0
M  END
