
     RDKit          3D

 15 16  0  0  0  0  0  0  0  0999 V2000
    1.9625    0.0275   -0.3308 C   0  0  0  0  0  0  0  0  0  0  0  0
    0.5058    0.1668    0.1070 C   0  0  0  0  0  0  0  0  0  0  0  0
   -0.2766   -1.1125    0.3068 C   0  0  0  0  0  0  0  0  0  0  0  0
   -1.6700   -0.6411    0.4874 C   0  0  0  0  0  0  0  0  0  0  0  0
   -2.6232   -1.2191    1.1174 O   0  0  0  0  0  0  0  0  0  0  0  0
   -1.7452    0.6380   -0.2080 C   0  0  0  0  0  0  0  0  0  0  0  0
   -2.7716    1.2436   -0.6010 O   0  0  0  0  0  0  0  0  0  0  0  0
   -0.3569    1.1336   -0.3862 C   0  0  0  0  0  0  0  0  0  0  0  0
    0.2632    1.1918    0.9861 O   0  0  0  0  0  0  0  0  0  0  0  0
    1.9824   -0.1225   -1.4348 H   0  0  0  0  0  0  0  0  0  0  0  0
    2.5425    0.9033   -0.0189 H   0  0  0  0  0  0  0  0  0  0  0  0
    2.4254   -0.8504    0.2077 H   0  0  0  0  0  0  0  0  0  0  0  0
   -0.1685   -1.7792   -0.5734 H   0  0  0  0  0  0  0  0  0  0  0  0
    0.0969   -1.6736    1.2004 H   0  0  0  0  0  0  0  0  0  0  0  0
   -0.1669    2.0938   -0.8596 H   0  0  0  0  0  0  0  0  0  0  0  0
  1  2  1  0
  2  3  1  0
  3  4  1  0
  4  5  2  0
  4  6  1  0
  6  7  2  0
  6  8  1  0
  8  9  1  0
  8  2  1  0
  9  2  1  0
  1 10  1  0
  1 11  1  0
  1 12  1  0
  3 13  1  0
  3 14  1  0
  8 15  1  0
M  END
