
     RDKit          3D

 19 21  0  0  0  0  0  0  0  0999 V2000
    0.6206    1.5414    0.7317 C   0  0  0  0  0  0  0  0  0  0  0  0
    0.3558    0.0278    0.5590 C   0  0  0  0  0  0  0  0  0  0  0  0
    1.6068   -0.6734    0.3921 C   0  0  0  0  0  0  0  0  0  0  0  0
    2.8736   -0.0451    0.4824 O   0  0  0  0  0  0  0  0  0  0  0  0
    0.8736   -0.5755   -0.8116 C   0  0  0  0  0  0  0  0  0  0  0  0
    0.0700    0.4900   -1.2817 O   0  0  0  0  0  0  0  0  0  0  0  0
   -0.8252   -0.0408   -0.3736 C   0  0  0  0  0  0  0  0  0  0  0  0
   -2.1587    0.3579   -0.1050 C   0  0  0  0  0  0  0  0  0  0  0  0
   -1.7499   -1.0903   -0.5364 C   0  0  0  0  0  0  0  0  0  0  0  0
    1.3177    1.7022    1.5861 H   0  0  0  0  0  0  0  0  0  0  0  0
   -0.2989    2.0830    0.9688 H   0  0  0  0  0  0  0  0  0  0  0  0
    1.0191    1.9176   -0.2165 H   0  0  0  0  0  0  0  0  0  0  0  0
    1.6661   -1.6671    0.9309 H   0  0  0  0  0  0  0  0  0  0  0  0
    3.5799   -0.5972    0.1288 H   0  0  0  0  0  0  0  0  0  0  0  0
    0.3162   -1.5168   -1.1250 H   0  0  0  0  0  0  0  0  0  0  0  0
   -2.5240    0.3876    0.9470 H   0  0  0  0  0  0  0  0  0  0  0  0
   -2.7558    0.9333   -0.8321 H   0  0  0  0  0  0  0  0  0  0  0  0
   -2.1154   -1.3498   -1.5709 H   0  0  0  0  0  0  0  0  0  0  0  0
   -1.8717   -1.8849    0.1892 H   0  0  0  0  0  0  0  0  0  0  0  0
  1  2  1  0
  2  3  1  0
  3  4  1  0
  3  5  1  0
  5  6  1  0
  6  7  1  0
  7  8  1  0
  8  9  1  0
  5  2  1  0
  9  7  1  0
  7  2  1  0
  1 10  1  0
  1 11  1  0
  1 12  1  0
  3 13  1  0
  4 14  1  0
  5 15  1  0
  8 16  1  0
  8 17  1  0
  9 18  1  0
  9 19  1  0
M  END
