
     RDKit          3D

 17 18  0  0  0  0  0  0  0  0999 V2000
    2.0311    0.1099    0.4853 C   0  0  0  0  0  0  0  0  0  0  0  0
    0.5618    0.0065    0.2928 C   0  0  0  0  0  0  0  0  0  0  0  0
   -0.1467    1.3058    0.2551 C   0  0  0  0  0  0  0  0  0  0  0  0
   -1.4437    1.2824    0.0069 C   0  0  0  0  0  0  0  0  0  0  0  0
   -1.9903   -0.0872   -0.1542 C   0  0  0  0  0  0  0  0  0  0  0  0
   -3.1782   -0.3033   -0.4370 O   0  0  0  0  0  0  0  0  0  0  0  0
   -0.9627   -1.1626    0.0597 C   0  0  0  0  0  0  0  0  0  0  0  0
    0.1822   -0.8925   -0.8565 C   0  0  0  0  0  0  0  0  0  0  0  0
   -0.1250   -0.8514    1.1392 O   0  0  0  0  0  0  0  0  0  0  0  0
    2.5381   -0.7910    0.0636 H   0  0  0  0  0  0  0  0  0  0  0  0
    2.3886    0.9928   -0.1053 H   0  0  0  0  0  0  0  0  0  0  0  0
    2.3189    0.3009    1.5362 H   0  0  0  0  0  0  0  0  0  0  0  0
    0.4284    2.1938    0.4307 H   0  0  0  0  0  0  0  0  0  0  0  0
   -2.0876    2.1349   -0.0805 H   0  0  0  0  0  0  0  0  0  0  0  0
   -1.3576   -2.1804    0.0944 H   0  0  0  0  0  0  0  0  0  0  0  0
   -0.0478   -0.3332   -1.7832 H   0  0  0  0  0  0  0  0  0  0  0  0
    0.8904   -1.7254   -0.9472 H   0  0  0  0  0  0  0  0  0  0  0  0
  1  2  1  0
  2  3  1  0
  3  4  2  0
  4  5  1  0
  5  6  2  0
  5  7  1  0
  7  8  1  0
  7  9  1  0
  8  2  1  0
  9  2  1  0
  1 10  1  0
  1 11  1  0
  1 12  1  0
  3 13  1  0
  4 14  1  0
  7 15  1  0
  8 16  1  0
  8 17  1  0
M  END
