
     RDKit          3D

 23 25  0  0  0  0  0  0  0  0999 V2000
   -0.7368   -1.1363    1.4589 C   0  0  0  0  0  0  0  0  0  0  0  0
   -0.4363   -0.5883    0.1356 C   0  0  0  0  0  0  0  0  0  0  0  0
   -1.6397   -0.2744   -0.7263 C   0  0  0  0  0  0  0  0  0  0  0  0
   -1.1051    1.1300   -0.9070 C   0  0  0  0  0  0  0  0  0  0  0  0
    0.1008    0.7390   -0.0741 C   0  0  0  0  0  0  0  0  0  0  0  0
    0.4797    1.6339    1.0212 C   0  0  0  0  0  0  0  0  0  0  0  0
    1.1867    0.1855   -0.9539 C   0  0  0  0  0  0  0  0  0  0  0  0
    2.1001   -0.8543   -0.3938 C   0  0  0  0  0  0  0  0  0  0  0  0
    0.6829   -1.2125   -0.6286 C   0  0  0  0  0  0  0  0  0  0  0  0
   -1.8325   -1.3590    1.5797 H   0  0  0  0  0  0  0  0  0  0  0  0
   -0.4281   -0.5665    2.3304 H   0  0  0  0  0  0  0  0  0  0  0  0
   -0.2449   -2.1491    1.5514 H   0  0  0  0  0  0  0  0  0  0  0  0
   -1.6558   -0.8805   -1.6653 H   0  0  0  0  0  0  0  0  0  0  0  0
   -2.6146   -0.3556   -0.2213 H   0  0  0  0  0  0  0  0  0  0  0  0
   -1.7621    1.8916   -0.4647 H   0  0  0  0  0  0  0  0  0  0  0  0
   -0.8116    1.3675   -1.9469 H   0  0  0  0  0  0  0  0  0  0  0  0
   -0.2313    2.5078    1.0373 H   0  0  0  0  0  0  0  0  0  0  0  0
    0.4949    1.2276    2.0279 H   0  0  0  0  0  0  0  0  0  0  0  0
    1.4783    2.0973    0.7932 H   0  0  0  0  0  0  0  0  0  0  0  0
    1.2511    0.4999   -2.0115 H   0  0  0  0  0  0  0  0  0  0  0  0
    2.5174   -0.7160    0.6176 H   0  0  0  0  0  0  0  0  0  0  0  0
    2.8175   -1.3116   -1.1077 H   0  0  0  0  0  0  0  0  0  0  0  0
    0.3894   -1.8762   -1.4520 H   0  0  0  0  0  0  0  0  0  0  0  0
  1  2  1  0
  2  3  1  0
  3  4  1  0
  4  5  1  0
  5  6  1  0
  5  7  1  0
  7  8  1  0
  8  9  1  0
  5  2  1  0
  9  7  1  0
  9  2  1  0
  1 10  1  0
  1 11  1  0
  1 12  1  0
  3 13  1  0
  3 14  1  0
  4 15  1  0
  4 16  1  0
  6 17  1  0
  6 18  1  0
  6 19  1  0
  7 20  1  0
  8 21  1  0
  8 22  1  0
  9 23  1  0
M  END
