
     RDKit          3D

 19 21  0  0  0  0  0  0  0  0999 V2000
    1.7269   -0.8609    0.0277 C   0  0  0  0  0  0  0  0  0  0  0  0
    0.4974   -0.1034   -0.0388 C   0  0  0  0  0  0  0  0  0  0  0  0
    0.5412    1.3541   -0.4780 C   0  0  0  0  0  0  0  0  0  0  0  0
   -0.9814    1.5442   -0.3109 C   0  0  0  0  0  0  0  0  0  0  0  0
   -1.1359    1.1780    1.0142 O   0  0  0  0  0  0  0  0  0  0  0  0
   -0.4144   -0.0158    1.1497 C   0  0  0  0  0  0  0  0  0  0  0  0
   -1.2419   -1.1359    0.5003 C   0  0  0  0  0  0  0  0  0  0  0  0
   -0.6767   -0.6081   -0.8198 C   0  0  0  0  0  0  0  0  0  0  0  0
   -1.4157    0.5204   -1.1873 O   0  0  0  0  0  0  0  0  0  0  0  0
    1.5247   -1.9367   -0.1863 H   0  0  0  0  0  0  0  0  0  0  0  0
    2.2158   -0.7307    1.0209 H   0  0  0  0  0  0  0  0  0  0  0  0
    2.4509   -0.5139   -0.7354 H   0  0  0  0  0  0  0  0  0  0  0  0
    0.8282    1.4710   -1.5220 H   0  0  0  0  0  0  0  0  0  0  0  0
    1.0841    1.9943    0.2327 H   0  0  0  0  0  0  0  0  0  0  0  0
   -1.3199    2.5187   -0.5817 H   0  0  0  0  0  0  0  0  0  0  0  0
   -0.0115   -0.2382    2.1259 H   0  0  0  0  0  0  0  0  0  0  0  0
   -2.3176   -0.9904    0.5603 H   0  0  0  0  0  0  0  0  0  0  0  0
   -0.8506   -2.0978    0.8179 H   0  0  0  0  0  0  0  0  0  0  0  0
   -0.5036   -1.3488   -1.5896 H   0  0  0  0  0  0  0  0  0  0  0  0
  1  2  1  0
  2  3  1  0
  3  4  1  0
  4  5  1  0
  5  6  1  0
  6  7  1  0
  7  8  1  0
  8  9  1  0
  6  2  1  0
  8  2  1  0
  9  4  1  0
  1 10  1  0
  1 11  1  0
  1 12  1  0
  3 13  1  0
  3 14  1  0
  4 15  1  0
  6 16  1  0
  7 17  1  0
  7 18  1  0
  8 19  1  0
M  END
