
     RDKit          3D

 18 19  0  0  0  0  0  0  0  0999 V2000
   -1.7723   -0.2217    0.3776 C   0  0  0  0  0  0  0  0  0  0  0  0
   -0.4058    0.0014   -0.0237 C   0  0  0  0  0  0  0  0  0  0  0  0
    0.0515    1.4214   -0.2379 C   0  0  0  0  0  0  0  0  0  0  0  0
    1.4369    1.2951   -0.3346 O   0  0  0  0  0  0  0  0  0  0  0  0
    1.8007    0.0360    0.0617 C   0  0  0  0  0  0  0  0  0  0  0  0
    0.6672   -0.3858    1.0165 C   0  0  0  0  0  0  0  0  0  0  0  0
    1.5214   -0.8325   -1.0190 O   0  0  0  0  0  0  0  0  0  0  0  0
    0.1304   -0.8088   -1.1843 C   0  0  0  0  0  0  0  0  0  0  0  0
   -2.3924    0.7023    0.2762 H   0  0  0  0  0  0  0  0  0  0  0  0
   -1.9244   -0.6596    1.4041 H   0  0  0  0  0  0  0  0  0  0  0  0
   -2.2654   -0.9668   -0.3130 H   0  0  0  0  0  0  0  0  0  0  0  0
   -0.4126    1.9269   -1.0778 H   0  0  0  0  0  0  0  0  0  0  0  0
   -0.1283    1.9559    0.7404 H   0  0  0  0  0  0  0  0  0  0  0  0
    2.7753   -0.0968    0.4715 H   0  0  0  0  0  0  0  0  0  0  0  0
    0.6165    0.2599    1.8919 H   0  0  0  0  0  0  0  0  0  0  0  0
    0.6625   -1.4555    1.1978 H   0  0  0  0  0  0  0  0  0  0  0  0
   -0.0587   -0.3438   -2.1629 H   0  0  0  0  0  0  0  0  0  0  0  0
   -0.3028   -1.8276   -1.0846 H   0  0  0  0  0  0  0  0  0  0  0  0
  1  2  1  0
  2  3  1  0
  3  4  1  0
  4  5  1  0
  5  6  1  0
  5  7  1  0
  7  8  1  0
  6  2  1  0
  8  2  1  0
  1  9  1  0
  1 10  1  0
  1 11  1  0
  3 12  1  0
  3 13  1  0
  5 14  1  0
  6 15  1  0
  6 16  1  0
  8 17  1  0
  8 18  1  0
M  END
