
     RDKit          3D

 21 22  0  0  0  0  0  0  0  0999 V2000
    2.4243   -0.5967    0.1838 C   0  0  0  0  0  0  0  0  0  0  0  0
    1.0648    0.0169    0.2606 C   0  0  0  0  0  0  0  0  0  0  0  0
    0.9305    1.4694    0.0174 C   0  0  0  0  0  0  0  0  0  0  0  0
    0.3386    0.5000   -0.9350 C   0  0  0  0  0  0  0  0  0  0  0  0
   -0.9206   -0.2188   -0.4984 C   0  0  0  0  0  0  0  0  0  0  0  0
   -1.3813   -1.0720   -1.4734 O   0  0  0  0  0  0  0  0  0  0  0  0
   -2.0070    0.6585    0.0543 C   0  0  0  0  0  0  0  0  0  0  0  0
   -2.9829   -0.1728    0.6035 O   0  0  0  0  0  0  0  0  0  0  0  0
   -0.1002   -0.8473    0.6042 C   0  0  0  0  0  0  0  0  0  0  0  0
    2.3159   -1.6939    0.3604 H   0  0  0  0  0  0  0  0  0  0  0  0
    2.9763   -0.3769   -0.7420 H   0  0  0  0  0  0  0  0  0  0  0  0
    2.9969   -0.2271    1.0845 H   0  0  0  0  0  0  0  0  0  0  0  0
    1.8491    1.9767   -0.3399 H   0  0  0  0  0  0  0  0  0  0  0  0
    0.3123    2.1001    0.6673 H   0  0  0  0  0  0  0  0  0  0  0  0
    0.7470    0.2916   -1.9197 H   0  0  0  0  0  0  0  0  0  0  0  0
   -0.7960   -1.8537   -1.5790 H   0  0  0  0  0  0  0  0  0  0  0  0
   -1.5731    1.2363    0.9051 H   0  0  0  0  0  0  0  0  0  0  0  0
   -2.4892    1.2843   -0.6996 H   0  0  0  0  0  0  0  0  0  0  0  0
   -3.3060    0.1602    1.4687 H   0  0  0  0  0  0  0  0  0  0  0  0
   -0.5389   -0.7170    1.6129 H   0  0  0  0  0  0  0  0  0  0  0  0
    0.1396   -1.9177    0.3642 H   0  0  0  0  0  0  0  0  0  0  0  0
  1  2  1  0
  2  3  1  0
  3  4  1  0
  4  5  1  0
  5  6  1  0
  5  7  1  0
  7  8  1  0
  5  9  1  0
  4  2  1  0
  9  2  1  0
  1 10  1  0
  1 11  1  0
  1 12  1  0
  3 13  1  0
  3 14  1  0
  4 15  1  0
  6 16  1  0
  7 17  1  0
  7 18  1  0
  8 19  1  0
  9 20  1  0
  9 21  1  0
M  END
