
     RDKit          3D

 23 24  0  0  0  0  0  0  0  0999 V2000
    1.3763    1.8667    0.2504 C   0  0  0  0  0  0  0  0  0  0  0  0
    0.3493    0.7681    0.3047 C   0  0  0  0  0  0  0  0  0  0  0  0
   -1.0624    1.2138    0.1456 C   0  0  0  0  0  0  0  0  0  0  0  0
   -1.9025    0.2798   -0.6919 C   0  0  0  0  0  0  0  0  0  0  0  0
   -1.7772   -1.1031   -0.0394 C   0  0  0  0  0  0  0  0  0  0  0  0
   -0.3655   -1.5510   -0.2789 C   0  0  0  0  0  0  0  0  0  0  0  0
    0.6622   -0.5549    0.2168 C   0  0  0  0  0  0  0  0  0  0  0  0
    2.0636   -1.0879    0.0836 C   0  0  0  0  0  0  0  0  0  0  0  0
    0.4355   -0.0548    1.5579 O   0  0  0  0  0  0  0  0  0  0  0  0
    0.9123    2.8512   -0.0473 H   0  0  0  0  0  0  0  0  0  0  0  0
    2.1482    1.6849   -0.5503 H   0  0  0  0  0  0  0  0  0  0  0  0
    1.8562    2.0614    1.2267 H   0  0  0  0  0  0  0  0  0  0  0  0
   -1.5750    1.3927    1.1262 H   0  0  0  0  0  0  0  0  0  0  0  0
   -1.1154    2.2167   -0.3735 H   0  0  0  0  0  0  0  0  0  0  0  0
   -1.4398    0.2021   -1.6954 H   0  0  0  0  0  0  0  0  0  0  0  0
   -2.9350    0.6221   -0.7025 H   0  0  0  0  0  0  0  0  0  0  0  0
   -2.4586   -1.7830   -0.5451 H   0  0  0  0  0  0  0  0  0  0  0  0
   -1.9242   -1.0070    1.0493 H   0  0  0  0  0  0  0  0  0  0  0  0
   -0.2279   -2.5349    0.2095 H   0  0  0  0  0  0  0  0  0  0  0  0
   -0.2080   -1.6170   -1.3861 H   0  0  0  0  0  0  0  0  0  0  0  0
    2.1874   -1.8579    0.8988 H   0  0  0  0  0  0  0  0  0  0  0  0
    2.8398   -0.3287    0.1068 H   0  0  0  0  0  0  0  0  0  0  0  0
    2.1607   -1.6793   -0.8659 H   0  0  0  0  0  0  0  0  0  0  0  0
  1  2  1  0
  2  3  1  0
  3  4  1  0
  4  5  1  0
  5  6  1  0
  6  7  1  0
  7  8  1  0
  7  9  1  0
  7  2  1  0
  9  2  1  0
  1 10  1  0
  1 11  1  0
  1 12  1  0
  3 13  1  0
  3 14  1  0
  4 15  1  0
  4 16  1  0
  5 17  1  0
  5 18  1  0
  6 19  1  0
  6 20  1  0
  8 21  1  0
  8 22  1  0
  8 23  1  0
M  END
