
     RDKit          3D

 21 24  0  0  0  0  0  0  0  0999 V2000
   -0.5053   -2.0396    0.6833 C   0  0  0  0  0  0  0  0  0  0  0  0
   -0.0659   -0.7539    0.1286 C   0  0  0  0  0  0  0  0  0  0  0  0
    1.3917   -0.5123   -0.0850 C   0  0  0  0  0  0  0  0  0  0  0  0
    1.5998    0.9965   -0.0950 C   0  0  0  0  0  0  0  0  0  0  0  0
    0.2498    1.6053    0.1293 C   0  0  0  0  0  0  0  0  0  0  0  0
   -0.6751    1.2691   -1.0516 C   0  0  0  0  0  0  0  0  0  0  0  0
   -1.5879    0.6456   -0.0962 C   0  0  0  0  0  0  0  0  0  0  0  0
   -0.4835    0.5075    0.8563 C   0  0  0  0  0  0  0  0  0  0  0  0
   -0.9013   -0.1949   -1.0366 C   0  0  0  0  0  0  0  0  0  0  0  0
   -1.4035   -1.9563    1.3223 H   0  0  0  0  0  0  0  0  0  0  0  0
    0.3471   -2.5008    1.2330 H   0  0  0  0  0  0  0  0  0  0  0  0
   -0.7400   -2.7460   -0.1482 H   0  0  0  0  0  0  0  0  0  0  0  0
    1.9525   -0.9990    0.7259 H   0  0  0  0  0  0  0  0  0  0  0  0
    1.6756   -0.9734   -1.0535 H   0  0  0  0  0  0  0  0  0  0  0  0
    2.3267    1.2717    0.6793 H   0  0  0  0  0  0  0  0  0  0  0  0
    2.0449    1.2512   -1.0737 H   0  0  0  0  0  0  0  0  0  0  0  0
    0.1840    2.6061    0.5136 H   0  0  0  0  0  0  0  0  0  0  0  0
   -0.9639    1.9742   -1.7814 H   0  0  0  0  0  0  0  0  0  0  0  0
   -2.6070    0.8374    0.0751 H   0  0  0  0  0  0  0  0  0  0  0  0
   -0.5844    0.5153    1.9005 H   0  0  0  0  0  0  0  0  0  0  0  0
   -1.2544   -0.8039   -1.8260 H   0  0  0  0  0  0  0  0  0  0  0  0
  1  2  1  0
  2  3  1  0
  3  4  1  0
  4  5  1  0
  5  6  1  0
  6  7  1  0
  7  8  1  0
  7  9  1  0
  8  2  1  0
  9  2  1  0
  8  5  1  0
  9  6  1  0
  1 10  1  0
  1 11  1  0
  1 12  1  0
  3 13  1  0
  3 14  1  0
  4 15  1  0
  4 16  1  0
  5 17  1  0
  6 18  1  0
  7 19  1  0
  8 20  1  0
  9 21  1  0
M  END
