
     RDKit          2D

 21 23  0  0  0  0  0  0  0  0999 V2000
    1.7477    1.2135    0.0000 C   0  0  0  0  0  0  0  0  0  0  0  0
    0.8660    0.0000    0.0000 C   0  0  0  0  0  0  0  0  0  0  0  0
    1.9807   -1.0037    0.0000 C   0  0  0  0  0  0  0  0  0  0  0  0
    1.3706   -2.3740    0.0000 C   0  0  0  0  0  0  0  0  0  0  0  0
   -0.1211   -2.2172    0.0000 C   0  0  0  0  0  0  0  0  0  0  0  0
   -1.3770   -0.4157    0.0000 C   0  0  0  0  0  0  0  0  0  0  0  0
   -0.4330    0.7500    0.0000 C   0  0  0  0  0  0  0  0  0  0  0  0
   -0.4330   -0.7500    0.0000 C   0  0  0  0  0  0  0  0  0  0  0  0
   -1.9248   -0.9068    0.0000 C   0  0  0  0  0  0  0  0  0  0  0  0
    2.6294    2.4271    0.0000 H   0  0  0  0  0  0  0  0  0  0  0  0
    0.5342    2.0952    0.0000 H   0  0  0  0  0  0  0  0  0  0  0  0
    2.6085    0.7364    0.0000 H   0  0  0  0  0  0  0  0  0  0  0  0
    2.6520   -0.2840    0.0000 H   0  0  0  0  0  0  0  0  0  0  0  0
    3.2798   -1.7537    0.0000 H   0  0  0  0  0  0  0  0  0  0  0  0
    2.1206   -3.6731    0.0000 H   0  0  0  0  0  0  0  0  0  0  0  0
   -2.4190    0.6633    0.0000 H   0  0  0  0  0  0  0  0  0  0  0  0
   -2.0137   -0.8954    0.0000 H   0  0  0  0  0  0  0  0  0  0  0  0
   -1.1830    2.0490    0.0000 H   0  0  0  0  0  0  0  0  0  0  0  0
   -3.4166   -1.0636    0.0000 H   0  0  0  0  0  0  0  0  0  0  0  0
   -1.7680   -2.3986    0.0000 H   0  0  0  0  0  0  0  0  0  0  0  0
   -2.2623    0.5548    0.0000 H   0  0  0  0  0  0  0  0  0  0  0  0
  1  2  1  0
  2  3  1  0
  3  4  1  0
  4  5  2  0
  5  6  1  0
  6  7  1  0
  7  8  1  0
  8  9  1  0
  7  2  1  0
  8  2  1  0
  8  5  1  0
  1 10  1  0
  1 11  1  0
  1 12  1  0
  3 13  1  0
  3 14  1  0
  4 15  1  0
  6 16  1  0
  6 17  1  0
  7 18  1  0
  9 19  1  0
  9 20  1  0
  9 21  1  0
M  END
