
     RDKit          3D

 21 23  0  0  0  0  0  0  0  0999 V2000
    2.2957    0.8646   -0.4857 C   0  0  0  0  0  0  0  0  0  0  0  0
    0.9553    0.5111    0.1764 C   0  0  0  0  0  0  0  0  0  0  0  0
    0.9495   -0.4286    1.3381 C   0  0  0  0  0  0  0  0  0  0  0  0
    0.5492   -0.9447    0.0697 C   0  0  0  0  0  0  0  0  0  0  0  0
   -0.7154   -0.9316   -0.6548 C   0  0  0  0  0  0  0  0  0  0  0  0
   -2.0510   -1.2891   -0.3866 C   0  0  0  0  0  0  0  0  0  0  0  0
   -1.6453   -0.1265    0.3135 C   0  0  0  0  0  0  0  0  0  0  0  0
   -1.2866    1.2433   -0.0734 C   0  0  0  0  0  0  0  0  0  0  0  0
    0.0334    1.4500    0.1276 O   0  0  0  0  0  0  0  0  0  0  0  0
    3.1103    0.8915    0.2690 H   0  0  0  0  0  0  0  0  0  0  0  0
    2.2582    1.8759   -0.9389 H   0  0  0  0  0  0  0  0  0  0  0  0
    2.4572    0.1310   -1.2844 H   0  0  0  0  0  0  0  0  0  0  0  0
    1.9985   -0.6784    1.6898 H   0  0  0  0  0  0  0  0  0  0  0  0
    0.3411   -0.2056    2.2340 H   0  0  0  0  0  0  0  0  0  0  0  0
    1.2978   -1.6148   -0.4669 H   0  0  0  0  0  0  0  0  0  0  0  0
   -0.5447   -0.4828   -1.6853 H   0  0  0  0  0  0  0  0  0  0  0  0
   -2.2579   -2.2296    0.1722 H   0  0  0  0  0  0  0  0  0  0  0  0
   -2.8361   -1.1712   -1.1850 H   0  0  0  0  0  0  0  0  0  0  0  0
   -1.4880   -0.2615    1.4054 H   0  0  0  0  0  0  0  0  0  0  0  0
   -1.5208    1.4319   -1.1588 H   0  0  0  0  0  0  0  0  0  0  0  0
   -1.9004    1.9651    0.5240 H   0  0  0  0  0  0  0  0  0  0  0  0
  1  2  1  0
  2  3  1  0
  3  4  1  0
  4  5  1  0
  5  6  1  0
  6  7  1  0
  7  8  1  0
  8  9  1  0
  4  2  1  0
  7  5  1  0
  9  2  1  0
  1 10  1  0
  1 11  1  0
  1 12  1  0
  3 13  1  0
  3 14  1  0
  4 15  1  0
  5 16  1  0
  6 17  1  0
  6 18  1  0
  7 19  1  0
  8 20  1  0
  8 21  1  0
M  END
