
     RDKit          3D

 19 21  0  0  0  0  0  0  0  0999 V2000
    2.1971    0.4832   -0.0576 C   0  0  0  0  0  0  0  0  0  0  0  0
    0.8169    0.0461   -0.1864 C   0  0  0  0  0  0  0  0  0  0  0  0
   -0.1518    0.6618   -1.1334 C   0  0  0  0  0  0  0  0  0  0  0  0
    0.1235    1.3529   -2.0851 O   0  0  0  0  0  0  0  0  0  0  0  0
   -1.4541    0.1932   -0.5792 C   0  0  0  0  0  0  0  0  0  0  0  0
   -1.1564   -1.2744   -0.4389 C   0  0  0  0  0  0  0  0  0  0  0  0
    0.2029   -1.1860    0.2765 C   0  0  0  0  0  0  0  0  0  0  0  0
    0.0374   -0.0341    1.1584 C   0  0  0  0  0  0  0  0  0  0  0  0
   -1.2737    0.6510    0.8608 C   0  0  0  0  0  0  0  0  0  0  0  0
    2.9712   -0.1226   -0.5656 H   0  0  0  0  0  0  0  0  0  0  0  0
    2.3002    1.5205   -0.4844 H   0  0  0  0  0  0  0  0  0  0  0  0
    2.5401    0.5952    1.0095 H   0  0  0  0  0  0  0  0  0  0  0  0
   -2.3312    0.4869   -1.0718 H   0  0  0  0  0  0  0  0  0  0  0  0
   -1.0728   -1.8152   -1.3780 H   0  0  0  0  0  0  0  0  0  0  0  0
   -1.8442   -1.7184    0.2890 H   0  0  0  0  0  0  0  0  0  0  0  0
    0.7057   -2.0947    0.5759 H   0  0  0  0  0  0  0  0  0  0  0  0
    0.5852    0.1516    2.0729 H   0  0  0  0  0  0  0  0  0  0  0  0
   -2.0803    0.3487    1.5176 H   0  0  0  0  0  0  0  0  0  0  0  0
   -1.1159    1.7544    0.8121 H   0  0  0  0  0  0  0  0  0  0  0  0
  1  2  1  0
  2  3  1  0
  3  4  2  0
  3  5  1  0
  5  6  1  0
  6  7  1  0
  7  8  1  0
  8  9  1  0
  7  2  1  0
  8  2  1  0
  9  5  1  0
  1 10  1  0
  1 11  1  0
  1 12  1  0
  5 13  1  0
  6 14  1  0
  6 15  1  0
  7 16  1  0
  8 17  1  0
  9 18  1  0
  9 19  1  0
M  END
