
     RDKit          3D

 19 20  0  0  0  0  0  0  0  0999 V2000
    1.7952   -0.0285   -0.2974 C   0  0  0  0  0  0  0  0  0  0  0  0
    0.4680   -0.1677    0.0013 C   0  0  0  0  0  0  0  0  0  0  0  0
   -0.1699   -1.2295    0.8652 C   0  0  0  0  0  0  0  0  0  0  0  0
   -1.3183   -0.3431    0.4398 C   0  0  0  0  0  0  0  0  0  0  0  0
   -0.6872   -0.3603   -0.9258 C   0  0  0  0  0  0  0  0  0  0  0  0
   -0.7928   -1.5892   -1.5396 O   0  0  0  0  0  0  0  0  0  0  0  0
   -0.4084    0.7932    0.7633 C   0  0  0  0  0  0  0  0  0  0  0  0
   -0.6742    2.0873    0.1581 C   0  0  0  0  0  0  0  0  0  0  0  0
   -0.9558    3.0412    0.9013 O   0  0  0  0  0  0  0  0  0  0  0  0
    2.3308    0.7253    0.3531 H   0  0  0  0  0  0  0  0  0  0  0  0
    2.0114    0.2900   -1.3382 H   0  0  0  0  0  0  0  0  0  0  0  0
    2.4042   -0.9673   -0.1572 H   0  0  0  0  0  0  0  0  0  0  0  0
   -0.1671   -2.2461    0.4662 H   0  0  0  0  0  0  0  0  0  0  0  0
    0.1115   -1.0868    1.9185 H   0  0  0  0  0  0  0  0  0  0  0  0
   -2.2827   -0.4642    0.6680 H   0  0  0  0  0  0  0  0  0  0  0  0
   -0.9425    0.4467   -1.6077 H   0  0  0  0  0  0  0  0  0  0  0  0
    0.0750   -2.0837   -1.5930 H   0  0  0  0  0  0  0  0  0  0  0  0
   -0.1394    0.8462    1.8177 H   0  0  0  0  0  0  0  0  0  0  0  0
   -0.6579    2.3363   -0.8936 H   0  0  0  0  0  0  0  0  0  0  0  0
  1  2  1  0
  2  3  1  0
  3  4  1  0
  4  5  1  0
  5  6  1  0
  4  7  1  0
  7  8  1  0
  8  9  2  0
  5  2  1  0
  7  2  1  0
  1 10  1  0
  1 11  1  0
  1 12  1  0
  3 13  1  0
  3 14  1  0
  4 15  1  0
  5 16  1  0
  6 17  1  0
  7 18  1  0
  8 19  1  0
M  END
