
     RDKit          3D

 20 21  0  0  0  0  0  0  0  0999 V2000
   -2.1732    0.9860   -0.2912 C   0  0  0  0  0  0  0  0  0  0  0  0
   -0.9235    0.2835   -0.0870 C   0  0  0  0  0  0  0  0  0  0  0  0
   -0.9434   -1.0403    0.6720 C   0  0  0  0  0  0  0  0  0  0  0  0
    0.5291   -1.4150    0.4008 C   0  0  0  0  0  0  0  0  0  0  0  0
    0.9304   -0.1189   -0.2577 C   0  0  0  0  0  0  0  0  0  0  0  0
    2.3030    0.0574   -0.7107 C   0  0  0  0  0  0  0  0  0  0  0  0
    0.2546    0.9782    0.5130 C   0  0  0  0  0  0  0  0  0  0  0  0
   -0.1037    0.0293   -1.2114 O   0  0  0  0  0  0  0  0  0  0  0  0
   -2.9173    0.7288    0.4729 H   0  0  0  0  0  0  0  0  0  0  0  0
   -2.6237    0.6870   -1.2786 H   0  0  0  0  0  0  0  0  0  0  0  0
   -1.9997    2.0822   -0.3726 H   0  0  0  0  0  0  0  0  0  0  0  0
   -1.6241   -1.7639    0.2316 H   0  0  0  0  0  0  0  0  0  0  0  0
   -1.0966   -0.8494    1.7426 H   0  0  0  0  0  0  0  0  0  0  0  0
    1.0629   -1.6240    1.3253 H   0  0  0  0  0  0  0  0  0  0  0  0
    0.5395   -2.2206   -0.3369 H   0  0  0  0  0  0  0  0  0  0  0  0
    2.9132    0.5298    0.0921 H   0  0  0  0  0  0  0  0  0  0  0  0
    2.7572   -0.8971   -0.9836 H   0  0  0  0  0  0  0  0  0  0  0  0
    2.3044    0.7231   -1.6232 H   0  0  0  0  0  0  0  0  0  0  0  0
    0.4950    1.9612    0.0884 H   0  0  0  0  0  0  0  0  0  0  0  0
    0.3158    0.8827    1.6142 H   0  0  0  0  0  0  0  0  0  0  0  0
  1  2  1  0
  2  3  1  0
  3  4  1  0
  4  5  1  0
  5  6  1  0
  5  7  1  0
  5  8  1  0
  7  2  1  0
  8  2  1  0
  1  9  1  0
  1 10  1  0
  1 11  1  0
  3 12  1  0
  3 13  1  0
  4 14  1  0
  4 15  1  0
  6 16  1  0
  6 17  1  0
  6 18  1  0
  7 19  1  0
  7 20  1  0
M  END
