
     RDKit          3D

 19 21  0  0  0  0  0  0  0  0999 V2000
    2.0151    0.2889   -0.0203 C   0  0  0  0  0  0  0  0  0  0  0  0
    0.7181   -0.1195    0.0272 C   0  0  0  0  0  0  0  0  0  0  0  0
    0.2263   -1.5597    0.1955 C   0  0  0  0  0  0  0  0  0  0  0  0
   -1.0284   -0.7444    0.1317 C   0  0  0  0  0  0  0  0  0  0  0  0
   -2.2211   -1.1438    0.1850 O   0  0  0  0  0  0  0  0  0  0  0  0
   -0.3750    0.0419   -0.9719 C   0  0  0  0  0  0  0  0  0  0  0  0
   -0.8824    1.4105   -0.7622 C   0  0  0  0  0  0  0  0  0  0  0  0
   -0.8842    1.5345    0.5864 C   0  0  0  0  0  0  0  0  0  0  0  0
   -0.3439    0.2399    1.0310 C   0  0  0  0  0  0  0  0  0  0  0  0
    2.2605    1.2064    0.5942 H   0  0  0  0  0  0  0  0  0  0  0  0
    2.4017    0.5634   -1.0478 H   0  0  0  0  0  0  0  0  0  0  0  0
    2.7772   -0.4665    0.3406 H   0  0  0  0  0  0  0  0  0  0  0  0
    0.4256   -1.9153    1.2085 H   0  0  0  0  0  0  0  0  0  0  0  0
    0.4465   -2.2187   -0.6433 H   0  0  0  0  0  0  0  0  0  0  0  0
   -2.6427   -1.3173   -0.7010 H   0  0  0  0  0  0  0  0  0  0  0  0
   -0.2998   -0.3684   -1.9459 H   0  0  0  0  0  0  0  0  0  0  0  0
   -1.1954    2.1819   -1.4602 H   0  0  0  0  0  0  0  0  0  0  0  0
   -1.1967    2.3601    1.1934 H   0  0  0  0  0  0  0  0  0  0  0  0
   -0.2013    0.0263    2.0588 H   0  0  0  0  0  0  0  0  0  0  0  0
  1  2  1  0
  2  3  1  0
  3  4  1  0
  4  5  1  0
  4  6  1  0
  6  7  1  0
  7  8  2  0
  8  9  1  0
  6  2  1  0
  9  2  1  0
  9  4  1  0
  1 10  1  0
  1 11  1  0
  1 12  1  0
  3 13  1  0
  3 14  1  0
  5 15  1  0
  6 16  1  0
  7 17  1  0
  8 18  1  0
  9 19  1  0
M  END
