
     RDKit          3D

 21 23  0  0  0  0  0  0  0  0999 V2000
    0.0325    1.8542    0.5126 C   0  0  0  0  0  0  0  0  0  0  0  0
   -0.4966    0.4650    0.3723 C   0  0  0  0  0  0  0  0  0  0  0  0
   -1.9683    0.2944    0.3176 C   0  0  0  0  0  0  0  0  0  0  0  0
   -1.2428    0.0988   -0.9339 C   0  0  0  0  0  0  0  0  0  0  0  0
   -0.7609   -1.3348   -1.1936 C   0  0  0  0  0  0  0  0  0  0  0  0
   -0.2945   -1.7584    0.0748 O   0  0  0  0  0  0  0  0  0  0  0  0
    0.4421   -0.6850    0.4626 C   0  0  0  0  0  0  0  0  0  0  0  0
    1.7803   -0.5645   -0.3105 C   0  0  0  0  0  0  0  0  0  0  0  0
    1.6984   -0.6905    1.1727 C   0  0  0  0  0  0  0  0  0  0  0  0
    0.2234    2.0352    1.5930 H   0  0  0  0  0  0  0  0  0  0  0  0
   -0.7492    2.5543    0.1639 H   0  0  0  0  0  0  0  0  0  0  0  0
    0.9232    2.0283   -0.0942 H   0  0  0  0  0  0  0  0  0  0  0  0
   -2.5753    1.1969    0.4221 H   0  0  0  0  0  0  0  0  0  0  0  0
   -2.4632   -0.6110    0.7610 H   0  0  0  0  0  0  0  0  0  0  0  0
   -1.0988    0.8471   -1.7091 H   0  0  0  0  0  0  0  0  0  0  0  0
   -1.6326   -1.9570   -1.4228 H   0  0  0  0  0  0  0  0  0  0  0  0
    0.0450   -1.3680   -1.9383 H   0  0  0  0  0  0  0  0  0  0  0  0
    2.1456   -1.4489   -0.8380 H   0  0  0  0  0  0  0  0  0  0  0  0
    1.9208    0.3987   -0.8086 H   0  0  0  0  0  0  0  0  0  0  0  0
    2.0976   -1.5955    1.6645 H   0  0  0  0  0  0  0  0  0  0  0  0
    1.9733    0.2407    1.7319 H   0  0  0  0  0  0  0  0  0  0  0  0
  1  2  1  0
  2  3  1  0
  3  4  1  0
  4  5  1  0
  5  6  1  0
  6  7  1  0
  7  8  1  0
  8  9  1  0
  4  2  1  0
  9  7  1  0
  7  2  1  0
  1 10  1  0
  1 11  1  0
  1 12  1  0
  3 13  1  0
  3 14  1  0
  4 15  1  0
  5 16  1  0
  5 17  1  0
  8 18  1  0
  8 19  1  0
  9 20  1  0
  9 21  1  0
M  END
