
     RDKit          3D

 19 21  0  0  0  0  0  0  0  0999 V2000
   -1.9680   -1.5297   -0.0625 C   0  0  0  0  0  0  0  0  0  0  0  0
   -0.8616   -0.5500   -0.2048 C   0  0  0  0  0  0  0  0  0  0  0  0
   -1.3109    0.9691   -0.0498 C   0  0  0  0  0  0  0  0  0  0  0  0
    0.0901    1.3294   -0.1030 C   0  0  0  0  0  0  0  0  0  0  0  0
    1.3955    1.5107   -0.1135 C   0  0  0  0  0  0  0  0  0  0  0  0
    2.2955    0.3034    0.2030 C   0  0  0  0  0  0  0  0  0  0  0  0
    1.7888   -0.8807   -0.3318 O   0  0  0  0  0  0  0  0  0  0  0  0
    0.4905   -0.8475   -0.6240 C   0  0  0  0  0  0  0  0  0  0  0  0
    0.0953   -0.0854    0.6371 C   0  0  0  0  0  0  0  0  0  0  0  0
   -1.6663   -2.4771   -0.5805 H   0  0  0  0  0  0  0  0  0  0  0  0
   -2.1248   -1.7300    1.0346 H   0  0  0  0  0  0  0  0  0  0  0  0
   -2.9048   -1.1296   -0.4610 H   0  0  0  0  0  0  0  0  0  0  0  0
   -1.7974    1.1273    0.9255 H   0  0  0  0  0  0  0  0  0  0  0  0
   -1.9560    1.2507   -0.9077 H   0  0  0  0  0  0  0  0  0  0  0  0
    1.8323    2.4812   -0.3465 H   0  0  0  0  0  0  0  0  0  0  0  0
    2.3905    0.2948    1.2948 H   0  0  0  0  0  0  0  0  0  0  0  0
    3.2774    0.5673   -0.2376 H   0  0  0  0  0  0  0  0  0  0  0  0
    0.4898   -0.4344   -1.6705 H   0  0  0  0  0  0  0  0  0  0  0  0
    0.4442   -0.1694    1.5983 H   0  0  0  0  0  0  0  0  0  0  0  0
  1  2  1  0
  2  3  1  0
  3  4  1  0
  4  5  2  0
  5  6  1  0
  6  7  1  0
  7  8  1  0
  8  9  1  0
  8  2  1  0
  9  2  1  0
  9  4  1  0
  1 10  1  0
  1 11  1  0
  1 12  1  0
  3 13  1  0
  3 14  1  0
  5 15  1  0
  6 16  1  0
  6 17  1  0
  8 18  1  0
  9 19  1  0
M  END
