
     RDKit          3D

 21 23  0  0  0  0  0  0  0  0999 V2000
    2.3982    0.4225    0.1726 C   0  0  0  0  0  0  0  0  0  0  0  0
    1.0280   -0.1634    0.2747 C   0  0  0  0  0  0  0  0  0  0  0  0
    0.5760   -0.6136    1.5051 O   0  0  0  0  0  0  0  0  0  0  0  0
   -0.7271   -0.1816    1.1965 C   0  0  0  0  0  0  0  0  0  0  0  0
   -1.5721   -1.2823    0.5427 C   0  0  0  0  0  0  0  0  0  0  0  0
   -0.8348   -1.6316   -0.7250 C   0  0  0  0  0  0  0  0  0  0  0  0
    0.2400   -0.5691   -0.9050 C   0  0  0  0  0  0  0  0  0  0  0  0
   -0.2007    0.5117   -0.0105 C   0  0  0  0  0  0  0  0  0  0  0  0
   -0.4658    1.8854   -0.3761 C   0  0  0  0  0  0  0  0  0  0  0  0
    2.4901    1.3886    0.7284 H   0  0  0  0  0  0  0  0  0  0  0  0
    2.6649    0.6033   -0.8752 H   0  0  0  0  0  0  0  0  0  0  0  0
    3.1011   -0.2758    0.6781 H   0  0  0  0  0  0  0  0  0  0  0  0
   -1.2286    0.3996    1.9613 H   0  0  0  0  0  0  0  0  0  0  0  0
   -1.7428   -2.1272    1.2107 H   0  0  0  0  0  0  0  0  0  0  0  0
   -2.5538   -0.7809    0.3146 H   0  0  0  0  0  0  0  0  0  0  0  0
   -1.5497   -1.4695   -1.5833 H   0  0  0  0  0  0  0  0  0  0  0  0
   -0.4232   -2.6532   -0.7194 H   0  0  0  0  0  0  0  0  0  0  0  0
    0.5984   -0.3229   -1.9120 H   0  0  0  0  0  0  0  0  0  0  0  0
   -1.0428    1.9210   -1.3446 H   0  0  0  0  0  0  0  0  0  0  0  0
   -1.1479    2.3747    0.3650 H   0  0  0  0  0  0  0  0  0  0  0  0
    0.3925    2.5643   -0.4988 H   0  0  0  0  0  0  0  0  0  0  0  0
  1  2  1  0
  2  3  1  0
  3  4  1  0
  4  5  1  0
  5  6  1  0
  6  7  1  0
  7  8  1  0
  8  9  1  0
  7  2  1  0
  8  2  1  0
  8  4  1  0
  1 10  1  0
  1 11  1  0
  1 12  1  0
  4 13  1  0
  5 14  1  0
  5 15  1  0
  6 16  1  0
  6 17  1  0
  7 18  1  0
  9 19  1  0
  9 20  1  0
  9 21  1  0
M  END
