
     RDKit          3D

 19 21  0  0  0  0  0  0  0  0999 V2000
   -1.7070   -0.8725   -0.0686 C   0  0  0  0  0  0  0  0  0  0  0  0
   -0.6870    0.0327    0.0372 C   0  0  0  0  0  0  0  0  0  0  0  0
   -0.7859    1.5146    0.2666 C   0  0  0  0  0  0  0  0  0  0  0  0
    0.6930    1.2529    0.2025 C   0  0  0  0  0  0  0  0  0  0  0  0
    0.3968    0.3370   -0.9459 C   0  0  0  0  0  0  0  0  0  0  0  0
    1.4312   -0.7798   -0.8428 C   0  0  0  0  0  0  0  0  0  0  0  0
    1.4018   -0.9319    0.6347 C   0  0  0  0  0  0  0  0  0  0  0  0
    2.0387   -1.6866    1.3032 O   0  0  0  0  0  0  0  0  0  0  0  0
    0.4176    0.0531    1.0633 C   0  0  0  0  0  0  0  0  0  0  0  0
   -1.5042   -1.8602    0.4414 H   0  0  0  0  0  0  0  0  0  0  0  0
   -2.0021   -1.1550   -1.1034 H   0  0  0  0  0  0  0  0  0  0  0  0
   -2.6719   -0.5306    0.4109 H   0  0  0  0  0  0  0  0  0  0  0  0
   -1.1810    1.7576    1.2553 H   0  0  0  0  0  0  0  0  0  0  0  0
   -1.1352    2.1229   -0.5814 H   0  0  0  0  0  0  0  0  0  0  0  0
    1.4365    1.9140    0.2915 H   0  0  0  0  0  0  0  0  0  0  0  0
    0.1678    0.7325   -1.9081 H   0  0  0  0  0  0  0  0  0  0  0  0
    2.4099   -0.3877   -1.2022 H   0  0  0  0  0  0  0  0  0  0  0  0
    1.1102   -1.6993   -1.3446 H   0  0  0  0  0  0  0  0  0  0  0  0
    0.1707    0.1862    2.0902 H   0  0  0  0  0  0  0  0  0  0  0  0
  1  2  1  0
  2  3  1  0
  3  4  1  0
  4  5  1  0
  5  6  1  0
  6  7  1  0
  7  8  2  0
  7  9  1  0
  5  2  1  0
  9  2  1  0
  9  4  1  0
  1 10  1  0
  1 11  1  0
  1 12  1  0
  3 13  1  0
  3 14  1  0
  4 15  1  0
  5 16  1  0
  6 17  1  0
  6 18  1  0
  9 19  1  0
M  END
