
     RDKit          3D

 17 18  0  0  0  0  0  0  0  0999 V2000
    1.4088    0.7584   -0.7120 C   0  0  0  0  0  0  0  0  0  0  0  0
    0.1348    0.2763   -0.2692 C   0  0  0  0  0  0  0  0  0  0  0  0
   -0.7815    1.1080    0.5601 C   0  0  0  0  0  0  0  0  0  0  0  0
   -1.7909    0.1542    0.8489 O   0  0  0  0  0  0  0  0  0  0  0  0
   -1.3786   -0.9173    0.1116 C   0  0  0  0  0  0  0  0  0  0  0  0
   -0.8331   -0.3684   -1.1906 C   0  0  0  0  0  0  0  0  0  0  0  0
   -1.0826   -0.4390   -2.3653 O   0  0  0  0  0  0  0  0  0  0  0  0
    0.1007   -1.0765    0.4585 C   0  0  0  0  0  0  0  0  0  0  0  0
    0.4162   -1.0439    1.7774 O   0  0  0  0  0  0  0  0  0  0  0  0
    2.2095    0.4716    0.0360 H   0  0  0  0  0  0  0  0  0  0  0  0
    1.7307    0.2482   -1.6563 H   0  0  0  0  0  0  0  0  0  0  0  0
    1.4680    1.8545   -0.7871 H   0  0  0  0  0  0  0  0  0  0  0  0
   -0.3200    1.4929    1.4850 H   0  0  0  0  0  0  0  0  0  0  0  0
   -1.2941    1.8924   -0.0347 H   0  0  0  0  0  0  0  0  0  0  0  0
   -1.9649   -1.8055    0.0464 H   0  0  0  0  0  0  0  0  0  0  0  0
    0.6130   -1.8184   -0.1852 H   0  0  0  0  0  0  0  0  0  0  0  0
    1.3641   -0.7876    1.8764 H   0  0  0  0  0  0  0  0  0  0  0  0
  1  2  1  0
  2  3  1  0
  3  4  1  0
  4  5  1  0
  5  6  1  0
  6  7  2  0
  5  8  1  0
  8  9  1  0
  6  2  1  0
  8  2  1  0
  1 10  1  0
  1 11  1  0
  1 12  1  0
  3 13  1  0
  3 14  1  0
  5 15  1  0
  8 16  1  0
  9 17  1  0
M  END
