
     RDKit          3D

 19 21  0  0  0  0  0  0  0  0999 V2000
   -1.5328    1.4793    0.2916 C   0  0  0  0  0  0  0  0  0  0  0  0
   -0.5969    0.5891   -0.4399 C   0  0  0  0  0  0  0  0  0  0  0  0
   -1.0087   -0.3070   -1.3871 O   0  0  0  0  0  0  0  0  0  0  0  0
   -0.4466   -0.7480   -0.2078 C   0  0  0  0  0  0  0  0  0  0  0  0
   -1.2603   -1.7239    0.5667 C   0  0  0  0  0  0  0  0  0  0  0  0
    1.0422   -0.6280    0.0192 C   0  0  0  0  0  0  0  0  0  0  0  0
    1.8745    0.0234   -1.0310 C   0  0  0  0  0  0  0  0  0  0  0  0
    3.2053    0.2532   -0.6581 O   0  0  0  0  0  0  0  0  0  0  0  0
    0.8760    0.8737   -0.3896 C   0  0  0  0  0  0  0  0  0  0  0  0
   -0.9190    2.1901    0.9061 H   0  0  0  0  0  0  0  0  0  0  0  0
   -2.1203    0.8923    1.0240 H   0  0  0  0  0  0  0  0  0  0  0  0
   -2.2171    2.0613   -0.3549 H   0  0  0  0  0  0  0  0  0  0  0  0
   -1.6139   -2.5132   -0.1606 H   0  0  0  0  0  0  0  0  0  0  0  0
   -0.7152   -2.1966    1.4139 H   0  0  0  0  0  0  0  0  0  0  0  0
   -2.1322   -1.1986    1.0337 H   0  0  0  0  0  0  0  0  0  0  0  0
    1.3989   -0.7748    1.0341 H   0  0  0  0  0  0  0  0  0  0  0  0
    1.7826   -0.4097   -2.0355 H   0  0  0  0  0  0  0  0  0  0  0  0
    3.1870    0.5217    0.2959 H   0  0  0  0  0  0  0  0  0  0  0  0
    1.1966    1.6156    0.3460 H   0  0  0  0  0  0  0  0  0  0  0  0
  1  2  1  0
  2  3  1  0
  3  4  1  0
  4  5  1  0
  4  6  1  0
  6  7  1  0
  7  8  1  0
  7  9  1  0
  4  2  1  0
  9  6  1  0
  9  2  1  0
  1 10  1  0
  1 11  1  0
  1 12  1  0
  5 13  1  0
  5 14  1  0
  5 15  1  0
  6 16  1  0
  7 17  1  0
  8 18  1  0
  9 19  1  0
M  END
