
     RDKit          3D

 17 18  0  0  0  0  0  0  0  0999 V2000
   -1.7590   -1.0929   -0.1664 C   0  0  0  0  0  0  0  0  0  0  0  0
   -0.6296   -0.1894   -0.2097 C   0  0  0  0  0  0  0  0  0  0  0  0
   -0.2282    0.3435   -1.4468 O   0  0  0  0  0  0  0  0  0  0  0  0
    1.0216    0.5445   -0.8136 C   0  0  0  0  0  0  0  0  0  0  0  0
    0.7052    1.6020    0.2511 C   0  0  0  0  0  0  0  0  0  0  0  0
   -0.6128    1.0280    0.6305 C   0  0  0  0  0  0  0  0  0  0  0  0
   -1.4401    1.4113    1.3880 O   0  0  0  0  0  0  0  0  0  0  0  0
    0.7747   -0.7482   -0.1179 C   0  0  0  0  0  0  0  0  0  0  0  0
    1.2793   -0.8823    1.1541 O   0  0  0  0  0  0  0  0  0  0  0  0
   -1.5675   -1.9094    0.5873 H   0  0  0  0  0  0  0  0  0  0  0  0
   -1.9221   -1.5773   -1.1461 H   0  0  0  0  0  0  0  0  0  0  0  0
   -2.6783   -0.5830    0.1362 H   0  0  0  0  0  0  0  0  0  0  0  0
    1.8727    0.6940   -1.4276 H   0  0  0  0  0  0  0  0  0  0  0  0
    0.6350    2.6037   -0.1801 H   0  0  0  0  0  0  0  0  0  0  0  0
    1.4599    1.5032    1.0603 H   0  0  0  0  0  0  0  0  0  0  0  0
    0.8698   -1.6153   -0.7942 H   0  0  0  0  0  0  0  0  0  0  0  0
    2.2195   -1.1325    1.0950 H   0  0  0  0  0  0  0  0  0  0  0  0
  1  2  1  0
  2  3  1  0
  3  4  1  0
  4  5  1  0
  5  6  1  0
  6  7  2  0
  4  8  1  0
  8  9  1  0
  6  2  1  0
  8  2  1  0
  1 10  1  0
  1 11  1  0
  1 12  1  0
  4 13  1  0
  5 14  1  0
  5 15  1  0
  8 16  1  0
  9 17  1  0
M  END
