
     RDKit          3D

 23 24  0  0  0  0  0  0  0  0999 V2000
   -0.3441   -1.4962    1.3339 C   0  0  0  0  0  0  0  0  0  0  0  0
   -0.2279   -0.5976    0.1408 C   0  0  0  0  0  0  0  0  0  0  0  0
   -1.3635   -0.7139   -0.8451 C   0  0  0  0  0  0  0  0  0  0  0  0
   -2.0029    0.6537   -0.8982 C   0  0  0  0  0  0  0  0  0  0  0  0
   -0.9781    1.6373   -0.4337 C   0  0  0  0  0  0  0  0  0  0  0  0
   -0.0439    0.8376    0.4059 C   0  0  0  0  0  0  0  0  0  0  0  0
    1.0175    0.0094   -0.2967 C   0  0  0  0  0  0  0  0  0  0  0  0
    2.3130   -0.1009    0.4147 C   0  0  0  0  0  0  0  0  0  0  0  0
    3.3563    0.5714   -0.2081 O   0  0  0  0  0  0  0  0  0  0  0  0
   -1.4221   -1.4543    1.6684 H   0  0  0  0  0  0  0  0  0  0  0  0
    0.2658   -1.0979    2.1680 H   0  0  0  0  0  0  0  0  0  0  0  0
   -0.1098   -2.5561    1.1207 H   0  0  0  0  0  0  0  0  0  0  0  0
   -1.0380   -1.0640   -1.8454 H   0  0  0  0  0  0  0  0  0  0  0  0
   -2.1581   -1.4172   -0.4949 H   0  0  0  0  0  0  0  0  0  0  0  0
   -2.8804    0.7346   -0.2183 H   0  0  0  0  0  0  0  0  0  0  0  0
   -2.2709    0.9071   -1.9492 H   0  0  0  0  0  0  0  0  0  0  0  0
   -0.3938    2.0841   -1.2668 H   0  0  0  0  0  0  0  0  0  0  0  0
   -1.3990    2.4604    0.1930 H   0  0  0  0  0  0  0  0  0  0  0  0
    0.1341    1.1472    1.4538 H   0  0  0  0  0  0  0  0  0  0  0  0
    1.1186    0.1665   -1.4037 H   0  0  0  0  0  0  0  0  0  0  0  0
    2.5803   -1.1829    0.5821 H   0  0  0  0  0  0  0  0  0  0  0  0
    2.2103    0.3201    1.4338 H   0  0  0  0  0  0  0  0  0  0  0  0
    3.6362    0.1517   -1.0551 H   0  0  0  0  0  0  0  0  0  0  0  0
  1  2  1  0
  2  3  1  0
  3  4  1  0
  4  5  1  0
  5  6  1  0
  6  7  1  0
  7  8  1  0
  8  9  1  0
  6  2  1  0
  7  2  1  0
  1 10  1  0
  1 11  1  0
  1 12  1  0
  3 13  1  0
  3 14  1  0
  4 15  1  0
  4 16  1  0
  5 17  1  0
  5 18  1  0
  6 19  1  0
  7 20  1  0
  8 21  1  0
  8 22  1  0
  9 23  1  0
M  END
