
     RDKit          3D

 17 19  0  0  0  0  0  0  0  0999 V2000
    2.0894    0.7400   -0.4823 C   0  0  0  0  0  0  0  0  0  0  0  0
    0.9376   -0.0430    0.0261 C   0  0  0  0  0  0  0  0  0  0  0  0
    1.2891   -1.2044    0.7260 O   0  0  0  0  0  0  0  0  0  0  0  0
    0.3975   -1.2412   -0.3277 C   0  0  0  0  0  0  0  0  0  0  0  0
   -1.0133   -0.8085    0.0941 C   0  0  0  0  0  0  0  0  0  0  0  0
   -1.5442   -1.3160    1.2488 O   0  0  0  0  0  0  0  0  0  0  0  0
   -1.5499    0.3379   -0.6336 C   0  0  0  0  0  0  0  0  0  0  0  0
   -0.3904    0.6040    0.2901 C   0  0  0  0  0  0  0  0  0  0  0  0
   -0.6379    1.2564    1.4651 O   0  0  0  0  0  0  0  0  0  0  0  0
    1.8589    1.8418   -0.4078 H   0  0  0  0  0  0  0  0  0  0  0  0
    2.9544    0.5968    0.2221 H   0  0  0  0  0  0  0  0  0  0  0  0
    2.3741    0.5511   -1.5218 H   0  0  0  0  0  0  0  0  0  0  0  0
    0.5173   -1.9233   -1.1671 H   0  0  0  0  0  0  0  0  0  0  0  0
   -1.8909   -2.2163    1.1541 H   0  0  0  0  0  0  0  0  0  0  0  0
   -1.3631    0.3323   -1.7457 H   0  0  0  0  0  0  0  0  0  0  0  0
   -2.5154    0.7515   -0.2966 H   0  0  0  0  0  0  0  0  0  0  0  0
   -1.5132    1.7410    1.3564 H   0  0  0  0  0  0  0  0  0  0  0  0
  1  2  1  0
  2  3  1  0
  3  4  1  0
  4  5  1  0
  5  6  1  0
  5  7  1  0
  7  8  1  0
  8  9  1  0
  4  2  1  0
  8  5  1  0
  8  2  1  0
  1 10  1  0
  1 11  1  0
  1 12  1  0
  4 13  1  0
  6 14  1  0
  7 15  1  0
  7 16  1  0
  9 17  1  0
M  END
