
     RDKit          3D

 23 24  0  0  0  0  0  0  0  0999 V2000
    2.3915    0.7397    0.3363 C   0  0  0  0  0  0  0  0  0  0  0  0
    1.0879    0.1960    0.0795 C   0  0  0  0  0  0  0  0  0  0  0  0
    0.8905   -0.7653   -1.0876 C   0  0  0  0  0  0  0  0  0  0  0  0
   -0.3267   -1.2149   -0.2640 C   0  0  0  0  0  0  0  0  0  0  0  0
    0.5738   -0.9549    0.9457 C   0  0  0  0  0  0  0  0  0  0  0  0
   -1.1773   -0.0020   -0.3569 C   0  0  0  0  0  0  0  0  0  0  0  0
   -2.3410    0.0349    0.5702 C   0  0  0  0  0  0  0  0  0  0  0  0
   -1.5843    0.2020   -1.6540 O   0  0  0  0  0  0  0  0  0  0  0  0
   -0.1301    1.0689    0.0142 C   0  0  0  0  0  0  0  0  0  0  0  0
    2.3532    1.6924    0.8722 H   0  0  0  0  0  0  0  0  0  0  0  0
    3.0151    0.0233    0.9456 H   0  0  0  0  0  0  0  0  0  0  0  0
    3.0008    0.8823   -0.6047 H   0  0  0  0  0  0  0  0  0  0  0  0
    0.5408   -0.2877   -2.0161 H   0  0  0  0  0  0  0  0  0  0  0  0
    1.6697   -1.5305   -1.1932 H   0  0  0  0  0  0  0  0  0  0  0  0
   -0.6980   -2.1898   -0.4190 H   0  0  0  0  0  0  0  0  0  0  0  0
    0.0544   -0.6066    1.8375 H   0  0  0  0  0  0  0  0  0  0  0  0
    1.3298   -1.7587    1.0893 H   0  0  0  0  0  0  0  0  0  0  0  0
   -2.7494    1.0879    0.5412 H   0  0  0  0  0  0  0  0  0  0  0  0
   -2.0916   -0.2268    1.6085 H   0  0  0  0  0  0  0  0  0  0  0  0
   -3.1297   -0.6059    0.1858 H   0  0  0  0  0  0  0  0  0  0  0  0
   -2.2285    0.9449   -1.7590 H   0  0  0  0  0  0  0  0  0  0  0  0
   -0.0901    1.8646   -0.7223 H   0  0  0  0  0  0  0  0  0  0  0  0
   -0.3610    1.4062    1.0511 H   0  0  0  0  0  0  0  0  0  0  0  0
  1  2  1  0
  2  3  1  0
  3  4  1  0
  4  5  1  0
  4  6  1  0
  6  7  1  0
  6  8  1  0
  6  9  1  0
  5  2  1  0
  9  2  1  0
  1 10  1  0
  1 11  1  0
  1 12  1  0
  3 13  1  0
  3 14  1  0
  4 15  1  0
  5 16  1  0
  5 17  1  0
  7 18  1  0
  7 19  1  0
  7 20  1  0
  8 21  1  0
  9 22  1  0
  9 23  1  0
M  END
