
     RDKit          3D

 21 22  0  0  0  0  0  0  0  0999 V2000
    2.4601   -0.3714   -0.1789 C   0  0  0  0  0  0  0  0  0  0  0  0
    1.0975   -0.0676    0.1474 C   0  0  0  0  0  0  0  0  0  0  0  0
    0.4814   -0.8513    1.2843 C   0  0  0  0  0  0  0  0  0  0  0  0
   -0.8296   -0.6614    1.1673 C   0  0  0  0  0  0  0  0  0  0  0  0
   -1.1103    0.1120   -0.0528 C   0  0  0  0  0  0  0  0  0  0  0  0
   -2.4212    0.0080   -0.6455 C   0  0  0  0  0  0  0  0  0  0  0  0
   -0.5829    1.4837    0.1940 C   0  0  0  0  0  0  0  0  0  0  0  0
    0.7256    1.3480    0.3937 C   0  0  0  0  0  0  0  0  0  0  0  0
    0.0484   -0.4160   -0.9281 C   0  0  0  0  0  0  0  0  0  0  0  0
    2.6147   -0.5596   -1.2767 H   0  0  0  0  0  0  0  0  0  0  0  0
    3.2104    0.4287    0.0797 H   0  0  0  0  0  0  0  0  0  0  0  0
    2.8217   -1.2793    0.3616 H   0  0  0  0  0  0  0  0  0  0  0  0
    0.9879   -1.4435    2.0378 H   0  0  0  0  0  0  0  0  0  0  0  0
   -1.5596   -1.0245    1.8671 H   0  0  0  0  0  0  0  0  0  0  0  0
   -2.3949    0.1094   -1.7551 H   0  0  0  0  0  0  0  0  0  0  0  0
   -3.0789    0.8455   -0.2952 H   0  0  0  0  0  0  0  0  0  0  0  0
   -2.9002   -0.9545   -0.4092 H   0  0  0  0  0  0  0  0  0  0  0  0
   -1.0972    2.4301    0.2197 H   0  0  0  0  0  0  0  0  0  0  0  0
    1.4233    2.1208    0.6860 H   0  0  0  0  0  0  0  0  0  0  0  0
   -0.0243   -1.4819   -1.0970 H   0  0  0  0  0  0  0  0  0  0  0  0
    0.1281    0.2249   -1.8002 H   0  0  0  0  0  0  0  0  0  0  0  0
  1  2  1  0
  2  3  1  0
  3  4  2  0
  4  5  1  0
  5  6  1  0
  5  7  1  0
  7  8  2  0
  5  9  1  0
  8  2  1  0
  9  2  1  0
  1 10  1  0
  1 11  1  0
  1 12  1  0
  3 13  1  0
  4 14  1  0
  6 15  1  0
  6 16  1  0
  6 17  1  0
  7 18  1  0
  8 19  1  0
  9 20  1  0
  9 21  1  0
M  END
