
     RDKit          3D

 21 23  0  0  0  0  0  0  0  0999 V2000
   -0.5077    1.8333    0.7924 C   0  0  0  0  0  0  0  0  0  0  0  0
   -0.2951    0.5900   -0.0141 C   0  0  0  0  0  0  0  0  0  0  0  0
    0.6594    0.8792   -1.1648 C   0  0  0  0  0  0  0  0  0  0  0  0
    1.6697    0.0008   -0.4817 C   0  0  0  0  0  0  0  0  0  0  0  0
    0.6917   -0.3340    0.6233 C   0  0  0  0  0  0  0  0  0  0  0  0
    0.1212   -1.7072    0.5308 C   0  0  0  0  0  0  0  0  0  0  0  0
   -1.1578   -1.6598   -0.2172 C   0  0  0  0  0  0  0  0  0  0  0  0
   -1.2692   -1.0950   -1.4635 O   0  0  0  0  0  0  0  0  0  0  0  0
   -1.4797   -0.2321   -0.3447 C   0  0  0  0  0  0  0  0  0  0  0  0
    0.5182    2.2683    0.9835 H   0  0  0  0  0  0  0  0  0  0  0  0
   -1.0544    2.6292    0.2528 H   0  0  0  0  0  0  0  0  0  0  0  0
   -0.9694    1.6807    1.7675 H   0  0  0  0  0  0  0  0  0  0  0  0
    0.9575    1.9447   -1.2606 H   0  0  0  0  0  0  0  0  0  0  0  0
    0.2544    0.4490   -2.1073 H   0  0  0  0  0  0  0  0  0  0  0  0
    1.9207   -0.8992   -1.0770 H   0  0  0  0  0  0  0  0  0  0  0  0
    2.5558    0.5250   -0.0711 H   0  0  0  0  0  0  0  0  0  0  0  0
    1.0188   -0.0553    1.6469 H   0  0  0  0  0  0  0  0  0  0  0  0
    0.8728   -2.3946    0.1228 H   0  0  0  0  0  0  0  0  0  0  0  0
   -0.1076   -2.0593    1.5746 H   0  0  0  0  0  0  0  0  0  0  0  0
   -1.8922   -2.4318    0.0236 H   0  0  0  0  0  0  0  0  0  0  0  0
   -2.5072    0.0682   -0.1163 H   0  0  0  0  0  0  0  0  0  0  0  0
  1  2  1  0
  2  3  1  0
  3  4  1  0
  4  5  1  0
  5  6  1  0
  6  7  1  0
  7  8  1  0
  8  9  1  0
  5  2  1  0
  9  7  1  0
  9  2  1  0
  1 10  1  0
  1 11  1  0
  1 12  1  0
  3 13  1  0
  3 14  1  0
  4 15  1  0
  4 16  1  0
  5 17  1  0
  6 18  1  0
  6 19  1  0
  7 20  1  0
  9 21  1  0
M  END
