
     RDKit          3D

 23 24  0  0  0  0  0  0  0  0999 V2000
    2.9049   -0.7679    0.6604 C   0  0  0  0  0  0  0  0  0  0  0  0
    1.6577   -0.0634    0.2443 C   0  0  0  0  0  0  0  0  0  0  0  0
    1.5147    1.2176   -0.0153 C   0  0  0  0  0  0  0  0  0  0  0  0
    0.1164    1.5434   -0.3999 C   0  0  0  0  0  0  0  0  0  0  0  0
   -0.6256    0.2896   -0.1798 C   0  0  0  0  0  0  0  0  0  0  0  0
   -1.6168   -0.1272   -1.2412 C   0  0  0  0  0  0  0  0  0  0  0  0
   -2.4285   -0.7402   -0.0893 C   0  0  0  0  0  0  0  0  0  0  0  0
   -1.7759    0.3224    0.7948 C   0  0  0  0  0  0  0  0  0  0  0  0
    0.3658   -0.7969    0.0715 C   0  0  0  0  0  0  0  0  0  0  0  0
    2.9677   -0.9190    1.7522 H   0  0  0  0  0  0  0  0  0  0  0  0
    3.8183   -0.2207    0.3634 H   0  0  0  0  0  0  0  0  0  0  0  0
    2.9885   -1.7766    0.1887 H   0  0  0  0  0  0  0  0  0  0  0  0
    2.3379    1.9381    0.0501 H   0  0  0  0  0  0  0  0  0  0  0  0
    0.0758    1.9369   -1.4459 H   0  0  0  0  0  0  0  0  0  0  0  0
   -0.2065    2.3718    0.2799 H   0  0  0  0  0  0  0  0  0  0  0  0
   -1.2362   -0.9350   -1.9060 H   0  0  0  0  0  0  0  0  0  0  0  0
   -2.1332    0.6707   -1.7730 H   0  0  0  0  0  0  0  0  0  0  0  0
   -2.0326   -1.7489    0.1475 H   0  0  0  0  0  0  0  0  0  0  0  0
   -3.5062   -0.6450   -0.1944 H   0  0  0  0  0  0  0  0  0  0  0  0
   -2.2727    1.2910    0.7942 H   0  0  0  0  0  0  0  0  0  0  0  0
   -1.4458   -0.0696    1.7927 H   0  0  0  0  0  0  0  0  0  0  0  0
    0.0681   -1.3583    0.9526 H   0  0  0  0  0  0  0  0  0  0  0  0
    0.4641   -1.4129   -0.8474 H   0  0  0  0  0  0  0  0  0  0  0  0
  1  2  1  0
  2  3  2  0
  3  4  1  0
  4  5  1  0
  5  6  1  0
  6  7  1  0
  7  8  1  0
  5  9  1  0
  9  2  1  0
  8  5  1  0
  1 10  1  0
  1 11  1  0
  1 12  1  0
  3 13  1  0
  4 14  1  0
  4 15  1  0
  6 16  1  0
  6 17  1  0
  7 18  1  0
  7 19  1  0
  8 20  1  0
  8 21  1  0
  9 22  1  0
  9 23  1  0
M  END
