
     RDKit          3D

 23 24  0  0  0  0  0  0  0  0999 V2000
    2.4253   -0.3008   -0.1112 C   0  0  0  0  0  0  0  0  0  0  0  0
    0.9462   -0.2503    0.0013 C   0  0  0  0  0  0  0  0  0  0  0  0
    0.2172    0.8466    0.0360 C   0  0  0  0  0  0  0  0  0  0  0  0
    0.8025    2.1918   -0.0084 C   0  0  0  0  0  0  0  0  0  0  0  0
   -1.2527    0.7048    0.1236 C   0  0  0  0  0  0  0  0  0  0  0  0
   -1.6168   -0.2703   -1.0121 C   0  0  0  0  0  0  0  0  0  0  0  0
   -1.2377   -1.3707   -0.0522 C   0  0  0  0  0  0  0  0  0  0  0  0
    0.2379   -1.5841    0.0814 C   0  0  0  0  0  0  0  0  0  0  0  0
   -1.6601   -0.4142    1.0622 C   0  0  0  0  0  0  0  0  0  0  0  0
    2.6707   -1.1553   -0.7818 H   0  0  0  0  0  0  0  0  0  0  0  0
    2.9256   -0.4864    0.8619 H   0  0  0  0  0  0  0  0  0  0  0  0
    2.8484    0.6105   -0.5950 H   0  0  0  0  0  0  0  0  0  0  0  0
    0.7979    2.5188   -1.0869 H   0  0  0  0  0  0  0  0  0  0  0  0
    0.1226    2.9004    0.5196 H   0  0  0  0  0  0  0  0  0  0  0  0
    1.8101    2.2676    0.4342 H   0  0  0  0  0  0  0  0  0  0  0  0
   -1.8462    1.6127    0.1559 H   0  0  0  0  0  0  0  0  0  0  0  0
   -0.9899   -0.1662   -1.9079 H   0  0  0  0  0  0  0  0  0  0  0  0
   -2.7044   -0.2382   -1.1466 H   0  0  0  0  0  0  0  0  0  0  0  0
   -1.8302   -2.2871   -0.1175 H   0  0  0  0  0  0  0  0  0  0  0  0
    0.6686   -2.2369   -0.6878 H   0  0  0  0  0  0  0  0  0  0  0  0
    0.5025   -1.9867    1.0859 H   0  0  0  0  0  0  0  0  0  0  0  0
   -1.0741   -0.5037    1.9800 H   0  0  0  0  0  0  0  0  0  0  0  0
   -2.7632   -0.4024    1.1653 H   0  0  0  0  0  0  0  0  0  0  0  0
  1  2  1  0
  2  3  2  0
  3  4  1  0
  3  5  1  0
  5  6  1  0
  6  7  1  0
  7  8  1  0
  7  9  1  0
  8  2  1  0
  9  5  1  0
  1 10  1  0
  1 11  1  0
  1 12  1  0
  4 13  1  0
  4 14  1  0
  4 15  1  0
  5 16  1  0
  6 17  1  0
  6 18  1  0
  7 19  1  0
  8 20  1  0
  8 21  1  0
  9 22  1  0
  9 23  1  0
M  END
