
     RDKit          3D

 23 23  0  0  0  0  0  0  0  0999 V2000
   -0.7892    2.0596    0.1723 C   0  0  0  0  0  0  0  0  0  0  0  0
   -0.9488    0.5740    0.1865 C   0  0  0  0  0  0  0  0  0  0  0  0
   -2.0883   -0.0252   -0.2109 C   0  0  0  0  0  0  0  0  0  0  0  0
   -1.9386   -1.4836   -0.0813 C   0  0  0  0  0  0  0  0  0  0  0  0
   -0.4856   -1.7395    0.0953 C   0  0  0  0  0  0  0  0  0  0  0  0
    0.0515   -0.4017    0.6089 C   0  0  0  0  0  0  0  0  0  0  0  0
    1.4377   -0.2050    0.1033 C   0  0  0  0  0  0  0  0  0  0  0  0
    2.0749    1.0818    0.5036 C   0  0  0  0  0  0  0  0  0  0  0  0
    2.1988   -1.3201    0.4630 O   0  0  0  0  0  0  0  0  0  0  0  0
   -0.4115    2.4111   -0.8221 H   0  0  0  0  0  0  0  0  0  0  0  0
   -1.8185    2.5346    0.2304 H   0  0  0  0  0  0  0  0  0  0  0  0
   -0.2291    2.4581    1.0240 H   0  0  0  0  0  0  0  0  0  0  0  0
   -2.9773    0.4762   -0.5696 H   0  0  0  0  0  0  0  0  0  0  0  0
   -2.5447   -1.8306    0.8000 H   0  0  0  0  0  0  0  0  0  0  0  0
   -2.3638   -1.9408   -1.0050 H   0  0  0  0  0  0  0  0  0  0  0  0
   -0.2979   -2.5576    0.8193 H   0  0  0  0  0  0  0  0  0  0  0  0
    0.0343   -2.0250   -0.8497 H   0  0  0  0  0  0  0  0  0  0  0  0
    0.1145   -0.5228    1.7154 H   0  0  0  0  0  0  0  0  0  0  0  0
    1.4196   -0.2313   -1.0252 H   0  0  0  0  0  0  0  0  0  0  0  0
    3.1913    1.0386    0.4721 H   0  0  0  0  0  0  0  0  0  0  0  0
    1.7826    1.3281    1.5659 H   0  0  0  0  0  0  0  0  0  0  0  0
    1.8104    1.9571   -0.1138 H   0  0  0  0  0  0  0  0  0  0  0  0
    2.7776   -1.6356   -0.2608 H   0  0  0  0  0  0  0  0  0  0  0  0
  1  2  1  0
  2  3  2  0
  3  4  1  0
  4  5  1  0
  5  6  1  0
  6  7  1  0
  7  8  1  0
  7  9  1  0
  6  2  1  0
  1 10  1  0
  1 11  1  0
  1 12  1  0
  3 13  1  0
  4 14  1  0
  4 15  1  0
  5 16  1  0
  5 17  1  0
  6 18  1  0
  7 19  1  0
  8 20  1  0
  8 21  1  0
  8 22  1  0
  9 23  1  0
M  END
