
     RDKit          3D

 21 21  0  0  0  0  0  0  0  0999 V2000
   -1.8795   -1.0678   -0.5502 C   0  0  0  0  0  0  0  0  0  0  0  0
   -0.4924   -0.7495   -0.0783 C   0  0  0  0  0  0  0  0  0  0  0  0
    0.3985   -1.6840    0.1914 C   0  0  0  0  0  0  0  0  0  0  0  0
    1.6992   -1.0596    0.6453 C   0  0  0  0  0  0  0  0  0  0  0  0
    1.2301    0.2831    1.0668 C   0  0  0  0  0  0  0  0  0  0  0  0
    1.6510    0.9791    1.9442 O   0  0  0  0  0  0  0  0  0  0  0  0
    0.1196    0.5640    0.1503 C   0  0  0  0  0  0  0  0  0  0  0  0
   -0.8385    1.6011    0.6634 C   0  0  0  0  0  0  0  0  0  0  0  0
    0.6893    1.0004   -1.2082 C   0  0  0  0  0  0  0  0  0  0  0  0
   -2.5549   -0.2503   -0.1743 H   0  0  0  0  0  0  0  0  0  0  0  0
   -1.8909   -1.1400   -1.6549 H   0  0  0  0  0  0  0  0  0  0  0  0
   -2.2004   -2.0191   -0.1330 H   0  0  0  0  0  0  0  0  0  0  0  0
    0.2777   -2.7796    0.1178 H   0  0  0  0  0  0  0  0  0  0  0  0
    2.0560   -1.6787    1.4917 H   0  0  0  0  0  0  0  0  0  0  0  0
    2.4216   -1.0172   -0.1897 H   0  0  0  0  0  0  0  0  0  0  0  0
   -0.2595    2.2860    1.3199 H   0  0  0  0  0  0  0  0  0  0  0  0
   -1.6700    1.1698    1.2429 H   0  0  0  0  0  0  0  0  0  0  0  0
   -1.1720    2.1964   -0.2159 H   0  0  0  0  0  0  0  0  0  0  0  0
    0.8680    0.1286   -1.8642 H   0  0  0  0  0  0  0  0  0  0  0  0
   -0.0700    1.6593   -1.6870 H   0  0  0  0  0  0  0  0  0  0  0  0
    1.6173    1.5780   -1.0782 H   0  0  0  0  0  0  0  0  0  0  0  0
  1  2  1  0
  2  3  2  0
  3  4  1  0
  4  5  1  0
  5  6  2  0
  5  7  1  0
  7  8  1  0
  7  9  1  0
  7  2  1  0
  1 10  1  0
  1 11  1  0
  1 12  1  0
  3 13  1  0
  4 14  1  0
  4 15  1  0
  8 16  1  0
  8 17  1  0
  8 18  1  0
  9 19  1  0
  9 20  1  0
  9 21  1  0
M  END
