
     RDKit          3D

 23 24  0  0  0  0  0  0  0  0999 V2000
    2.6083   -0.8968    0.4172 C   0  0  0  0  0  0  0  0  0  0  0  0
    1.4455   -0.1110   -0.0392 C   0  0  0  0  0  0  0  0  0  0  0  0
    1.3742    1.2134    0.1041 C   0  0  0  0  0  0  0  0  0  0  0  0
    0.1232    1.8497   -0.4150 C   0  0  0  0  0  0  0  0  0  0  0  0
   -1.0760    1.1214    0.1740 C   0  0  0  0  0  0  0  0  0  0  0  0
   -2.0276    0.4913   -0.8131 C   0  0  0  0  0  0  0  0  0  0  0  0
   -1.0378   -0.3202   -0.0747 C   0  0  0  0  0  0  0  0  0  0  0  0
   -1.6415   -1.3061    0.9284 C   0  0  0  0  0  0  0  0  0  0  0  0
    0.2514   -0.7502   -0.7019 C   0  0  0  0  0  0  0  0  0  0  0  0
    2.2836   -1.7166    1.1195 H   0  0  0  0  0  0  0  0  0  0  0  0
    3.2270   -0.2159    1.0559 H   0  0  0  0  0  0  0  0  0  0  0  0
    3.2610   -1.2540   -0.3839 H   0  0  0  0  0  0  0  0  0  0  0  0
    2.1780    1.7434    0.5635 H   0  0  0  0  0  0  0  0  0  0  0  0
    0.1397    1.7014   -1.5187 H   0  0  0  0  0  0  0  0  0  0  0  0
    0.0872    2.9189   -0.2146 H   0  0  0  0  0  0  0  0  0  0  0  0
   -1.4366    1.4466    1.1655 H   0  0  0  0  0  0  0  0  0  0  0  0
   -1.8234    0.6707   -1.8826 H   0  0  0  0  0  0  0  0  0  0  0  0
   -3.0849    0.4665   -0.4965 H   0  0  0  0  0  0  0  0  0  0  0  0
   -2.7411   -1.4350    0.7466 H   0  0  0  0  0  0  0  0  0  0  0  0
   -1.4884   -0.9645    1.9697 H   0  0  0  0  0  0  0  0  0  0  0  0
   -1.2035   -2.3155    0.7365 H   0  0  0  0  0  0  0  0  0  0  0  0
    0.3256   -1.8510   -0.6541 H   0  0  0  0  0  0  0  0  0  0  0  0
    0.2563   -0.4866   -1.7868 H   0  0  0  0  0  0  0  0  0  0  0  0
  1  2  1  0
  2  3  2  0
  3  4  1  0
  4  5  1  0
  5  6  1  0
  6  7  1  0
  7  8  1  0
  7  9  1  0
  9  2  1  0
  7  5  1  0
  1 10  1  0
  1 11  1  0
  1 12  1  0
  3 13  1  0
  4 14  1  0
  4 15  1  0
  5 16  1  0
  6 17  1  0
  6 18  1  0
  8 19  1  0
  8 20  1  0
  8 21  1  0
  9 22  1  0
  9 23  1  0
M  END
