
     RDKit          3D

 23 23  0  0  0  0  0  0  0  0999 V2000
   -2.7691    0.4911    0.1513 C   0  0  0  0  0  0  0  0  0  0  0  0
   -1.4078   -0.0653   -0.1285 C   0  0  0  0  0  0  0  0  0  0  0  0
   -1.1314   -1.1294    0.6094 C   0  0  0  0  0  0  0  0  0  0  0  0
    0.1351   -1.9436    0.5970 C   0  0  0  0  0  0  0  0  0  0  0  0
    1.2313   -0.9616    0.8222 C   0  0  0  0  0  0  0  0  0  0  0  0
    1.4506    0.0955    0.0396 C   0  0  0  0  0  0  0  0  0  0  0  0
    2.6131    0.9040    0.5028 C   0  0  0  0  0  0  0  0  0  0  0  0
    0.7878    0.6006   -1.1570 C   0  0  0  0  0  0  0  0  0  0  0  0
   -0.6813    0.6835   -1.1541 C   0  0  0  0  0  0  0  0  0  0  0  0
   -3.5047   -0.3198    0.3706 H   0  0  0  0  0  0  0  0  0  0  0  0
   -2.7531    1.2001    0.9836 H   0  0  0  0  0  0  0  0  0  0  0  0
   -3.1821    1.0295   -0.7331 H   0  0  0  0  0  0  0  0  0  0  0  0
   -1.9186   -1.4187    1.2816 H   0  0  0  0  0  0  0  0  0  0  0  0
    0.3084   -2.4175   -0.3826 H   0  0  0  0  0  0  0  0  0  0  0  0
    0.0904   -2.7190    1.3701 H   0  0  0  0  0  0  0  0  0  0  0  0
    1.8582   -1.1377    1.6608 H   0  0  0  0  0  0  0  0  0  0  0  0
    2.7715    0.7964    1.6031 H   0  0  0  0  0  0  0  0  0  0  0  0
    3.5334    0.6800   -0.0645 H   0  0  0  0  0  0  0  0  0  0  0  0
    2.3510    1.9733    0.3128 H   0  0  0  0  0  0  0  0  0  0  0  0
    1.0818   -0.0799   -2.0117 H   0  0  0  0  0  0  0  0  0  0  0  0
    1.2348    1.5869   -1.4573 H   0  0  0  0  0  0  0  0  0  0  0  0
   -0.9773    1.7713   -1.0680 H   0  0  0  0  0  0  0  0  0  0  0  0
   -1.1218    0.3803   -2.1480 H   0  0  0  0  0  0  0  0  0  0  0  0
  1  2  1  0
  2  3  2  0
  3  4  1  0
  4  5  1  0
  5  6  2  0
  6  7  1  0
  6  8  1  0
  8  9  1  0
  9  2  1  0
  1 10  1  0
  1 11  1  0
  1 12  1  0
  3 13  1  0
  4 14  1  0
  4 15  1  0
  5 16  1  0
  7 17  1  0
  7 18  1  0
  7 19  1  0
  8 20  1  0
  8 21  1  0
  9 22  1  0
  9 23  1  0
M  END
