
     RDKit          3D

 21 22  0  0  0  0  0  0  0  0999 V2000
    2.6873    0.0891   -0.0263 C   0  0  0  0  0  0  0  0  0  0  0  0
    1.2020    0.1628   -0.0767 C   0  0  0  0  0  0  0  0  0  0  0  0
    0.6488    1.3595   -0.1546 C   0  0  0  0  0  0  0  0  0  0  0  0
   -0.8120    1.5698   -0.2112 C   0  0  0  0  0  0  0  0  0  0  0  0
   -1.6268    0.3490   -0.2273 C   0  0  0  0  0  0  0  0  0  0  0  0
   -1.7619   -0.3668    1.1064 C   0  0  0  0  0  0  0  0  0  0  0  0
   -1.0303   -0.9419   -0.0740 C   0  0  0  0  0  0  0  0  0  0  0  0
   -1.7080   -2.0516   -0.6331 O   0  0  0  0  0  0  0  0  0  0  0  0
    0.4380   -1.0878   -0.0374 C   0  0  0  0  0  0  0  0  0  0  0  0
    2.9676   -0.7913    0.5608 H   0  0  0  0  0  0  0  0  0  0  0  0
    3.0850    0.0677   -1.0633 H   0  0  0  0  0  0  0  0  0  0  0  0
    3.0915    1.0050    0.4424 H   0  0  0  0  0  0  0  0  0  0  0  0
    1.2788    2.2446   -0.1795 H   0  0  0  0  0  0  0  0  0  0  0  0
   -1.0648    2.2635    0.6309 H   0  0  0  0  0  0  0  0  0  0  0  0
   -1.0085    2.1825   -1.1391 H   0  0  0  0  0  0  0  0  0  0  0  0
   -2.5675    0.4184   -0.8504 H   0  0  0  0  0  0  0  0  0  0  0  0
   -1.2031   -0.0218    1.9770 H   0  0  0  0  0  0  0  0  0  0  0  0
   -2.7891   -0.7179    1.3510 H   0  0  0  0  0  0  0  0  0  0  0  0
   -1.3103   -2.3135   -1.4987 H   0  0  0  0  0  0  0  0  0  0  0  0
    0.7055   -1.6063    0.9310 H   0  0  0  0  0  0  0  0  0  0  0  0
    0.7777   -1.8131   -0.8280 H   0  0  0  0  0  0  0  0  0  0  0  0
  1  2  1  0
  2  3  2  0
  3  4  1  0
  4  5  1  0
  5  6  1  0
  6  7  1  0
  7  8  1  0
  7  9  1  0
  9  2  1  0
  7  5  1  0
  1 10  1  0
  1 11  1  0
  1 12  1  0
  3 13  1  0
  4 14  1  0
  4 15  1  0
  5 16  1  0
  6 17  1  0
  6 18  1  0
  8 19  1  0
  9 20  1  0
  9 21  1  0
M  END
