
     RDKit          3D

 21 22  0  0  0  0  0  0  0  0999 V2000
    2.6443    0.0286   -0.1538 C   0  0  0  0  0  0  0  0  0  0  0  0
    1.2452   -0.4841   -0.1602 C   0  0  0  0  0  0  0  0  0  0  0  0
    0.7957   -1.5845   -0.7360 C   0  0  0  0  0  0  0  0  0  0  0  0
   -0.6798   -1.7367   -0.5046 C   0  0  0  0  0  0  0  0  0  0  0  0
   -1.1092   -0.5372    0.2680 C   0  0  0  0  0  0  0  0  0  0  0  0
   -0.8799    0.8031   -0.3849 C   0  0  0  0  0  0  0  0  0  0  0  0
   -1.8357    1.8790    0.0485 C   0  0  0  0  0  0  0  0  0  0  0  0
    0.1224    0.2289    0.5243 C   0  0  0  0  0  0  0  0  0  0  0  0
    0.3395    0.7115    1.8022 O   0  0  0  0  0  0  0  0  0  0  0  0
    2.6607    1.1489   -0.2790 H   0  0  0  0  0  0  0  0  0  0  0  0
    3.1544   -0.2294    0.7893 H   0  0  0  0  0  0  0  0  0  0  0  0
    3.2375   -0.3555   -1.0194 H   0  0  0  0  0  0  0  0  0  0  0  0
    1.3756   -2.2952   -1.2995 H   0  0  0  0  0  0  0  0  0  0  0  0
   -1.2355   -1.7807   -1.4499 H   0  0  0  0  0  0  0  0  0  0  0  0
   -0.8740   -2.6548    0.0718 H   0  0  0  0  0  0  0  0  0  0  0  0
   -1.8351   -0.6183    1.0983 H   0  0  0  0  0  0  0  0  0  0  0  0
   -0.6785    0.8167   -1.4888 H   0  0  0  0  0  0  0  0  0  0  0  0
   -1.8581    2.7413   -0.6746 H   0  0  0  0  0  0  0  0  0  0  0  0
   -2.8525    1.4460    0.0660 H   0  0  0  0  0  0  0  0  0  0  0  0
   -1.5589    2.3039    1.0372 H   0  0  0  0  0  0  0  0  0  0  0  0
   -0.1783    0.1685    2.4451 H   0  0  0  0  0  0  0  0  0  0  0  0
  1  2  1  0
  2  3  2  0
  3  4  1  0
  4  5  1  0
  5  6  1  0
  6  7  1  0
  6  8  1  0
  8  9  1  0
  8  2  1  0
  8  5  1  0
  1 10  1  0
  1 11  1  0
  1 12  1  0
  3 13  1  0
  4 14  1  0
  4 15  1  0
  5 16  1  0
  6 17  1  0
  7 18  1  0
  7 19  1  0
  7 20  1  0
  9 21  1  0
M  END
