
     RDKit          3D

 21 22  0  0  0  0  0  0  0  0999 V2000
    2.0701   -0.9569   -0.8397 C   0  0  0  0  0  0  0  0  0  0  0  0
    0.7026   -0.5941   -0.2755 C   0  0  0  0  0  0  0  0  0  0  0  0
   -0.1894   -1.4467    0.1951 C   0  0  0  0  0  0  0  0  0  0  0  0
   -1.4198   -0.8111    0.6742 C   0  0  0  0  0  0  0  0  0  0  0  0
   -2.4030   -0.3324   -0.3755 C   0  0  0  0  0  0  0  0  0  0  0  0
   -2.2419    0.9817    0.1217 O   0  0  0  0  0  0  0  0  0  0  0  0
   -1.0242    0.6427    0.7193 C   0  0  0  0  0  0  0  0  0  0  0  0
    0.1703    0.7824   -0.1772 C   0  0  0  0  0  0  0  0  0  0  0  0
    1.1989    1.7392    0.3928 C   0  0  0  0  0  0  0  0  0  0  0  0
    1.9325   -1.8997   -1.3845 H   0  0  0  0  0  0  0  0  0  0  0  0
    2.4043   -0.1890   -1.5431 H   0  0  0  0  0  0  0  0  0  0  0  0
    2.8120   -1.0521   -0.0227 H   0  0  0  0  0  0  0  0  0  0  0  0
    0.0270   -2.5399    0.2028 H   0  0  0  0  0  0  0  0  0  0  0  0
   -1.8781   -1.2106    1.5865 H   0  0  0  0  0  0  0  0  0  0  0  0
   -3.4311   -0.6831   -0.1238 H   0  0  0  0  0  0  0  0  0  0  0  0
   -2.1103   -0.4776   -1.4124 H   0  0  0  0  0  0  0  0  0  0  0  0
   -0.8374    1.0648    1.7080 H   0  0  0  0  0  0  0  0  0  0  0  0
   -0.1291    1.1266   -1.2110 H   0  0  0  0  0  0  0  0  0  0  0  0
    2.1537    1.1881    0.4492 H   0  0  0  0  0  0  0  0  0  0  0  0
    1.2590    2.6861   -0.1446 H   0  0  0  0  0  0  0  0  0  0  0  0
    0.9339    1.9814    1.4604 H   0  0  0  0  0  0  0  0  0  0  0  0
  1  2  1  0
  2  3  2  0
  3  4  1  0
  4  5  1  0
  5  6  1  0
  6  7  1  0
  7  8  1  0
  8  9  1  0
  8  2  1  0
  7  4  1  0
  1 10  1  0
  1 11  1  0
  1 12  1  0
  3 13  1  0
  4 14  1  0
  5 15  1  0
  5 16  1  0
  7 17  1  0
  8 18  1  0
  9 19  1  0
  9 20  1  0
  9 21  1  0
M  END
