
     RDKit          3D

 20 21  0  0  0  0  0  0  0  0999 V2000
    2.4825    0.0325   -0.1752 C   0  0  0  0  0  0  0  0  0  0  0  0
    1.0116    0.1433    0.0664 C   0  0  0  0  0  0  0  0  0  0  0  0
    0.3921    1.3085    0.2259 C   0  0  0  0  0  0  0  0  0  0  0  0
   -1.0350    1.3681   -0.2253 C   0  0  0  0  0  0  0  0  0  0  0  0
   -1.6407    0.0163    0.0261 C   0  0  0  0  0  0  0  0  0  0  0  0
   -0.9192   -0.9684   -0.9039 C   0  0  0  0  0  0  0  0  0  0  0  0
    0.1365   -1.0780    0.1435 C   0  0  0  0  0  0  0  0  0  0  0  0
   -0.9364   -0.7122    1.1769 C   0  0  0  0  0  0  0  0  0  0  0  0
    2.9272   -0.8420    0.2974 H   0  0  0  0  0  0  0  0  0  0  0  0
    2.6119   -0.0545   -1.2864 H   0  0  0  0  0  0  0  0  0  0  0  0
    2.9378    0.9863    0.1816 H   0  0  0  0  0  0  0  0  0  0  0  0
    0.8526    2.1888    0.6521 H   0  0  0  0  0  0  0  0  0  0  0  0
   -1.5948    2.1643    0.2763 H   0  0  0  0  0  0  0  0  0  0  0  0
   -1.0150    1.5109   -1.3383 H   0  0  0  0  0  0  0  0  0  0  0  0
   -2.7252   -0.0592    0.0290 H   0  0  0  0  0  0  0  0  0  0  0  0
   -1.5096   -1.8622   -1.1227 H   0  0  0  0  0  0  0  0  0  0  0  0
   -0.5352   -0.5162   -1.8301 H   0  0  0  0  0  0  0  0  0  0  0  0
    0.6370   -2.0173    0.2943 H   0  0  0  0  0  0  0  0  0  0  0  0
   -0.5751   -0.0430    1.9730 H   0  0  0  0  0  0  0  0  0  0  0  0
   -1.5032   -1.5660    1.5394 H   0  0  0  0  0  0  0  0  0  0  0  0
  1  2  1  0
  2  3  2  0
  3  4  1  0
  4  5  1  0
  5  6  1  0
  6  7  1  0
  7  8  1  0
  7  2  1  0
  8  5  1  0
  1  9  1  0
  1 10  1  0
  1 11  1  0
  3 12  1  0
  4 13  1  0
  4 14  1  0
  5 15  1  0
  6 16  1  0
  6 17  1  0
  7 18  1  0
  8 19  1  0
  8 20  1  0
M  END
