
     RDKit          3D

 16 17  0  0  0  0  0  0  0  0999 V2000
    2.3678    0.2421    0.1974 C   0  0  0  0  0  0  0  0  0  0  0  0
    0.9244    0.0370   -0.0325 C   0  0  0  0  0  0  0  0  0  0  0  0
    0.1424    0.9124   -0.6442 C   0  0  0  0  0  0  0  0  0  0  0  0
   -1.2474    0.4287   -0.7243 C   0  0  0  0  0  0  0  0  0  0  0  0
   -2.0282    0.1709    0.5457 C   0  0  0  0  0  0  0  0  0  0  0  0
   -1.2190   -0.8932   -0.0935 C   0  0  0  0  0  0  0  0  0  0  0  0
    0.1567   -1.1285    0.3668 C   0  0  0  0  0  0  0  0  0  0  0  0
    0.6023   -2.1395    0.9889 O   0  0  0  0  0  0  0  0  0  0  0  0
    2.7493    1.1302   -0.3339 H   0  0  0  0  0  0  0  0  0  0  0  0
    2.9258   -0.6862   -0.0657 H   0  0  0  0  0  0  0  0  0  0  0  0
    2.5116    0.3891    1.2913 H   0  0  0  0  0  0  0  0  0  0  0  0
    0.4568    1.8678   -1.0438 H   0  0  0  0  0  0  0  0  0  0  0  0
   -1.8123    0.5420   -1.6761 H   0  0  0  0  0  0  0  0  0  0  0  0
   -3.1250    0.1204    0.4129 H   0  0  0  0  0  0  0  0  0  0  0  0
   -1.6990    0.7375    1.4106 H   0  0  0  0  0  0  0  0  0  0  0  0
   -1.7060   -1.7307   -0.5999 H   0  0  0  0  0  0  0  0  0  0  0  0
  1  2  1  0
  2  3  2  0
  3  4  1  0
  4  5  1  0
  5  6  1  0
  6  7  1  0
  7  8  2  0
  7  2  1  0
  6  4  1  0
  1  9  1  0
  1 10  1  0
  1 11  1  0
  3 12  1  0
  4 13  1  0
  5 14  1  0
  5 15  1  0
  6 16  1  0
M  END
