
     RDKit          3D

 23 24  0  0  0  0  0  0  0  0999 V2000
   -2.3368    1.0624   -0.8388 C   0  0  0  0  0  0  0  0  0  0  0  0
   -1.1935    0.4586   -0.1069 C   0  0  0  0  0  0  0  0  0  0  0  0
   -0.0895    1.2072    0.0302 C   0  0  0  0  0  0  0  0  0  0  0  0
    1.2117    0.9817    0.6658 C   0  0  0  0  0  0  0  0  0  0  0  0
    2.4235    0.9189   -0.2799 C   0  0  0  0  0  0  0  0  0  0  0  0
    1.8005   -0.3168    0.3551 C   0  0  0  0  0  0  0  0  0  0  0  0
    0.9085   -1.1207   -0.5310 C   0  0  0  0  0  0  0  0  0  0  0  0
   -0.2114   -1.7992    0.2234 C   0  0  0  0  0  0  0  0  0  0  0  0
   -1.4151   -0.9017    0.3833 C   0  0  0  0  0  0  0  0  0  0  0  0
   -2.9794    0.2735   -1.2648 H   0  0  0  0  0  0  0  0  0  0  0  0
   -2.0143    1.7958   -1.5990 H   0  0  0  0  0  0  0  0  0  0  0  0
   -3.0010    1.6294   -0.1241 H   0  0  0  0  0  0  0  0  0  0  0  0
   -0.2420    2.1895   -0.4535 H   0  0  0  0  0  0  0  0  0  0  0  0
    1.4598    1.4893    1.6280 H   0  0  0  0  0  0  0  0  0  0  0  0
    3.4028    1.2088    0.0982 H   0  0  0  0  0  0  0  0  0  0  0  0
    2.2368    1.1121   -1.3523 H   0  0  0  0  0  0  0  0  0  0  0  0
    2.3668   -0.8143    1.1694 H   0  0  0  0  0  0  0  0  0  0  0  0
    0.5143   -0.4787   -1.3271 H   0  0  0  0  0  0  0  0  0  0  0  0
    1.5323   -1.9350   -0.9788 H   0  0  0  0  0  0  0  0  0  0  0  0
   -0.5034   -2.6868   -0.3748 H   0  0  0  0  0  0  0  0  0  0  0  0
    0.1422   -2.0905    1.2311 H   0  0  0  0  0  0  0  0  0  0  0  0
   -1.7228   -0.8443    1.4672 H   0  0  0  0  0  0  0  0  0  0  0  0
   -2.2899   -1.3391   -0.1394 H   0  0  0  0  0  0  0  0  0  0  0  0
  1  2  1  0
  2  3  2  0
  3  4  1  0
  4  5  1  0
  5  6  1  0
  6  7  1  0
  7  8  1  0
  8  9  1  0
  9  2  1  0
  6  4  1  0
  1 10  1  0
  1 11  1  0
  1 12  1  0
  3 13  1  0
  4 14  1  0
  5 15  1  0
  5 16  1  0
  6 17  1  0
  7 18  1  0
  7 19  1  0
  8 20  1  0
  8 21  1  0
  9 22  1  0
  9 23  1  0
M  END
