
     RDKit          3D

 21 23  0  0  0  0  0  0  0  0999 V2000
    2.6106    0.0596    0.0015 C   0  0  0  0  0  0  0  0  0  0  0  0
    1.1668    0.4239   -0.0768 C   0  0  0  0  0  0  0  0  0  0  0  0
    0.5663    1.4259    0.5155 C   0  0  0  0  0  0  0  0  0  0  0  0
   -0.8647    1.4853    0.2141 C   0  0  0  0  0  0  0  0  0  0  0  0
   -1.8123    0.3901    0.3119 C   0  0  0  0  0  0  0  0  0  0  0  0
   -1.5208   -1.0091    0.6836 C   0  0  0  0  0  0  0  0  0  0  0  0
   -0.2703   -1.4873    0.0390 C   0  0  0  0  0  0  0  0  0  0  0  0
    0.1680   -0.3273   -0.8480 C   0  0  0  0  0  0  0  0  0  0  0  0
   -1.0005    0.5798   -0.9453 C   0  0  0  0  0  0  0  0  0  0  0  0
    2.7160   -0.6423    0.8637 H   0  0  0  0  0  0  0  0  0  0  0  0
    3.1644    0.9954    0.2013 H   0  0  0  0  0  0  0  0  0  0  0  0
    2.9039   -0.4107   -0.9477 H   0  0  0  0  0  0  0  0  0  0  0  0
    1.1015    2.1344    1.1659 H   0  0  0  0  0  0  0  0  0  0  0  0
   -1.2930    2.4995    0.0604 H   0  0  0  0  0  0  0  0  0  0  0  0
   -2.8909    0.6463    0.2312 H   0  0  0  0  0  0  0  0  0  0  0  0
   -2.3549   -1.6507    0.2632 H   0  0  0  0  0  0  0  0  0  0  0  0
   -1.5628   -1.2083    1.7783 H   0  0  0  0  0  0  0  0  0  0  0  0
   -0.4153   -2.3647   -0.6221 H   0  0  0  0  0  0  0  0  0  0  0  0
    0.5107   -1.7136    0.8178 H   0  0  0  0  0  0  0  0  0  0  0  0
    0.5481   -0.6894   -1.8249 H   0  0  0  0  0  0  0  0  0  0  0  0
   -1.4709    0.8631   -1.8827 H   0  0  0  0  0  0  0  0  0  0  0  0
  1  2  1  0
  2  3  2  0
  3  4  1  0
  4  5  1  0
  5  6  1  0
  6  7  1  0
  7  8  1  0
  8  9  1  0
  8  2  1  0
  9  4  1  0
  9  5  1  0
  1 10  1  0
  1 11  1  0
  1 12  1  0
  3 13  1  0
  4 14  1  0
  5 15  1  0
  6 16  1  0
  6 17  1  0
  7 18  1  0
  7 19  1  0
  8 20  1  0
  9 21  1  0
M  END
