
     RDKit          3D

 23 23  0  0  0  0  0  0  0  0999 V2000
    2.6911   -0.6285    0.2650 C   0  0  0  0  0  0  0  0  0  0  0  0
    1.2806   -0.1072    0.0959 C   0  0  0  0  0  0  0  0  0  0  0  0
    0.3330   -0.9804    0.4162 C   0  0  0  0  0  0  0  0  0  0  0  0
   -1.0808   -0.5710    0.2869 C   0  0  0  0  0  0  0  0  0  0  0  0
   -2.0085   -1.7389    0.0799 C   0  0  0  0  0  0  0  0  0  0  0  0
   -1.1650    0.4383   -0.8307 C   0  0  0  0  0  0  0  0  0  0  0  0
   -0.3690    1.6548   -0.3363 C   0  0  0  0  0  0  0  0  0  0  0  0
   -0.7113    1.7727    1.0314 O   0  0  0  0  0  0  0  0  0  0  0  0
    1.0736    1.2635   -0.3880 C   0  0  0  0  0  0  0  0  0  0  0  0
    3.4201    0.2149    0.2428 H   0  0  0  0  0  0  0  0  0  0  0  0
    2.8149   -1.1293    1.2326 H   0  0  0  0  0  0  0  0  0  0  0  0
    2.9256   -1.3442   -0.5381 H   0  0  0  0  0  0  0  0  0  0  0  0
    0.5748   -1.9981    0.7743 H   0  0  0  0  0  0  0  0  0  0  0  0
   -1.4250   -0.0461    1.2155 H   0  0  0  0  0  0  0  0  0  0  0  0
   -1.8085   -2.3153   -0.8250 H   0  0  0  0  0  0  0  0  0  0  0  0
   -3.0395   -1.3192   -0.0013 H   0  0  0  0  0  0  0  0  0  0  0  0
   -1.9889   -2.3387    1.0174 H   0  0  0  0  0  0  0  0  0  0  0  0
   -0.5882    0.0358   -1.6986 H   0  0  0  0  0  0  0  0  0  0  0  0
   -2.1984    0.7165   -1.0950 H   0  0  0  0  0  0  0  0  0  0  0  0
   -0.6075    2.5604   -0.8904 H   0  0  0  0  0  0  0  0  0  0  0  0
   -1.2419    2.5632    1.2147 H   0  0  0  0  0  0  0  0  0  0  0  0
    1.7231    1.9675    0.1975 H   0  0  0  0  0  0  0  0  0  0  0  0
    1.3957    1.3294   -1.4670 H   0  0  0  0  0  0  0  0  0  0  0  0
  1  2  1  0
  2  3  2  0
  3  4  1  0
  4  5  1  0
  4  6  1  0
  6  7  1  0
  7  8  1  0
  7  9  1  0
  9  2  1  0
  1 10  1  0
  1 11  1  0
  1 12  1  0
  3 13  1  0
  4 14  1  0
  5 15  1  0
  5 16  1  0
  5 17  1  0
  6 18  1  0
  6 19  1  0
  7 20  1  0
  8 21  1  0
  9 22  1  0
  9 23  1  0
M  END
