
     RDKit          3D

 21 21  0  0  0  0  0  0  0  0999 V2000
   -2.3111   -1.3326    0.0616 C   0  0  0  0  0  0  0  0  0  0  0  0
   -1.0323   -0.5342    0.0312 C   0  0  0  0  0  0  0  0  0  0  0  0
    0.1061   -0.9637   -0.4906 C   0  0  0  0  0  0  0  0  0  0  0  0
    1.1532    0.0904   -0.3417 C   0  0  0  0  0  0  0  0  0  0  0  0
    2.1659   -0.4385    0.6490 C   0  0  0  0  0  0  0  0  0  0  0  0
    3.2019    0.4281    0.8928 O   0  0  0  0  0  0  0  0  0  0  0  0
    0.4348    1.3037    0.1178 C   0  0  0  0  0  0  0  0  0  0  0  0
   -0.9159    0.8214    0.5852 C   0  0  0  0  0  0  0  0  0  0  0  0
   -1.9301    1.6380    0.0772 O   0  0  0  0  0  0  0  0  0  0  0  0
   -2.9774   -0.9959    0.8650 H   0  0  0  0  0  0  0  0  0  0  0  0
   -2.1145   -2.3965    0.2057 H   0  0  0  0  0  0  0  0  0  0  0  0
   -2.7995   -1.1905   -0.9270 H   0  0  0  0  0  0  0  0  0  0  0  0
    0.2771   -1.9217   -0.9567 H   0  0  0  0  0  0  0  0  0  0  0  0
    1.6601    0.2564   -1.3232 H   0  0  0  0  0  0  0  0  0  0  0  0
    2.6176   -1.3458    0.1479 H   0  0  0  0  0  0  0  0  0  0  0  0
    1.6301   -0.7382    1.5866 H   0  0  0  0  0  0  0  0  0  0  0  0
    3.0099    1.3709    0.7779 H   0  0  0  0  0  0  0  0  0  0  0  0
    0.9480    1.9048    0.8763 H   0  0  0  0  0  0  0  0  0  0  0  0
    0.2557    1.9949   -0.7527 H   0  0  0  0  0  0  0  0  0  0  0  0
   -0.9272    0.8781    1.6790 H   0  0  0  0  0  0  0  0  0  0  0  0
   -2.4523    1.1710   -0.6126 H   0  0  0  0  0  0  0  0  0  0  0  0
  1  2  1  0
  2  3  2  0
  3  4  1  0
  4  5  1  0
  5  6  1  0
  4  7  1  0
  7  8  1  0
  8  9  1  0
  8  2  1  0
  1 10  1  0
  1 11  1  0
  1 12  1  0
  3 13  1  0
  4 14  1  0
  5 15  1  0
  5 16  1  0
  6 17  1  0
  7 18  1  0
  7 19  1  0
  8 20  1  0
  9 21  1  0
M  END
