
     RDKit          3D

 21 21  0  0  0  0  0  0  0  0999 V2000
   -1.4357    1.9524    0.3320 C   0  0  0  0  0  0  0  0  0  0  0  0
   -0.2807    1.0397    0.0919 C   0  0  0  0  0  0  0  0  0  0  0  0
    0.7812    1.2984   -0.6643 C   0  0  0  0  0  0  0  0  0  0  0  0
    1.7176    0.1541   -0.6618 C   0  0  0  0  0  0  0  0  0  0  0  0
    1.2532   -0.6516    0.5331 C   0  0  0  0  0  0  0  0  0  0  0  0
    1.4880   -1.9981    0.2620 O   0  0  0  0  0  0  0  0  0  0  0  0
   -0.1804   -0.3129    0.6920 C   0  0  0  0  0  0  0  0  0  0  0  0
   -1.1124   -1.2837    0.0068 C   0  0  0  0  0  0  0  0  0  0  0  0
   -0.7867   -1.3785   -1.3557 O   0  0  0  0  0  0  0  0  0  0  0  0
   -1.3720    2.2755    1.3820 H   0  0  0  0  0  0  0  0  0  0  0  0
   -1.3599    2.8180   -0.3790 H   0  0  0  0  0  0  0  0  0  0  0  0
   -2.3588    1.3545    0.1176 H   0  0  0  0  0  0  0  0  0  0  0  0
    0.9068    2.2429   -1.1994 H   0  0  0  0  0  0  0  0  0  0  0  0
    1.6184   -0.4832   -1.5502 H   0  0  0  0  0  0  0  0  0  0  0  0
    2.7631    0.4678   -0.4671 H   0  0  0  0  0  0  0  0  0  0  0  0
    1.8161   -0.3383    1.4306 H   0  0  0  0  0  0  0  0  0  0  0  0
    1.7396   -2.4414    1.1095 H   0  0  0  0  0  0  0  0  0  0  0  0
   -0.4384   -0.3254    1.7727 H   0  0  0  0  0  0  0  0  0  0  0  0
   -2.1636   -0.9353    0.0505 H   0  0  0  0  0  0  0  0  0  0  0  0
   -1.0380   -2.2845    0.4396 H   0  0  0  0  0  0  0  0  0  0  0  0
   -1.5576   -1.1705   -1.9426 H   0  0  0  0  0  0  0  0  0  0  0  0
  1  2  1  0
  2  3  2  0
  3  4  1  0
  4  5  1  0
  5  6  1  0
  5  7  1  0
  7  8  1  0
  8  9  1  0
  7  2  1  0
  1 10  1  0
  1 11  1  0
  1 12  1  0
  3 13  1  0
  4 14  1  0
  4 15  1  0
  5 16  1  0
  6 17  1  0
  7 18  1  0
  8 19  1  0
  8 20  1  0
  9 21  1  0
M  END
