
     RDKit          3D

 17 18  0  0  0  0  0  0  0  0999 V2000
    2.1582   -0.3732    0.3672 C   0  0  0  0  0  0  0  0  0  0  0  0
    0.7889    0.1124    0.0341 C   0  0  0  0  0  0  0  0  0  0  0  0
    0.5004    1.4019    0.0068 C   0  0  0  0  0  0  0  0  0  0  0  0
   -0.8269    1.9012   -0.3148 C   0  0  0  0  0  0  0  0  0  0  0  0
   -1.0421    3.1588   -0.3247 O   0  0  0  0  0  0  0  0  0  0  0  0
   -1.8065    0.9760   -0.5987 O   0  0  0  0  0  0  0  0  0  0  0  0
   -1.5339   -0.3879   -0.7332 C   0  0  0  0  0  0  0  0  0  0  0  0
   -1.4152   -1.1207    0.5823 C   0  0  0  0  0  0  0  0  0  0  0  0
   -0.2490   -0.8899   -0.2700 C   0  0  0  0  0  0  0  0  0  0  0  0
    2.8224    0.4548    0.6893 H   0  0  0  0  0  0  0  0  0  0  0  0
    2.5624   -0.8171   -0.5807 H   0  0  0  0  0  0  0  0  0  0  0  0
    2.0965   -1.1187    1.1783 H   0  0  0  0  0  0  0  0  0  0  0  0
    1.3284    2.0932    0.2437 H   0  0  0  0  0  0  0  0  0  0  0  0
   -2.0290   -0.9034   -1.5851 H   0  0  0  0  0  0  0  0  0  0  0  0
   -1.9014   -2.1129    0.5832 H   0  0  0  0  0  0  0  0  0  0  0  0
   -1.5917   -0.5610    1.5210 H   0  0  0  0  0  0  0  0  0  0  0  0
    0.1385   -1.8134   -0.7987 H   0  0  0  0  0  0  0  0  0  0  0  0
  1  2  1  0
  2  3  2  0
  3  4  1  0
  4  5  2  0
  4  6  1  0
  6  7  1  0
  7  8  1  0
  8  9  1  0
  9  2  1  0
  9  7  1  0
  1 10  1  0
  1 11  1  0
  1 12  1  0
  3 13  1  0
  7 14  1  0
  8 15  1  0
  8 16  1  0
  9 17  1  0
M  END
