
     RDKit          3D

 19 19  0  0  0  0  0  0  0  0999 V2000
   -2.3624    0.6872    0.1008 C   0  0  0  0  0  0  0  0  0  0  0  0
   -0.8972    0.3414    0.1080 C   0  0  0  0  0  0  0  0  0  0  0  0
   -0.1545    1.4319    0.2078 C   0  0  0  0  0  0  0  0  0  0  0  0
    1.3073    1.4417    0.2419 C   0  0  0  0  0  0  0  0  0  0  0  0
    2.1827    0.4520    0.1683 C   0  0  0  0  0  0  0  0  0  0  0  0
    1.8429   -0.9598    0.0270 C   0  0  0  0  0  0  0  0  0  0  0  0
    2.7007   -1.7703    0.5220 O   0  0  0  0  0  0  0  0  0  0  0  0
    0.6385   -1.4988   -0.6152 C   0  0  0  0  0  0  0  0  0  0  0  0
   -0.6485   -1.0819    0.0058 C   0  0  0  0  0  0  0  0  0  0  0  0
   -2.9457   -0.1385    0.5079 H   0  0  0  0  0  0  0  0  0  0  0  0
   -2.6059    0.8753   -0.9785 H   0  0  0  0  0  0  0  0  0  0  0  0
   -2.5464    1.6292    0.6854 H   0  0  0  0  0  0  0  0  0  0  0  0
   -0.6231    2.4029    0.2708 H   0  0  0  0  0  0  0  0  0  0  0  0
    1.7445    2.4469    0.3469 H   0  0  0  0  0  0  0  0  0  0  0  0
    3.2395    0.7123    0.2179 H   0  0  0  0  0  0  0  0  0  0  0  0
    0.6978   -2.6057   -0.5636 H   0  0  0  0  0  0  0  0  0  0  0  0
    0.6002   -1.2456   -1.7108 H   0  0  0  0  0  0  0  0  0  0  0  0
   -1.4681   -1.5602   -0.5706 H   0  0  0  0  0  0  0  0  0  0  0  0
   -0.7024   -1.5600    1.0282 H   0  0  0  0  0  0  0  0  0  0  0  0
  1  2  1  0
  2  3  2  0
  3  4  1  0
  4  5  2  0
  5  6  1  0
  6  7  2  0
  6  8  1  0
  8  9  1  0
  9  2  1  0
  1 10  1  0
  1 11  1  0
  1 12  1  0
  3 13  1  0
  4 14  1  0
  5 15  1  0
  8 16  1  0
  8 17  1  0
  9 18  1  0
  9 19  1  0
M  END
