
     RDKit          3D

 19 19  0  0  0  0  0  0  0  0999 V2000
   -1.5009    1.6378    0.2378 C   0  0  0  0  0  0  0  0  0  0  0  0
   -0.3740    0.6798    0.0244 C   0  0  0  0  0  0  0  0  0  0  0  0
    0.8862    1.0947    0.0649 C   0  0  0  0  0  0  0  0  0  0  0  0
    2.0738    0.2174   -0.1352 C   0  0  0  0  0  0  0  0  0  0  0  0
    1.7285   -1.1097   -0.0786 O   0  0  0  0  0  0  0  0  0  0  0  0
    0.5891   -1.3564   -0.8406 C   0  0  0  0  0  0  0  0  0  0  0  0
   -0.6411   -0.7602   -0.2374 C   0  0  0  0  0  0  0  0  0  0  0  0
   -1.0799   -1.4713    0.9922 C   0  0  0  0  0  0  0  0  0  0  0  0
   -0.4751   -1.3726    2.0511 O   0  0  0  0  0  0  0  0  0  0  0  0
   -2.3981    1.0519    0.4463 H   0  0  0  0  0  0  0  0  0  0  0  0
   -1.6672    2.2929   -0.6377 H   0  0  0  0  0  0  0  0  0  0  0  0
   -1.2733    2.3353    1.0963 H   0  0  0  0  0  0  0  0  0  0  0  0
    1.0127    2.1735    0.2641 H   0  0  0  0  0  0  0  0  0  0  0  0
    2.8292    0.4738    0.6200 H   0  0  0  0  0  0  0  0  0  0  0  0
    2.5497    0.4605   -1.1297 H   0  0  0  0  0  0  0  0  0  0  0  0
    0.4803   -2.4529   -0.9036 H   0  0  0  0  0  0  0  0  0  0  0  0
    0.6837   -0.9655   -1.8747 H   0  0  0  0  0  0  0  0  0  0  0  0
   -1.4665   -0.8184   -0.9656 H   0  0  0  0  0  0  0  0  0  0  0  0
   -1.9572   -2.1107    1.0061 H   0  0  0  0  0  0  0  0  0  0  0  0
  1  2  1  0
  2  3  2  0
  3  4  1  0
  4  5  1  0
  5  6  1  0
  6  7  1  0
  7  8  1  0
  8  9  2  0
  7  2  1  0
  1 10  1  0
  1 11  1  0
  1 12  1  0
  3 13  1  0
  4 14  1  0
  4 15  1  0
  6 16  1  0
  6 17  1  0
  7 18  1  0
  8 19  1  0
M  END
