
     RDKit          3D

 17 18  0  0  0  0  0  0  0  0999 V2000
   -2.3210    0.1797    0.3532 C   0  0  0  0  0  0  0  0  0  0  0  0
   -0.9233   -0.1732    0.0130 C   0  0  0  0  0  0  0  0  0  0  0  0
   -0.1755   -1.1851    0.4402 C   0  0  0  0  0  0  0  0  0  0  0  0
    1.1184   -1.0615   -0.2549 C   0  0  0  0  0  0  0  0  0  0  0  0
    1.9342    0.1183    0.2708 C   0  0  0  0  0  0  0  0  0  0  0  0
    1.0122    1.2488   -0.1340 C   0  0  0  0  0  0  0  0  0  0  0  0
    1.1691    2.4092    0.1616 O   0  0  0  0  0  0  0  0  0  0  0  0
   -0.0402    0.5803   -0.9246 C   0  0  0  0  0  0  0  0  0  0  0  0
    0.6907   -0.4954   -1.4853 O   0  0  0  0  0  0  0  0  0  0  0  0
   -2.9965   -0.6845    0.4110 H   0  0  0  0  0  0  0  0  0  0  0  0
   -2.3040    0.6728    1.3556 H   0  0  0  0  0  0  0  0  0  0  0  0
   -2.7269    0.8740   -0.4085 H   0  0  0  0  0  0  0  0  0  0  0  0
   -0.4827   -1.9342    1.1560 H   0  0  0  0  0  0  0  0  0  0  0  0
    1.6838   -1.9672   -0.3770 H   0  0  0  0  0  0  0  0  0  0  0  0
    2.8661    0.1560   -0.2914 H   0  0  0  0  0  0  0  0  0  0  0  0
    2.0468    0.0780    1.3636 H   0  0  0  0  0  0  0  0  0  0  0  0
   -0.5511    1.1838   -1.6493 H   0  0  0  0  0  0  0  0  0  0  0  0
  1  2  1  0
  2  3  2  0
  3  4  1  0
  4  5  1  0
  5  6  1  0
  6  7  2  0
  6  8  1  0
  8  9  1  0
  8  2  1  0
  9  4  1  0
  1 10  1  0
  1 11  1  0
  1 12  1  0
  3 13  1  0
  4 14  1  0
  5 15  1  0
  5 16  1  0
  8 17  1  0
M  END
