
     RDKit          3D

 19 20  0  0  0  0  0  0  0  0999 V2000
    2.1979    0.5224   -0.6501 C   0  0  0  0  0  0  0  0  0  0  0  0
    0.8891   -0.0067   -0.1878 C   0  0  0  0  0  0  0  0  0  0  0  0
    0.5497   -1.2856   -0.2671 C   0  0  0  0  0  0  0  0  0  0  0  0
   -0.7939   -1.5302    0.2594 C   0  0  0  0  0  0  0  0  0  0  0  0
   -1.2552   -0.2264    0.8124 C   0  0  0  0  0  0  0  0  0  0  0  0
   -1.5515    0.8610   -0.1819 C   0  0  0  0  0  0  0  0  0  0  0  0
   -1.8241    0.4244   -1.4618 O   0  0  0  0  0  0  0  0  0  0  0  0
   -0.2103    0.7810    0.4166 C   0  0  0  0  0  0  0  0  0  0  0  0
    0.2022    1.7281    1.3533 O   0  0  0  0  0  0  0  0  0  0  0  0
    2.1316    1.5564   -1.0282 H   0  0  0  0  0  0  0  0  0  0  0  0
    2.5969   -0.1213   -1.4605 H   0  0  0  0  0  0  0  0  0  0  0  0
    2.8852    0.4526    0.2423 H   0  0  0  0  0  0  0  0  0  0  0  0
    1.1939   -2.0933   -0.6808 H   0  0  0  0  0  0  0  0  0  0  0  0
   -1.4634   -1.9243   -0.5523 H   0  0  0  0  0  0  0  0  0  0  0  0
   -0.7402   -2.3057    1.0712 H   0  0  0  0  0  0  0  0  0  0  0  0
   -1.6054   -0.1358    1.8580 H   0  0  0  0  0  0  0  0  0  0  0  0
   -2.1829    1.7075    0.1550 H   0  0  0  0  0  0  0  0  0  0  0  0
   -1.0437    0.1409   -1.9756 H   0  0  0  0  0  0  0  0  0  0  0  0
    0.0241    1.4552    2.2781 H   0  0  0  0  0  0  0  0  0  0  0  0
  1  2  1  0
  2  3  2  0
  3  4  1  0
  4  5  1  0
  5  6  1  0
  6  7  1  0
  6  8  1  0
  8  9  1  0
  8  2  1  0
  8  5  1  0
  1 10  1  0
  1 11  1  0
  1 12  1  0
  3 13  1  0
  4 14  1  0
  4 15  1  0
  5 16  1  0
  6 17  1  0
  7 18  1  0
  9 19  1  0
M  END
