
     RDKit          3D

 23 24  0  0  0  0  0  0  0  0999 V2000
    2.8188   -0.3352   -0.5408 C   0  0  0  0  0  0  0  0  0  0  0  0
    1.3585   -0.2835   -0.1889 C   0  0  0  0  0  0  0  0  0  0  0  0
    0.3207   -0.3199   -1.0149 C   0  0  0  0  0  0  0  0  0  0  0  0
   -0.9557   -0.2457   -0.2797 C   0  0  0  0  0  0  0  0  0  0  0  0
   -1.8403   -1.4347   -0.3184 C   0  0  0  0  0  0  0  0  0  0  0  0
   -1.6583    1.1050   -0.4573 C   0  0  0  0  0  0  0  0  0  0  0  0
   -0.5785    1.6556    0.4865 C   0  0  0  0  0  0  0  0  0  0  0  0
   -0.5221    0.2414    1.0798 C   0  0  0  0  0  0  0  0  0  0  0  0
    0.9013   -0.1786    1.2286 C   0  0  0  0  0  0  0  0  0  0  0  0
    3.3135    0.5817   -0.1406 H   0  0  0  0  0  0  0  0  0  0  0  0
    2.9549   -0.4085   -1.6287 H   0  0  0  0  0  0  0  0  0  0  0  0
    3.2538   -1.1814    0.0247 H   0  0  0  0  0  0  0  0  0  0  0  0
    0.3989   -0.3951   -2.1014 H   0  0  0  0  0  0  0  0  0  0  0  0
   -2.2260   -1.7617    0.6675 H   0  0  0  0  0  0  0  0  0  0  0  0
   -1.3163   -2.2943   -0.8159 H   0  0  0  0  0  0  0  0  0  0  0  0
   -2.7042   -1.2015   -1.0006 H   0  0  0  0  0  0  0  0  0  0  0  0
   -2.6511    1.1086    0.0174 H   0  0  0  0  0  0  0  0  0  0  0  0
   -1.5799    1.4671   -1.4827 H   0  0  0  0  0  0  0  0  0  0  0  0
   -0.9189    2.4303    1.1709 H   0  0  0  0  0  0  0  0  0  0  0  0
    0.3188    1.8747   -0.1289 H   0  0  0  0  0  0  0  0  0  0  0  0
   -1.2028    0.0705    1.9104 H   0  0  0  0  0  0  0  0  0  0  0  0
    1.4833    0.6369    1.7421 H   0  0  0  0  0  0  0  0  0  0  0  0
    1.0315   -1.1317    1.7709 H   0  0  0  0  0  0  0  0  0  0  0  0
  1  2  1  0
  2  3  2  0
  3  4  1  0
  4  5  1  0
  4  6  1  0
  6  7  1  0
  7  8  1  0
  8  9  1  0
  9  2  1  0
  8  4  1  0
  1 10  1  0
  1 11  1  0
  1 12  1  0
  3 13  1  0
  5 14  1  0
  5 15  1  0
  5 16  1  0
  6 17  1  0
  6 18  1  0
  7 19  1  0
  7 20  1  0
  8 21  1  0
  9 22  1  0
  9 23  1  0
M  END
