
     RDKit          3D

 25 25  0  0  0  0  0  0  0  0999 V2000
    2.3848   -1.2745    0.0913 C   0  0  0  0  0  0  0  0  0  0  0  0
    1.0354   -0.6782   -0.0000 C   0  0  0  0  0  0  0  0  0  0  0  0
    0.6983    0.5816    0.2365 C   0  0  0  0  0  0  0  0  0  0  0  0
    1.6253    1.6585    0.6464 C   0  0  0  0  0  0  0  0  0  0  0  0
   -0.7606    0.7769    0.0329 C   0  0  0  0  0  0  0  0  0  0  0  0
   -0.9433    1.6655   -1.1802 C   0  0  0  0  0  0  0  0  0  0  0  0
   -1.3568   -0.5660   -0.2185 C   0  0  0  0  0  0  0  0  0  0  0  0
   -2.3010   -1.0230    0.8664 C   0  0  0  0  0  0  0  0  0  0  0  0
   -0.1794   -1.4704   -0.3926 C   0  0  0  0  0  0  0  0  0  0  0  0
    2.8929   -1.3631   -0.8921 H   0  0  0  0  0  0  0  0  0  0  0  0
    3.0680   -0.6883    0.7451 H   0  0  0  0  0  0  0  0  0  0  0  0
    2.2969   -2.3229    0.4815 H   0  0  0  0  0  0  0  0  0  0  0  0
    2.1528    2.1126   -0.2277 H   0  0  0  0  0  0  0  0  0  0  0  0
    2.3419    1.2524    1.3749 H   0  0  0  0  0  0  0  0  0  0  0  0
    1.0749    2.4912    1.1291 H   0  0  0  0  0  0  0  0  0  0  0  0
   -1.1576    1.2728    0.9476 H   0  0  0  0  0  0  0  0  0  0  0  0
   -1.1769    2.6969   -0.8121 H   0  0  0  0  0  0  0  0  0  0  0  0
   -1.7888    1.3079   -1.8238 H   0  0  0  0  0  0  0  0  0  0  0  0
   -0.0433    1.6812   -1.8243 H   0  0  0  0  0  0  0  0  0  0  0  0
   -1.9340   -0.5560   -1.1655 H   0  0  0  0  0  0  0  0  0  0  0  0
   -2.7835   -1.9642    0.4780 H   0  0  0  0  0  0  0  0  0  0  0  0
   -1.8139   -1.2263    1.8243 H   0  0  0  0  0  0  0  0  0  0  0  0
   -3.1092   -0.2708    0.9408 H   0  0  0  0  0  0  0  0  0  0  0  0
   -0.0263   -1.7173   -1.4783 H   0  0  0  0  0  0  0  0  0  0  0  0
   -0.1967   -2.3764    0.2202 H   0  0  0  0  0  0  0  0  0  0  0  0
  1  2  1  0
  2  3  2  0
  3  4  1  0
  3  5  1  0
  5  6  1  0
  5  7  1  0
  7  8  1  0
  7  9  1  0
  9  2  1  0
  1 10  1  0
  1 11  1  0
  1 12  1  0
  4 13  1  0
  4 14  1  0
  4 15  1  0
  5 16  1  0
  6 17  1  0
  6 18  1  0
  6 19  1  0
  7 20  1  0
  8 21  1  0
  8 22  1  0
  8 23  1  0
  9 24  1  0
  9 25  1  0
M  END
