
     RDKit          3D

 21 22  0  0  0  0  0  0  0  0999 V2000
    2.5633    0.3093    0.2337 C   0  0  0  0  0  0  0  0  0  0  0  0
    1.1584   -0.1496    0.1795 C   0  0  0  0  0  0  0  0  0  0  0  0
    0.5663   -0.9723    1.0336 C   0  0  0  0  0  0  0  0  0  0  0  0
   -0.8402   -1.0845    0.6099 C   0  0  0  0  0  0  0  0  0  0  0  0
   -1.4677    0.2703    0.8160 C   0  0  0  0  0  0  0  0  0  0  0  0
   -0.8127    1.1730   -0.2366 C   0  0  0  0  0  0  0  0  0  0  0  0
   -1.7635    1.6917   -1.0844 O   0  0  0  0  0  0  0  0  0  0  0  0
    0.1607    0.2581   -0.8808 C   0  0  0  0  0  0  0  0  0  0  0  0
   -0.6465   -1.0503   -0.9194 C   0  0  0  0  0  0  0  0  0  0  0  0
    3.1612   -0.3510   -0.4210 H   0  0  0  0  0  0  0  0  0  0  0  0
    2.9075    0.2252    1.2789 H   0  0  0  0  0  0  0  0  0  0  0  0
    2.6371    1.3305   -0.1559 H   0  0  0  0  0  0  0  0  0  0  0  0
    1.0179   -1.4634    1.8714 H   0  0  0  0  0  0  0  0  0  0  0  0
   -1.3921   -1.9248    0.9566 H   0  0  0  0  0  0  0  0  0  0  0  0
   -2.5542    0.2805    0.7398 H   0  0  0  0  0  0  0  0  0  0  0  0
   -1.1253    0.6296    1.8200 H   0  0  0  0  0  0  0  0  0  0  0  0
   -0.3209    2.0510    0.2654 H   0  0  0  0  0  0  0  0  0  0  0  0
   -2.2703    1.0192   -1.5883 H   0  0  0  0  0  0  0  0  0  0  0  0
    0.5906    0.5366   -1.8093 H   0  0  0  0  0  0  0  0  0  0  0  0
   -1.5855   -0.9365   -1.4451 H   0  0  0  0  0  0  0  0  0  0  0  0
    0.0160   -1.8425   -1.2639 H   0  0  0  0  0  0  0  0  0  0  0  0
  1  2  1  0
  2  3  2  0
  3  4  1  0
  4  5  1  0
  5  6  1  0
  6  7  1  0
  6  8  1  0
  8  9  1  0
  8  2  1  0
  9  4  1  0
  1 10  1  0
  1 11  1  0
  1 12  1  0
  3 13  1  0
  4 14  1  0
  5 15  1  0
  5 16  1  0
  6 17  1  0
  7 18  1  0
  8 19  1  0
  9 20  1  0
  9 21  1  0
M  END
