
     RDKit          3D

 21 22  0  0  0  0  0  0  0  0999 V2000
   -0.9129    2.0585    0.1133 C   0  0  0  0  0  0  0  0  0  0  0  0
   -0.7850    0.5710    0.0935 C   0  0  0  0  0  0  0  0  0  0  0  0
   -1.4127   -0.2625    0.9161 C   0  0  0  0  0  0  0  0  0  0  0  0
   -1.0415   -1.6852    0.6002 C   0  0  0  0  0  0  0  0  0  0  0  0
   -0.6916   -1.5160   -0.8872 C   0  0  0  0  0  0  0  0  0  0  0  0
    0.0292   -0.2193   -0.8052 C   0  0  0  0  0  0  0  0  0  0  0  0
    0.8263    0.2752   -1.7840 O   0  0  0  0  0  0  0  0  0  0  0  0
    1.5081   -0.2864   -0.7098 C   0  0  0  0  0  0  0  0  0  0  0  0
    2.1694    0.5872    0.3086 C   0  0  0  0  0  0  0  0  0  0  0  0
   -1.0392    2.4117    1.1435 H   0  0  0  0  0  0  0  0  0  0  0  0
   -0.0259    2.5182   -0.4003 H   0  0  0  0  0  0  0  0  0  0  0  0
   -1.7962    2.4056   -0.4612 H   0  0  0  0  0  0  0  0  0  0  0  0
   -2.1032   -0.0234    1.7180 H   0  0  0  0  0  0  0  0  0  0  0  0
   -1.8970   -2.3717    0.7275 H   0  0  0  0  0  0  0  0  0  0  0  0
   -0.1559   -1.9530    1.1962 H   0  0  0  0  0  0  0  0  0  0  0  0
   -0.0756   -2.3290   -1.2599 H   0  0  0  0  0  0  0  0  0  0  0  0
   -1.6549   -1.3879   -1.4287 H   0  0  0  0  0  0  0  0  0  0  0  0
    1.9871   -1.2842   -0.8384 H   0  0  0  0  0  0  0  0  0  0  0  0
    1.6548    0.5318    1.3117 H   0  0  0  0  0  0  0  0  0  0  0  0
    2.1747    1.6634    0.0394 H   0  0  0  0  0  0  0  0  0  0  0  0
    3.2420    0.2960    0.4066 H   0  0  0  0  0  0  0  0  0  0  0  0
  1  2  1  0
  2  3  2  0
  3  4  1  0
  4  5  1  0
  5  6  1  0
  6  7  1  0
  7  8  1  0
  8  9  1  0
  6  2  1  0
  8  6  1  0
  1 10  1  0
  1 11  1  0
  1 12  1  0
  3 13  1  0
  4 14  1  0
  4 15  1  0
  5 16  1  0
  5 17  1  0
  8 18  1  0
  9 19  1  0
  9 20  1  0
  9 21  1  0
M  END
