
     RDKit          3D

 18 19  0  0  0  0  0  0  0  0999 V2000
   -0.4030    2.0290    0.0016 C   0  0  0  0  0  0  0  0  0  0  0  0
   -0.3804    0.5191   -0.0317 C   0  0  0  0  0  0  0  0  0  0  0  0
    0.6611   -0.2766   -0.0525 C   0  0  0  0  0  0  0  0  0  0  0  0
    2.0728    0.2374   -0.0461 C   0  0  0  0  0  0  0  0  0  0  0  0
    0.3248   -1.7024   -0.0790 C   0  0  0  0  0  0  0  0  0  0  0  0
   -0.5659   -2.2466   -0.9711 O   0  0  0  0  0  0  0  0  0  0  0  0
   -1.1582   -1.6817    0.1535 C   0  0  0  0  0  0  0  0  0  0  0  0
   -1.6075   -0.2775   -0.0488 C   0  0  0  0  0  0  0  0  0  0  0  0
   -1.0089    2.4210   -0.8307 H   0  0  0  0  0  0  0  0  0  0  0  0
    0.6176    2.4495   -0.0054 H   0  0  0  0  0  0  0  0  0  0  0  0
   -0.8824    2.3853    0.9456 H   0  0  0  0  0  0  0  0  0  0  0  0
    2.7430   -0.4684    0.5253 H   0  0  0  0  0  0  0  0  0  0  0  0
    2.1641    1.2055    0.4657 H   0  0  0  0  0  0  0  0  0  0  0  0
    2.4722    0.2615   -1.0952 H   0  0  0  0  0  0  0  0  0  0  0  0
    0.9574   -2.4290    0.4719 H   0  0  0  0  0  0  0  0  0  0  0  0
   -1.5730   -2.3231    0.9462 H   0  0  0  0  0  0  0  0  0  0  0  0
   -2.3527    0.0470    0.7189 H   0  0  0  0  0  0  0  0  0  0  0  0
   -2.0812   -0.1500   -1.0681 H   0  0  0  0  0  0  0  0  0  0  0  0
  1  2  1  0
  2  3  2  0
  3  4  1  0
  3  5  1  0
  5  6  1  0
  6  7  1  0
  7  8  1  0
  8  2  1  0
  7  5  1  0
  1  9  1  0
  1 10  1  0
  1 11  1  0
  4 12  1  0
  4 13  1  0
  4 14  1  0
  5 15  1  0
  7 16  1  0
  8 17  1  0
  8 18  1  0
M  END
