
     RDKit          3D

 23 24  0  0  0  0  0  0  0  0999 V2000
   -2.9413    0.0586   -0.1707 C   0  0  0  0  0  0  0  0  0  0  0  0
   -1.4645   -0.0871   -0.2168 C   0  0  0  0  0  0  0  0  0  0  0  0
   -0.8563   -0.6631   -1.2214 C   0  0  0  0  0  0  0  0  0  0  0  0
    0.6199   -0.7617   -1.1978 C   0  0  0  0  0  0  0  0  0  0  0  0
    1.1379   -0.0691    0.0402 C   0  0  0  0  0  0  0  0  0  0  0  0
    2.6186    0.0392    0.0976 C   0  0  0  0  0  0  0  0  0  0  0  0
    0.4561    1.2704    0.2803 C   0  0  0  0  0  0  0  0  0  0  0  0
   -0.6715    0.4368    0.9089 C   0  0  0  0  0  0  0  0  0  0  0  0
    0.4493   -0.5370    1.3049 C   0  0  0  0  0  0  0  0  0  0  0  0
   -3.4101   -0.0346   -1.1705 H   0  0  0  0  0  0  0  0  0  0  0  0
   -3.3158   -0.7476    0.5227 H   0  0  0  0  0  0  0  0  0  0  0  0
   -3.2409    1.0726    0.2225 H   0  0  0  0  0  0  0  0  0  0  0  0
   -1.4303   -1.0545   -2.0447 H   0  0  0  0  0  0  0  0  0  0  0  0
    0.9124   -1.8121   -1.1724 H   0  0  0  0  0  0  0  0  0  0  0  0
    1.0335   -0.2222   -2.0682 H   0  0  0  0  0  0  0  0  0  0  0  0
    2.9441    0.8661   -0.5903 H   0  0  0  0  0  0  0  0  0  0  0  0
    3.1113   -0.8817   -0.2953 H   0  0  0  0  0  0  0  0  0  0  0  0
    2.9930    0.2876    1.0894 H   0  0  0  0  0  0  0  0  0  0  0  0
    0.9832    1.8287    1.0625 H   0  0  0  0  0  0  0  0  0  0  0  0
    0.1548    1.8155   -0.6238 H   0  0  0  0  0  0  0  0  0  0  0  0
   -1.1922    0.9064    1.7337 H   0  0  0  0  0  0  0  0  0  0  0  0
    0.1412   -1.5808    1.3271 H   0  0  0  0  0  0  0  0  0  0  0  0
    0.9675   -0.1302    2.1821 H   0  0  0  0  0  0  0  0  0  0  0  0
  1  2  1  0
  2  3  2  0
  3  4  1  0
  4  5  1  0
  5  6  1  0
  5  7  1  0
  7  8  1  0
  8  9  1  0
  8  2  1  0
  9  5  1  0
  1 10  1  0
  1 11  1  0
  1 12  1  0
  3 13  1  0
  4 14  1  0
  4 15  1  0
  6 16  1  0
  6 17  1  0
  6 18  1  0
  7 19  1  0
  7 20  1  0
  8 21  1  0
  9 22  1  0
  9 23  1  0
M  END
