
     RDKit          3D

 21 21  0  0  0  0  0  0  0  0999 V2000
   -1.8648    1.3216   -0.2300 C   0  0  0  0  0  0  0  0  0  0  0  0
   -0.5604    0.6756   -0.0012 C   0  0  0  0  0  0  0  0  0  0  0  0
    0.4391    1.4743    0.2892 C   0  0  0  0  0  0  0  0  0  0  0  0
    1.8692    1.1767    0.5766 C   0  0  0  0  0  0  0  0  0  0  0  0
    2.1005   -0.1246    0.9273 O   0  0  0  0  0  0  0  0  0  0  0  0
    2.0249   -1.0310   -0.0940 C   0  0  0  0  0  0  0  0  0  0  0  0
    0.6204   -1.5445   -0.1523 C   0  0  0  0  0  0  0  0  0  0  0  0
   -0.4643   -0.7850   -0.1101 C   0  0  0  0  0  0  0  0  0  0  0  0
   -1.7697   -1.4728   -0.1804 C   0  0  0  0  0  0  0  0  0  0  0  0
   -1.7200    2.1386   -0.9908 H   0  0  0  0  0  0  0  0  0  0  0  0
   -2.6297    0.6364   -0.6035 H   0  0  0  0  0  0  0  0  0  0  0  0
   -2.1392    1.8497    0.7065 H   0  0  0  0  0  0  0  0  0  0  0  0
    0.2216    2.5408    0.3363 H   0  0  0  0  0  0  0  0  0  0  0  0
    2.1298    1.8101    1.4742 H   0  0  0  0  0  0  0  0  0  0  0  0
    2.5395    1.5593   -0.2321 H   0  0  0  0  0  0  0  0  0  0  0  0
    2.3713   -0.6694   -1.0731 H   0  0  0  0  0  0  0  0  0  0  0  0
    2.6594   -1.9314    0.1383 H   0  0  0  0  0  0  0  0  0  0  0  0
    0.4635   -2.6092   -0.2348 H   0  0  0  0  0  0  0  0  0  0  0  0
   -2.1641   -1.3174   -1.2094 H   0  0  0  0  0  0  0  0  0  0  0  0
   -2.4890   -1.1339    0.5884 H   0  0  0  0  0  0  0  0  0  0  0  0
   -1.6380   -2.5641   -0.0261 H   0  0  0  0  0  0  0  0  0  0  0  0
  1  2  1  0
  2  3  2  0
  3  4  1  0
  4  5  1  0
  5  6  1  0
  6  7  1  0
  7  8  2  0
  8  9  1  0
  8  2  1  0
  1 10  1  0
  1 11  1  0
  1 12  1  0
  3 13  1  0
  4 14  1  0
  4 15  1  0
  6 16  1  0
  6 17  1  0
  7 18  1  0
  9 19  1  0
  9 20  1  0
  9 21  1  0
M  END
