
     RDKit          3D

 19 19  0  0  0  0  0  0  0  0999 V2000
    2.2545   -0.5279    0.3253 C   0  0  0  0  0  0  0  0  0  0  0  0
    0.8178   -0.1862    0.1456 C   0  0  0  0  0  0  0  0  0  0  0  0
    0.0708   -1.2207   -0.1859 C   0  0  0  0  0  0  0  0  0  0  0  0
   -1.3723   -1.3211   -0.4536 C   0  0  0  0  0  0  0  0  0  0  0  0
   -2.1160   -0.2315    0.2236 C   0  0  0  0  0  0  0  0  0  0  0  0
   -3.0045   -0.5349    1.0712 O   0  0  0  0  0  0  0  0  0  0  0  0
   -1.8930    1.1363   -0.0202 O   0  0  0  0  0  0  0  0  0  0  0  0
   -0.6615    1.7284   -0.4340 C   0  0  0  0  0  0  0  0  0  0  0  0
    0.4933    1.2207    0.3666 C   0  0  0  0  0  0  0  0  0  0  0  0
    2.4989   -1.4986   -0.1895 H   0  0  0  0  0  0  0  0  0  0  0  0
    2.4655   -0.6246    1.4054 H   0  0  0  0  0  0  0  0  0  0  0  0
    2.8477    0.3075   -0.1003 H   0  0  0  0  0  0  0  0  0  0  0  0
    0.5770   -2.1984   -0.2910 H   0  0  0  0  0  0  0  0  0  0  0  0
   -1.6071   -1.3165   -1.5561 H   0  0  0  0  0  0  0  0  0  0  0  0
   -1.7831   -2.3018   -0.0935 H   0  0  0  0  0  0  0  0  0  0  0  0
   -0.7693    2.8121   -0.2567 H   0  0  0  0  0  0  0  0  0  0  0  0
   -0.4781    1.4811   -1.5054 H   0  0  0  0  0  0  0  0  0  0  0  0
    0.2795    1.4223    1.4519 H   0  0  0  0  0  0  0  0  0  0  0  0
    1.3797    1.8538    0.0966 H   0  0  0  0  0  0  0  0  0  0  0  0
  1  2  1  0
  2  3  2  0
  3  4  1  0
  4  5  1  0
  5  6  2  0
  5  7  1  0
  7  8  1  0
  8  9  1  0
  9  2  1  0
  1 10  1  0
  1 11  1  0
  1 12  1  0
  3 13  1  0
  4 14  1  0
  4 15  1  0
  8 16  1  0
  8 17  1  0
  9 18  1  0
  9 19  1  0
M  END
