
     RDKit          3D

 23 23  0  0  0  0  0  0  0  0999 V2000
   -2.6257   -0.1068   -0.2640 C   0  0  0  0  0  0  0  0  0  0  0  0
   -1.1708   -0.1004    0.0384 C   0  0  0  0  0  0  0  0  0  0  0  0
   -0.5975   -1.2921    0.0604 C   0  0  0  0  0  0  0  0  0  0  0  0
    0.8117   -1.6171    0.3264 C   0  0  0  0  0  0  0  0  0  0  0  0
    1.7543   -0.8729   -0.5996 C   0  0  0  0  0  0  0  0  0  0  0  0
    1.8594    0.5223   -0.0373 C   0  0  0  0  0  0  0  0  0  0  0  0
    0.7476    1.4201   -0.4490 C   0  0  0  0  0  0  0  0  0  0  0  0
   -0.5456    1.1972    0.2736 C   0  0  0  0  0  0  0  0  0  0  0  0
   -0.3290    1.4570    1.6369 O   0  0  0  0  0  0  0  0  0  0  0  0
   -3.0609    0.8936   -0.3116 H   0  0  0  0  0  0  0  0  0  0  0  0
   -2.7519   -0.5528   -1.2880 H   0  0  0  0  0  0  0  0  0  0  0  0
   -3.1909   -0.7751    0.4208 H   0  0  0  0  0  0  0  0  0  0  0  0
   -1.2229   -2.1744   -0.1410 H   0  0  0  0  0  0  0  0  0  0  0  0
    1.0883   -1.2875    1.3710 H   0  0  0  0  0  0  0  0  0  0  0  0
    1.0070   -2.7081    0.2761 H   0  0  0  0  0  0  0  0  0  0  0  0
    2.7343   -1.3764   -0.6839 H   0  0  0  0  0  0  0  0  0  0  0  0
    1.3018   -0.8819   -1.6160 H   0  0  0  0  0  0  0  0  0  0  0  0
    2.0006    0.4571    1.0632 H   0  0  0  0  0  0  0  0  0  0  0  0
    2.8096    0.9523   -0.4344 H   0  0  0  0  0  0  0  0  0  0  0  0
    0.5986    1.3283   -1.5317 H   0  0  0  0  0  0  0  0  0  0  0  0
    1.0633    2.4686   -0.2447 H   0  0  0  0  0  0  0  0  0  0  0  0
   -1.2458    1.9932   -0.0700 H   0  0  0  0  0  0  0  0  0  0  0  0
   -1.0353    1.0557    2.2044 H   0  0  0  0  0  0  0  0  0  0  0  0
  1  2  1  0
  2  3  2  0
  3  4  1  0
  4  5  1  0
  5  6  1  0
  6  7  1  0
  7  8  1  0
  8  9  1  0
  8  2  1  0
  1 10  1  0
  1 11  1  0
  1 12  1  0
  3 13  1  0
  4 14  1  0
  4 15  1  0
  5 16  1  0
  5 17  1  0
  6 18  1  0
  6 19  1  0
  7 20  1  0
  7 21  1  0
  8 22  1  0
  9 23  1  0
M  END
