
     RDKit          3D

 23 24  0  0  0  0  0  0  0  0999 V2000
    2.9416   -0.1905   -0.2024 C   0  0  0  0  0  0  0  0  0  0  0  0
    1.4500   -0.1886    0.0023 C   0  0  0  0  0  0  0  0  0  0  0  0
    0.8679   -0.7376    1.0533 C   0  0  0  0  0  0  0  0  0  0  0  0
   -0.5750   -0.5615    0.9426 C   0  0  0  0  0  0  0  0  0  0  0  0
   -1.2345   -1.5487   -0.0313 C   0  0  0  0  0  0  0  0  0  0  0  0
   -1.9518   -0.3435   -0.6203 C   0  0  0  0  0  0  0  0  0  0  0  0
   -0.8003    0.4908   -0.0948 C   0  0  0  0  0  0  0  0  0  0  0  0
   -1.1922    1.8436    0.3932 C   0  0  0  0  0  0  0  0  0  0  0  0
    0.4544    0.4164   -0.9229 C   0  0  0  0  0  0  0  0  0  0  0  0
    3.4633   -0.3444    0.7522 H   0  0  0  0  0  0  0  0  0  0  0  0
    3.2526   -1.0134   -0.8768 H   0  0  0  0  0  0  0  0  0  0  0  0
    3.2657    0.7936   -0.6021 H   0  0  0  0  0  0  0  0  0  0  0  0
    1.3691   -1.2477    1.8851 H   0  0  0  0  0  0  0  0  0  0  0  0
   -1.1421   -0.4328    1.8838 H   0  0  0  0  0  0  0  0  0  0  0  0
   -0.4991   -1.9264   -0.7396 H   0  0  0  0  0  0  0  0  0  0  0  0
   -1.8980   -2.2782    0.4654 H   0  0  0  0  0  0  0  0  0  0  0  0
   -2.8616   -0.1083   -0.0517 H   0  0  0  0  0  0  0  0  0  0  0  0
   -2.0485   -0.3572   -1.7212 H   0  0  0  0  0  0  0  0  0  0  0  0
   -1.3193    2.5007   -0.4997 H   0  0  0  0  0  0  0  0  0  0  0  0
   -2.1767    1.7585    0.8905 H   0  0  0  0  0  0  0  0  0  0  0  0
   -0.4967    2.2619    1.1420 H   0  0  0  0  0  0  0  0  0  0  0  0
    0.8428    1.4052   -1.2196 H   0  0  0  0  0  0  0  0  0  0  0  0
    0.2885   -0.1921   -1.8279 H   0  0  0  0  0  0  0  0  0  0  0  0
  1  2  1  0
  2  3  2  0
  3  4  1  0
  4  5  1  0
  5  6  1  0
  6  7  1  0
  7  8  1  0
  7  9  1  0
  9  2  1  0
  7  4  1  0
  1 10  1  0
  1 11  1  0
  1 12  1  0
  3 13  1  0
  4 14  1  0
  5 15  1  0
  5 16  1  0
  6 17  1  0
  6 18  1  0
  8 19  1  0
  8 20  1  0
  8 21  1  0
  9 22  1  0
  9 23  1  0
M  END
