
     RDKit          3D

 17 17  0  0  0  0  0  0  0  0999 V2000
    2.0321   -0.7343   -0.1785 C   0  0  0  0  0  0  0  0  0  0  0  0
    0.5924   -0.3530   -0.1466 C   0  0  0  0  0  0  0  0  0  0  0  0
   -0.4146   -0.9931   -0.7230 C   0  0  0  0  0  0  0  0  0  0  0  0
   -1.7027   -0.3067   -0.4663 C   0  0  0  0  0  0  0  0  0  0  0  0
   -1.3626    0.4177    0.8451 C   0  0  0  0  0  0  0  0  0  0  0  0
    0.0419    0.8407    0.5564 C   0  0  0  0  0  0  0  0  0  0  0  0
    0.0916    1.9025   -0.3391 O   0  0  0  0  0  0  0  0  0  0  0  0
    2.3941   -0.8464   -1.2123 H   0  0  0  0  0  0  0  0  0  0  0  0
    2.1691   -1.6970    0.3933 H   0  0  0  0  0  0  0  0  0  0  0  0
    2.6464    0.0155    0.3168 H   0  0  0  0  0  0  0  0  0  0  0  0
   -0.3093   -1.8940   -1.3018 H   0  0  0  0  0  0  0  0  0  0  0  0
   -2.5343   -0.9750   -0.2590 H   0  0  0  0  0  0  0  0  0  0  0  0
   -1.9143    0.4801   -1.2227 H   0  0  0  0  0  0  0  0  0  0  0  0
   -2.0590    1.2308    1.0560 H   0  0  0  0  0  0  0  0  0  0  0  0
   -1.3313   -0.3597    1.6473 H   0  0  0  0  0  0  0  0  0  0  0  0
    0.6238    1.0957    1.4609 H   0  0  0  0  0  0  0  0  0  0  0  0
    1.0368    2.1762   -0.4266 H   0  0  0  0  0  0  0  0  0  0  0  0
  1  2  1  0
  2  3  2  0
  3  4  1  0
  4  5  1  0
  5  6  1  0
  6  7  1  0
  6  2  1  0
  1  8  1  0
  1  9  1  0
  1 10  1  0
  3 11  1  0
  4 12  1  0
  4 13  1  0
  5 14  1  0
  5 15  1  0
  6 16  1  0
  7 17  1  0
M  END
