
     RDKit          3D

 23 23  0  0  0  0  0  0  0  0999 V2000
    1.6703    1.9527    0.0724 C   0  0  0  0  0  0  0  0  0  0  0  0
    0.7176    0.7940    0.1041 C   0  0  0  0  0  0  0  0  0  0  0  0
    1.0411   -0.4671   -0.0371 C   0  0  0  0  0  0  0  0  0  0  0  0
    2.3757   -1.0859   -0.2583 C   0  0  0  0  0  0  0  0  0  0  0  0
   -0.1960   -1.2880    0.0581 C   0  0  0  0  0  0  0  0  0  0  0  0
   -1.2929   -0.3219   -0.2609 C   0  0  0  0  0  0  0  0  0  0  0  0
   -2.5764   -0.6844    0.4594 C   0  0  0  0  0  0  0  0  0  0  0  0
   -1.4833   -0.1384   -1.6228 O   0  0  0  0  0  0  0  0  0  0  0  0
   -0.7393    0.9760    0.3065 C   0  0  0  0  0  0  0  0  0  0  0  0
    2.6888    1.6022    0.3376 H   0  0  0  0  0  0  0  0  0  0  0  0
    1.3280    2.7288    0.8146 H   0  0  0  0  0  0  0  0  0  0  0  0
    1.6050    2.4339   -0.9106 H   0  0  0  0  0  0  0  0  0  0  0  0
    2.7534   -1.5069    0.7167 H   0  0  0  0  0  0  0  0  0  0  0  0
    3.1168   -0.3856   -0.6605 H   0  0  0  0  0  0  0  0  0  0  0  0
    2.2754   -1.9579   -0.9377 H   0  0  0  0  0  0  0  0  0  0  0  0
   -0.3037   -1.5786    1.1275 H   0  0  0  0  0  0  0  0  0  0  0  0
   -0.1711   -2.1648   -0.6156 H   0  0  0  0  0  0  0  0  0  0  0  0
   -2.4401   -1.7232    0.8535 H   0  0  0  0  0  0  0  0  0  0  0  0
   -2.7538   -0.0501    1.3482 H   0  0  0  0  0  0  0  0  0  0  0  0
   -3.4590   -0.6482   -0.1899 H   0  0  0  0  0  0  0  0  0  0  0  0
   -2.0094    0.6855   -1.7750 H   0  0  0  0  0  0  0  0  0  0  0  0
   -0.9984    1.0111    1.3654 H   0  0  0  0  0  0  0  0  0  0  0  0
   -1.1488    1.8166   -0.2955 H   0  0  0  0  0  0  0  0  0  0  0  0
  1  2  1  0
  2  3  2  0
  3  4  1  0
  3  5  1  0
  5  6  1  0
  6  7  1  0
  6  8  1  0
  6  9  1  0
  9  2  1  0
  1 10  1  0
  1 11  1  0
  1 12  1  0
  4 13  1  0
  4 14  1  0
  4 15  1  0
  5 16  1  0
  5 17  1  0
  7 18  1  0
  7 19  1  0
  7 20  1  0
  8 21  1  0
  9 22  1  0
  9 23  1  0
M  END
