
     RDKit          3D

 23 24  0  0  0  0  0  0  0  0999 V2000
    3.1094   -0.2561    0.3580 C   0  0  0  0  0  0  0  0  0  0  0  0
    1.6516   -0.2164   -0.0186 C   0  0  0  0  0  0  0  0  0  0  0  0
    0.8979   -1.2456   -0.3578 C   0  0  0  0  0  0  0  0  0  0  0  0
   -0.4937   -0.8632   -0.6708 C   0  0  0  0  0  0  0  0  0  0  0  0
   -1.4461   -1.0392    0.4770 C   0  0  0  0  0  0  0  0  0  0  0  0
   -2.3735    0.1480    0.3547 C   0  0  0  0  0  0  0  0  0  0  0  0
   -1.6587    1.2226   -0.3928 C   0  0  0  0  0  0  0  0  0  0  0  0
   -0.3640    0.6265   -0.9012 C   0  0  0  0  0  0  0  0  0  0  0  0
    0.8131    1.0010   -0.0637 C   0  0  0  0  0  0  0  0  0  0  0  0
    3.3588   -1.2137    0.8766 H   0  0  0  0  0  0  0  0  0  0  0  0
    3.2999    0.6137    1.0175 H   0  0  0  0  0  0  0  0  0  0  0  0
    3.7627   -0.1392   -0.5297 H   0  0  0  0  0  0  0  0  0  0  0  0
    1.2660   -2.2648   -0.4010 H   0  0  0  0  0  0  0  0  0  0  0  0
   -0.7978   -1.3819   -1.5935 H   0  0  0  0  0  0  0  0  0  0  0  0
   -0.9767   -1.1257    1.4541 H   0  0  0  0  0  0  0  0  0  0  0  0
   -2.0578   -1.9520    0.2593 H   0  0  0  0  0  0  0  0  0  0  0  0
   -3.3387   -0.1387   -0.1530 H   0  0  0  0  0  0  0  0  0  0  0  0
   -2.6317    0.4698    1.3711 H   0  0  0  0  0  0  0  0  0  0  0  0
   -2.2794    1.5450   -1.2582 H   0  0  0  0  0  0  0  0  0  0  0  0
   -1.4701    2.1163    0.2543 H   0  0  0  0  0  0  0  0  0  0  0  0
   -0.2057    0.9037   -1.9470 H   0  0  0  0  0  0  0  0  0  0  0  0
    0.5293    1.3641    0.9445 H   0  0  0  0  0  0  0  0  0  0  0  0
    1.4050    1.8257   -0.5247 H   0  0  0  0  0  0  0  0  0  0  0  0
  1  2  1  0
  2  3  2  0
  3  4  1  0
  4  5  1  0
  5  6  1  0
  6  7  1  0
  7  8  1  0
  8  9  1  0
  9  2  1  0
  8  4  1  0
  1 10  1  0
  1 11  1  0
  1 12  1  0
  3 13  1  0
  4 14  1  0
  5 15  1  0
  5 16  1  0
  6 17  1  0
  6 18  1  0
  7 19  1  0
  7 20  1  0
  8 21  1  0
  9 22  1  0
  9 23  1  0
M  END
