
     RDKit          3D

 19 20  0  0  0  0  0  0  0  0999 V2000
    2.2163   -0.6827    0.6702 C   0  0  0  0  0  0  0  0  0  0  0  0
    1.0846    0.1132    0.1389 C   0  0  0  0  0  0  0  0  0  0  0  0
    0.6182    1.2685    0.5998 C   0  0  0  0  0  0  0  0  0  0  0  0
   -0.6007    1.5141   -0.2560 C   0  0  0  0  0  0  0  0  0  0  0  0
   -1.6256    0.5057    0.1238 C   0  0  0  0  0  0  0  0  0  0  0  0
   -1.1233   -0.7344   -0.6311 C   0  0  0  0  0  0  0  0  0  0  0  0
   -1.0912   -1.8420    0.1847 O   0  0  0  0  0  0  0  0  0  0  0  0
    0.2565   -0.2558   -1.0318 C   0  0  0  0  0  0  0  0  0  0  0  0
   -0.0912    1.0424   -1.4907 O   0  0  0  0  0  0  0  0  0  0  0  0
    2.4896   -0.4003    1.7086 H   0  0  0  0  0  0  0  0  0  0  0  0
    1.9672   -1.7786    0.6215 H   0  0  0  0  0  0  0  0  0  0  0  0
    3.1221   -0.5656    0.0189 H   0  0  0  0  0  0  0  0  0  0  0  0
    1.0023    1.8929    1.3909 H   0  0  0  0  0  0  0  0  0  0  0  0
   -0.9082    2.5415   -0.2819 H   0  0  0  0  0  0  0  0  0  0  0  0
   -1.6670    0.2745    1.2078 H   0  0  0  0  0  0  0  0  0  0  0  0
   -2.6581    0.7662   -0.2034 H   0  0  0  0  0  0  0  0  0  0  0  0
   -1.7334   -0.8256   -1.5260 H   0  0  0  0  0  0  0  0  0  0  0  0
   -2.0031   -1.9808    0.5354 H   0  0  0  0  0  0  0  0  0  0  0  0
    0.7451   -0.8531   -1.7794 H   0  0  0  0  0  0  0  0  0  0  0  0
  1  2  1  0
  2  3  2  0
  3  4  1  0
  4  5  1  0
  5  6  1  0
  6  7  1  0
  6  8  1  0
  8  9  1  0
  8  2  1  0
  9  4  1  0
  1 10  1  0
  1 11  1  0
  1 12  1  0
  3 13  1  0
  4 14  1  0
  5 15  1  0
  5 16  1  0
  6 17  1  0
  7 18  1  0
  8 19  1  0
M  END
