
     RDKit          3D

 19 19  0  0  0  0  0  0  0  0999 V2000
    1.6874   -1.4258   -0.3344 C   0  0  0  0  0  0  0  0  0  0  0  0
    0.4534   -0.5913   -0.1184 C   0  0  0  0  0  0  0  0  0  0  0  0
   -0.6821   -1.1640    0.2536 C   0  0  0  0  0  0  0  0  0  0  0  0
   -1.9520   -0.4235    0.4913 C   0  0  0  0  0  0  0  0  0  0  0  0
   -1.7857    1.0187    0.0731 C   0  0  0  0  0  0  0  0  0  0  0  0
   -0.5137    1.4554    0.4640 O   0  0  0  0  0  0  0  0  0  0  0  0
    0.4807    0.8828   -0.3165 C   0  0  0  0  0  0  0  0  0  0  0  0
    1.7602    1.4914    0.0440 C   0  0  0  0  0  0  0  0  0  0  0  0
    1.8648    2.3489    0.8930 O   0  0  0  0  0  0  0  0  0  0  0  0
    1.6488   -1.9850   -1.2798 H   0  0  0  0  0  0  0  0  0  0  0  0
    2.5987   -0.8494   -0.1668 H   0  0  0  0  0  0  0  0  0  0  0  0
    1.6535   -2.2018    0.4853 H   0  0  0  0  0  0  0  0  0  0  0  0
   -0.6340   -2.2619    0.3826 H   0  0  0  0  0  0  0  0  0  0  0  0
   -2.2989   -0.4920    1.5371 H   0  0  0  0  0  0  0  0  0  0  0  0
   -2.7790   -0.8402   -0.1476 H   0  0  0  0  0  0  0  0  0  0  0  0
   -2.5201    1.6405    0.6048 H   0  0  0  0  0  0  0  0  0  0  0  0
   -1.9069    1.1798   -1.0000 H   0  0  0  0  0  0  0  0  0  0  0  0
    0.2653    1.0497   -1.4003 H   0  0  0  0  0  0  0  0  0  0  0  0
    2.6597    1.1677   -0.4651 H   0  0  0  0  0  0  0  0  0  0  0  0
  1  2  1  0
  2  3  2  0
  3  4  1  0
  4  5  1  0
  5  6  1  0
  6  7  1  0
  7  8  1  0
  8  9  2  0
  7  2  1  0
  1 10  1  0
  1 11  1  0
  1 12  1  0
  3 13  1  0
  4 14  1  0
  4 15  1  0
  5 16  1  0
  5 17  1  0
  7 18  1  0
  8 19  1  0
M  END
