
     RDKit          3D

 23 23  0  0  0  0  0  0  0  0999 V2000
    2.7271   -0.6187   -0.1309 C   0  0  0  0  0  0  0  0  0  0  0  0
    1.2815   -0.2542    0.0449 C   0  0  0  0  0  0  0  0  0  0  0  0
    1.0329    1.0552    0.0105 C   0  0  0  0  0  0  0  0  0  0  0  0
    0.0032    2.0692    0.0966 C   0  0  0  0  0  0  0  0  0  0  0  0
   -1.3865    1.6655    0.2194 C   0  0  0  0  0  0  0  0  0  0  0  0
   -2.1601    0.6053    0.2567 C   0  0  0  0  0  0  0  0  0  0  0  0
   -1.9678   -0.8341    0.1840 C   0  0  0  0  0  0  0  0  0  0  0  0
   -0.8408   -1.3062   -0.6606 C   0  0  0  0  0  0  0  0  0  0  0  0
    0.4025   -1.4214    0.2234 C   0  0  0  0  0  0  0  0  0  0  0  0
    3.1494   -0.0464   -1.0057 H   0  0  0  0  0  0  0  0  0  0  0  0
    3.2907   -0.4112    0.7971 H   0  0  0  0  0  0  0  0  0  0  0  0
    2.7797   -1.6948   -0.3126 H   0  0  0  0  0  0  0  0  0  0  0  0
    2.0141    1.5496   -0.1476 H   0  0  0  0  0  0  0  0  0  0  0  0
    0.2002    2.8171    0.9234 H   0  0  0  0  0  0  0  0  0  0  0  0
    0.0770    2.7093   -0.8350 H   0  0  0  0  0  0  0  0  0  0  0  0
   -1.9877    2.5984    0.3139 H   0  0  0  0  0  0  0  0  0  0  0  0
   -3.2015    0.8889    0.3706 H   0  0  0  0  0  0  0  0  0  0  0  0
   -1.8708   -1.3359    1.1845 H   0  0  0  0  0  0  0  0  0  0  0  0
   -2.9128   -1.2811   -0.2458 H   0  0  0  0  0  0  0  0  0  0  0  0
   -1.0420   -2.3250   -1.0539 H   0  0  0  0  0  0  0  0  0  0  0  0
   -0.6654   -0.6575   -1.5344 H   0  0  0  0  0  0  0  0  0  0  0  0
    0.0959   -1.4324    1.3056 H   0  0  0  0  0  0  0  0  0  0  0  0
    0.9810   -2.3395   -0.0042 H   0  0  0  0  0  0  0  0  0  0  0  0
  1  2  1  0
  2  3  2  3
  3  4  1  0
  4  5  1  0
  5  6  2  3
  6  7  1  0
  7  8  1  0
  8  9  1  0
  9  2  1  0
  1 10  1  0
  1 11  1  0
  1 12  1  0
  3 13  1  0
  4 14  1  0
  4 15  1  0
  5 16  1  0
  6 17  1  0
  7 18  1  0
  7 19  1  0
  8 20  1  0
  8 21  1  0
  9 22  1  0
  9 23  1  0
M  END
