
     RDKit          3D

 23 24  0  0  0  0  0  0  0  0999 V2000
    2.9000   -0.1302   -0.8016 C   0  0  0  0  0  0  0  0  0  0  0  0
    1.4882   -0.2471   -0.4228 C   0  0  0  0  0  0  0  0  0  0  0  0
    0.5424   -1.1386   -0.7897 C   0  0  0  0  0  0  0  0  0  0  0  0
   -0.6641   -0.6385   -0.0582 C   0  0  0  0  0  0  0  0  0  0  0  0
   -1.9120   -1.3125   -0.1445 C   0  0  0  0  0  0  0  0  0  0  0  0
   -0.0310   -0.3550    1.3080 C   0  0  0  0  0  0  0  0  0  0  0  0
    0.7584    0.6476    0.5022 C   0  0  0  0  0  0  0  0  0  0  0  0
   -0.5430    0.8497   -0.2927 C   0  0  0  0  0  0  0  0  0  0  0  0
   -1.5298    1.7248    0.3669 C   0  0  0  0  0  0  0  0  0  0  0  0
    3.6011   -0.5364   -0.0246 H   0  0  0  0  0  0  0  0  0  0  0  0
    3.0977   -0.6201   -1.7762 H   0  0  0  0  0  0  0  0  0  0  0  0
    3.1558    0.9542   -0.8728 H   0  0  0  0  0  0  0  0  0  0  0  0
    0.6341   -1.9952   -1.4451 H   0  0  0  0  0  0  0  0  0  0  0  0
   -2.7461   -0.7919   -0.6914 H   0  0  0  0  0  0  0  0  0  0  0  0
   -2.3435   -1.5305    0.8680 H   0  0  0  0  0  0  0  0  0  0  0  0
   -1.8171   -2.3162   -0.6468 H   0  0  0  0  0  0  0  0  0  0  0  0
    0.5193   -1.2532    1.6239 H   0  0  0  0  0  0  0  0  0  0  0  0
   -0.6948    0.0206    2.0686 H   0  0  0  0  0  0  0  0  0  0  0  0
    1.2102    1.4771    0.9521 H   0  0  0  0  0  0  0  0  0  0  0  0
   -0.3022    1.1572   -1.3095 H   0  0  0  0  0  0  0  0  0  0  0  0
   -0.9971    2.6684    0.6865 H   0  0  0  0  0  0  0  0  0  0  0  0
   -2.0252    1.3340    1.2524 H   0  0  0  0  0  0  0  0  0  0  0  0
   -2.3016    2.0319   -0.3529 H   0  0  0  0  0  0  0  0  0  0  0  0
  1  2  1  0
  2  3  2  0
  3  4  1  0
  4  5  1  0
  4  6  1  0
  6  7  1  0
  7  8  1  0
  8  9  1  0
  7  2  1  0
  8  4  1  0
  1 10  1  0
  1 11  1  0
  1 12  1  0
  3 13  1  0
  5 14  1  0
  5 15  1  0
  5 16  1  0
  6 17  1  0
  6 18  1  0
  7 19  1  0
  8 20  1  0
  9 21  1  0
  9 22  1  0
  9 23  1  0
M  END
