
     RDKit          3D

 21 22  0  0  0  0  0  0  0  0999 V2000
    2.5736   -0.6292    0.3158 C   0  0  0  0  0  0  0  0  0  0  0  0
    1.1248   -0.2913    0.1450 C   0  0  0  0  0  0  0  0  0  0  0  0
    0.1620   -0.9601    0.7749 C   0  0  0  0  0  0  0  0  0  0  0  0
   -1.1478   -0.3048    0.3382 C   0  0  0  0  0  0  0  0  0  0  0  0
   -1.6947   -0.8319   -0.9087 C   0  0  0  0  0  0  0  0  0  0  0  0
   -2.0338   -0.5280    1.3867 O   0  0  0  0  0  0  0  0  0  0  0  0
   -0.6114    1.0867    0.3435 C   0  0  0  0  0  0  0  0  0  0  0  0
   -0.0489    1.9715   -0.5818 C   0  0  0  0  0  0  0  0  0  0  0  0
    0.4997    0.6942   -0.6876 C   0  0  0  0  0  0  0  0  0  0  0  0
    2.7805   -1.5047   -0.3353 H   0  0  0  0  0  0  0  0  0  0  0  0
    2.8101   -0.8718    1.3682 H   0  0  0  0  0  0  0  0  0  0  0  0
    3.1695    0.2203   -0.0409 H   0  0  0  0  0  0  0  0  0  0  0  0
    0.2618   -1.7968    1.4583 H   0  0  0  0  0  0  0  0  0  0  0  0
   -1.8947   -0.0966   -1.7113 H   0  0  0  0  0  0  0  0  0  0  0  0
   -1.0045   -1.6360   -1.2980 H   0  0  0  0  0  0  0  0  0  0  0  0
   -2.6600   -1.3601   -0.7338 H   0  0  0  0  0  0  0  0  0  0  0  0
   -2.0940    0.2267    2.0099 H   0  0  0  0  0  0  0  0  0  0  0  0
   -0.2521    1.2712    1.4104 H   0  0  0  0  0  0  0  0  0  0  0  0
   -0.7164    2.3966   -1.3807 H   0  0  0  0  0  0  0  0  0  0  0  0
    0.6405    2.8053   -0.2528 H   0  0  0  0  0  0  0  0  0  0  0  0
    0.1359    0.1388   -1.6201 H   0  0  0  0  0  0  0  0  0  0  0  0
  1  2  1  0
  2  3  2  0
  3  4  1  0
  4  5  1  0
  4  6  1  0
  4  7  1  0
  7  8  1  0
  8  9  1  0
  9  2  1  0
  9  7  1  0
  1 10  1  0
  1 11  1  0
  1 12  1  0
  3 13  1  0
  5 14  1  0
  5 15  1  0
  5 16  1  0
  6 17  1  0
  7 18  1  0
  8 19  1  0
  8 20  1  0
  9 21  1  0
M  END
