
     RDKit          3D

 19 19  0  0  0  0  0  0  0  0999 V2000
   -2.2933    0.1423   -0.0637 C   0  0  0  0  0  0  0  0  0  0  0  0
   -0.8086    0.2141   -0.0966 C   0  0  0  0  0  0  0  0  0  0  0  0
   -0.1848    1.3484    0.1643 C   0  0  0  0  0  0  0  0  0  0  0  0
    1.2917    1.4820    0.1470 C   0  0  0  0  0  0  0  0  0  0  0  0
    1.9687    0.1771    0.3209 C   0  0  0  0  0  0  0  0  0  0  0  0
    3.1692    0.0282    0.2615 O   0  0  0  0  0  0  0  0  0  0  0  0
    1.1390   -1.0278    0.5840 C   0  0  0  0  0  0  0  0  0  0  0  0
    0.0077   -0.9743   -0.4208 C   0  0  0  0  0  0  0  0  0  0  0  0
   -0.7280   -2.1443   -0.4663 O   0  0  0  0  0  0  0  0  0  0  0  0
   -2.7025    1.1440    0.1569 H   0  0  0  0  0  0  0  0  0  0  0  0
   -2.6153   -0.0968   -1.1120 H   0  0  0  0  0  0  0  0  0  0  0  0
   -2.6622   -0.6223    0.6527 H   0  0  0  0  0  0  0  0  0  0  0  0
   -0.7888    2.2239    0.4028 H   0  0  0  0  0  0  0  0  0  0  0  0
    1.6202    2.0008   -0.7884 H   0  0  0  0  0  0  0  0  0  0  0  0
    1.5584    2.1135    1.0352 H   0  0  0  0  0  0  0  0  0  0  0  0
    1.7117   -1.9613    0.4341 H   0  0  0  0  0  0  0  0  0  0  0  0
    0.7574   -0.9288    1.6268 H   0  0  0  0  0  0  0  0  0  0  0  0
    0.5006   -0.7951   -1.4206 H   0  0  0  0  0  0  0  0  0  0  0  0
   -0.9412   -2.3236   -1.4178 H   0  0  0  0  0  0  0  0  0  0  0  0
  1  2  1  0
  2  3  2  0
  3  4  1  0
  4  5  1  0
  5  6  2  0
  5  7  1  0
  7  8  1  0
  8  9  1  0
  8  2  1  0
  1 10  1  0
  1 11  1  0
  1 12  1  0
  3 13  1  0
  4 14  1  0
  4 15  1  0
  7 16  1  0
  7 17  1  0
  8 18  1  0
  9 19  1  0
M  END
