
     RDKit          3D

 23 24  0  0  0  0  0  0  0  0999 V2000
    1.8816    0.1376    1.4699 C   0  0  0  0  0  0  0  0  0  0  0  0
    0.9213   -0.3209    0.4341 C   0  0  0  0  0  0  0  0  0  0  0  0
    0.6639   -1.5753    0.0849 C   0  0  0  0  0  0  0  0  0  0  0  0
   -0.3665   -1.5963   -0.9966 C   0  0  0  0  0  0  0  0  0  0  0  0
   -0.8702   -0.2074   -1.1587 C   0  0  0  0  0  0  0  0  0  0  0  0
   -1.3348    0.6316   -0.0493 C   0  0  0  0  0  0  0  0  0  0  0  0
   -1.8699   -0.0717    1.1629 C   0  0  0  0  0  0  0  0  0  0  0  0
    0.0921    0.6088   -0.3763 C   0  0  0  0  0  0  0  0  0  0  0  0
    0.7608    1.7046   -1.1621 C   0  0  0  0  0  0  0  0  0  0  0  0
    2.3384    1.1097    1.2246 H   0  0  0  0  0  0  0  0  0  0  0  0
    2.7336   -0.5872    1.5529 H   0  0  0  0  0  0  0  0  0  0  0  0
    1.4117    0.2411    2.4748 H   0  0  0  0  0  0  0  0  0  0  0  0
    1.1057   -2.4585    0.4922 H   0  0  0  0  0  0  0  0  0  0  0  0
    0.1994   -1.8606   -1.9347 H   0  0  0  0  0  0  0  0  0  0  0  0
   -1.1264   -2.3656   -0.8488 H   0  0  0  0  0  0  0  0  0  0  0  0
   -1.1687    0.0672   -2.1832 H   0  0  0  0  0  0  0  0  0  0  0  0
   -1.8917    1.5464   -0.3202 H   0  0  0  0  0  0  0  0  0  0  0  0
   -2.9928   -0.1040    1.0399 H   0  0  0  0  0  0  0  0  0  0  0  0
   -1.6957    0.4610    2.1073 H   0  0  0  0  0  0  0  0  0  0  0  0
   -1.5623   -1.1378    1.2297 H   0  0  0  0  0  0  0  0  0  0  0  0
    1.6305    2.1389   -0.6670 H   0  0  0  0  0  0  0  0  0  0  0  0
   -0.0021    2.4177   -1.4689 H   0  0  0  0  0  0  0  0  0  0  0  0
    1.1421    1.2206   -2.1074 H   0  0  0  0  0  0  0  0  0  0  0  0
  1  2  1  0
  2  3  2  0
  3  4  1  0
  4  5  1  0
  5  6  1  0
  6  7  1  0
  6  8  1  0
  8  9  1  0
  8  2  1  0
  8  5  1  0
  1 10  1  0
  1 11  1  0
  1 12  1  0
  3 13  1  0
  4 14  1  0
  4 15  1  0
  5 16  1  0
  6 17  1  0
  7 18  1  0
  7 19  1  0
  7 20  1  0
  9 21  1  0
  9 22  1  0
  9 23  1  0
M  END
