
     RDKit          3D

 20 21  0  0  0  0  0  0  0  0999 V2000
    2.2935    0.6676    0.1325 C   0  0  0  0  0  0  0  0  0  0  0  0
    0.8046    0.5205   -0.0225 C   0  0  0  0  0  0  0  0  0  0  0  0
   -0.0052    1.4327   -0.5656 C   0  0  0  0  0  0  0  0  0  0  0  0
   -1.4140    0.8337   -0.4921 C   0  0  0  0  0  0  0  0  0  0  0  0
   -1.2218    0.2458    0.8758 C   0  0  0  0  0  0  0  0  0  0  0  0
   -0.8175   -0.9833    1.4051 C   0  0  0  0  0  0  0  0  0  0  0  0
   -0.0287   -0.6005    0.3160 C   0  0  0  0  0  0  0  0  0  0  0  0
   -0.3205   -1.4208   -0.9585 C   0  0  0  0  0  0  0  0  0  0  0  0
    2.5595    1.1571    1.0712 H   0  0  0  0  0  0  0  0  0  0  0  0
    2.7285    1.1964   -0.7640 H   0  0  0  0  0  0  0  0  0  0  0  0
    2.7469   -0.3517    0.1082 H   0  0  0  0  0  0  0  0  0  0  0  0
    0.2274    2.4055   -0.9849 H   0  0  0  0  0  0  0  0  0  0  0  0
   -1.6094    0.1384   -1.2954 H   0  0  0  0  0  0  0  0  0  0  0  0
   -2.1647    1.6513   -0.4629 H   0  0  0  0  0  0  0  0  0  0  0  0
   -0.9559    1.1242    1.5482 H   0  0  0  0  0  0  0  0  0  0  0  0
   -1.5254   -1.8487    1.3399 H   0  0  0  0  0  0  0  0  0  0  0  0
   -0.3003   -1.0461    2.4094 H   0  0  0  0  0  0  0  0  0  0  0  0
   -0.0052   -0.9539   -1.8790 H   0  0  0  0  0  0  0  0  0  0  0  0
   -1.3417   -1.8439   -0.9487 H   0  0  0  0  0  0  0  0  0  0  0  0
    0.3498   -2.3245   -0.8327 H   0  0  0  0  0  0  0  0  0  0  0  0
  1  2  1  0
  2  3  2  0
  3  4  1  0
  4  5  1  0
  5  6  1  0
  6  7  1  0
  7  8  1  0
  7  2  1  0
  7  5  1  0
  1  9  1  0
  1 10  1  0
  1 11  1  0
  3 12  1  0
  4 13  1  0
  4 14  1  0
  5 15  1  0
  6 16  1  0
  6 17  1  0
  8 18  1  0
  8 19  1  0
  8 20  1  0
M  END
