
     RDKit          3D

 17 17  0  0  0  0  0  0  0  0999 V2000
   -2.2826   -0.2418    0.1296 C   0  0  0  0  0  0  0  0  0  0  0  0
   -0.8167   -0.0937   -0.0716 C   0  0  0  0  0  0  0  0  0  0  0  0
   -0.0345   -1.1565   -0.2227 C   0  0  0  0  0  0  0  0  0  0  0  0
    1.4271   -1.0946   -0.4265 C   0  0  0  0  0  0  0  0  0  0  0  0
    1.9973    0.0803    0.2678 C   0  0  0  0  0  0  0  0  0  0  0  0
    3.1602    0.1202    0.7451 O   0  0  0  0  0  0  0  0  0  0  0  0
    1.1682    1.2858    0.4189 C   0  0  0  0  0  0  0  0  0  0  0  0
    1.6191    2.3042    0.9726 O   0  0  0  0  0  0  0  0  0  0  0  0
   -0.2229    1.2664   -0.1031 C   0  0  0  0  0  0  0  0  0  0  0  0
   -2.5757   -1.2774    0.3747 H   0  0  0  0  0  0  0  0  0  0  0  0
   -2.8593    0.0552   -0.7694 H   0  0  0  0  0  0  0  0  0  0  0  0
   -2.5627    0.3800    1.0063 H   0  0  0  0  0  0  0  0  0  0  0  0
   -0.5226   -2.1417   -0.1916 H   0  0  0  0  0  0  0  0  0  0  0  0
    1.8652   -2.0043    0.0744 H   0  0  0  0  0  0  0  0  0  0  0  0
    1.7093   -1.1335   -1.5087 H   0  0  0  0  0  0  0  0  0  0  0  0
   -0.8651    1.9952    0.4598 H   0  0  0  0  0  0  0  0  0  0  0  0
   -0.2043    1.6562   -1.1556 H   0  0  0  0  0  0  0  0  0  0  0  0
  1  2  1  0
  2  3  2  0
  3  4  1  0
  4  5  1  0
  5  6  2  0
  5  7  1  0
  7  8  2  0
  7  9  1  0
  9  2  1  0
  1 10  1  0
  1 11  1  0
  1 12  1  0
  3 13  1  0
  4 14  1  0
  4 15  1  0
  9 16  1  0
  9 17  1  0
M  END
