
     RDKit          3D

 19 19  0  0  0  0  0  0  0  0999 V2000
    2.7255    0.1621    0.1161 C   0  0  0  0  0  0  0  0  0  0  0  0
    1.2893   -0.2089    0.0665 C   0  0  0  0  0  0  0  0  0  0  0  0
    0.7493   -1.4004   -0.0267 C   0  0  0  0  0  0  0  0  0  0  0  0
   -0.6952   -1.3274   -0.0448 C   0  0  0  0  0  0  0  0  0  0  0  0
   -1.4979   -2.2529   -0.3163 O   0  0  0  0  0  0  0  0  0  0  0  0
   -1.0806    0.0519    0.3183 C   0  0  0  0  0  0  0  0  0  0  0  0
   -2.1126    0.6409   -0.6048 C   0  0  0  0  0  0  0  0  0  0  0  0
   -1.4891    0.1346    1.6511 O   0  0  0  0  0  0  0  0  0  0  0  0
    0.2089    0.8024    0.1194 C   0  0  0  0  0  0  0  0  0  0  0  0
    2.9637    0.9665   -0.6373 H   0  0  0  0  0  0  0  0  0  0  0  0
    3.3891   -0.6853   -0.1010 H   0  0  0  0  0  0  0  0  0  0  0  0
    2.9466    0.6240    1.1034 H   0  0  0  0  0  0  0  0  0  0  0  0
    1.3093   -2.3355   -0.0839 H   0  0  0  0  0  0  0  0  0  0  0  0
   -1.6498    1.1977   -1.4531 H   0  0  0  0  0  0  0  0  0  0  0  0
   -2.6816    1.4168   -0.0217 H   0  0  0  0  0  0  0  0  0  0  0  0
   -2.7737   -0.1272   -1.0262 H   0  0  0  0  0  0  0  0  0  0  0  0
   -2.2106   -0.5282    1.7834 H   0  0  0  0  0  0  0  0  0  0  0  0
    0.2292    1.3278   -0.8737 H   0  0  0  0  0  0  0  0  0  0  0  0
    0.3803    1.5412    0.9380 H   0  0  0  0  0  0  0  0  0  0  0  0
  1  2  1  0
  2  3  2  0
  3  4  1  0
  4  5  2  0
  4  6  1  0
  6  7  1  0
  6  8  1  0
  6  9  1  0
  9  2  1  0
  1 10  1  0
  1 11  1  0
  1 12  1  0
  3 13  1  0
  7 14  1  0
  7 15  1  0
  7 16  1  0
  8 17  1  0
  9 18  1  0
  9 19  1  0
M  END
