
     RDKit          3D

 21 21  0  0  0  0  0  0  0  0999 V2000
    2.6474    0.1155    0.1812 C   0  0  0  0  0  0  0  0  0  0  0  0
    1.2489   -0.2670   -0.1177 C   0  0  0  0  0  0  0  0  0  0  0  0
    0.8636   -1.1460   -1.0296 C   0  0  0  0  0  0  0  0  0  0  0  0
   -0.6059   -1.2330   -1.0059 C   0  0  0  0  0  0  0  0  0  0  0  0
   -1.3908   -1.6167   -1.8806 O   0  0  0  0  0  0  0  0  0  0  0  0
   -0.9760   -0.7400    0.3547 C   0  0  0  0  0  0  0  0  0  0  0  0
   -2.3752   -0.2283    0.4270 C   0  0  0  0  0  0  0  0  0  0  0  0
    0.0704    0.3036    0.5869 C   0  0  0  0  0  0  0  0  0  0  0  0
   -0.2629    1.6093   -0.1060 C   0  0  0  0  0  0  0  0  0  0  0  0
    2.7964   -0.0266    1.2908 H   0  0  0  0  0  0  0  0  0  0  0  0
    2.8566    1.1830   -0.0142 H   0  0  0  0  0  0  0  0  0  0  0  0
    3.3879   -0.5241   -0.3162 H   0  0  0  0  0  0  0  0  0  0  0  0
    1.4998   -1.7254   -1.7017 H   0  0  0  0  0  0  0  0  0  0  0  0
   -0.8063   -1.5728    1.0644 H   0  0  0  0  0  0  0  0  0  0  0  0
   -2.4655    0.6593    1.1105 H   0  0  0  0  0  0  0  0  0  0  0  0
   -2.8538   -0.0603   -0.5513 H   0  0  0  0  0  0  0  0  0  0  0  0
   -2.9929   -1.0267    0.9347 H   0  0  0  0  0  0  0  0  0  0  0  0
    0.2752    0.5070    1.6553 H   0  0  0  0  0  0  0  0  0  0  0  0
   -1.3025    1.9118   -0.0031 H   0  0  0  0  0  0  0  0  0  0  0  0
    0.4202    2.3777    0.3272 H   0  0  0  0  0  0  0  0  0  0  0  0
   -0.0348    1.4996   -1.2065 H   0  0  0  0  0  0  0  0  0  0  0  0
  1  2  1  0
  2  3  2  0
  3  4  1  0
  4  5  2  0
  4  6  1  0
  6  7  1  0
  6  8  1  0
  8  9  1  0
  8  2  1  0
  1 10  1  0
  1 11  1  0
  1 12  1  0
  3 13  1  0
  6 14  1  0
  7 15  1  0
  7 16  1  0
  7 17  1  0
  8 18  1  0
  9 19  1  0
  9 20  1  0
  9 21  1  0
M  END
