
     RDKit          3D

 21 21  0  0  0  0  0  0  0  0999 V2000
    3.0051   -0.0244   -0.0967 C   0  0  0  0  0  0  0  0  0  0  0  0
    1.5388    0.0123    0.1612 C   0  0  0  0  0  0  0  0  0  0  0  0
    1.1675    0.5764    1.2848 C   0  0  0  0  0  0  0  0  0  0  0  0
   -0.2044    0.7532    1.7979 C   0  0  0  0  0  0  0  0  0  0  0  0
   -1.3495    0.3588    1.2629 C   0  0  0  0  0  0  0  0  0  0  0  0
   -1.4887   -0.3747   -0.0206 C   0  0  0  0  0  0  0  0  0  0  0  0
   -2.8751   -0.0656   -0.6008 C   0  0  0  0  0  0  0  0  0  0  0  0
   -0.5694    0.0628   -0.9345 O   0  0  0  0  0  0  0  0  0  0  0  0
    0.6566   -0.5841   -0.8635 C   0  0  0  0  0  0  0  0  0  0  0  0
    3.3537   -1.0716   -0.1510 H   0  0  0  0  0  0  0  0  0  0  0  0
    3.2143    0.4341   -1.1030 H   0  0  0  0  0  0  0  0  0  0  0  0
    3.5380    0.5846    0.6450 H   0  0  0  0  0  0  0  0  0  0  0  0
    1.9749    0.9525    1.8988 H   0  0  0  0  0  0  0  0  0  0  0  0
   -0.3111    1.2669    2.7264 H   0  0  0  0  0  0  0  0  0  0  0  0
   -2.2712    0.5948    1.8159 H   0  0  0  0  0  0  0  0  0  0  0  0
   -1.4617   -1.4703    0.1559 H   0  0  0  0  0  0  0  0  0  0  0  0
   -3.5936   -0.7913   -0.2128 H   0  0  0  0  0  0  0  0  0  0  0  0
   -2.8565   -0.0363   -1.7031 H   0  0  0  0  0  0  0  0  0  0  0  0
   -3.1748    0.9399   -0.2508 H   0  0  0  0  0  0  0  0  0  0  0  0
    1.1564   -0.4311   -1.8456 H   0  0  0  0  0  0  0  0  0  0  0  0
    0.5508   -1.6870   -0.7491 H   0  0  0  0  0  0  0  0  0  0  0  0
  1  2  1  0
  2  3  2  0
  3  4  1  0
  4  5  2  0
  5  6  1  0
  6  7  1  0
  6  8  1  0
  8  9  1  0
  9  2  1  0
  1 10  1  0
  1 11  1  0
  1 12  1  0
  3 13  1  0
  4 14  1  0
  5 15  1  0
  6 16  1  0
  7 17  1  0
  7 18  1  0
  7 19  1  0
  9 20  1  0
  9 21  1  0
M  END
