
     RDKit          3D

 19 19  0  0  0  0  0  0  0  0999 V2000
    2.3744   -0.4745   -0.4296 C   0  0  0  0  0  0  0  0  0  0  0  0
    0.9004   -0.2224   -0.4071 C   0  0  0  0  0  0  0  0  0  0  0  0
    0.0939   -1.2554   -0.1476 C   0  0  0  0  0  0  0  0  0  0  0  0
   -1.3947   -1.3398   -0.0533 C   0  0  0  0  0  0  0  0  0  0  0  0
   -1.9521   -0.2526    0.7865 C   0  0  0  0  0  0  0  0  0  0  0  0
   -3.0168   -0.5417    1.3877 O   0  0  0  0  0  0  0  0  0  0  0  0
   -1.4712    1.0778    1.0236 C   0  0  0  0  0  0  0  0  0  0  0  0
   -0.4522    1.6772    0.3923 C   0  0  0  0  0  0  0  0  0  0  0  0
    0.4296    1.1717   -0.6771 C   0  0  0  0  0  0  0  0  0  0  0  0
    2.8567    0.4497   -0.0033 H   0  0  0  0  0  0  0  0  0  0  0  0
    2.6652   -1.2981    0.2328 H   0  0  0  0  0  0  0  0  0  0  0  0
    2.7673   -0.6228   -1.4413 H   0  0  0  0  0  0  0  0  0  0  0  0
    0.6530   -2.1712    0.0170 H   0  0  0  0  0  0  0  0  0  0  0  0
   -1.8258   -1.1906   -1.0823 H   0  0  0  0  0  0  0  0  0  0  0  0
   -1.6565   -2.3464    0.3096 H   0  0  0  0  0  0  0  0  0  0  0  0
   -1.9810    1.6546    1.7872 H   0  0  0  0  0  0  0  0  0  0  0  0
   -0.2556    2.6712    0.7191 H   0  0  0  0  0  0  0  0  0  0  0  0
    1.3378    1.8050   -0.7379 H   0  0  0  0  0  0  0  0  0  0  0  0
   -0.0725    1.2082   -1.6764 H   0  0  0  0  0  0  0  0  0  0  0  0
  1  2  1  0
  2  3  2  0
  3  4  1  0
  4  5  1  0
  5  6  2  0
  5  7  1  0
  7  8  2  0
  8  9  1  0
  9  2  1  0
  1 10  1  0
  1 11  1  0
  1 12  1  0
  3 13  1  0
  4 14  1  0
  4 15  1  0
  7 16  1  0
  8 17  1  0
  9 18  1  0
  9 19  1  0
M  END
