
     RDKit          3D

 21 22  0  0  0  0  0  0  0  0999 V2000
    2.7718   -0.3136   -0.2007 C   0  0  0  0  0  0  0  0  0  0  0  0
    1.3272    0.0572   -0.2101 C   0  0  0  0  0  0  0  0  0  0  0  0
    0.7772    1.1354   -0.7780 C   0  0  0  0  0  0  0  0  0  0  0  0
   -0.6816    1.0748   -0.5337 C   0  0  0  0  0  0  0  0  0  0  0  0
   -0.8694    1.2178    0.9374 C   0  0  0  0  0  0  0  0  0  0  0  0
   -0.3208    0.1446    1.5017 C   0  0  0  0  0  0  0  0  0  0  0  0
    0.2114   -0.7086    0.4160 C   0  0  0  0  0  0  0  0  0  0  0  0
   -0.8744   -0.4524   -0.6501 C   0  0  0  0  0  0  0  0  0  0  0  0
   -2.2163   -0.8893   -0.2095 C   0  0  0  0  0  0  0  0  0  0  0  0
    3.3693    0.4863   -0.6560 H   0  0  0  0  0  0  0  0  0  0  0  0
    3.1490   -0.4219    0.8539 H   0  0  0  0  0  0  0  0  0  0  0  0
    2.9489   -1.3047   -0.6715 H   0  0  0  0  0  0  0  0  0  0  0  0
    1.3138    1.9039   -1.3151 H   0  0  0  0  0  0  0  0  0  0  0  0
   -1.3134    1.6477   -1.1588 H   0  0  0  0  0  0  0  0  0  0  0  0
   -1.3476    2.0111    1.4992 H   0  0  0  0  0  0  0  0  0  0  0  0
   -0.2570   -0.0935    2.5517 H   0  0  0  0  0  0  0  0  0  0  0  0
    0.3886   -1.7278    0.6289 H   0  0  0  0  0  0  0  0  0  0  0  0
   -0.5562   -0.7536   -1.6405 H   0  0  0  0  0  0  0  0  0  0  0  0
   -2.5865   -1.7588   -0.8036 H   0  0  0  0  0  0  0  0  0  0  0  0
   -2.2752   -1.1856    0.8606 H   0  0  0  0  0  0  0  0  0  0  0  0
   -2.9590   -0.0691   -0.4218 H   0  0  0  0  0  0  0  0  0  0  0  0
  1  2  1  0
  2  3  2  0
  3  4  1  0
  4  5  1  0
  5  6  2  0
  6  7  1  0
  7  8  1  0
  8  9  1  0
  7  2  1  0
  8  4  1  0
  1 10  1  0
  1 11  1  0
  1 12  1  0
  3 13  1  0
  4 14  1  0
  5 15  1  0
  6 16  1  0
  7 17  1  0
  8 18  1  0
  9 19  1  0
  9 20  1  0
  9 21  1  0
M  END
