
     RDKit          3D

 21 22  0  0  0  0  0  0  0  0999 V2000
    3.0935   -0.3082    0.0701 C   0  0  0  0  0  0  0  0  0  0  0  0
    1.6233   -0.2161    0.1169 C   0  0  0  0  0  0  0  0  0  0  0  0
    0.8552   -0.8570    0.9678 C   0  0  0  0  0  0  0  0  0  0  0  0
   -0.5498   -0.5454    0.7443 C   0  0  0  0  0  0  0  0  0  0  0  0
   -1.7896   -0.5120    1.1847 C   0  0  0  0  0  0  0  0  0  0  0  0
   -2.6986    0.0313    0.1422 C   0  0  0  0  0  0  0  0  0  0  0  0
   -1.6996    0.9544   -0.5855 C   0  0  0  0  0  0  0  0  0  0  0  0
   -0.5425   -0.0150   -0.6799 C   0  0  0  0  0  0  0  0  0  0  0  0
    0.8054    0.6367   -0.8184 C   0  0  0  0  0  0  0  0  0  0  0  0
    3.5016   -0.0211   -0.9264 H   0  0  0  0  0  0  0  0  0  0  0  0
    3.5505    0.3535    0.8285 H   0  0  0  0  0  0  0  0  0  0  0  0
    3.4631   -1.3290    0.2763 H   0  0  0  0  0  0  0  0  0  0  0  0
    1.1980   -1.5400    1.7512 H   0  0  0  0  0  0  0  0  0  0  0  0
   -2.1038   -0.8328    2.1622 H   0  0  0  0  0  0  0  0  0  0  0  0
   -2.9309   -0.7665   -0.5833 H   0  0  0  0  0  0  0  0  0  0  0  0
   -3.5512    0.5737    0.5288 H   0  0  0  0  0  0  0  0  0  0  0  0
   -2.0806    1.2868   -1.5491 H   0  0  0  0  0  0  0  0  0  0  0  0
   -1.3971    1.7781    0.0979 H   0  0  0  0  0  0  0  0  0  0  0  0
   -0.7270   -0.8369   -1.3654 H   0  0  0  0  0  0  0  0  0  0  0  0
    1.2072    0.4857   -1.8512 H   0  0  0  0  0  0  0  0  0  0  0  0
    0.7728    1.6797   -0.5118 H   0  0  0  0  0  0  0  0  0  0  0  0
  1  2  1  0
  2  3  2  0
  3  4  1  0
  4  5  2  0
  5  6  1  0
  6  7  1  0
  7  8  1  0
  8  9  1  0
  9  2  1  0
  8  4  1  0
  1 10  1  0
  1 11  1  0
  1 12  1  0
  3 13  1  0
  5 14  1  0
  6 15  1  0
  6 16  1  0
  7 17  1  0
  7 18  1  0
  8 19  1  0
  9 20  1  0
  9 21  1  0
M  END
