
     RDKit          3D

 20 21  0  0  0  0  0  0  0  0999 V2000
    2.7380    0.1072    0.3134 C   0  0  0  0  0  0  0  0  0  0  0  0
    1.2623    0.0104    0.1486 C   0  0  0  0  0  0  0  0  0  0  0  0
    0.3583    0.9967    0.2873 C   0  0  0  0  0  0  0  0  0  0  0  0
   -0.9164    0.3309    0.0320 C   0  0  0  0  0  0  0  0  0  0  0  0
   -2.1770    1.0024    0.0760 C   0  0  0  0  0  0  0  0  0  0  0  0
   -0.5667   -0.5370   -1.1870 C   0  0  0  0  0  0  0  0  0  0  0  0
    0.4108   -1.1522   -0.2002 C   0  0  0  0  0  0  0  0  0  0  0  0
   -0.7280   -0.9751    0.8160 C   0  0  0  0  0  0  0  0  0  0  0  0
    3.1500    0.5006   -0.6363 H   0  0  0  0  0  0  0  0  0  0  0  0
    3.1506   -0.8864    0.5751 H   0  0  0  0  0  0  0  0  0  0  0  0
    2.9558    0.7930    1.1680 H   0  0  0  0  0  0  0  0  0  0  0  0
    0.4965    2.0397    0.5278 H   0  0  0  0  0  0  0  0  0  0  0  0
   -2.0691    2.0819   -0.1150 H   0  0  0  0  0  0  0  0  0  0  0  0
   -2.6809    0.8870    1.0569 H   0  0  0  0  0  0  0  0  0  0  0  0
   -2.8825    0.5999   -0.6920 H   0  0  0  0  0  0  0  0  0  0  0  0
   -1.3573   -1.2037   -1.5192 H   0  0  0  0  0  0  0  0  0  0  0  0
   -0.1013    0.0562   -1.9924 H   0  0  0  0  0  0  0  0  0  0  0  0
    0.8064   -2.1052   -0.3619 H   0  0  0  0  0  0  0  0  0  0  0  0
   -1.5212   -1.7050    0.6831 H   0  0  0  0  0  0  0  0  0  0  0  0
   -0.3283   -0.8415    1.8290 H   0  0  0  0  0  0  0  0  0  0  0  0
  1  2  1  0
  2  3  2  0
  3  4  1  0
  4  5  1  0
  4  6  1  0
  6  7  1  0
  7  8  1  0
  7  2  1  0
  8  4  1  0
  1  9  1  0
  1 10  1  0
  1 11  1  0
  3 12  1  0
  5 13  1  0
  5 14  1  0
  5 15  1  0
  6 16  1  0
  6 17  1  0
  7 18  1  0
  8 19  1  0
  8 20  1  0
M  END
