
     RDKit          3D

 20 21  0  0  0  0  0  0  0  0999 V2000
    2.2925   -0.1642    0.2828 C   0  0  0  0  0  0  0  0  0  0  0  0
    0.8448   -0.4514    0.1005 C   0  0  0  0  0  0  0  0  0  0  0  0
    0.2607   -1.6681   -0.0484 C   0  0  0  0  0  0  0  0  0  0  0  0
   -1.1609   -1.3311   -0.2438 C   0  0  0  0  0  0  0  0  0  0  0  0
   -1.0487   -0.1208   -1.1838 C   0  0  0  0  0  0  0  0  0  0  0  0
   -0.3063    0.4563    0.0332 C   0  0  0  0  0  0  0  0  0  0  0  0
   -0.1676    1.8788    0.1463 C   0  0  0  0  0  0  0  0  0  0  0  0
   -1.3846   -0.2657    0.8291 C   0  0  0  0  0  0  0  0  0  0  0  0
    2.9361   -0.9561   -0.1510 H   0  0  0  0  0  0  0  0  0  0  0  0
    2.5795   -0.0461    1.3315 H   0  0  0  0  0  0  0  0  0  0  0  0
    2.5886    0.7799   -0.2424 H   0  0  0  0  0  0  0  0  0  0  0  0
    0.7815   -2.6250   -0.0190 H   0  0  0  0  0  0  0  0  0  0  0  0
   -1.8957   -2.0495   -0.4250 H   0  0  0  0  0  0  0  0  0  0  0  0
   -2.0295    0.3275   -1.3564 H   0  0  0  0  0  0  0  0  0  0  0  0
   -0.4006   -0.2922   -2.0582 H   0  0  0  0  0  0  0  0  0  0  0  0
    0.8705    2.1981   -0.0957 H   0  0  0  0  0  0  0  0  0  0  0  0
   -0.8256    2.4113   -0.5679 H   0  0  0  0  0  0  0  0  0  0  0  0
   -0.4564    2.2342    1.1560 H   0  0  0  0  0  0  0  0  0  0  0  0
   -1.1194   -0.5560    1.8396 H   0  0  0  0  0  0  0  0  0  0  0  0
   -2.3590    0.2401    0.6726 H   0  0  0  0  0  0  0  0  0  0  0  0
  1  2  1  0
  2  3  2  0
  3  4  1  0
  4  5  1  0
  5  6  1  0
  6  7  1  0
  6  8  1  0
  6  2  1  0
  8  4  1  0
  1  9  1  0
  1 10  1  0
  1 11  1  0
  3 12  1  0
  4 13  1  0
  5 14  1  0
  5 15  1  0
  7 16  1  0
  7 17  1  0
  7 18  1  0
  8 19  1  0
  8 20  1  0
M  END
