
     RDKit          3D

 21 22  0  0  0  0  0  0  0  0999 V2000
   -1.8983    1.6759    0.1306 C   0  0  0  0  0  0  0  0  0  0  0  0
   -0.7712    0.6796   -0.0195 C   0  0  0  0  0  0  0  0  0  0  0  0
    0.5043    1.0126    0.0866 C   0  0  0  0  0  0  0  0  0  0  0  0
    1.2891   -0.2284   -0.1209 C   0  0  0  0  0  0  0  0  0  0  0  0
    2.6348   -0.2559    0.4997 C   0  0  0  0  0  0  0  0  0  0  0  0
    2.4277   -0.2728   -1.0221 C   0  0  0  0  0  0  0  0  0  0  0  0
    0.3859   -1.2628    0.0433 O   0  0  0  0  0  0  0  0  0  0  0  0
   -0.8580   -0.7533   -0.2957 C   0  0  0  0  0  0  0  0  0  0  0  0
   -1.9739   -1.4400    0.4608 C   0  0  0  0  0  0  0  0  0  0  0  0
   -2.7960    1.1557    0.4844 H   0  0  0  0  0  0  0  0  0  0  0  0
   -2.0244    2.1896   -0.8389 H   0  0  0  0  0  0  0  0  0  0  0  0
   -1.6254    2.4612    0.8725 H   0  0  0  0  0  0  0  0  0  0  0  0
    0.9163    2.0136    0.2896 H   0  0  0  0  0  0  0  0  0  0  0  0
    3.0691    0.6732    0.9238 H   0  0  0  0  0  0  0  0  0  0  0  0
    2.9715   -1.2085    0.9713 H   0  0  0  0  0  0  0  0  0  0  0  0
    2.7106    0.6790   -1.5503 H   0  0  0  0  0  0  0  0  0  0  0  0
    2.7415   -1.1849   -1.5441 H   0  0  0  0  0  0  0  0  0  0  0  0
   -1.0442   -0.9808   -1.3821 H   0  0  0  0  0  0  0  0  0  0  0  0
   -2.9290   -1.4339   -0.0635 H   0  0  0  0  0  0  0  0  0  0  0  0
   -1.6674   -2.5080    0.5865 H   0  0  0  0  0  0  0  0  0  0  0  0
   -2.0629   -1.0114    1.4878 H   0  0  0  0  0  0  0  0  0  0  0  0
  1  2  1  0
  2  3  2  0
  3  4  1  0
  4  5  1  0
  5  6  1  0
  4  7  1  0
  7  8  1  0
  8  9  1  0
  8  2  1  0
  6  4  1  0
  1 10  1  0
  1 11  1  0
  1 12  1  0
  3 13  1  0
  5 14  1  0
  5 15  1  0
  6 16  1  0
  6 17  1  0
  8 18  1  0
  9 19  1  0
  9 20  1  0
  9 21  1  0
M  END
