
     RDKit          3D

 23 23  0  0  0  0  0  0  0  0999 V2000
    2.7100   -0.6399   -0.3059 C   0  0  0  0  0  0  0  0  0  0  0  0
    1.3551   -0.1906    0.1073 C   0  0  0  0  0  0  0  0  0  0  0  0
    0.5548   -1.2142    0.4515 C   0  0  0  0  0  0  0  0  0  0  0  0
   -0.8210   -1.3556    0.9176 C   0  0  0  0  0  0  0  0  0  0  0  0
   -1.8669   -0.8498   -0.0209 C   0  0  0  0  0  0  0  0  0  0  0  0
   -2.1537    0.6213    0.1403 C   0  0  0  0  0  0  0  0  0  0  0  0
   -1.2965    1.4655   -0.7037 C   0  0  0  0  0  0  0  0  0  0  0  0
    0.0256    1.7112   -0.7298 C   0  0  0  0  0  0  0  0  0  0  0  0
    1.1997    1.2682    0.0455 C   0  0  0  0  0  0  0  0  0  0  0  0
    2.8183   -1.7466   -0.1870 H   0  0  0  0  0  0  0  0  0  0  0  0
    2.9994   -0.2811   -1.3006 H   0  0  0  0  0  0  0  0  0  0  0  0
    3.4253   -0.1601    0.4222 H   0  0  0  0  0  0  0  0  0  0  0  0
    1.1254   -2.1527    0.3357 H   0  0  0  0  0  0  0  0  0  0  0  0
   -1.0232   -0.9238    1.9155 H   0  0  0  0  0  0  0  0  0  0  0  0
   -1.0131   -2.4640    1.0432 H   0  0  0  0  0  0  0  0  0  0  0  0
   -1.6528   -1.1203   -1.0857 H   0  0  0  0  0  0  0  0  0  0  0  0
   -2.8131   -1.3893    0.2264 H   0  0  0  0  0  0  0  0  0  0  0  0
   -3.1997    0.7966   -0.1500 H   0  0  0  0  0  0  0  0  0  0  0  0
   -2.0633    0.8489    1.2234 H   0  0  0  0  0  0  0  0  0  0  0  0
   -1.8322    2.0252   -1.4894 H   0  0  0  0  0  0  0  0  0  0  0  0
    0.2567    2.4099   -1.5262 H   0  0  0  0  0  0  0  0  0  0  0  0
    2.1023    1.7018   -0.4304 H   0  0  0  0  0  0  0  0  0  0  0  0
    1.1630    1.6394    1.1011 H   0  0  0  0  0  0  0  0  0  0  0  0
  1  2  1  0
  2  3  2  3
  3  4  1  0
  4  5  1  0
  5  6  1  0
  6  7  1  0
  7  8  2  3
  8  9  1  0
  9  2  1  0
  1 10  1  0
  1 11  1  0
  1 12  1  0
  3 13  1  0
  4 14  1  0
  4 15  1  0
  5 16  1  0
  5 17  1  0
  6 18  1  0
  6 19  1  0
  7 20  1  0
  8 21  1  0
  9 22  1  0
  9 23  1  0
M  END
