
     RDKit          3D

 17 19  0  0  0  0  0  0  0  0999 V2000
    2.4152    0.0367   -0.0512 C   0  0  0  0  0  0  0  0  0  0  0  0
    0.9376   -0.0217   -0.0430 C   0  0  0  0  0  0  0  0  0  0  0  0
    0.2256   -0.7587   -0.9101 C   0  0  0  0  0  0  0  0  0  0  0  0
   -1.2673   -0.6362   -0.7488 C   0  0  0  0  0  0  0  0  0  0  0  0
   -1.6979   -0.4605    0.6409 C   0  0  0  0  0  0  0  0  0  0  0  0
   -0.7163   -0.2110    1.5650 O   0  0  0  0  0  0  0  0  0  0  0  0
    0.0973    0.7450    0.9445 C   0  0  0  0  0  0  0  0  0  0  0  0
   -0.7605    1.5349    0.1816 O   0  0  0  0  0  0  0  0  0  0  0  0
   -1.7162    0.6815   -0.3050 C   0  0  0  0  0  0  0  0  0  0  0  0
    2.7201    1.0961   -0.2756 H   0  0  0  0  0  0  0  0  0  0  0  0
    2.7787   -0.6696   -0.7996 H   0  0  0  0  0  0  0  0  0  0  0  0
    2.7611   -0.1841    0.9770 H   0  0  0  0  0  0  0  0  0  0  0  0
    0.6811   -1.3756   -1.6472 H   0  0  0  0  0  0  0  0  0  0  0  0
   -1.8740   -1.2004   -1.4505 H   0  0  0  0  0  0  0  0  0  0  0  0
   -2.6218   -0.9788    0.9568 H   0  0  0  0  0  0  0  0  0  0  0  0
    0.6951    1.3018    1.6639 H   0  0  0  0  0  0  0  0  0  0  0  0
   -2.6575    1.1006   -0.6987 H   0  0  0  0  0  0  0  0  0  0  0  0
  1  2  1  0
  2  3  2  0
  3  4  1  0
  4  5  1  0
  5  6  1  0
  6  7  1  0
  7  8  1  0
  8  9  1  0
  7  2  1  0
  9  4  1  0
  9  5  1  0
  1 10  1  0
  1 11  1  0
  1 12  1  0
  3 13  1  0
  4 14  1  0
  5 15  1  0
  7 16  1  0
  9 17  1  0
M  END
