
     RDKit          3D

 21 22  0  0  0  0  0  0  0  0999 V2000
    2.5483   -0.8078    0.2795 C   0  0  0  0  0  0  0  0  0  0  0  0
    1.1250   -0.3561    0.0631 C   0  0  0  0  0  0  0  0  0  0  0  0
    0.1651   -1.2648    0.2129 C   0  0  0  0  0  0  0  0  0  0  0  0
   -1.2479   -1.2300   -0.3244 C   0  0  0  0  0  0  0  0  0  0  0  0
   -2.1013   -0.2717    0.4507 C   0  0  0  0  0  0  0  0  0  0  0  0
   -1.5677    0.7497   -0.5616 C   0  0  0  0  0  0  0  0  0  0  0  0
   -0.4567    1.5345   -0.0094 C   0  0  0  0  0  0  0  0  0  0  0  0
    0.9219    1.0805   -0.3022 C   0  0  0  0  0  0  0  0  0  0  0  0
   -1.2705   -0.2926   -1.3861 O   0  0  0  0  0  0  0  0  0  0  0  0
    2.6332   -1.8996    0.0390 H   0  0  0  0  0  0  0  0  0  0  0  0
    2.9150   -0.5712    1.2771 H   0  0  0  0  0  0  0  0  0  0  0  0
    3.1605   -0.2895   -0.4985 H   0  0  0  0  0  0  0  0  0  0  0  0
    0.4673   -2.1150    0.7930 H   0  0  0  0  0  0  0  0  0  0  0  0
   -1.6643   -2.2015   -0.5778 H   0  0  0  0  0  0  0  0  0  0  0  0
   -1.8200   -0.0727    1.4876 H   0  0  0  0  0  0  0  0  0  0  0  0
   -3.1754   -0.4776    0.2516 H   0  0  0  0  0  0  0  0  0  0  0  0
   -2.3976    1.3670   -1.0112 H   0  0  0  0  0  0  0  0  0  0  0  0
   -0.5557    2.5923   -0.3337 H   0  0  0  0  0  0  0  0  0  0  0  0
   -0.5712    1.5704    1.1134 H   0  0  0  0  0  0  0  0  0  0  0  0
    1.2749    1.2869   -1.3294 H   0  0  0  0  0  0  0  0  0  0  0  0
    1.6173    1.6688    0.3665 H   0  0  0  0  0  0  0  0  0  0  0  0
  1  2  1  0
  2  3  2  0
  3  4  1  0
  4  5  1  0
  5  6  1  0
  6  7  1  0
  7  8  1  0
  6  9  1  0
  8  2  1  0
  9  4  1  0
  1 10  1  0
  1 11  1  0
  1 12  1  0
  3 13  1  0
  4 14  1  0
  5 15  1  0
  5 16  1  0
  6 17  1  0
  7 18  1  0
  7 19  1  0
  8 20  1  0
  8 21  1  0
M  END
