
     RDKit          3D

 17 17  0  0  0  0  0  0  0  0999 V2000
   -1.5697   -1.2993   -0.2084 C   0  0  0  0  0  0  0  0  0  0  0  0
   -0.2560   -0.6317   -0.1118 C   0  0  0  0  0  0  0  0  0  0  0  0
   -0.0805    0.6569    0.0848 C   0  0  0  0  0  0  0  0  0  0  0  0
   -1.1512    1.6748    0.2453 C   0  0  0  0  0  0  0  0  0  0  0  0
    1.3376    0.9760    0.1275 C   0  0  0  0  0  0  0  0  0  0  0  0
    1.8515    2.1092    0.2578 O   0  0  0  0  0  0  0  0  0  0  0  0
    2.1138   -0.2761   -0.0101 C   0  0  0  0  0  0  0  0  0  0  0  0
    1.0400   -1.2901   -0.2183 C   0  0  0  0  0  0  0  0  0  0  0  0
    1.1849   -2.5297   -0.4517 O   0  0  0  0  0  0  0  0  0  0  0  0
   -2.2147   -0.8515   -0.9972 H   0  0  0  0  0  0  0  0  0  0  0  0
   -1.4779   -2.3810   -0.4297 H   0  0  0  0  0  0  0  0  0  0  0  0
   -2.0851   -1.2399    0.7870 H   0  0  0  0  0  0  0  0  0  0  0  0
   -1.0768    2.3726   -0.6144 H   0  0  0  0  0  0  0  0  0  0  0  0
   -2.1544    1.2193    0.3275 H   0  0  0  0  0  0  0  0  0  0  0  0
   -0.8753    2.2729    1.1487 H   0  0  0  0  0  0  0  0  0  0  0  0
    2.7849   -0.2876   -0.8829 H   0  0  0  0  0  0  0  0  0  0  0  0
    2.6290   -0.4948    0.9459 H   0  0  0  0  0  0  0  0  0  0  0  0
  1  2  1  0
  2  3  2  0
  3  4  1  0
  3  5  1  0
  5  6  2  0
  5  7  1  0
  7  8  1  0
  8  9  2  0
  8  2  1  0
  1 10  1  0
  1 11  1  0
  1 12  1  0
  4 13  1  0
  4 14  1  0
  4 15  1  0
  7 16  1  0
  7 17  1  0
M  END
