
     RDKit          3D

 21 22  0  0  0  0  0  0  0  0999 V2000
    2.5573   -0.7234   -0.0401 C   0  0  0  0  0  0  0  0  0  0  0  0
    1.2668   -0.0449    0.1307 C   0  0  0  0  0  0  0  0  0  0  0  0
    0.9391    0.8435    1.0987 C   0  0  0  0  0  0  0  0  0  0  0  0
   -0.3631    1.5004    0.7653 C   0  0  0  0  0  0  0  0  0  0  0  0
   -0.3134    1.3632   -0.7709 C   0  0  0  0  0  0  0  0  0  0  0  0
    0.0067   -0.1394   -0.6801 C   0  0  0  0  0  0  0  0  0  0  0  0
   -1.0771   -0.5350    0.2930 C   0  0  0  0  0  0  0  0  0  0  0  0
   -2.2660   -1.1507   -0.3612 C   0  0  0  0  0  0  0  0  0  0  0  0
   -1.3858    0.6065    1.0443 O   0  0  0  0  0  0  0  0  0  0  0  0
    2.4107   -1.8246   -0.2311 H   0  0  0  0  0  0  0  0  0  0  0  0
    3.1589   -0.3465   -0.8785 H   0  0  0  0  0  0  0  0  0  0  0  0
    3.1065   -0.6867    0.9406 H   0  0  0  0  0  0  0  0  0  0  0  0
    1.5111    1.0691    1.9931 H   0  0  0  0  0  0  0  0  0  0  0  0
   -0.4836    2.4974    1.1079 H   0  0  0  0  0  0  0  0  0  0  0  0
   -1.2771    1.5497   -1.2300 H   0  0  0  0  0  0  0  0  0  0  0  0
    0.5264    1.9417   -1.1352 H   0  0  0  0  0  0  0  0  0  0  0  0
    0.0655   -0.6493   -1.5957 H   0  0  0  0  0  0  0  0  0  0  0  0
   -0.6295   -1.2612    1.0268 H   0  0  0  0  0  0  0  0  0  0  0  0
   -3.1679   -1.0383    0.2755 H   0  0  0  0  0  0  0  0  0  0  0  0
   -2.5043   -0.7134   -1.3413 H   0  0  0  0  0  0  0  0  0  0  0  0
   -2.0811   -2.2581   -0.4119 H   0  0  0  0  0  0  0  0  0  0  0  0
  1  2  1  0
  2  3  2  0
  3  4  1  0
  4  5  1  0
  5  6  1  0
  6  7  1  0
  7  8  1  0
  7  9  1  0
  6  2  1  0
  9  4  1  0
  1 10  1  0
  1 11  1  0
  1 12  1  0
  3 13  1  0
  4 14  1  0
  5 15  1  0
  5 16  1  0
  6 17  1  0
  7 18  1  0
  8 19  1  0
  8 20  1  0
  8 21  1  0
M  END
