
     RDKit          3D

 21 22  0  0  0  0  0  0  0  0999 V2000
    2.2012   -0.7327    0.0883 C   0  0  0  0  0  0  0  0  0  0  0  0
    0.7367   -0.6432    0.0690 C   0  0  0  0  0  0  0  0  0  0  0  0
   -0.1260   -1.6413    0.2093 C   0  0  0  0  0  0  0  0  0  0  0  0
   -1.5053   -1.0715    0.0770 C   0  0  0  0  0  0  0  0  0  0  0  0
   -1.7402   -0.1600    1.2332 C   0  0  0  0  0  0  0  0  0  0  0  0
   -0.8177    0.7986    1.1484 C   0  0  0  0  0  0  0  0  0  0  0  0
   -0.0560    0.5860   -0.1119 C   0  0  0  0  0  0  0  0  0  0  0  0
    0.6121    1.7423   -0.6742 C   0  0  0  0  0  0  0  0  0  0  0  0
   -1.1938    0.0122   -0.9799 C   0  0  0  0  0  0  0  0  0  0  0  0
    2.5291   -1.6996   -0.3365 H   0  0  0  0  0  0  0  0  0  0  0  0
    2.6710    0.0934   -0.5082 H   0  0  0  0  0  0  0  0  0  0  0  0
    2.6226   -0.6263    1.1113 H   0  0  0  0  0  0  0  0  0  0  0  0
    0.0460   -2.6925    0.3871 H   0  0  0  0  0  0  0  0  0  0  0  0
   -2.2755   -1.7379   -0.1839 H   0  0  0  0  0  0  0  0  0  0  0  0
   -2.4981   -0.2346    2.0026 H   0  0  0  0  0  0  0  0  0  0  0  0
   -0.7012    1.5659    1.9040 H   0  0  0  0  0  0  0  0  0  0  0  0
    0.6318    1.6664   -1.7946 H   0  0  0  0  0  0  0  0  0  0  0  0
    1.6348    1.8341   -0.2675 H   0  0  0  0  0  0  0  0  0  0  0  0
    0.0812    2.6740   -0.4103 H   0  0  0  0  0  0  0  0  0  0  0  0
   -2.0322    0.6925   -1.0611 H   0  0  0  0  0  0  0  0  0  0  0  0
   -0.8206   -0.4258   -1.9023 H   0  0  0  0  0  0  0  0  0  0  0  0
  1  2  1  0
  2  3  2  0
  3  4  1  0
  4  5  1  0
  5  6  2  0
  6  7  1  0
  7  8  1  0
  7  9  1  0
  7  2  1  0
  9  4  1  0
  1 10  1  0
  1 11  1  0
  1 12  1  0
  3 13  1  0
  4 14  1  0
  5 15  1  0
  6 16  1  0
  8 17  1  0
  8 18  1  0
  8 19  1  0
  9 20  1  0
  9 21  1  0
M  END
