
     RDKit          3D

 19 20  0  0  0  0  0  0  0  0999 V2000
   -0.3181    2.0714   -0.3238 C   0  0  0  0  0  0  0  0  0  0  0  0
    0.3541    0.7641   -0.1091 C   0  0  0  0  0  0  0  0  0  0  0  0
    1.6230    0.4440   -0.3535 C   0  0  0  0  0  0  0  0  0  0  0  0
    1.8158   -0.9343    0.0163 C   0  0  0  0  0  0  0  0  0  0  0  0
    1.5545   -2.1070   -0.4748 O   0  0  0  0  0  0  0  0  0  0  0  0
    0.4536   -1.4282   -0.5342 C   0  0  0  0  0  0  0  0  0  0  0  0
   -0.2908   -0.5178    0.4115 C   0  0  0  0  0  0  0  0  0  0  0  0
   -1.7441   -0.5749    0.0878 C   0  0  0  0  0  0  0  0  0  0  0  0
    0.0358   -0.7100    1.7279 O   0  0  0  0  0  0  0  0  0  0  0  0
   -0.6126    2.2337   -1.3851 H   0  0  0  0  0  0  0  0  0  0  0  0
   -1.2142    2.1778    0.2867 H   0  0  0  0  0  0  0  0  0  0  0  0
    0.3591    2.9279   -0.0338 H   0  0  0  0  0  0  0  0  0  0  0  0
    2.3478    1.1743   -0.7726 H   0  0  0  0  0  0  0  0  0  0  0  0
    1.9397   -1.0045    1.1474 H   0  0  0  0  0  0  0  0  0  0  0  0
    0.2183   -1.0982   -1.5964 H   0  0  0  0  0  0  0  0  0  0  0  0
   -2.1989    0.4287   -0.0809 H   0  0  0  0  0  0  0  0  0  0  0  0
   -1.9249   -1.1326   -0.8759 H   0  0  0  0  0  0  0  0  0  0  0  0
   -2.3594   -1.0667    0.8670 H   0  0  0  0  0  0  0  0  0  0  0  0
   -0.0387   -1.6477    1.9954 H   0  0  0  0  0  0  0  0  0  0  0  0
  1  2  1  0
  2  3  2  0
  3  4  1  0
  4  5  1  0
  5  6  1  0
  6  7  1  0
  7  8  1  0
  7  9  1  0
  7  2  1  0
  6  4  1  0
  1 10  1  0
  1 11  1  0
  1 12  1  0
  3 13  1  0
  4 14  1  0
  6 15  1  0
  8 16  1  0
  8 17  1  0
  8 18  1  0
  9 19  1  0
M  END
