
     RDKit          3D

 21 21  0  0  0  0  0  0  0  0999 V2000
    2.7118    0.0549   -0.0226 C   0  0  0  0  0  0  0  0  0  0  0  0
    1.2463   -0.0272    0.0170 C   0  0  0  0  0  0  0  0  0  0  0  0
    0.7772   -1.2393    0.0786 C   0  0  0  0  0  0  0  0  0  0  0  0
   -0.5688   -1.8410    0.1367 C   0  0  0  0  0  0  0  0  0  0  0  0
   -1.6064   -0.7969    0.5723 C   0  0  0  0  0  0  0  0  0  0  0  0
   -2.0595   -0.1701   -0.5520 O   0  0  0  0  0  0  0  0  0  0  0  0
   -1.9431    1.1852   -0.5788 C   0  0  0  0  0  0  0  0  0  0  0  0
   -0.6227    1.7195   -0.2533 C   0  0  0  0  0  0  0  0  0  0  0  0
    0.6036    1.2907   -0.0214 C   0  0  0  0  0  0  0  0  0  0  0  0
    3.1564   -0.9403    0.1105 H   0  0  0  0  0  0  0  0  0  0  0  0
    3.0726    0.4359   -1.0040 H   0  0  0  0  0  0  0  0  0  0  0  0
    3.0823    0.7057    0.8044 H   0  0  0  0  0  0  0  0  0  0  0  0
    1.5360   -1.9955    0.0910 H   0  0  0  0  0  0  0  0  0  0  0  0
   -0.6221   -2.7491    0.7671 H   0  0  0  0  0  0  0  0  0  0  0  0
   -0.8488   -2.1722   -0.9032 H   0  0  0  0  0  0  0  0  0  0  0  0
   -2.4652   -1.4144    0.9708 H   0  0  0  0  0  0  0  0  0  0  0  0
   -1.2308   -0.1510    1.3675 H   0  0  0  0  0  0  0  0  0  0  0  0
   -2.6941    1.7233    0.0443 H   0  0  0  0  0  0  0  0  0  0  0  0
   -2.1761    1.5090   -1.6366 H   0  0  0  0  0  0  0  0  0  0  0  0
   -0.6587    2.7959   -0.1792 H   0  0  0  0  0  0  0  0  0  0  0  0
    1.3101    2.0768    0.1909 H   0  0  0  0  0  0  0  0  0  0  0  0
  1  2  1  0
  2  3  2  3
  3  4  1  0
  4  5  1  0
  5  6  1  0
  6  7  1  0
  7  8  1  0
  8  9  2  3
  9  2  1  0
  1 10  1  0
  1 11  1  0
  1 12  1  0
  3 13  1  0
  4 14  1  0
  4 15  1  0
  5 16  1  0
  5 17  1  0
  7 18  1  0
  7 19  1  0
  8 20  1  0
  9 21  1  0
M  END
