
     RDKit          3D

 19 20  0  0  0  0  0  0  0  0999 V2000
    2.2902   -0.4180    0.0036 C   0  0  0  0  0  0  0  0  0  0  0  0
    0.9005    0.1550   -0.1257 C   0  0  0  0  0  0  0  0  0  0  0  0
    0.5665    1.2080   -0.8844 C   0  0  0  0  0  0  0  0  0  0  0  0
   -0.8693    1.3741   -0.6605 C   0  0  0  0  0  0  0  0  0  0  0  0
   -1.6952    1.7379   -1.4797 O   0  0  0  0  0  0  0  0  0  0  0  0
   -0.9921    1.0009    0.7313 C   0  0  0  0  0  0  0  0  0  0  0  0
   -1.1773   -0.1639    1.5021 C   0  0  0  0  0  0  0  0  0  0  0  0
   -0.3079   -0.3696    0.4334 C   0  0  0  0  0  0  0  0  0  0  0  0
   -0.9912   -1.1946   -0.7034 C   0  0  0  0  0  0  0  0  0  0  0  0
    2.8327   -0.3613   -0.9508 H   0  0  0  0  0  0  0  0  0  0  0  0
    2.7985    0.1229    0.8104 H   0  0  0  0  0  0  0  0  0  0  0  0
    2.1830   -1.5042    0.2477 H   0  0  0  0  0  0  0  0  0  0  0  0
    1.2389    1.7995   -1.5466 H   0  0  0  0  0  0  0  0  0  0  0  0
   -0.3969    1.7791    1.3151 H   0  0  0  0  0  0  0  0  0  0  0  0
   -0.7334   -0.2460    2.5384 H   0  0  0  0  0  0  0  0  0  0  0  0
   -2.1989   -0.5989    1.5406 H   0  0  0  0  0  0  0  0  0  0  0  0
   -1.6714   -0.5786   -1.2831 H   0  0  0  0  0  0  0  0  0  0  0  0
   -1.5361   -2.0261   -0.1685 H   0  0  0  0  0  0  0  0  0  0  0  0
   -0.2406   -1.7163   -1.3200 H   0  0  0  0  0  0  0  0  0  0  0  0
  1  2  1  0
  2  3  2  0
  3  4  1  0
  4  5  2  0
  4  6  1  0
  6  7  1  0
  7  8  1  0
  8  9  1  0
  8  2  1  0
  8  6  1  0
  1 10  1  0
  1 11  1  0
  1 12  1  0
  3 13  1  0
  6 14  1  0
  7 15  1  0
  7 16  1  0
  9 17  1  0
  9 18  1  0
  9 19  1  0
M  END
