
     RDKit          3D

 21 23  0  0  0  0  0  0  0  0999 V2000
   -2.9275   -0.1578    0.2548 C   0  0  0  0  0  0  0  0  0  0  0  0
   -1.5019    0.1959    0.0422 C   0  0  0  0  0  0  0  0  0  0  0  0
   -0.9211    1.3479    0.3338 C   0  0  0  0  0  0  0  0  0  0  0  0
    0.5169    1.3177   -0.0261 C   0  0  0  0  0  0  0  0  0  0  0  0
    0.5814    0.2116   -0.9920 C   0  0  0  0  0  0  0  0  0  0  0  0
   -0.4768   -0.7309   -0.5521 C   0  0  0  0  0  0  0  0  0  0  0  0
    0.4467   -1.1902    0.5550 C   0  0  0  0  0  0  0  0  0  0  0  0
    1.2636    0.0686    0.3045 C   0  0  0  0  0  0  0  0  0  0  0  0
    2.7506    0.0058    0.2888 C   0  0  0  0  0  0  0  0  0  0  0  0
   -3.1888   -1.0747   -0.3408 H   0  0  0  0  0  0  0  0  0  0  0  0
   -3.5806    0.6710   -0.0706 H   0  0  0  0  0  0  0  0  0  0  0  0
   -3.0955   -0.4309    1.3081 H   0  0  0  0  0  0  0  0  0  0  0  0
   -1.4279    2.1898    0.7726 H   0  0  0  0  0  0  0  0  0  0  0  0
    1.0695    2.2265   -0.2273 H   0  0  0  0  0  0  0  0  0  0  0  0
    1.0429    0.2261   -1.9562 H   0  0  0  0  0  0  0  0  0  0  0  0
   -0.8487   -1.4820   -1.2370 H   0  0  0  0  0  0  0  0  0  0  0  0
    0.9630   -2.1364    0.3174 H   0  0  0  0  0  0  0  0  0  0  0  0
   -0.0610   -1.2218    1.5411 H   0  0  0  0  0  0  0  0  0  0  0  0
    3.1861    0.5732    1.1340 H   0  0  0  0  0  0  0  0  0  0  0  0
    3.0777   -1.0575    0.2652 H   0  0  0  0  0  0  0  0  0  0  0  0
    3.1314    0.4480   -0.6768 H   0  0  0  0  0  0  0  0  0  0  0  0
  1  2  1  0
  2  3  2  0
  3  4  1  0
  4  5  1  0
  5  6  1  0
  6  7  1  0
  7  8  1  0
  8  9  1  0
  6  2  1  0
  8  4  1  0
  8  5  1  0
  1 10  1  0
  1 11  1  0
  1 12  1  0
  3 13  1  0
  4 14  1  0
  5 15  1  0
  6 16  1  0
  7 17  1  0
  7 18  1  0
  9 19  1  0
  9 20  1  0
  9 21  1  0
M  END
