
     RDKit          3D

 17 17  0  0  0  0  0  0  0  0999 V2000
   -0.6421   -1.6669   -0.2553 C   0  0  0  0  0  0  0  0  0  0  0  0
   -0.7195   -0.2105   -0.0440 C   0  0  0  0  0  0  0  0  0  0  0  0
    0.3132    0.5519    0.1165 C   0  0  0  0  0  0  0  0  0  0  0  0
    1.7622    0.2451    0.1383 C   0  0  0  0  0  0  0  0  0  0  0  0
    2.0964   -1.0556   -0.0385 O   0  0  0  0  0  0  0  0  0  0  0  0
   -0.1794    1.9111    0.2946 C   0  0  0  0  0  0  0  0  0  0  0  0
    0.5379    2.9552    0.4821 O   0  0  0  0  0  0  0  0  0  0  0  0
   -1.5600    1.8753    0.2255 O   0  0  0  0  0  0  0  0  0  0  0  0
   -1.9717    0.5553    0.0087 C   0  0  0  0  0  0  0  0  0  0  0  0
    0.0976   -2.1796    0.3711 H   0  0  0  0  0  0  0  0  0  0  0  0
   -1.6217   -2.1173    0.0018 H   0  0  0  0  0  0  0  0  0  0  0  0
   -0.4538   -1.9065   -1.3212 H   0  0  0  0  0  0  0  0  0  0  0  0
    2.3331    0.8574   -0.5955 H   0  0  0  0  0  0  0  0  0  0  0  0
    2.1372    0.5717    1.1500 H   0  0  0  0  0  0  0  0  0  0  0  0
    3.0294   -1.1258   -0.3149 H   0  0  0  0  0  0  0  0  0  0  0  0
   -2.4848    0.5599   -1.0037 H   0  0  0  0  0  0  0  0  0  0  0  0
   -2.6742    0.1795    0.7843 H   0  0  0  0  0  0  0  0  0  0  0  0
  1  2  1  0
  2  3  2  0
  3  4  1  0
  4  5  1  0
  3  6  1  0
  6  7  2  0
  6  8  1  0
  8  9  1  0
  9  2  1  0
  1 10  1  0
  1 11  1  0
  1 12  1  0
  4 13  1  0
  4 14  1  0
  5 15  1  0
  9 16  1  0
  9 17  1  0
M  END
