
     RDKit          3D

 21 22  0  0  0  0  0  0  0  0999 V2000
    2.6167    0.0477    0.3933 C   0  0  0  0  0  0  0  0  0  0  0  0
    1.1445    0.2405    0.3166 C   0  0  0  0  0  0  0  0  0  0  0  0
    0.5773    1.4246    0.1617 C   0  0  0  0  0  0  0  0  0  0  0  0
   -0.8854    1.2495    0.1255 C   0  0  0  0  0  0  0  0  0  0  0  0
   -1.3779    1.3471   -1.1779 O   0  0  0  0  0  0  0  0  0  0  0  0
   -1.1402   -0.0754    0.7445 C   0  0  0  0  0  0  0  0  0  0  0  0
   -1.8403   -1.0978   -0.1211 C   0  0  0  0  0  0  0  0  0  0  0  0
   -0.5239   -1.2829   -0.8547 C   0  0  0  0  0  0  0  0  0  0  0  0
    0.1506   -0.8371    0.4113 C   0  0  0  0  0  0  0  0  0  0  0  0
    2.8827   -0.9977    0.0741 H   0  0  0  0  0  0  0  0  0  0  0  0
    2.9888    0.2870    1.3979 H   0  0  0  0  0  0  0  0  0  0  0  0
    3.0991    0.7077   -0.3821 H   0  0  0  0  0  0  0  0  0  0  0  0
    1.0538    2.4033    0.0698 H   0  0  0  0  0  0  0  0  0  0  0  0
   -1.4185    2.0782    0.6734 H   0  0  0  0  0  0  0  0  0  0  0  0
   -0.8225    2.0107   -1.6507 H   0  0  0  0  0  0  0  0  0  0  0  0
   -1.4294   -0.1080    1.7979 H   0  0  0  0  0  0  0  0  0  0  0  0
   -2.6785   -0.7389   -0.7160 H   0  0  0  0  0  0  0  0  0  0  0  0
   -2.1031   -1.9841    0.4866 H   0  0  0  0  0  0  0  0  0  0  0  0
   -0.3301   -2.3636   -1.1211 H   0  0  0  0  0  0  0  0  0  0  0  0
   -0.3697   -0.6776   -1.7497 H   0  0  0  0  0  0  0  0  0  0  0  0
    0.4061   -1.6333    1.1209 H   0  0  0  0  0  0  0  0  0  0  0  0
  1  2  1  0
  2  3  2  0
  3  4  1  0
  4  5  1  0
  4  6  1  0
  6  7  1  0
  7  8  1  0
  8  9  1  0
  9  2  1  0
  9  6  1  0
  1 10  1  0
  1 11  1  0
  1 12  1  0
  3 13  1  0
  4 14  1  0
  5 15  1  0
  6 16  1  0
  7 17  1  0
  7 18  1  0
  8 19  1  0
  8 20  1  0
  9 21  1  0
M  END
