
     RDKit          3D

 19 19  0  0  0  0  0  0  0  0999 V2000
    2.5360    0.2959   -0.1827 C   0  0  0  0  0  0  0  0  0  0  0  0
    1.0664    0.1932    0.0874 C   0  0  0  0  0  0  0  0  0  0  0  0
    0.3918    1.3184   -0.0628 C   0  0  0  0  0  0  0  0  0  0  0  0
   -1.0466    1.5924    0.1138 C   0  0  0  0  0  0  0  0  0  0  0  0
   -2.0460    0.7396   -0.0379 C   0  0  0  0  0  0  0  0  0  0  0  0
   -1.9677   -0.6843   -0.4183 C   0  0  0  0  0  0  0  0  0  0  0  0
   -0.8259   -1.4143    0.1488 C   0  0  0  0  0  0  0  0  0  0  0  0
   -1.1168   -2.5902    0.4240 O   0  0  0  0  0  0  0  0  0  0  0  0
    0.5737   -1.1304    0.4808 C   0  0  0  0  0  0  0  0  0  0  0  0
    2.8325    1.3239   -0.4042 H   0  0  0  0  0  0  0  0  0  0  0  0
    2.7120   -0.3842   -1.0664 H   0  0  0  0  0  0  0  0  0  0  0  0
    3.1045   -0.1648    0.6523 H   0  0  0  0  0  0  0  0  0  0  0  0
    1.0202    2.1621   -0.3642 H   0  0  0  0  0  0  0  0  0  0  0  0
   -1.2570    2.6145    0.3981 H   0  0  0  0  0  0  0  0  0  0  0  0
   -3.0109    1.1880    0.1503 H   0  0  0  0  0  0  0  0  0  0  0  0
   -1.9596   -0.8044   -1.5390 H   0  0  0  0  0  0  0  0  0  0  0  0
   -2.9402   -1.1462   -0.1038 H   0  0  0  0  0  0  0  0  0  0  0  0
    0.6591   -1.1844    1.6053 H   0  0  0  0  0  0  0  0  0  0  0  0
    1.2746   -1.9247    0.1185 H   0  0  0  0  0  0  0  0  0  0  0  0
  1  2  1  0
  2  3  2  0
  3  4  1  0
  4  5  2  0
  5  6  1  0
  6  7  1  0
  7  8  2  0
  7  9  1  0
  9  2  1  0
  1 10  1  0
  1 11  1  0
  1 12  1  0
  3 13  1  0
  4 14  1  0
  5 15  1  0
  6 16  1  0
  6 17  1  0
  9 18  1  0
  9 19  1  0
M  END
