
     RDKit          3D

 21 21  0  0  0  0  0  0  0  0999 V2000
    2.2047   -0.9371    0.2711 C   0  0  0  0  0  0  0  0  0  0  0  0
    0.9198   -0.1999    0.1910 C   0  0  0  0  0  0  0  0  0  0  0  0
    0.8102    0.9967    0.7476 C   0  0  0  0  0  0  0  0  0  0  0  0
   -0.4675    1.7686    0.6874 C   0  0  0  0  0  0  0  0  0  0  0  0
   -1.0891    1.5189   -0.6208 C   0  0  0  0  0  0  0  0  0  0  0  0
   -1.8372    2.3410   -1.1469 O   0  0  0  0  0  0  0  0  0  0  0  0
   -0.8461    0.2606   -1.3754 C   0  0  0  0  0  0  0  0  0  0  0  0
   -0.2201   -0.8096   -0.5087 C   0  0  0  0  0  0  0  0  0  0  0  0
   -1.2324   -1.4206    0.4396 C   0  0  0  0  0  0  0  0  0  0  0  0
    2.4232   -1.2685    1.3266 H   0  0  0  0  0  0  0  0  0  0  0  0
    3.0661   -0.2567    0.0186 H   0  0  0  0  0  0  0  0  0  0  0  0
    2.2699   -1.7756   -0.4267 H   0  0  0  0  0  0  0  0  0  0  0  0
    1.6491    1.4505    1.2645 H   0  0  0  0  0  0  0  0  0  0  0  0
   -1.1105    1.5099    1.5525 H   0  0  0  0  0  0  0  0  0  0  0  0
   -0.2570    2.8517    0.7640 H   0  0  0  0  0  0  0  0  0  0  0  0
   -0.0819    0.4952   -2.1723 H   0  0  0  0  0  0  0  0  0  0  0  0
   -1.7648   -0.1136   -1.8729 H   0  0  0  0  0  0  0  0  0  0  0  0
    0.0957   -1.6251   -1.2124 H   0  0  0  0  0  0  0  0  0  0  0  0
   -1.2792   -2.5211    0.3342 H   0  0  0  0  0  0  0  0  0  0  0  0
   -2.2699   -1.0470    0.2391 H   0  0  0  0  0  0  0  0  0  0  0  0
   -0.9829   -1.2182    1.4999 H   0  0  0  0  0  0  0  0  0  0  0  0
  1  2  1  0
  2  3  2  0
  3  4  1  0
  4  5  1  0
  5  6  2  0
  5  7  1  0
  7  8  1  0
  8  9  1  0
  8  2  1  0
  1 10  1  0
  1 11  1  0
  1 12  1  0
  3 13  1  0
  4 14  1  0
  4 15  1  0
  7 16  1  0
  7 17  1  0
  8 18  1  0
  9 19  1  0
  9 20  1  0
  9 21  1  0
M  END
