
     RDKit          3D

 21 22  0  0  0  0  0  0  0  0999 V2000
    2.5786   -0.5003   -0.4039 C   0  0  0  0  0  0  0  0  0  0  0  0
    1.1347   -0.1394   -0.1604 C   0  0  0  0  0  0  0  0  0  0  0  0
    0.2458   -1.0769   -0.3849 C   0  0  0  0  0  0  0  0  0  0  0  0
   -1.2312   -1.0260   -0.1327 C   0  0  0  0  0  0  0  0  0  0  0  0
   -1.7902    0.1421   -0.8943 C   0  0  0  0  0  0  0  0  0  0  0  0
   -1.4106    1.0227    0.3003 C   0  0  0  0  0  0  0  0  0  0  0  0
   -1.3971   -0.1845    1.1406 C   0  0  0  0  0  0  0  0  0  0  0  0
   -0.3107    1.7466    0.1505 O   0  0  0  0  0  0  0  0  0  0  0  0
    0.9174    1.2537    0.3083 C   0  0  0  0  0  0  0  0  0  0  0  0
    2.7826   -1.3464    0.3129 H   0  0  0  0  0  0  0  0  0  0  0  0
    2.7342   -0.8725   -1.4231 H   0  0  0  0  0  0  0  0  0  0  0  0
    3.2283    0.3221   -0.1040 H   0  0  0  0  0  0  0  0  0  0  0  0
    0.6311   -1.9970   -0.8030 H   0  0  0  0  0  0  0  0  0  0  0  0
   -1.7665   -1.9642   -0.1545 H   0  0  0  0  0  0  0  0  0  0  0  0
   -1.1937    0.4630   -1.7606 H   0  0  0  0  0  0  0  0  0  0  0  0
   -2.8656    0.0379   -1.0277 H   0  0  0  0  0  0  0  0  0  0  0  0
   -2.3031    1.6676    0.5581 H   0  0  0  0  0  0  0  0  0  0  0  0
   -2.3762   -0.4500    1.5909 H   0  0  0  0  0  0  0  0  0  0  0  0
   -0.5389   -0.3468    1.8227 H   0  0  0  0  0  0  0  0  0  0  0  0
    1.2880    1.3752    1.3649 H   0  0  0  0  0  0  0  0  0  0  0  0
    1.6432    1.8732   -0.3001 H   0  0  0  0  0  0  0  0  0  0  0  0
  1  2  1  0
  2  3  2  0
  3  4  1  0
  4  5  1  0
  5  6  1  0
  6  7  1  0
  6  8  1  0
  8  9  1  0
  9  2  1  0
  7  4  1  0
  1 10  1  0
  1 11  1  0
  1 12  1  0
  3 13  1  0
  4 14  1  0
  5 15  1  0
  5 16  1  0
  6 17  1  0
  7 18  1  0
  7 19  1  0
  9 20  1  0
  9 21  1  0
M  END
