
     RDKit          3D

 23 23  0  0  0  0  0  0  0  0999 V2000
    3.1131   -0.2852   -0.0542 C   0  0  0  0  0  0  0  0  0  0  0  0
    1.6433   -0.0006    0.1250 C   0  0  0  0  0  0  0  0  0  0  0  0
    0.9146   -0.9564    0.6741 C   0  0  0  0  0  0  0  0  0  0  0  0
   -0.5424   -0.9100    0.9506 C   0  0  0  0  0  0  0  0  0  0  0  0
   -1.2827   -0.2891   -0.2228 C   0  0  0  0  0  0  0  0  0  0  0  0
   -2.6514   -0.8910   -0.4004 C   0  0  0  0  0  0  0  0  0  0  0  0
   -1.3032    1.1931   -0.0553 C   0  0  0  0  0  0  0  0  0  0  0  0
    0.0072    1.7948   -0.4133 C   0  0  0  0  0  0  0  0  0  0  0  0
    1.2419    1.3211   -0.3480 C   0  0  0  0  0  0  0  0  0  0  0  0
    3.6675    0.6101    0.2616 H   0  0  0  0  0  0  0  0  0  0  0  0
    3.2649   -0.5052   -1.1499 H   0  0  0  0  0  0  0  0  0  0  0  0
    3.3921   -1.2064    0.4784 H   0  0  0  0  0  0  0  0  0  0  0  0
    1.4091   -1.8632    0.9541 H   0  0  0  0  0  0  0  0  0  0  0  0
   -0.6960   -0.2134    1.8229 H   0  0  0  0  0  0  0  0  0  0  0  0
   -0.9450   -1.8801    1.2509 H   0  0  0  0  0  0  0  0  0  0  0  0
   -0.6991   -0.5330   -1.1344 H   0  0  0  0  0  0  0  0  0  0  0  0
   -3.2138   -0.3020   -1.1227 H   0  0  0  0  0  0  0  0  0  0  0  0
   -3.1850   -1.0545    0.5507 H   0  0  0  0  0  0  0  0  0  0  0  0
   -2.5081   -1.9055   -0.8561 H   0  0  0  0  0  0  0  0  0  0  0  0
   -1.6214    1.4748    0.9836 H   0  0  0  0  0  0  0  0  0  0  0  0
   -2.0367    1.6012   -0.8071 H   0  0  0  0  0  0  0  0  0  0  0  0
   -0.0201    2.8161   -0.8058 H   0  0  0  0  0  0  0  0  0  0  0  0
    2.0509    1.9845   -0.6819 H   0  0  0  0  0  0  0  0  0  0  0  0
  1  2  1  0
  2  3  2  0
  3  4  1  0
  4  5  1  0
  5  6  1  0
  5  7  1  0
  7  8  1  0
  8  9  2  0
  9  2  1  0
  1 10  1  0
  1 11  1  0
  1 12  1  0
  3 13  1  0
  4 14  1  0
  4 15  1  0
  5 16  1  0
  6 17  1  0
  6 18  1  0
  6 19  1  0
  7 20  1  0
  7 21  1  0
  8 22  1  0
  9 23  1  0
M  END
