
     RDKit          3D

 17 18  0  0  0  0  0  0  0  0999 V2000
    0.1157    1.9615   -0.0307 C   0  0  0  0  0  0  0  0  0  0  0  0
   -0.1322    0.5216   -0.1468 C   0  0  0  0  0  0  0  0  0  0  0  0
    0.6988   -0.4738    0.0517 C   0  0  0  0  0  0  0  0  0  0  0  0
    2.0807   -0.3197    0.4440 C   0  0  0  0  0  0  0  0  0  0  0  0
    2.8258   -1.3322    0.6178 O   0  0  0  0  0  0  0  0  0  0  0  0
    0.0063   -1.7068   -0.2117 C   0  0  0  0  0  0  0  0  0  0  0  0
   -0.8601   -2.4582    0.3949 O   0  0  0  0  0  0  0  0  0  0  0  0
   -1.3345   -1.2534    0.4565 C   0  0  0  0  0  0  0  0  0  0  0  0
   -1.4682   -0.1033   -0.5079 C   0  0  0  0  0  0  0  0  0  0  0  0
    1.1397    2.2525   -0.4020 H   0  0  0  0  0  0  0  0  0  0  0  0
    0.0051    2.3486    1.0139 H   0  0  0  0  0  0  0  0  0  0  0  0
   -0.5831    2.5684   -0.6701 H   0  0  0  0  0  0  0  0  0  0  0  0
    2.5419    0.6411    0.6062 H   0  0  0  0  0  0  0  0  0  0  0  0
   -0.0600   -1.8620   -1.3413 H   0  0  0  0  0  0  0  0  0  0  0  0
   -1.2136   -0.8198    1.5008 H   0  0  0  0  0  0  0  0  0  0  0  0
   -2.3027    0.5454   -0.2517 H   0  0  0  0  0  0  0  0  0  0  0  0
   -1.4597   -0.5096   -1.5237 H   0  0  0  0  0  0  0  0  0  0  0  0
  1  2  1  0
  2  3  2  0
  3  4  1  0
  4  5  2  0
  3  6  1  0
  6  7  1  0
  7  8  1  0
  8  9  1  0
  9  2  1  0
  8  6  1  0
  1 10  1  0
  1 11  1  0
  1 12  1  0
  4 13  1  0
  6 14  1  0
  8 15  1  0
  9 16  1  0
  9 17  1  0
M  END
