
     RDKit          3D

 20 20  0  0  0  0  0  0  0  0999 V2000
   -0.7180    2.0655   -0.1872 C   0  0  0  0  0  0  0  0  0  0  0  0
   -0.5265    0.5833   -0.0995 C   0  0  0  0  0  0  0  0  0  0  0  0
    0.5724   -0.1301   -0.2341 C   0  0  0  0  0  0  0  0  0  0  0  0
    1.9236    0.4096   -0.5157 C   0  0  0  0  0  0  0  0  0  0  0  0
    2.8503    0.1157    0.4542 O   0  0  0  0  0  0  0  0  0  0  0  0
    0.2858   -1.5769   -0.0654 C   0  0  0  0  0  0  0  0  0  0  0  0
   -1.1372   -1.6876    0.3994 C   0  0  0  0  0  0  0  0  0  0  0  0
   -1.6944   -0.3211    0.1796 C   0  0  0  0  0  0  0  0  0  0  0  0
   -1.0847    2.3980    0.8048 H   0  0  0  0  0  0  0  0  0  0  0  0
    0.1778    2.5889   -0.5211 H   0  0  0  0  0  0  0  0  0  0  0  0
   -1.5865    2.2163   -0.8858 H   0  0  0  0  0  0  0  0  0  0  0  0
    1.9048    1.5135   -0.6711 H   0  0  0  0  0  0  0  0  0  0  0  0
    2.3236   -0.0083   -1.4860 H   0  0  0  0  0  0  0  0  0  0  0  0
    2.7246    0.5612    1.3103 H   0  0  0  0  0  0  0  0  0  0  0  0
    0.5192   -2.1574   -0.9594 H   0  0  0  0  0  0  0  0  0  0  0  0
    0.9594   -1.9303    0.7646 H   0  0  0  0  0  0  0  0  0  0  0  0
   -1.1825   -1.9657    1.4900 H   0  0  0  0  0  0  0  0  0  0  0  0
   -1.7154   -2.4397   -0.1500 H   0  0  0  0  0  0  0  0  0  0  0  0
   -2.3471   -0.2443   -0.7170 H   0  0  0  0  0  0  0  0  0  0  0  0
   -2.2493    0.0093    1.0893 H   0  0  0  0  0  0  0  0  0  0  0  0
  1  2  1  0
  2  3  2  0
  3  4  1  0
  4  5  1  0
  3  6  1  0
  6  7  1  0
  7  8  1  0
  8  2  1  0
  1  9  1  0
  1 10  1  0
  1 11  1  0
  4 12  1  0
  4 13  1  0
  5 14  1  0
  6 15  1  0
  6 16  1  0
  7 17  1  0
  7 18  1  0
  8 19  1  0
  8 20  1  0
M  END
