
     RDKit          3D

 23 23  0  0  0  0  0  0  0  0999 V2000
   -2.2652    1.4410    0.2082 C   0  0  0  0  0  0  0  0  0  0  0  0
   -1.0662    0.5356    0.2121 C   0  0  0  0  0  0  0  0  0  0  0  0
   -0.0398    0.8691   -0.5646 C   0  0  0  0  0  0  0  0  0  0  0  0
    1.2695    0.2682   -0.8332 C   0  0  0  0  0  0  0  0  0  0  0  0
    2.2726    0.8779    0.1213 C   0  0  0  0  0  0  0  0  0  0  0  0
    1.2806   -1.2386   -0.7702 C   0  0  0  0  0  0  0  0  0  0  0  0
    0.7426   -1.7570    0.3779 O   0  0  0  0  0  0  0  0  0  0  0  0
   -0.6457   -1.8538    0.3431 C   0  0  0  0  0  0  0  0  0  0  0  0
   -1.1765   -0.6428    1.1002 C   0  0  0  0  0  0  0  0  0  0  0  0
   -3.0655    1.0272   -0.4511 H   0  0  0  0  0  0  0  0  0  0  0  0
   -2.6598    1.4917    1.2449 H   0  0  0  0  0  0  0  0  0  0  0  0
   -1.9635    2.4261   -0.1695 H   0  0  0  0  0  0  0  0  0  0  0  0
   -0.2206    1.7873   -1.1141 H   0  0  0  0  0  0  0  0  0  0  0  0
    1.5844    0.5415   -1.8614 H   0  0  0  0  0  0  0  0  0  0  0  0
    1.7278    1.0941    1.0636 H   0  0  0  0  0  0  0  0  0  0  0  0
    3.1627    0.2668    0.2595 H   0  0  0  0  0  0  0  0  0  0  0  0
    2.5771    1.8587   -0.2927 H   0  0  0  0  0  0  0  0  0  0  0  0
    0.8474   -1.6534   -1.6968 H   0  0  0  0  0  0  0  0  0  0  0  0
    2.3690   -1.5349   -0.7849 H   0  0  0  0  0  0  0  0  0  0  0  0
   -1.0251   -2.7640    0.8487 H   0  0  0  0  0  0  0  0  0  0  0  0
   -1.0490   -1.7718   -0.6838 H   0  0  0  0  0  0  0  0  0  0  0  0
   -0.4766   -0.4507    1.9612 H   0  0  0  0  0  0  0  0  0  0  0  0
   -2.1802   -0.8184    1.4817 H   0  0  0  0  0  0  0  0  0  0  0  0
  1  2  1  0
  2  3  2  0
  3  4  1  0
  4  5  1  0
  4  6  1  0
  6  7  1  0
  7  8  1  0
  8  9  1  0
  9  2  1  0
  1 10  1  0
  1 11  1  0
  1 12  1  0
  3 13  1  0
  4 14  1  0
  5 15  1  0
  5 16  1  0
  5 17  1  0
  6 18  1  0
  6 19  1  0
  8 20  1  0
  8 21  1  0
  9 22  1  0
  9 23  1  0
M  END
