
     RDKit          3D

 19 19  0  0  0  0  0  0  0  0999 V2000
    2.6568    0.7834   -0.3228 C   0  0  0  0  0  0  0  0  0  0  0  0
    1.3737    0.0941   -0.0102 C   0  0  0  0  0  0  0  0  0  0  0  0
    1.1347   -1.2121   -0.0272 C   0  0  0  0  0  0  0  0  0  0  0  0
   -0.2839   -1.4713    0.3506 C   0  0  0  0  0  0  0  0  0  0  0  0
   -0.9513   -0.1690    0.0373 C   0  0  0  0  0  0  0  0  0  0  0  0
   -2.0606    0.1052    0.8330 O   0  0  0  0  0  0  0  0  0  0  0  0
   -3.2752    0.3759    0.2500 C   0  0  0  0  0  0  0  0  0  0  0  0
   -3.3506    0.3683   -0.9942 O   0  0  0  0  0  0  0  0  0  0  0  0
    0.1343    0.8316    0.3814 C   0  0  0  0  0  0  0  0  0  0  0  0
    2.4355    1.7678   -0.7987 H   0  0  0  0  0  0  0  0  0  0  0  0
    3.2138    1.0305    0.6222 H   0  0  0  0  0  0  0  0  0  0  0  0
    3.3219    0.1514   -0.9544 H   0  0  0  0  0  0  0  0  0  0  0  0
    1.9101   -1.9320   -0.2887 H   0  0  0  0  0  0  0  0  0  0  0  0
   -0.7095   -2.3291   -0.2024 H   0  0  0  0  0  0  0  0  0  0  0  0
   -0.2830   -1.6379    1.4563 H   0  0  0  0  0  0  0  0  0  0  0  0
   -1.1566   -0.1431   -1.0496 H   0  0  0  0  0  0  0  0  0  0  0  0
   -4.1803    0.5982    0.8291 H   0  0  0  0  0  0  0  0  0  0  0  0
   -0.0345    1.7140   -0.2697 H   0  0  0  0  0  0  0  0  0  0  0  0
    0.1046    1.0742    1.4541 H   0  0  0  0  0  0  0  0  0  0  0  0
  1  2  1  0
  2  3  2  0
  3  4  1  0
  4  5  1  0
  5  6  1  0
  6  7  1  0
  7  8  2  0
  5  9  1  0
  9  2  1  0
  1 10  1  0
  1 11  1  0
  1 12  1  0
  3 13  1  0
  4 14  1  0
  4 15  1  0
  5 16  1  0
  7 17  1  0
  9 18  1  0
  9 19  1  0
M  END
