
     RDKit          3D

 18 19  0  0  0  0  0  0  0  0999 V2000
    2.2505    0.3875    0.1363 C   0  0  0  0  0  0  0  0  0  0  0  0
    0.7720    0.1698    0.0367 C   0  0  0  0  0  0  0  0  0  0  0  0
   -0.0604    1.1844    0.2070 C   0  0  0  0  0  0  0  0  0  0  0  0
   -1.5626    0.9918    0.1116 C   0  0  0  0  0  0  0  0  0  0  0  0
   -1.7410   -0.4096    0.5265 C   0  0  0  0  0  0  0  0  0  0  0  0
   -2.2184   -1.4749   -0.0565 O   0  0  0  0  0  0  0  0  0  0  0  0
   -1.0876   -1.1627   -0.6619 C   0  0  0  0  0  0  0  0  0  0  0  0
    0.3258   -1.2420   -0.2618 C   0  0  0  0  0  0  0  0  0  0  0  0
    2.4989    1.4329    0.3193 H   0  0  0  0  0  0  0  0  0  0  0  0
    2.6069   -0.2007    1.0131 H   0  0  0  0  0  0  0  0  0  0  0  0
    2.7551    0.0445   -0.7865 H   0  0  0  0  0  0  0  0  0  0  0  0
    0.3543    2.1690    0.4188 H   0  0  0  0  0  0  0  0  0  0  0  0
   -1.7879    1.1728   -0.9759 H   0  0  0  0  0  0  0  0  0  0  0  0
   -2.0979    1.7393    0.7026 H   0  0  0  0  0  0  0  0  0  0  0  0
   -1.2960   -0.6030    1.5471 H   0  0  0  0  0  0  0  0  0  0  0  0
   -1.2263   -0.7272   -1.6857 H   0  0  0  0  0  0  0  0  0  0  0  0
    0.9429   -1.5516   -1.1499 H   0  0  0  0  0  0  0  0  0  0  0  0
    0.5717   -1.9206    0.5592 H   0  0  0  0  0  0  0  0  0  0  0  0
  1  2  1  0
  2  3  2  0
  3  4  1  0
  4  5  1  0
  5  6  1  0
  6  7  1  0
  7  8  1  0
  8  2  1  0
  7  5  1  0
  1  9  1  0
  1 10  1  0
  1 11  1  0
  3 12  1  0
  4 13  1  0
  4 14  1  0
  5 15  1  0
  7 16  1  0
  8 17  1  0
  8 18  1  0
M  END
