
     RDKit          3D

 19 19  0  0  0  0  0  0  0  0999 V2000
    2.6646    0.2573    0.1229 C   0  0  0  0  0  0  0  0  0  0  0  0
    1.1846    0.0580   -0.0891 C   0  0  0  0  0  0  0  0  0  0  0  0
    0.4277    1.1379    0.0130 C   0  0  0  0  0  0  0  0  0  0  0  0
   -1.0679    1.2103   -0.1524 C   0  0  0  0  0  0  0  0  0  0  0  0
   -1.7444    0.0682    0.5276 C   0  0  0  0  0  0  0  0  0  0  0  0
   -1.8017   -1.1798   -0.2990 C   0  0  0  0  0  0  0  0  0  0  0  0
   -0.5593   -1.7474   -0.5756 O   0  0  0  0  0  0  0  0  0  0  0  0
    0.7417   -1.2952   -0.3829 C   0  0  0  0  0  0  0  0  0  0  0  0
    1.6642   -2.1404   -0.4680 O   0  0  0  0  0  0  0  0  0  0  0  0
    2.8504    1.3424    0.1492 H   0  0  0  0  0  0  0  0  0  0  0  0
    2.8605   -0.1708    1.1401 H   0  0  0  0  0  0  0  0  0  0  0  0
    3.2552   -0.2459   -0.6563 H   0  0  0  0  0  0  0  0  0  0  0  0
    0.9565    2.0411    0.2369 H   0  0  0  0  0  0  0  0  0  0  0  0
   -1.3804    2.1673    0.3224 H   0  0  0  0  0  0  0  0  0  0  0  0
   -1.3198    1.2977   -1.2292 H   0  0  0  0  0  0  0  0  0  0  0  0
   -1.1440   -0.1880    1.4464 H   0  0  0  0  0  0  0  0  0  0  0  0
   -2.7835    0.3308    0.8092 H   0  0  0  0  0  0  0  0  0  0  0  0
   -2.4250   -1.0073   -1.2177 H   0  0  0  0  0  0  0  0  0  0  0  0
   -2.3796   -1.9363    0.3024 H   0  0  0  0  0  0  0  0  0  0  0  0
  1  2  1  0
  2  3  2  0
  3  4  1  0
  4  5  1  0
  5  6  1  0
  6  7  1  0
  7  8  1  0
  8  9  2  0
  8  2  1  0
  1 10  1  0
  1 11  1  0
  1 12  1  0
  3 13  1  0
  4 14  1  0
  4 15  1  0
  5 16  1  0
  5 17  1  0
  6 18  1  0
  6 19  1  0
M  END
