
     RDKit          3D

 21 22  0  0  0  0  0  0  0  0999 V2000
   -1.8256    1.7248   -0.1329 C   0  0  0  0  0  0  0  0  0  0  0  0
   -0.7951    0.7062    0.1456 C   0  0  0  0  0  0  0  0  0  0  0  0
    0.4710    0.9813   -0.1758 C   0  0  0  0  0  0  0  0  0  0  0  0
    1.4422   -0.1263    0.1508 C   0  0  0  0  0  0  0  0  0  0  0  0
    2.7647    0.2475   -0.4223 C   0  0  0  0  0  0  0  0  0  0  0  0
    0.8920   -1.2763   -0.4500 O   0  0  0  0  0  0  0  0  0  0  0  0
   -0.1848   -1.6993    0.3295 C   0  0  0  0  0  0  0  0  0  0  0  0
   -1.5556   -1.6893   -0.1987 C   0  0  0  0  0  0  0  0  0  0  0  0
   -1.0648   -0.6096    0.7607 C   0  0  0  0  0  0  0  0  0  0  0  0
   -2.8183    1.4164    0.2176 H   0  0  0  0  0  0  0  0  0  0  0  0
   -1.5481    2.6914    0.3344 H   0  0  0  0  0  0  0  0  0  0  0  0
   -1.8660    1.9297   -1.2391 H   0  0  0  0  0  0  0  0  0  0  0  0
    0.7862    1.9108   -0.6302 H   0  0  0  0  0  0  0  0  0  0  0  0
    1.4356   -0.2908    1.2323 H   0  0  0  0  0  0  0  0  0  0  0  0
    3.2597    0.9463    0.2885 H   0  0  0  0  0  0  0  0  0  0  0  0
    2.5834    0.7332   -1.4121 H   0  0  0  0  0  0  0  0  0  0  0  0
    3.3942   -0.6555   -0.5847 H   0  0  0  0  0  0  0  0  0  0  0  0
    0.0836   -2.5319    1.0093 H   0  0  0  0  0  0  0  0  0  0  0  0
   -1.7404   -1.3831   -1.2474 H   0  0  0  0  0  0  0  0  0  0  0  0
   -2.3045   -2.3839    0.2102 H   0  0  0  0  0  0  0  0  0  0  0  0
   -1.4094   -0.6417    1.8144 H   0  0  0  0  0  0  0  0  0  0  0  0
  1  2  1  0
  2  3  2  0
  3  4  1  0
  4  5  1  0
  4  6  1  0
  6  7  1  0
  7  8  1  0
  8  9  1  0
  9  2  1  0
  9  7  1  0
  1 10  1  0
  1 11  1  0
  1 12  1  0
  3 13  1  0
  4 14  1  0
  5 15  1  0
  5 16  1  0
  5 17  1  0
  7 18  1  0
  8 19  1  0
  8 20  1  0
  9 21  1  0
M  END
