
     RDKit          3D

 21 22  0  0  0  0  0  0  0  0999 V2000
    2.3019    0.1353    0.8435 C   0  0  0  0  0  0  0  0  0  0  0  0
    1.0516   -0.1608    0.0767 C   0  0  0  0  0  0  0  0  0  0  0  0
    0.4562   -1.3256    0.3071 C   0  0  0  0  0  0  0  0  0  0  0  0
   -0.7766   -1.8386   -0.3205 C   0  0  0  0  0  0  0  0  0  0  0  0
   -1.9452   -1.9380    0.4086 O   0  0  0  0  0  0  0  0  0  0  0  0
   -1.7733   -0.7756   -0.4184 C   0  0  0  0  0  0  0  0  0  0  0  0
   -1.5340    0.4600    0.3675 C   0  0  0  0  0  0  0  0  0  0  0  0
   -0.6682    1.4782   -0.3246 C   0  0  0  0  0  0  0  0  0  0  0  0
    0.6063    0.8969   -0.8726 C   0  0  0  0  0  0  0  0  0  0  0  0
    2.0581    0.4576    1.8630 H   0  0  0  0  0  0  0  0  0  0  0  0
    2.9842   -0.7417    0.8530 H   0  0  0  0  0  0  0  0  0  0  0  0
    2.8589    0.9282    0.2733 H   0  0  0  0  0  0  0  0  0  0  0  0
    0.9693   -1.9341    1.0464 H   0  0  0  0  0  0  0  0  0  0  0  0
   -0.7091   -2.5493   -1.1695 H   0  0  0  0  0  0  0  0  0  0  0  0
   -2.3964   -0.7230   -1.3291 H   0  0  0  0  0  0  0  0  0  0  0  0
   -1.1028    0.2558    1.3473 H   0  0  0  0  0  0  0  0  0  0  0  0
   -2.5351    0.9544    0.5302 H   0  0  0  0  0  0  0  0  0  0  0  0
   -1.2123    2.0201   -1.1229 H   0  0  0  0  0  0  0  0  0  0  0  0
   -0.3768    2.2467    0.4313 H   0  0  0  0  0  0  0  0  0  0  0  0
    1.3758    1.6777   -0.9177 H   0  0  0  0  0  0  0  0  0  0  0  0
    0.3673    0.4758   -1.8726 H   0  0  0  0  0  0  0  0  0  0  0  0
  1  2  1  0
  2  3  2  0
  3  4  1  0
  4  5  1  0
  5  6  1  0
  6  7  1  0
  7  8  1  0
  8  9  1  0
  9  2  1  0
  6  4  1  0
  1 10  1  0
  1 11  1  0
  1 12  1  0
  3 13  1  0
  4 14  1  0
  6 15  1  0
  7 16  1  0
  7 17  1  0
  8 18  1  0
  8 19  1  0
  9 20  1  0
  9 21  1  0
M  END
