
     RDKit          3D

 19 20  0  0  0  0  0  0  0  0999 V2000
   -2.4254    0.1480    0.5539 C   0  0  0  0  0  0  0  0  0  0  0  0
   -1.0243   -0.0843    0.1228 C   0  0  0  0  0  0  0  0  0  0  0  0
   -0.3613    0.8983   -0.4333 C   0  0  0  0  0  0  0  0  0  0  0  0
    1.0459    0.7986   -0.9089 C   0  0  0  0  0  0  0  0  0  0  0  0
    1.6862    2.0189   -0.9135 O   0  0  0  0  0  0  0  0  0  0  0  0
    1.7523   -0.1463    0.0520 C   0  0  0  0  0  0  0  0  0  0  0  0
    1.0244   -1.4373    0.2034 C   0  0  0  0  0  0  0  0  0  0  0  0
    0.4037   -1.6384    1.4183 O   0  0  0  0  0  0  0  0  0  0  0  0
   -0.4214   -1.4049    0.3272 C   0  0  0  0  0  0  0  0  0  0  0  0
   -2.5047    0.0632    1.6573 H   0  0  0  0  0  0  0  0  0  0  0  0
   -3.0512   -0.6369    0.0361 H   0  0  0  0  0  0  0  0  0  0  0  0
   -2.8220    1.1162    0.1946 H   0  0  0  0  0  0  0  0  0  0  0  0
   -0.8106    1.8998   -0.5944 H   0  0  0  0  0  0  0  0  0  0  0  0
    1.0970    0.3387   -1.9309 H   0  0  0  0  0  0  0  0  0  0  0  0
    1.3655    2.5750   -0.1375 H   0  0  0  0  0  0  0  0  0  0  0  0
    1.8576    0.4274    1.0084 H   0  0  0  0  0  0  0  0  0  0  0  0
    2.7583   -0.3264   -0.3391 H   0  0  0  0  0  0  0  0  0  0  0  0
    1.4466   -2.3092   -0.3483 H   0  0  0  0  0  0  0  0  0  0  0  0
   -1.0167   -2.3006    0.0318 H   0  0  0  0  0  0  0  0  0  0  0  0
  1  2  1  0
  2  3  2  0
  3  4  1  0
  4  5  1  0
  4  6  1  0
  6  7  1  0
  7  8  1  0
  8  9  1  0
  9  2  1  0
  9  7  1  0
  1 10  1  0
  1 11  1  0
  1 12  1  0
  3 13  1  0
  4 14  1  0
  5 15  1  0
  6 16  1  0
  6 17  1  0
  7 18  1  0
  9 19  1  0
M  END
