
     RDKit          3D

 19 19  0  0  0  0  0  0  0  0999 V2000
    2.5424    0.5737   -0.0253 C   0  0  0  0  0  0  0  0  0  0  0  0
    1.1855    0.0177   -0.1432 C   0  0  0  0  0  0  0  0  0  0  0  0
    0.1333    0.8074   -0.2665 C   0  0  0  0  0  0  0  0  0  0  0  0
   -1.2176    0.2260   -0.3832 C   0  0  0  0  0  0  0  0  0  0  0  0
   -2.2679    1.2581   -0.1455 C   0  0  0  0  0  0  0  0  0  0  0  0
   -1.3045   -0.8569    0.4787 O   0  0  0  0  0  0  0  0  0  0  0  0
   -0.4701   -1.8814    0.0441 C   0  0  0  0  0  0  0  0  0  0  0  0
    0.9320   -1.4176   -0.1304 C   0  0  0  0  0  0  0  0  0  0  0  0
    1.8439   -2.2410   -0.2594 O   0  0  0  0  0  0  0  0  0  0  0  0
    3.2019   -0.0162    0.6450 H   0  0  0  0  0  0  0  0  0  0  0  0
    3.0116    0.5580   -1.0234 H   0  0  0  0  0  0  0  0  0  0  0  0
    2.4793    1.6458    0.2900 H   0  0  0  0  0  0  0  0  0  0  0  0
    0.3326    1.8738   -0.2748 H   0  0  0  0  0  0  0  0  0  0  0  0
   -1.3989   -0.1916   -1.4159 H   0  0  0  0  0  0  0  0  0  0  0  0
   -1.9235    2.0896    0.5183 H   0  0  0  0  0  0  0  0  0  0  0  0
   -3.2080    0.8545    0.2875 H   0  0  0  0  0  0  0  0  0  0  0  0
   -2.5677    1.7620   -1.1061 H   0  0  0  0  0  0  0  0  0  0  0  0
   -0.8638   -2.3939   -0.8582 H   0  0  0  0  0  0  0  0  0  0  0  0
   -0.4409   -2.6681    0.8483 H   0  0  0  0  0  0  0  0  0  0  0  0
  1  2  1  0
  2  3  2  0
  3  4  1  0
  4  5  1  0
  4  6  1  0
  6  7  1  0
  7  8  1  0
  8  9  2  0
  8  2  1  0
  1 10  1  0
  1 11  1  0
  1 12  1  0
  3 13  1  0
  4 14  1  0
  5 15  1  0
  5 16  1  0
  5 17  1  0
  7 18  1  0
  7 19  1  0
M  END
