
     RDKit          3D

 19 19  0  0  0  0  0  0  0  0999 V2000
    2.4443    0.0418    0.3445 C   0  0  0  0  0  0  0  0  0  0  0  0
    0.9428    0.0597    0.1591 C   0  0  0  0  0  0  0  0  0  0  0  0
    0.3400    1.2155   -0.0796 C   0  0  0  0  0  0  0  0  0  0  0  0
   -1.1254    1.3496   -0.2774 C   0  0  0  0  0  0  0  0  0  0  0  0
   -1.8225    0.0987    0.1139 C   0  0  0  0  0  0  0  0  0  0  0  0
   -1.0908   -1.0805   -0.5129 C   0  0  0  0  0  0  0  0  0  0  0  0
    0.1972   -1.2212    0.2528 C   0  0  0  0  0  0  0  0  0  0  0  0
    2.7070   -0.1685    1.3826 H   0  0  0  0  0  0  0  0  0  0  0  0
    2.7987   -0.8179   -0.2891 H   0  0  0  0  0  0  0  0  0  0  0  0
    2.9137    0.9436   -0.0820 H   0  0  0  0  0  0  0  0  0  0  0  0
    0.9992    2.0940   -0.1247 H   0  0  0  0  0  0  0  0  0  0  0  0
   -1.3718    1.5419   -1.3628 H   0  0  0  0  0  0  0  0  0  0  0  0
   -1.5139    2.2379    0.2621 H   0  0  0  0  0  0  0  0  0  0  0  0
   -1.8016   -0.0201    1.2127 H   0  0  0  0  0  0  0  0  0  0  0  0
   -2.8543    0.0789   -0.2859 H   0  0  0  0  0  0  0  0  0  0  0  0
   -0.8550   -0.8746   -1.5630 H   0  0  0  0  0  0  0  0  0  0  0  0
   -1.6812   -2.0017   -0.3606 H   0  0  0  0  0  0  0  0  0  0  0  0
   -0.0505   -1.4186    1.3181 H   0  0  0  0  0  0  0  0  0  0  0  0
    0.8238   -2.0586   -0.1078 H   0  0  0  0  0  0  0  0  0  0  0  0
  1  2  1  0
  2  3  2  0
  3  4  1  0
  4  5  1  0
  5  6  1  0
  6  7  1  0
  7  2  1  0
  1  8  1  0
  1  9  1  0
  1 10  1  0
  3 11  1  0
  4 12  1  0
  4 13  1  0
  5 14  1  0
  5 15  1  0
  6 16  1  0
  6 17  1  0
  7 18  1  0
  7 19  1  0
M  END
