
     RDKit          3D

 19 19  0  0  0  0  0  0  0  0999 V2000
    2.5177    0.0808    0.0823 C   0  0  0  0  0  0  0  0  0  0  0  0
    1.0439   -0.1014   -0.0080 C   0  0  0  0  0  0  0  0  0  0  0  0
    0.3889   -1.1149    0.4948 C   0  0  0  0  0  0  0  0  0  0  0  0
   -1.0634   -0.9830    0.2245 C   0  0  0  0  0  0  0  0  0  0  0  0
   -1.4485   -1.9100   -0.7265 O   0  0  0  0  0  0  0  0  0  0  0  0
   -1.2609    0.4056   -0.3319 C   0  0  0  0  0  0  0  0  0  0  0  0
   -1.8844    1.3183    0.6640 C   0  0  0  0  0  0  0  0  0  0  0  0
   -1.7445    1.1843    1.8618 O   0  0  0  0  0  0  0  0  0  0  0  0
    0.1410    0.8553   -0.6853 C   0  0  0  0  0  0  0  0  0  0  0  0
    2.8760    0.6972   -0.7639 H   0  0  0  0  0  0  0  0  0  0  0  0
    2.7112    0.6457    1.0350 H   0  0  0  0  0  0  0  0  0  0  0  0
    3.0415   -0.8934    0.0960 H   0  0  0  0  0  0  0  0  0  0  0  0
    0.8103   -1.9509    1.0377 H   0  0  0  0  0  0  0  0  0  0  0  0
   -1.6072   -1.1512    1.1752 H   0  0  0  0  0  0  0  0  0  0  0  0
   -0.6791   -2.3368   -1.1694 H   0  0  0  0  0  0  0  0  0  0  0  0
   -1.9285    0.3582   -1.2183 H   0  0  0  0  0  0  0  0  0  0  0  0
   -2.4885    2.1365    0.3005 H   0  0  0  0  0  0  0  0  0  0  0  0
    0.3124    0.8730   -1.7754 H   0  0  0  0  0  0  0  0  0  0  0  0
    0.2620    1.8866   -0.2931 H   0  0  0  0  0  0  0  0  0  0  0  0
  1  2  1  0
  2  3  2  0
  3  4  1  0
  4  5  1  0
  4  6  1  0
  6  7  1  0
  7  8  2  0
  6  9  1  0
  9  2  1  0
  1 10  1  0
  1 11  1  0
  1 12  1  0
  3 13  1  0
  4 14  1  0
  5 15  1  0
  6 16  1  0
  7 17  1  0
  9 18  1  0
  9 19  1  0
M  END
