
     RDKit          3D

 21 21  0  0  0  0  0  0  0  0999 V2000
    2.5826   -0.2374   -0.8168 C   0  0  0  0  0  0  0  0  0  0  0  0
    1.3574   -0.1088   -0.0025 C   0  0  0  0  0  0  0  0  0  0  0  0
    0.5696   -1.1717    0.1260 C   0  0  0  0  0  0  0  0  0  0  0  0
   -0.6719   -1.0666    0.9425 C   0  0  0  0  0  0  0  0  0  0  0  0
   -1.3918    0.2347    0.7246 C   0  0  0  0  0  0  0  0  0  0  0  0
   -2.4681    0.0326   -0.3246 C   0  0  0  0  0  0  0  0  0  0  0  0
   -0.4922    1.3567    0.3833 C   0  0  0  0  0  0  0  0  0  0  0  0
   -0.9318    2.3633   -0.1138 O   0  0  0  0  0  0  0  0  0  0  0  0
    0.9739    1.1801    0.6831 C   0  0  0  0  0  0  0  0  0  0  0  0
    3.3467   -0.7718   -0.1934 H   0  0  0  0  0  0  0  0  0  0  0  0
    2.4019   -0.8049   -1.7668 H   0  0  0  0  0  0  0  0  0  0  0  0
    3.0278    0.7589   -1.0565 H   0  0  0  0  0  0  0  0  0  0  0  0
    0.8067   -2.1350   -0.3553 H   0  0  0  0  0  0  0  0  0  0  0  0
   -0.3560   -1.1931    2.0141 H   0  0  0  0  0  0  0  0  0  0  0  0
   -1.3365   -1.9312    0.7301 H   0  0  0  0  0  0  0  0  0  0  0  0
   -1.8990    0.4959    1.6841 H   0  0  0  0  0  0  0  0  0  0  0  0
   -3.2323   -0.6585    0.0823 H   0  0  0  0  0  0  0  0  0  0  0  0
   -2.0191   -0.4275   -1.2185 H   0  0  0  0  0  0  0  0  0  0  0  0
   -2.8800    1.0192   -0.6018 H   0  0  0  0  0  0  0  0  0  0  0  0
    1.5644    2.0184    0.3138 H   0  0  0  0  0  0  0  0  0  0  0  0
    1.0478    1.0469    1.7807 H   0  0  0  0  0  0  0  0  0  0  0  0
  1  2  1  0
  2  3  2  0
  3  4  1  0
  4  5  1  0
  5  6  1  0
  5  7  1  0
  7  8  2  0
  7  9  1  0
  9  2  1  0
  1 10  1  0
  1 11  1  0
  1 12  1  0
  3 13  1  0
  4 14  1  0
  4 15  1  0
  5 16  1  0
  6 17  1  0
  6 18  1  0
  6 19  1  0
  9 20  1  0
  9 21  1  0
M  END
