
     RDKit          3D

 21 21  0  0  0  0  0  0  0  0999 V2000
    2.4812    0.5986   -0.5579 C   0  0  0  0  0  0  0  0  0  0  0  0
    1.1025    0.3726   -0.0893 C   0  0  0  0  0  0  0  0  0  0  0  0
    0.3287    1.4480   -0.1826 C   0  0  0  0  0  0  0  0  0  0  0  0
   -1.0936    1.7049    0.1554 C   0  0  0  0  0  0  0  0  0  0  0  0
   -2.0822    0.8594    0.4191 C   0  0  0  0  0  0  0  0  0  0  0  0
   -2.1323   -0.6506    0.4734 C   0  0  0  0  0  0  0  0  0  0  0  0
   -1.4497   -1.2350   -0.5252 O   0  0  0  0  0  0  0  0  0  0  0  0
   -0.2065   -1.6768   -0.4361 C   0  0  0  0  0  0  0  0  0  0  0  0
    0.7991   -0.9993    0.4077 C   0  0  0  0  0  0  0  0  0  0  0  0
    2.6039    0.4117   -1.6513 H   0  0  0  0  0  0  0  0  0  0  0  0
    2.7352    1.6732   -0.3656 H   0  0  0  0  0  0  0  0  0  0  0  0
    3.2406    0.0160    0.0126 H   0  0  0  0  0  0  0  0  0  0  0  0
    0.8230    2.3290   -0.5864 H   0  0  0  0  0  0  0  0  0  0  0  0
   -1.3650    2.7496    0.1912 H   0  0  0  0  0  0  0  0  0  0  0  0
   -3.0293    1.3349    0.6364 H   0  0  0  0  0  0  0  0  0  0  0  0
   -1.8647   -0.9865    1.5083 H   0  0  0  0  0  0  0  0  0  0  0  0
   -3.2114   -0.8951    0.3608 H   0  0  0  0  0  0  0  0  0  0  0  0
   -0.2240   -2.7644   -0.1175 H   0  0  0  0  0  0  0  0  0  0  0  0
    0.2296   -1.7378   -1.4797 H   0  0  0  0  0  0  0  0  0  0  0  0
    1.7676   -1.5615    0.3400 H   0  0  0  0  0  0  0  0  0  0  0  0
    0.5471   -0.9911    1.4867 H   0  0  0  0  0  0  0  0  0  0  0  0
  1  2  1  0
  2  3  2  3
  3  4  1  0
  4  5  2  3
  5  6  1  0
  6  7  1  0
  7  8  1  0
  8  9  1  0
  9  2  1  0
  1 10  1  0
  1 11  1  0
  1 12  1  0
  3 13  1  0
  4 14  1  0
  5 15  1  0
  6 16  1  0
  6 17  1  0
  8 18  1  0
  8 19  1  0
  9 20  1  0
  9 21  1  0
M  END
