
     RDKit          3D

 21 22  0  0  0  0  0  0  0  0999 V2000
    2.8584   -0.1281   -0.3526 C   0  0  0  0  0  0  0  0  0  0  0  0
    1.3857   -0.0302   -0.1632 C   0  0  0  0  0  0  0  0  0  0  0  0
    0.7372   -1.1898   -0.1168 C   0  0  0  0  0  0  0  0  0  0  0  0
   -0.7300   -1.4952    0.0595 C   0  0  0  0  0  0  0  0  0  0  0  0
   -1.4858   -0.3267   -0.4155 C   0  0  0  0  0  0  0  0  0  0  0  0
   -2.6566    0.2957    0.1217 C   0  0  0  0  0  0  0  0  0  0  0  0
   -1.4528    0.7028    0.7665 C   0  0  0  0  0  0  0  0  0  0  0  0
   -0.4481    1.6735    0.3561 C   0  0  0  0  0  0  0  0  0  0  0  0
    0.7884    1.3146   -0.0462 C   0  0  0  0  0  0  0  0  0  0  0  0
    3.2875    0.8917   -0.4130 H   0  0  0  0  0  0  0  0  0  0  0  0
    3.1362   -0.7349   -1.2211 H   0  0  0  0  0  0  0  0  0  0  0  0
    3.3273   -0.5938    0.5571 H   0  0  0  0  0  0  0  0  0  0  0  0
    1.3087   -2.1076   -0.2173 H   0  0  0  0  0  0  0  0  0  0  0  0
   -0.9695   -2.3680   -0.6156 H   0  0  0  0  0  0  0  0  0  0  0  0
   -0.9544   -1.8248    1.0818 H   0  0  0  0  0  0  0  0  0  0  0  0
   -1.1244    0.0405   -1.4122 H   0  0  0  0  0  0  0  0  0  0  0  0
   -3.1985    1.0376   -0.5166 H   0  0  0  0  0  0  0  0  0  0  0  0
   -3.4082   -0.2696    0.7457 H   0  0  0  0  0  0  0  0  0  0  0  0
   -1.2309    0.2757    1.7818 H   0  0  0  0  0  0  0  0  0  0  0  0
   -0.6451    2.7322    0.3538 H   0  0  0  0  0  0  0  0  0  0  0  0
    1.4749    2.1043   -0.3340 H   0  0  0  0  0  0  0  0  0  0  0  0
  1  2  1  0
  2  3  2  0
  3  4  1  0
  4  5  1  0
  5  6  1  0
  6  7  1  0
  7  8  1  0
  8  9  2  0
  9  2  1  0
  7  5  1  0
  1 10  1  0
  1 11  1  0
  1 12  1  0
  3 13  1  0
  4 14  1  0
  4 15  1  0
  5 16  1  0
  6 17  1  0
  6 18  1  0
  7 19  1  0
  8 20  1  0
  9 21  1  0
M  END
