
     RDKit          3D

 21 21  0  0  0  0  0  0  0  0999 V2000
   -0.9554    1.8271    0.6674 C   0  0  0  0  0  0  0  0  0  0  0  0
    0.0144    0.7274    0.3957 C   0  0  0  0  0  0  0  0  0  0  0  0
   -0.3884   -0.3930   -0.1939 C   0  0  0  0  0  0  0  0  0  0  0  0
   -1.8084   -0.5889   -0.6005 C   0  0  0  0  0  0  0  0  0  0  0  0
   -2.3093   -1.7028    0.0696 O   0  0  0  0  0  0  0  0  0  0  0  0
    0.6492   -1.4356   -0.4249 C   0  0  0  0  0  0  0  0  0  0  0  0
    1.9288   -0.6571   -0.7556 C   0  0  0  0  0  0  0  0  0  0  0  0
    2.2932   -0.0109    0.4219 O   0  0  0  0  0  0  0  0  0  0  0  0
    1.4196    0.9631    0.8171 C   0  0  0  0  0  0  0  0  0  0  0  0
   -1.7865    1.4956    1.3110 H   0  0  0  0  0  0  0  0  0  0  0  0
   -1.4202    2.0651   -0.3338 H   0  0  0  0  0  0  0  0  0  0  0  0
   -0.4700    2.7507    0.9919 H   0  0  0  0  0  0  0  0  0  0  0  0
   -1.9252   -0.7767   -1.6766 H   0  0  0  0  0  0  0  0  0  0  0  0
   -2.3987    0.2788   -0.2497 H   0  0  0  0  0  0  0  0  0  0  0  0
   -1.6192   -2.2731    0.4632 H   0  0  0  0  0  0  0  0  0  0  0  0
    0.8453   -1.9125    0.5606 H   0  0  0  0  0  0  0  0  0  0  0  0
    0.3863   -2.1533   -1.1969 H   0  0  0  0  0  0  0  0  0  0  0  0
    1.6747    0.1470   -1.4952 H   0  0  0  0  0  0  0  0  0  0  0  0
    2.7325   -1.3022   -1.1037 H   0  0  0  0  0  0  0  0  0  0  0  0
    1.7312    1.9378    0.3988 H   0  0  0  0  0  0  0  0  0  0  0  0
    1.4061    1.0135    1.9335 H   0  0  0  0  0  0  0  0  0  0  0  0
  1  2  1  0
  2  3  2  0
  3  4  1  0
  4  5  1  0
  3  6  1  0
  6  7  1  0
  7  8  1  0
  8  9  1  0
  9  2  1  0
  1 10  1  0
  1 11  1  0
  1 12  1  0
  4 13  1  0
  4 14  1  0
  5 15  1  0
  6 16  1  0
  6 17  1  0
  7 18  1  0
  7 19  1  0
  9 20  1  0
  9 21  1  0
M  END
