
     RDKit          3D

 25 25  0  0  0  0  0  0  0  0999 V2000
    2.8011   -0.8177   -0.8785 C   0  0  0  0  0  0  0  0  0  0  0  0
    1.4427   -0.2645   -0.4804 C   0  0  0  0  0  0  0  0  0  0  0  0
    1.0151    0.9645   -0.6456 C   0  0  0  0  0  0  0  0  0  0  0  0
   -0.3596    1.1358   -0.1357 C   0  0  0  0  0  0  0  0  0  0  0  0
   -0.2472    1.8861    1.1751 C   0  0  0  0  0  0  0  0  0  0  0  0
   -0.8499   -0.2573    0.0236 C   0  0  0  0  0  0  0  0  0  0  0  0
   -1.7192   -0.4714    1.2332 C   0  0  0  0  0  0  0  0  0  0  0  0
   -1.6221   -0.6787   -1.2073 C   0  0  0  0  0  0  0  0  0  0  0  0
    0.3898   -1.0729    0.1689 C   0  0  0  0  0  0  0  0  0  0  0  0
    3.5265   -0.0057   -1.0167 H   0  0  0  0  0  0  0  0  0  0  0  0
    2.7443   -1.4088   -1.7906 H   0  0  0  0  0  0  0  0  0  0  0  0
    3.1488   -1.4189   -0.0113 H   0  0  0  0  0  0  0  0  0  0  0  0
    1.6408    1.7629   -1.1191 H   0  0  0  0  0  0  0  0  0  0  0  0
   -0.9313    1.7392   -0.8659 H   0  0  0  0  0  0  0  0  0  0  0  0
    0.6192    2.6041    1.1463 H   0  0  0  0  0  0  0  0  0  0  0  0
   -0.0494    1.2324    2.0346 H   0  0  0  0  0  0  0  0  0  0  0  0
   -1.1458    2.5292    1.3672 H   0  0  0  0  0  0  0  0  0  0  0  0
   -1.1279   -0.6103    2.1695 H   0  0  0  0  0  0  0  0  0  0  0  0
   -2.5010    0.3045    1.3490 H   0  0  0  0  0  0  0  0  0  0  0  0
   -2.2575   -1.4337    1.0825 H   0  0  0  0  0  0  0  0  0  0  0  0
   -1.0434   -0.3505   -2.0953 H   0  0  0  0  0  0  0  0  0  0  0  0
   -2.6444   -0.2412   -1.2177 H   0  0  0  0  0  0  0  0  0  0  0  0
   -1.7430   -1.7756   -1.1989 H   0  0  0  0  0  0  0  0  0  0  0  0
    0.6576   -1.2892    1.2314 H   0  0  0  0  0  0  0  0  0  0  0  0
    0.2558   -2.0620   -0.3181 H   0  0  0  0  0  0  0  0  0  0  0  0
  1  2  1  0
  2  3  2  0
  3  4  1  0
  4  5  1  0
  4  6  1  0
  6  7  1  0
  6  8  1  0
  6  9  1  0
  9  2  1  0
  1 10  1  0
  1 11  1  0
  1 12  1  0
  3 13  1  0
  4 14  1  0
  5 15  1  0
  5 16  1  0
  5 17  1  0
  7 18  1  0
  7 19  1  0
  7 20  1  0
  8 21  1  0
  8 22  1  0
  8 23  1  0
  9 24  1  0
  9 25  1  0
M  END
