
     RDKit          3D

 15 16  0  0  0  0  0  0  0  0999 V2000
    2.0995    0.0491    0.0341 C   0  0  0  0  0  0  0  0  0  0  0  0
    0.5965   -0.0149   -0.1000 C   0  0  0  0  0  0  0  0  0  0  0  0
   -0.1817    1.0428    0.1037 C   0  0  0  0  0  0  0  0  0  0  0  0
   -1.6087    0.5436   -0.1282 C   0  0  0  0  0  0  0  0  0  0  0  0
   -1.3879   -0.7959    0.5233 C   0  0  0  0  0  0  0  0  0  0  0  0
   -1.0206   -1.9731    0.1136 O   0  0  0  0  0  0  0  0  0  0  0  0
   -0.2456   -1.1157   -0.4766 C   0  0  0  0  0  0  0  0  0  0  0  0
    2.5333   -0.7431   -0.5954 H   0  0  0  0  0  0  0  0  0  0  0  0
    2.3571   -0.1041    1.0921 H   0  0  0  0  0  0  0  0  0  0  0  0
    2.4867    1.0332   -0.2792 H   0  0  0  0  0  0  0  0  0  0  0  0
    0.0838    2.0609    0.3765 H   0  0  0  0  0  0  0  0  0  0  0  0
   -2.2856    1.1410    0.5098 H   0  0  0  0  0  0  0  0  0  0  0  0
   -1.8557    0.5109   -1.1864 H   0  0  0  0  0  0  0  0  0  0  0  0
   -1.0476   -0.6105    1.5930 H   0  0  0  0  0  0  0  0  0  0  0  0
   -0.5235   -1.0243   -1.5803 H   0  0  0  0  0  0  0  0  0  0  0  0
  1  2  1  0
  2  3  2  0
  3  4  1  0
  4  5  1  0
  5  6  1  0
  6  7  1  0
  7  2  1  0
  7  5  1  0
  1  8  1  0
  1  9  1  0
  1 10  1  0
  3 11  1  0
  4 12  1  0
  4 13  1  0
  5 14  1  0
  7 15  1  0
M  END
