
     RDKit          3D

 21 21  0  0  0  0  0  0  0  0999 V2000
   -0.9883    1.8585   -0.5985 C   0  0  0  0  0  0  0  0  0  0  0  0
   -0.1665    0.7475   -0.0475 C   0  0  0  0  0  0  0  0  0  0  0  0
   -0.7446   -0.4174    0.1967 C   0  0  0  0  0  0  0  0  0  0  0  0
   -2.1583   -0.7217   -0.0318 C   0  0  0  0  0  0  0  0  0  0  0  0
    0.1604   -1.4793    0.7489 C   0  0  0  0  0  0  0  0  0  0  0  0
    1.3738   -1.4547   -0.1085 C   0  0  0  0  0  0  0  0  0  0  0  0
    1.6549   -2.4685   -0.7217 O   0  0  0  0  0  0  0  0  0  0  0  0
    2.1523   -0.1939   -0.1523 C   0  0  0  0  0  0  0  0  0  0  0  0
    1.2802    0.9596    0.2206 C   0  0  0  0  0  0  0  0  0  0  0  0
   -1.5347    1.5393   -1.5341 H   0  0  0  0  0  0  0  0  0  0  0  0
   -0.3676    2.7212   -0.9068 H   0  0  0  0  0  0  0  0  0  0  0  0
   -1.7349    2.2301    0.1231 H   0  0  0  0  0  0  0  0  0  0  0  0
   -2.2904   -1.1109   -1.0686 H   0  0  0  0  0  0  0  0  0  0  0  0
   -2.8403    0.1433    0.1514 H   0  0  0  0  0  0  0  0  0  0  0  0
   -2.4869   -1.5113    0.7065 H   0  0  0  0  0  0  0  0  0  0  0  0
   -0.3176   -2.4598    0.7638 H   0  0  0  0  0  0  0  0  0  0  0  0
    0.4457   -1.1264    1.7659 H   0  0  0  0  0  0  0  0  0  0  0  0
    2.6120   -0.0910   -1.1558 H   0  0  0  0  0  0  0  0  0  0  0  0
    2.9393   -0.2875    0.6475 H   0  0  0  0  0  0  0  0  0  0  0  0
    1.6105    1.8996   -0.3114 H   0  0  0  0  0  0  0  0  0  0  0  0
    1.4010    1.2233    1.3125 H   0  0  0  0  0  0  0  0  0  0  0  0
  1  2  1  0
  2  3  2  0
  3  4  1  0
  3  5  1  0
  5  6  1  0
  6  7  2  0
  6  8  1  0
  8  9  1  0
  9  2  1  0
  1 10  1  0
  1 11  1  0
  1 12  1  0
  4 13  1  0
  4 14  1  0
  4 15  1  0
  5 16  1  0
  5 17  1  0
  8 18  1  0
  8 19  1  0
  9 20  1  0
  9 21  1  0
M  END
