
     RDKit          3D

 19 19  0  0  0  0  0  0  0  0999 V2000
    2.3676   -0.4968    0.1444 C   0  0  0  0  0  0  0  0  0  0  0  0
    1.0851    0.1879   -0.1994 C   0  0  0  0  0  0  0  0  0  0  0  0
   -0.1273   -0.3012   -0.2339 C   0  0  0  0  0  0  0  0  0  0  0  0
   -0.4828   -1.7117    0.0799 C   0  0  0  0  0  0  0  0  0  0  0  0
   -1.1063    0.7185   -0.6233 C   0  0  0  0  0  0  0  0  0  0  0  0
   -2.0667    0.8614    0.5669 C   0  0  0  0  0  0  0  0  0  0  0  0
   -0.3563    1.8661   -0.8180 O   0  0  0  0  0  0  0  0  0  0  0  0
    0.9722    1.5886   -0.5723 C   0  0  0  0  0  0  0  0  0  0  0  0
    1.9153    2.4264   -0.6623 O   0  0  0  0  0  0  0  0  0  0  0  0
    2.8247   -0.9966   -0.7216 H   0  0  0  0  0  0  0  0  0  0  0  0
    3.0801    0.2636    0.5402 H   0  0  0  0  0  0  0  0  0  0  0  0
    2.2427   -1.2490    0.9355 H   0  0  0  0  0  0  0  0  0  0  0  0
   -0.7218   -2.2272   -0.8655 H   0  0  0  0  0  0  0  0  0  0  0  0
    0.3283   -2.2393    0.6163 H   0  0  0  0  0  0  0  0  0  0  0  0
   -1.4016   -1.7788    0.7170 H   0  0  0  0  0  0  0  0  0  0  0  0
   -1.6867    0.4045   -1.5209 H   0  0  0  0  0  0  0  0  0  0  0  0
   -2.2543    1.9392    0.7486 H   0  0  0  0  0  0  0  0  0  0  0  0
   -1.6176    0.4605    1.4958 H   0  0  0  0  0  0  0  0  0  0  0  0
   -2.9944    0.2838    0.3724 H   0  0  0  0  0  0  0  0  0  0  0  0
  1  2  1  0
  2  3  2  0
  3  4  1  0
  3  5  1  0
  5  6  1  0
  5  7  1  0
  7  8  1  0
  8  9  2  0
  8  2  1  0
  1 10  1  0
  1 11  1  0
  1 12  1  0
  4 13  1  0
  4 14  1  0
  4 15  1  0
  5 16  1  0
  6 17  1  0
  6 18  1  0
  6 19  1  0
M  END
