
     RDKit          3D

 21 21  0  0  0  0  0  0  0  0999 V2000
    2.1129   -0.5569    0.8691 C   0  0  0  0  0  0  0  0  0  0  0  0
    0.8463   -0.5712    0.1090 C   0  0  0  0  0  0  0  0  0  0  0  0
   -0.0345   -1.5559    0.1363 C   0  0  0  0  0  0  0  0  0  0  0  0
   -1.1996   -1.2214   -0.7606 C   0  0  0  0  0  0  0  0  0  0  0  0
   -1.1612    0.3120   -0.6308 C   0  0  0  0  0  0  0  0  0  0  0  0
   -1.6254    0.6475    0.7439 C   0  0  0  0  0  0  0  0  0  0  0  0
    0.3539    0.4727   -0.7899 C   0  0  0  0  0  0  0  0  0  0  0  0
    0.8241    1.8155   -0.5215 C   0  0  0  0  0  0  0  0  0  0  0  0
    1.6923    2.3126   -1.2094 O   0  0  0  0  0  0  0  0  0  0  0  0
    2.6362    0.4233    0.7884 H   0  0  0  0  0  0  0  0  0  0  0  0
    2.8415   -1.3268    0.4900 H   0  0  0  0  0  0  0  0  0  0  0  0
    1.9792   -0.7504    1.9474 H   0  0  0  0  0  0  0  0  0  0  0  0
   -0.0041   -2.4928    0.6887 H   0  0  0  0  0  0  0  0  0  0  0  0
   -2.1399   -1.6212   -0.3875 H   0  0  0  0  0  0  0  0  0  0  0  0
   -0.9806   -1.4560   -1.8125 H   0  0  0  0  0  0  0  0  0  0  0  0
   -1.7167    0.7817   -1.4436 H   0  0  0  0  0  0  0  0  0  0  0  0
   -2.5768    1.2427    0.6477 H   0  0  0  0  0  0  0  0  0  0  0  0
   -0.9336    1.2597    1.3335 H   0  0  0  0  0  0  0  0  0  0  0  0
   -1.8883   -0.2370    1.3507 H   0  0  0  0  0  0  0  0  0  0  0  0
    0.5564    0.1227   -1.8361 H   0  0  0  0  0  0  0  0  0  0  0  0
    0.4179    2.3991    0.2876 H   0  0  0  0  0  0  0  0  0  0  0  0
  1  2  1  0
  2  3  2  0
  3  4  1  0
  4  5  1  0
  5  6  1  0
  5  7  1  0
  7  8  1  0
  8  9  2  0
  7  2  1  0
  1 10  1  0
  1 11  1  0
  1 12  1  0
  3 13  1  0
  4 14  1  0
  4 15  1  0
  5 16  1  0
  6 17  1  0
  6 18  1  0
  6 19  1  0
  7 20  1  0
  8 21  1  0
M  END
