
     RDKit          3D

 17 17  0  0  0  0  0  0  0  0999 V2000
   -1.1667    1.7858    0.0562 C   0  0  0  0  0  0  0  0  0  0  0  0
   -0.1356    0.7118    0.0394 C   0  0  0  0  0  0  0  0  0  0  0  0
    1.0938    0.8693   -0.3781 C   0  0  0  0  0  0  0  0  0  0  0  0
    1.8267   -0.4039   -0.2499 C   0  0  0  0  0  0  0  0  0  0  0  0
    0.9748   -1.2566    0.5898 C   0  0  0  0  0  0  0  0  0  0  0  0
    1.2987   -2.2287    1.2212 O   0  0  0  0  0  0  0  0  0  0  0  0
   -0.3873   -0.6725    0.5042 C   0  0  0  0  0  0  0  0  0  0  0  0
   -1.2839   -1.4337   -0.3910 C   0  0  0  0  0  0  0  0  0  0  0  0
   -2.0289   -2.2610    0.1477 O   0  0  0  0  0  0  0  0  0  0  0  0
   -0.7601    2.7614   -0.2771 H   0  0  0  0  0  0  0  0  0  0  0  0
   -1.5023    1.8953    1.1150 H   0  0  0  0  0  0  0  0  0  0  0  0
   -2.0288    1.4555   -0.5747 H   0  0  0  0  0  0  0  0  0  0  0  0
    1.5518    1.8118   -0.7773 H   0  0  0  0  0  0  0  0  0  0  0  0
    2.8513   -0.2718    0.1592 H   0  0  0  0  0  0  0  0  0  0  0  0
    1.8457   -0.8692   -1.2617 H   0  0  0  0  0  0  0  0  0  0  0  0
   -0.8319   -0.5880    1.5282 H   0  0  0  0  0  0  0  0  0  0  0  0
   -1.3171   -1.3058   -1.4510 H   0  0  0  0  0  0  0  0  0  0  0  0
  1  2  1  0
  2  3  2  0
  3  4  1  0
  4  5  1  0
  5  6  2  0
  5  7  1  0
  7  8  1  0
  8  9  2  0
  7  2  1  0
  1 10  1  0
  1 11  1  0
  1 12  1  0
  3 13  1  0
  4 14  1  0
  4 15  1  0
  7 16  1  0
  8 17  1  0
M  END
