
     RDKit          3D

 21 22  0  0  0  0  0  0  0  0999 V2000
    2.4592    0.7542    0.4538 C   0  0  0  0  0  0  0  0  0  0  0  0
    1.3203   -0.0693   -0.0198 C   0  0  0  0  0  0  0  0  0  0  0  0
    1.2522   -1.3834   -0.0981 C   0  0  0  0  0  0  0  0  0  0  0  0
   -0.0510   -1.8565   -0.6214 C   0  0  0  0  0  0  0  0  0  0  0  0
   -0.8281   -0.6161   -0.9383 C   0  0  0  0  0  0  0  0  0  0  0  0
    0.0396    0.4743   -0.4943 C   0  0  0  0  0  0  0  0  0  0  0  0
   -1.2309    0.2124    0.2240 C   0  0  0  0  0  0  0  0  0  0  0  0
   -2.2754    1.2995    0.0813 C   0  0  0  0  0  0  0  0  0  0  0  0
   -1.2237   -0.3922    1.4825 O   0  0  0  0  0  0  0  0  0  0  0  0
    3.4444    0.3113    0.2000 H   0  0  0  0  0  0  0  0  0  0  0  0
    2.3601    0.9400    1.5323 H   0  0  0  0  0  0  0  0  0  0  0  0
    2.4305    1.7411   -0.0597 H   0  0  0  0  0  0  0  0  0  0  0  0
    2.0632   -2.0518    0.1896 H   0  0  0  0  0  0  0  0  0  0  0  0
   -0.5879   -2.3649    0.2308 H   0  0  0  0  0  0  0  0  0  0  0  0
    0.0527   -2.5403   -1.4858 H   0  0  0  0  0  0  0  0  0  0  0  0
   -1.4115   -0.5785   -1.8793 H   0  0  0  0  0  0  0  0  0  0  0  0
    0.1463    1.4261   -1.0879 H   0  0  0  0  0  0  0  0  0  0  0  0
   -2.9937    1.2923    0.9321 H   0  0  0  0  0  0  0  0  0  0  0  0
   -1.7121    2.2714    0.1952 H   0  0  0  0  0  0  0  0  0  0  0  0
   -2.8299    1.2590   -0.8562 H   0  0  0  0  0  0  0  0  0  0  0  0
   -0.4243   -0.1285    2.0194 H   0  0  0  0  0  0  0  0  0  0  0  0
  1  2  1  0
  2  3  2  0
  3  4  1  0
  4  5  1  0
  5  6  1  0
  6  7  1  0
  7  8  1  0
  7  9  1  0
  6  2  1  0
  7  5  1  0
  1 10  1  0
  1 11  1  0
  1 12  1  0
  3 13  1  0
  4 14  1  0
  4 15  1  0
  5 16  1  0
  6 17  1  0
  8 18  1  0
  8 19  1  0
  8 20  1  0
  9 21  1  0
M  END
