
     RDKit          3D

 19 21  0  0  0  0  0  0  0  0999 V2000
    2.5127   -0.4564   -0.2116 C   0  0  0  0  0  0  0  0  0  0  0  0
    1.0394   -0.2922   -0.0105 C   0  0  0  0  0  0  0  0  0  0  0  0
    0.2612   -1.2331    0.4517 C   0  0  0  0  0  0  0  0  0  0  0  0
   -1.1939   -1.1327    0.6717 C   0  0  0  0  0  0  0  0  0  0  0  0
   -1.8279    0.0706    0.0771 C   0  0  0  0  0  0  0  0  0  0  0  0
   -1.3545    1.4484    0.3353 C   0  0  0  0  0  0  0  0  0  0  0  0
   -0.0825    1.6169    0.8119 O   0  0  0  0  0  0  0  0  0  0  0  0
    0.4150    1.0248   -0.3573 C   0  0  0  0  0  0  0  0  0  0  0  0
   -0.9578    0.7423   -0.8819 C   0  0  0  0  0  0  0  0  0  0  0  0
    2.9316   -1.2961    0.3562 H   0  0  0  0  0  0  0  0  0  0  0  0
    2.7751   -0.5145   -1.2855 H   0  0  0  0  0  0  0  0  0  0  0  0
    2.9902    0.4884    0.1620 H   0  0  0  0  0  0  0  0  0  0  0  0
    0.7262   -2.1925    0.7025 H   0  0  0  0  0  0  0  0  0  0  0  0
   -1.6582   -2.0353    0.1766 H   0  0  0  0  0  0  0  0  0  0  0  0
   -1.3776   -1.2403    1.7560 H   0  0  0  0  0  0  0  0  0  0  0  0
   -2.9116   -0.0084   -0.2085 H   0  0  0  0  0  0  0  0  0  0  0  0
   -2.0723    2.2785    0.2963 H   0  0  0  0  0  0  0  0  0  0  0  0
    1.0352    1.7013   -0.9433 H   0  0  0  0  0  0  0  0  0  0  0  0
   -1.2503    1.0303   -1.8986 H   0  0  0  0  0  0  0  0  0  0  0  0
  1  2  1  0
  2  3  2  0
  3  4  1  0
  4  5  1  0
  5  6  1  0
  6  7  1  0
  7  8  1  0
  8  9  1  0
  8  2  1  0
  9  5  1  0
  9  6  1  0
  1 10  1  0
  1 11  1  0
  1 12  1  0
  3 13  1  0
  4 14  1  0
  4 15  1  0
  5 16  1  0
  6 17  1  0
  8 18  1  0
  9 19  1  0
M  END
