
     RDKit          3D

 21 22  0  0  0  0  0  0  0  0999 V2000
    1.6300   -1.8840    0.6601 C   0  0  0  0  0  0  0  0  0  0  0  0
    1.0170   -0.5774    0.3859 C   0  0  0  0  0  0  0  0  0  0  0  0
    1.7725    0.4600    0.0532 C   0  0  0  0  0  0  0  0  0  0  0  0
    1.2209    1.8150   -0.2389 C   0  0  0  0  0  0  0  0  0  0  0  0
   -0.1816    1.8218   -0.3832 O   0  0  0  0  0  0  0  0  0  0  0  0
   -0.5497    0.6077   -0.8485 C   0  0  0  0  0  0  0  0  0  0  0  0
   -1.4705   -0.3896   -0.4550 C   0  0  0  0  0  0  0  0  0  0  0  0
   -2.8578    0.0843   -0.0007 C   0  0  0  0  0  0  0  0  0  0  0  0
   -0.3931   -0.2851    0.4410 C   0  0  0  0  0  0  0  0  0  0  0  0
    1.5286   -2.1039    1.7637 H   0  0  0  0  0  0  0  0  0  0  0  0
    2.7034   -1.9207    0.4504 H   0  0  0  0  0  0  0  0  0  0  0  0
    1.1558   -2.7183    0.1034 H   0  0  0  0  0  0  0  0  0  0  0  0
    2.8684    0.3983   -0.0330 H   0  0  0  0  0  0  0  0  0  0  0  0
    1.6207    2.1093   -1.2318 H   0  0  0  0  0  0  0  0  0  0  0  0
    1.5624    2.5796    0.4824 H   0  0  0  0  0  0  0  0  0  0  0  0
    0.1040    0.3400   -1.7284 H   0  0  0  0  0  0  0  0  0  0  0  0
   -1.5834   -1.3088   -1.0693 H   0  0  0  0  0  0  0  0  0  0  0  0
   -3.5614   -0.7448    0.1107 H   0  0  0  0  0  0  0  0  0  0  0  0
   -3.2176    0.7710   -0.8031 H   0  0  0  0  0  0  0  0  0  0  0  0
   -2.7421    0.7057    0.9197 H   0  0  0  0  0  0  0  0  0  0  0  0
   -0.6266    0.2398    1.4215 H   0  0  0  0  0  0  0  0  0  0  0  0
  1  2  1  0
  2  3  2  0
  3  4  1  0
  4  5  1  0
  5  6  1  0
  6  7  1  0
  7  8  1  0
  7  9  1  0
  9  2  1  0
  9  6  1  0
  1 10  1  0
  1 11  1  0
  1 12  1  0
  3 13  1  0
  4 14  1  0
  4 15  1  0
  6 16  1  0
  7 17  1  0
  8 18  1  0
  8 19  1  0
  8 20  1  0
  9 21  1  0
M  END
