
     RDKit          3D

 23 23  0  0  0  0  0  0  0  0999 V2000
    2.9954   -0.2724    0.0063 C   0  0  0  0  0  0  0  0  0  0  0  0
    1.5221   -0.1413   -0.1144 C   0  0  0  0  0  0  0  0  0  0  0  0
    0.7405   -0.7459    0.7693 C   0  0  0  0  0  0  0  0  0  0  0  0
   -0.6918   -0.8618    0.9940 C   0  0  0  0  0  0  0  0  0  0  0  0
   -1.5856    0.0909    0.3327 C   0  0  0  0  0  0  0  0  0  0  0  0
   -2.9857   -0.5120    0.1383 C   0  0  0  0  0  0  0  0  0  0  0  0
   -1.1981    0.6079   -0.8643 O   0  0  0  0  0  0  0  0  0  0  0  0
   -0.1220    1.4791   -0.7878 C   0  0  0  0  0  0  0  0  0  0  0  0
    1.0759    0.6816   -1.2524 C   0  0  0  0  0  0  0  0  0  0  0  0
    3.4076    0.7497    0.1453 H   0  0  0  0  0  0  0  0  0  0  0  0
    3.3767   -0.6420   -0.9679 H   0  0  0  0  0  0  0  0  0  0  0  0
    3.3079   -0.8920    0.8658 H   0  0  0  0  0  0  0  0  0  0  0  0
    1.3357   -1.2953    1.5162 H   0  0  0  0  0  0  0  0  0  0  0  0
   -0.8906   -0.8731    2.1078 H   0  0  0  0  0  0  0  0  0  0  0  0
   -0.9903   -1.9056    0.6764 H   0  0  0  0  0  0  0  0  0  0  0  0
   -1.7613    0.9622    1.0313 H   0  0  0  0  0  0  0  0  0  0  0  0
   -3.2927   -1.1005    1.0286 H   0  0  0  0  0  0  0  0  0  0  0  0
   -3.6727    0.3359   -0.0539 H   0  0  0  0  0  0  0  0  0  0  0  0
   -2.9430   -1.1048   -0.7874 H   0  0  0  0  0  0  0  0  0  0  0  0
   -0.0190    1.7347    0.3019 H   0  0  0  0  0  0  0  0  0  0  0  0
   -0.2614    2.4159   -1.3362 H   0  0  0  0  0  0  0  0  0  0  0  0
    0.7803   -0.0280   -2.0686 H   0  0  0  0  0  0  0  0  0  0  0  0
    1.8721    1.3165   -1.6810 H   0  0  0  0  0  0  0  0  0  0  0  0
  1  2  1  0
  2  3  2  0
  3  4  1  0
  4  5  1  0
  5  6  1  0
  5  7  1  0
  7  8  1  0
  8  9  1  0
  9  2  1  0
  1 10  1  0
  1 11  1  0
  1 12  1  0
  3 13  1  0
  4 14  1  0
  4 15  1  0
  5 16  1  0
  6 17  1  0
  6 18  1  0
  6 19  1  0
  8 20  1  0
  8 21  1  0
  9 22  1  0
  9 23  1  0
M  END
