
     RDKit          3D

 19 19  0  0  0  0  0  0  0  0999 V2000
    2.5627    0.7827    0.0960 C   0  0  0  0  0  0  0  0  0  0  0  0
    1.2920    0.1277   -0.2917 C   0  0  0  0  0  0  0  0  0  0  0  0
    0.1378    0.7779   -0.2862 C   0  0  0  0  0  0  0  0  0  0  0  0
   -0.9343   -0.1335   -0.7164 C   0  0  0  0  0  0  0  0  0  0  0  0
   -1.7823   -0.6429    0.4212 C   0  0  0  0  0  0  0  0  0  0  0  0
   -2.4472    0.4725    1.1436 C   0  0  0  0  0  0  0  0  0  0  0  0
   -2.2395    1.6035    0.7490 O   0  0  0  0  0  0  0  0  0  0  0  0
   -0.2680   -1.2063   -1.2917 O   0  0  0  0  0  0  0  0  0  0  0  0
    0.9938   -1.2551   -0.7358 C   0  0  0  0  0  0  0  0  0  0  0  0
    3.4572    0.1779   -0.1268 H   0  0  0  0  0  0  0  0  0  0  0  0
    2.5594    1.0731    1.1875 H   0  0  0  0  0  0  0  0  0  0  0  0
    2.5801    1.7735   -0.4416 H   0  0  0  0  0  0  0  0  0  0  0  0
   -0.0444    1.8236   -0.0147 H   0  0  0  0  0  0  0  0  0  0  0  0
   -1.5849    0.4082   -1.4182 H   0  0  0  0  0  0  0  0  0  0  0  0
   -2.5952   -1.2639   -0.0134 H   0  0  0  0  0  0  0  0  0  0  0  0
   -1.2086   -1.2831    1.1198 H   0  0  0  0  0  0  0  0  0  0  0  0
   -3.0969    0.3272    1.9905 H   0  0  0  0  0  0  0  0  0  0  0  0
    0.9221   -1.9565    0.1331 H   0  0  0  0  0  0  0  0  0  0  0  0
    1.6964   -1.6064   -1.5043 H   0  0  0  0  0  0  0  0  0  0  0  0
  1  2  1  0
  2  3  2  0
  3  4  1  0
  4  5  1  0
  5  6  1  0
  6  7  2  0
  4  8  1  0
  8  9  1  0
  9  2  1  0
  1 10  1  0
  1 11  1  0
  1 12  1  0
  3 13  1  0
  4 14  1  0
  5 15  1  0
  5 16  1  0
  6 17  1  0
  9 18  1  0
  9 19  1  0
M  END
