
     RDKit          3D

 19 19  0  0  0  0  0  0  0  0999 V2000
    2.6719    0.1933   -0.1493 C   0  0  0  0  0  0  0  0  0  0  0  0
    1.2039   -0.0567    0.0415 C   0  0  0  0  0  0  0  0  0  0  0  0
    0.2842    0.8668   -0.0681 C   0  0  0  0  0  0  0  0  0  0  0  0
   -1.0308    0.2611    0.1851 C   0  0  0  0  0  0  0  0  0  0  0  0
   -2.1266    0.8366   -0.6665 C   0  0  0  0  0  0  0  0  0  0  0  0
   -1.3024    0.3916    1.5491 O   0  0  0  0  0  0  0  0  0  0  0  0
   -0.8052   -1.2039   -0.0701 C   0  0  0  0  0  0  0  0  0  0  0  0
    0.6071   -1.3474    0.3614 C   0  0  0  0  0  0  0  0  0  0  0  0
    1.2104   -2.3030    0.8781 O   0  0  0  0  0  0  0  0  0  0  0  0
    2.9811    0.9921    0.5574 H   0  0  0  0  0  0  0  0  0  0  0  0
    3.2507   -0.7288    0.0269 H   0  0  0  0  0  0  0  0  0  0  0  0
    2.7800    0.5907   -1.1723 H   0  0  0  0  0  0  0  0  0  0  0  0
    0.4246    1.9278   -0.3072 H   0  0  0  0  0  0  0  0  0  0  0  0
   -1.7708    1.0582   -1.6751 H   0  0  0  0  0  0  0  0  0  0  0  0
   -2.5199    1.7360   -0.1252 H   0  0  0  0  0  0  0  0  0  0  0  0
   -2.9735    0.1246   -0.7150 H   0  0  0  0  0  0  0  0  0  0  0  0
   -0.5570   -0.1068    2.0151 H   0  0  0  0  0  0  0  0  0  0  0  0
   -0.8275   -1.3817   -1.1632 H   0  0  0  0  0  0  0  0  0  0  0  0
   -1.5002   -1.8505    0.4975 H   0  0  0  0  0  0  0  0  0  0  0  0
  1  2  1  0
  2  3  2  0
  3  4  1  0
  4  5  1  0
  4  6  1  0
  4  7  1  0
  7  8  1  0
  8  9  2  0
  8  2  1  0
  1 10  1  0
  1 11  1  0
  1 12  1  0
  3 13  1  0
  5 14  1  0
  5 15  1  0
  5 16  1  0
  6 17  1  0
  7 18  1  0
  7 19  1  0
M  END
