
     RDKit          3D

 21 21  0  0  0  0  0  0  0  0999 V2000
   -2.4268    0.9082   -0.1587 C   0  0  0  0  0  0  0  0  0  0  0  0
   -1.0947    0.2411   -0.0308 C   0  0  0  0  0  0  0  0  0  0  0  0
   -0.1070    1.0440    0.2971 C   0  0  0  0  0  0  0  0  0  0  0  0
    1.3148    0.7862    0.5151 C   0  0  0  0  0  0  0  0  0  0  0  0
    2.0985    1.9500    0.3520 O   0  0  0  0  0  0  0  0  0  0  0  0
    1.8922   -0.2062   -0.5021 C   0  0  0  0  0  0  0  0  0  0  0  0
    1.3917   -1.5373   -0.0813 C   0  0  0  0  0  0  0  0  0  0  0  0
    0.1305   -1.9073   -0.0096 C   0  0  0  0  0  0  0  0  0  0  0  0
   -1.1270   -1.1980   -0.2952 C   0  0  0  0  0  0  0  0  0  0  0  0
   -2.8582    0.9640    0.8664 H   0  0  0  0  0  0  0  0  0  0  0  0
   -3.1293    0.2853   -0.7548 H   0  0  0  0  0  0  0  0  0  0  0  0
   -2.3662    1.8819   -0.6628 H   0  0  0  0  0  0  0  0  0  0  0  0
   -0.3924    2.1001    0.4336 H   0  0  0  0  0  0  0  0  0  0  0  0
    1.5360    0.3983    1.5161 H   0  0  0  0  0  0  0  0  0  0  0  0
    1.9348    2.6147    1.0404 H   0  0  0  0  0  0  0  0  0  0  0  0
    2.9784   -0.1560   -0.5424 H   0  0  0  0  0  0  0  0  0  0  0  0
    1.4769    0.0651   -1.5158 H   0  0  0  0  0  0  0  0  0  0  0  0
    2.1303   -2.2621    0.1886 H   0  0  0  0  0  0  0  0  0  0  0  0
    0.0288   -2.9495    0.3316 H   0  0  0  0  0  0  0  0  0  0  0  0
   -1.4803   -1.3820   -1.3502 H   0  0  0  0  0  0  0  0  0  0  0  0
   -1.9311   -1.6405    0.3628 H   0  0  0  0  0  0  0  0  0  0  0  0
  1  2  1  0
  2  3  2  0
  3  4  1  0
  4  5  1  0
  4  6  1  0
  6  7  1  0
  7  8  2  0
  8  9  1  0
  9  2  1  0
  1 10  1  0
  1 11  1  0
  1 12  1  0
  3 13  1  0
  4 14  1  0
  5 15  1  0
  6 16  1  0
  6 17  1  0
  7 18  1  0
  8 19  1  0
  9 20  1  0
  9 21  1  0
M  END
