
     RDKit          3D

 23 24  0  0  0  0  0  0  0  0999 V2000
    2.6402   -0.2247    0.0312 C   0  0  0  0  0  0  0  0  0  0  0  0
    1.1563   -0.2197   -0.1996 C   0  0  0  0  0  0  0  0  0  0  0  0
    0.6161   -1.4122   -0.0190 C   0  0  0  0  0  0  0  0  0  0  0  0
   -0.7992   -1.8289   -0.1457 C   0  0  0  0  0  0  0  0  0  0  0  0
   -1.6155   -0.7472    0.5744 C   0  0  0  0  0  0  0  0  0  0  0  0
   -1.8457    0.3771   -0.3388 C   0  0  0  0  0  0  0  0  0  0  0  0
   -0.7823    1.3522   -0.5591 C   0  0  0  0  0  0  0  0  0  0  0  0
    0.0285    1.8496    0.6257 C   0  0  0  0  0  0  0  0  0  0  0  0
    0.5941    1.0452   -0.5675 C   0  0  0  0  0  0  0  0  0  0  0  0
    2.9307   -1.0650    0.6884 H   0  0  0  0  0  0  0  0  0  0  0  0
    3.1081   -0.3367   -0.9634 H   0  0  0  0  0  0  0  0  0  0  0  0
    2.9714    0.7311    0.5208 H   0  0  0  0  0  0  0  0  0  0  0  0
    1.2939   -2.2244    0.2658 H   0  0  0  0  0  0  0  0  0  0  0  0
   -1.0379   -1.8426   -1.2265 H   0  0  0  0  0  0  0  0  0  0  0  0
   -1.0077   -2.7916    0.3552 H   0  0  0  0  0  0  0  0  0  0  0  0
   -1.0469   -0.5035    1.4881 H   0  0  0  0  0  0  0  0  0  0  0  0
   -2.5827   -1.1717    0.9043 H   0  0  0  0  0  0  0  0  0  0  0  0
   -2.7701    0.9294    0.0106 H   0  0  0  0  0  0  0  0  0  0  0  0
   -2.1648   -0.0417   -1.3398 H   0  0  0  0  0  0  0  0  0  0  0  0
   -1.1262    2.2243   -1.1986 H   0  0  0  0  0  0  0  0  0  0  0  0
   -0.1350    1.3185    1.5683 H   0  0  0  0  0  0  0  0  0  0  0  0
    0.2920    2.8982    0.7257 H   0  0  0  0  0  0  0  0  0  0  0  0
    1.2829    1.6843   -1.2005 H   0  0  0  0  0  0  0  0  0  0  0  0
  1  2  1  0
  2  3  2  0
  3  4  1  0
  4  5  1  0
  5  6  1  0
  6  7  1  0
  7  8  1  0
  8  9  1  0
  9  2  1  0
  9  7  1  0
  1 10  1  0
  1 11  1  0
  1 12  1  0
  3 13  1  0
  4 14  1  0
  4 15  1  0
  5 16  1  0
  5 17  1  0
  6 18  1  0
  6 19  1  0
  7 20  1  0
  8 21  1  0
  8 22  1  0
  9 23  1  0
M  END
