
     RDKit          3D

 19 19  0  0  0  0  0  0  0  0999 V2000
   -2.5745    0.0504    0.0552 C   0  0  0  0  0  0  0  0  0  0  0  0
   -1.0843   -0.0698    0.1700 C   0  0  0  0  0  0  0  0  0  0  0  0
   -0.3388    0.9927    0.3434 C   0  0  0  0  0  0  0  0  0  0  0  0
    1.1205    0.8849    0.4569 C   0  0  0  0  0  0  0  0  0  0  0  0
    1.6615    2.0898   -0.0340 O   0  0  0  0  0  0  0  0  0  0  0  0
    1.7216   -0.2269   -0.3260 C   0  0  0  0  0  0  0  0  0  0  0  0
    1.0065   -1.5314   -0.2001 C   0  0  0  0  0  0  0  0  0  0  0  0
   -0.4418   -1.3674    0.0907 C   0  0  0  0  0  0  0  0  0  0  0  0
   -1.1318   -2.3968    0.2742 O   0  0  0  0  0  0  0  0  0  0  0  0
   -2.7925    0.2521   -1.0234 H   0  0  0  0  0  0  0  0  0  0  0  0
   -3.0760   -0.8385    0.4456 H   0  0  0  0  0  0  0  0  0  0  0  0
   -2.8500    0.9687    0.6052 H   0  0  0  0  0  0  0  0  0  0  0  0
   -0.8673    1.9577    0.3980 H   0  0  0  0  0  0  0  0  0  0  0  0
    1.4390    0.8533    1.5368 H   0  0  0  0  0  0  0  0  0  0  0  0
    1.1284    2.8788    0.3007 H   0  0  0  0  0  0  0  0  0  0  0  0
    2.7878   -0.3314   -0.0077 H   0  0  0  0  0  0  0  0  0  0  0  0
    1.7815    0.1099   -1.4019 H   0  0  0  0  0  0  0  0  0  0  0  0
    1.4566   -2.1772    0.5778 H   0  0  0  0  0  0  0  0  0  0  0  0
    1.0535   -2.0988   -1.1751 H   0  0  0  0  0  0  0  0  0  0  0  0
  1  2  1  0
  2  3  2  0
  3  4  1  0
  4  5  1  0
  4  6  1  0
  6  7  1  0
  7  8  1  0
  8  9  2  0
  8  2  1  0
  1 10  1  0
  1 11  1  0
  1 12  1  0
  3 13  1  0
  4 14  1  0
  5 15  1  0
  6 16  1  0
  6 17  1  0
  7 18  1  0
  7 19  1  0
M  END
