
     RDKit          3D

 21 22  0  0  0  0  0  0  0  0999 V2000
   -2.8985   -0.6151   -0.0450 C   0  0  0  0  0  0  0  0  0  0  0  0
   -1.4848   -0.1764    0.2428 C   0  0  0  0  0  0  0  0  0  0  0  0
   -1.0022   -0.0113    1.4552 C   0  0  0  0  0  0  0  0  0  0  0  0
    0.4119    0.4236    1.4467 C   0  0  0  0  0  0  0  0  0  0  0  0
    0.8237    0.1891    0.0291 C   0  0  0  0  0  0  0  0  0  0  0  0
   -0.4510    0.1273   -0.7641 C   0  0  0  0  0  0  0  0  0  0  0  0
    1.9128   -0.7248   -0.3259 C   0  0  0  0  0  0  0  0  0  0  0  0
    2.0602    0.7735   -0.4862 C   0  0  0  0  0  0  0  0  0  0  0  0
    2.1753    1.2863   -1.7693 O   0  0  0  0  0  0  0  0  0  0  0  0
   -3.3123   -0.0191   -0.9106 H   0  0  0  0  0  0  0  0  0  0  0  0
   -2.9468   -1.6985   -0.2752 H   0  0  0  0  0  0  0  0  0  0  0  0
   -3.5364   -0.3944    0.8171 H   0  0  0  0  0  0  0  0  0  0  0  0
   -1.5643   -0.1715    2.3798 H   0  0  0  0  0  0  0  0  0  0  0  0
    0.5182    1.4995    1.7267 H   0  0  0  0  0  0  0  0  0  0  0  0
    0.9919   -0.2241    2.1592 H   0  0  0  0  0  0  0  0  0  0  0  0
   -0.3889   -0.7153   -1.4568 H   0  0  0  0  0  0  0  0  0  0  0  0
   -0.6497    1.0548   -1.3338 H   0  0  0  0  0  0  0  0  0  0  0  0
    1.9317   -1.3153   -1.2596 H   0  0  0  0  0  0  0  0  0  0  0  0
    2.4253   -1.2325    0.5165 H   0  0  0  0  0  0  0  0  0  0  0  0
    2.7518    1.2193    0.2600 H   0  0  0  0  0  0  0  0  0  0  0  0
    2.2322    0.5264   -2.4065 H   0  0  0  0  0  0  0  0  0  0  0  0
  1  2  1  0
  2  3  2  0
  3  4  1  0
  4  5  1  0
  5  6  1  0
  5  7  1  0
  7  8  1  0
  8  9  1  0
  6  2  1  0
  8  5  1  0
  1 10  1  0
  1 11  1  0
  1 12  1  0
  3 13  1  0
  4 14  1  0
  4 15  1  0
  6 16  1  0
  6 17  1  0
  7 18  1  0
  7 19  1  0
  8 20  1  0
  9 21  1  0
M  END
