
     RDKit          3D

 21 22  0  0  0  0  0  0  0  0999 V2000
   -2.3825   -0.9345    0.3418 C   0  0  0  0  0  0  0  0  0  0  0  0
   -1.1537   -0.1061    0.2067 C   0  0  0  0  0  0  0  0  0  0  0  0
   -0.4837    0.5565    1.1855 C   0  0  0  0  0  0  0  0  0  0  0  0
    0.6111    1.1904    0.4610 C   0  0  0  0  0  0  0  0  0  0  0  0
   -0.1192    1.7220   -0.7846 C   0  0  0  0  0  0  0  0  0  0  0  0
   -0.3434    0.2166   -0.9979 C   0  0  0  0  0  0  0  0  0  0  0  0
    1.0575    0.0706   -0.4874 C   0  0  0  0  0  0  0  0  0  0  0  0
    1.3830   -1.2217    0.2099 C   0  0  0  0  0  0  0  0  0  0  0  0
    2.4349   -0.9334    1.1093 O   0  0  0  0  0  0  0  0  0  0  0  0
   -3.0529   -0.5404    1.1425 H   0  0  0  0  0  0  0  0  0  0  0  0
   -2.9016   -0.9781   -0.6213 H   0  0  0  0  0  0  0  0  0  0  0  0
   -2.0629   -1.9604    0.6316 H   0  0  0  0  0  0  0  0  0  0  0  0
   -0.7106    0.5997    2.2396 H   0  0  0  0  0  0  0  0  0  0  0  0
    1.3385    1.7945    0.9109 H   0  0  0  0  0  0  0  0  0  0  0  0
   -1.0249    2.2869   -0.5693 H   0  0  0  0  0  0  0  0  0  0  0  0
    0.6265    2.1638   -1.4552 H   0  0  0  0  0  0  0  0  0  0  0  0
   -0.6277   -0.1192   -1.9496 H   0  0  0  0  0  0  0  0  0  0  0  0
    1.8716    0.4058   -1.1276 H   0  0  0  0  0  0  0  0  0  0  0  0
    0.5254   -1.6651    0.7406 H   0  0  0  0  0  0  0  0  0  0  0  0
    1.8189   -1.9003   -0.5431 H   0  0  0  0  0  0  0  0  0  0  0  0
    3.1957   -0.6477    0.5132 H   0  0  0  0  0  0  0  0  0  0  0  0
  1  2  1  0
  2  3  2  0
  3  4  1  0
  4  5  1  0
  5  6  1  0
  6  7  1  0
  7  8  1  0
  8  9  1  0
  6  2  1  0
  7  4  1  0
  1 10  1  0
  1 11  1  0
  1 12  1  0
  3 13  1  0
  4 14  1  0
  5 15  1  0
  5 16  1  0
  6 17  1  0
  7 18  1  0
  8 19  1  0
  8 20  1  0
  9 21  1  0
M  END
