
     RDKit          3D

 21 21  0  0  0  0  0  0  0  0999 V2000
    2.2561   -0.7170    0.3061 C   0  0  0  0  0  0  0  0  0  0  0  0
    0.8054   -0.4197    0.1440 C   0  0  0  0  0  0  0  0  0  0  0  0
    0.2825    0.7712    0.0529 C   0  0  0  0  0  0  0  0  0  0  0  0
    1.0214    2.0790    0.0915 C   0  0  0  0  0  0  0  0  0  0  0  0
   -1.1936    0.6594   -0.0991 C   0  0  0  0  0  0  0  0  0  0  0  0
   -1.8422    1.0401    1.0796 O   0  0  0  0  0  0  0  0  0  0  0  0
   -1.4996   -0.7700   -0.3905 C   0  0  0  0  0  0  0  0  0  0  0  0
   -1.7438   -1.0435   -1.7226 O   0  0  0  0  0  0  0  0  0  0  0  0
   -0.2438   -1.4693    0.0641 C   0  0  0  0  0  0  0  0  0  0  0  0
    2.5668   -0.2909    1.2941 H   0  0  0  0  0  0  0  0  0  0  0  0
    2.7916   -0.2259   -0.5301 H   0  0  0  0  0  0  0  0  0  0  0  0
    2.4710   -1.7937    0.3306 H   0  0  0  0  0  0  0  0  0  0  0  0
    1.3844    2.2807    1.1323 H   0  0  0  0  0  0  0  0  0  0  0  0
    0.3790    2.8994   -0.2493 H   0  0  0  0  0  0  0  0  0  0  0  0
    1.9248    2.0474   -0.5679 H   0  0  0  0  0  0  0  0  0  0  0  0
   -1.5365    1.3499   -0.9183 H   0  0  0  0  0  0  0  0  0  0  0  0
   -2.7201    0.5437    1.0838 H   0  0  0  0  0  0  0  0  0  0  0  0
   -2.3315   -1.1539    0.2684 H   0  0  0  0  0  0  0  0  0  0  0  0
   -2.5551   -1.6407   -1.7624 H   0  0  0  0  0  0  0  0  0  0  0  0
   -0.3333   -1.9245    1.0682 H   0  0  0  0  0  0  0  0  0  0  0  0
    0.1165   -2.2216   -0.6755 H   0  0  0  0  0  0  0  0  0  0  0  0
  1  2  1  0
  2  3  2  0
  3  4  1  0
  3  5  1  0
  5  6  1  0
  5  7  1  0
  7  8  1  0
  7  9  1  0
  9  2  1  0
  1 10  1  0
  1 11  1  0
  1 12  1  0
  4 13  1  0
  4 14  1  0
  4 15  1  0
  5 16  1  0
  6 17  1  0
  7 18  1  0
  8 19  1  0
  9 20  1  0
  9 21  1  0
M  END
