
     RDKit          3D

 18 18  0  0  0  0  0  0  0  0999 V2000
    2.2552    0.5775    0.2203 C   0  0  0  0  0  0  0  0  0  0  0  0
    0.8140    0.2827   -0.0398 C   0  0  0  0  0  0  0  0  0  0  0  0
   -0.0269    1.2963    0.0134 C   0  0  0  0  0  0  0  0  0  0  0  0
   -1.4620    1.0468   -0.2380 C   0  0  0  0  0  0  0  0  0  0  0  0
   -1.8186   -0.2499    0.3604 C   0  0  0  0  0  0  0  0  0  0  0  0
   -2.7705   -0.3746    1.0981 O   0  0  0  0  0  0  0  0  0  0  0  0
   -0.9903   -1.4310    0.0507 C   0  0  0  0  0  0  0  0  0  0  0  0
    0.4118   -1.1138   -0.3395 C   0  0  0  0  0  0  0  0  0  0  0  0
    2.6889    1.1773   -0.6045 H   0  0  0  0  0  0  0  0  0  0  0  0
    2.8657   -0.3691    0.2447 H   0  0  0  0  0  0  0  0  0  0  0  0
    2.3469    1.1175    1.1785 H   0  0  0  0  0  0  0  0  0  0  0  0
    0.2982    2.3241    0.2382 H   0  0  0  0  0  0  0  0  0  0  0  0
   -1.7133    1.0683   -1.3206 H   0  0  0  0  0  0  0  0  0  0  0  0
   -2.1034    1.8377    0.2280 H   0  0  0  0  0  0  0  0  0  0  0  0
   -1.0442   -2.1300    0.9096 H   0  0  0  0  0  0  0  0  0  0  0  0
   -1.4683   -1.9602   -0.8134 H   0  0  0  0  0  0  0  0  0  0  0  0
    1.0909   -1.7852    0.2289 H   0  0  0  0  0  0  0  0  0  0  0  0
    0.6259   -1.3147   -1.4149 H   0  0  0  0  0  0  0  0  0  0  0  0
  1  2  1  0
  2  3  2  0
  3  4  1  0
  4  5  1  0
  5  6  2  0
  5  7  1  0
  7  8  1  0
  8  2  1  0
  1  9  1  0
  1 10  1  0
  1 11  1  0
  3 12  1  0
  4 13  1  0
  4 14  1  0
  7 15  1  0
  7 16  1  0
  8 17  1  0
  8 18  1  0
M  END
