
     RDKit          3D

 21 22  0  0  0  0  0  0  0  0999 V2000
    2.3640   -0.1220    0.7276 C   0  0  0  0  0  0  0  0  0  0  0  0
    1.1400   -0.1220   -0.1052 C   0  0  0  0  0  0  0  0  0  0  0  0
    0.8102   -1.0855   -0.9555 C   0  0  0  0  0  0  0  0  0  0  0  0
   -0.6597   -0.9230   -1.1668 C   0  0  0  0  0  0  0  0  0  0  0  0
   -0.6907    0.5963   -1.3462 C   0  0  0  0  0  0  0  0  0  0  0  0
    0.1206    0.9647   -0.0940 C   0  0  0  0  0  0  0  0  0  0  0  0
   -0.8608    0.7924    1.0398 C   0  0  0  0  0  0  0  0  0  0  0  0
   -1.7146   -0.4070    0.8452 C   0  0  0  0  0  0  0  0  0  0  0  0
   -1.2884   -1.3379   -0.0329 O   0  0  0  0  0  0  0  0  0  0  0  0
    3.0324    0.7079    0.4047 H   0  0  0  0  0  0  0  0  0  0  0  0
    2.1031   -0.0330    1.8165 H   0  0  0  0  0  0  0  0  0  0  0  0
    2.9527   -1.0522    0.6029 H   0  0  0  0  0  0  0  0  0  0  0  0
    1.4197   -1.8491   -1.4270 H   0  0  0  0  0  0  0  0  0  0  0  0
   -1.0048   -1.4100   -2.1006 H   0  0  0  0  0  0  0  0  0  0  0  0
   -0.0877    0.8339   -2.2196 H   0  0  0  0  0  0  0  0  0  0  0  0
   -1.6973    0.9969   -1.3201 H   0  0  0  0  0  0  0  0  0  0  0  0
    0.5462    1.9665   -0.1651 H   0  0  0  0  0  0  0  0  0  0  0  0
   -1.5308    1.6959    1.0058 H   0  0  0  0  0  0  0  0  0  0  0  0
   -0.3684    0.8429    2.0357 H   0  0  0  0  0  0  0  0  0  0  0  0
   -2.7852   -0.1369    0.6035 H   0  0  0  0  0  0  0  0  0  0  0  0
   -1.8006   -0.9189    1.8513 H   0  0  0  0  0  0  0  0  0  0  0  0
  1  2  1  0
  2  3  2  0
  3  4  1  0
  4  5  1  0
  5  6  1  0
  6  7  1  0
  7  8  1  0
  8  9  1  0
  6  2  1  0
  9  4  1  0
  1 10  1  0
  1 11  1  0
  1 12  1  0
  3 13  1  0
  4 14  1  0
  5 15  1  0
  5 16  1  0
  6 17  1  0
  7 18  1  0
  7 19  1  0
  8 20  1  0
  8 21  1  0
M  END
