
     RDKit          3D

 18 19  0  0  0  0  0  0  0  0999 V2000
    2.0172   -0.8754    0.2194 C   0  0  0  0  0  0  0  0  0  0  0  0
    0.8555    0.0106   -0.0139 C   0  0  0  0  0  0  0  0  0  0  0  0
    0.8432    1.3305    0.0469 C   0  0  0  0  0  0  0  0  0  0  0  0
   -0.4846    1.8644   -0.2424 C   0  0  0  0  0  0  0  0  0  0  0  0
   -1.2976    0.7446   -0.7499 C   0  0  0  0  0  0  0  0  0  0  0  0
   -0.8562   -0.1756   -1.6686 O   0  0  0  0  0  0  0  0  0  0  0  0
   -0.4969   -0.4736   -0.3633 C   0  0  0  0  0  0  0  0  0  0  0  0
   -1.1878   -1.5064    0.4296 C   0  0  0  0  0  0  0  0  0  0  0  0
    2.5165   -1.0312   -0.7801 H   0  0  0  0  0  0  0  0  0  0  0  0
    1.6597   -1.8657    0.5988 H   0  0  0  0  0  0  0  0  0  0  0  0
    2.7390   -0.4190    0.9413 H   0  0  0  0  0  0  0  0  0  0  0  0
    1.6946    2.0021    0.2813 H   0  0  0  0  0  0  0  0  0  0  0  0
   -0.9358    2.1869    0.7442 H   0  0  0  0  0  0  0  0  0  0  0  0
   -0.4768    2.7233   -0.9453 H   0  0  0  0  0  0  0  0  0  0  0  0
   -2.3851    0.6983   -0.5341 H   0  0  0  0  0  0  0  0  0  0  0  0
   -1.1107   -1.2199    1.5180 H   0  0  0  0  0  0  0  0  0  0  0  0
   -2.2842   -1.4715    0.1693 H   0  0  0  0  0  0  0  0  0  0  0  0
   -0.8100   -2.5224    0.3486 H   0  0  0  0  0  0  0  0  0  0  0  0
  1  2  1  0
  2  3  2  0
  3  4  1  0
  4  5  1  0
  5  6  1  0
  6  7  1  0
  7  8  1  0
  7  2  1  0
  7  5  1  0
  1  9  1  0
  1 10  1  0
  1 11  1  0
  3 12  1  0
  4 13  1  0
  4 14  1  0
  5 15  1  0
  8 16  1  0
  8 17  1  0
  8 18  1  0
M  END
