
     RDKit          3D

 21 21  0  0  0  0  0  0  0  0999 V2000
    2.7495   -0.5515    0.0117 C   0  0  0  0  0  0  0  0  0  0  0  0
    1.2942   -0.2664   -0.1653 C   0  0  0  0  0  0  0  0  0  0  0  0
    0.7121    0.5523   -1.0177 C   0  0  0  0  0  0  0  0  0  0  0  0
   -0.7586    0.5411   -0.8635 C   0  0  0  0  0  0  0  0  0  0  0  0
   -1.1125    1.7368    0.0111 C   0  0  0  0  0  0  0  0  0  0  0  0
   -1.0409   -0.7552   -0.2021 C   0  0  0  0  0  0  0  0  0  0  0  0
   -2.1926   -0.7629    0.7035 C   0  0  0  0  0  0  0  0  0  0  0  0
   -2.2518   -1.6985    1.5153 O   0  0  0  0  0  0  0  0  0  0  0  0
    0.2190   -0.9265    0.6599 C   0  0  0  0  0  0  0  0  0  0  0  0
    3.2685   -0.5743   -0.9702 H   0  0  0  0  0  0  0  0  0  0  0  0
    3.2451    0.1801    0.6824 H   0  0  0  0  0  0  0  0  0  0  0  0
    2.8812   -1.5420    0.4774 H   0  0  0  0  0  0  0  0  0  0  0  0
    1.2455    1.1574   -1.7406 H   0  0  0  0  0  0  0  0  0  0  0  0
   -1.2701    0.6354   -1.8447 H   0  0  0  0  0  0  0  0  0  0  0  0
   -0.4439    1.7484    0.8961 H   0  0  0  0  0  0  0  0  0  0  0  0
   -0.8378    2.6391   -0.5885 H   0  0  0  0  0  0  0  0  0  0  0  0
   -2.1803    1.7656    0.2557 H   0  0  0  0  0  0  0  0  0  0  0  0
   -1.0793   -1.5475   -0.9783 H   0  0  0  0  0  0  0  0  0  0  0  0
   -2.9853   -0.0534    0.7420 H   0  0  0  0  0  0  0  0  0  0  0  0
    0.4222   -1.9795    0.8495 H   0  0  0  0  0  0  0  0  0  0  0  0
    0.1160   -0.2985    1.5662 H   0  0  0  0  0  0  0  0  0  0  0  0
  1  2  1  0
  2  3  2  0
  3  4  1  0
  4  5  1  0
  4  6  1  0
  6  7  1  0
  7  8  2  0
  6  9  1  0
  9  2  1  0
  1 10  1  0
  1 11  1  0
  1 12  1  0
  3 13  1  0
  4 14  1  0
  5 15  1  0
  5 16  1  0
  5 17  1  0
  6 18  1  0
  7 19  1  0
  9 20  1  0
  9 21  1  0
M  END
