
     RDKit          3D

 25 25  0  0  0  0  0  0  0  0999 V2000
    2.3065   -1.4231    0.4103 C   0  0  0  0  0  0  0  0  0  0  0  0
    1.2307   -0.4977   -0.0546 C   0  0  0  0  0  0  0  0  0  0  0  0
    1.4848    0.7723    0.2462 C   0  0  0  0  0  0  0  0  0  0  0  0
    0.6681    1.9545   -0.0453 C   0  0  0  0  0  0  0  0  0  0  0  0
   -0.7828    1.6833    0.2716 C   0  0  0  0  0  0  0  0  0  0  0  0
   -1.3261    0.8570   -0.8889 C   0  0  0  0  0  0  0  0  0  0  0  0
   -1.2261   -0.5945   -0.5350 C   0  0  0  0  0  0  0  0  0  0  0  0
   -1.8132   -0.9261    0.8099 C   0  0  0  0  0  0  0  0  0  0  0  0
    0.1397   -1.1812   -0.7353 C   0  0  0  0  0  0  0  0  0  0  0  0
    1.9635   -2.4617    0.4919 H   0  0  0  0  0  0  0  0  0  0  0  0
    2.5877   -1.0792    1.4287 H   0  0  0  0  0  0  0  0  0  0  0  0
    3.1924   -1.3211   -0.2492 H   0  0  0  0  0  0  0  0  0  0  0  0
    2.4178    0.9249    0.7722 H   0  0  0  0  0  0  0  0  0  0  0  0
    0.9836    2.7969    0.6296 H   0  0  0  0  0  0  0  0  0  0  0  0
    0.8053    2.3404   -1.0831 H   0  0  0  0  0  0  0  0  0  0  0  0
   -0.8103    1.1194    1.2201 H   0  0  0  0  0  0  0  0  0  0  0  0
   -1.3293    2.6188    0.4201 H   0  0  0  0  0  0  0  0  0  0  0  0
   -2.3235    1.1856   -1.1642 H   0  0  0  0  0  0  0  0  0  0  0  0
   -0.6850    0.9996   -1.8087 H   0  0  0  0  0  0  0  0  0  0  0  0
   -1.8946   -1.1247   -1.2811 H   0  0  0  0  0  0  0  0  0  0  0  0
   -2.1711   -1.9968    0.7793 H   0  0  0  0  0  0  0  0  0  0  0  0
   -2.7388   -0.3240    0.9318 H   0  0  0  0  0  0  0  0  0  0  0  0
   -1.1131   -0.8539    1.6417 H   0  0  0  0  0  0  0  0  0  0  0  0
    0.0875   -2.2281   -0.3734 H   0  0  0  0  0  0  0  0  0  0  0  0
    0.3464   -1.2404   -1.8343 H   0  0  0  0  0  0  0  0  0  0  0  0
  1  2  1  0
  2  3  2  0
  3  4  1  0
  4  5  1  0
  5  6  1  0
  6  7  1  0
  7  8  1  0
  7  9  1  0
  9  2  1  0
  1 10  1  0
  1 11  1  0
  1 12  1  0
  3 13  1  0
  4 14  1  0
  4 15  1  0
  5 16  1  0
  5 17  1  0
  6 18  1  0
  6 19  1  0
  7 20  1  0
  8 21  1  0
  8 22  1  0
  8 23  1  0
  9 24  1  0
  9 25  1  0
M  END
