
     RDKit          3D

 21 21  0  0  0  0  0  0  0  0999 V2000
    2.8426   -0.0645   -0.0113 C   0  0  0  0  0  0  0  0  0  0  0  0
    1.3611    0.2000   -0.1084 C   0  0  0  0  0  0  0  0  0  0  0  0
    0.8970    1.4244   -0.2157 C   0  0  0  0  0  0  0  0  0  0  0  0
   -0.5175    1.7981   -0.3166 C   0  0  0  0  0  0  0  0  0  0  0  0
   -1.4836    0.6961   -0.1424 C   0  0  0  0  0  0  0  0  0  0  0  0
   -0.9663   -0.6673   -0.5017 C   0  0  0  0  0  0  0  0  0  0  0  0
   -1.8172   -1.7552    0.0736 C   0  0  0  0  0  0  0  0  0  0  0  0
    0.4322   -0.8985   -0.0841 C   0  0  0  0  0  0  0  0  0  0  0  0
    0.7952   -2.0351    0.2836 O   0  0  0  0  0  0  0  0  0  0  0  0
    3.0854   -1.0768   -0.4298 H   0  0  0  0  0  0  0  0  0  0  0  0
    3.4041    0.6598   -0.6405 H   0  0  0  0  0  0  0  0  0  0  0  0
    3.1528   -0.0797    1.0363 H   0  0  0  0  0  0  0  0  0  0  0  0
    1.6250    2.2249   -0.2306 H   0  0  0  0  0  0  0  0  0  0  0  0
   -0.6880    2.6294    0.4284 H   0  0  0  0  0  0  0  0  0  0  0  0
   -0.6565    2.2999   -1.3173 H   0  0  0  0  0  0  0  0  0  0  0  0
   -1.8896    0.6783    0.8778 H   0  0  0  0  0  0  0  0  0  0  0  0
   -2.3703    0.8864   -0.8151 H   0  0  0  0  0  0  0  0  0  0  0  0
   -1.0434   -0.7537   -1.6253 H   0  0  0  0  0  0  0  0  0  0  0  0
   -1.5130   -2.0256    1.0964 H   0  0  0  0  0  0  0  0  0  0  0  0
   -2.8975   -1.4609    0.1094 H   0  0  0  0  0  0  0  0  0  0  0  0
   -1.7526   -2.6801   -0.5561 H   0  0  0  0  0  0  0  0  0  0  0  0
  1  2  1  0
  2  3  2  0
  3  4  1  0
  4  5  1  0
  5  6  1  0
  6  7  1  0
  6  8  1  0
  8  9  2  0
  8  2  1  0
  1 10  1  0
  1 11  1  0
  1 12  1  0
  3 13  1  0
  4 14  1  0
  4 15  1  0
  5 16  1  0
  5 17  1  0
  6 18  1  0
  7 19  1  0
  7 20  1  0
  7 21  1  0
M  END
