
     RDKit          3D

 21 22  0  0  0  0  0  0  0  0999 V2000
    1.8750    1.3668    0.6570 C   0  0  0  0  0  0  0  0  0  0  0  0
    0.6164    0.6363    0.3560 C   0  0  0  0  0  0  0  0  0  0  0  0
    0.4146   -0.5311   -0.2620 C   0  0  0  0  0  0  0  0  0  0  0  0
    1.3917   -1.5016   -0.8251 C   0  0  0  0  0  0  0  0  0  0  0  0
   -1.0500   -0.6597   -0.2677 C   0  0  0  0  0  0  0  0  0  0  0  0
   -1.6698   -1.6937   -0.7942 O   0  0  0  0  0  0  0  0  0  0  0  0
   -1.4964    0.7557   -0.6112 C   0  0  0  0  0  0  0  0  0  0  0  0
   -0.7553    1.0709    0.6953 C   0  0  0  0  0  0  0  0  0  0  0  0
   -1.3828   -0.2419    1.1734 C   0  0  0  0  0  0  0  0  0  0  0  0
    1.6904    2.0616    1.4873 H   0  0  0  0  0  0  0  0  0  0  0  0
    2.7140    0.6634    0.8339 H   0  0  0  0  0  0  0  0  0  0  0  0
    2.1984    2.0084   -0.2104 H   0  0  0  0  0  0  0  0  0  0  0  0
    1.3674   -1.5302   -1.9315 H   0  0  0  0  0  0  0  0  0  0  0  0
    2.4300   -1.2950   -0.4670 H   0  0  0  0  0  0  0  0  0  0  0  0
    1.1653   -2.5523   -0.4968 H   0  0  0  0  0  0  0  0  0  0  0  0
   -1.7533   -1.5951   -1.7776 H   0  0  0  0  0  0  0  0  0  0  0  0
   -2.5757    0.8478   -0.5528 H   0  0  0  0  0  0  0  0  0  0  0  0
   -0.9694    1.2286   -1.4444 H   0  0  0  0  0  0  0  0  0  0  0  0
   -0.9601    1.9593    1.2012 H   0  0  0  0  0  0  0  0  0  0  0  0
   -2.4695   -0.1925    1.3434 H   0  0  0  0  0  0  0  0  0  0  0  0
   -0.7810   -0.8059    1.8932 H   0  0  0  0  0  0  0  0  0  0  0  0
  1  2  1  0
  2  3  2  0
  3  4  1  0
  3  5  1  0
  5  6  1  0
  5  7  1  0
  7  8  1  0
  8  9  1  0
  8  2  1  0
  9  5  1  0
  1 10  1  0
  1 11  1  0
  1 12  1  0
  4 13  1  0
  4 14  1  0
  4 15  1  0
  6 16  1  0
  7 17  1  0
  7 18  1  0
  8 19  1  0
  9 20  1  0
  9 21  1  0
M  END
