
     RDKit          3D

 17 17  0  0  0  0  0  0  0  0999 V2000
   -2.2112   -0.7422    0.3389 C   0  0  0  0  0  0  0  0  0  0  0  0
   -0.8362   -0.2766    0.0383 C   0  0  0  0  0  0  0  0  0  0  0  0
   -0.5816    1.0270    0.1319 C   0  0  0  0  0  0  0  0  0  0  0  0
    0.5979    1.8614   -0.0726 C   0  0  0  0  0  0  0  0  0  0  0  0
    1.8247    1.2439    0.1383 O   0  0  0  0  0  0  0  0  0  0  0  0
    2.3017   -0.0490   -0.0349 C   0  0  0  0  0  0  0  0  0  0  0  0
    3.5131   -0.2789    0.0961 O   0  0  0  0  0  0  0  0  0  0  0  0
    1.4573   -1.2003   -0.3716 C   0  0  0  0  0  0  0  0  0  0  0  0
    0.1357   -1.2920   -0.3394 C   0  0  0  0  0  0  0  0  0  0  0  0
   -2.1677   -1.7463    0.8481 H   0  0  0  0  0  0  0  0  0  0  0  0
   -2.6301   -0.0386    1.0883 H   0  0  0  0  0  0  0  0  0  0  0  0
   -2.8327   -0.8653   -0.5493 H   0  0  0  0  0  0  0  0  0  0  0  0
   -1.4698    1.6084    0.4335 H   0  0  0  0  0  0  0  0  0  0  0  0
    0.6159    2.3440   -1.0784 H   0  0  0  0  0  0  0  0  0  0  0  0
    0.5467    2.7288    0.6497 H   0  0  0  0  0  0  0  0  0  0  0  0
    2.0187   -2.0706   -0.6826 H   0  0  0  0  0  0  0  0  0  0  0  0
   -0.2825   -2.2540   -0.6343 H   0  0  0  0  0  0  0  0  0  0  0  0
  1  2  1  0
  2  3  2  0
  3  4  1  0
  4  5  1  0
  5  6  1  0
  6  7  2  0
  6  8  1  0
  8  9  2  0
  9  2  1  0
  1 10  1  0
  1 11  1  0
  1 12  1  0
  3 13  1  0
  4 14  1  0
  4 15  1  0
  8 16  1  0
  9 17  1  0
M  END
