
     RDKit          3D

 23 24  0  0  0  0  0  0  0  0999 V2000
   -1.9382    1.8970   -0.4542 C   0  0  0  0  0  0  0  0  0  0  0  0
   -0.8512    0.8784   -0.3662 C   0  0  0  0  0  0  0  0  0  0  0  0
    0.4236    1.1644   -0.2685 C   0  0  0  0  0  0  0  0  0  0  0  0
    1.2043   -0.0627   -0.2028 C   0  0  0  0  0  0  0  0  0  0  0  0
    2.6734   -0.0897   -0.2734 C   0  0  0  0  0  0  0  0  0  0  0  0
    1.9952   -0.4221    1.0056 C   0  0  0  0  0  0  0  0  0  0  0  0
    0.3328   -1.1356   -0.7465 C   0  0  0  0  0  0  0  0  0  0  0  0
   -1.0528   -0.5827   -0.3820 C   0  0  0  0  0  0  0  0  0  0  0  0
   -1.5293   -1.1151    0.9407 C   0  0  0  0  0  0  0  0  0  0  0  0
   -1.7036    2.8156    0.1089 H   0  0  0  0  0  0  0  0  0  0  0  0
   -2.9018    1.4857   -0.1557 H   0  0  0  0  0  0  0  0  0  0  0  0
   -2.0053    2.1869   -1.5254 H   0  0  0  0  0  0  0  0  0  0  0  0
    0.8368    2.2078   -0.2408 H   0  0  0  0  0  0  0  0  0  0  0  0
    3.2303   -0.8384   -0.8432 H   0  0  0  0  0  0  0  0  0  0  0  0
    3.1630    0.9261   -0.3188 H   0  0  0  0  0  0  0  0  0  0  0  0
    2.0547   -1.5064    1.2970 H   0  0  0  0  0  0  0  0  0  0  0  0
    1.9326    0.3003    1.8368 H   0  0  0  0  0  0  0  0  0  0  0  0
    0.4461   -2.1110   -0.1991 H   0  0  0  0  0  0  0  0  0  0  0  0
    0.4333   -1.3163   -1.8182 H   0  0  0  0  0  0  0  0  0  0  0  0
   -1.7138   -0.8524   -1.2270 H   0  0  0  0  0  0  0  0  0  0  0  0
   -1.4250   -0.3640    1.7618 H   0  0  0  0  0  0  0  0  0  0  0  0
   -2.6160   -1.4045    0.8983 H   0  0  0  0  0  0  0  0  0  0  0  0
   -0.9891   -2.0613    1.1729 H   0  0  0  0  0  0  0  0  0  0  0  0
  1  2  1  0
  2  3  2  0
  3  4  1  0
  4  5  1  0
  5  6  1  0
  4  7  1  0
  7  8  1  0
  8  9  1  0
  8  2  1  0
  6  4  1  0
  1 10  1  0
  1 11  1  0
  1 12  1  0
  3 13  1  0
  5 14  1  0
  5 15  1  0
  6 16  1  0
  6 17  1  0
  7 18  1  0
  7 19  1  0
  8 20  1  0
  9 21  1  0
  9 22  1  0
  9 23  1  0
M  END
