
     RDKit          3D

 16 16  0  0  0  0  0  0  0  0999 V2000
    2.1501    0.2303   -0.0945 C   0  0  0  0  0  0  0  0  0  0  0  0
    0.6618    0.3103   -0.0884 C   0  0  0  0  0  0  0  0  0  0  0  0
   -0.1004    1.3512   -0.3519 C   0  0  0  0  0  0  0  0  0  0  0  0
   -1.5167    1.0067   -0.2339 C   0  0  0  0  0  0  0  0  0  0  0  0
   -2.4875    1.6262   -0.7348 O   0  0  0  0  0  0  0  0  0  0  0  0
   -1.5400   -0.2300    0.6050 C   0  0  0  0  0  0  0  0  0  0  0  0
   -0.2121   -0.8538    0.2380 C   0  0  0  0  0  0  0  0  0  0  0  0
   -0.4132   -1.6124   -0.9173 O   0  0  0  0  0  0  0  0  0  0  0  0
    2.4598   -0.3451   -0.9927 H   0  0  0  0  0  0  0  0  0  0  0  0
    2.4553   -0.3240    0.8288 H   0  0  0  0  0  0  0  0  0  0  0  0
    2.5993    1.2504   -0.1151 H   0  0  0  0  0  0  0  0  0  0  0  0
    0.2452    2.3601   -0.6273 H   0  0  0  0  0  0  0  0  0  0  0  0
   -2.4004   -0.8661    0.4088 H   0  0  0  0  0  0  0  0  0  0  0  0
   -1.4598    0.0992    1.6676 H   0  0  0  0  0  0  0  0  0  0  0  0
    0.1968   -1.4531    1.0666 H   0  0  0  0  0  0  0  0  0  0  0  0
   -0.6382   -2.5499   -0.6588 H   0  0  0  0  0  0  0  0  0  0  0  0
  1  2  1  0
  2  3  2  0
  3  4  1  0
  4  5  2  0
  4  6  1  0
  6  7  1  0
  7  8  1  0
  7  2  1  0
  1  9  1  0
  1 10  1  0
  1 11  1  0
  3 12  1  0
  6 13  1  0
  6 14  1  0
  7 15  1  0
  8 16  1  0
M  END
