
     RDKit          3D

 17 18  0  0  0  0  0  0  0  0999 V2000
    2.2310    0.2398    0.0554 C   0  0  0  0  0  0  0  0  0  0  0  0
    0.7727    0.0423   -0.1137 C   0  0  0  0  0  0  0  0  0  0  0  0
    0.1669   -0.1005   -1.2890 C   0  0  0  0  0  0  0  0  0  0  0  0
   -1.2676   -0.2142   -1.0058 C   0  0  0  0  0  0  0  0  0  0  0  0
   -1.2050   -1.0459    0.2951 C   0  0  0  0  0  0  0  0  0  0  0  0
   -0.2556   -0.0311    0.9624 C   0  0  0  0  0  0  0  0  0  0  0  0
   -1.1070    1.1701    0.8174 C   0  0  0  0  0  0  0  0  0  0  0  0
   -1.2243    2.0647    1.6746 O   0  0  0  0  0  0  0  0  0  0  0  0
   -1.6857    1.0274   -0.4351 O   0  0  0  0  0  0  0  0  0  0  0  0
    2.4018    0.6228    1.0802 H   0  0  0  0  0  0  0  0  0  0  0  0
    2.5318    1.0398   -0.6726 H   0  0  0  0  0  0  0  0  0  0  0  0
    2.7402   -0.7134   -0.1236 H   0  0  0  0  0  0  0  0  0  0  0  0
    0.6285   -0.1285   -2.2628 H   0  0  0  0  0  0  0  0  0  0  0  0
   -1.9028   -0.6196   -1.7501 H   0  0  0  0  0  0  0  0  0  0  0  0
   -2.1747   -1.0811    0.7772 H   0  0  0  0  0  0  0  0  0  0  0  0
   -0.7207   -1.9790    0.0624 H   0  0  0  0  0  0  0  0  0  0  0  0
    0.0706   -0.2937    1.9279 H   0  0  0  0  0  0  0  0  0  0  0  0
  1  2  1  0
  2  3  2  0
  3  4  1  0
  4  5  1  0
  5  6  1  0
  6  7  1  0
  7  8  2  0
  7  9  1  0
  6  2  1  0
  9  4  1  0
  1 10  1  0
  1 11  1  0
  1 12  1  0
  3 13  1  0
  4 14  1  0
  5 15  1  0
  5 16  1  0
  6 17  1  0
M  END
