
     RDKit          3D

 19 19  0  0  0  0  0  0  0  0999 V2000
    2.0815   -0.7269    0.2027 C   0  0  0  0  0  0  0  0  0  0  0  0
    0.6275   -0.4218    0.1158 C   0  0  0  0  0  0  0  0  0  0  0  0
   -0.1362   -1.3032   -0.5180 C   0  0  0  0  0  0  0  0  0  0  0  0
   -1.6051   -1.1250   -0.6793 C   0  0  0  0  0  0  0  0  0  0  0  0
   -2.1312   -0.2526    0.3880 C   0  0  0  0  0  0  0  0  0  0  0  0
   -3.2982   -0.3529    0.8427 O   0  0  0  0  0  0  0  0  0  0  0  0
   -1.3228    0.7254    0.9269 O   0  0  0  0  0  0  0  0  0  0  0  0
    0.0720    0.8039    0.7089 C   0  0  0  0  0  0  0  0  0  0  0  0
    0.3211    2.0337   -0.1348 C   0  0  0  0  0  0  0  0  0  0  0  0
    2.4133   -1.3747   -0.6332 H   0  0  0  0  0  0  0  0  0  0  0  0
    2.6436    0.2095    0.2883 H   0  0  0  0  0  0  0  0  0  0  0  0
    2.2521   -1.3002    1.1607 H   0  0  0  0  0  0  0  0  0  0  0  0
    0.3046   -2.1900   -0.9402 H   0  0  0  0  0  0  0  0  0  0  0  0
   -1.7777   -0.7133   -1.6793 H   0  0  0  0  0  0  0  0  0  0  0  0
   -2.1111   -2.1109   -0.5980 H   0  0  0  0  0  0  0  0  0  0  0  0
    0.5297    1.0121    1.7028 H   0  0  0  0  0  0  0  0  0  0  0  0
   -0.6212    2.4711   -0.5321 H   0  0  0  0  0  0  0  0  0  0  0  0
    0.8329    2.8432    0.4229 H   0  0  0  0  0  0  0  0  0  0  0  0
    0.9252    1.7725   -1.0449 H   0  0  0  0  0  0  0  0  0  0  0  0
  1  2  1  0
  2  3  2  0
  3  4  1  0
  4  5  1  0
  5  6  2  0
  5  7  1  0
  7  8  1  0
  8  9  1  0
  8  2  1  0
  1 10  1  0
  1 11  1  0
  1 12  1  0
  3 13  1  0
  4 14  1  0
  4 15  1  0
  8 16  1  0
  9 17  1  0
  9 18  1  0
  9 19  1  0
M  END
