
     RDKit          3D

 23 24  0  0  0  0  0  0  0  0999 V2000
    2.3365    1.4816   -0.0930 C   0  0  0  0  0  0  0  0  0  0  0  0
    1.3918    0.3161   -0.0835 C   0  0  0  0  0  0  0  0  0  0  0  0
    1.6590   -0.7936   -0.7517 C   0  0  0  0  0  0  0  0  0  0  0  0
    0.5677   -1.7569   -0.5649 C   0  0  0  0  0  0  0  0  0  0  0  0
   -0.1380   -1.2857    0.6762 C   0  0  0  0  0  0  0  0  0  0  0  0
   -1.5991   -1.0374    0.3624 C   0  0  0  0  0  0  0  0  0  0  0  0
   -1.1470    0.3065   -0.2298 C   0  0  0  0  0  0  0  0  0  0  0  0
   -2.1313    1.3686    0.1720 C   0  0  0  0  0  0  0  0  0  0  0  0
    0.0905    0.2103    0.6324 C   0  0  0  0  0  0  0  0  0  0  0  0
    1.9693    2.2989    0.5349 H   0  0  0  0  0  0  0  0  0  0  0  0
    3.3388    1.1650    0.2804 H   0  0  0  0  0  0  0  0  0  0  0  0
    2.5069    1.8208   -1.1430 H   0  0  0  0  0  0  0  0  0  0  0  0
    2.5537   -1.0093   -1.3700 H   0  0  0  0  0  0  0  0  0  0  0  0
   -0.1141   -1.7907   -1.4603 H   0  0  0  0  0  0  0  0  0  0  0  0
    0.9373   -2.8078   -0.4556 H   0  0  0  0  0  0  0  0  0  0  0  0
    0.0855   -1.7916    1.6103 H   0  0  0  0  0  0  0  0  0  0  0  0
   -2.2264   -0.9262    1.2649 H   0  0  0  0  0  0  0  0  0  0  0  0
   -2.0141   -1.6549   -0.4434 H   0  0  0  0  0  0  0  0  0  0  0  0
   -0.8870    0.2726   -1.2855 H   0  0  0  0  0  0  0  0  0  0  0  0
   -2.2107    2.1302   -0.6432 H   0  0  0  0  0  0  0  0  0  0  0  0
   -1.8151    1.7964    1.1350 H   0  0  0  0  0  0  0  0  0  0  0  0
   -3.1652    0.9512    0.2727 H   0  0  0  0  0  0  0  0  0  0  0  0
    0.0109    0.7361    1.5830 H   0  0  0  0  0  0  0  0  0  0  0  0
  1  2  1  0
  2  3  2  0
  3  4  1  0
  4  5  1  0
  5  6  1  0
  6  7  1  0
  7  8  1  0
  7  9  1  0
  9  2  1  0
  9  5  1  0
  1 10  1  0
  1 11  1  0
  1 12  1  0
  3 13  1  0
  4 14  1  0
  4 15  1  0
  5 16  1  0
  6 17  1  0
  6 18  1  0
  7 19  1  0
  8 20  1  0
  8 21  1  0
  8 22  1  0
  9 23  1  0
M  END
