
     RDKit          3D

 25 25  0  0  0  0  0  0  0  0999 V2000
   -1.0074    2.7817   -0.2840 C   0  0  0  0  0  0  0  0  0  0  0  0
   -0.4745    1.3986   -0.3695 C   0  0  0  0  0  0  0  0  0  0  0  0
    0.8331    1.2184   -0.2676 C   0  0  0  0  0  0  0  0  0  0  0  0
    1.5010   -0.0954   -0.3340 C   0  0  0  0  0  0  0  0  0  0  0  0
    2.5078   -0.2920    0.7944 C   0  0  0  0  0  0  0  0  0  0  0  0
    0.5616   -1.2585   -0.3067 C   0  0  0  0  0  0  0  0  0  0  0  0
   -0.7628   -0.8958    0.3150 C   0  0  0  0  0  0  0  0  0  0  0  0
   -1.6402   -2.0987    0.3860 C   0  0  0  0  0  0  0  0  0  0  0  0
   -1.3582    0.2096   -0.5655 C   0  0  0  0  0  0  0  0  0  0  0  0
   -2.0850    2.8357   -0.5250 H   0  0  0  0  0  0  0  0  0  0  0  0
   -0.4865    3.4673   -0.9844 H   0  0  0  0  0  0  0  0  0  0  0  0
   -0.8621    3.1792    0.7625 H   0  0  0  0  0  0  0  0  0  0  0  0
    1.4543    2.0907   -0.1262 H   0  0  0  0  0  0  0  0  0  0  0  0
    2.0763   -0.1232   -1.2870 H   0  0  0  0  0  0  0  0  0  0  0  0
    3.2456    0.5094    0.7570 H   0  0  0  0  0  0  0  0  0  0  0  0
    1.9299   -0.3243    1.7484 H   0  0  0  0  0  0  0  0  0  0  0  0
    2.9391   -1.3068    0.6505 H   0  0  0  0  0  0  0  0  0  0  0  0
    0.4077   -1.6562   -1.3320 H   0  0  0  0  0  0  0  0  0  0  0  0
    0.9634   -2.1181    0.2988 H   0  0  0  0  0  0  0  0  0  0  0  0
   -0.5576   -0.4601    1.3196 H   0  0  0  0  0  0  0  0  0  0  0  0
   -1.3036   -2.9088   -0.2815 H   0  0  0  0  0  0  0  0  0  0  0  0
   -1.5869   -2.5214    1.4293 H   0  0  0  0  0  0  0  0  0  0  0  0
   -2.7067   -1.8976    0.1697 H   0  0  0  0  0  0  0  0  0  0  0  0
   -2.4050    0.4016   -0.3431 H   0  0  0  0  0  0  0  0  0  0  0  0
   -1.1832   -0.1354   -1.6246 H   0  0  0  0  0  0  0  0  0  0  0  0
  1  2  1  0
  2  3  2  0
  3  4  1  0
  4  5  1  0
  4  6  1  0
  6  7  1  0
  7  8  1  0
  7  9  1  0
  9  2  1  0
  1 10  1  0
  1 11  1  0
  1 12  1  0
  3 13  1  0
  4 14  1  0
  5 15  1  0
  5 16  1  0
  5 17  1  0
  6 18  1  0
  6 19  1  0
  7 20  1  0
  8 21  1  0
  8 22  1  0
  8 23  1  0
  9 24  1  0
  9 25  1  0
M  END
