
     RDKit          3D

 18 18  0  0  0  0  0  0  0  0999 V2000
    2.1033   -0.5112   -0.0430 C   0  0  0  0  0  0  0  0  0  0  0  0
    0.7720    0.1482   -0.1032 C   0  0  0  0  0  0  0  0  0  0  0  0
    0.5975    1.4213    0.2429 C   0  0  0  0  0  0  0  0  0  0  0  0
   -0.8313    1.7966    0.0791 C   0  0  0  0  0  0  0  0  0  0  0  0
   -1.5265    0.5608   -0.3393 C   0  0  0  0  0  0  0  0  0  0  0  0
   -2.7232    0.4074   -0.4988 O   0  0  0  0  0  0  0  0  0  0  0  0
   -0.4951   -0.4737   -0.5333 C   0  0  0  0  0  0  0  0  0  0  0  0
   -0.8851   -1.6589    0.3252 C   0  0  0  0  0  0  0  0  0  0  0  0
    2.0612   -1.5861   -0.2595 H   0  0  0  0  0  0  0  0  0  0  0  0
    2.5170   -0.2845    0.9691 H   0  0  0  0  0  0  0  0  0  0  0  0
    2.7832   -0.0359   -0.8081 H   0  0  0  0  0  0  0  0  0  0  0  0
    1.3440    2.1275    0.5977 H   0  0  0  0  0  0  0  0  0  0  0  0
   -0.9958    2.5601   -0.6962 H   0  0  0  0  0  0  0  0  0  0  0  0
   -1.1798    2.1329    1.0897 H   0  0  0  0  0  0  0  0  0  0  0  0
   -0.4699   -0.7990   -1.5896 H   0  0  0  0  0  0  0  0  0  0  0  0
   -0.9530   -1.3369    1.3985 H   0  0  0  0  0  0  0  0  0  0  0  0
   -0.2119   -2.5033    0.1965 H   0  0  0  0  0  0  0  0  0  0  0  0
   -1.9066   -1.9654   -0.0279 H   0  0  0  0  0  0  0  0  0  0  0  0
  1  2  1  0
  2  3  2  0
  3  4  1  0
  4  5  1  0
  5  6  2  0
  5  7  1  0
  7  8  1  0
  7  2  1  0
  1  9  1  0
  1 10  1  0
  1 11  1  0
  3 12  1  0
  4 13  1  0
  4 14  1  0
  7 15  1  0
  8 16  1  0
  8 17  1  0
  8 18  1  0
M  END
