
     RDKit          3D

 20 20  0  0  0  0  0  0  0  0999 V2000
    2.4416   -0.1306   -0.4857 C   0  0  0  0  0  0  0  0  0  0  0  0
    1.0385    0.0050    0.0111 C   0  0  0  0  0  0  0  0  0  0  0  0
    0.6379    1.2282    0.3331 C   0  0  0  0  0  0  0  0  0  0  0  0
   -0.7545    1.4099    0.8332 C   0  0  0  0  0  0  0  0  0  0  0  0
   -1.6365    0.5174   -0.0362 C   0  0  0  0  0  0  0  0  0  0  0  0
   -1.2707   -0.9270    0.1688 C   0  0  0  0  0  0  0  0  0  0  0  0
   -1.9143   -1.6445   -0.8647 O   0  0  0  0  0  0  0  0  0  0  0  0
    0.1873   -1.2055    0.1159 C   0  0  0  0  0  0  0  0  0  0  0  0
    2.4886    0.3919   -1.4651 H   0  0  0  0  0  0  0  0  0  0  0  0
    3.1385    0.4426    0.1890 H   0  0  0  0  0  0  0  0  0  0  0  0
    2.7497   -1.1826   -0.6067 H   0  0  0  0  0  0  0  0  0  0  0  0
    1.2952    2.0863    0.2405 H   0  0  0  0  0  0  0  0  0  0  0  0
   -0.8193    1.1438    1.9005 H   0  0  0  0  0  0  0  0  0  0  0  0
   -1.1143    2.4566    0.6973 H   0  0  0  0  0  0  0  0  0  0  0  0
   -1.4876    0.8457   -1.0800 H   0  0  0  0  0  0  0  0  0  0  0  0
   -2.6840    0.6500    0.2981 H   0  0  0  0  0  0  0  0  0  0  0  0
   -1.6719   -1.2390    1.1534 H   0  0  0  0  0  0  0  0  0  0  0  0
   -1.6123   -1.2344   -1.7109 H   0  0  0  0  0  0  0  0  0  0  0  0
    0.5214   -1.7468    1.0399 H   0  0  0  0  0  0  0  0  0  0  0  0
    0.4667   -1.8671   -0.7316 H   0  0  0  0  0  0  0  0  0  0  0  0
  1  2  1  0
  2  3  2  0
  3  4  1  0
  4  5  1  0
  5  6  1  0
  6  7  1  0
  6  8  1  0
  8  2  1  0
  1  9  1  0
  1 10  1  0
  1 11  1  0
  3 12  1  0
  4 13  1  0
  4 14  1  0
  5 15  1  0
  5 16  1  0
  6 17  1  0
  7 18  1  0
  8 19  1  0
  8 20  1  0
M  END
