
     RDKit          3D

 23 24  0  0  0  0  0  0  0  0999 V2000
    2.1857    1.3351    0.2869 C   0  0  0  0  0  0  0  0  0  0  0  0
    1.0951    0.3749   -0.0424 C   0  0  0  0  0  0  0  0  0  0  0  0
   -0.1339    0.8380   -0.0877 C   0  0  0  0  0  0  0  0  0  0  0  0
   -1.1922    1.8780    0.0086 C   0  0  0  0  0  0  0  0  0  0  0  0
   -2.0672    0.7383    0.5614 C   0  0  0  0  0  0  0  0  0  0  0  0
   -1.2477   -0.0821   -0.4128 C   0  0  0  0  0  0  0  0  0  0  0  0
   -1.0087   -1.5047   -0.1095 C   0  0  0  0  0  0  0  0  0  0  0  0
    0.3688   -2.0098   -0.1666 C   0  0  0  0  0  0  0  0  0  0  0  0
    1.4744   -1.0229   -0.2909 C   0  0  0  0  0  0  0  0  0  0  0  0
    2.0793    2.2917   -0.2513 H   0  0  0  0  0  0  0  0  0  0  0  0
    3.1909    0.9229    0.0371 H   0  0  0  0  0  0  0  0  0  0  0  0
    2.1728    1.4523    1.3929 H   0  0  0  0  0  0  0  0  0  0  0  0
   -1.5468    2.1516   -0.9863 H   0  0  0  0  0  0  0  0  0  0  0  0
   -1.0051    2.6845    0.7292 H   0  0  0  0  0  0  0  0  0  0  0  0
   -1.8397    0.4670    1.5965 H   0  0  0  0  0  0  0  0  0  0  0  0
   -3.1257    0.8751    0.2934 H   0  0  0  0  0  0  0  0  0  0  0  0
   -1.6047    0.1252   -1.4439 H   0  0  0  0  0  0  0  0  0  0  0  0
   -1.6751   -2.1011   -0.7956 H   0  0  0  0  0  0  0  0  0  0  0  0
   -1.4496   -1.7076    0.9127 H   0  0  0  0  0  0  0  0  0  0  0  0
    0.5850   -2.6588    0.7293 H   0  0  0  0  0  0  0  0  0  0  0  0
    0.4758   -2.7317   -1.0324 H   0  0  0  0  0  0  0  0  0  0  0  0
    1.9450   -1.0473   -1.3196 H   0  0  0  0  0  0  0  0  0  0  0  0
    2.3235   -1.2686    0.3911 H   0  0  0  0  0  0  0  0  0  0  0  0
  1  2  1  0
  2  3  2  0
  3  4  1  0
  4  5  1  0
  5  6  1  0
  6  7  1  0
  7  8  1  0
  8  9  1  0
  9  2  1  0
  6  3  1  0
  1 10  1  0
  1 11  1  0
  1 12  1  0
  4 13  1  0
  4 14  1  0
  5 15  1  0
  5 16  1  0
  6 17  1  0
  7 18  1  0
  7 19  1  0
  8 20  1  0
  8 21  1  0
  9 22  1  0
  9 23  1  0
M  END
