
     RDKit          3D

 19 21  0  0  0  0  0  0  0  0999 V2000
   -2.3687   -0.9913    0.2189 C   0  0  0  0  0  0  0  0  0  0  0  0
   -1.2402   -0.0382    0.0798 C   0  0  0  0  0  0  0  0  0  0  0  0
   -0.0059   -0.3246   -0.2626 C   0  0  0  0  0  0  0  0  0  0  0  0
    1.3356   -0.8398   -0.6637 C   0  0  0  0  0  0  0  0  0  0  0  0
    2.2696   -0.9579    0.4730 C   0  0  0  0  0  0  0  0  0  0  0  0
    1.9928    0.4105    0.0232 C   0  0  0  0  0  0  0  0  0  0  0  0
    0.6936    1.0219   -0.2737 C   0  0  0  0  0  0  0  0  0  0  0  0
    0.0229    1.7852    0.6366 O   0  0  0  0  0  0  0  0  0  0  0  0
   -1.3230    1.4381    0.3269 C   0  0  0  0  0  0  0  0  0  0  0  0
   -2.5680   -1.1724    1.2934 H   0  0  0  0  0  0  0  0  0  0  0  0
   -2.0997   -1.9335   -0.2969 H   0  0  0  0  0  0  0  0  0  0  0  0
   -3.2640   -0.5087   -0.2140 H   0  0  0  0  0  0  0  0  0  0  0  0
    1.6091   -0.9483   -1.7040 H   0  0  0  0  0  0  0  0  0  0  0  0
    1.7924   -1.3764    1.4081 H   0  0  0  0  0  0  0  0  0  0  0  0
    3.2314   -1.4272    0.2651 H   0  0  0  0  0  0  0  0  0  0  0  0
    2.8505    0.8737   -0.5501 H   0  0  0  0  0  0  0  0  0  0  0  0
    0.6306    1.3853   -1.3421 H   0  0  0  0  0  0  0  0  0  0  0  0
   -1.9291    1.6935    1.1979 H   0  0  0  0  0  0  0  0  0  0  0  0
   -1.6300    1.9101   -0.6158 H   0  0  0  0  0  0  0  0  0  0  0  0
  1  2  1  0
  2  3  2  0
  3  4  1  0
  4  5  1  0
  5  6  1  0
  6  7  1  0
  7  8  1  0
  8  9  1  0
  9  2  1  0
  7  3  1  0
  6  4  1  0
  1 10  1  0
  1 11  1  0
  1 12  1  0
  4 13  1  0
  5 14  1  0
  5 15  1  0
  6 16  1  0
  7 17  1  0
  9 18  1  0
  9 19  1  0
M  END
