
     RDKit          3D

 19 20  0  0  0  0  0  0  0  0999 V2000
    2.4535    0.6034    0.0569 C   0  0  0  0  0  0  0  0  0  0  0  0
    0.9955    0.3914   -0.0254 C   0  0  0  0  0  0  0  0  0  0  0  0
    0.1873    1.3704    0.3984 C   0  0  0  0  0  0  0  0  0  0  0  0
   -1.3009    1.3590    0.3863 C   0  0  0  0  0  0  0  0  0  0  0  0
   -2.0750    0.3676   -0.0348 C   0  0  0  0  0  0  0  0  0  0  0  0
   -1.6097   -0.9403   -0.6046 C   0  0  0  0  0  0  0  0  0  0  0  0
   -0.5428   -1.5412    0.3245 C   0  0  0  0  0  0  0  0  0  0  0  0
    0.5247   -0.9285   -0.5876 C   0  0  0  0  0  0  0  0  0  0  0  0
   -0.5301   -0.7143   -1.4911 O   0  0  0  0  0  0  0  0  0  0  0  0
    2.6665    1.1103    1.0312 H   0  0  0  0  0  0  0  0  0  0  0  0
    2.7540    1.2747   -0.7755 H   0  0  0  0  0  0  0  0  0  0  0  0
    2.9746   -0.3611    0.0260 H   0  0  0  0  0  0  0  0  0  0  0  0
    0.6494    2.2652    0.7915 H   0  0  0  0  0  0  0  0  0  0  0  0
   -1.7866    2.2501    0.7592 H   0  0  0  0  0  0  0  0  0  0  0  0
   -3.1485    0.4483    0.0104 H   0  0  0  0  0  0  0  0  0  0  0  0
   -2.3800   -1.6147   -0.9447 H   0  0  0  0  0  0  0  0  0  0  0  0
   -0.5521   -1.1157    1.3410 H   0  0  0  0  0  0  0  0  0  0  0  0
   -0.5969   -2.6347    0.2452 H   0  0  0  0  0  0  0  0  0  0  0  0
    1.3170   -1.5899   -0.9068 H   0  0  0  0  0  0  0  0  0  0  0  0
  1  2  1  0
  2  3  2  0
  3  4  1  0
  4  5  2  0
  5  6  1  0
  6  7  1  0
  7  8  1  0
  8  9  1  0
  8  2  1  0
  9  6  1  0
  1 10  1  0
  1 11  1  0
  1 12  1  0
  3 13  1  0
  4 14  1  0
  5 15  1  0
  6 16  1  0
  7 17  1  0
  7 18  1  0
  8 19  1  0
M  END
