
     RDKit          3D

 18 19  0  0  0  0  0  0  0  0999 V2000
    2.5580   -0.0337   -0.0618 C   0  0  0  0  0  0  0  0  0  0  0  0
    1.0832   -0.0546    0.1513 C   0  0  0  0  0  0  0  0  0  0  0  0
    0.4186   -0.6622    1.1488 C   0  0  0  0  0  0  0  0  0  0  0  0
   -1.0293   -0.4564    1.0171 C   0  0  0  0  0  0  0  0  0  0  0  0
   -1.7036   -1.3001    0.1614 O   0  0  0  0  0  0  0  0  0  0  0  0
   -2.2019   -0.2570   -0.6203 C   0  0  0  0  0  0  0  0  0  0  0  0
   -1.1563    0.6402   -0.0056 C   0  0  0  0  0  0  0  0  0  0  0  0
    0.1260    0.6267   -0.7574 C   0  0  0  0  0  0  0  0  0  0  0  0
    3.1046   -0.2053    0.8866 H   0  0  0  0  0  0  0  0  0  0  0  0
    2.8471    0.9719   -0.4757 H   0  0  0  0  0  0  0  0  0  0  0  0
    2.8499   -0.7904   -0.8391 H   0  0  0  0  0  0  0  0  0  0  0  0
    0.8953   -1.2325    1.9494 H   0  0  0  0  0  0  0  0  0  0  0  0
   -1.5104   -0.1839    1.9541 H   0  0  0  0  0  0  0  0  0  0  0  0
   -3.2272    0.0587   -0.3961 H   0  0  0  0  0  0  0  0  0  0  0  0
   -2.0304   -0.3728   -1.7103 H   0  0  0  0  0  0  0  0  0  0  0  0
   -1.5444    1.6006    0.3421 H   0  0  0  0  0  0  0  0  0  0  0  0
    0.4335    1.6360   -1.0503 H   0  0  0  0  0  0  0  0  0  0  0  0
    0.0874    0.0147   -1.6941 H   0  0  0  0  0  0  0  0  0  0  0  0
  1  2  1  0
  2  3  2  0
  3  4  1  0
  4  5  1  0
  5  6  1  0
  6  7  1  0
  7  8  1  0
  8  2  1  0
  7  4  1  0
  1  9  1  0
  1 10  1  0
  1 11  1  0
  3 12  1  0
  4 13  1  0
  6 14  1  0
  6 15  1  0
  7 16  1  0
  8 17  1  0
  8 18  1  0
M  END
