
     RDKit          3D

 21 22  0  0  0  0  0  0  0  0999 V2000
    2.2229    0.4981   -0.1803 C   0  0  0  0  0  0  0  0  0  0  0  0
    0.9007   -0.1716   -0.2455 C   0  0  0  0  0  0  0  0  0  0  0  0
    0.7289   -1.4100   -0.6822 C   0  0  0  0  0  0  0  0  0  0  0  0
   -0.6885   -1.8164   -0.6364 C   0  0  0  0  0  0  0  0  0  0  0  0
   -1.3642   -0.7290    0.1166 C   0  0  0  0  0  0  0  0  0  0  0  0
   -1.2170   -0.8763    1.4915 O   0  0  0  0  0  0  0  0  0  0  0  0
   -0.6019    0.3670    1.6345 C   0  0  0  0  0  0  0  0  0  0  0  0
   -0.3781    0.4110    0.1499 C   0  0  0  0  0  0  0  0  0  0  0  0
   -0.8093    1.6748   -0.5065 C   0  0  0  0  0  0  0  0  0  0  0  0
    2.1143    1.6019   -0.1322 H   0  0  0  0  0  0  0  0  0  0  0  0
    2.8074    0.1740   -1.0599 H   0  0  0  0  0  0  0  0  0  0  0  0
    2.7115    0.1774    0.7620 H   0  0  0  0  0  0  0  0  0  0  0  0
    1.5083   -2.1036   -1.0483 H   0  0  0  0  0  0  0  0  0  0  0  0
   -0.7359   -2.7843   -0.0844 H   0  0  0  0  0  0  0  0  0  0  0  0
   -1.1094   -2.0174   -1.6408 H   0  0  0  0  0  0  0  0  0  0  0  0
   -2.3843   -0.4686   -0.2118 H   0  0  0  0  0  0  0  0  0  0  0  0
   -1.2812    1.1478    1.9743 H   0  0  0  0  0  0  0  0  0  0  0  0
    0.3482    0.2458    2.2019 H   0  0  0  0  0  0  0  0  0  0  0  0
   -0.0048    2.4220   -0.3826 H   0  0  0  0  0  0  0  0  0  0  0  0
   -1.6904    2.0715    0.0393 H   0  0  0  0  0  0  0  0  0  0  0  0
   -1.0772    1.5857   -1.5592 H   0  0  0  0  0  0  0  0  0  0  0  0
  1  2  1  0
  2  3  2  0
  3  4  1  0
  4  5  1  0
  5  6  1  0
  6  7  1  0
  7  8  1  0
  8  9  1  0
  8  2  1  0
  8  5  1  0
  1 10  1  0
  1 11  1  0
  1 12  1  0
  3 13  1  0
  4 14  1  0
  4 15  1  0
  5 16  1  0
  7 17  1  0
  7 18  1  0
  9 19  1  0
  9 20  1  0
  9 21  1  0
M  END
