
     RDKit          3D

 21 22  0  0  0  0  0  0  0  0999 V2000
   -1.2307    2.0629    0.0865 C   0  0  0  0  0  0  0  0  0  0  0  0
   -1.1505    0.5799    0.1510 C   0  0  0  0  0  0  0  0  0  0  0  0
   -2.1298   -0.2316   -0.2042 C   0  0  0  0  0  0  0  0  0  0  0  0
   -1.6562   -1.6194    0.0077 C   0  0  0  0  0  0  0  0  0  0  0  0
   -0.5721   -1.5056    0.8285 O   0  0  0  0  0  0  0  0  0  0  0  0
   -0.0117   -0.2514    0.6088 C   0  0  0  0  0  0  0  0  0  0  0  0
    1.0914   -0.2827   -0.4257 C   0  0  0  0  0  0  0  0  0  0  0  0
    2.3237   -1.0366   -0.2081 C   0  0  0  0  0  0  0  0  0  0  0  0
    2.3829    0.4320    0.0223 C   0  0  0  0  0  0  0  0  0  0  0  0
   -0.2258    2.5310    0.1357 H   0  0  0  0  0  0  0  0  0  0  0  0
   -1.8040    2.3648   -0.8190 H   0  0  0  0  0  0  0  0  0  0  0  0
   -1.8258    2.3810    0.9834 H   0  0  0  0  0  0  0  0  0  0  0  0
   -3.1317    0.0691   -0.5931 H   0  0  0  0  0  0  0  0  0  0  0  0
   -1.2957   -2.0462   -0.9683 H   0  0  0  0  0  0  0  0  0  0  0  0
   -2.4549   -2.2812    0.4099 H   0  0  0  0  0  0  0  0  0  0  0  0
    0.3465    0.1652    1.5752 H   0  0  0  0  0  0  0  0  0  0  0  0
    0.7463   -0.0804   -1.4624 H   0  0  0  0  0  0  0  0  0  0  0  0
    2.8670   -1.4016   -1.1232 H   0  0  0  0  0  0  0  0  0  0  0  0
    2.4766   -1.7184    0.6493 H   0  0  0  0  0  0  0  0  0  0  0  0
    2.4411    0.7469    1.0782 H   0  0  0  0  0  0  0  0  0  0  0  0
    2.8134    1.1224   -0.7323 H   0  0  0  0  0  0  0  0  0  0  0  0
  1  2  1  0
  2  3  2  0
  3  4  1  0
  4  5  1  0
  5  6  1  0
  6  7  1  0
  7  8  1  0
  8  9  1  0
  6  2  1  0
  9  7  1  0
  1 10  1  0
  1 11  1  0
  1 12  1  0
  3 13  1  0
  4 14  1  0
  4 15  1  0
  6 16  1  0
  7 17  1  0
  8 18  1  0
  8 19  1  0
  9 20  1  0
  9 21  1  0
M  END
