
     RDKit          3D

 19 19  0  0  0  0  0  0  0  0999 V2000
   -2.2665   -1.0087    0.1401 C   0  0  0  0  0  0  0  0  0  0  0  0
   -0.9849   -0.2362    0.0601 C   0  0  0  0  0  0  0  0  0  0  0  0
    0.0999   -0.8297   -0.4112 C   0  0  0  0  0  0  0  0  0  0  0  0
    1.4325   -0.1354   -0.5297 C   0  0  0  0  0  0  0  0  0  0  0  0
    2.2701   -0.4373    0.6720 C   0  0  0  0  0  0  0  0  0  0  0  0
    1.2206    1.2423   -0.7141 O   0  0  0  0  0  0  0  0  0  0  0  0
    0.0348    1.8854   -0.4125 C   0  0  0  0  0  0  0  0  0  0  0  0
   -0.1808    3.0083   -0.9204 O   0  0  0  0  0  0  0  0  0  0  0  0
   -0.9017    1.1878    0.5001 C   0  0  0  0  0  0  0  0  0  0  0  0
   -3.0813   -0.2810   -0.0601 H   0  0  0  0  0  0  0  0  0  0  0  0
   -2.3084   -1.4357    1.1556 H   0  0  0  0  0  0  0  0  0  0  0  0
   -2.3387   -1.7820   -0.6418 H   0  0  0  0  0  0  0  0  0  0  0  0
   -0.0004   -1.8702   -0.7220 H   0  0  0  0  0  0  0  0  0  0  0  0
    1.9211   -0.5947   -1.4160 H   0  0  0  0  0  0  0  0  0  0  0  0
    3.3031   -0.0809    0.4860 H   0  0  0  0  0  0  0  0  0  0  0  0
    1.8232    0.0194    1.5767 H   0  0  0  0  0  0  0  0  0  0  0  0
    2.3263   -1.5582    0.7545 H   0  0  0  0  0  0  0  0  0  0  0  0
   -0.4475    1.2632    1.5304 H   0  0  0  0  0  0  0  0  0  0  0  0
   -1.9214    1.6435    0.4852 H   0  0  0  0  0  0  0  0  0  0  0  0
  1  2  1  0
  2  3  2  0
  3  4  1  0
  4  5  1  0
  4  6  1  0
  6  7  1  0
  7  8  2  0
  7  9  1  0
  9  2  1  0
  1 10  1  0
  1 11  1  0
  1 12  1  0
  3 13  1  0
  4 14  1  0
  5 15  1  0
  5 16  1  0
  5 17  1  0
  9 18  1  0
  9 19  1  0
M  END
