
     RDKit          3D

 23 24  0  0  0  0  0  0  0  0999 V2000
    2.6630   -0.1118    0.6332 C   0  0  0  0  0  0  0  0  0  0  0  0
    1.3100    0.0178    0.0084 C   0  0  0  0  0  0  0  0  0  0  0  0
    0.7711    1.1863   -0.2574 C   0  0  0  0  0  0  0  0  0  0  0  0
   -0.6890    1.2977   -0.4223 C   0  0  0  0  0  0  0  0  0  0  0  0
   -1.3200    0.8480    0.8950 C   0  0  0  0  0  0  0  0  0  0  0  0
   -1.5983   -0.6221    0.7540 C   0  0  0  0  0  0  0  0  0  0  0  0
   -0.8945   -1.0273   -0.5105 C   0  0  0  0  0  0  0  0  0  0  0  0
    0.5749   -1.2231   -0.3111 C   0  0  0  0  0  0  0  0  0  0  0  0
   -1.1236    0.2127   -1.3850 C   0  0  0  0  0  0  0  0  0  0  0  0
    3.2127    0.8641    0.4955 H   0  0  0  0  0  0  0  0  0  0  0  0
    2.6152   -0.3410    1.7058 H   0  0  0  0  0  0  0  0  0  0  0  0
    3.2561   -0.9014    0.1110 H   0  0  0  0  0  0  0  0  0  0  0  0
    1.3892    2.0525   -0.3536 H   0  0  0  0  0  0  0  0  0  0  0  0
   -1.0367    2.2924   -0.7069 H   0  0  0  0  0  0  0  0  0  0  0  0
   -0.6219    0.9839    1.7418 H   0  0  0  0  0  0  0  0  0  0  0  0
   -2.2209    1.4459    1.1020 H   0  0  0  0  0  0  0  0  0  0  0  0
   -1.2989   -1.2136    1.6394 H   0  0  0  0  0  0  0  0  0  0  0  0
   -2.7027   -0.7204    0.5425 H   0  0  0  0  0  0  0  0  0  0  0  0
   -1.3227   -1.9062   -0.9912 H   0  0  0  0  0  0  0  0  0  0  0  0
    0.7554   -2.0201    0.4362 H   0  0  0  0  0  0  0  0  0  0  0  0
    0.9917   -1.6092   -1.2711 H   0  0  0  0  0  0  0  0  0  0  0  0
   -0.5098    0.1716   -2.2920 H   0  0  0  0  0  0  0  0  0  0  0  0
   -2.2004    0.3234   -1.5637 H   0  0  0  0  0  0  0  0  0  0  0  0
  1  2  1  0
  2  3  2  0
  3  4  1  0
  4  5  1  0
  5  6  1  0
  6  7  1  0
  7  8  1  0
  7  9  1  0
  8  2  1  0
  9  4  1  0
  1 10  1  0
  1 11  1  0
  1 12  1  0
  3 13  1  0
  4 14  1  0
  5 15  1  0
  5 16  1  0
  6 17  1  0
  6 18  1  0
  7 19  1  0
  8 20  1  0
  8 21  1  0
  9 22  1  0
  9 23  1  0
M  END
