
     RDKit          3D

 25 25  0  0  0  0  0  0  0  0999 V2000
    3.1327    0.2150    0.1078 C   0  0  0  0  0  0  0  0  0  0  0  0
    1.7198   -0.0456   -0.2135 C   0  0  0  0  0  0  0  0  0  0  0  0
    1.0246    0.8070   -0.9599 C   0  0  0  0  0  0  0  0  0  0  0  0
   -0.3921    0.4266   -1.2108 C   0  0  0  0  0  0  0  0  0  0  0  0
   -1.1225    0.0687    0.0517 C   0  0  0  0  0  0  0  0  0  0  0  0
   -2.3433   -0.8018   -0.2543 C   0  0  0  0  0  0  0  0  0  0  0  0
   -1.5956    1.3554    0.6891 C   0  0  0  0  0  0  0  0  0  0  0  0
   -0.2324   -0.6837    1.0129 C   0  0  0  0  0  0  0  0  0  0  0  0
    0.9490   -1.2429    0.2467 C   0  0  0  0  0  0  0  0  0  0  0  0
    3.5003   -0.6589    0.7064 H   0  0  0  0  0  0  0  0  0  0  0  0
    3.7934    0.2747   -0.7749 H   0  0  0  0  0  0  0  0  0  0  0  0
    3.2234    1.0904    0.7806 H   0  0  0  0  0  0  0  0  0  0  0  0
    1.4542    1.7288   -1.3674 H   0  0  0  0  0  0  0  0  0  0  0  0
   -0.3805   -0.4938   -1.8631 H   0  0  0  0  0  0  0  0  0  0  0  0
   -0.9345    1.2282   -1.7770 H   0  0  0  0  0  0  0  0  0  0  0  0
   -3.2633   -0.3200    0.1695 H   0  0  0  0  0  0  0  0  0  0  0  0
   -2.4531   -0.9580   -1.3370 H   0  0  0  0  0  0  0  0  0  0  0  0
   -2.2559   -1.7985    0.2245 H   0  0  0  0  0  0  0  0  0  0  0  0
   -2.4944    1.0951    1.3034 H   0  0  0  0  0  0  0  0  0  0  0  0
   -0.8167    1.8418    1.2983 H   0  0  0  0  0  0  0  0  0  0  0  0
   -1.9061    2.0299   -0.1404 H   0  0  0  0  0  0  0  0  0  0  0  0
   -0.7748   -1.5208    1.5005 H   0  0  0  0  0  0  0  0  0  0  0  0
    0.1027    0.0384    1.8018 H   0  0  0  0  0  0  0  0  0  0  0  0
    0.5325   -1.8094   -0.6003 H   0  0  0  0  0  0  0  0  0  0  0  0
    1.5326   -1.8665    0.9468 H   0  0  0  0  0  0  0  0  0  0  0  0
  1  2  1  0
  2  3  2  0
  3  4  1  0
  4  5  1  0
  5  6  1  0
  5  7  1  0
  5  8  1  0
  8  9  1  0
  9  2  1  0
  1 10  1  0
  1 11  1  0
  1 12  1  0
  3 13  1  0
  4 14  1  0
  4 15  1  0
  6 16  1  0
  6 17  1  0
  6 18  1  0
  7 19  1  0
  7 20  1  0
  7 21  1  0
  8 22  1  0
  8 23  1  0
  9 24  1  0
  9 25  1  0
M  END
