
     RDKit          3D

 21 22  0  0  0  0  0  0  0  0999 V2000
    2.3593   -1.3375    0.2431 C   0  0  0  0  0  0  0  0  0  0  0  0
    1.0806   -0.5790    0.0346 C   0  0  0  0  0  0  0  0  0  0  0  0
    0.1788   -0.9024   -0.8776 C   0  0  0  0  0  0  0  0  0  0  0  0
   -0.9790    0.0138   -0.8618 C   0  0  0  0  0  0  0  0  0  0  0  0
   -2.2280   -0.7200   -0.4125 C   0  0  0  0  0  0  0  0  0  0  0  0
   -0.6098    1.0575    0.1383 C   0  0  0  0  0  0  0  0  0  0  0  0
   -1.6815    1.5388    0.8900 O   0  0  0  0  0  0  0  0  0  0  0  0
    0.5579    1.9345   -0.0011 C   0  0  0  0  0  0  0  0  0  0  0  0
    0.6237    0.6182    0.7854 C   0  0  0  0  0  0  0  0  0  0  0  0
    2.7023   -1.7423   -0.7322 H   0  0  0  0  0  0  0  0  0  0  0  0
    3.0987   -0.7348    0.7688 H   0  0  0  0  0  0  0  0  0  0  0  0
    2.0966   -2.2192    0.8732 H   0  0  0  0  0  0  0  0  0  0  0  0
    0.2716   -1.7533   -1.5719 H   0  0  0  0  0  0  0  0  0  0  0  0
   -1.0887    0.4632   -1.8660 H   0  0  0  0  0  0  0  0  0  0  0  0
   -2.3589   -0.5225    0.6860 H   0  0  0  0  0  0  0  0  0  0  0  0
   -2.1225   -1.8313   -0.5539 H   0  0  0  0  0  0  0  0  0  0  0  0
   -3.1425   -0.3443   -0.9075 H   0  0  0  0  0  0  0  0  0  0  0  0
   -1.4106    1.4995    1.8316 H   0  0  0  0  0  0  0  0  0  0  0  0
    0.5557    2.8715    0.5666 H   0  0  0  0  0  0  0  0  0  0  0  0
    1.2319    1.9343   -0.8685 H   0  0  0  0  0  0  0  0  0  0  0  0
    0.8643    0.7556    1.8356 H   0  0  0  0  0  0  0  0  0  0  0  0
  1  2  1  0
  2  3  2  0
  3  4  1  0
  4  5  1  0
  4  6  1  0
  6  7  1  0
  6  8  1  0
  8  9  1  0
  9  2  1  0
  9  6  1  0
  1 10  1  0
  1 11  1  0
  1 12  1  0
  3 13  1  0
  4 14  1  0
  5 15  1  0
  5 16  1  0
  5 17  1  0
  7 18  1  0
  8 19  1  0
  8 20  1  0
  9 21  1  0
M  END
