
     RDKit          3D

 21 21  0  0  0  0  0  0  0  0999 V2000
    2.6642   -0.5966   -0.1667 C   0  0  0  0  0  0  0  0  0  0  0  0
    1.2846   -0.0390   -0.2924 C   0  0  0  0  0  0  0  0  0  0  0  0
    0.9182    1.2435   -0.2613 C   0  0  0  0  0  0  0  0  0  0  0  0
   -0.5698    1.3423   -0.4252 C   0  0  0  0  0  0  0  0  0  0  0  0
   -0.9650   -0.0049    0.1768 C   0  0  0  0  0  0  0  0  0  0  0  0
   -2.3676   -0.3898   -0.1774 C   0  0  0  0  0  0  0  0  0  0  0  0
   -0.7005    0.0184    1.6181 C   0  0  0  0  0  0  0  0  0  0  0  0
    0.0858    0.8232    2.0683 O   0  0  0  0  0  0  0  0  0  0  0  0
    0.0718   -0.8857   -0.4806 C   0  0  0  0  0  0  0  0  0  0  0  0
    2.6972   -1.4797    0.5109 H   0  0  0  0  0  0  0  0  0  0  0  0
    3.3301    0.2084    0.2156 H   0  0  0  0  0  0  0  0  0  0  0  0
    2.9667   -0.9511   -1.1715 H   0  0  0  0  0  0  0  0  0  0  0  0
    1.5552    2.1112   -0.1396 H   0  0  0  0  0  0  0  0  0  0  0  0
   -0.9976    2.1894    0.1241 H   0  0  0  0  0  0  0  0  0  0  0  0
   -0.7799    1.3379   -1.5024 H   0  0  0  0  0  0  0  0  0  0  0  0
   -2.4193   -0.5146   -1.2788 H   0  0  0  0  0  0  0  0  0  0  0  0
   -3.0409    0.3997    0.1883 H   0  0  0  0  0  0  0  0  0  0  0  0
   -2.6108   -1.3201    0.3391 H   0  0  0  0  0  0  0  0  0  0  0  0
   -1.2020   -0.6754    2.2703 H   0  0  0  0  0  0  0  0  0  0  0  0
    0.1623   -1.8714   -0.0207 H   0  0  0  0  0  0  0  0  0  0  0  0
   -0.0827   -0.9457   -1.5950 H   0  0  0  0  0  0  0  0  0  0  0  0
  1  2  1  0
  2  3  2  0
  3  4  1  0
  4  5  1  0
  5  6  1  0
  5  7  1  0
  7  8  2  0
  5  9  1  0
  9  2  1  0
  1 10  1  0
  1 11  1  0
  1 12  1  0
  3 13  1  0
  4 14  1  0
  4 15  1  0
  6 16  1  0
  6 17  1  0
  6 18  1  0
  7 19  1  0
  9 20  1  0
  9 21  1  0
M  END
