
     RDKit          3D

 19 19  0  0  0  0  0  0  0  0999 V2000
    2.5194    0.5311    0.2025 C   0  0  0  0  0  0  0  0  0  0  0  0
    1.1611    0.0180   -0.0898 C   0  0  0  0  0  0  0  0  0  0  0  0
    0.1398    0.7606   -0.4791 C   0  0  0  0  0  0  0  0  0  0  0  0
   -1.0759   -0.1065   -0.6795 C   0  0  0  0  0  0  0  0  0  0  0  0
   -2.0482    0.2783    0.4139 C   0  0  0  0  0  0  0  0  0  0  0  0
   -2.3240    1.6522    0.2296 O   0  0  0  0  0  0  0  0  0  0  0  0
   -0.5884   -1.4894   -0.5629 C   0  0  0  0  0  0  0  0  0  0  0  0
   -1.1685   -2.5119   -0.8793 O   0  0  0  0  0  0  0  0  0  0  0  0
    0.7585   -1.4268    0.0177 C   0  0  0  0  0  0  0  0  0  0  0  0
    3.1794   -0.2682    0.5958 H   0  0  0  0  0  0  0  0  0  0  0  0
    2.9390    1.0357   -0.6905 H   0  0  0  0  0  0  0  0  0  0  0  0
    2.3912    1.3420    0.9682 H   0  0  0  0  0  0  0  0  0  0  0  0
    0.1659    1.8335   -0.6333 H   0  0  0  0  0  0  0  0  0  0  0  0
   -1.5083    0.1275   -1.6656 H   0  0  0  0  0  0  0  0  0  0  0  0
   -1.5890    0.1251    1.4076 H   0  0  0  0  0  0  0  0  0  0  0  0
   -3.0187   -0.2464    0.3122 H   0  0  0  0  0  0  0  0  0  0  0  0
   -2.1735    2.1550    1.0532 H   0  0  0  0  0  0  0  0  0  0  0  0
    0.7707   -1.7432    1.0850 H   0  0  0  0  0  0  0  0  0  0  0  0
    1.4694   -2.0667   -0.5522 H   0  0  0  0  0  0  0  0  0  0  0  0
  1  2  1  0
  2  3  2  0
  3  4  1  0
  4  5  1  0
  5  6  1  0
  4  7  1  0
  7  8  2  0
  7  9  1  0
  9  2  1  0
  1 10  1  0
  1 11  1  0
  1 12  1  0
  3 13  1  0
  4 14  1  0
  5 15  1  0
  5 16  1  0
  6 17  1  0
  9 18  1  0
  9 19  1  0
M  END
