
     RDKit          3D

 21 21  0  0  0  0  0  0  0  0999 V2000
    2.7451   -0.1642   -0.0069 C   0  0  0  0  0  0  0  0  0  0  0  0
    1.2302   -0.0414   -0.1922 C   0  0  0  0  0  0  0  0  0  0  0  0
    0.3592   -1.0018    0.0299 C   0  0  0  0  0  0  0  0  0  0  0  0
   -1.0270   -0.5637   -0.2430 C   0  0  0  0  0  0  0  0  0  0  0  0
   -1.8827   -1.0444    0.8987 C   0  0  0  0  0  0  0  0  0  0  0  0
   -1.4394   -1.0145   -1.4746 O   0  0  0  0  0  0  0  0  0  0  0  0
   -0.8851    0.9517   -0.1913 C   0  0  0  0  0  0  0  0  0  0  0  0
   -1.1398    1.4559    1.0775 O   0  0  0  0  0  0  0  0  0  0  0  0
    0.5232    1.1716   -0.6509 C   0  0  0  0  0  0  0  0  0  0  0  0
    3.2033   -0.3199   -0.9924 H   0  0  0  0  0  0  0  0  0  0  0  0
    2.9909   -1.0104    0.6332 H   0  0  0  0  0  0  0  0  0  0  0  0
    3.0380    0.7631    0.4999 H   0  0  0  0  0  0  0  0  0  0  0  0
    0.6657   -2.0182    0.3831 H   0  0  0  0  0  0  0  0  0  0  0  0
   -1.2755   -1.5049    1.7248 H   0  0  0  0  0  0  0  0  0  0  0  0
   -2.6631   -1.7414    0.5764 H   0  0  0  0  0  0  0  0  0  0  0  0
   -2.4109   -0.1832    1.3965 H   0  0  0  0  0  0  0  0  0  0  0  0
   -1.5423   -0.1999   -2.0573 H   0  0  0  0  0  0  0  0  0  0  0  0
   -1.6071    1.3614   -0.9317 H   0  0  0  0  0  0  0  0  0  0  0  0
   -0.3404    1.7761    1.5419 H   0  0  0  0  0  0  0  0  0  0  0  0
    0.5106    1.2195   -1.7691 H   0  0  0  0  0  0  0  0  0  0  0  0
    0.9472    2.1086   -0.2523 H   0  0  0  0  0  0  0  0  0  0  0  0
  1  2  1  0
  2  3  2  0
  3  4  1  0
  4  5  1  0
  4  6  1  0
  4  7  1  0
  7  8  1  0
  7  9  1  0
  9  2  1  0
  1 10  1  0
  1 11  1  0
  1 12  1  0
  3 13  1  0
  5 14  1  0
  5 15  1  0
  5 16  1  0
  6 17  1  0
  7 18  1  0
  8 19  1  0
  9 20  1  0
  9 21  1  0
M  END
