
     RDKit          3D

 19 19  0  0  0  0  0  0  0  0999 V2000
    0.6662    1.9702   -0.0954 C   0  0  0  0  0  0  0  0  0  0  0  0
   -0.0913    0.6992    0.0200 C   0  0  0  0  0  0  0  0  0  0  0  0
    0.5539   -0.4299    0.1002 C   0  0  0  0  0  0  0  0  0  0  0  0
    2.0338   -0.5568    0.0854 C   0  0  0  0  0  0  0  0  0  0  0  0
   -0.2238   -1.6579    0.2128 C   0  0  0  0  0  0  0  0  0  0  0  0
    0.2545   -2.7247    0.6561 O   0  0  0  0  0  0  0  0  0  0  0  0
   -1.6461   -1.5319   -0.2484 C   0  0  0  0  0  0  0  0  0  0  0  0
   -2.1801   -0.4204    0.3424 O   0  0  0  0  0  0  0  0  0  0  0  0
   -1.5489    0.7651    0.0404 C   0  0  0  0  0  0  0  0  0  0  0  0
    1.4176    1.9595   -0.9000 H   0  0  0  0  0  0  0  0  0  0  0  0
    0.0027    2.8425   -0.2680 H   0  0  0  0  0  0  0  0  0  0  0  0
    1.1448    2.1358    0.9082 H   0  0  0  0  0  0  0  0  0  0  0  0
    2.3904   -1.0005    1.0391 H   0  0  0  0  0  0  0  0  0  0  0  0
    2.5294    0.4056   -0.1586 H   0  0  0  0  0  0  0  0  0  0  0  0
    2.3135   -1.2662   -0.7211 H   0  0  0  0  0  0  0  0  0  0  0  0
   -1.6208   -1.4545   -1.3658 H   0  0  0  0  0  0  0  0  0  0  0  0
   -2.2019   -2.4148    0.0886 H   0  0  0  0  0  0  0  0  0  0  0  0
   -1.9404    1.1619   -0.9204 H   0  0  0  0  0  0  0  0  0  0  0  0
   -1.8536    1.5178    0.8147 H   0  0  0  0  0  0  0  0  0  0  0  0
  1  2  1  0
  2  3  2  0
  3  4  1  0
  3  5  1  0
  5  6  2  0
  5  7  1  0
  7  8  1  0
  8  9  1  0
  9  2  1  0
  1 10  1  0
  1 11  1  0
  1 12  1  0
  4 13  1  0
  4 14  1  0
  4 15  1  0
  7 16  1  0
  7 17  1  0
  9 18  1  0
  9 19  1  0
M  END
