
     RDKit          3D

 21 22  0  0  0  0  0  0  0  0999 V2000
    2.5486    0.6882    0.8285 C   0  0  0  0  0  0  0  0  0  0  0  0
    1.3117    0.2438    0.0856 C   0  0  0  0  0  0  0  0  0  0  0  0
    0.4227    1.0722   -0.4424 C   0  0  0  0  0  0  0  0  0  0  0  0
   -0.6511    0.2948   -1.0894 C   0  0  0  0  0  0  0  0  0  0  0  0
   -1.9654    0.7812   -0.5452 C   0  0  0  0  0  0  0  0  0  0  0  0
   -2.1642   -0.0541    0.6550 C   0  0  0  0  0  0  0  0  0  0  0  0
   -1.3587   -1.1011    0.6776 C   0  0  0  0  0  0  0  0  0  0  0  0
   -0.4929   -1.1105   -0.5281 C   0  0  0  0  0  0  0  0  0  0  0  0
    0.9770   -1.1733   -0.1202 C   0  0  0  0  0  0  0  0  0  0  0  0
    3.3987    0.1821    0.3352 H   0  0  0  0  0  0  0  0  0  0  0  0
    2.3969    0.3544    1.8752 H   0  0  0  0  0  0  0  0  0  0  0  0
    2.6619    1.7894    0.7733 H   0  0  0  0  0  0  0  0  0  0  0  0
    0.5235    2.1724   -0.3760 H   0  0  0  0  0  0  0  0  0  0  0  0
   -0.6195    0.2994   -2.1845 H   0  0  0  0  0  0  0  0  0  0  0  0
   -2.7892    0.6466   -1.2791 H   0  0  0  0  0  0  0  0  0  0  0  0
   -1.8541    1.8588   -0.3221 H   0  0  0  0  0  0  0  0  0  0  0  0
   -2.9126    0.2033    1.4226 H   0  0  0  0  0  0  0  0  0  0  0  0
   -1.3350   -1.8391    1.4578 H   0  0  0  0  0  0  0  0  0  0  0  0
   -0.7379   -1.8929   -1.2491 H   0  0  0  0  0  0  0  0  0  0  0  0
    1.5982   -1.7034   -0.8342 H   0  0  0  0  0  0  0  0  0  0  0  0
    1.0412   -1.7123    0.8596 H   0  0  0  0  0  0  0  0  0  0  0  0
  1  2  1  0
  2  3  2  0
  3  4  1  0
  4  5  1  0
  5  6  1  0
  6  7  2  0
  7  8  1  0
  8  9  1  0
  9  2  1  0
  8  4  1  0
  1 10  1  0
  1 11  1  0
  1 12  1  0
  3 13  1  0
  4 14  1  0
  5 15  1  0
  5 16  1  0
  6 17  1  0
  7 18  1  0
  8 19  1  0
  9 20  1  0
  9 21  1  0
M  END
