
     RDKit          3D

 21 22  0  0  0  0  0  0  0  0999 V2000
    2.3505   -0.4324    0.7016 C   0  0  0  0  0  0  0  0  0  0  0  0
    1.1156   -0.0152   -0.0335 C   0  0  0  0  0  0  0  0  0  0  0  0
    0.4476   -0.8280   -0.8421 C   0  0  0  0  0  0  0  0  0  0  0  0
   -0.7154   -0.2558   -1.4633 C   0  0  0  0  0  0  0  0  0  0  0  0
   -2.0971   -0.2374   -1.1666 C   0  0  0  0  0  0  0  0  0  0  0  0
   -1.3281    0.4546   -0.1950 C   0  0  0  0  0  0  0  0  0  0  0  0
   -1.2000   -0.2627    1.1353 C   0  0  0  0  0  0  0  0  0  0  0  0
   -0.6602    1.6238   -0.1925 O   0  0  0  0  0  0  0  0  0  0  0  0
    0.6564    1.4056    0.1923 C   0  0  0  0  0  0  0  0  0  0  0  0
    2.3202   -1.5037    0.9685 H   0  0  0  0  0  0  0  0  0  0  0  0
    3.2177   -0.3028    0.0143 H   0  0  0  0  0  0  0  0  0  0  0  0
    2.5285    0.2032    1.5663 H   0  0  0  0  0  0  0  0  0  0  0  0
    0.7940   -1.8230   -0.9835 H   0  0  0  0  0  0  0  0  0  0  0  0
   -0.4034    0.4382   -2.3088 H   0  0  0  0  0  0  0  0  0  0  0  0
   -2.6083   -1.1871   -0.9160 H   0  0  0  0  0  0  0  0  0  0  0  0
   -2.7889    0.3817   -1.8082 H   0  0  0  0  0  0  0  0  0  0  0  0
   -1.0779   -1.3696    0.9880 H   0  0  0  0  0  0  0  0  0  0  0  0
   -2.2173   -0.1660    1.6215 H   0  0  0  0  0  0  0  0  0  0  0  0
   -0.4899    0.1708    1.8311 H   0  0  0  0  0  0  0  0  0  0  0  0
    1.3267    2.0903   -0.3760 H   0  0  0  0  0  0  0  0  0  0  0  0
    0.8290    1.6155    1.2667 H   0  0  0  0  0  0  0  0  0  0  0  0
  1  2  1  0
  2  3  2  0
  3  4  1  0
  4  5  1  0
  5  6  1  0
  6  7  1  0
  6  8  1  0
  8  9  1  0
  9  2  1  0
  6  4  1  0
  1 10  1  0
  1 11  1  0
  1 12  1  0
  3 13  1  0
  4 14  1  0
  5 15  1  0
  5 16  1  0
  7 17  1  0
  7 18  1  0
  7 19  1  0
  9 20  1  0
  9 21  1  0
M  END
