
     RDKit          3D

 19 19  0  0  0  0  0  0  0  0999 V2000
    2.6520    0.1086   -0.4718 C   0  0  0  0  0  0  0  0  0  0  0  0
    1.2178   -0.0374   -0.1045 C   0  0  0  0  0  0  0  0  0  0  0  0
    0.1840    0.7489   -0.3702 C   0  0  0  0  0  0  0  0  0  0  0  0
   -1.0122    0.1449    0.2231 C   0  0  0  0  0  0  0  0  0  0  0  0
   -2.0027   -0.3690   -0.7913 C   0  0  0  0  0  0  0  0  0  0  0  0
   -1.7383    1.1633    1.0468 C   0  0  0  0  0  0  0  0  0  0  0  0
   -1.8789    1.0382    2.2290 O   0  0  0  0  0  0  0  0  0  0  0  0
   -0.5786   -0.8815    1.0585 O   0  0  0  0  0  0  0  0  0  0  0  0
    0.7158   -1.2025    0.6868 C   0  0  0  0  0  0  0  0  0  0  0  0
    2.7253    0.9891   -1.1367 H   0  0  0  0  0  0  0  0  0  0  0  0
    3.0432   -0.7666   -1.0313 H   0  0  0  0  0  0  0  0  0  0  0  0
    3.2717    0.3051    0.4359 H   0  0  0  0  0  0  0  0  0  0  0  0
    0.2705    1.6654   -0.9321 H   0  0  0  0  0  0  0  0  0  0  0  0
   -2.3775    0.4905   -1.3823 H   0  0  0  0  0  0  0  0  0  0  0  0
   -2.8938   -0.7236   -0.1991 H   0  0  0  0  0  0  0  0  0  0  0  0
   -1.6125   -1.1958   -1.4080 H   0  0  0  0  0  0  0  0  0  0  0  0
   -2.1258    2.0179    0.4992 H   0  0  0  0  0  0  0  0  0  0  0  0
    1.3795   -1.3638    1.5613 H   0  0  0  0  0  0  0  0  0  0  0  0
    0.7607   -2.1318    0.0867 H   0  0  0  0  0  0  0  0  0  0  0  0
  1  2  1  0
  2  3  2  0
  3  4  1  0
  4  5  1  0
  4  6  1  0
  6  7  2  0
  4  8  1  0
  8  9  1  0
  9  2  1  0
  1 10  1  0
  1 11  1  0
  1 12  1  0
  3 13  1  0
  5 14  1  0
  5 15  1  0
  5 16  1  0
  6 17  1  0
  9 18  1  0
  9 19  1  0
M  END
