
     RDKit          3D

 17 17  0  0  0  0  0  0  0  0999 V2000
   -2.3150   -0.2588   -0.1149 C   0  0  0  0  0  0  0  0  0  0  0  0
   -0.8652   -0.1121    0.0417 C   0  0  0  0  0  0  0  0  0  0  0  0
   -0.1162   -0.1373   -1.0729 C   0  0  0  0  0  0  0  0  0  0  0  0
    1.3592    0.0061   -0.9827 C   0  0  0  0  0  0  0  0  0  0  0  0
    1.8875   -0.0770    0.4080 C   0  0  0  0  0  0  0  0  0  0  0  0
    0.9907   -0.7429    1.2726 O   0  0  0  0  0  0  0  0  0  0  0  0
   -0.1499    0.0615    1.3201 C   0  0  0  0  0  0  0  0  0  0  0  0
   -2.6925    0.6095   -0.6818 H   0  0  0  0  0  0  0  0  0  0  0  0
   -2.5405   -1.1566   -0.7530 H   0  0  0  0  0  0  0  0  0  0  0  0
   -2.8624   -0.2963    0.8317 H   0  0  0  0  0  0  0  0  0  0  0  0
   -0.5452   -0.2600   -2.0587 H   0  0  0  0  0  0  0  0  0  0  0  0
    1.8776   -0.7415   -1.6205 H   0  0  0  0  0  0  0  0  0  0  0  0
    1.6588    1.0076   -1.4065 H   0  0  0  0  0  0  0  0  0  0  0  0
    1.9691    0.9602    0.8326 H   0  0  0  0  0  0  0  0  0  0  0  0
    2.8858   -0.5834    0.4449 H   0  0  0  0  0  0  0  0  0  0  0  0
    0.2179    1.1285    1.3352 H   0  0  0  0  0  0  0  0  0  0  0  0
   -0.7597   -0.0961    2.2041 H   0  0  0  0  0  0  0  0  0  0  0  0
  1  2  1  0
  2  3  2  0
  3  4  1  0
  4  5  1  0
  5  6  1  0
  6  7  1  0
  7  2  1  0
  1  8  1  0
  1  9  1  0
  1 10  1  0
  3 11  1  0
  4 12  1  0
  4 13  1  0
  5 14  1  0
  5 15  1  0
  7 16  1  0
  7 17  1  0
M  END
