
     RDKit          3D

 18 19  0  0  0  0  0  0  0  0999 V2000
    2.1140   -0.1682   -0.3698 C   0  0  0  0  0  0  0  0  0  0  0  0
    0.6849    0.3168   -0.2100 C   0  0  0  0  0  0  0  0  0  0  0  0
    0.3792    1.5625    0.0880 C   0  0  0  0  0  0  0  0  0  0  0  0
   -1.0739    1.7883    0.1894 C   0  0  0  0  0  0  0  0  0  0  0  0
   -1.9543    1.4683   -0.8101 O   0  0  0  0  0  0  0  0  0  0  0  0
   -1.6501    0.4012    0.0463 C   0  0  0  0  0  0  0  0  0  0  0  0
   -0.5364   -0.4833   -0.3585 C   0  0  0  0  0  0  0  0  0  0  0  0
   -0.4850   -1.7890    0.3959 C   0  0  0  0  0  0  0  0  0  0  0  0
    2.8082    0.4653    0.2227 H   0  0  0  0  0  0  0  0  0  0  0  0
    2.4320   -0.0965   -1.4285 H   0  0  0  0  0  0  0  0  0  0  0  0
    2.1787   -1.1863    0.0128 H   0  0  0  0  0  0  0  0  0  0  0  0
    1.1499    2.3649    0.2471 H   0  0  0  0  0  0  0  0  0  0  0  0
   -1.4041    2.3911    1.0630 H   0  0  0  0  0  0  0  0  0  0  0  0
   -2.3956    0.0846    0.7965 H   0  0  0  0  0  0  0  0  0  0  0  0
   -0.6899   -0.7147   -1.4534 H   0  0  0  0  0  0  0  0  0  0  0  0
   -1.3080   -2.4268   -0.0417 H   0  0  0  0  0  0  0  0  0  0  0  0
    0.4621   -2.2799    0.1505 H   0  0  0  0  0  0  0  0  0  0  0  0
   -0.7118   -1.6984    1.4600 H   0  0  0  0  0  0  0  0  0  0  0  0
  1  2  1  0
  2  3  2  0
  3  4  1  0
  4  5  1  0
  5  6  1  0
  6  7  1  0
  7  8  1  0
  7  2  1  0
  6  4  1  0
  1  9  1  0
  1 10  1  0
  1 11  1  0
  3 12  1  0
  4 13  1  0
  6 14  1  0
  7 15  1  0
  8 16  1  0
  8 17  1  0
  8 18  1  0
M  END
