
     RDKit          2D

 21 23  0  0  0  0  0  0  0  0999 V2000
   -4.2413    0.0000    0.0000 C   0  0  0  0  0  0  0  0  0  0  0  0
   -2.7413    0.0000    0.0000 C   0  0  0  0  0  0  0  0  0  0  0  0
   -1.8596    1.2135    0.0000 C   0  0  0  0  0  0  0  0  0  0  0  0
    0.3285    1.4004    0.0000 C   0  0  0  0  0  0  0  0  0  0  0  0
    0.8660    0.0000    0.0000 C   0  0  0  0  0  0  0  0  0  0  0  0
   -0.4330    0.7500    0.0000 C   0  0  0  0  0  0  0  0  0  0  0  0
   -0.4330   -0.7500    0.0000 C   0  0  0  0  0  0  0  0  0  0  0  0
    0.1771   -2.1203    0.0000 C   0  0  0  0  0  0  0  0  0  0  0  0
   -1.8596   -1.2135    0.0000 C   0  0  0  0  0  0  0  0  0  0  0  0
   -5.7413    0.0000    0.0000 H   0  0  0  0  0  0  0  0  0  0  0  0
   -4.2413    1.5000    0.0000 H   0  0  0  0  0  0  0  0  0  0  0  0
   -4.2413   -1.5000    0.0000 H   0  0  0  0  0  0  0  0  0  0  0  0
    1.7288    1.9379    0.0000 H   0  0  0  0  0  0  0  0  0  0  0  0
   -0.0344    2.8558    0.0000 H   0  0  0  0  0  0  0  0  0  0  0  0
    2.3660    0.0000    0.0000 H   0  0  0  0  0  0  0  0  0  0  0  0
   -0.0224    1.4333    0.0000 H   0  0  0  0  0  0  0  0  0  0  0  0
    0.7872   -3.4906    0.0000 H   0  0  0  0  0  0  0  0  0  0  0  0
   -1.1086   -2.8929    0.0000 H   0  0  0  0  0  0  0  0  0  0  0  0
    1.5474   -1.5102    0.0000 H   0  0  0  0  0  0  0  0  0  0  0  0
   -3.1586   -1.9635    0.0000 H   0  0  0  0  0  0  0  0  0  0  0  0
   -1.4211   -2.6480    0.0000 H   0  0  0  0  0  0  0  0  0  0  0  0
  1  2  1  0
  2  3  2  0
  3  4  1  0
  4  5  1  0
  5  6  1  0
  6  7  1  0
  7  8  1  0
  7  9  1  0
  9  2  1  0
  6  3  1  0
  7  5  1  0
  1 10  1  0
  1 11  1  0
  1 12  1  0
  4 13  1  0
  4 14  1  0
  5 15  1  0
  6 16  1  0
  8 17  1  0
  8 18  1  0
  8 19  1  0
  9 20  1  0
  9 21  1  0
M  END
