
     RDKit          3D

 23 24  0  0  0  0  0  0  0  0999 V2000
   -2.5240    0.9485   -0.4464 C   0  0  0  0  0  0  0  0  0  0  0  0
   -1.2512    0.1870   -0.3110 C   0  0  0  0  0  0  0  0  0  0  0  0
   -0.5594   -0.4646   -1.2323 C   0  0  0  0  0  0  0  0  0  0  0  0
    0.4975   -1.3151   -0.6182 C   0  0  0  0  0  0  0  0  0  0  0  0
    1.8194   -0.5743   -0.5648 C   0  0  0  0  0  0  0  0  0  0  0  0
    1.5773    0.8441   -0.1520 C   0  0  0  0  0  0  0  0  0  0  0  0
    0.7027    0.9161    1.0472 C   0  0  0  0  0  0  0  0  0  0  0  0
   -0.5199    0.0368    0.9701 C   0  0  0  0  0  0  0  0  0  0  0  0
   -0.0150   -1.4002    0.8244 C   0  0  0  0  0  0  0  0  0  0  0  0
   -3.4214    0.2698   -0.3874 H   0  0  0  0  0  0  0  0  0  0  0  0
   -2.6029    1.4702   -1.4236 H   0  0  0  0  0  0  0  0  0  0  0  0
   -2.6387    1.6694    0.3696 H   0  0  0  0  0  0  0  0  0  0  0  0
   -0.7462   -0.3828   -2.2951 H   0  0  0  0  0  0  0  0  0  0  0  0
    0.5886   -2.3028   -1.0760 H   0  0  0  0  0  0  0  0  0  0  0  0
    2.4563   -1.0467    0.2224 H   0  0  0  0  0  0  0  0  0  0  0  0
    2.3535   -0.6697   -1.5190 H   0  0  0  0  0  0  0  0  0  0  0  0
    1.2374    1.4826   -0.9992 H   0  0  0  0  0  0  0  0  0  0  0  0
    2.5809    1.2684    0.1410 H   0  0  0  0  0  0  0  0  0  0  0  0
    0.4144    1.9789    1.2598 H   0  0  0  0  0  0  0  0  0  0  0  0
    1.2903    0.5868    1.9292 H   0  0  0  0  0  0  0  0  0  0  0  0
   -1.1268    0.1761    1.8578 H   0  0  0  0  0  0  0  0  0  0  0  0
   -0.8908   -2.0452    0.8727 H   0  0  0  0  0  0  0  0  0  0  0  0
    0.7781   -1.6333    1.5309 H   0  0  0  0  0  0  0  0  0  0  0  0
  1  2  1  0
  2  3  2  0
  3  4  1  0
  4  5  1  0
  5  6  1  0
  6  7  1  0
  7  8  1  0
  8  9  1  0
  8  2  1  0
  9  4  1  0
  1 10  1  0
  1 11  1  0
  1 12  1  0
  3 13  1  0
  4 14  1  0
  5 15  1  0
  5 16  1  0
  6 17  1  0
  6 18  1  0
  7 19  1  0
  7 20  1  0
  8 21  1  0
  9 22  1  0
  9 23  1  0
M  END
