
     RDKit          3D

 21 22  0  0  0  0  0  0  0  0999 V2000
   -1.1457    2.3012   -0.3765 C   0  0  0  0  0  0  0  0  0  0  0  0
   -0.5160    1.0219    0.0888 C   0  0  0  0  0  0  0  0  0  0  0  0
   -1.0742   -0.1491   -0.1557 C   0  0  0  0  0  0  0  0  0  0  0  0
   -1.8046   -1.4044   -0.4961 C   0  0  0  0  0  0  0  0  0  0  0  0
   -0.5000   -1.9735   -0.6085 O   0  0  0  0  0  0  0  0  0  0  0  0
   -0.2064   -1.2166    0.5045 C   0  0  0  0  0  0  0  0  0  0  0  0
    1.1384   -0.5701    0.6149 C   0  0  0  0  0  0  0  0  0  0  0  0
    2.0243   -0.7889   -0.5634 C   0  0  0  0  0  0  0  0  0  0  0  0
    0.7690    0.8909    0.8316 C   0  0  0  0  0  0  0  0  0  0  0  0
   -1.3487    2.1403   -1.4706 H   0  0  0  0  0  0  0  0  0  0  0  0
   -0.4991    3.1648   -0.1847 H   0  0  0  0  0  0  0  0  0  0  0  0
   -2.1480    2.3957    0.0977 H   0  0  0  0  0  0  0  0  0  0  0  0
   -2.3709   -1.3994   -1.4263 H   0  0  0  0  0  0  0  0  0  0  0  0
   -2.2947   -1.8580    0.3864 H   0  0  0  0  0  0  0  0  0  0  0  0
   -0.6580   -1.5973    1.4169 H   0  0  0  0  0  0  0  0  0  0  0  0
    1.6457   -0.9707    1.5134 H   0  0  0  0  0  0  0  0  0  0  0  0
    2.4983   -1.7898   -0.4521 H   0  0  0  0  0  0  0  0  0  0  0  0
    1.5014   -0.7394   -1.5394 H   0  0  0  0  0  0  0  0  0  0  0  0
    2.8517   -0.0561   -0.5571 H   0  0  0  0  0  0  0  0  0  0  0  0
    1.5680    1.5436    0.4672 H   0  0  0  0  0  0  0  0  0  0  0  0
    0.5693    1.0550    1.9090 H   0  0  0  0  0  0  0  0  0  0  0  0
  1  2  1  0
  2  3  2  0
  3  4  1  0
  4  5  1  0
  5  6  1  0
  6  7  1  0
  7  8  1  0
  7  9  1  0
  9  2  1  0
  6  3  1  0
  1 10  1  0
  1 11  1  0
  1 12  1  0
  4 13  1  0
  4 14  1  0
  6 15  1  0
  7 16  1  0
  8 17  1  0
  8 18  1  0
  8 19  1  0
  9 20  1  0
  9 21  1  0
M  END
