
     RDKit          3D

 21 21  0  0  0  0  0  0  0  0999 V2000
    3.0529   -0.1695   -0.2275 C   0  0  0  0  0  0  0  0  0  0  0  0
    1.5863   -0.0401   -0.0372 C   0  0  0  0  0  0  0  0  0  0  0  0
    0.8308   -1.0252   -0.5030 C   0  0  0  0  0  0  0  0  0  0  0  0
   -0.6389   -1.1724   -0.4607 C   0  0  0  0  0  0  0  0  0  0  0  0
   -1.4997   -0.2163   -0.1202 C   0  0  0  0  0  0  0  0  0  0  0  0
   -2.9468   -0.5774   -0.1440 C   0  0  0  0  0  0  0  0  0  0  0  0
   -1.2184    1.1818    0.2867 C   0  0  0  0  0  0  0  0  0  0  0  0
    0.0048    1.6439   -0.1364 O   0  0  0  0  0  0  0  0  0  0  0  0
    1.0598    1.1674    0.6537 C   0  0  0  0  0  0  0  0  0  0  0  0
    3.4117   -1.2145   -0.0521 H   0  0  0  0  0  0  0  0  0  0  0  0
    3.5732    0.4672    0.5354 H   0  0  0  0  0  0  0  0  0  0  0  0
    3.3840    0.2174   -1.2167 H   0  0  0  0  0  0  0  0  0  0  0  0
    1.3581   -1.8547   -0.9913 H   0  0  0  0  0  0  0  0  0  0  0  0
   -1.0609   -2.1245   -0.7242 H   0  0  0  0  0  0  0  0  0  0  0  0
   -3.0308   -1.4600   -0.8155 H   0  0  0  0  0  0  0  0  0  0  0  0
   -3.2855   -0.9323    0.8678 H   0  0  0  0  0  0  0  0  0  0  0  0
   -3.5745    0.2311   -0.5206 H   0  0  0  0  0  0  0  0  0  0  0  0
   -1.9962    1.8199   -0.2259 H   0  0  0  0  0  0  0  0  0  0  0  0
   -1.3964    1.3510    1.3760 H   0  0  0  0  0  0  0  0  0  0  0  0
    1.8156    1.9206    0.8625 H   0  0  0  0  0  0  0  0  0  0  0  0
    0.5709    0.7865    1.5932 H   0  0  0  0  0  0  0  0  0  0  0  0
  1  2  1  0
  2  3  2  0
  3  4  1  0
  4  5  2  0
  5  6  1  0
  5  7  1  0
  7  8  1  0
  8  9  1  0
  9  2  1  0
  1 10  1  0
  1 11  1  0
  1 12  1  0
  3 13  1  0
  4 14  1  0
  6 15  1  0
  6 16  1  0
  6 17  1  0
  7 18  1  0
  7 19  1  0
  9 20  1  0
  9 21  1  0
M  END
