
     RDKit          3D

 23 24  0  0  0  0  0  0  0  0999 V2000
    2.6529   -0.2629   -0.1189 C   0  0  0  0  0  0  0  0  0  0  0  0
    1.1702   -0.2827   -0.1774 C   0  0  0  0  0  0  0  0  0  0  0  0
    0.2647    0.5548    0.3391 C   0  0  0  0  0  0  0  0  0  0  0  0
    0.4604    1.8065    1.1185 C   0  0  0  0  0  0  0  0  0  0  0  0
   -1.0199   -0.0684   -0.0547 C   0  0  0  0  0  0  0  0  0  0  0  0
   -2.2794    0.4968    0.3192 C   0  0  0  0  0  0  0  0  0  0  0  0
   -0.7381   -0.4362   -1.5028 C   0  0  0  0  0  0  0  0  0  0  0  0
    0.3243   -1.2971   -0.8629 C   0  0  0  0  0  0  0  0  0  0  0  0
   -0.7246   -1.5379    0.2355 C   0  0  0  0  0  0  0  0  0  0  0  0
    3.0655   -1.0027    0.5989 H   0  0  0  0  0  0  0  0  0  0  0  0
    2.9521    0.7463    0.2286 H   0  0  0  0  0  0  0  0  0  0  0  0
    3.0333   -0.5166   -1.1121 H   0  0  0  0  0  0  0  0  0  0  0  0
    1.4172    2.3204    0.8658 H   0  0  0  0  0  0  0  0  0  0  0  0
    0.5040    1.6048    2.2077 H   0  0  0  0  0  0  0  0  0  0  0  0
   -0.3448    2.5291    0.8571 H   0  0  0  0  0  0  0  0  0  0  0  0
   -2.1972    1.5890    0.4891 H   0  0  0  0  0  0  0  0  0  0  0  0
   -3.0413    0.3486   -0.4682 H   0  0  0  0  0  0  0  0  0  0  0  0
   -2.6602    0.0286    1.2554 H   0  0  0  0  0  0  0  0  0  0  0  0
   -0.3771    0.4564   -2.0315 H   0  0  0  0  0  0  0  0  0  0  0  0
   -1.4938   -1.0534   -1.9869 H   0  0  0  0  0  0  0  0  0  0  0  0
    0.7392   -2.1151   -1.3573 H   0  0  0  0  0  0  0  0  0  0  0  0
   -0.1921   -1.6756    1.1855 H   0  0  0  0  0  0  0  0  0  0  0  0
   -1.5152   -2.2327   -0.0275 H   0  0  0  0  0  0  0  0  0  0  0  0
  1  2  1  0
  2  3  2  0
  3  4  1  0
  3  5  1  0
  5  6  1  0
  5  7  1  0
  7  8  1  0
  8  9  1  0
  8  2  1  0
  9  5  1  0
  1 10  1  0
  1 11  1  0
  1 12  1  0
  4 13  1  0
  4 14  1  0
  4 15  1  0
  6 16  1  0
  6 17  1  0
  6 18  1  0
  7 19  1  0
  7 20  1  0
  8 21  1  0
  9 22  1  0
  9 23  1  0
M  END
