
     RDKit          3D

 19 21  0  0  0  0  0  0  0  0999 V2000
    2.4620    0.1091   -0.4344 C   0  0  0  0  0  0  0  0  0  0  0  0
    1.0337   -0.0386    0.0308 C   0  0  0  0  0  0  0  0  0  0  0  0
    0.6666   -0.2864    1.2747 C   0  0  0  0  0  0  0  0  0  0  0  0
   -0.8023   -0.3747    1.4125 C   0  0  0  0  0  0  0  0  0  0  0  0
   -1.3051   -0.1013    0.0356 C   0  0  0  0  0  0  0  0  0  0  0  0
   -1.6079    1.3074   -0.3981 C   0  0  0  0  0  0  0  0  0  0  0  0
   -0.5365    1.3233   -1.2715 O   0  0  0  0  0  0  0  0  0  0  0  0
   -0.1246    0.0769   -0.8521 C   0  0  0  0  0  0  0  0  0  0  0  0
   -0.9657   -1.1278   -1.0510 C   0  0  0  0  0  0  0  0  0  0  0  0
    2.5461   -0.5302   -1.3340 H   0  0  0  0  0  0  0  0  0  0  0  0
    2.6943    1.1662   -0.6494 H   0  0  0  0  0  0  0  0  0  0  0  0
    3.1710   -0.2621    0.3186 H   0  0  0  0  0  0  0  0  0  0  0  0
    1.3537   -0.4139    2.1150 H   0  0  0  0  0  0  0  0  0  0  0  0
   -1.0689   -1.4030    1.7579 H   0  0  0  0  0  0  0  0  0  0  0  0
   -1.2124    0.3998    2.0894 H   0  0  0  0  0  0  0  0  0  0  0  0
   -1.4827    2.0045    0.4525 H   0  0  0  0  0  0  0  0  0  0  0  0
   -2.5564    1.3791   -0.9576 H   0  0  0  0  0  0  0  0  0  0  0  0
   -1.7183   -1.1544   -1.8497 H   0  0  0  0  0  0  0  0  0  0  0  0
   -0.5467   -2.0740   -0.6891 H   0  0  0  0  0  0  0  0  0  0  0  0
  1  2  1  0
  2  3  2  0
  3  4  1  0
  4  5  1  0
  5  6  1  0
  6  7  1  0
  7  8  1  0
  8  9  1  0
  8  2  1  0
  8  5  1  0
  9  5  1  0
  1 10  1  0
  1 11  1  0
  1 12  1  0
  3 13  1  0
  4 14  1  0
  4 15  1  0
  6 16  1  0
  6 17  1  0
  9 18  1  0
  9 19  1  0
M  END
