
     RDKit          3D

 21 23  0  0  0  0  0  0  0  0999 V2000
    2.7451    0.0751    0.5752 C   0  0  0  0  0  0  0  0  0  0  0  0
    1.2973    0.1713    0.1794 C   0  0  0  0  0  0  0  0  0  0  0  0
    0.3814    0.9083    0.7917 C   0  0  0  0  0  0  0  0  0  0  0  0
   -0.9367    0.8018    0.1837 C   0  0  0  0  0  0  0  0  0  0  0  0
   -2.0110   -0.0312    0.8806 C   0  0  0  0  0  0  0  0  0  0  0  0
   -1.4753   -1.2010    0.0860 C   0  0  0  0  0  0  0  0  0  0  0  0
   -0.7549   -0.3276   -0.8802 C   0  0  0  0  0  0  0  0  0  0  0  0
    0.7335   -0.5624   -0.9598 C   0  0  0  0  0  0  0  0  0  0  0  0
   -1.2063    1.0260   -1.2492 C   0  0  0  0  0  0  0  0  0  0  0  0
    3.4019    0.0145   -0.3172 H   0  0  0  0  0  0  0  0  0  0  0  0
    3.0645    0.9725    1.1465 H   0  0  0  0  0  0  0  0  0  0  0  0
    2.9029   -0.8565    1.1596 H   0  0  0  0  0  0  0  0  0  0  0  0
    0.6117    1.5181    1.6524 H   0  0  0  0  0  0  0  0  0  0  0  0
   -3.0281    0.2211    0.5080 H   0  0  0  0  0  0  0  0  0  0  0  0
   -1.9207   -0.0981    1.9627 H   0  0  0  0  0  0  0  0  0  0  0  0
   -2.2365   -1.8815   -0.3259 H   0  0  0  0  0  0  0  0  0  0  0  0
   -0.7981   -1.8006    0.7627 H   0  0  0  0  0  0  0  0  0  0  0  0
    1.1192   -0.1974   -1.9331 H   0  0  0  0  0  0  0  0  0  0  0  0
    0.9110   -1.6547   -0.9327 H   0  0  0  0  0  0  0  0  0  0  0  0
   -0.5158    1.6599   -1.8074 H   0  0  0  0  0  0  0  0  0  0  0  0
   -2.2851    1.2424   -1.4829 H   0  0  0  0  0  0  0  0  0  0  0  0
  1  2  1  0
  2  3  2  0
  3  4  1  0
  4  5  1  0
  5  6  1  0
  6  7  1  0
  7  8  1  0
  7  9  1  0
  8  2  1  0
  7  4  1  0
  9  4  1  0
  1 10  1  0
  1 11  1  0
  1 12  1  0
  3 13  1  0
  5 14  1  0
  5 15  1  0
  6 16  1  0
  6 17  1  0
  8 18  1  0
  8 19  1  0
  9 20  1  0
  9 21  1  0
M  END
