
     RDKit          3D

 21 22  0  0  0  0  0  0  0  0999 V2000
    2.5884    0.4032    0.1944 C   0  0  0  0  0  0  0  0  0  0  0  0
    1.1472    0.1953   -0.1286 C   0  0  0  0  0  0  0  0  0  0  0  0
    0.7493   -0.5314   -1.1919 C   0  0  0  0  0  0  0  0  0  0  0  0
   -0.7244   -0.6181   -1.0713 C   0  0  0  0  0  0  0  0  0  0  0  0
   -1.0225   -1.3862    0.1966 C   0  0  0  0  0  0  0  0  0  0  0  0
   -0.7663   -0.3954    1.3365 C   0  0  0  0  0  0  0  0  0  0  0  0
   -0.0559    0.7082    0.6009 C   0  0  0  0  0  0  0  0  0  0  0  0
   -1.0268    0.8131   -0.5941 C   0  0  0  0  0  0  0  0  0  0  0  0
   -2.3282    0.9236   -0.1799 O   0  0  0  0  0  0  0  0  0  0  0  0
    3.0418    0.8457   -0.7372 H   0  0  0  0  0  0  0  0  0  0  0  0
    2.6649    1.1791    0.9960 H   0  0  0  0  0  0  0  0  0  0  0  0
    3.1011   -0.5411    0.4706 H   0  0  0  0  0  0  0  0  0  0  0  0
    1.3469   -0.9627   -1.9675 H   0  0  0  0  0  0  0  0  0  0  0  0
   -1.2630   -0.9121   -1.9404 H   0  0  0  0  0  0  0  0  0  0  0  0
   -2.0532   -1.7666    0.2137 H   0  0  0  0  0  0  0  0  0  0  0  0
   -0.2509   -2.1767    0.3021 H   0  0  0  0  0  0  0  0  0  0  0  0
   -1.7655    0.0041    1.6284 H   0  0  0  0  0  0  0  0  0  0  0  0
   -0.2013   -0.8326    2.1521 H   0  0  0  0  0  0  0  0  0  0  0  0
    0.0812    1.6250    1.1240 H   0  0  0  0  0  0  0  0  0  0  0  0
   -0.6814    1.5649   -1.2973 H   0  0  0  0  0  0  0  0  0  0  0  0
   -2.5814    1.8606   -0.1070 H   0  0  0  0  0  0  0  0  0  0  0  0
  1  2  1  0
  2  3  2  0
  3  4  1  0
  4  5  1  0
  5  6  1  0
  6  7  1  0
  7  8  1  0
  8  9  1  0
  7  2  1  0
  8  4  1  0
  1 10  1  0
  1 11  1  0
  1 12  1  0
  3 13  1  0
  4 14  1  0
  5 15  1  0
  5 16  1  0
  6 17  1  0
  6 18  1  0
  7 19  1  0
  8 20  1  0
  9 21  1  0
M  END
