
     RDKit          3D

 21 22  0  0  0  0  0  0  0  0999 V2000
   -1.5927   -1.4497   -0.3080 C   0  0  0  0  0  0  0  0  0  0  0  0
   -0.2681   -0.8193   -0.0883 C   0  0  0  0  0  0  0  0  0  0  0  0
    0.8005   -1.5973   -0.1643 C   0  0  0  0  0  0  0  0  0  0  0  0
    2.1218   -0.9453    0.0593 C   0  0  0  0  0  0  0  0  0  0  0  0
    1.9843   -0.0657    1.0993 O   0  0  0  0  0  0  0  0  0  0  0  0
    1.2257    1.0152    0.6673 C   0  0  0  0  0  0  0  0  0  0  0  0
   -0.1429    0.6267    0.2057 C   0  0  0  0  0  0  0  0  0  0  0  0
   -1.3519    1.3721    0.6005 C   0  0  0  0  0  0  0  0  0  0  0  0
   -0.7782    1.6153   -0.7517 C   0  0  0  0  0  0  0  0  0  0  0  0
   -1.4671   -2.3303   -0.9631 H   0  0  0  0  0  0  0  0  0  0  0  0
   -2.3578   -0.7434   -0.6816 H   0  0  0  0  0  0  0  0  0  0  0  0
   -1.8999   -1.8718    0.6927 H   0  0  0  0  0  0  0  0  0  0  0  0
    0.7212   -2.6743   -0.3819 H   0  0  0  0  0  0  0  0  0  0  0  0
    2.8568   -1.7476    0.2297 H   0  0  0  0  0  0  0  0  0  0  0  0
    2.4113   -0.4357   -0.8898 H   0  0  0  0  0  0  0  0  0  0  0  0
    1.7639    1.4279   -0.2356 H   0  0  0  0  0  0  0  0  0  0  0  0
    1.2067    1.8088    1.4105 H   0  0  0  0  0  0  0  0  0  0  0  0
   -1.3121    2.1732    1.3802 H   0  0  0  0  0  0  0  0  0  0  0  0
   -2.2993    0.7980    0.6473 H   0  0  0  0  0  0  0  0  0  0  0  0
   -0.2999    2.6043   -0.8893 H   0  0  0  0  0  0  0  0  0  0  0  0
   -1.3222    1.2390   -1.6390 H   0  0  0  0  0  0  0  0  0  0  0  0
  1  2  1  0
  2  3  2  0
  3  4  1  0
  4  5  1  0
  5  6  1  0
  6  7  1  0
  7  8  1  0
  8  9  1  0
  7  2  1  0
  9  7  1  0
  1 10  1  0
  1 11  1  0
  1 12  1  0
  3 13  1  0
  4 14  1  0
  4 15  1  0
  6 16  1  0
  6 17  1  0
  8 18  1  0
  8 19  1  0
  9 20  1  0
  9 21  1  0
M  END
