
     RDKit          3D

 23 23  0  0  0  0  0  0  0  0999 V2000
   -2.2246   -1.1482   -0.1160 C   0  0  0  0  0  0  0  0  0  0  0  0
   -0.7854   -0.7939    0.0341 C   0  0  0  0  0  0  0  0  0  0  0  0
    0.1706   -1.6138   -0.3845 C   0  0  0  0  0  0  0  0  0  0  0  0
    1.6034   -1.2367   -0.2230 C   0  0  0  0  0  0  0  0  0  0  0  0
    1.8116    0.2291   -0.3572 C   0  0  0  0  0  0  0  0  0  0  0  0
    3.1080    0.5021    0.1421 O   0  0  0  0  0  0  0  0  0  0  0  0
    0.8186    1.1027    0.2898 C   0  0  0  0  0  0  0  0  0  0  0  0
   -0.4783    0.4982    0.6636 C   0  0  0  0  0  0  0  0  0  0  0  0
   -1.6117    1.4986    0.4027 C   0  0  0  0  0  0  0  0  0  0  0  0
   -2.6917   -0.3178   -0.6901 H   0  0  0  0  0  0  0  0  0  0  0  0
   -2.7250   -1.1777    0.8897 H   0  0  0  0  0  0  0  0  0  0  0  0
   -2.3666   -2.1253   -0.6347 H   0  0  0  0  0  0  0  0  0  0  0  0
   -0.0766   -2.5503   -0.8404 H   0  0  0  0  0  0  0  0  0  0  0  0
    1.9784   -1.5921    0.7708 H   0  0  0  0  0  0  0  0  0  0  0  0
    2.1951   -1.7700   -1.0062 H   0  0  0  0  0  0  0  0  0  0  0  0
    1.8665    0.4554   -1.4586 H   0  0  0  0  0  0  0  0  0  0  0  0
    3.6708    0.9519   -0.5104 H   0  0  0  0  0  0  0  0  0  0  0  0
    1.2731    1.5477    1.2055 H   0  0  0  0  0  0  0  0  0  0  0  0
    0.6221    1.9935   -0.3781 H   0  0  0  0  0  0  0  0  0  0  0  0
   -0.5223    0.3215    1.7790 H   0  0  0  0  0  0  0  0  0  0  0  0
   -2.5305    1.1870    0.9446 H   0  0  0  0  0  0  0  0  0  0  0  0
   -1.8413    1.5645   -0.6663 H   0  0  0  0  0  0  0  0  0  0  0  0
   -1.2639    2.4737    0.8144 H   0  0  0  0  0  0  0  0  0  0  0  0
  1  2  1  0
  2  3  2  0
  3  4  1  0
  4  5  1  0
  5  6  1  0
  5  7  1  0
  7  8  1  0
  8  9  1  0
  8  2  1  0
  1 10  1  0
  1 11  1  0
  1 12  1  0
  3 13  1  0
  4 14  1  0
  4 15  1  0
  5 16  1  0
  6 17  1  0
  7 18  1  0
  7 19  1  0
  8 20  1  0
  9 21  1  0
  9 22  1  0
  9 23  1  0
M  END
