
     RDKit          3D

 19 20  0  0  0  0  0  0  0  0999 V2000
    2.3036    0.1648   -0.2774 C   0  0  0  0  0  0  0  0  0  0  0  0
    0.9127   -0.2566    0.0041 C   0  0  0  0  0  0  0  0  0  0  0  0
    0.2400   -1.1019   -0.7658 C   0  0  0  0  0  0  0  0  0  0  0  0
   -1.1424   -1.2514   -0.1167 C   0  0  0  0  0  0  0  0  0  0  0  0
   -1.2317    0.2072    0.2451 C   0  0  0  0  0  0  0  0  0  0  0  0
   -1.1139    0.9752   -1.0370 C   0  0  0  0  0  0  0  0  0  0  0  0
   -2.1017    1.0613   -1.7172 O   0  0  0  0  0  0  0  0  0  0  0  0
   -0.9994    0.9517    1.3985 C   0  0  0  0  0  0  0  0  0  0  0  0
    0.0731    0.0974    1.1103 C   0  0  0  0  0  0  0  0  0  0  0  0
    2.4174    0.2665   -1.3639 H   0  0  0  0  0  0  0  0  0  0  0  0
    2.5915    1.0847    0.2729 H   0  0  0  0  0  0  0  0  0  0  0  0
    3.0297   -0.6344    0.0449 H   0  0  0  0  0  0  0  0  0  0  0  0
    0.5364   -1.6163   -1.6725 H   0  0  0  0  0  0  0  0  0  0  0  0
   -1.1045   -1.9415    0.7183 H   0  0  0  0  0  0  0  0  0  0  0  0
   -1.8447   -1.5044   -0.9269 H   0  0  0  0  0  0  0  0  0  0  0  0
   -0.2103    1.4452   -1.3760 H   0  0  0  0  0  0  0  0  0  0  0  0
   -1.6595    0.7753    2.2896 H   0  0  0  0  0  0  0  0  0  0  0  0
   -0.8196    2.0640    1.3304 H   0  0  0  0  0  0  0  0  0  0  0  0
    0.1230   -0.7865    1.8393 H   0  0  0  0  0  0  0  0  0  0  0  0
  1  2  1  0
  2  3  2  0
  3  4  1  0
  4  5  1  0
  5  6  1  0
  6  7  2  0
  5  8  1  0
  8  9  1  0
  9  2  1  0
  9  5  1  0
  1 10  1  0
  1 11  1  0
  1 12  1  0
  3 13  1  0
  4 14  1  0
  4 15  1  0
  6 16  1  0
  8 17  1  0
  8 18  1  0
  9 19  1  0
M  END
