
     RDKit          3D

 21 22  0  0  0  0  0  0  0  0999 V2000
    2.1305    0.7458   -0.4574 C   0  0  0  0  0  0  0  0  0  0  0  0
    0.9067   -0.1072   -0.3650 C   0  0  0  0  0  0  0  0  0  0  0  0
    0.7853   -1.2682   -1.0022 C   0  0  0  0  0  0  0  0  0  0  0  0
   -0.5553   -1.8885   -0.7123 C   0  0  0  0  0  0  0  0  0  0  0  0
   -1.1731   -1.0689    0.3567 C   0  0  0  0  0  0  0  0  0  0  0  0
   -0.5175   -0.6860    1.6045 C   0  0  0  0  0  0  0  0  0  0  0  0
   -0.3102    0.1680    0.4024 C   0  0  0  0  0  0  0  0  0  0  0  0
   -1.0713    1.4468    0.2251 C   0  0  0  0  0  0  0  0  0  0  0  0
   -0.3464    2.5767    0.5080 O   0  0  0  0  0  0  0  0  0  0  0  0
    2.8754    0.4697    0.3263 H   0  0  0  0  0  0  0  0  0  0  0  0
    1.8937    1.8074   -0.3106 H   0  0  0  0  0  0  0  0  0  0  0  0
    2.6555    0.5631   -1.4324 H   0  0  0  0  0  0  0  0  0  0  0  0
    1.5532   -1.7110   -1.6474 H   0  0  0  0  0  0  0  0  0  0  0  0
   -0.4765   -2.9603   -0.5100 H   0  0  0  0  0  0  0  0  0  0  0  0
   -1.1427   -1.7719   -1.6454 H   0  0  0  0  0  0  0  0  0  0  0  0
   -2.2744   -0.9591    0.3157 H   0  0  0  0  0  0  0  0  0  0  0  0
   -1.1216   -0.2491    2.3988 H   0  0  0  0  0  0  0  0  0  0  0  0
    0.3153   -1.3162    1.9648 H   0  0  0  0  0  0  0  0  0  0  0  0
   -1.4054    1.4963   -0.8465 H   0  0  0  0  0  0  0  0  0  0  0  0
   -2.0045    1.3602    0.8418 H   0  0  0  0  0  0  0  0  0  0  0  0
   -0.7167    3.3524   -0.0149 H   0  0  0  0  0  0  0  0  0  0  0  0
  1  2  1  0
  2  3  2  0
  3  4  1  0
  4  5  1  0
  5  6  1  0
  6  7  1  0
  7  8  1  0
  8  9  1  0
  7  2  1  0
  7  5  1  0
  1 10  1  0
  1 11  1  0
  1 12  1  0
  3 13  1  0
  4 14  1  0
  4 15  1  0
  5 16  1  0
  6 17  1  0
  6 18  1  0
  8 19  1  0
  8 20  1  0
  9 21  1  0
M  END
