
     RDKit          3D

 21 21  0  0  0  0  0  0  0  0999 V2000
    2.4424    0.4888    0.6208 C   0  0  0  0  0  0  0  0  0  0  0  0
    1.1417   -0.0137    0.1109 C   0  0  0  0  0  0  0  0  0  0  0  0
    0.0491    0.6685   -0.1947 C   0  0  0  0  0  0  0  0  0  0  0  0
   -0.0582    2.1378   -0.0687 C   0  0  0  0  0  0  0  0  0  0  0  0
   -1.1288    2.7083   -0.3790 O   0  0  0  0  0  0  0  0  0  0  0  0
   -0.9860   -0.2647   -0.6599 C   0  0  0  0  0  0  0  0  0  0  0  0
   -2.3815    0.1878   -0.3895 C   0  0  0  0  0  0  0  0  0  0  0  0
   -0.6151   -1.5329    0.0785 C   0  0  0  0  0  0  0  0  0  0  0  0
    0.9054   -1.4795   -0.1345 C   0  0  0  0  0  0  0  0  0  0  0  0
    2.7223   -0.1651    1.4709 H   0  0  0  0  0  0  0  0  0  0  0  0
    2.3347    1.5170    1.0348 H   0  0  0  0  0  0  0  0  0  0  0  0
    3.2033    0.4579   -0.1965 H   0  0  0  0  0  0  0  0  0  0  0  0
    0.7574    2.7299    0.2819 H   0  0  0  0  0  0  0  0  0  0  0  0
   -0.8063   -0.4656   -1.7438 H   0  0  0  0  0  0  0  0  0  0  0  0
   -3.0678   -0.6368   -0.6775 H   0  0  0  0  0  0  0  0  0  0  0  0
   -2.5021    0.3950    0.6718 H   0  0  0  0  0  0  0  0  0  0  0  0
   -2.6049    1.0296   -1.0627 H   0  0  0  0  0  0  0  0  0  0  0  0
   -0.8504   -1.4714    1.1602 H   0  0  0  0  0  0  0  0  0  0  0  0
   -1.0550   -2.4381   -0.3599 H   0  0  0  0  0  0  0  0  0  0  0  0
    1.4392   -2.1136    0.5721 H   0  0  0  0  0  0  0  0  0  0  0  0
    1.0606   -1.7391   -1.2014 H   0  0  0  0  0  0  0  0  0  0  0  0
  1  2  1  0
  2  3  2  0
  3  4  1  0
  4  5  2  0
  3  6  1  0
  6  7  1  0
  6  8  1  0
  8  9  1  0
  9  2  1  0
  1 10  1  0
  1 11  1  0
  1 12  1  0
  4 13  1  0
  6 14  1  0
  7 15  1  0
  7 16  1  0
  7 17  1  0
  8 18  1  0
  8 19  1  0
  9 20  1  0
  9 21  1  0
M  END
