
     RDKit          3D

 20 20  0  0  0  0  0  0  0  0999 V2000
    2.3158   -0.8140    0.2844 C   0  0  0  0  0  0  0  0  0  0  0  0
    0.9601   -0.2963   -0.0528 C   0  0  0  0  0  0  0  0  0  0  0  0
   -0.0125   -1.1937   -0.1557 C   0  0  0  0  0  0  0  0  0  0  0  0
   -1.3586   -0.5952   -0.4994 C   0  0  0  0  0  0  0  0  0  0  0  0
   -2.3715   -1.5132   -0.3608 O   0  0  0  0  0  0  0  0  0  0  0  0
   -1.4916    0.5388    0.5303 C   0  0  0  0  0  0  0  0  0  0  0  0
   -0.6107    1.6565    0.0164 C   0  0  0  0  0  0  0  0  0  0  0  0
    0.7665    1.1562   -0.2548 C   0  0  0  0  0  0  0  0  0  0  0  0
    2.8408   -0.0068    0.8360 H   0  0  0  0  0  0  0  0  0  0  0  0
    2.8591   -0.9834   -0.6615 H   0  0  0  0  0  0  0  0  0  0  0  0
    2.2373   -1.7457    0.8560 H   0  0  0  0  0  0  0  0  0  0  0  0
    0.1226   -2.2557   -0.0117 H   0  0  0  0  0  0  0  0  0  0  0  0
   -1.2689   -0.1666   -1.5058 H   0  0  0  0  0  0  0  0  0  0  0  0
   -2.0696   -2.3615    0.0054 H   0  0  0  0  0  0  0  0  0  0  0  0
   -2.5595    0.8186    0.5507 H   0  0  0  0  0  0  0  0  0  0  0  0
   -1.1319    0.1539    1.5128 H   0  0  0  0  0  0  0  0  0  0  0  0
   -0.6208    2.5345    0.7211 H   0  0  0  0  0  0  0  0  0  0  0  0
   -1.1105    2.0181   -0.9302 H   0  0  0  0  0  0  0  0  0  0  0  0
    1.0213    1.3857   -1.3179 H   0  0  0  0  0  0  0  0  0  0  0  0
    1.4824    1.6698    0.4376 H   0  0  0  0  0  0  0  0  0  0  0  0
  1  2  1  0
  2  3  2  0
  3  4  1  0
  4  5  1  0
  4  6  1  0
  6  7  1  0
  7  8  1  0
  8  2  1  0
  1  9  1  0
  1 10  1  0
  1 11  1  0
  3 12  1  0
  4 13  1  0
  5 14  1  0
  6 15  1  0
  6 16  1  0
  7 17  1  0
  7 18  1  0
  8 19  1  0
  8 20  1  0
M  END
