
     RDKit          3D

 19 20  0  0  0  0  0  0  0  0999 V2000
    2.5987   -0.5361   -0.7072 C   0  0  0  0  0  0  0  0  0  0  0  0
    1.2810   -0.0927   -0.1943 C   0  0  0  0  0  0  0  0  0  0  0  0
    0.1359   -0.1090   -0.8541 C   0  0  0  0  0  0  0  0  0  0  0  0
   -0.8711    0.4149    0.0470 C   0  0  0  0  0  0  0  0  0  0  0  0
   -1.7711   -0.6678    0.5825 C   0  0  0  0  0  0  0  0  0  0  0  0
   -2.5853   -0.4693   -0.5428 O   0  0  0  0  0  0  0  0  0  0  0  0
   -2.1643    0.8798   -0.5061 C   0  0  0  0  0  0  0  0  0  0  0  0
   -0.2308    1.1955    0.9724 O   0  0  0  0  0  0  0  0  0  0  0  0
    0.9645    0.4662    1.1738 C   0  0  0  0  0  0  0  0  0  0  0  0
    2.4492   -1.5559   -1.1348 H   0  0  0  0  0  0  0  0  0  0  0  0
    2.9875    0.1846   -1.4522 H   0  0  0  0  0  0  0  0  0  0  0  0
    3.2667   -0.6509    0.1692 H   0  0  0  0  0  0  0  0  0  0  0  0
   -0.0082   -0.4469   -1.8615 H   0  0  0  0  0  0  0  0  0  0  0  0
   -2.2748   -0.4743    1.5266 H   0  0  0  0  0  0  0  0  0  0  0  0
   -1.2936   -1.6878    0.5243 H   0  0  0  0  0  0  0  0  0  0  0  0
   -2.1791    1.3938   -1.4662 H   0  0  0  0  0  0  0  0  0  0  0  0
   -2.7686    1.3874    0.2942 H   0  0  0  0  0  0  0  0  0  0  0  0
    1.7645    1.1102    1.5464 H   0  0  0  0  0  0  0  0  0  0  0  0
    0.6989   -0.3418    1.8828 H   0  0  0  0  0  0  0  0  0  0  0  0
  1  2  1  0
  2  3  2  0
  3  4  1  0
  4  5  1  0
  5  6  1  0
  6  7  1  0
  4  8  1  0
  8  9  1  0
  9  2  1  0
  7  4  1  0
  1 10  1  0
  1 11  1  0
  1 12  1  0
  3 13  1  0
  5 14  1  0
  5 15  1  0
  7 16  1  0
  7 17  1  0
  9 18  1  0
  9 19  1  0
M  END
