
     RDKit          3D

 21 21  0  0  0  0  0  0  0  0999 V2000
    2.1357   -1.0622   -0.4607 C   0  0  0  0  0  0  0  0  0  0  0  0
    1.0401   -0.1856    0.0405 C   0  0  0  0  0  0  0  0  0  0  0  0
   -0.1619   -0.6186   -0.3612 C   0  0  0  0  0  0  0  0  0  0  0  0
   -1.5141   -0.0661   -0.1038 C   0  0  0  0  0  0  0  0  0  0  0  0
   -2.2735   -1.0702    0.7214 C   0  0  0  0  0  0  0  0  0  0  0  0
   -1.3692    1.1552    0.5087 O   0  0  0  0  0  0  0  0  0  0  0  0
   -0.4139    1.8828   -0.2162 C   0  0  0  0  0  0  0  0  0  0  0  0
    0.7276    2.1396    0.5240 O   0  0  0  0  0  0  0  0  0  0  0  0
    1.3985    0.9796    0.8672 C   0  0  0  0  0  0  0  0  0  0  0  0
    1.9111   -1.3686   -1.5211 H   0  0  0  0  0  0  0  0  0  0  0  0
    2.1814   -1.9364    0.1995 H   0  0  0  0  0  0  0  0  0  0  0  0
    3.0691   -0.4564   -0.4458 H   0  0  0  0  0  0  0  0  0  0  0  0
   -0.1802   -1.5122   -0.9725 H   0  0  0  0  0  0  0  0  0  0  0  0
   -2.0732    0.1066   -1.0563 H   0  0  0  0  0  0  0  0  0  0  0  0
   -2.3384   -2.0034    0.0978 H   0  0  0  0  0  0  0  0  0  0  0  0
   -1.6995   -1.3418    1.6123 H   0  0  0  0  0  0  0  0  0  0  0  0
   -3.3074   -0.7542    0.9518 H   0  0  0  0  0  0  0  0  0  0  0  0
   -0.0808    1.3269   -1.1280 H   0  0  0  0  0  0  0  0  0  0  0  0
   -0.8212    2.8430   -0.5867 H   0  0  0  0  0  0  0  0  0  0  0  0
    1.2792    0.7765    1.9673 H   0  0  0  0  0  0  0  0  0  0  0  0
    2.4906    1.1653    0.7249 H   0  0  0  0  0  0  0  0  0  0  0  0
  1  2  1  0
  2  3  2  0
  3  4  1  0
  4  5  1  0
  4  6  1  0
  6  7  1  0
  7  8  1  0
  8  9  1  0
  9  2  1  0
  1 10  1  0
  1 11  1  0
  1 12  1  0
  3 13  1  0
  4 14  1  0
  5 15  1  0
  5 16  1  0
  5 17  1  0
  7 18  1  0
  7 19  1  0
  9 20  1  0
  9 21  1  0
M  END
