
     RDKit          3D

 21 21  0  0  0  0  0  0  0  0999 V2000
    0.7104    1.7110    1.2257 C   0  0  0  0  0  0  0  0  0  0  0  0
    0.3130    0.4830    0.4746 C   0  0  0  0  0  0  0  0  0  0  0  0
    1.0650   -0.3362   -0.2287 C   0  0  0  0  0  0  0  0  0  0  0  0
    2.4942   -0.2372   -0.4450 C   0  0  0  0  0  0  0  0  0  0  0  0
    3.1208   -1.0650   -1.1292 O   0  0  0  0  0  0  0  0  0  0  0  0
    0.2033   -1.3970   -0.7865 C   0  0  0  0  0  0  0  0  0  0  0  0
   -0.8978   -1.4648    0.2183 C   0  0  0  0  0  0  0  0  0  0  0  0
   -1.1177    0.0207    0.4586 C   0  0  0  0  0  0  0  0  0  0  0  0
   -1.8517    0.5856   -0.7097 C   0  0  0  0  0  0  0  0  0  0  0  0
    0.0048    2.5315    0.9215 H   0  0  0  0  0  0  0  0  0  0  0  0
    1.7234    2.0453    0.9950 H   0  0  0  0  0  0  0  0  0  0  0  0
    0.5597    1.4825    2.3061 H   0  0  0  0  0  0  0  0  0  0  0  0
    3.0309    0.5829    0.0035 H   0  0  0  0  0  0  0  0  0  0  0  0
    0.7307   -2.3610   -0.9121 H   0  0  0  0  0  0  0  0  0  0  0  0
   -0.1340   -1.0938   -1.7978 H   0  0  0  0  0  0  0  0  0  0  0  0
   -1.8020   -1.9729   -0.1234 H   0  0  0  0  0  0  0  0  0  0  0  0
   -0.4772   -1.8817    1.1559 H   0  0  0  0  0  0  0  0  0  0  0  0
   -1.5906    0.2392    1.4158 H   0  0  0  0  0  0  0  0  0  0  0  0
   -2.6547   -0.1412   -0.9899 H   0  0  0  0  0  0  0  0  0  0  0  0
   -2.2626    1.5930   -0.4957 H   0  0  0  0  0  0  0  0  0  0  0  0
   -1.1678    0.6760   -1.5571 H   0  0  0  0  0  0  0  0  0  0  0  0
  1  2  1  0
  2  3  2  0
  3  4  1  0
  4  5  2  0
  3  6  1  0
  6  7  1  0
  7  8  1  0
  8  9  1  0
  8  2  1  0
  1 10  1  0
  1 11  1  0
  1 12  1  0
  4 13  1  0
  6 14  1  0
  6 15  1  0
  7 16  1  0
  7 17  1  0
  8 18  1  0
  9 19  1  0
  9 20  1  0
  9 21  1  0
M  END
