
     RDKit          3D

 16 17  0  0  0  0  0  0  0  0999 V2000
    2.1250    0.2364    0.0018 C   0  0  0  0  0  0  0  0  0  0  0  0
    0.6912   -0.1411   -0.1204 C   0  0  0  0  0  0  0  0  0  0  0  0
    0.1650   -1.2801    0.3490 C   0  0  0  0  0  0  0  0  0  0  0  0
   -1.3003   -1.1627    0.0177 C   0  0  0  0  0  0  0  0  0  0  0  0
   -1.8282   -0.1895    0.8386 O   0  0  0  0  0  0  0  0  0  0  0  0
   -1.3770    1.0483    0.3591 C   0  0  0  0  0  0  0  0  0  0  0  0
   -0.4250    0.5846   -0.7395 C   0  0  0  0  0  0  0  0  0  0  0  0
   -1.1981   -0.4990   -1.2310 O   0  0  0  0  0  0  0  0  0  0  0  0
    2.3091    0.8406    0.9303 H   0  0  0  0  0  0  0  0  0  0  0  0
    2.7485   -0.6809    0.1115 H   0  0  0  0  0  0  0  0  0  0  0  0
    2.4842    0.8453   -0.8373 H   0  0  0  0  0  0  0  0  0  0  0  0
    0.6823   -2.0909    0.8491 H   0  0  0  0  0  0  0  0  0  0  0  0
   -1.8210   -2.0937   -0.0262 H   0  0  0  0  0  0  0  0  0  0  0  0
   -2.1796    1.6086   -0.1517 H   0  0  0  0  0  0  0  0  0  0  0  0
   -0.8862    1.6511    1.1235 H   0  0  0  0  0  0  0  0  0  0  0  0
   -0.1899    1.3231   -1.4745 H   0  0  0  0  0  0  0  0  0  0  0  0
  1  2  1  0
  2  3  2  0
  3  4  1  0
  4  5  1  0
  5  6  1  0
  6  7  1  0
  7  8  1  0
  7  2  1  0
  8  4  1  0
  1  9  1  0
  1 10  1  0
  1 11  1  0
  3 12  1  0
  4 13  1  0
  6 14  1  0
  6 15  1  0
  7 16  1  0
M  END
