
     RDKit          3D

 19 19  0  0  0  0  0  0  0  0999 V2000
    2.3360   -0.9299    0.1952 C   0  0  0  0  0  0  0  0  0  0  0  0
    0.9635   -0.3007    0.2545 C   0  0  0  0  0  0  0  0  0  0  0  0
   -0.1551   -0.9893    0.3854 C   0  0  0  0  0  0  0  0  0  0  0  0
   -1.2985   -0.0752    0.4084 C   0  0  0  0  0  0  0  0  0  0  0  0
   -2.4677   -0.5571   -0.4179 C   0  0  0  0  0  0  0  0  0  0  0  0
   -0.7793    1.2187   -0.0239 C   0  0  0  0  0  0  0  0  0  0  0  0
   -1.4217    2.1469   -0.4524 O   0  0  0  0  0  0  0  0  0  0  0  0
    0.6835    1.1522    0.1721 C   0  0  0  0  0  0  0  0  0  0  0  0
    1.1239    1.8566    1.2826 O   0  0  0  0  0  0  0  0  0  0  0  0
    2.4180   -1.7599    0.9278 H   0  0  0  0  0  0  0  0  0  0  0  0
    3.0776   -0.1589    0.4742 H   0  0  0  0  0  0  0  0  0  0  0  0
    2.5287   -1.3505   -0.7965 H   0  0  0  0  0  0  0  0  0  0  0  0
   -0.2094   -2.1067    0.4659 H   0  0  0  0  0  0  0  0  0  0  0  0
   -1.6117    0.0310    1.4712 H   0  0  0  0  0  0  0  0  0  0  0  0
   -2.4986   -1.6570   -0.4346 H   0  0  0  0  0  0  0  0  0  0  0  0
   -3.3892   -0.1999    0.0742 H   0  0  0  0  0  0  0  0  0  0  0  0
   -2.4407   -0.1580   -1.4518 H   0  0  0  0  0  0  0  0  0  0  0  0
    1.1565    1.5401   -0.7751 H   0  0  0  0  0  0  0  0  0  0  0  0
    1.9843    2.2974    1.0006 H   0  0  0  0  0  0  0  0  0  0  0  0
  1  2  1  0
  2  3  2  0
  3  4  1  0
  4  5  1  0
  4  6  1  0
  6  7  2  0
  6  8  1  0
  8  9  1  0
  8  2  1  0
  1 10  1  0
  1 11  1  0
  1 12  1  0
  3 13  1  0
  4 14  1  0
  5 15  1  0
  5 16  1  0
  5 17  1  0
  8 18  1  0
  9 19  1  0
M  END
