
     RDKit          3D

 21 22  0  0  0  0  0  0  0  0999 V2000
    2.3318    0.2513    0.8274 C   0  0  0  0  0  0  0  0  0  0  0  0
    1.1065    0.0193    0.0209 C   0  0  0  0  0  0  0  0  0  0  0  0
    0.7825    0.7119   -1.0567 C   0  0  0  0  0  0  0  0  0  0  0  0
   -0.6138    0.3692   -1.4428 C   0  0  0  0  0  0  0  0  0  0  0  0
   -1.4838    1.1173   -0.5067 C   0  0  0  0  0  0  0  0  0  0  0  0
   -1.5387    0.7597    0.7573 C   0  0  0  0  0  0  0  0  0  0  0  0
   -0.9888   -0.5324    1.2512 C   0  0  0  0  0  0  0  0  0  0  0  0
    0.0647   -1.0186    0.2990 C   0  0  0  0  0  0  0  0  0  0  0  0
   -0.6097   -1.1147   -1.0801 C   0  0  0  0  0  0  0  0  0  0  0  0
    2.2230   -0.0886    1.8754 H   0  0  0  0  0  0  0  0  0  0  0  0
    2.5840    1.3136    0.8019 H   0  0  0  0  0  0  0  0  0  0  0  0
    3.1652   -0.3324    0.3799 H   0  0  0  0  0  0  0  0  0  0  0  0
    1.4096    1.4072   -1.5763 H   0  0  0  0  0  0  0  0  0  0  0  0
   -0.8349    0.5429   -2.4981 H   0  0  0  0  0  0  0  0  0  0  0  0
   -2.0592    1.9396   -0.8618 H   0  0  0  0  0  0  0  0  0  0  0  0
   -2.0070    1.4280    1.5020 H   0  0  0  0  0  0  0  0  0  0  0  0
   -0.6158   -0.3883    2.2804 H   0  0  0  0  0  0  0  0  0  0  0  0
   -1.8310   -1.2527    1.2467 H   0  0  0  0  0  0  0  0  0  0  0  0
    0.4976   -1.9830    0.5766 H   0  0  0  0  0  0  0  0  0  0  0  0
    0.0417   -1.6245   -1.7896 H   0  0  0  0  0  0  0  0  0  0  0  0
   -1.6237   -1.5248   -1.0067 H   0  0  0  0  0  0  0  0  0  0  0  0
  1  2  1  0
  2  3  2  0
  3  4  1  0
  4  5  1  0
  5  6  2  0
  6  7  1  0
  7  8  1  0
  8  9  1  0
  8  2  1  0
  9  4  1  0
  1 10  1  0
  1 11  1  0
  1 12  1  0
  3 13  1  0
  4 14  1  0
  5 15  1  0
  6 16  1  0
  7 17  1  0
  7 18  1  0
  8 19  1  0
  9 20  1  0
  9 21  1  0
M  END
