
     RDKit          3D

 19 20  0  0  0  0  0  0  0  0999 V2000
    2.4900   -0.2072    0.0533 C   0  0  0  0  0  0  0  0  0  0  0  0
    1.0079   -0.0870    0.1623 C   0  0  0  0  0  0  0  0  0  0  0  0
    0.5505    1.1502   -0.0189 C   0  0  0  0  0  0  0  0  0  0  0  0
   -0.9019    1.5697    0.0335 C   0  0  0  0  0  0  0  0  0  0  0  0
   -1.6630    0.6717    0.7359 O   0  0  0  0  0  0  0  0  0  0  0  0
   -2.0288   -0.4812    0.0466 C   0  0  0  0  0  0  0  0  0  0  0  0
   -0.9184   -1.1754   -0.6264 C   0  0  0  0  0  0  0  0  0  0  0  0
   -0.2192   -2.2576   -0.3194 O   0  0  0  0  0  0  0  0  0  0  0  0
    0.1970   -1.2612    0.4471 C   0  0  0  0  0  0  0  0  0  0  0  0
    2.9041    0.6728   -0.4501 H   0  0  0  0  0  0  0  0  0  0  0  0
    2.8841   -0.2563    1.0940 H   0  0  0  0  0  0  0  0  0  0  0  0
    2.7859   -1.1395   -0.4997 H   0  0  0  0  0  0  0  0  0  0  0  0
    1.2721    1.9529   -0.2248 H   0  0  0  0  0  0  0  0  0  0  0  0
   -0.9945    2.5572    0.5357 H   0  0  0  0  0  0  0  0  0  0  0  0
   -1.2751    1.7423   -1.0125 H   0  0  0  0  0  0  0  0  0  0  0  0
   -2.8298   -0.2428   -0.6848 H   0  0  0  0  0  0  0  0  0  0  0  0
   -2.4590   -1.1725    0.8216 H   0  0  0  0  0  0  0  0  0  0  0  0
   -0.6536   -0.7205   -1.6067 H   0  0  0  0  0  0  0  0  0  0  0  0
   -0.1483   -1.3157    1.5132 H   0  0  0  0  0  0  0  0  0  0  0  0
  1  2  1  0
  2  3  2  0
  3  4  1  0
  4  5  1  0
  5  6  1  0
  6  7  1  0
  7  8  1  0
  8  9  1  0
  9  2  1  0
  9  7  1  0
  1 10  1  0
  1 11  1  0
  1 12  1  0
  3 13  1  0
  4 14  1  0
  4 15  1  0
  6 16  1  0
  6 17  1  0
  7 18  1  0
  9 19  1  0
M  END
