
     RDKit          3D

 21 22  0  0  0  0  0  0  0  0999 V2000
   -2.4120   -0.4430   -0.3200 C   0  0  0  0  0  0  0  0  0  0  0  0
   -0.9425   -0.3804   -0.0967 C   0  0  0  0  0  0  0  0  0  0  0  0
   -0.2051   -1.3691   -0.5556 C   0  0  0  0  0  0  0  0  0  0  0  0
    1.2628   -1.4415   -0.4080 C   0  0  0  0  0  0  0  0  0  0  0  0
    1.8984   -0.3361    0.3220 C   0  0  0  0  0  0  0  0  0  0  0  0
    1.0802    0.7596    0.8201 C   0  0  0  0  0  0  0  0  0  0  0  0
    1.1656    1.9046   -0.0095 O   0  0  0  0  0  0  0  0  0  0  0  0
   -0.1926    2.0252   -0.1819 C   0  0  0  0  0  0  0  0  0  0  0  0
   -0.3666    0.7468    0.6083 C   0  0  0  0  0  0  0  0  0  0  0  0
   -2.6015   -0.9594   -1.2595 H   0  0  0  0  0  0  0  0  0  0  0  0
   -2.8965    0.5416   -0.2409 H   0  0  0  0  0  0  0  0  0  0  0  0
   -2.8213   -1.1057    0.4946 H   0  0  0  0  0  0  0  0  0  0  0  0
   -0.6749   -2.2057   -1.0841 H   0  0  0  0  0  0  0  0  0  0  0  0
    1.6721   -1.5628   -1.4555 H   0  0  0  0  0  0  0  0  0  0  0  0
    1.4757   -2.4503    0.0587 H   0  0  0  0  0  0  0  0  0  0  0  0
    2.4759   -0.7789    1.1898 H   0  0  0  0  0  0  0  0  0  0  0  0
    2.7236    0.0819   -0.3309 H   0  0  0  0  0  0  0  0  0  0  0  0
    1.3506    1.1113    1.8605 H   0  0  0  0  0  0  0  0  0  0  0  0
   -0.5661    2.9447    0.3165 H   0  0  0  0  0  0  0  0  0  0  0  0
   -0.4575    1.9361   -1.2620 H   0  0  0  0  0  0  0  0  0  0  0  0
   -0.9680    0.9809    1.5342 H   0  0  0  0  0  0  0  0  0  0  0  0
  1  2  1  0
  2  3  2  0
  3  4  1  0
  4  5  1  0
  5  6  1  0
  6  7  1  0
  7  8  1  0
  8  9  1  0
  9  2  1  0
  9  6  1  0
  1 10  1  0
  1 11  1  0
  1 12  1  0
  3 13  1  0
  4 14  1  0
  4 15  1  0
  5 16  1  0
  5 17  1  0
  6 18  1  0
  8 19  1  0
  8 20  1  0
  9 21  1  0
M  END
