
     RDKit          3D

 19 19  0  0  0  0  0  0  0  0999 V2000
    2.4227   -0.4218    0.4052 C   0  0  0  0  0  0  0  0  0  0  0  0
    0.9715   -0.1816    0.2098 C   0  0  0  0  0  0  0  0  0  0  0  0
    0.2023   -1.2609    0.1918 C   0  0  0  0  0  0  0  0  0  0  0  0
   -1.2716   -1.3391    0.0163 C   0  0  0  0  0  0  0  0  0  0  0  0
   -1.7105   -0.1220   -0.6866 C   0  0  0  0  0  0  0  0  0  0  0  0
   -2.0996   -0.2825   -1.8132 O   0  0  0  0  0  0  0  0  0  0  0  0
   -1.7327    1.2625   -0.1846 C   0  0  0  0  0  0  0  0  0  0  0  0
   -0.6395    1.5520    0.6348 O   0  0  0  0  0  0  0  0  0  0  0  0
    0.5643    1.2376    0.0584 C   0  0  0  0  0  0  0  0  0  0  0  0
    2.9645    0.3422   -0.1943 H   0  0  0  0  0  0  0  0  0  0  0  0
    2.6803   -1.4247   -0.0077 H   0  0  0  0  0  0  0  0  0  0  0  0
    2.7314   -0.4069    1.4540 H   0  0  0  0  0  0  0  0  0  0  0  0
    0.7346   -2.1876    0.3229 H   0  0  0  0  0  0  0  0  0  0  0  0
   -1.6998   -1.2934    1.0566 H   0  0  0  0  0  0  0  0  0  0  0  0
   -1.5840   -2.2645   -0.5049 H   0  0  0  0  0  0  0  0  0  0  0  0
   -2.6440    1.3835    0.4577 H   0  0  0  0  0  0  0  0  0  0  0  0
   -1.8261    2.0163   -0.9886 H   0  0  0  0  0  0  0  0  0  0  0  0
    1.3480    1.8529    0.5857 H   0  0  0  0  0  0  0  0  0  0  0  0
    0.5880    1.5380   -1.0134 H   0  0  0  0  0  0  0  0  0  0  0  0
  1  2  1  0
  2  3  2  0
  3  4  1  0
  4  5  1  0
  5  6  2  0
  5  7  1  0
  7  8  1  0
  8  9  1  0
  9  2  1  0
  1 10  1  0
  1 11  1  0
  1 12  1  0
  3 13  1  0
  4 14  1  0
  4 15  1  0
  7 16  1  0
  7 17  1  0
  9 18  1  0
  9 19  1  0
M  END
