
     RDKit          3D

 21 22  0  0  0  0  0  0  0  0999 V2000
    2.6902    0.9450    0.1838 C   0  0  0  0  0  0  0  0  0  0  0  0
    1.3872    0.2531    0.0658 C   0  0  0  0  0  0  0  0  0  0  0  0
    0.2114    0.8469   -0.0656 C   0  0  0  0  0  0  0  0  0  0  0  0
   -0.8648   -0.1375   -0.1545 C   0  0  0  0  0  0  0  0  0  0  0  0
   -0.2122   -1.5035   -0.2155 C   0  0  0  0  0  0  0  0  0  0  0  0
    1.2375   -1.2230    0.0809 C   0  0  0  0  0  0  0  0  0  0  0  0
   -2.0863   -0.0375    0.7095 C   0  0  0  0  0  0  0  0  0  0  0  0
   -2.1672    0.1331   -0.7642 C   0  0  0  0  0  0  0  0  0  0  0  0
   -2.3523    1.4587   -1.2244 O   0  0  0  0  0  0  0  0  0  0  0  0
    3.1160    0.6566    1.1772 H   0  0  0  0  0  0  0  0  0  0  0  0
    2.5756    2.0502    0.2252 H   0  0  0  0  0  0  0  0  0  0  0  0
    3.3683    0.7082   -0.6346 H   0  0  0  0  0  0  0  0  0  0  0  0
    0.0836    1.9180   -0.1005 H   0  0  0  0  0  0  0  0  0  0  0  0
   -0.5920   -2.1800    0.6012 H   0  0  0  0  0  0  0  0  0  0  0  0
   -0.3765   -2.0049   -1.1792 H   0  0  0  0  0  0  0  0  0  0  0  0
    1.8727   -1.7086   -0.6889 H   0  0  0  0  0  0  0  0  0  0  0  0
    1.5221   -1.5630    1.1002 H   0  0  0  0  0  0  0  0  0  0  0  0
   -2.0792    0.8577    1.3818 H   0  0  0  0  0  0  0  0  0  0  0  0
   -2.4761   -0.9891    1.1411 H   0  0  0  0  0  0  0  0  0  0  0  0
   -2.7427   -0.5965   -1.3482 H   0  0  0  0  0  0  0  0  0  0  0  0
   -2.1152    2.1159   -0.5138 H   0  0  0  0  0  0  0  0  0  0  0  0
  1  2  1  0
  2  3  2  0
  3  4  1  0
  4  5  1  0
  5  6  1  0
  4  7  1  0
  7  8  1  0
  8  9  1  0
  6  2  1  0
  8  4  1  0
  1 10  1  0
  1 11  1  0
  1 12  1  0
  3 13  1  0
  5 14  1  0
  5 15  1  0
  6 16  1  0
  6 17  1  0
  7 18  1  0
  7 19  1  0
  8 20  1  0
  9 21  1  0
M  END
