
     RDKit          3D

 18 19  0  0  0  0  0  0  0  0999 V2000
    2.6980   -0.2497    0.1701 C   0  0  0  0  0  0  0  0  0  0  0  0
    1.2468    0.0247    0.0400 C   0  0  0  0  0  0  0  0  0  0  0  0
    0.7359    1.2005   -0.3088 C   0  0  0  0  0  0  0  0  0  0  0  0
   -0.7411    1.1686   -0.3539 C   0  0  0  0  0  0  0  0  0  0  0  0
   -1.0409   -0.2853   -0.0659 C   0  0  0  0  0  0  0  0  0  0  0  0
   -2.4723   -0.5691    0.2688 C   0  0  0  0  0  0  0  0  0  0  0  0
   -0.5169   -1.2238   -1.0148 O   0  0  0  0  0  0  0  0  0  0  0  0
    0.1145   -0.9183    0.2632 C   0  0  0  0  0  0  0  0  0  0  0  0
    2.9471   -1.3189   -0.0145 H   0  0  0  0  0  0  0  0  0  0  0  0
    3.3003    0.3286   -0.5767 H   0  0  0  0  0  0  0  0  0  0  0  0
    3.0792    0.0551    1.1655 H   0  0  0  0  0  0  0  0  0  0  0  0
    1.2982    2.1220   -0.5470 H   0  0  0  0  0  0  0  0  0  0  0  0
   -1.1254    1.7732    0.4615 H   0  0  0  0  0  0  0  0  0  0  0  0
   -1.1488    1.4361   -1.3487 H   0  0  0  0  0  0  0  0  0  0  0  0
   -2.7591   -1.6322    0.1641 H   0  0  0  0  0  0  0  0  0  0  0  0
   -2.7581   -0.1336    1.2508 H   0  0  0  0  0  0  0  0  0  0  0  0
   -3.0927   -0.0162   -0.4950 H   0  0  0  0  0  0  0  0  0  0  0  0
    0.2353   -1.7618    0.9415 H   0  0  0  0  0  0  0  0  0  0  0  0
  1  2  1  0
  2  3  2  0
  3  4  1  0
  4  5  1  0
  5  6  1  0
  5  7  1  0
  7  8  1  0
  8  2  1  0
  8  5  1  0
  1  9  1  0
  1 10  1  0
  1 11  1  0
  3 12  1  0
  4 13  1  0
  4 14  1  0
  6 15  1  0
  6 16  1  0
  6 17  1  0
  8 18  1  0
M  END
