
     RDKit          3D

 19 20  0  0  0  0  0  0  0  0999 V2000
    2.6417    0.0377    0.1028 C   0  0  0  0  0  0  0  0  0  0  0  0
    1.1609    0.1631    0.0636 C   0  0  0  0  0  0  0  0  0  0  0  0
    0.4728    0.8276    0.9860 C   0  0  0  0  0  0  0  0  0  0  0  0
   -0.9739    0.7517    0.6397 C   0  0  0  0  0  0  0  0  0  0  0  0
   -1.2067    1.7386   -0.3116 O   0  0  0  0  0  0  0  0  0  0  0  0
   -1.0316   -0.5652   -0.0776 C   0  0  0  0  0  0  0  0  0  0  0  0
   -2.0911   -1.3387   -0.4337 C   0  0  0  0  0  0  0  0  0  0  0  0
   -1.1217   -1.7533    0.6094 O   0  0  0  0  0  0  0  0  0  0  0  0
    0.2047   -0.4015   -0.9615 C   0  0  0  0  0  0  0  0  0  0  0  0
    2.9586   -0.7122    0.8805 H   0  0  0  0  0  0  0  0  0  0  0  0
    3.0524    1.0445    0.3368 H   0  0  0  0  0  0  0  0  0  0  0  0
    2.9848   -0.2377   -0.9018 H   0  0  0  0  0  0  0  0  0  0  0  0
    0.8503    1.3521    1.8593 H   0  0  0  0  0  0  0  0  0  0  0  0
   -1.6321    0.8176    1.5117 H   0  0  0  0  0  0  0  0  0  0  0  0
   -1.6279    2.5416    0.0481 H   0  0  0  0  0  0  0  0  0  0  0  0
   -2.0931   -2.0120   -1.3137 H   0  0  0  0  0  0  0  0  0  0  0  0
   -3.0923   -1.2936    0.0545 H   0  0  0  0  0  0  0  0  0  0  0  0
   -0.0094    0.3846   -1.7183 H   0  0  0  0  0  0  0  0  0  0  0  0
    0.5536   -1.3449   -1.3742 H   0  0  0  0  0  0  0  0  0  0  0  0
  1  2  1  0
  2  3  2  0
  3  4  1  0
  4  5  1  0
  4  6  1  0
  6  7  1  0
  7  8  1  0
  6  9  1  0
  9  2  1  0
  8  6  1  0
  1 10  1  0
  1 11  1  0
  1 12  1  0
  3 13  1  0
  4 14  1  0
  5 15  1  0
  7 16  1  0
  7 17  1  0
  9 18  1  0
  9 19  1  0
M  END
