
     RDKit          3D

 19 20  0  0  0  0  0  0  0  0999 V2000
    0.7647    1.9620    0.5606 C   0  0  0  0  0  0  0  0  0  0  0  0
    0.1892    0.7055    0.0602 C   0  0  0  0  0  0  0  0  0  0  0  0
    0.9027   -0.3929   -0.1485 C   0  0  0  0  0  0  0  0  0  0  0  0
    2.3323   -0.5914    0.0586 C   0  0  0  0  0  0  0  0  0  0  0  0
    2.8808   -1.6918   -0.1817 O   0  0  0  0  0  0  0  0  0  0  0  0
   -0.0015   -1.4430   -0.6468 C   0  0  0  0  0  0  0  0  0  0  0  0
   -1.4025   -0.9873   -0.5304 C   0  0  0  0  0  0  0  0  0  0  0  0
   -1.9882   -0.3702    0.6585 C   0  0  0  0  0  0  0  0  0  0  0  0
   -1.2340    0.5093   -0.2681 C   0  0  0  0  0  0  0  0  0  0  0  0
    1.8402    2.0305    0.2920 H   0  0  0  0  0  0  0  0  0  0  0  0
    0.2596    2.8083    0.0347 H   0  0  0  0  0  0  0  0  0  0  0  0
    0.5806    2.1313    1.6439 H   0  0  0  0  0  0  0  0  0  0  0  0
    2.9047    0.2430    0.4268 H   0  0  0  0  0  0  0  0  0  0  0  0
    0.2413   -1.5766   -1.7394 H   0  0  0  0  0  0  0  0  0  0  0  0
    0.1991   -2.4351   -0.1900 H   0  0  0  0  0  0  0  0  0  0  0  0
   -2.0803   -1.3078   -1.3444 H   0  0  0  0  0  0  0  0  0  0  0  0
   -3.0846   -0.2330    0.6596 H   0  0  0  0  0  0  0  0  0  0  0  0
   -1.5710   -0.4941    1.6755 H   0  0  0  0  0  0  0  0  0  0  0  0
   -1.7331    1.1332   -1.0212 H   0  0  0  0  0  0  0  0  0  0  0  0
  1  2  1  0
  2  3  2  0
  3  4  1  0
  4  5  2  0
  3  6  1  0
  6  7  1  0
  7  8  1  0
  8  9  1  0
  9  2  1  0
  9  7  1  0
  1 10  1  0
  1 11  1  0
  1 12  1  0
  4 13  1  0
  6 14  1  0
  6 15  1  0
  7 16  1  0
  8 17  1  0
  8 18  1  0
  9 19  1  0
M  END
