
     RDKit          3D

 23 24  0  0  0  0  0  0  0  0999 V2000
    2.2879   -0.8823    0.4678 C   0  0  0  0  0  0  0  0  0  0  0  0
    0.8623   -0.6297    0.1952 C   0  0  0  0  0  0  0  0  0  0  0  0
   -0.0775   -1.5783    0.3593 C   0  0  0  0  0  0  0  0  0  0  0  0
   -1.3887   -1.0791   -0.1874 C   0  0  0  0  0  0  0  0  0  0  0  0
   -1.9589   -0.0876    0.7718 C   0  0  0  0  0  0  0  0  0  0  0  0
   -0.8351    0.9590    0.8253 C   0  0  0  0  0  0  0  0  0  0  0  0
    0.1384    0.5593   -0.2703 C   0  0  0  0  0  0  0  0  0  0  0  0
    0.9192    1.6434   -0.8476 C   0  0  0  0  0  0  0  0  0  0  0  0
   -0.8386   -0.1132   -1.2530 C   0  0  0  0  0  0  0  0  0  0  0  0
    2.8088    0.0697    0.5334 H   0  0  0  0  0  0  0  0  0  0  0  0
    2.7725   -1.5073   -0.2957 H   0  0  0  0  0  0  0  0  0  0  0  0
    2.3519   -1.4751    1.4262 H   0  0  0  0  0  0  0  0  0  0  0  0
    0.0513   -2.5641    0.8115 H   0  0  0  0  0  0  0  0  0  0  0  0
   -2.0323   -1.8312   -0.5708 H   0  0  0  0  0  0  0  0  0  0  0  0
   -2.8325    0.4421    0.3512 H   0  0  0  0  0  0  0  0  0  0  0  0
   -2.1443   -0.4963    1.7822 H   0  0  0  0  0  0  0  0  0  0  0  0
   -0.2985    0.7987    1.7895 H   0  0  0  0  0  0  0  0  0  0  0  0
   -1.2213    1.9790    0.7057 H   0  0  0  0  0  0  0  0  0  0  0  0
    0.3060    2.5909   -0.7834 H   0  0  0  0  0  0  0  0  0  0  0  0
    1.8462    1.8015   -0.2771 H   0  0  0  0  0  0  0  0  0  0  0  0
    1.1232    1.4530   -1.9153 H   0  0  0  0  0  0  0  0  0  0  0  0
   -0.2456   -0.6289   -2.0068 H   0  0  0  0  0  0  0  0  0  0  0  0
   -1.5945    0.5762   -1.6118 H   0  0  0  0  0  0  0  0  0  0  0  0
  1  2  1  0
  2  3  2  0
  3  4  1  0
  4  5  1  0
  5  6  1  0
  6  7  1  0
  7  8  1  0
  7  9  1  0
  7  2  1  0
  9  4  1  0
  1 10  1  0
  1 11  1  0
  1 12  1  0
  3 13  1  0
  4 14  1  0
  5 15  1  0
  5 16  1  0
  6 17  1  0
  6 18  1  0
  8 19  1  0
  8 20  1  0
  8 21  1  0
  9 22  1  0
  9 23  1  0
M  END
