
     RDKit          3D

 21 22  0  0  0  0  0  0  0  0999 V2000
    2.0619    1.3306    0.7691 C   0  0  0  0  0  0  0  0  0  0  0  0
    1.0490    0.4257    0.1401 C   0  0  0  0  0  0  0  0  0  0  0  0
   -0.1775    0.7918   -0.1386 C   0  0  0  0  0  0  0  0  0  0  0  0
   -1.4804    1.5252   -0.3195 C   0  0  0  0  0  0  0  0  0  0  0  0
   -2.1118    0.1162   -0.1265 C   0  0  0  0  0  0  0  0  0  0  0  0
   -0.8946   -0.3756   -0.8221 C   0  0  0  0  0  0  0  0  0  0  0  0
   -0.1367   -1.5467   -0.2394 C   0  0  0  0  0  0  0  0  0  0  0  0
   -0.4963   -1.8619    1.0431 O   0  0  0  0  0  0  0  0  0  0  0  0
    1.3191   -1.0139   -0.2095 C   0  0  0  0  0  0  0  0  0  0  0  0
    3.0447    1.0402    0.3468 H   0  0  0  0  0  0  0  0  0  0  0  0
    2.0197    1.3061    1.8653 H   0  0  0  0  0  0  0  0  0  0  0  0
    1.8786    2.3992    0.4604 H   0  0  0  0  0  0  0  0  0  0  0  0
   -1.5961    1.8712   -1.3408 H   0  0  0  0  0  0  0  0  0  0  0  0
   -1.7415    2.2077    0.5035 H   0  0  0  0  0  0  0  0  0  0  0  0
   -2.1327   -0.1894    0.9269 H   0  0  0  0  0  0  0  0  0  0  0  0
   -3.0495    0.0850   -0.6900 H   0  0  0  0  0  0  0  0  0  0  0  0
   -0.8612   -0.3212   -1.9160 H   0  0  0  0  0  0  0  0  0  0  0  0
   -0.1228   -2.4001   -0.9454 H   0  0  0  0  0  0  0  0  0  0  0  0
   -0.2378   -2.8095    1.2056 H   0  0  0  0  0  0  0  0  0  0  0  0
    1.8089   -1.1339   -1.1694 H   0  0  0  0  0  0  0  0  0  0  0  0
    1.8570   -1.4467    0.6562 H   0  0  0  0  0  0  0  0  0  0  0  0
  1  2  1  0
  2  3  2  0
  3  4  1  0
  4  5  1  0
  5  6  1  0
  6  7  1  0
  7  8  1  0
  7  9  1  0
  9  2  1  0
  6  3  1  0
  1 10  1  0
  1 11  1  0
  1 12  1  0
  4 13  1  0
  4 14  1  0
  5 15  1  0
  5 16  1  0
  6 17  1  0
  7 18  1  0
  8 19  1  0
  9 20  1  0
  9 21  1  0
M  END
