
     RDKit          3D

 21 22  0  0  0  0  0  0  0  0999 V2000
    2.7927   -0.3187    0.0128 C   0  0  0  0  0  0  0  0  0  0  0  0
    1.3015   -0.1197    0.0918 C   0  0  0  0  0  0  0  0  0  0  0  0
    0.4921   -1.0279    0.5966 C   0  0  0  0  0  0  0  0  0  0  0  0
   -0.8822   -0.5293    0.5262 C   0  0  0  0  0  0  0  0  0  0  0  0
   -1.8591   -1.5628   -0.0036 C   0  0  0  0  0  0  0  0  0  0  0  0
   -0.8332    0.6497   -0.4003 C   0  0  0  0  0  0  0  0  0  0  0  0
   -1.1105    1.9309    0.3602 C   0  0  0  0  0  0  0  0  0  0  0  0
    0.2846    2.0373    0.5622 O   0  0  0  0  0  0  0  0  0  0  0  0
    0.6101    1.0980   -0.3839 C   0  0  0  0  0  0  0  0  0  0  0  0
    3.2374    0.3622   -0.7554 H   0  0  0  0  0  0  0  0  0  0  0  0
    3.0281   -1.3620   -0.2933 H   0  0  0  0  0  0  0  0  0  0  0  0
    3.2744   -0.1259    0.9796 H   0  0  0  0  0  0  0  0  0  0  0  0
    0.7611   -2.0169    1.0155 H   0  0  0  0  0  0  0  0  0  0  0  0
   -1.2312   -0.2512    1.5348 H   0  0  0  0  0  0  0  0  0  0  0  0
   -2.8719   -1.3352    0.3938 H   0  0  0  0  0  0  0  0  0  0  0  0
   -1.5026   -2.5500    0.3003 H   0  0  0  0  0  0  0  0  0  0  0  0
   -1.9160   -1.4469   -1.1252 H   0  0  0  0  0  0  0  0  0  0  0  0
   -1.3065    0.5478   -1.3733 H   0  0  0  0  0  0  0  0  0  0  0  0
   -1.5529    2.7493   -0.2233 H   0  0  0  0  0  0  0  0  0  0  0  0
   -1.6870    1.7929    1.3036 H   0  0  0  0  0  0  0  0  0  0  0  0
    0.9710    1.4785   -1.3621 H   0  0  0  0  0  0  0  0  0  0  0  0
  1  2  1  0
  2  3  2  0
  3  4  1  0
  4  5  1  0
  4  6  1  0
  6  7  1  0
  7  8  1  0
  8  9  1  0
  9  2  1  0
  9  6  1  0
  1 10  1  0
  1 11  1  0
  1 12  1  0
  3 13  1  0
  4 14  1  0
  5 15  1  0
  5 16  1  0
  5 17  1  0
  6 18  1  0
  7 19  1  0
  7 20  1  0
  9 21  1  0
M  END
