
     RDKit          3D

 19 19  0  0  0  0  0  0  0  0999 V2000
    2.0664    0.5605   -0.5109 C   0  0  0  0  0  0  0  0  0  0  0  0
    0.8088   -0.1402   -0.1009 C   0  0  0  0  0  0  0  0  0  0  0  0
   -0.3649    0.4665    0.0647 C   0  0  0  0  0  0  0  0  0  0  0  0
   -0.6557    1.9107   -0.1169 C   0  0  0  0  0  0  0  0  0  0  0  0
   -1.3979   -0.5366    0.4750 C   0  0  0  0  0  0  0  0  0  0  0  0
   -2.0133   -1.1079   -0.6452 O   0  0  0  0  0  0  0  0  0  0  0  0
   -0.5401   -1.5790    1.0672 C   0  0  0  0  0  0  0  0  0  0  0  0
   -0.7362   -2.2534    2.0328 O   0  0  0  0  0  0  0  0  0  0  0  0
    0.6429   -1.6125    0.1906 C   0  0  0  0  0  0  0  0  0  0  0  0
    2.0593    0.6432   -1.6185 H   0  0  0  0  0  0  0  0  0  0  0  0
    2.0734    1.5585   -0.0346 H   0  0  0  0  0  0  0  0  0  0  0  0
    2.9035   -0.0559   -0.1262 H   0  0  0  0  0  0  0  0  0  0  0  0
   -1.6474    1.9805   -0.6201 H   0  0  0  0  0  0  0  0  0  0  0  0
   -0.7650    2.4537    0.8460 H   0  0  0  0  0  0  0  0  0  0  0  0
    0.1580    2.3849   -0.6794 H   0  0  0  0  0  0  0  0  0  0  0  0
   -2.1301   -0.1137    1.1817 H   0  0  0  0  0  0  0  0  0  0  0  0
   -2.3397   -0.4319   -1.2840 H   0  0  0  0  0  0  0  0  0  0  0  0
    0.3411   -2.0845   -0.7658 H   0  0  0  0  0  0  0  0  0  0  0  0
    1.5371   -2.0428    0.6446 H   0  0  0  0  0  0  0  0  0  0  0  0
  1  2  1  0
  2  3  2  0
  3  4  1  0
  3  5  1  0
  5  6  1  0
  5  7  1  0
  7  8  2  0
  7  9  1  0
  9  2  1  0
  1 10  1  0
  1 11  1  0
  1 12  1  0
  4 13  1  0
  4 14  1  0
  4 15  1  0
  5 16  1  0
  6 17  1  0
  9 18  1  0
  9 19  1  0
M  END
