
     RDKit          3D

 21 23  0  0  0  0  0  0  0  0999 V2000
    2.4401   -0.4651    0.5585 C   0  0  0  0  0  0  0  0  0  0  0  0
    1.0028   -0.5960    0.2208 C   0  0  0  0  0  0  0  0  0  0  0  0
    0.3346   -1.7659    0.0771 C   0  0  0  0  0  0  0  0  0  0  0  0
   -1.0521   -1.3191   -0.1808 C   0  0  0  0  0  0  0  0  0  0  0  0
   -0.9126   -0.1736   -1.1201 C   0  0  0  0  0  0  0  0  0  0  0  0
   -2.0657    0.4559   -0.3985 C   0  0  0  0  0  0  0  0  0  0  0  0
   -1.2221   -0.1097    0.7058 C   0  0  0  0  0  0  0  0  0  0  0  0
   -0.0393    0.4118   -0.0372 C   0  0  0  0  0  0  0  0  0  0  0  0
    0.2772    1.8214   -0.0520 C   0  0  0  0  0  0  0  0  0  0  0  0
    2.7178    0.5875    0.5876 H   0  0  0  0  0  0  0  0  0  0  0  0
    3.0089   -1.0316   -0.1982 H   0  0  0  0  0  0  0  0  0  0  0  0
    2.6671   -0.8852    1.5724 H   0  0  0  0  0  0  0  0  0  0  0  0
    0.7553   -2.7655    0.1432 H   0  0  0  0  0  0  0  0  0  0  0  0
   -1.8392   -2.0225   -0.2717 H   0  0  0  0  0  0  0  0  0  0  0  0
   -0.7265   -0.1786   -2.1021 H   0  0  0  0  0  0  0  0  0  0  0  0
   -2.1664    1.5373   -0.4441 H   0  0  0  0  0  0  0  0  0  0  0  0
   -3.0334   -0.0901   -0.4450 H   0  0  0  0  0  0  0  0  0  0  0  0
   -1.4044   -0.1043    1.6878 H   0  0  0  0  0  0  0  0  0  0  0  0
   -0.1446    2.3117   -0.9782 H   0  0  0  0  0  0  0  0  0  0  0  0
    0.0102    2.4183    0.8431 H   0  0  0  0  0  0  0  0  0  0  0  0
    1.3923    1.9633   -0.1682 H   0  0  0  0  0  0  0  0  0  0  0  0
  1  2  1  0
  2  3  2  0
  3  4  1  0
  4  5  1  0
  5  6  1  0
  6  7  1  0
  7  8  1  0
  8  9  1  0
  8  2  1  0
  7  4  1  0
  8  5  1  0
  1 10  1  0
  1 11  1  0
  1 12  1  0
  3 13  1  0
  4 14  1  0
  5 15  1  0
  6 16  1  0
  6 17  1  0
  7 18  1  0
  9 19  1  0
  9 20  1  0
  9 21  1  0
M  END
