
     RDKit          3D

 21 22  0  0  0  0  0  0  0  0999 V2000
    2.3898    1.3173   -0.0596 C   0  0  0  0  0  0  0  0  0  0  0  0
    1.2540    0.3649   -0.0684 C   0  0  0  0  0  0  0  0  0  0  0  0
    0.6652   -0.3116    0.9305 C   0  0  0  0  0  0  0  0  0  0  0  0
   -0.4003   -1.0408    0.1536 C   0  0  0  0  0  0  0  0  0  0  0  0
   -1.2456   -1.9873    0.8353 C   0  0  0  0  0  0  0  0  0  0  0  0
    0.3732   -1.4794   -0.9478 O   0  0  0  0  0  0  0  0  0  0  0  0
    0.4523   -0.0951   -1.2403 C   0  0  0  0  0  0  0  0  0  0  0  0
   -0.9782   -0.0309   -0.7973 C   0  0  0  0  0  0  0  0  0  0  0  0
   -1.4242    1.2481   -0.1535 C   0  0  0  0  0  0  0  0  0  0  0  0
    3.2603    0.9378   -0.6487 H   0  0  0  0  0  0  0  0  0  0  0  0
    2.7013    1.4274    1.0084 H   0  0  0  0  0  0  0  0  0  0  0  0
    2.1407    2.3029   -0.4875 H   0  0  0  0  0  0  0  0  0  0  0  0
    0.8863   -0.3322    1.9899 H   0  0  0  0  0  0  0  0  0  0  0  0
   -1.3861   -1.7122    1.9002 H   0  0  0  0  0  0  0  0  0  0  0  0
   -0.7957   -3.0029    0.8395 H   0  0  0  0  0  0  0  0  0  0  0  0
   -2.2717   -2.0035    0.3654 H   0  0  0  0  0  0  0  0  0  0  0  0
    0.7368    0.1925   -2.2158 H   0  0  0  0  0  0  0  0  0  0  0  0
   -1.6541   -0.4914   -1.5115 H   0  0  0  0  0  0  0  0  0  0  0  0
   -2.2471    1.6991   -0.7516 H   0  0  0  0  0  0  0  0  0  0  0  0
   -0.5839    1.9635    0.0089 H   0  0  0  0  0  0  0  0  0  0  0  0
   -1.8730    1.0338    0.8502 H   0  0  0  0  0  0  0  0  0  0  0  0
  1  2  1  0
  2  3  2  0
  3  4  1  0
  4  5  1  0
  4  6  1  0
  6  7  1  0
  7  8  1  0
  8  9  1  0
  7  2  1  0
  8  4  1  0
  1 10  1  0
  1 11  1  0
  1 12  1  0
  3 13  1  0
  5 14  1  0
  5 15  1  0
  5 16  1  0
  7 17  1  0
  8 18  1  0
  9 19  1  0
  9 20  1  0
  9 21  1  0
M  END
