
     RDKit          3D

 23 23  0  0  0  0  0  0  0  0999 V2000
    1.8103   -1.4520   -0.4333 C   0  0  0  0  0  0  0  0  0  0  0  0
    1.3334   -0.1036   -0.0338 C   0  0  0  0  0  0  0  0  0  0  0  0
    2.0447    1.0184   -0.1426 C   0  0  0  0  0  0  0  0  0  0  0  0
    1.1676    2.1245    0.3785 C   0  0  0  0  0  0  0  0  0  0  0  0
   -0.0973    1.6048    0.0904 O   0  0  0  0  0  0  0  0  0  0  0  0
    0.0418    0.2937    0.5421 C   0  0  0  0  0  0  0  0  0  0  0  0
   -1.1027   -0.5827    0.1693 C   0  0  0  0  0  0  0  0  0  0  0  0
   -1.3737   -0.6589   -1.2956 C   0  0  0  0  0  0  0  0  0  0  0  0
   -2.3331   -0.0427    0.9042 C   0  0  0  0  0  0  0  0  0  0  0  0
    1.6781   -1.6597   -1.5006 H   0  0  0  0  0  0  0  0  0  0  0  0
    1.2880   -2.2139    0.1903 H   0  0  0  0  0  0  0  0  0  0  0  0
    2.9008   -1.5848   -0.2122 H   0  0  0  0  0  0  0  0  0  0  0  0
    3.0353    1.1268   -0.5201 H   0  0  0  0  0  0  0  0  0  0  0  0
    1.3743    3.0776   -0.1023 H   0  0  0  0  0  0  0  0  0  0  0  0
    1.2581    2.1414    1.4869 H   0  0  0  0  0  0  0  0  0  0  0  0
    0.1207    0.3278    1.6353 H   0  0  0  0  0  0  0  0  0  0  0  0
   -0.9270   -1.5874    0.5525 H   0  0  0  0  0  0  0  0  0  0  0  0
   -1.4233    0.3570   -1.7748 H   0  0  0  0  0  0  0  0  0  0  0  0
   -0.6809   -1.3381   -1.8036 H   0  0  0  0  0  0  0  0  0  0  0  0
   -2.3968   -1.1006   -1.4243 H   0  0  0  0  0  0  0  0  0  0  0  0
   -3.1126   -0.8109    0.8984 H   0  0  0  0  0  0  0  0  0  0  0  0
   -2.6098    0.9084    0.4485 H   0  0  0  0  0  0  0  0  0  0  0  0
   -1.9958    0.1550    1.9467 H   0  0  0  0  0  0  0  0  0  0  0  0
  1  2  1  0
  2  3  2  0
  3  4  1  0
  4  5  1  0
  5  6  1  0
  6  7  1  0
  7  8  1  0
  7  9  1  0
  6  2  1  0
  1 10  1  0
  1 11  1  0
  1 12  1  0
  3 13  1  0
  4 14  1  0
  4 15  1  0
  6 16  1  0
  7 17  1  0
  8 18  1  0
  8 19  1  0
  8 20  1  0
  9 21  1  0
  9 22  1  0
  9 23  1  0
M  END
