
     RDKit          3D

 21 21  0  0  0  0  0  0  0  0999 V2000
    2.6852   -0.4247    0.7820 C   0  0  0  0  0  0  0  0  0  0  0  0
    1.3965   -0.1141    0.1094 C   0  0  0  0  0  0  0  0  0  0  0  0
    0.6708    0.9750    0.3114 C   0  0  0  0  0  0  0  0  0  0  0  0
   -0.5466    0.9340   -0.5368 C   0  0  0  0  0  0  0  0  0  0  0  0
   -1.7336    1.5792    0.0845 C   0  0  0  0  0  0  0  0  0  0  0  0
   -0.6800   -0.4938   -0.8808 C   0  0  0  0  0  0  0  0  0  0  0  0
   -1.4302   -1.3213    0.1224 C   0  0  0  0  0  0  0  0  0  0  0  0
    0.7351   -0.9670   -0.8755 C   0  0  0  0  0  0  0  0  0  0  0  0
    1.2200   -1.8801   -1.5605 O   0  0  0  0  0  0  0  0  0  0  0  0
    2.6879   -1.4769    1.1604 H   0  0  0  0  0  0  0  0  0  0  0  0
    2.8887    0.2529    1.6142 H   0  0  0  0  0  0  0  0  0  0  0  0
    3.5454   -0.3466    0.0812 H   0  0  0  0  0  0  0  0  0  0  0  0
    0.9640    1.7619    1.0093 H   0  0  0  0  0  0  0  0  0  0  0  0
   -0.2955    1.4952   -1.4841 H   0  0  0  0  0  0  0  0  0  0  0  0
   -2.6562    1.0025    0.0635 H   0  0  0  0  0  0  0  0  0  0  0  0
   -1.4900    1.8583    1.1386 H   0  0  0  0  0  0  0  0  0  0  0  0
   -1.9701    2.5647   -0.4140 H   0  0  0  0  0  0  0  0  0  0  0  0
   -1.1302   -0.6239   -1.8814 H   0  0  0  0  0  0  0  0  0  0  0  0
   -0.7507   -2.0100    0.7050 H   0  0  0  0  0  0  0  0  0  0  0  0
   -1.9842   -0.7489    0.8648 H   0  0  0  0  0  0  0  0  0  0  0  0
   -2.1263   -2.0165   -0.4137 H   0  0  0  0  0  0  0  0  0  0  0  0
  1  2  1  0
  2  3  2  0
  3  4  1  0
  4  5  1  0
  4  6  1  0
  6  7  1  0
  6  8  1  0
  8  9  2  0
  8  2  1  0
  1 10  1  0
  1 11  1  0
  1 12  1  0
  3 13  1  0
  4 14  1  0
  5 15  1  0
  5 16  1  0
  5 17  1  0
  6 18  1  0
  7 19  1  0
  7 20  1  0
  7 21  1  0
M  END
