
     RDKit          3D

 23 23  0  0  0  0  0  0  0  0999 V2000
   -2.0315   -1.3686   -0.4821 C   0  0  0  0  0  0  0  0  0  0  0  0
   -0.7015   -0.8706    0.0204 C   0  0  0  0  0  0  0  0  0  0  0  0
   -0.3224    0.3763   -0.1457 C   0  0  0  0  0  0  0  0  0  0  0  0
   -1.0923    1.4848   -0.8275 C   0  0  0  0  0  0  0  0  0  0  0  0
   -1.2675    2.4753    0.1574 O   0  0  0  0  0  0  0  0  0  0  0  0
    1.0133    0.6419    0.4247 C   0  0  0  0  0  0  0  0  0  0  0  0
    2.0164    0.7166   -0.7232 C   0  0  0  0  0  0  0  0  0  0  0  0
    1.2574   -0.5453    1.2869 C   0  0  0  0  0  0  0  0  0  0  0  0
    0.3372   -1.6287    0.7341 C   0  0  0  0  0  0  0  0  0  0  0  0
   -2.0000   -2.4793   -0.4229 H   0  0  0  0  0  0  0  0  0  0  0  0
   -2.2030   -1.0483   -1.5397 H   0  0  0  0  0  0  0  0  0  0  0  0
   -2.8158   -0.9385    0.1692 H   0  0  0  0  0  0  0  0  0  0  0  0
   -2.0840    1.1501   -1.1481 H   0  0  0  0  0  0  0  0  0  0  0  0
   -0.4418    1.8477   -1.6296 H   0  0  0  0  0  0  0  0  0  0  0  0
   -1.5900    1.9780    0.9624 H   0  0  0  0  0  0  0  0  0  0  0  0
    1.0474    1.6083    0.9619 H   0  0  0  0  0  0  0  0  0  0  0  0
    2.1192   -0.2287   -1.2543 H   0  0  0  0  0  0  0  0  0  0  0  0
    1.6799    1.4945   -1.4430 H   0  0  0  0  0  0  0  0  0  0  0  0
    2.9746    1.0665   -0.2719 H   0  0  0  0  0  0  0  0  0  0  0  0
    0.9851   -0.3168    2.3256 H   0  0  0  0  0  0  0  0  0  0  0  0
    2.3130   -0.8789    1.2442 H   0  0  0  0  0  0  0  0  0  0  0  0
    0.8644   -2.3004    0.0287 H   0  0  0  0  0  0  0  0  0  0  0  0
   -0.0582   -2.2361    1.5725 H   0  0  0  0  0  0  0  0  0  0  0  0
  1  2  1  0
  2  3  2  0
  3  4  1  0
  4  5  1  0
  3  6  1  0
  6  7  1  0
  6  8  1  0
  8  9  1  0
  9  2  1  0
  1 10  1  0
  1 11  1  0
  1 12  1  0
  4 13  1  0
  4 14  1  0
  5 15  1  0
  6 16  1  0
  7 17  1  0
  7 18  1  0
  7 19  1  0
  8 20  1  0
  8 21  1  0
  9 22  1  0
  9 23  1  0
M  END
