
     RDKit          3D

 16 16  0  0  0  0  0  0  0  0999 V2000
    2.2974   -0.6923   -0.1352 C   0  0  0  0  0  0  0  0  0  0  0  0
    1.0043    0.0178   -0.0084 C   0  0  0  0  0  0  0  0  0  0  0  0
   -0.0290   -0.4681    0.6508 C   0  0  0  0  0  0  0  0  0  0  0  0
   -1.1270    0.5156    0.5568 C   0  0  0  0  0  0  0  0  0  0  0  0
   -2.2837   -0.1797   -0.1567 C   0  0  0  0  0  0  0  0  0  0  0  0
   -0.6251    1.5854   -0.2050 O   0  0  0  0  0  0  0  0  0  0  0  0
    0.6876    1.3206   -0.5753 C   0  0  0  0  0  0  0  0  0  0  0  0
    1.4291    2.0499   -1.2500 O   0  0  0  0  0  0  0  0  0  0  0  0
    2.9745   -0.3917    0.6707 H   0  0  0  0  0  0  0  0  0  0  0  0
    2.7354   -0.3952   -1.1137 H   0  0  0  0  0  0  0  0  0  0  0  0
    2.0976   -1.7724   -0.1974 H   0  0  0  0  0  0  0  0  0  0  0  0
   -0.1083   -1.4057    1.1783 H   0  0  0  0  0  0  0  0  0  0  0  0
   -1.3965    0.7995    1.5848 H   0  0  0  0  0  0  0  0  0  0  0  0
   -1.8933   -1.0306   -0.7785 H   0  0  0  0  0  0  0  0  0  0  0  0
   -2.9953   -0.5128    0.6075 H   0  0  0  0  0  0  0  0  0  0  0  0
   -2.7679    0.5595   -0.8287 H   0  0  0  0  0  0  0  0  0  0  0  0
  1  2  1  0
  2  3  2  0
  3  4  1  0
  4  5  1  0
  4  6  1  0
  6  7  1  0
  7  8  2  0
  7  2  1  0
  1  9  1  0
  1 10  1  0
  1 11  1  0
  3 12  1  0
  4 13  1  0
  5 14  1  0
  5 15  1  0
  5 16  1  0
M  END
