
     RDKit          3D

 17 18  0  0  0  0  0  0  0  0999 V2000
    2.5046   -0.0487   -0.1261 C   0  0  0  0  0  0  0  0  0  0  0  0
    1.0223   -0.1702   -0.4085 C   0  0  0  0  0  0  0  0  0  0  0  0
    0.2027   -1.1806   -0.1644 C   0  0  0  0  0  0  0  0  0  0  0  0
   -1.1056   -0.8506   -0.6206 C   0  0  0  0  0  0  0  0  0  0  0  0
   -2.2589   -0.1319   -0.2990 C   0  0  0  0  0  0  0  0  0  0  0  0
   -1.0910    0.6379   -0.1829 C   0  0  0  0  0  0  0  0  0  0  0  0
   -0.8187    0.9337    1.1805 O   0  0  0  0  0  0  0  0  0  0  0  0
    0.1212    0.8796   -0.9498 C   0  0  0  0  0  0  0  0  0  0  0  0
    0.3853    1.7154   -1.8238 O   0  0  0  0  0  0  0  0  0  0  0  0
    2.6845   -0.0668    0.9650 H   0  0  0  0  0  0  0  0  0  0  0  0
    2.8913    0.8297   -0.6536 H   0  0  0  0  0  0  0  0  0  0  0  0
    3.0127   -0.9833   -0.5157 H   0  0  0  0  0  0  0  0  0  0  0  0
    0.5850   -2.1120    0.3325 H   0  0  0  0  0  0  0  0  0  0  0  0
   -1.0733   -1.0238   -1.7757 H   0  0  0  0  0  0  0  0  0  0  0  0
   -3.0010    0.2082   -1.0794 H   0  0  0  0  0  0  0  0  0  0  0  0
   -2.8418   -0.4807    0.5835 H   0  0  0  0  0  0  0  0  0  0  0  0
   -1.2192    1.8440    1.3005 H   0  0  0  0  0  0  0  0  0  0  0  0
  1  2  1  0
  2  3  2  0
  3  4  1  0
  4  5  1  0
  5  6  1  0
  6  7  1  0
  6  8  1  0
  8  9  2  0
  8  2  1  0
  6  4  1  0
  1 10  1  0
  1 11  1  0
  1 12  1  0
  3 13  1  0
  4 14  1  0
  5 15  1  0
  5 16  1  0
  7 17  1  0
M  END
