
     RDKit          3D

 21 22  0  0  0  0  0  0  0  0999 V2000
    2.4694   -0.0958    0.7268 C   0  0  0  0  0  0  0  0  0  0  0  0
    1.1499   -0.0503    0.0717 C   0  0  0  0  0  0  0  0  0  0  0  0
    0.3739   -1.1258    0.0515 C   0  0  0  0  0  0  0  0  0  0  0  0
   -0.9591   -1.3654   -0.5156 C   0  0  0  0  0  0  0  0  0  0  0  0
   -2.1749   -1.4763    0.2924 C   0  0  0  0  0  0  0  0  0  0  0  0
   -1.7883   -0.1329   -0.3451 C   0  0  0  0  0  0  0  0  0  0  0  0
   -1.2955    0.7718    0.5529 O   0  0  0  0  0  0  0  0  0  0  0  0
   -0.5112    1.7582    0.0137 C   0  0  0  0  0  0  0  0  0  0  0  0
    0.8005    1.2626   -0.5326 C   0  0  0  0  0  0  0  0  0  0  0  0
    3.2325   -0.1700   -0.1005 H   0  0  0  0  0  0  0  0  0  0  0  0
    2.6121   -0.9542    1.3846 H   0  0  0  0  0  0  0  0  0  0  0  0
    2.6861    0.8786    1.2258 H   0  0  0  0  0  0  0  0  0  0  0  0
    0.8389   -1.9755    0.5586 H   0  0  0  0  0  0  0  0  0  0  0  0
   -0.9779   -1.8702   -1.5162 H   0  0  0  0  0  0  0  0  0  0  0  0
   -3.0465   -1.9936   -0.1410 H   0  0  0  0  0  0  0  0  0  0  0  0
   -2.0793   -1.5935    1.3748 H   0  0  0  0  0  0  0  0  0  0  0  0
   -2.3938    0.1637   -1.2121 H   0  0  0  0  0  0  0  0  0  0  0  0
   -0.2511    2.4628    0.8555 H   0  0  0  0  0  0  0  0  0  0  0  0
   -1.0240    2.3942   -0.7378 H   0  0  0  0  0  0  0  0  0  0  0  0
    0.7418    1.0897   -1.6412 H   0  0  0  0  0  0  0  0  0  0  0  0
    1.5963    2.0218   -0.3662 H   0  0  0  0  0  0  0  0  0  0  0  0
  1  2  1  0
  2  3  2  0
  3  4  1  0
  4  5  1  0
  5  6  1  0
  6  7  1  0
  7  8  1  0
  8  9  1  0
  9  2  1  0
  6  4  1  0
  1 10  1  0
  1 11  1  0
  1 12  1  0
  3 13  1  0
  4 14  1  0
  5 15  1  0
  5 16  1  0
  6 17  1  0
  8 18  1  0
  8 19  1  0
  9 20  1  0
  9 21  1  0
M  END
