
     RDKit          3D

 17 18  0  0  0  0  0  0  0  0999 V2000
    2.4770   -0.1540   -0.3017 C   0  0  0  0  0  0  0  0  0  0  0  0
    1.0047    0.0148   -0.2167 C   0  0  0  0  0  0  0  0  0  0  0  0
    0.0052   -0.6183   -0.8372 C   0  0  0  0  0  0  0  0  0  0  0  0
   -1.1780    0.1179   -0.2472 C   0  0  0  0  0  0  0  0  0  0  0  0
   -2.4820   -0.2548   -0.6304 C   0  0  0  0  0  0  0  0  0  0  0  0
   -2.8441   -1.4184   -0.6036 O   0  0  0  0  0  0  0  0  0  0  0  0
   -0.7986    0.1022    1.2381 C   0  0  0  0  0  0  0  0  0  0  0  0
    0.2475    0.9893    0.6325 C   0  0  0  0  0  0  0  0  0  0  0  0
   -0.7462    1.4154   -0.2678 O   0  0  0  0  0  0  0  0  0  0  0  0
    2.9440    0.5577   -1.0150 H   0  0  0  0  0  0  0  0  0  0  0  0
    2.9648   -0.0129    0.7028 H   0  0  0  0  0  0  0  0  0  0  0  0
    2.7573   -1.1897   -0.6040 H   0  0  0  0  0  0  0  0  0  0  0  0
   -0.0135   -1.4187   -1.5518 H   0  0  0  0  0  0  0  0  0  0  0  0
   -3.2347    0.4673   -0.9693 H   0  0  0  0  0  0  0  0  0  0  0  0
   -0.3479   -0.8566    1.5570 H   0  0  0  0  0  0  0  0  0  0  0  0
   -1.5244    0.5576    1.9073 H   0  0  0  0  0  0  0  0  0  0  0  0
    0.7688    1.7011    1.2068 H   0  0  0  0  0  0  0  0  0  0  0  0
  1  2  1  0
  2  3  2  0
  3  4  1  0
  4  5  1  0
  5  6  2  0
  4  7  1  0
  7  8  1  0
  8  9  1  0
  8  2  1  0
  9  4  1  0
  1 10  1  0
  1 11  1  0
  1 12  1  0
  3 13  1  0
  5 14  1  0
  7 15  1  0
  7 16  1  0
  8 17  1  0
M  END
