
     RDKit          3D

 21 22  0  0  0  0  0  0  0  0999 V2000
    2.4371    0.2476   -0.8695 C   0  0  0  0  0  0  0  0  0  0  0  0
    1.0703   -0.0895   -0.3836 C   0  0  0  0  0  0  0  0  0  0  0  0
    0.2348   -0.9996   -0.8684 C   0  0  0  0  0  0  0  0  0  0  0  0
   -0.8932   -1.2394    0.0629 C   0  0  0  0  0  0  0  0  0  0  0  0
   -2.0393   -0.3005   -0.2901 C   0  0  0  0  0  0  0  0  0  0  0  0
   -1.4877    0.8842   -0.7142 O   0  0  0  0  0  0  0  0  0  0  0  0
   -0.6575    1.4949    0.1904 C   0  0  0  0  0  0  0  0  0  0  0  0
    0.3718    0.5491    0.7655 C   0  0  0  0  0  0  0  0  0  0  0  0
   -0.3260   -0.6758    1.3741 C   0  0  0  0  0  0  0  0  0  0  0  0
    3.2070    0.1366   -0.0612 H   0  0  0  0  0  0  0  0  0  0  0  0
    2.4905    1.3112   -1.1986 H   0  0  0  0  0  0  0  0  0  0  0  0
    2.6956   -0.3577   -1.7590 H   0  0  0  0  0  0  0  0  0  0  0  0
    0.4224   -1.4735   -1.8473 H   0  0  0  0  0  0  0  0  0  0  0  0
   -1.1946   -2.2781    0.1509 H   0  0  0  0  0  0  0  0  0  0  0  0
   -2.6822   -0.1307    0.6202 H   0  0  0  0  0  0  0  0  0  0  0  0
   -2.6999   -0.6962   -1.0590 H   0  0  0  0  0  0  0  0  0  0  0  0
   -0.0740    2.2748   -0.3735 H   0  0  0  0  0  0  0  0  0  0  0  0
   -1.2239    2.0359    0.9569 H   0  0  0  0  0  0  0  0  0  0  0  0
    1.0242    1.0514    1.4656 H   0  0  0  0  0  0  0  0  0  0  0  0
    0.4379   -1.3496    1.7608 H   0  0  0  0  0  0  0  0  0  0  0  0
   -1.1133   -0.3952    2.0772 H   0  0  0  0  0  0  0  0  0  0  0  0
  1  2  1  0
  2  3  2  0
  3  4  1  0
  4  5  1  0
  5  6  1  0
  6  7  1  0
  7  8  1  0
  8  9  1  0
  8  2  1  0
  9  4  1  0
  1 10  1  0
  1 11  1  0
  1 12  1  0
  3 13  1  0
  4 14  1  0
  5 15  1  0
  5 16  1  0
  7 17  1  0
  7 18  1  0
  8 19  1  0
  9 20  1  0
  9 21  1  0
M  END
