
     RDKit          3D

 21 22  0  0  0  0  0  0  0  0999 V2000
   -2.1083   -1.4150    0.0919 C   0  0  0  0  0  0  0  0  0  0  0  0
   -0.7935   -0.7543    0.0163 C   0  0  0  0  0  0  0  0  0  0  0  0
    0.4315   -1.3005    0.2180 C   0  0  0  0  0  0  0  0  0  0  0  0
    1.3047   -0.0963   -0.0052 C   0  0  0  0  0  0  0  0  0  0  0  0
    2.7313   -0.2323    0.0375 C   0  0  0  0  0  0  0  0  0  0  0  0
    0.5870    0.9616    0.7710 C   0  0  0  0  0  0  0  0  0  0  0  0
   -0.4168    0.6551   -0.2912 C   0  0  0  0  0  0  0  0  0  0  0  0
   -1.4275    1.6097   -0.6727 C   0  0  0  0  0  0  0  0  0  0  0  0
    0.6846    0.4403   -1.1543 O   0  0  0  0  0  0  0  0  0  0  0  0
   -2.7424   -1.0413    0.9106 H   0  0  0  0  0  0  0  0  0  0  0  0
   -2.6607   -1.3949   -0.8740 H   0  0  0  0  0  0  0  0  0  0  0  0
   -1.9263   -2.4935    0.3065 H   0  0  0  0  0  0  0  0  0  0  0  0
    0.6968   -2.3164    0.4684 H   0  0  0  0  0  0  0  0  0  0  0  0
    3.0315   -1.3162    0.1094 H   0  0  0  0  0  0  0  0  0  0  0  0
    3.2679    0.2497    0.9045 H   0  0  0  0  0  0  0  0  0  0  0  0
    3.2031    0.1192   -0.9162 H   0  0  0  0  0  0  0  0  0  0  0  0
    1.0271    1.9671    0.7687 H   0  0  0  0  0  0  0  0  0  0  0  0
    0.2536    0.6448    1.7844 H   0  0  0  0  0  0  0  0  0  0  0  0
   -1.3123    1.8884   -1.7620 H   0  0  0  0  0  0  0  0  0  0  0  0
   -2.4544    1.2236   -0.5779 H   0  0  0  0  0  0  0  0  0  0  0  0
   -1.3768    2.6010   -0.1335 H   0  0  0  0  0  0  0  0  0  0  0  0
  1  2  1  0
  2  3  2  0
  3  4  1  0
  4  5  1  0
  4  6  1  0
  6  7  1  0
  7  8  1  0
  7  9  1  0
  7  2  1  0
  9  4  1  0
  1 10  1  0
  1 11  1  0
  1 12  1  0
  3 13  1  0
  5 14  1  0
  5 15  1  0
  5 16  1  0
  6 17  1  0
  6 18  1  0
  8 19  1  0
  8 20  1  0
  8 21  1  0
M  END
