
     RDKit          3D

 21 22  0  0  0  0  0  0  0  0999 V2000
    2.5229    0.5133    0.3016 C   0  0  0  0  0  0  0  0  0  0  0  0
    1.0734    0.1368    0.2698 C   0  0  0  0  0  0  0  0  0  0  0  0
    0.1947    0.8971    0.8784 C   0  0  0  0  0  0  0  0  0  0  0  0
   -1.2716    0.6800    0.7678 C   0  0  0  0  0  0  0  0  0  0  0  0
   -1.6459    1.0961   -0.5990 C   0  0  0  0  0  0  0  0  0  0  0  0
   -1.0977    0.2350   -1.4328 C   0  0  0  0  0  0  0  0  0  0  0  0
   -0.8115   -1.0548   -0.7019 C   0  0  0  0  0  0  0  0  0  0  0  0
    0.6786   -1.1182   -0.4707 C   0  0  0  0  0  0  0  0  0  0  0  0
   -1.4509   -0.8262    0.6590 C   0  0  0  0  0  0  0  0  0  0  0  0
    2.7071    1.2886   -0.4981 H   0  0  0  0  0  0  0  0  0  0  0  0
    3.1336   -0.3750    0.0860 H   0  0  0  0  0  0  0  0  0  0  0  0
    2.8085    0.9903    1.2465 H   0  0  0  0  0  0  0  0  0  0  0  0
    0.5392    1.7138    1.4848 H   0  0  0  0  0  0  0  0  0  0  0  0
   -1.8468    1.1357    1.5605 H   0  0  0  0  0  0  0  0  0  0  0  0
   -2.2454    1.9323   -0.8742 H   0  0  0  0  0  0  0  0  0  0  0  0
   -0.8509    0.3346   -2.4843 H   0  0  0  0  0  0  0  0  0  0  0  0
   -1.2124   -1.9123   -1.2296 H   0  0  0  0  0  0  0  0  0  0  0  0
    0.8384   -1.9702    0.2531 H   0  0  0  0  0  0  0  0  0  0  0  0
    1.2630   -1.2597   -1.3761 H   0  0  0  0  0  0  0  0  0  0  0  0
   -0.8336   -1.2962    1.4532 H   0  0  0  0  0  0  0  0  0  0  0  0
   -2.4926   -1.1409    0.7060 H   0  0  0  0  0  0  0  0  0  0  0  0
  1  2  1  0
  2  3  2  0
  3  4  1  0
  4  5  1  0
  5  6  2  0
  6  7  1  0
  7  8  1  0
  7  9  1  0
  8  2  1  0
  9  4  1  0
  1 10  1  0
  1 11  1  0
  1 12  1  0
  3 13  1  0
  4 14  1  0
  5 15  1  0
  6 16  1  0
  7 17  1  0
  8 18  1  0
  8 19  1  0
  9 20  1  0
  9 21  1  0
M  END
