
     RDKit          3D

 21 22  0  0  0  0  0  0  0  0999 V2000
    2.2570    0.0436    0.8273 C   0  0  0  0  0  0  0  0  0  0  0  0
    0.9362   -0.1950    0.1853 C   0  0  0  0  0  0  0  0  0  0  0  0
    0.6367   -1.3057   -0.4898 C   0  0  0  0  0  0  0  0  0  0  0  0
   -0.8099   -1.1113   -0.9566 C   0  0  0  0  0  0  0  0  0  0  0  0
   -1.2648   -0.4790    0.3229 C   0  0  0  0  0  0  0  0  0  0  0  0
   -0.9563   -1.4265    1.3461 O   0  0  0  0  0  0  0  0  0  0  0  0
   -1.4129    0.8189    0.8165 C   0  0  0  0  0  0  0  0  0  0  0  0
   -0.2150    0.6660    0.1075 C   0  0  0  0  0  0  0  0  0  0  0  0
   -0.2392    1.3625   -1.2692 C   0  0  0  0  0  0  0  0  0  0  0  0
    3.0019   -0.7285    0.5588 H   0  0  0  0  0  0  0  0  0  0  0  0
    2.6988    1.0185    0.4760 H   0  0  0  0  0  0  0  0  0  0  0  0
    2.1733    0.0425    1.9310 H   0  0  0  0  0  0  0  0  0  0  0  0
    1.2563   -2.1755   -0.6851 H   0  0  0  0  0  0  0  0  0  0  0  0
   -0.8781   -0.5129   -1.8523 H   0  0  0  0  0  0  0  0  0  0  0  0
   -1.2676   -2.0886   -1.1019 H   0  0  0  0  0  0  0  0  0  0  0  0
   -1.6153   -1.2971    2.0926 H   0  0  0  0  0  0  0  0  0  0  0  0
   -2.2478    1.4477    0.4224 H   0  0  0  0  0  0  0  0  0  0  0  0
   -1.3263    1.0404    1.9218 H   0  0  0  0  0  0  0  0  0  0  0  0
   -1.2730    1.4695   -1.6556 H   0  0  0  0  0  0  0  0  0  0  0  0
    0.0646    2.4241   -1.0195 H   0  0  0  0  0  0  0  0  0  0  0  0
    0.4814    0.9864   -1.9781 H   0  0  0  0  0  0  0  0  0  0  0  0
  1  2  1  0
  2  3  2  0
  3  4  1  0
  4  5  1  0
  5  6  1  0
  5  7  1  0
  7  8  1  0
  8  9  1  0
  8  2  1  0
  8  5  1  0
  1 10  1  0
  1 11  1  0
  1 12  1  0
  3 13  1  0
  4 14  1  0
  4 15  1  0
  6 16  1  0
  7 17  1  0
  7 18  1  0
  9 19  1  0
  9 20  1  0
  9 21  1  0
M  END
