
     RDKit          3D

 21 22  0  0  0  0  0  0  0  0999 V2000
   -1.4988    2.1021   -0.4076 C   0  0  0  0  0  0  0  0  0  0  0  0
   -1.0008    0.7158   -0.1529 C   0  0  0  0  0  0  0  0  0  0  0  0
    0.2314    0.3080    0.0553 C   0  0  0  0  0  0  0  0  0  0  0  0
    1.6347    0.7646    0.1638 C   0  0  0  0  0  0  0  0  0  0  0  0
    2.3963   -0.4502   -0.2917 C   0  0  0  0  0  0  0  0  0  0  0  0
    1.5314   -1.5760    0.0796 C   0  0  0  0  0  0  0  0  0  0  0  0
    0.3137   -1.1337    0.2711 C   0  0  0  0  0  0  0  0  0  0  0  0
   -1.0818   -1.5598    0.6365 C   0  0  0  0  0  0  0  0  0  0  0  0
   -1.8683   -0.4842   -0.0898 C   0  0  0  0  0  0  0  0  0  0  0  0
   -2.4582    2.2499    0.1390 H   0  0  0  0  0  0  0  0  0  0  0  0
   -1.6465    2.2984   -1.4893 H   0  0  0  0  0  0  0  0  0  0  0  0
   -0.7780    2.8650   -0.0472 H   0  0  0  0  0  0  0  0  0  0  0  0
    1.8372    1.6538   -0.4666 H   0  0  0  0  0  0  0  0  0  0  0  0
    1.8944    0.9301    1.2344 H   0  0  0  0  0  0  0  0  0  0  0  0
    2.5370   -0.3794   -1.4077 H   0  0  0  0  0  0  0  0  0  0  0  0
    3.3955   -0.4860    0.1915 H   0  0  0  0  0  0  0  0  0  0  0  0
    1.9135   -2.6076    0.1653 H   0  0  0  0  0  0  0  0  0  0  0  0
   -1.1974   -1.5116    1.7298 H   0  0  0  0  0  0  0  0  0  0  0  0
   -1.2984   -2.5750    0.2570 H   0  0  0  0  0  0  0  0  0  0  0  0
   -2.0926   -0.8554   -1.0969 H   0  0  0  0  0  0  0  0  0  0  0  0
   -2.7644   -0.2687    0.5264 H   0  0  0  0  0  0  0  0  0  0  0  0
  1  2  1  0
  2  3  2  0
  3  4  1  0
  4  5  1  0
  5  6  1  0
  6  7  2  0
  7  8  1  0
  8  9  1  0
  9  2  1  0
  7  3  1  0
  1 10  1  0
  1 11  1  0
  1 12  1  0
  4 13  1  0
  4 14  1  0
  5 15  1  0
  5 16  1  0
  6 17  1  0
  8 18  1  0
  8 19  1  0
  9 20  1  0
  9 21  1  0
M  END
