
     RDKit          3D

 21 22  0  0  0  0  0  0  0  0999 V2000
    2.2948   -0.8880   -0.2258 C   0  0  0  0  0  0  0  0  0  0  0  0
    1.1907    0.0787    0.0166 C   0  0  0  0  0  0  0  0  0  0  0  0
    0.8802    1.1603   -0.6949 C   0  0  0  0  0  0  0  0  0  0  0  0
   -0.2646    1.7977    0.0137 C   0  0  0  0  0  0  0  0  0  0  0  0
   -1.5238    0.9912   -0.1948 C   0  0  0  0  0  0  0  0  0  0  0  0
   -1.1987   -0.2717    0.5989 C   0  0  0  0  0  0  0  0  0  0  0  0
   -1.2080   -1.4682   -0.3152 C   0  0  0  0  0  0  0  0  0  0  0  0
    0.1895    0.0462    1.1115 C   0  0  0  0  0  0  0  0  0  0  0  0
    0.0443    1.4378    1.3494 O   0  0  0  0  0  0  0  0  0  0  0  0
    3.2204   -0.6059    0.3573 H   0  0  0  0  0  0  0  0  0  0  0  0
    2.5962   -0.8772   -1.2842 H   0  0  0  0  0  0  0  0  0  0  0  0
    2.0125   -1.8912    0.1512 H   0  0  0  0  0  0  0  0  0  0  0  0
    1.3504    1.5188   -1.6027 H   0  0  0  0  0  0  0  0  0  0  0  0
   -0.3627    2.8564   -0.1352 H   0  0  0  0  0  0  0  0  0  0  0  0
   -2.3532    1.5256    0.3092 H   0  0  0  0  0  0  0  0  0  0  0  0
   -1.7197    0.7489   -1.2434 H   0  0  0  0  0  0  0  0  0  0  0  0
   -1.8615   -0.4055    1.4530 H   0  0  0  0  0  0  0  0  0  0  0  0
   -1.4294   -2.3735    0.2573 H   0  0  0  0  0  0  0  0  0  0  0  0
   -2.0775   -1.3137   -1.0159 H   0  0  0  0  0  0  0  0  0  0  0  0
   -0.2661   -1.5616   -0.8970 H   0  0  0  0  0  0  0  0  0  0  0  0
    0.4862   -0.5050    1.9910 H   0  0  0  0  0  0  0  0  0  0  0  0
  1  2  1  0
  2  3  2  0
  3  4  1  0
  4  5  1  0
  5  6  1  0
  6  7  1  0
  6  8  1  0
  8  9  1  0
  8  2  1  0
  9  4  1  0
  1 10  1  0
  1 11  1  0
  1 12  1  0
  3 13  1  0
  4 14  1  0
  5 15  1  0
  5 16  1  0
  6 17  1  0
  7 18  1  0
  7 19  1  0
  7 20  1  0
  8 21  1  0
M  END
