
     RDKit          3D

 17 18  0  0  0  0  0  0  0  0999 V2000
    2.2144    0.6526    0.0342 C   0  0  0  0  0  0  0  0  0  0  0  0
    0.8673    0.0063    0.0510 C   0  0  0  0  0  0  0  0  0  0  0  0
   -0.2477    0.6810    0.0360 C   0  0  0  0  0  0  0  0  0  0  0  0
   -1.4066    1.5814    0.0153 C   0  0  0  0  0  0  0  0  0  0  0  0
   -2.0398    0.5405   -0.7337 O   0  0  0  0  0  0  0  0  0  0  0  0
   -1.4043   -0.3106    0.1238 C   0  0  0  0  0  0  0  0  0  0  0  0
   -0.7787   -1.5745   -0.4010 C   0  0  0  0  0  0  0  0  0  0  0  0
    0.6575   -1.4262    0.0606 C   0  0  0  0  0  0  0  0  0  0  0  0
    1.4841   -2.2960    0.3784 O   0  0  0  0  0  0  0  0  0  0  0  0
    2.8137    0.1371    0.8263 H   0  0  0  0  0  0  0  0  0  0  0  0
    2.1681    1.7316    0.2570 H   0  0  0  0  0  0  0  0  0  0  0  0
    2.7264    0.5302   -0.9295 H   0  0  0  0  0  0  0  0  0  0  0  0
   -1.3124    2.5198   -0.5340 H   0  0  0  0  0  0  0  0  0  0  0  0
   -1.8682    1.6951    1.0160 H   0  0  0  0  0  0  0  0  0  0  0  0
   -1.8344   -0.3599    1.1273 H   0  0  0  0  0  0  0  0  0  0  0  0
   -1.2061   -2.4201    0.1580 H   0  0  0  0  0  0  0  0  0  0  0  0
   -0.8332   -1.6883   -1.4857 H   0  0  0  0  0  0  0  0  0  0  0  0
  1  2  1  0
  2  3  2  0
  3  4  1  0
  4  5  1  0
  5  6  1  0
  6  7  1  0
  7  8  1  0
  8  9  2  0
  8  2  1  0
  6  3  1  0
  1 10  1  0
  1 11  1  0
  1 12  1  0
  4 13  1  0
  4 14  1  0
  6 15  1  0
  7 16  1  0
  7 17  1  0
M  END
