
     RDKit          3D

 18 18  0  0  0  0  0  0  0  0999 V2000
   -1.5529   -1.4357    0.3125 C   0  0  0  0  0  0  0  0  0  0  0  0
   -0.8346   -0.1535    0.1425 C   0  0  0  0  0  0  0  0  0  0  0  0
   -1.3027    1.0308    0.4907 C   0  0  0  0  0  0  0  0  0  0  0  0
   -0.2811    2.0335    0.1526 C   0  0  0  0  0  0  0  0  0  0  0  0
    0.8372    1.3514   -0.2921 O   0  0  0  0  0  0  0  0  0  0  0  0
    0.5065    0.0261   -0.4349 C   0  0  0  0  0  0  0  0  0  0  0  0
    1.5399   -0.8873    0.1841 C   0  0  0  0  0  0  0  0  0  0  0  0
    2.7567   -0.6329   -0.4741 O   0  0  0  0  0  0  0  0  0  0  0  0
   -2.6396   -1.2796    0.5342 H   0  0  0  0  0  0  0  0  0  0  0  0
   -1.0901   -2.0939    1.0679 H   0  0  0  0  0  0  0  0  0  0  0  0
   -1.5237   -1.9554   -0.6811 H   0  0  0  0  0  0  0  0  0  0  0  0
   -2.2583    1.2180    0.9394 H   0  0  0  0  0  0  0  0  0  0  0  0
   -0.6248    2.7333   -0.6621 H   0  0  0  0  0  0  0  0  0  0  0  0
    0.0375    2.6483    1.0272 H   0  0  0  0  0  0  0  0  0  0  0  0
    0.5060   -0.2011   -1.5284 H   0  0  0  0  0  0  0  0  0  0  0  0
    1.2755   -1.9380   -0.0923 H   0  0  0  0  0  0  0  0  0  0  0  0
    1.6229   -0.7930    1.2670 H   0  0  0  0  0  0  0  0  0  0  0  0
    3.0257    0.3291   -0.3370 H   0  0  0  0  0  0  0  0  0  0  0  0
  1  2  1  0
  2  3  2  0
  3  4  1  0
  4  5  1  0
  5  6  1  0
  6  7  1  0
  7  8  1  0
  6  2  1  0
  1  9  1  0
  1 10  1  0
  1 11  1  0
  3 12  1  0
  4 13  1  0
  4 14  1  0
  6 15  1  0
  7 16  1  0
  7 17  1  0
  8 18  1  0
M  END
