
     RDKit          3D

 19 19  0  0  0  0  0  0  0  0999 V2000
    2.4144   -0.1189    0.1750 C   0  0  0  0  0  0  0  0  0  0  0  0
    0.9190   -0.2276    0.0999 C   0  0  0  0  0  0  0  0  0  0  0  0
    0.1765   -1.3085    0.2701 C   0  0  0  0  0  0  0  0  0  0  0  0
   -1.2754   -1.0575    0.1255 C   0  0  0  0  0  0  0  0  0  0  0  0
   -1.8229   -1.5712   -1.0214 O   0  0  0  0  0  0  0  0  0  0  0  0
   -1.3750    0.4484    0.2244 C   0  0  0  0  0  0  0  0  0  0  0  0
   -1.5390    0.8280    1.5570 O   0  0  0  0  0  0  0  0  0  0  0  0
    0.0054    0.9053   -0.1904 C   0  0  0  0  0  0  0  0  0  0  0  0
    0.0259    1.2549   -1.5356 O   0  0  0  0  0  0  0  0  0  0  0  0
    2.8512   -0.8432    0.8650 H   0  0  0  0  0  0  0  0  0  0  0  0
    2.6701    0.8960    0.5431 H   0  0  0  0  0  0  0  0  0  0  0  0
    2.8874   -0.2537   -0.8066 H   0  0  0  0  0  0  0  0  0  0  0  0
    0.6592   -2.2830    0.4981 H   0  0  0  0  0  0  0  0  0  0  0  0
   -1.7729   -1.5218    1.0236 H   0  0  0  0  0  0  0  0  0  0  0  0
   -1.1006   -1.8481   -1.6304 H   0  0  0  0  0  0  0  0  0  0  0  0
   -2.1504    0.8749   -0.4394 H   0  0  0  0  0  0  0  0  0  0  0  0
   -1.6090    1.8343    1.5644 H   0  0  0  0  0  0  0  0  0  0  0  0
    0.3100    1.8284    0.3706 H   0  0  0  0  0  0  0  0  0  0  0  0
   -0.2737    2.1634   -1.6929 H   0  0  0  0  0  0  0  0  0  0  0  0
  1  2  1  0
  2  3  2  0
  3  4  1  0
  4  5  1  0
  4  6  1  0
  6  7  1  0
  6  8  1  0
  8  9  1  0
  8  2  1  0
  1 10  1  0
  1 11  1  0
  1 12  1  0
  3 13  1  0
  4 14  1  0
  5 15  1  0
  6 16  1  0
  7 17  1  0
  8 18  1  0
  9 19  1  0
M  END
