
     RDKit          3D

 21 22  0  0  0  0  0  0  0  0999 V2000
   -2.8297   -0.4219    0.4758 C   0  0  0  0  0  0  0  0  0  0  0  0
   -1.3942   -0.1695    0.1998 C   0  0  0  0  0  0  0  0  0  0  0  0
   -0.3111   -0.8429    0.6248 C   0  0  0  0  0  0  0  0  0  0  0  0
    0.7936   -0.1321   -0.0595 C   0  0  0  0  0  0  0  0  0  0  0  0
    2.1551   -0.5263    0.0947 C   0  0  0  0  0  0  0  0  0  0  0  0
    2.6353   -0.4819    1.4017 O   0  0  0  0  0  0  0  0  0  0  0  0
    0.2045    0.0926   -1.4374 C   0  0  0  0  0  0  0  0  0  0  0  0
   -0.8243    0.9031   -0.6223 C   0  0  0  0  0  0  0  0  0  0  0  0
    0.3936    1.3285    0.1856 C   0  0  0  0  0  0  0  0  0  0  0  0
   -3.4161   -0.5702   -0.4692 H   0  0  0  0  0  0  0  0  0  0  0  0
   -2.9915   -1.3428    1.0675 H   0  0  0  0  0  0  0  0  0  0  0  0
   -3.3083    0.4508    0.9751 H   0  0  0  0  0  0  0  0  0  0  0  0
   -0.2397   -1.6905    1.2951 H   0  0  0  0  0  0  0  0  0  0  0  0
    2.3274   -1.5352   -0.3311 H   0  0  0  0  0  0  0  0  0  0  0  0
    2.8258    0.1686   -0.4856 H   0  0  0  0  0  0  0  0  0  0  0  0
    3.6153   -0.3613    1.3845 H   0  0  0  0  0  0  0  0  0  0  0  0
    0.7918    0.7301   -2.1121 H   0  0  0  0  0  0  0  0  0  0  0  0
   -0.2590   -0.7985   -1.8593 H   0  0  0  0  0  0  0  0  0  0  0  0
   -1.4031    1.6181   -1.1209 H   0  0  0  0  0  0  0  0  0  0  0  0
    0.2128    1.5939    1.2207 H   0  0  0  0  0  0  0  0  0  0  0  0
    1.0219    1.9872   -0.4281 H   0  0  0  0  0  0  0  0  0  0  0  0
  1  2  1  0
  2  3  2  0
  3  4  1  0
  4  5  1  0
  5  6  1  0
  4  7  1  0
  7  8  1  0
  8  9  1  0
  8  2  1  0
  9  4  1  0
  1 10  1  0
  1 11  1  0
  1 12  1  0
  3 13  1  0
  5 14  1  0
  5 15  1  0
  6 16  1  0
  7 17  1  0
  7 18  1  0
  8 19  1  0
  9 20  1  0
  9 21  1  0
M  END
