
     RDKit          3D

 17 17  0  0  0  0  0  0  0  0999 V2000
   -0.7273    1.8165   -0.0793 C   0  0  0  0  0  0  0  0  0  0  0  0
    0.1850    0.6517   -0.0355 C   0  0  0  0  0  0  0  0  0  0  0  0
    1.4521    0.5313   -0.4104 C   0  0  0  0  0  0  0  0  0  0  0  0
    1.8895   -0.8750   -0.1425 C   0  0  0  0  0  0  0  0  0  0  0  0
    0.7126   -1.5764   -0.1239 O   0  0  0  0  0  0  0  0  0  0  0  0
   -0.1896   -0.6931    0.4763 C   0  0  0  0  0  0  0  0  0  0  0  0
   -1.5998   -1.0817    0.0929 C   0  0  0  0  0  0  0  0  0  0  0  0
   -1.2900    1.8130   -1.0263 H   0  0  0  0  0  0  0  0  0  0  0  0
   -0.1635    2.7819   -0.0518 H   0  0  0  0  0  0  0  0  0  0  0  0
   -1.4448    1.8245    0.7802 H   0  0  0  0  0  0  0  0  0  0  0  0
    2.0348    1.3543   -0.8384 H   0  0  0  0  0  0  0  0  0  0  0  0
    2.4986   -0.9593    0.7711 H   0  0  0  0  0  0  0  0  0  0  0  0
    2.4826   -1.1935   -0.9978 H   0  0  0  0  0  0  0  0  0  0  0  0
   -0.0152   -0.7552    1.5696 H   0  0  0  0  0  0  0  0  0  0  0  0
   -2.0513   -1.5747    0.9886 H   0  0  0  0  0  0  0  0  0  0  0  0
   -1.5572   -1.8268   -0.7399 H   0  0  0  0  0  0  0  0  0  0  0  0
   -2.2166   -0.2375   -0.2330 H   0  0  0  0  0  0  0  0  0  0  0  0
  1  2  1  0
  2  3  2  0
  3  4  1  0
  4  5  1  0
  5  6  1  0
  6  7  1  0
  6  2  1  0
  1  8  1  0
  1  9  1  0
  1 10  1  0
  3 11  1  0
  4 12  1  0
  4 13  1  0
  6 14  1  0
  7 15  1  0
  7 16  1  0
  7 17  1  0
M  END
