
     RDKit          3D

 21 22  0  0  0  0  0  0  0  0999 V2000
   -1.6571    1.4555   -0.2925 C   0  0  0  0  0  0  0  0  0  0  0  0
   -0.4069    0.6578    0.0001 C   0  0  0  0  0  0  0  0  0  0  0  0
   -0.4905   -0.6204    0.2690 C   0  0  0  0  0  0  0  0  0  0  0  0
   -1.8001   -1.3238    0.2958 C   0  0  0  0  0  0  0  0  0  0  0  0
    0.7460   -1.3827    0.5533 C   0  0  0  0  0  0  0  0  0  0  0  0
    1.9565   -0.8336   -0.1760 C   0  0  0  0  0  0  0  0  0  0  0  0
    1.8067   -0.3312   -1.4581 O   0  0  0  0  0  0  0  0  0  0  0  0
    2.0526    0.5354   -0.3412 C   0  0  0  0  0  0  0  0  0  0  0  0
    0.8632    1.4050   -0.0402 C   0  0  0  0  0  0  0  0  0  0  0  0
   -1.4497    2.1112   -1.1737 H   0  0  0  0  0  0  0  0  0  0  0  0
   -2.4882    0.8045   -0.5744 H   0  0  0  0  0  0  0  0  0  0  0  0
   -1.8890    2.1389    0.5504 H   0  0  0  0  0  0  0  0  0  0  0  0
   -2.5400   -0.7947    0.9523 H   0  0  0  0  0  0  0  0  0  0  0  0
   -2.1936   -1.4792   -0.7327 H   0  0  0  0  0  0  0  0  0  0  0  0
   -1.6930   -2.3401    0.7353 H   0  0  0  0  0  0  0  0  0  0  0  0
    0.5623   -2.4435    0.2127 H   0  0  0  0  0  0  0  0  0  0  0  0
    0.9231   -1.3494    1.6526 H   0  0  0  0  0  0  0  0  0  0  0  0
    2.8614   -1.4644   -0.0050 H   0  0  0  0  0  0  0  0  0  0  0  0
    3.0051    1.0982   -0.3948 H   0  0  0  0  0  0  0  0  0  0  0  0
    0.7887    2.1331   -0.8945 H   0  0  0  0  0  0  0  0  0  0  0  0
    1.0425    2.0235    0.8615 H   0  0  0  0  0  0  0  0  0  0  0  0
  1  2  1  0
  2  3  2  0
  3  4  1  0
  3  5  1  0
  5  6  1  0
  6  7  1  0
  7  8  1  0
  8  9  1  0
  9  2  1  0
  8  6  1  0
  1 10  1  0
  1 11  1  0
  1 12  1  0
  4 13  1  0
  4 14  1  0
  4 15  1  0
  5 16  1  0
  5 17  1  0
  6 18  1  0
  8 19  1  0
  9 20  1  0
  9 21  1  0
M  END
