
     RDKit          3D

 19 20  0  0  0  0  0  0  0  0999 V2000
    2.7434   -0.1274   -0.5393 C   0  0  0  0  0  0  0  0  0  0  0  0
    1.3631    0.0755   -0.0381 C   0  0  0  0  0  0  0  0  0  0  0  0
    0.9786   -0.2724    1.1797 C   0  0  0  0  0  0  0  0  0  0  0  0
   -0.4507    0.0546    1.3866 C   0  0  0  0  0  0  0  0  0  0  0  0
   -0.9738    0.2119   -0.0013 C   0  0  0  0  0  0  0  0  0  0  0  0
   -2.3335    0.6074   -0.3153 C   0  0  0  0  0  0  0  0  0  0  0  0
   -1.8165   -0.8029   -0.6526 C   0  0  0  0  0  0  0  0  0  0  0  0
    0.2124    0.6698   -0.7539 C   0  0  0  0  0  0  0  0  0  0  0  0
    0.2969    1.3972   -1.7751 O   0  0  0  0  0  0  0  0  0  0  0  0
    2.8388    0.0882   -1.6134 H   0  0  0  0  0  0  0  0  0  0  0  0
    3.0281   -1.2076   -0.3738 H   0  0  0  0  0  0  0  0  0  0  0  0
    3.4916    0.4826    0.0397 H   0  0  0  0  0  0  0  0  0  0  0  0
    1.6000   -0.7391    1.9546 H   0  0  0  0  0  0  0  0  0  0  0  0
   -0.4861    1.0455    1.9063 H   0  0  0  0  0  0  0  0  0  0  0  0
   -0.9733   -0.7147    1.9873 H   0  0  0  0  0  0  0  0  0  0  0  0
   -3.0632    0.6105    0.5433 H   0  0  0  0  0  0  0  0  0  0  0  0
   -2.6505    1.2309   -1.1500 H   0  0  0  0  0  0  0  0  0  0  0  0
   -1.6561   -0.9680   -1.7517 H   0  0  0  0  0  0  0  0  0  0  0  0
   -2.1492   -1.6419   -0.0330 H   0  0  0  0  0  0  0  0  0  0  0  0
  1  2  1  0
  2  3  2  0
  3  4  1  0
  4  5  1  0
  5  6  1  0
  6  7  1  0
  5  8  1  0
  8  9  2  0
  8  2  1  0
  7  5  1  0
  1 10  1  0
  1 11  1  0
  1 12  1  0
  3 13  1  0
  4 14  1  0
  4 15  1  0
  6 16  1  0
  6 17  1  0
  7 18  1  0
  7 19  1  0
M  END
