
     RDKit          3D

 21 21  0  0  0  0  0  0  0  0999 V2000
   -0.5969    2.4349   -0.0824 C   0  0  0  0  0  0  0  0  0  0  0  0
   -0.6776    0.9404    0.0560 C   0  0  0  0  0  0  0  0  0  0  0  0
   -1.8167    0.2944   -0.0844 C   0  0  0  0  0  0  0  0  0  0  0  0
   -1.5743   -1.1523    0.1071 C   0  0  0  0  0  0  0  0  0  0  0  0
   -0.2475   -1.2066    0.8166 C   0  0  0  0  0  0  0  0  0  0  0  0
    0.4711    0.0595    0.3602 C   0  0  0  0  0  0  0  0  0  0  0  0
    1.3187   -0.2245   -0.8585 C   0  0  0  0  0  0  0  0  0  0  0  0
    2.4568   -1.1119   -0.4985 C   0  0  0  0  0  0  0  0  0  0  0  0
    2.6068   -1.5104    0.6597 O   0  0  0  0  0  0  0  0  0  0  0  0
   -1.3388    2.8135   -0.8068 H   0  0  0  0  0  0  0  0  0  0  0  0
   -0.8070    2.8986    0.9133 H   0  0  0  0  0  0  0  0  0  0  0  0
    0.4122    2.7507   -0.4205 H   0  0  0  0  0  0  0  0  0  0  0  0
   -2.8113    0.7504   -0.3111 H   0  0  0  0  0  0  0  0  0  0  0  0
   -2.3620   -1.6267    0.7336 H   0  0  0  0  0  0  0  0  0  0  0  0
   -1.4875   -1.6848   -0.8596 H   0  0  0  0  0  0  0  0  0  0  0  0
    0.2693   -2.1167    0.4939 H   0  0  0  0  0  0  0  0  0  0  0  0
   -0.3418   -1.2497    1.9209 H   0  0  0  0  0  0  0  0  0  0  0  0
    1.0431    0.5287    1.1862 H   0  0  0  0  0  0  0  0  0  0  0  0
    0.6624   -0.8143   -1.5554 H   0  0  0  0  0  0  0  0  0  0  0  0
    1.6238    0.6766   -1.3840 H   0  0  0  0  0  0  0  0  0  0  0  0
    3.1971   -1.4499   -1.2081 H   0  0  0  0  0  0  0  0  0  0  0  0
  1  2  1  0
  2  3  2  0
  3  4  1  0
  4  5  1  0
  5  6  1  0
  6  7  1  0
  7  8  1  0
  8  9  2  0
  6  2  1  0
  1 10  1  0
  1 11  1  0
  1 12  1  0
  3 13  1  0
  4 14  1  0
  4 15  1  0
  5 16  1  0
  5 17  1  0
  6 18  1  0
  7 19  1  0
  7 20  1  0
  8 21  1  0
M  END
