
     RDKit          3D

 16 16  0  0  0  0  0  0  0  0999 V2000
   -2.0776    0.3532   -0.0630 C   0  0  0  0  0  0  0  0  0  0  0  0
   -0.5808    0.2314    0.0470 C   0  0  0  0  0  0  0  0  0  0  0  0
    0.1542    1.2256   -0.3632 C   0  0  0  0  0  0  0  0  0  0  0  0
    1.6097    1.1943   -0.2964 C   0  0  0  0  0  0  0  0  0  0  0  0
    2.3363    2.1414   -0.6846 O   0  0  0  0  0  0  0  0  0  0  0  0
    2.1357    0.0034    0.2442 O   0  0  0  0  0  0  0  0  0  0  0  0
    1.3752   -1.1972   -0.0181 C   0  0  0  0  0  0  0  0  0  0  0  0
    0.0269   -0.9867    0.6225 C   0  0  0  0  0  0  0  0  0  0  0  0
   -2.4234   -0.6444   -0.4193 H   0  0  0  0  0  0  0  0  0  0  0  0
   -2.3653    1.1172   -0.7884 H   0  0  0  0  0  0  0  0  0  0  0  0
   -2.4771    0.4884    0.9438 H   0  0  0  0  0  0  0  0  0  0  0  0
   -0.3387    2.1028   -0.7667 H   0  0  0  0  0  0  0  0  0  0  0  0
    1.1944   -1.3104   -1.1119 H   0  0  0  0  0  0  0  0  0  0  0  0
    1.8779   -2.0629    0.4252 H   0  0  0  0  0  0  0  0  0  0  0  0
   -0.6266   -1.8766    0.5268 H   0  0  0  0  0  0  0  0  0  0  0  0
    0.1793   -0.7795    1.7021 H   0  0  0  0  0  0  0  0  0  0  0  0
  1  2  1  0
  2  3  2  0
  3  4  1  0
  4  5  2  0
  4  6  1  0
  6  7  1  0
  7  8  1  0
  8  2  1  0
  1  9  1  0
  1 10  1  0
  1 11  1  0
  3 12  1  0
  7 13  1  0
  7 14  1  0
  8 15  1  0
  8 16  1  0
M  END
