
     RDKit          3D

 22 22  0  0  0  0  0  0  0  0999 V2000
   -2.7676    0.1348    0.4293 C   0  0  0  0  0  0  0  0  0  0  0  0
   -1.3744   -0.1406   -0.0022 C   0  0  0  0  0  0  0  0  0  0  0  0
   -0.6718   -1.0820    0.5856 C   0  0  0  0  0  0  0  0  0  0  0  0
    0.7010   -1.3606    0.1677 C   0  0  0  0  0  0  0  0  0  0  0  0
    1.4799   -0.1813   -0.2999 C   0  0  0  0  0  0  0  0  0  0  0  0
    2.2766    0.3857    0.8599 C   0  0  0  0  0  0  0  0  0  0  0  0
    0.6929    0.8956   -0.9595 C   0  0  0  0  0  0  0  0  0  0  0  0
   -0.7742    0.6345   -1.0878 C   0  0  0  0  0  0  0  0  0  0  0  0
   -2.8168    0.3487    1.5302 H   0  0  0  0  0  0  0  0  0  0  0  0
   -3.4517   -0.7175    0.2528 H   0  0  0  0  0  0  0  0  0  0  0  0
   -3.2025    1.0163   -0.0664 H   0  0  0  0  0  0  0  0  0  0  0  0
   -1.0903   -1.6924    1.4090 H   0  0  0  0  0  0  0  0  0  0  0  0
    0.6481   -2.1528   -0.6363 H   0  0  0  0  0  0  0  0  0  0  0  0
    1.2412   -1.8414    1.0088 H   0  0  0  0  0  0  0  0  0  0  0  0
    2.2412   -0.5512   -1.0222 H   0  0  0  0  0  0  0  0  0  0  0  0
    2.4972    1.4657    0.6489 H   0  0  0  0  0  0  0  0  0  0  0  0
    3.2211   -0.1477    1.0338 H   0  0  0  0  0  0  0  0  0  0  0  0
    1.6046    0.3717    1.7447 H   0  0  0  0  0  0  0  0  0  0  0  0
    1.0807    1.1280   -1.9748 H   0  0  0  0  0  0  0  0  0  0  0  0
    0.8037    1.8468   -0.3817 H   0  0  0  0  0  0  0  0  0  0  0  0
   -1.3581    1.5725   -1.1957 H   0  0  0  0  0  0  0  0  0  0  0  0
   -0.9808    0.0673   -2.0444 H   0  0  0  0  0  0  0  0  0  0  0  0
  1  2  1  0
  2  3  2  0
  3  4  1  0
  4  5  1  0
  5  6  1  0
  5  7  1  0
  7  8  1  0
  8  2  1  0
  1  9  1  0
  1 10  1  0
  1 11  1  0
  3 12  1  0
  4 13  1  0
  4 14  1  0
  5 15  1  0
  6 16  1  0
  6 17  1  0
  6 18  1  0
  7 19  1  0
  7 20  1  0
  8 21  1  0
  8 22  1  0
M  END
