
     RDKit          3D

 23 23  0  0  0  0  0  0  0  0999 V2000
    2.5741   -0.2520    0.5796 C   0  0  0  0  0  0  0  0  0  0  0  0
    1.1510   -0.3537    0.1926 C   0  0  0  0  0  0  0  0  0  0  0  0
    0.5080   -1.4545   -0.1578 C   0  0  0  0  0  0  0  0  0  0  0  0
   -0.9060   -1.2035   -0.4840 C   0  0  0  0  0  0  0  0  0  0  0  0
   -1.0466   -1.2137   -1.8735 O   0  0  0  0  0  0  0  0  0  0  0  0
   -1.1689    0.1742    0.0196 C   0  0  0  0  0  0  0  0  0  0  0  0
   -1.8632    0.1482    1.3717 C   0  0  0  0  0  0  0  0  0  0  0  0
    0.2122    0.7942    0.1411 C   0  0  0  0  0  0  0  0  0  0  0  0
    0.4759    1.6774   -1.0583 C   0  0  0  0  0  0  0  0  0  0  0  0
    3.2120   -1.0151    0.1073 H   0  0  0  0  0  0  0  0  0  0  0  0
    2.9599    0.7781    0.3567 H   0  0  0  0  0  0  0  0  0  0  0  0
    2.6061   -0.3407    1.7039 H   0  0  0  0  0  0  0  0  0  0  0  0
    0.9561   -2.4632   -0.2089 H   0  0  0  0  0  0  0  0  0  0  0  0
   -1.5963   -1.9299    0.0073 H   0  0  0  0  0  0  0  0  0  0  0  0
   -1.8569   -1.6492   -2.1823 H   0  0  0  0  0  0  0  0  0  0  0  0
   -1.7999    0.7229   -0.7133 H   0  0  0  0  0  0  0  0  0  0  0  0
   -2.8512    0.6472    1.2908 H   0  0  0  0  0  0  0  0  0  0  0  0
   -2.0082   -0.8689    1.7451 H   0  0  0  0  0  0  0  0  0  0  0  0
   -1.2827    0.7191    2.1395 H   0  0  0  0  0  0  0  0  0  0  0  0
    0.2171    1.3987    1.0724 H   0  0  0  0  0  0  0  0  0  0  0  0
   -0.5145    1.9949   -1.4412 H   0  0  0  0  0  0  0  0  0  0  0  0
    0.9727    1.1272   -1.8832 H   0  0  0  0  0  0  0  0  0  0  0  0
    1.0494    2.5622   -0.7251 H   0  0  0  0  0  0  0  0  0  0  0  0
  1  2  1  0
  2  3  2  0
  3  4  1  0
  4  5  1  0
  4  6  1  0
  6  7  1  0
  6  8  1  0
  8  9  1  0
  8  2  1  0
  1 10  1  0
  1 11  1  0
  1 12  1  0
  3 13  1  0
  4 14  1  0
  5 15  1  0
  6 16  1  0
  7 17  1  0
  7 18  1  0
  7 19  1  0
  8 20  1  0
  9 21  1  0
  9 22  1  0
  9 23  1  0
M  END
