
     RDKit          3D

 19 20  0  0  0  0  0  0  0  0999 V2000
    2.5975   -0.0430   -0.0944 C   0  0  0  0  0  0  0  0  0  0  0  0
    1.1060   -0.1001   -0.1442 C   0  0  0  0  0  0  0  0  0  0  0  0
    0.4218    0.1741   -1.2336 C   0  0  0  0  0  0  0  0  0  0  0  0
   -1.0147    0.0392   -0.9978 C   0  0  0  0  0  0  0  0  0  0  0  0
   -1.7084    1.2322   -0.7689 O   0  0  0  0  0  0  0  0  0  0  0  0
   -1.6712    1.0835    0.6324 C   0  0  0  0  0  0  0  0  0  0  0  0
   -1.1341   -0.3024    0.4485 C   0  0  0  0  0  0  0  0  0  0  0  0
   -2.0278   -1.3348    0.6692 O   0  0  0  0  0  0  0  0  0  0  0  0
    0.2346   -0.4652    1.0041 C   0  0  0  0  0  0  0  0  0  0  0  0
    2.9526   -0.6850   -0.9383 H   0  0  0  0  0  0  0  0  0  0  0  0
    2.9017    1.0084   -0.2403 H   0  0  0  0  0  0  0  0  0  0  0  0
    2.9630   -0.3657    0.8826 H   0  0  0  0  0  0  0  0  0  0  0  0
    0.8397    0.4700   -2.2131 H   0  0  0  0  0  0  0  0  0  0  0  0
   -1.5751   -0.6053   -1.7102 H   0  0  0  0  0  0  0  0  0  0  0  0
   -2.6398    1.1472    1.1352 H   0  0  0  0  0  0  0  0  0  0  0  0
   -0.9227    1.7892    1.0747 H   0  0  0  0  0  0  0  0  0  0  0  0
   -2.1587   -1.8293   -0.1778 H   0  0  0  0  0  0  0  0  0  0  0  0
    0.3852    0.2891    1.8175 H   0  0  0  0  0  0  0  0  0  0  0  0
    0.4502   -1.5020    1.3584 H   0  0  0  0  0  0  0  0  0  0  0  0
  1  2  1  0
  2  3  2  0
  3  4  1  0
  4  5  1  0
  5  6  1  0
  6  7  1  0
  7  8  1  0
  7  9  1  0
  9  2  1  0
  7  4  1  0
  1 10  1  0
  1 11  1  0
  1 12  1  0
  3 13  1  0
  4 14  1  0
  6 15  1  0
  6 16  1  0
  8 17  1  0
  9 18  1  0
  9 19  1  0
M  END
