
     RDKit          3D

 21 21  0  0  0  0  0  0  0  0999 V2000
    2.5503    0.7315   -0.7050 C   0  0  0  0  0  0  0  0  0  0  0  0
    1.2080    0.2706   -0.2277 C   0  0  0  0  0  0  0  0  0  0  0  0
    0.3137    1.0082    0.4083 C   0  0  0  0  0  0  0  0  0  0  0  0
   -0.9033    0.1958    0.7210 C   0  0  0  0  0  0  0  0  0  0  0  0
   -1.8954    0.3690   -0.4108 C   0  0  0  0  0  0  0  0  0  0  0  0
   -2.2664    1.6987   -0.5664 O   0  0  0  0  0  0  0  0  0  0  0  0
   -0.3316   -1.1970    0.7223 C   0  0  0  0  0  0  0  0  0  0  0  0
   -1.2753   -2.1807    0.5200 O   0  0  0  0  0  0  0  0  0  0  0  0
    0.6765   -1.1117   -0.4042 C   0  0  0  0  0  0  0  0  0  0  0  0
    3.1848    1.0654    0.1519 H   0  0  0  0  0  0  0  0  0  0  0  0
    2.4811    1.5767   -1.3923 H   0  0  0  0  0  0  0  0  0  0  0  0
    3.0861   -0.0786   -1.2024 H   0  0  0  0  0  0  0  0  0  0  0  0
    0.4234    2.0520    0.6755 H   0  0  0  0  0  0  0  0  0  0  0  0
   -1.3798    0.4867    1.6614 H   0  0  0  0  0  0  0  0  0  0  0  0
   -2.8179   -0.2015   -0.1560 H   0  0  0  0  0  0  0  0  0  0  0  0
   -1.5198   -0.0039   -1.3686 H   0  0  0  0  0  0  0  0  0  0  0  0
   -1.8832    2.2220    0.1816 H   0  0  0  0  0  0  0  0  0  0  0  0
    0.2453   -1.3421    1.6673 H   0  0  0  0  0  0  0  0  0  0  0  0
   -1.5339   -2.5135    1.4379 H   0  0  0  0  0  0  0  0  0  0  0  0
    0.1877   -1.1632   -1.4008 H   0  0  0  0  0  0  0  0  0  0  0  0
    1.4498   -1.8846   -0.3129 H   0  0  0  0  0  0  0  0  0  0  0  0
  1  2  1  0
  2  3  2  0
  3  4  1  0
  4  5  1  0
  5  6  1  0
  4  7  1  0
  7  8  1  0
  7  9  1  0
  9  2  1  0
  1 10  1  0
  1 11  1  0
  1 12  1  0
  3 13  1  0
  4 14  1  0
  5 15  1  0
  5 16  1  0
  6 17  1  0
  7 18  1  0
  8 19  1  0
  9 20  1  0
  9 21  1  0
M  END
