
     RDKit          3D

 17 18  0  0  0  0  0  0  0  0999 V2000
    2.2748   -0.3585   -0.2362 C   0  0  0  0  0  0  0  0  0  0  0  0
    0.8257   -0.0330   -0.1646 C   0  0  0  0  0  0  0  0  0  0  0  0
    0.0143    0.3689   -1.1403 C   0  0  0  0  0  0  0  0  0  0  0  0
   -1.3753    0.3618   -0.5949 C   0  0  0  0  0  0  0  0  0  0  0  0
   -1.0634    0.9623    0.7958 C   0  0  0  0  0  0  0  0  0  0  0  0
    0.0132   -0.1077    1.0646 C   0  0  0  0  0  0  0  0  0  0  0  0
   -0.8274   -1.2650    0.9206 O   0  0  0  0  0  0  0  0  0  0  0  0
   -1.6456   -1.0171   -0.1767 C   0  0  0  0  0  0  0  0  0  0  0  0
   -2.4370   -1.8529   -0.6633 O   0  0  0  0  0  0  0  0  0  0  0  0
    2.8706    0.5353    0.0559 H   0  0  0  0  0  0  0  0  0  0  0  0
    2.5859   -0.7100   -1.2442 H   0  0  0  0  0  0  0  0  0  0  0  0
    2.5507   -1.1954    0.4653 H   0  0  0  0  0  0  0  0  0  0  0  0
    0.3711    0.6369   -2.1283 H   0  0  0  0  0  0  0  0  0  0  0  0
   -2.1084    0.8842   -1.1432 H   0  0  0  0  0  0  0  0  0  0  0  0
   -0.6399    1.9585    0.7194 H   0  0  0  0  0  0  0  0  0  0  0  0
   -1.9145    0.8472    1.4743 H   0  0  0  0  0  0  0  0  0  0  0  0
    0.5051   -0.0157    1.9958 H   0  0  0  0  0  0  0  0  0  0  0  0
  1  2  1  0
  2  3  2  0
  3  4  1  0
  4  5  1  0
  5  6  1  0
  6  7  1  0
  7  8  1  0
  8  9  2  0
  6  2  1  0
  8  4  1  0
  1 10  1  0
  1 11  1  0
  1 12  1  0
  3 13  1  0
  4 14  1  0
  5 15  1  0
  5 16  1  0
  6 17  1  0
M  END
