
     RDKit          3D

 21 21  0  0  0  0  0  0  0  0999 V2000
   -1.3025    1.8588    0.0733 C   0  0  0  0  0  0  0  0  0  0  0  0
   -0.2958    0.7616    0.0684 C   0  0  0  0  0  0  0  0  0  0  0  0
    0.8627    0.9950   -0.5359 C   0  0  0  0  0  0  0  0  0  0  0  0
    1.9213   -0.0732   -0.5753 C   0  0  0  0  0  0  0  0  0  0  0  0
    2.9306    0.2875    0.2890 O   0  0  0  0  0  0  0  0  0  0  0  0
    1.2802   -1.3817   -0.2716 C   0  0  0  0  0  0  0  0  0  0  0  0
    0.4586   -1.3733    0.8414 O   0  0  0  0  0  0  0  0  0  0  0  0
   -0.6237   -0.5235    0.7272 C   0  0  0  0  0  0  0  0  0  0  0  0
   -1.8195   -1.2017    0.1186 C   0  0  0  0  0  0  0  0  0  0  0  0
   -1.8404    1.8674    1.0676 H   0  0  0  0  0  0  0  0  0  0  0  0
   -2.0354    1.7155   -0.7419 H   0  0  0  0  0  0  0  0  0  0  0  0
   -0.8370    2.8618   -0.0016 H   0  0  0  0  0  0  0  0  0  0  0  0
    1.0927    1.9466   -1.0180 H   0  0  0  0  0  0  0  0  0  0  0  0
    2.2938   -0.0858   -1.6155 H   0  0  0  0  0  0  0  0  0  0  0  0
    2.5879    0.6718    1.1403 H   0  0  0  0  0  0  0  0  0  0  0  0
    0.6670   -1.6876   -1.1445 H   0  0  0  0  0  0  0  0  0  0  0  0
    2.0630   -2.1573   -0.0821 H   0  0  0  0  0  0  0  0  0  0  0  0
   -0.9214   -0.2646    1.7847 H   0  0  0  0  0  0  0  0  0  0  0  0
   -2.5616   -1.5350    0.8950 H   0  0  0  0  0  0  0  0  0  0  0  0
   -2.3745   -0.5449   -0.5841 H   0  0  0  0  0  0  0  0  0  0  0  0
   -1.5459   -2.1372   -0.4350 H   0  0  0  0  0  0  0  0  0  0  0  0
  1  2  1  0
  2  3  2  0
  3  4  1  0
  4  5  1  0
  4  6  1  0
  6  7  1  0
  7  8  1  0
  8  9  1  0
  8  2  1  0
  1 10  1  0
  1 11  1  0
  1 12  1  0
  3 13  1  0
  4 14  1  0
  5 15  1  0
  6 16  1  0
  6 17  1  0
  8 18  1  0
  9 19  1  0
  9 20  1  0
  9 21  1  0
M  END
