
     RDKit          3D

 21 22  0  0  0  0  0  0  0  0999 V2000
    2.9707   -0.3765   -0.2820 C   0  0  0  0  0  0  0  0  0  0  0  0
    1.5189   -0.2368    0.0364 C   0  0  0  0  0  0  0  0  0  0  0  0
    0.9461   -0.6856    1.1461 C   0  0  0  0  0  0  0  0  0  0  0  0
   -0.4970   -0.3647    1.1069 C   0  0  0  0  0  0  0  0  0  0  0  0
   -1.2736   -1.1750    0.0944 C   0  0  0  0  0  0  0  0  0  0  0  0
   -0.7924    0.2559   -0.1754 C   0  0  0  0  0  0  0  0  0  0  0  0
   -1.8873    1.2524   -0.3893 C   0  0  0  0  0  0  0  0  0  0  0  0
   -3.1200    0.6939   -0.0692 O   0  0  0  0  0  0  0  0  0  0  0  0
    0.5319    0.4203   -0.8451 C   0  0  0  0  0  0  0  0  0  0  0  0
    3.5324   -0.6241    0.6208 H   0  0  0  0  0  0  0  0  0  0  0  0
    3.2875    0.6209   -0.7106 H   0  0  0  0  0  0  0  0  0  0  0  0
    3.1465   -1.1164   -1.1012 H   0  0  0  0  0  0  0  0  0  0  0  0
    1.4920   -1.2089    1.9454 H   0  0  0  0  0  0  0  0  0  0  0  0
   -1.0233   -0.0694    2.0350 H   0  0  0  0  0  0  0  0  0  0  0  0
   -0.7820   -2.0060   -0.4204 H   0  0  0  0  0  0  0  0  0  0  0  0
   -2.3396   -1.3219    0.3035 H   0  0  0  0  0  0  0  0  0  0  0  0
   -1.9266    1.4598   -1.4969 H   0  0  0  0  0  0  0  0  0  0  0  0
   -1.7148    2.2183    0.0922 H   0  0  0  0  0  0  0  0  0  0  0  0
   -3.4052    0.8719    0.8483 H   0  0  0  0  0  0  0  0  0  0  0  0
    0.7650    1.4919   -0.9138 H   0  0  0  0  0  0  0  0  0  0  0  0
    0.5710   -0.0999   -1.8251 H   0  0  0  0  0  0  0  0  0  0  0  0
  1  2  1  0
  2  3  2  0
  3  4  1  0
  4  5  1  0
  5  6  1  0
  6  7  1  0
  7  8  1  0
  6  9  1  0
  9  2  1  0
  6  4  1  0
  1 10  1  0
  1 11  1  0
  1 12  1  0
  3 13  1  0
  4 14  1  0
  5 15  1  0
  5 16  1  0
  7 17  1  0
  7 18  1  0
  8 19  1  0
  9 20  1  0
  9 21  1  0
M  END
