
     RDKit          3D

 23 24  0  0  0  0  0  0  0  0999 V2000
    2.6969    1.3116   -0.1897 C   0  0  0  0  0  0  0  0  0  0  0  0
    1.5608    0.3635    0.0820 C   0  0  0  0  0  0  0  0  0  0  0  0
    0.2986    0.6462   -0.1359 C   0  0  0  0  0  0  0  0  0  0  0  0
   -1.0167    1.2747   -0.4938 C   0  0  0  0  0  0  0  0  0  0  0  0
   -1.6131   -0.1533   -0.5689 C   0  0  0  0  0  0  0  0  0  0  0  0
   -2.9307   -0.1550    0.1804 C   0  0  0  0  0  0  0  0  0  0  0  0
   -0.4968   -0.5566    0.3381 C   0  0  0  0  0  0  0  0  0  0  0  0
    0.4431   -1.6432   -0.0643 C   0  0  0  0  0  0  0  0  0  0  0  0
    1.7092   -1.0455    0.6064 C   0  0  0  0  0  0  0  0  0  0  0  0
    2.9757    1.3206   -1.2521 H   0  0  0  0  0  0  0  0  0  0  0  0
    2.4451    2.3395    0.1381 H   0  0  0  0  0  0  0  0  0  0  0  0
    3.5941    1.0077    0.3873 H   0  0  0  0  0  0  0  0  0  0  0  0
   -1.4671    1.9049    0.2711 H   0  0  0  0  0  0  0  0  0  0  0  0
   -1.0566    1.7527   -1.4798 H   0  0  0  0  0  0  0  0  0  0  0  0
   -1.6223   -0.5790   -1.5694 H   0  0  0  0  0  0  0  0  0  0  0  0
   -3.2666   -1.1730    0.4304 H   0  0  0  0  0  0  0  0  0  0  0  0
   -2.7462    0.3618    1.1559 H   0  0  0  0  0  0  0  0  0  0  0  0
   -3.7163    0.4247   -0.3613 H   0  0  0  0  0  0  0  0  0  0  0  0
   -0.7071   -0.5578    1.4132 H   0  0  0  0  0  0  0  0  0  0  0  0
    0.5740   -1.6363   -1.1717 H   0  0  0  0  0  0  0  0  0  0  0  0
    0.2158   -2.6312    0.3346 H   0  0  0  0  0  0  0  0  0  0  0  0
    2.6155   -1.5347    0.2699 H   0  0  0  0  0  0  0  0  0  0  0  0
    1.5107   -1.0422    1.6794 H   0  0  0  0  0  0  0  0  0  0  0  0
  1  2  1  0
  2  3  2  0
  3  4  1  0
  4  5  1  0
  5  6  1  0
  5  7  1  0
  7  8  1  0
  8  9  1  0
  9  2  1  0
  7  3  1  0
  1 10  1  0
  1 11  1  0
  1 12  1  0
  4 13  1  0
  4 14  1  0
  5 15  1  0
  6 16  1  0
  6 17  1  0
  6 18  1  0
  7 19  1  0
  8 20  1  0
  8 21  1  0
  9 22  1  0
  9 23  1  0
M  END
