
     RDKit          2D

 21 23  0  0  0  0  0  0  0  0999 V2000
    2.6401    1.7845    0.0000 C   0  0  0  0  0  0  0  0  0  0  0  0
    1.4266    0.9029    0.0000 C   0  0  0  0  0  0  0  0  0  0  0  0
    1.4266   -0.5971    0.0000 C   0  0  0  0  0  0  0  0  0  0  0  0
   -0.0000   -1.0607    0.0000 C   0  0  0  0  0  0  0  0  0  0  0  0
    1.0607    0.0000    0.0000 C   0  0  0  0  0  0  0  0  0  0  0  0
    0.0000    1.0607    0.0000 C   0  0  0  0  0  0  0  0  0  0  0  0
   -1.0607    2.1213    0.0000 C   0  0  0  0  0  0  0  0  0  0  0  0
   -2.1213    1.0607    0.0000 C   0  0  0  0  0  0  0  0  0  0  0  0
   -1.0607    0.0000    0.0000 C   0  0  0  0  0  0  0  0  0  0  0  0
    3.8536    2.6662    0.0000 H   0  0  0  0  0  0  0  0  0  0  0  0
    1.7584    2.9981    0.0000 H   0  0  0  0  0  0  0  0  0  0  0  0
    3.5218    0.5710    0.0000 H   0  0  0  0  0  0  0  0  0  0  0  0
    2.4139   -1.5179    0.0000 H   0  0  0  0  0  0  0  0  0  0  0  0
   -0.0000   -2.5607    0.0000 H   0  0  0  0  0  0  0  0  0  0  0  0
    2.3465    0.7725    0.0000 H   0  0  0  0  0  0  0  0  0  0  0  0
    1.6888   -0.4908    0.0000 H   0  0  0  0  0  0  0  0  0  0  0  0
   -2.1213    3.1820    0.0000 H   0  0  0  0  0  0  0  0  0  0  0  0
   -0.0000    3.1820    0.0000 H   0  0  0  0  0  0  0  0  0  0  0  0
   -3.1820    0.0000    0.0000 H   0  0  0  0  0  0  0  0  0  0  0  0
   -3.1820    2.1213    0.0000 H   0  0  0  0  0  0  0  0  0  0  0  0
   -2.1213   -1.0607    0.0000 H   0  0  0  0  0  0  0  0  0  0  0  0
  1  2  1  0
  2  3  2  0
  3  4  1  0
  4  5  1  0
  5  6  1  0
  6  7  1  0
  7  8  1  0
  8  9  1  0
  6  2  1  0
  9  4  1  0
  9  6  1  0
  1 10  1  0
  1 11  1  0
  1 12  1  0
  3 13  1  0
  4 14  1  0
  5 15  1  0
  5 16  1  0
  7 17  1  0
  7 18  1  0
  8 19  1  0
  8 20  1  0
  9 21  1  0
M  END
