
     RDKit          3D

 21 22  0  0  0  0  0  0  0  0999 V2000
   -2.2728   -0.7673   -0.3990 C   0  0  0  0  0  0  0  0  0  0  0  0
   -1.1224    0.1507   -0.0882 C   0  0  0  0  0  0  0  0  0  0  0  0
   -1.1953    1.0733    0.8572 C   0  0  0  0  0  0  0  0  0  0  0  0
    0.0852    1.8391    0.9528 C   0  0  0  0  0  0  0  0  0  0  0  0
    1.0727    0.8887    0.2811 C   0  0  0  0  0  0  0  0  0  0  0  0
    1.4495   -0.1383    1.1256 O   0  0  0  0  0  0  0  0  0  0  0  0
    1.8821   -1.1325    0.2183 C   0  0  0  0  0  0  0  0  0  0  0  0
    0.8466   -1.1584   -0.8611 C   0  0  0  0  0  0  0  0  0  0  0  0
    0.2004    0.1957   -0.7370 C   0  0  0  0  0  0  0  0  0  0  0  0
   -2.1872   -1.1924   -1.4052 H   0  0  0  0  0  0  0  0  0  0  0  0
   -3.2252   -0.2072   -0.3046 H   0  0  0  0  0  0  0  0  0  0  0  0
   -2.3205   -1.6054    0.3285 H   0  0  0  0  0  0  0  0  0  0  0  0
   -2.0826    1.2596    1.4966 H   0  0  0  0  0  0  0  0  0  0  0  0
    0.3686    1.9007    2.0122 H   0  0  0  0  0  0  0  0  0  0  0  0
    0.0478    2.7982    0.4242 H   0  0  0  0  0  0  0  0  0  0  0  0
    1.9317    1.4091   -0.1540 H   0  0  0  0  0  0  0  0  0  0  0  0
    1.9914   -2.1144    0.7106 H   0  0  0  0  0  0  0  0  0  0  0  0
    2.8657   -0.7727   -0.1532 H   0  0  0  0  0  0  0  0  0  0  0  0
    0.1144   -1.9868   -0.7634 H   0  0  0  0  0  0  0  0  0  0  0  0
    1.3578   -1.1936   -1.8461 H   0  0  0  0  0  0  0  0  0  0  0  0
    0.1922    0.7541   -1.6953 H   0  0  0  0  0  0  0  0  0  0  0  0
  1  2  1  0
  2  3  2  0
  3  4  1  0
  4  5  1  0
  5  6  1  0
  6  7  1  0
  7  8  1  0
  8  9  1  0
  9  2  1  0
  9  5  1  0
  1 10  1  0
  1 11  1  0
  1 12  1  0
  3 13  1  0
  4 14  1  0
  4 15  1  0
  5 16  1  0
  7 17  1  0
  7 18  1  0
  8 19  1  0
  8 20  1  0
  9 21  1  0
M  END
