
     RDKit          3D

 17 17  0  0  0  0  0  0  0  0999 V2000
   -1.0072    1.6802   -0.0616 C   0  0  0  0  0  0  0  0  0  0  0  0
   -0.6506    0.2426   -0.0116 C   0  0  0  0  0  0  0  0  0  0  0  0
    0.5890   -0.2127    0.0404 C   0  0  0  0  0  0  0  0  0  0  0  0
    1.8436    0.6006    0.0590 C   0  0  0  0  0  0  0  0  0  0  0  0
    0.5839   -1.6893    0.0799 C   0  0  0  0  0  0  0  0  0  0  0  0
   -0.7170   -1.9931    0.3952 O   0  0  0  0  0  0  0  0  0  0  0  0
   -1.5264   -0.9538   -0.0078 C   0  0  0  0  0  0  0  0  0  0  0  0
   -1.9358    1.7548   -0.6769 H   0  0  0  0  0  0  0  0  0  0  0  0
   -0.2298    2.2328   -0.6528 H   0  0  0  0  0  0  0  0  0  0  0  0
   -1.1519    2.0968    0.9397 H   0  0  0  0  0  0  0  0  0  0  0  0
    2.3622    0.3270    1.0157 H   0  0  0  0  0  0  0  0  0  0  0  0
    1.6117    1.6985    0.0960 H   0  0  0  0  0  0  0  0  0  0  0  0
    2.4311    0.3302   -0.8327 H   0  0  0  0  0  0  0  0  0  0  0  0
    1.3217   -2.1110    0.7638 H   0  0  0  0  0  0  0  0  0  0  0  0
    0.8038   -2.0720   -0.9435 H   0  0  0  0  0  0  0  0  0  0  0  0
   -2.0150   -1.1060   -0.9686 H   0  0  0  0  0  0  0  0  0  0  0  0
   -2.3134   -0.8255    0.7658 H   0  0  0  0  0  0  0  0  0  0  0  0
  1  2  1  0
  2  3  2  0
  3  4  1  0
  3  5  1  0
  5  6  1  0
  6  7  1  0
  7  2  1  0
  1  8  1  0
  1  9  1  0
  1 10  1  0
  4 11  1  0
  4 12  1  0
  4 13  1  0
  5 14  1  0
  5 15  1  0
  7 16  1  0
  7 17  1  0
M  END
