
     RDKit          3D

 19 20  0  0  0  0  0  0  0  0999 V2000
   -1.3010    1.9210   -0.3555 C   0  0  0  0  0  0  0  0  0  0  0  0
   -0.5478    0.6643   -0.1214 C   0  0  0  0  0  0  0  0  0  0  0  0
    0.7562    0.5865    0.0942 C   0  0  0  0  0  0  0  0  0  0  0  0
    2.2306    0.6460    0.3244 C   0  0  0  0  0  0  0  0  0  0  0  0
    2.3523   -0.7114   -0.0694 O   0  0  0  0  0  0  0  0  0  0  0  0
    1.0668   -0.8854    0.3312 C   0  0  0  0  0  0  0  0  0  0  0  0
    0.0659   -1.4946   -0.6188 C   0  0  0  0  0  0  0  0  0  0  0  0
   -1.1589   -0.6948   -0.1187 C   0  0  0  0  0  0  0  0  0  0  0  0
   -1.3654   -1.0958    1.1836 O   0  0  0  0  0  0  0  0  0  0  0  0
   -1.8706    1.8414   -1.3276 H   0  0  0  0  0  0  0  0  0  0  0  0
   -2.1074    2.0516    0.4168 H   0  0  0  0  0  0  0  0  0  0  0  0
   -0.6608    2.8043   -0.4098 H   0  0  0  0  0  0  0  0  0  0  0  0
    2.4308    0.7626    1.4035 H   0  0  0  0  0  0  0  0  0  0  0  0
    2.7990    1.2723   -0.3674 H   0  0  0  0  0  0  0  0  0  0  0  0
    0.8816   -1.1577    1.3825 H   0  0  0  0  0  0  0  0  0  0  0  0
   -0.0777   -2.5633   -0.4987 H   0  0  0  0  0  0  0  0  0  0  0  0
    0.2346   -1.1445   -1.6462 H   0  0  0  0  0  0  0  0  0  0  0  0
   -2.0028   -0.8003   -0.7850 H   0  0  0  0  0  0  0  0  0  0  0  0
   -1.7255   -2.0022    1.1822 H   0  0  0  0  0  0  0  0  0  0  0  0
  1  2  1  0
  2  3  2  0
  3  4  1  0
  4  5  1  0
  5  6  1  0
  6  7  1  0
  7  8  1  0
  8  9  1  0
  8  2  1  0
  6  3  1  0
  1 10  1  0
  1 11  1  0
  1 12  1  0
  4 13  1  0
  4 14  1  0
  6 15  1  0
  7 16  1  0
  7 17  1  0
  8 18  1  0
  9 19  1  0
M  END
