
     RDKit          3D

 17 17  0  0  0  0  0  0  0  0999 V2000
    2.2071    0.4753   -0.2170 C   0  0  0  0  0  0  0  0  0  0  0  0
    0.7384    0.1194   -0.0670 C   0  0  0  0  0  0  0  0  0  0  0  0
   -0.1201    1.1131   -0.0990 C   0  0  0  0  0  0  0  0  0  0  0  0
   -1.5854    1.1698    0.0098 C   0  0  0  0  0  0  0  0  0  0  0  0
   -2.2547   -0.0183   -0.2555 O   0  0  0  0  0  0  0  0  0  0  0  0
   -2.0148   -1.2935    0.2512 C   0  0  0  0  0  0  0  0  0  0  0  0
   -2.9466   -2.1129    0.3746 O   0  0  0  0  0  0  0  0  0  0  0  0
   -0.7209   -1.6930    0.6370 O   0  0  0  0  0  0  0  0  0  0  0  0
    0.5004   -1.3182    0.0927 C   0  0  0  0  0  0  0  0  0  0  0  0
    2.7200   -0.1432    0.5521 H   0  0  0  0  0  0  0  0  0  0  0  0
    2.5830    0.1891   -1.2127 H   0  0  0  0  0  0  0  0  0  0  0  0
    2.3879    1.5241    0.0466 H   0  0  0  0  0  0  0  0  0  0  0  0
    0.4169    2.0748   -0.2382 H   0  0  0  0  0  0  0  0  0  0  0  0
   -1.9441    1.9249   -0.7511 H   0  0  0  0  0  0  0  0  0  0  0  0
   -1.9259    1.6093    0.9922 H   0  0  0  0  0  0  0  0  0  0  0  0
    1.3021   -1.7473    0.7639 H   0  0  0  0  0  0  0  0  0  0  0  0
    0.6567   -1.8733   -0.8796 H   0  0  0  0  0  0  0  0  0  0  0  0
  1  2  1  0
  2  3  2  0
  3  4  1  0
  4  5  1  0
  5  6  1  0
  6  7  2  0
  6  8  1  0
  8  9  1  0
  9  2  1  0
  1 10  1  0
  1 11  1  0
  1 12  1  0
  3 13  1  0
  4 14  1  0
  4 15  1  0
  9 16  1  0
  9 17  1  0
M  END
