
     RDKit          3D

 21 22  0  0  0  0  0  0  0  0999 V2000
    2.4693   -0.4321    0.1587 C   0  0  0  0  0  0  0  0  0  0  0  0
    0.9729   -0.5183    0.0586 C   0  0  0  0  0  0  0  0  0  0  0  0
    0.3153   -1.5939   -0.3079 C   0  0  0  0  0  0  0  0  0  0  0  0
   -1.1465   -1.3458   -0.3021 C   0  0  0  0  0  0  0  0  0  0  0  0
   -1.7408   -1.3377    0.9555 O   0  0  0  0  0  0  0  0  0  0  0  0
   -2.3485   -0.1099    0.6745 C   0  0  0  0  0  0  0  0  0  0  0  0
   -1.2317    0.1525   -0.2988 C   0  0  0  0  0  0  0  0  0  0  0  0
    0.0603    0.6272    0.3674 C   0  0  0  0  0  0  0  0  0  0  0  0
    0.4934    1.8739   -0.3688 C   0  0  0  0  0  0  0  0  0  0  0  0
    2.7608   -0.1639    1.1984 H   0  0  0  0  0  0  0  0  0  0  0  0
    2.9431   -1.3966   -0.0650 H   0  0  0  0  0  0  0  0  0  0  0  0
    2.8552    0.2998   -0.5806 H   0  0  0  0  0  0  0  0  0  0  0  0
    0.8327   -2.5397   -0.5768 H   0  0  0  0  0  0  0  0  0  0  0  0
   -1.7210   -1.8594   -1.0928 H   0  0  0  0  0  0  0  0  0  0  0  0
   -3.2945   -0.2790    0.1350 H   0  0  0  0  0  0  0  0  0  0  0  0
   -2.3591    0.6174    1.4927 H   0  0  0  0  0  0  0  0  0  0  0  0
   -1.4920    0.6492   -1.2265 H   0  0  0  0  0  0  0  0  0  0  0  0
   -0.1011    0.7754    1.4358 H   0  0  0  0  0  0  0  0  0  0  0  0
    0.1017    1.9044   -1.4139 H   0  0  0  0  0  0  0  0  0  0  0  0
    1.5921    1.9424   -0.3940 H   0  0  0  0  0  0  0  0  0  0  0  0
    0.0384    2.7341    0.1506 H   0  0  0  0  0  0  0  0  0  0  0  0
  1  2  1  0
  2  3  2  0
  3  4  1  0
  4  5  1  0
  5  6  1  0
  6  7  1  0
  7  8  1  0
  8  9  1  0
  8  2  1  0
  7  4  1  0
  1 10  1  0
  1 11  1  0
  1 12  1  0
  3 13  1  0
  4 14  1  0
  6 15  1  0
  6 16  1  0
  7 17  1  0
  8 18  1  0
  9 19  1  0
  9 20  1  0
  9 21  1  0
M  END
