
     RDKit          3D

 16 16  0  0  0  0  0  0  0  0999 V2000
   -1.1520   -1.4505    0.1090 C   0  0  0  0  0  0  0  0  0  0  0  0
   -0.5979   -0.0918   -0.0169 C   0  0  0  0  0  0  0  0  0  0  0  0
    0.6639    0.2320    0.0053 C   0  0  0  0  0  0  0  0  0  0  0  0
    1.8564   -0.6477    0.1586 C   0  0  0  0  0  0  0  0  0  0  0  0
    0.7845    1.6737   -0.1499 C   0  0  0  0  0  0  0  0  0  0  0  0
    1.8796    2.3408   -0.1736 O   0  0  0  0  0  0  0  0  0  0  0  0
   -0.4877    2.1997   -0.2674 O   0  0  0  0  0  0  0  0  0  0  0  0
   -1.3977    1.1286   -0.1900 C   0  0  0  0  0  0  0  0  0  0  0  0
   -1.7973   -1.4360    1.0356 H   0  0  0  0  0  0  0  0  0  0  0  0
   -1.8669   -1.6139   -0.7261 H   0  0  0  0  0  0  0  0  0  0  0  0
   -0.3950   -2.2381    0.1815 H   0  0  0  0  0  0  0  0  0  0  0  0
    2.3355   -0.3892    1.1237 H   0  0  0  0  0  0  0  0  0  0  0  0
    1.6374   -1.7071    0.0664 H   0  0  0  0  0  0  0  0  0  0  0  0
    2.5823   -0.3620   -0.6505 H   0  0  0  0  0  0  0  0  0  0  0  0
   -2.0839    1.2590    0.6884 H   0  0  0  0  0  0  0  0  0  0  0  0
   -1.9611    1.1025   -1.1497 H   0  0  0  0  0  0  0  0  0  0  0  0
  1  2  1  0
  2  3  2  0
  3  4  1  0
  3  5  1  0
  5  6  2  0
  5  7  1  0
  7  8  1  0
  8  2  1  0
  1  9  1  0
  1 10  1  0
  1 11  1  0
  4 12  1  0
  4 13  1  0
  4 14  1  0
  8 15  1  0
  8 16  1  0
M  END
