
     RDKit          3D

 21 22  0  0  0  0  0  0  0  0999 V2000
   -2.3888    1.2012    0.0097 C   0  0  0  0  0  0  0  0  0  0  0  0
   -0.9339    0.8935   -0.0652 C   0  0  0  0  0  0  0  0  0  0  0  0
    0.0617    1.7089   -0.3399 C   0  0  0  0  0  0  0  0  0  0  0  0
    1.3737    0.9954   -0.3120 C   0  0  0  0  0  0  0  0  0  0  0  0
    1.0173   -0.1888    0.5967 C   0  0  0  0  0  0  0  0  0  0  0  0
    1.9782   -1.3000    0.3153 C   0  0  0  0  0  0  0  0  0  0  0  0
   -0.3755   -0.4567    0.1708 C   0  0  0  0  0  0  0  0  0  0  0  0
   -0.8503   -1.5917   -0.4772 C   0  0  0  0  0  0  0  0  0  0  0  0
   -1.0709   -1.3649    0.9556 O   0  0  0  0  0  0  0  0  0  0  0  0
   -2.5973    2.1783    0.4853 H   0  0  0  0  0  0  0  0  0  0  0  0
   -2.7966    1.2240   -1.0207 H   0  0  0  0  0  0  0  0  0  0  0  0
   -2.9278    0.4402    0.6071 H   0  0  0  0  0  0  0  0  0  0  0  0
   -0.0433    2.7724   -0.5617 H   0  0  0  0  0  0  0  0  0  0  0  0
    2.1693    1.5650    0.1650 H   0  0  0  0  0  0  0  0  0  0  0  0
    1.6332    0.5747   -1.2922 H   0  0  0  0  0  0  0  0  0  0  0  0
    1.0325    0.1778    1.6278 H   0  0  0  0  0  0  0  0  0  0  0  0
    2.9134   -1.0884    0.8895 H   0  0  0  0  0  0  0  0  0  0  0  0
    2.1873   -1.3351   -0.7631 H   0  0  0  0  0  0  0  0  0  0  0  0
    1.6140   -2.2901    0.6646 H   0  0  0  0  0  0  0  0  0  0  0  0
   -0.1766   -2.4697   -0.6799 H   0  0  0  0  0  0  0  0  0  0  0  0
   -1.8195   -1.6463   -0.9756 H   0  0  0  0  0  0  0  0  0  0  0  0
  1  2  1  0
  2  3  2  0
  3  4  1  0
  4  5  1  0
  5  6  1  0
  5  7  1  0
  7  8  1  0
  8  9  1  0
  7  2  1  0
  9  7  1  0
  1 10  1  0
  1 11  1  0
  1 12  1  0
  3 13  1  0
  4 14  1  0
  4 15  1  0
  5 16  1  0
  6 17  1  0
  6 18  1  0
  6 19  1  0
  8 20  1  0
  8 21  1  0
M  END
