
     RDKit          3D

 18 18  0  0  0  0  0  0  0  0999 V2000
    2.4685   -0.1829    0.0626 C   0  0  0  0  0  0  0  0  0  0  0  0
    0.9968   -0.0511   -0.0694 C   0  0  0  0  0  0  0  0  0  0  0  0
    0.3013   -1.1719   -0.1573 C   0  0  0  0  0  0  0  0  0  0  0  0
   -1.1636   -1.4133   -0.2966 C   0  0  0  0  0  0  0  0  0  0  0  0
   -1.8595   -0.3061   -0.7074 O   0  0  0  0  0  0  0  0  0  0  0  0
   -1.9998    0.6817    0.2247 C   0  0  0  0  0  0  0  0  0  0  0  0
   -0.8555    1.6418    0.0288 C   0  0  0  0  0  0  0  0  0  0  0  0
    0.4163    1.2932   -0.0935 C   0  0  0  0  0  0  0  0  0  0  0  0
    2.6411   -0.7944    0.9888 H   0  0  0  0  0  0  0  0  0  0  0  0
    2.8945    0.8253    0.2609 H   0  0  0  0  0  0  0  0  0  0  0  0
    2.8843   -0.6583   -0.8252 H   0  0  0  0  0  0  0  0  0  0  0  0
    0.8717   -2.0870   -0.1249 H   0  0  0  0  0  0  0  0  0  0  0  0
   -1.5866   -1.9008    0.6038 H   0  0  0  0  0  0  0  0  0  0  0  0
   -1.2589   -2.1810   -1.1159 H   0  0  0  0  0  0  0  0  0  0  0  0
   -2.9627    1.2291    0.1850 H   0  0  0  0  0  0  0  0  0  0  0  0
   -1.8871    0.3245    1.2846 H   0  0  0  0  0  0  0  0  0  0  0  0
   -1.0579    2.6826   -0.0183 H   0  0  0  0  0  0  0  0  0  0  0  0
    1.1570    2.0686   -0.2307 H   0  0  0  0  0  0  0  0  0  0  0  0
  1  2  1  0
  2  3  2  0
  3  4  1  0
  4  5  1  0
  5  6  1  0
  6  7  1  0
  7  8  2  0
  8  2  1  0
  1  9  1  0
  1 10  1  0
  1 11  1  0
  3 12  1  0
  4 13  1  0
  4 14  1  0
  6 15  1  0
  6 16  1  0
  7 17  1  0
  8 18  1  0
M  END
