
     RDKit          3D

 21 22  0  0  0  0  0  0  0  0999 V2000
    2.5235   -0.3352   -0.2564 C   0  0  0  0  0  0  0  0  0  0  0  0
    1.0536   -0.1209   -0.0313 C   0  0  0  0  0  0  0  0  0  0  0  0
    0.7924    1.1184    0.3489 C   0  0  0  0  0  0  0  0  0  0  0  0
   -0.4965    1.7200    0.6632 C   0  0  0  0  0  0  0  0  0  0  0  0
   -1.5488    1.4243   -0.3576 C   0  0  0  0  0  0  0  0  0  0  0  0
   -1.7888    0.1973   -0.8350 C   0  0  0  0  0  0  0  0  0  0  0  0
   -1.2052   -1.1037   -0.5776 C   0  0  0  0  0  0  0  0  0  0  0  0
   -0.9043   -1.5607    0.8315 C   0  0  0  0  0  0  0  0  0  0  0  0
    0.1807   -1.2424   -0.2490 C   0  0  0  0  0  0  0  0  0  0  0  0
    2.9893    0.5490   -0.7550 H   0  0  0  0  0  0  0  0  0  0  0  0
    2.6327   -1.2025   -0.9435 H   0  0  0  0  0  0  0  0  0  0  0  0
    3.0611   -0.4864    0.7073 H   0  0  0  0  0  0  0  0  0  0  0  0
    1.6555    1.8016    0.4474 H   0  0  0  0  0  0  0  0  0  0  0  0
   -0.8616    1.5277    1.7054 H   0  0  0  0  0  0  0  0  0  0  0  0
   -0.3772    2.8384    0.6323 H   0  0  0  0  0  0  0  0  0  0  0  0
   -2.1564    2.2374   -0.7394 H   0  0  0  0  0  0  0  0  0  0  0  0
   -2.6079    0.2431   -1.5716 H   0  0  0  0  0  0  0  0  0  0  0  0
   -1.6775   -1.9444   -1.1761 H   0  0  0  0  0  0  0  0  0  0  0  0
   -0.9753   -0.8609    1.6744 H   0  0  0  0  0  0  0  0  0  0  0  0
   -0.9963   -2.6259    1.1058 H   0  0  0  0  0  0  0  0  0  0  0  0
    0.7070   -2.1742   -0.6238 H   0  0  0  0  0  0  0  0  0  0  0  0
  1  2  1  0
  2  3  2  0
  3  4  1  0
  4  5  1  0
  5  6  2  0
  6  7  1  0
  7  8  1  0
  8  9  1  0
  9  2  1  0
  9  7  1  0
  1 10  1  0
  1 11  1  0
  1 12  1  0
  3 13  1  0
  4 14  1  0
  4 15  1  0
  5 16  1  0
  6 17  1  0
  7 18  1  0
  8 19  1  0
  8 20  1  0
  9 21  1  0
M  END
