
     RDKit          3D

 17 18  0  0  0  0  0  0  0  0999 V2000
    1.8779   -0.7792   -0.5078 C   0  0  0  0  0  0  0  0  0  0  0  0
    0.7005    0.0378   -0.1175 C   0  0  0  0  0  0  0  0  0  0  0  0
   -0.5164   -0.3109    0.2951 C   0  0  0  0  0  0  0  0  0  0  0  0
   -1.1736   -1.6196    0.4892 C   0  0  0  0  0  0  0  0  0  0  0  0
   -1.1274    1.0350    0.5414 C   0  0  0  0  0  0  0  0  0  0  0  0
   -0.0514    1.6850    1.1728 O   0  0  0  0  0  0  0  0  0  0  0  0
    0.5772    1.5399   -0.0872 C   0  0  0  0  0  0  0  0  0  0  0  0
   -0.7482    1.7836   -0.6742 C   0  0  0  0  0  0  0  0  0  0  0  0
   -1.3417    2.2777   -1.5879 O   0  0  0  0  0  0  0  0  0  0  0  0
    1.8929   -1.7555    0.0117 H   0  0  0  0  0  0  0  0  0  0  0  0
    2.8381   -0.2776   -0.2204 H   0  0  0  0  0  0  0  0  0  0  0  0
    1.9352   -0.9730   -1.5883 H   0  0  0  0  0  0  0  0  0  0  0  0
   -2.2787   -1.5104    0.3265 H   0  0  0  0  0  0  0  0  0  0  0  0
   -1.0646   -1.9817    1.5394 H   0  0  0  0  0  0  0  0  0  0  0  0
   -0.8421   -2.3882   -0.2335 H   0  0  0  0  0  0  0  0  0  0  0  0
   -2.0915    1.1054    0.9531 H   0  0  0  0  0  0  0  0  0  0  0  0
    1.4138    2.1315   -0.3124 H   0  0  0  0  0  0  0  0  0  0  0  0
  1  2  1  0
  2  3  2  0
  3  4  1  0
  3  5  1  0
  5  6  1  0
  6  7  1  0
  7  8  1  0
  8  9  2  0
  7  2  1  0
  8  5  1  0
  1 10  1  0
  1 11  1  0
  1 12  1  0
  4 13  1  0
  4 14  1  0
  4 15  1  0
  5 16  1  0
  7 17  1  0
M  END
