
     RDKit          3D

 21 22  0  0  0  0  0  0  0  0999 V2000
    2.6352    0.0536   -0.4418 C   0  0  0  0  0  0  0  0  0  0  0  0
    1.1576   -0.0469   -0.1722 C   0  0  0  0  0  0  0  0  0  0  0  0
    0.3084   -0.5190   -1.0805 C   0  0  0  0  0  0  0  0  0  0  0  0
   -1.1460   -0.2169   -1.0036 C   0  0  0  0  0  0  0  0  0  0  0  0
   -1.8236   -1.2074   -0.0590 C   0  0  0  0  0  0  0  0  0  0  0  0
   -1.1678   -0.9657    1.1173 O   0  0  0  0  0  0  0  0  0  0  0  0
   -0.8245    0.3560    1.2078 C   0  0  0  0  0  0  0  0  0  0  0  0
    0.7103    0.4190    1.1825 C   0  0  0  0  0  0  0  0  0  0  0  0
   -1.2604    1.0245   -0.1056 C   0  0  0  0  0  0  0  0  0  0  0  0
    3.1393   -0.5148    0.3489 H   0  0  0  0  0  0  0  0  0  0  0  0
    2.8861    1.1517   -0.3949 H   0  0  0  0  0  0  0  0  0  0  0  0
    2.8715   -0.3541   -1.4544 H   0  0  0  0  0  0  0  0  0  0  0  0
    0.7216   -1.1302   -1.8747 H   0  0  0  0  0  0  0  0  0  0  0  0
   -1.6414   -0.1054   -1.9502 H   0  0  0  0  0  0  0  0  0  0  0  0
   -2.8833   -0.8837    0.0401 H   0  0  0  0  0  0  0  0  0  0  0  0
   -1.7113   -2.2463   -0.3926 H   0  0  0  0  0  0  0  0  0  0  0  0
   -1.2335    0.8869    2.0826 H   0  0  0  0  0  0  0  0  0  0  0  0
    1.0367   -0.2889    1.9842 H   0  0  0  0  0  0  0  0  0  0  0  0
    1.0692    1.4391    1.4105 H   0  0  0  0  0  0  0  0  0  0  0  0
   -2.3036    1.3520   -0.0508 H   0  0  0  0  0  0  0  0  0  0  0  0
   -0.5405    1.7965   -0.3936 H   0  0  0  0  0  0  0  0  0  0  0  0
  1  2  1  0
  2  3  2  0
  3  4  1  0
  4  5  1  0
  5  6  1  0
  6  7  1  0
  7  8  1  0
  7  9  1  0
  8  2  1  0
  9  4  1  0
  1 10  1  0
  1 11  1  0
  1 12  1  0
  3 13  1  0
  4 14  1  0
  5 15  1  0
  5 16  1  0
  7 17  1  0
  8 18  1  0
  8 19  1  0
  9 20  1  0
  9 21  1  0
M  END
