
     RDKit          3D

 21 21  0  0  0  0  0  0  0  0999 V2000
   -2.3461    0.1030    0.2384 C   0  0  0  0  0  0  0  0  0  0  0  0
   -0.9232   -0.2029   -0.0571 C   0  0  0  0  0  0  0  0  0  0  0  0
    0.0866    0.6431   -0.0138 C   0  0  0  0  0  0  0  0  0  0  0  0
   -0.0990    2.0948    0.3605 C   0  0  0  0  0  0  0  0  0  0  0  0
    1.3775    0.0042   -0.3654 C   0  0  0  0  0  0  0  0  0  0  0  0
    2.1106   -0.2396    0.9180 C   0  0  0  0  0  0  0  0  0  0  0  0
    1.5159   -0.5799    1.9287 O   0  0  0  0  0  0  0  0  0  0  0  0
    0.9436   -1.2783   -1.0138 C   0  0  0  0  0  0  0  0  0  0  0  0
   -0.4380   -1.5590   -0.4580 C   0  0  0  0  0  0  0  0  0  0  0  0
   -2.9617   -0.4606   -0.4975 H   0  0  0  0  0  0  0  0  0  0  0  0
   -2.6378   -0.1980    1.2604 H   0  0  0  0  0  0  0  0  0  0  0  0
   -2.5943    1.1670    0.1193 H   0  0  0  0  0  0  0  0  0  0  0  0
    0.7687    2.3987    1.0170 H   0  0  0  0  0  0  0  0  0  0  0  0
   -0.9948    2.2271    0.9709 H   0  0  0  0  0  0  0  0  0  0  0  0
   -0.0773    2.7284   -0.5519 H   0  0  0  0  0  0  0  0  0  0  0  0
    1.9973    0.6388   -1.0305 H   0  0  0  0  0  0  0  0  0  0  0  0
    3.1771   -0.1071    0.9271 H   0  0  0  0  0  0  0  0  0  0  0  0
    0.9074   -1.0812   -2.1240 H   0  0  0  0  0  0  0  0  0  0  0  0
    1.6369   -2.0830   -0.7763 H   0  0  0  0  0  0  0  0  0  0  0  0
   -0.4041   -2.2155    0.4159 H   0  0  0  0  0  0  0  0  0  0  0  0
   -1.0452   -1.9999   -1.2680 H   0  0  0  0  0  0  0  0  0  0  0  0
  1  2  1  0
  2  3  2  0
  3  4  1  0
  3  5  1  0
  5  6  1  0
  6  7  2  0
  5  8  1  0
  8  9  1  0
  9  2  1  0
  1 10  1  0
  1 11  1  0
  1 12  1  0
  4 13  1  0
  4 14  1  0
  4 15  1  0
  5 16  1  0
  6 17  1  0
  8 18  1  0
  8 19  1  0
  9 20  1  0
  9 21  1  0
M  END
