
     RDKit          3D

 19 21  0  0  0  0  0  0  0  0999 V2000
   -2.6316    0.0788    0.0418 C   0  0  0  0  0  0  0  0  0  0  0  0
   -1.1409    0.1600   -0.1315 C   0  0  0  0  0  0  0  0  0  0  0  0
   -0.5869    1.1938   -0.7290 C   0  0  0  0  0  0  0  0  0  0  0  0
    0.8874    0.8882   -0.7017 C   0  0  0  0  0  0  0  0  0  0  0  0
    1.4838    1.1245    0.5104 O   0  0  0  0  0  0  0  0  0  0  0  0
    2.1889   -0.0515    0.8497 C   0  0  0  0  0  0  0  0  0  0  0  0
    1.2031   -1.1451    0.3596 C   0  0  0  0  0  0  0  0  0  0  0  0
   -0.2395   -0.8491    0.3685 C   0  0  0  0  0  0  0  0  0  0  0  0
    0.6828   -0.6308   -0.7516 C   0  0  0  0  0  0  0  0  0  0  0  0
   -3.0320    1.0324    0.4614 H   0  0  0  0  0  0  0  0  0  0  0  0
   -2.9374   -0.7091    0.7611 H   0  0  0  0  0  0  0  0  0  0  0  0
   -3.1444   -0.1300   -0.9080 H   0  0  0  0  0  0  0  0  0  0  0  0
   -1.0372    2.0751   -1.1543 H   0  0  0  0  0  0  0  0  0  0  0  0
    1.4146    1.2687   -1.5762 H   0  0  0  0  0  0  0  0  0  0  0  0
    2.1886   -0.1388    1.9382 H   0  0  0  0  0  0  0  0  0  0  0  0
    3.1488   -0.1362    0.3483 H   0  0  0  0  0  0  0  0  0  0  0  0
    1.4841   -2.1737    0.5616 H   0  0  0  0  0  0  0  0  0  0  0  0
   -0.3232   -0.7590    1.4377 H   0  0  0  0  0  0  0  0  0  0  0  0
    0.3913   -1.0982   -1.6860 H   0  0  0  0  0  0  0  0  0  0  0  0
  1  2  1  0
  2  3  2  0
  3  4  1  0
  4  5  1  0
  5  6  1  0
  6  7  1  0
  7  8  1  0
  8  9  1  0
  8  2  1  0
  9  4  1  0
  9  7  1  0
  1 10  1  0
  1 11  1  0
  1 12  1  0
  3 13  1  0
  4 14  1  0
  6 15  1  0
  6 16  1  0
  7 17  1  0
  8 18  1  0
  9 19  1  0
M  END
