
     RDKit          3D

 17 17  0  0  0  0  0  0  0  0999 V2000
    2.0383    0.1324   -0.5645 C   0  0  0  0  0  0  0  0  0  0  0  0
    0.5729   -0.1545   -0.4088 C   0  0  0  0  0  0  0  0  0  0  0  0
   -0.0047   -1.3311   -0.6091 C   0  0  0  0  0  0  0  0  0  0  0  0
   -1.4409   -1.2185   -0.3575 C   0  0  0  0  0  0  0  0  0  0  0  0
   -2.3181   -1.9361   -0.8729 O   0  0  0  0  0  0  0  0  0  0  0  0
   -1.5045   -0.0921    0.6078 C   0  0  0  0  0  0  0  0  0  0  0  0
   -0.9887   -0.5317    1.8212 O   0  0  0  0  0  0  0  0  0  0  0  0
   -0.4758    0.8138   -0.0247 C   0  0  0  0  0  0  0  0  0  0  0  0
   -0.0200    1.7769    0.8648 O   0  0  0  0  0  0  0  0  0  0  0  0
    2.6601   -0.7062   -0.1838 H   0  0  0  0  0  0  0  0  0  0  0  0
    2.3081    1.0174    0.0395 H   0  0  0  0  0  0  0  0  0  0  0  0
    2.3175    0.2988   -1.6075 H   0  0  0  0  0  0  0  0  0  0  0  0
    0.5159   -2.2546   -0.9195 H   0  0  0  0  0  0  0  0  0  0  0  0
   -2.4993    0.3583    0.6915 H   0  0  0  0  0  0  0  0  0  0  0  0
   -0.1216   -0.0876    2.0495 H   0  0  0  0  0  0  0  0  0  0  0  0
   -0.9738    1.2709   -0.9127 H   0  0  0  0  0  0  0  0  0  0  0  0
   -0.0653    2.6439    0.3866 H   0  0  0  0  0  0  0  0  0  0  0  0
  1  2  1  0
  2  3  2  0
  3  4  1  0
  4  5  2  0
  4  6  1  0
  6  7  1  0
  6  8  1  0
  8  9  1  0
  8  2  1  0
  1 10  1  0
  1 11  1  0
  1 12  1  0
  3 13  1  0
  6 14  1  0
  7 15  1  0
  8 16  1  0
  9 17  1  0
M  END
