
     RDKit          3D

 21 21  0  0  0  0  0  0  0  0999 V2000
   -2.0686    1.3411    0.3688 C   0  0  0  0  0  0  0  0  0  0  0  0
   -0.8108    0.5442    0.2755 C   0  0  0  0  0  0  0  0  0  0  0  0
   -0.7035   -0.7425    0.0058 C   0  0  0  0  0  0  0  0  0  0  0  0
   -1.8479   -1.6915   -0.2684 C   0  0  0  0  0  0  0  0  0  0  0  0
    0.7041   -1.1026    0.0095 C   0  0  0  0  0  0  0  0  0  0  0  0
    1.2075   -2.1270   -0.5610 O   0  0  0  0  0  0  0  0  0  0  0  0
    1.4151   -0.0624    0.7915 C   0  0  0  0  0  0  0  0  0  0  0  0
    2.8268    0.1529    0.3093 C   0  0  0  0  0  0  0  0  0  0  0  0
    0.5363    1.1448    0.4938 C   0  0  0  0  0  0  0  0  0  0  0  0
   -2.2298    1.8979   -0.5976 H   0  0  0  0  0  0  0  0  0  0  0  0
   -2.9446    0.7117    0.5240 H   0  0  0  0  0  0  0  0  0  0  0  0
   -1.9956    2.0587    1.2106 H   0  0  0  0  0  0  0  0  0  0  0  0
   -1.6212   -2.3340   -1.1293 H   0  0  0  0  0  0  0  0  0  0  0  0
   -2.7763   -1.1251   -0.4114 H   0  0  0  0  0  0  0  0  0  0  0  0
   -2.0126   -2.3645    0.5987 H   0  0  0  0  0  0  0  0  0  0  0  0
    1.3590   -0.3338    1.8658 H   0  0  0  0  0  0  0  0  0  0  0  0
    3.1232    1.2264    0.3059 H   0  0  0  0  0  0  0  0  0  0  0  0
    3.4926   -0.3878    1.0184 H   0  0  0  0  0  0  0  0  0  0  0  0
    2.9759   -0.3002   -0.6910 H   0  0  0  0  0  0  0  0  0  0  0  0
    0.8965    1.7113   -0.3840 H   0  0  0  0  0  0  0  0  0  0  0  0
    0.4739    1.7824    1.3872 H   0  0  0  0  0  0  0  0  0  0  0  0
  1  2  1  0
  2  3  2  0
  3  4  1  0
  3  5  1  0
  5  6  2  0
  5  7  1  0
  7  8  1  0
  7  9  1  0
  9  2  1  0
  1 10  1  0
  1 11  1  0
  1 12  1  0
  4 13  1  0
  4 14  1  0
  4 15  1  0
  7 16  1  0
  8 17  1  0
  8 18  1  0
  8 19  1  0
  9 20  1  0
  9 21  1  0
M  END
