
     RDKit          3D

 21 22  0  0  0  0  0  0  0  0999 V2000
   -2.6066   -0.0362    0.5275 C   0  0  0  0  0  0  0  0  0  0  0  0
   -1.1976   -0.1853    0.0661 C   0  0  0  0  0  0  0  0  0  0  0  0
   -0.5047   -1.2367    0.4292 C   0  0  0  0  0  0  0  0  0  0  0  0
    0.8985   -1.4889    0.0324 C   0  0  0  0  0  0  0  0  0  0  0  0
    1.5616   -0.3898   -0.6882 C   0  0  0  0  0  0  0  0  0  0  0  0
    1.8001    0.8686    0.1446 C   0  0  0  0  0  0  0  0  0  0  0  0
    1.3092    0.8889    1.4522 O   0  0  0  0  0  0  0  0  0  0  0  0
    0.8337    0.8145   -0.9904 C   0  0  0  0  0  0  0  0  0  0  0  0
   -0.6290    0.8534   -0.7826 C   0  0  0  0  0  0  0  0  0  0  0  0
   -3.2840   -0.4758   -0.2625 H   0  0  0  0  0  0  0  0  0  0  0  0
   -2.8141   -0.6386    1.4381 H   0  0  0  0  0  0  0  0  0  0  0  0
   -2.9194    1.0147    0.6309 H   0  0  0  0  0  0  0  0  0  0  0  0
   -0.9736   -1.9870    1.0652 H   0  0  0  0  0  0  0  0  0  0  0  0
    0.9017   -2.4101   -0.6015 H   0  0  0  0  0  0  0  0  0  0  0  0
    1.4664   -1.7266    0.9623 H   0  0  0  0  0  0  0  0  0  0  0  0
    2.3686   -0.7089   -1.3942 H   0  0  0  0  0  0  0  0  0  0  0  0
    2.8085    1.3041   -0.0050 H   0  0  0  0  0  0  0  0  0  0  0  0
    1.8853    1.4753    1.9977 H   0  0  0  0  0  0  0  0  0  0  0  0
    1.1703    1.4118   -1.8863 H   0  0  0  0  0  0  0  0  0  0  0  0
   -1.1283    0.8028   -1.7802 H   0  0  0  0  0  0  0  0  0  0  0  0
   -0.9466    1.8497   -0.3553 H   0  0  0  0  0  0  0  0  0  0  0  0
  1  2  1  0
  2  3  2  0
  3  4  1  0
  4  5  1  0
  5  6  1  0
  6  7  1  0
  6  8  1  0
  8  9  1  0
  9  2  1  0
  8  5  1  0
  1 10  1  0
  1 11  1  0
  1 12  1  0
  3 13  1  0
  4 14  1  0
  4 15  1  0
  5 16  1  0
  6 17  1  0
  7 18  1  0
  8 19  1  0
  9 20  1  0
  9 21  1  0
M  END
