
     RDKit          3D

 19 20  0  0  0  0  0  0  0  0999 V2000
    2.1479    0.4513    0.3499 C   0  0  0  0  0  0  0  0  0  0  0  0
    0.6932    0.2521    0.1379 C   0  0  0  0  0  0  0  0  0  0  0  0
   -0.0789    1.2265   -0.3223 C   0  0  0  0  0  0  0  0  0  0  0  0
   -1.5694    1.0525   -0.5492 C   0  0  0  0  0  0  0  0  0  0  0  0
   -1.9308   -0.0272    0.3792 C   0  0  0  0  0  0  0  0  0  0  0  0
   -2.3894   -1.2467    0.2227 O   0  0  0  0  0  0  0  0  0  0  0  0
   -1.1442   -1.2213   -0.2168 C   0  0  0  0  0  0  0  0  0  0  0  0
    0.1580   -1.1224    0.4780 C   0  0  0  0  0  0  0  0  0  0  0  0
    1.0628   -2.0421   -0.0836 O   0  0  0  0  0  0  0  0  0  0  0  0
    2.5489   -0.2552    1.1254 H   0  0  0  0  0  0  0  0  0  0  0  0
    2.3069    1.4691    0.7709 H   0  0  0  0  0  0  0  0  0  0  0  0
    2.7366    0.3886   -0.5663 H   0  0  0  0  0  0  0  0  0  0  0  0
    0.3534    2.2019   -0.5543 H   0  0  0  0  0  0  0  0  0  0  0  0
   -1.6582    0.7879   -1.6268 H   0  0  0  0  0  0  0  0  0  0  0  0
   -2.0944    1.9944   -0.3270 H   0  0  0  0  0  0  0  0  0  0  0  0
   -1.7056    0.2399    1.4542 H   0  0  0  0  0  0  0  0  0  0  0  0
   -1.0411   -1.2815   -1.3180 H   0  0  0  0  0  0  0  0  0  0  0  0
    0.1377   -1.2058    1.5649 H   0  0  0  0  0  0  0  0  0  0  0  0
    1.4667   -1.6620   -0.9189 H   0  0  0  0  0  0  0  0  0  0  0  0
  1  2  1  0
  2  3  2  0
  3  4  1  0
  4  5  1  0
  5  6  1  0
  6  7  1  0
  7  8  1  0
  8  9  1  0
  8  2  1  0
  7  5  1  0
  1 10  1  0
  1 11  1  0
  1 12  1  0
  3 13  1  0
  4 14  1  0
  4 15  1  0
  5 16  1  0
  7 17  1  0
  8 18  1  0
  9 19  1  0
M  END
