
     RDKit          3D

 23 24  0  0  0  0  0  0  0  0999 V2000
    2.6638    0.3723    0.7226 C   0  0  0  0  0  0  0  0  0  0  0  0
    1.3586   -0.1331    0.2215 C   0  0  0  0  0  0  0  0  0  0  0  0
    0.7524   -1.3108    0.4585 C   0  0  0  0  0  0  0  0  0  0  0  0
   -0.4857   -1.2123   -0.3387 C   0  0  0  0  0  0  0  0  0  0  0  0
    0.0367   -0.6101   -1.6272 C   0  0  0  0  0  0  0  0  0  0  0  0
    0.3876    0.5477   -0.6778 C   0  0  0  0  0  0  0  0  0  0  0  0
   -0.9188    0.2250   -0.0033 C   0  0  0  0  0  0  0  0  0  0  0  0
   -0.9643    0.3814    1.4786 C   0  0  0  0  0  0  0  0  0  0  0  0
   -2.1404    0.6812   -0.7595 C   0  0  0  0  0  0  0  0  0  0  0  0
    2.6117    0.7751    1.7403 H   0  0  0  0  0  0  0  0  0  0  0  0
    2.9880    1.1998    0.0480 H   0  0  0  0  0  0  0  0  0  0  0  0
    3.4438   -0.4190    0.7276 H   0  0  0  0  0  0  0  0  0  0  0  0
    1.0380   -2.1491    1.0596 H   0  0  0  0  0  0  0  0  0  0  0  0
   -1.2083   -1.9671   -0.3524 H   0  0  0  0  0  0  0  0  0  0  0  0
   -0.6993   -0.3662   -2.3872 H   0  0  0  0  0  0  0  0  0  0  0  0
    0.9959   -1.0496   -1.9836 H   0  0  0  0  0  0  0  0  0  0  0  0
    0.5838    1.4917   -1.0811 H   0  0  0  0  0  0  0  0  0  0  0  0
   -1.7267    1.1624    1.7714 H   0  0  0  0  0  0  0  0  0  0  0  0
   -1.4025   -0.5755    1.8928 H   0  0  0  0  0  0  0  0  0  0  0  0
    0.0043    0.5634    1.9587 H   0  0  0  0  0  0  0  0  0  0  0  0
   -2.7662   -0.2005   -1.0550 H   0  0  0  0  0  0  0  0  0  0  0  0
   -2.7194    1.3853   -0.1146 H   0  0  0  0  0  0  0  0  0  0  0  0
   -1.8329    1.2081   -1.6991 H   0  0  0  0  0  0  0  0  0  0  0  0
  1  2  1  0
  2  3  2  0
  3  4  1  0
  4  5  1  0
  5  6  1  0
  6  7  1  0
  7  8  1  0
  7  9  1  0
  6  2  1  0
  7  4  1  0
  1 10  1  0
  1 11  1  0
  1 12  1  0
  3 13  1  0
  4 14  1  0
  5 15  1  0
  5 16  1  0
  6 17  1  0
  8 18  1  0
  8 19  1  0
  8 20  1  0
  9 21  1  0
  9 22  1  0
  9 23  1  0
M  END
