
     RDKit          3D

 19 20  0  0  0  0  0  0  0  0999 V2000
   -2.3994    0.1054    0.0912 C   0  0  0  0  0  0  0  0  0  0  0  0
   -0.9769   -0.3183   -0.1220 C   0  0  0  0  0  0  0  0  0  0  0  0
   -0.4336   -1.4702    0.2740 C   0  0  0  0  0  0  0  0  0  0  0  0
    1.0303   -1.4132   -0.1761 C   0  0  0  0  0  0  0  0  0  0  0  0
    1.1954    0.0456    0.1600 C   0  0  0  0  0  0  0  0  0  0  0  0
    0.8821    0.1528    1.5475 O   0  0  0  0  0  0  0  0  0  0  0  0
    1.1141    1.2550   -0.5270 C   0  0  0  0  0  0  0  0  0  0  0  0
    0.8121    2.4566    0.1595 O   0  0  0  0  0  0  0  0  0  0  0  0
    0.0382    0.4166   -0.8275 C   0  0  0  0  0  0  0  0  0  0  0  0
   -2.9758   -0.7734    0.4350 H   0  0  0  0  0  0  0  0  0  0  0  0
   -2.8370    0.4655   -0.8391 H   0  0  0  0  0  0  0  0  0  0  0  0
   -2.4584    0.8996    0.8596 H   0  0  0  0  0  0  0  0  0  0  0  0
   -0.9037   -2.2929    0.8047 H   0  0  0  0  0  0  0  0  0  0  0  0
    1.6051   -2.0473    0.5069 H   0  0  0  0  0  0  0  0  0  0  0  0
    1.1157   -1.6540   -1.2331 H   0  0  0  0  0  0  0  0  0  0  0  0
    1.7334    0.2497    2.0007 H   0  0  0  0  0  0  0  0  0  0  0  0
    1.9040    1.4883   -1.2936 H   0  0  0  0  0  0  0  0  0  0  0  0
    1.4465    2.4695    0.9374 H   0  0  0  0  0  0  0  0  0  0  0  0
    0.1080   -0.0352   -1.8756 H   0  0  0  0  0  0  0  0  0  0  0  0
  1  2  1  0
  2  3  2  0
  3  4  1  0
  4  5  1  0
  5  6  1  0
  5  7  1  0
  7  8  1  0
  7  9  1  0
  9  2  1  0
  9  5  1  0
  1 10  1  0
  1 11  1  0
  1 12  1  0
  3 13  1  0
  4 14  1  0
  4 15  1  0
  6 16  1  0
  7 17  1  0
  8 18  1  0
  9 19  1  0
M  END
