
     RDKit          3D

 17 17  0  0  0  0  0  0  0  0999 V2000
    2.5720   -0.3451    0.5615 C   0  0  0  0  0  0  0  0  0  0  0  0
    1.1640    0.0032    0.1662 C   0  0  0  0  0  0  0  0  0  0  0  0
    0.7769    1.1826   -0.2699 C   0  0  0  0  0  0  0  0  0  0  0  0
   -0.6432    1.2120   -0.5717 C   0  0  0  0  0  0  0  0  0  0  0  0
   -1.3949    2.2110   -0.7481 O   0  0  0  0  0  0  0  0  0  0  0  0
   -1.0439   -0.2418   -0.6318 C   0  0  0  0  0  0  0  0  0  0  0  0
   -2.4142   -0.3152    0.0198 C   0  0  0  0  0  0  0  0  0  0  0  0
   -0.0021   -0.8646    0.1912 C   0  0  0  0  0  0  0  0  0  0  0  0
   -0.0424   -1.9655    0.8396 O   0  0  0  0  0  0  0  0  0  0  0  0
    2.6717   -1.4285    0.6099 H   0  0  0  0  0  0  0  0  0  0  0  0
    2.7923    0.1660    1.5365 H   0  0  0  0  0  0  0  0  0  0  0  0
    3.2888    0.0232   -0.2033 H   0  0  0  0  0  0  0  0  0  0  0  0
    1.4444    2.0437   -0.3924 H   0  0  0  0  0  0  0  0  0  0  0  0
   -1.0353   -0.6092   -1.6579 H   0  0  0  0  0  0  0  0  0  0  0  0
   -2.5502   -1.3641    0.4048 H   0  0  0  0  0  0  0  0  0  0  0  0
   -2.3956    0.4018    0.8660 H   0  0  0  0  0  0  0  0  0  0  0  0
   -3.1882   -0.1094   -0.7204 H   0  0  0  0  0  0  0  0  0  0  0  0
  1  2  1  0
  2  3  2  0
  3  4  1  0
  4  5  2  0
  4  6  1  0
  6  7  1  0
  6  8  1  0
  8  9  2  0
  8  2  1  0
  1 10  1  0
  1 11  1  0
  1 12  1  0
  3 13  1  0
  6 14  1  0
  7 15  1  0
  7 16  1  0
  7 17  1  0
M  END
