
     RDKit          3D

 21 22  0  0  0  0  0  0  0  0999 V2000
   -2.3569    0.5292   -0.5249 C   0  0  0  0  0  0  0  0  0  0  0  0
   -0.8722    0.3258   -0.3491 C   0  0  0  0  0  0  0  0  0  0  0  0
   -0.0088    1.2868   -0.6105 C   0  0  0  0  0  0  0  0  0  0  0  0
    1.3847    0.8901   -0.3756 C   0  0  0  0  0  0  0  0  0  0  0  0
    2.1974    1.8883    0.1639 O   0  0  0  0  0  0  0  0  0  0  0  0
    2.0240   -0.2788   -1.0004 C   0  0  0  0  0  0  0  0  0  0  0  0
    1.2661   -0.4271    0.2712 C   0  0  0  0  0  0  0  0  0  0  0  0
   -0.1594   -0.8622    0.0981 C   0  0  0  0  0  0  0  0  0  0  0  0
   -0.7319   -1.4627    1.3656 C   0  0  0  0  0  0  0  0  0  0  0  0
   -2.6325    1.5398   -0.1253 H   0  0  0  0  0  0  0  0  0  0  0  0
   -2.8979   -0.1973    0.1162 H   0  0  0  0  0  0  0  0  0  0  0  0
   -2.6190    0.4679   -1.5893 H   0  0  0  0  0  0  0  0  0  0  0  0
   -0.2741    2.2969   -0.9710 H   0  0  0  0  0  0  0  0  0  0  0  0
    1.8876    2.2286    1.0207 H   0  0  0  0  0  0  0  0  0  0  0  0
    1.6367   -0.7802   -1.8954 H   0  0  0  0  0  0  0  0  0  0  0  0
    3.1474   -0.2704   -0.9787 H   0  0  0  0  0  0  0  0  0  0  0  0
    1.7796   -0.6146    1.2346 H   0  0  0  0  0  0  0  0  0  0  0  0
   -0.2347   -1.6303   -0.7240 H   0  0  0  0  0  0  0  0  0  0  0  0
   -0.6662   -0.7340    2.1808 H   0  0  0  0  0  0  0  0  0  0  0  0
   -1.7483   -1.8056    1.1276 H   0  0  0  0  0  0  0  0  0  0  0  0
   -0.1218   -2.3904    1.5658 H   0  0  0  0  0  0  0  0  0  0  0  0
  1  2  1  0
  2  3  2  0
  3  4  1  0
  4  5  1  0
  4  6  1  0
  6  7  1  0
  7  8  1  0
  8  9  1  0
  8  2  1  0
  7  4  1  0
  1 10  1  0
  1 11  1  0
  1 12  1  0
  3 13  1  0
  5 14  1  0
  6 15  1  0
  6 16  1  0
  7 17  1  0
  8 18  1  0
  9 19  1  0
  9 20  1  0
  9 21  1  0
M  END
