
     RDKit          3D

 19 20  0  0  0  0  0  0  0  0999 V2000
   -1.9353    0.7613    0.9028 C   0  0  0  0  0  0  0  0  0  0  0  0
   -0.5161    0.5594    0.5175 C   0  0  0  0  0  0  0  0  0  0  0  0
    0.5868    1.2396    0.8267 C   0  0  0  0  0  0  0  0  0  0  0  0
    1.6452    0.5038    0.0663 C   0  0  0  0  0  0  0  0  0  0  0  0
    0.9062    0.2825   -1.2575 C   0  0  0  0  0  0  0  0  0  0  0  0
   -0.0027   -0.5300   -0.3611 C   0  0  0  0  0  0  0  0  0  0  0  0
   -0.8570   -1.5071   -0.8901 C   0  0  0  0  0  0  0  0  0  0  0  0
   -0.6245   -2.0610   -1.9657 O   0  0  0  0  0  0  0  0  0  0  0  0
    1.2717   -0.9243    0.3818 C   0  0  0  0  0  0  0  0  0  0  0  0
   -2.1536    1.8121    1.1991 H   0  0  0  0  0  0  0  0  0  0  0  0
   -2.2726    0.0357    1.6727 H   0  0  0  0  0  0  0  0  0  0  0  0
   -2.5915    0.5709    0.0127 H   0  0  0  0  0  0  0  0  0  0  0  0
    0.7635    2.1023    1.4502 H   0  0  0  0  0  0  0  0  0  0  0  0
    2.6331    0.8284    0.0620 H   0  0  0  0  0  0  0  0  0  0  0  0
    1.4531   -0.2855   -2.0031 H   0  0  0  0  0  0  0  0  0  0  0  0
    0.4378    1.2255   -1.5673 H   0  0  0  0  0  0  0  0  0  0  0  0
   -1.7581   -1.8292   -0.3941 H   0  0  0  0  0  0  0  0  0  0  0  0
    1.1117   -1.1293    1.4605 H   0  0  0  0  0  0  0  0  0  0  0  0
    1.9023   -1.6551   -0.1136 H   0  0  0  0  0  0  0  0  0  0  0  0
  1  2  1  0
  2  3  2  0
  3  4  1  0
  4  5  1  0
  5  6  1  0
  6  7  1  0
  7  8  2  0
  6  9  1  0
  6  2  1  0
  9  4  1  0
  1 10  1  0
  1 11  1  0
  1 12  1  0
  3 13  1  0
  4 14  1  0
  5 15  1  0
  5 16  1  0
  7 17  1  0
  9 18  1  0
  9 19  1  0
M  END
