
     RDKit          3D

 23 23  0  0  0  0  0  0  0  0999 V2000
    2.8075    0.3674    0.0888 C   0  0  0  0  0  0  0  0  0  0  0  0
    1.3593    0.0618   -0.0485 C   0  0  0  0  0  0  0  0  0  0  0  0
    0.5060    0.7274    0.7120 C   0  0  0  0  0  0  0  0  0  0  0  0
   -0.9583    0.5454    0.6995 C   0  0  0  0  0  0  0  0  0  0  0  0
   -1.5555    1.8689    0.2021 C   0  0  0  0  0  0  0  0  0  0  0  0
   -1.4592   -0.5771   -0.1087 C   0  0  0  0  0  0  0  0  0  0  0  0
   -2.4164   -1.2843    0.6535 O   0  0  0  0  0  0  0  0  0  0  0  0
   -0.4510   -1.5485   -0.6069 C   0  0  0  0  0  0  0  0  0  0  0  0
    0.8606   -0.9515   -0.9993 C   0  0  0  0  0  0  0  0  0  0  0  0
    3.1879    0.0355    1.0960 H   0  0  0  0  0  0  0  0  0  0  0  0
    3.4120   -0.0171   -0.7340 H   0  0  0  0  0  0  0  0  0  0  0  0
    2.9013    1.4744    0.0858 H   0  0  0  0  0  0  0  0  0  0  0  0
    0.8879    1.4714    1.4084 H   0  0  0  0  0  0  0  0  0  0  0  0
   -1.2689    0.4497    1.7819 H   0  0  0  0  0  0  0  0  0  0  0  0
   -1.5203    2.6432    0.9743 H   0  0  0  0  0  0  0  0  0  0  0  0
   -0.9543    2.1353   -0.7102 H   0  0  0  0  0  0  0  0  0  0  0  0
   -2.5812    1.6298   -0.1542 H   0  0  0  0  0  0  0  0  0  0  0  0
   -2.0423   -0.1824   -0.9869 H   0  0  0  0  0  0  0  0  0  0  0  0
   -1.9741   -2.0454    1.1038 H   0  0  0  0  0  0  0  0  0  0  0  0
   -0.2811   -2.3699    0.1403 H   0  0  0  0  0  0  0  0  0  0  0  0
   -0.8495   -2.0772   -1.5216 H   0  0  0  0  0  0  0  0  0  0  0  0
    1.6054   -1.7801   -1.0311 H   0  0  0  0  0  0  0  0  0  0  0  0
    0.7842   -0.5767   -2.0451 H   0  0  0  0  0  0  0  0  0  0  0  0
  1  2  1  0
  2  3  2  0
  3  4  1  0
  4  5  1  0
  4  6  1  0
  6  7  1  0
  6  8  1  0
  8  9  1  0
  9  2  1  0
  1 10  1  0
  1 11  1  0
  1 12  1  0
  3 13  1  0
  4 14  1  0
  5 15  1  0
  5 16  1  0
  5 17  1  0
  6 18  1  0
  7 19  1  0
  8 20  1  0
  8 21  1  0
  9 22  1  0
  9 23  1  0
M  END
