
     RDKit          3D

 21 21  0  0  0  0  0  0  0  0999 V2000
    2.2233    0.0374    0.1577 C   0  0  0  0  0  0  0  0  0  0  0  0
    0.8058   -0.3773   -0.0151 C   0  0  0  0  0  0  0  0  0  0  0  0
   -0.1187    0.5658   -0.1672 C   0  0  0  0  0  0  0  0  0  0  0  0
    0.2739    1.9786   -0.1616 C   0  0  0  0  0  0  0  0  0  0  0  0
   -1.5165    0.0726   -0.3349 C   0  0  0  0  0  0  0  0  0  0  0  0
   -2.4679    1.0165   -0.0455 O   0  0  0  0  0  0  0  0  0  0  0  0
   -1.6219   -1.1356    0.6069 C   0  0  0  0  0  0  0  0  0  0  0  0
   -0.7918   -2.1464    0.2162 O   0  0  0  0  0  0  0  0  0  0  0  0
    0.5044   -1.8237   -0.0077 C   0  0  0  0  0  0  0  0  0  0  0  0
    2.4164    1.0747   -0.1587 H   0  0  0  0  0  0  0  0  0  0  0  0
    2.8366   -0.6105   -0.5289 H   0  0  0  0  0  0  0  0  0  0  0  0
    2.5630   -0.1921    1.1844 H   0  0  0  0  0  0  0  0  0  0  0  0
    0.9645    2.2253   -1.0170 H   0  0  0  0  0  0  0  0  0  0  0  0
   -0.5990    2.6540   -0.2373 H   0  0  0  0  0  0  0  0  0  0  0  0
    0.8050    2.2889    0.7815 H   0  0  0  0  0  0  0  0  0  0  0  0
   -1.6050   -0.3536   -1.3593 H   0  0  0  0  0  0  0  0  0  0  0  0
   -2.6478    1.5378   -0.8872 H   0  0  0  0  0  0  0  0  0  0  0  0
   -2.6604   -1.5293    0.6373 H   0  0  0  0  0  0  0  0  0  0  0  0
   -1.3533   -0.7195    1.6217 H   0  0  0  0  0  0  0  0  0  0  0  0
    0.8014   -2.2552   -1.0084 H   0  0  0  0  0  0  0  0  0  0  0  0
    1.1881   -2.3083    0.7230 H   0  0  0  0  0  0  0  0  0  0  0  0
  1  2  1  0
  2  3  2  0
  3  4  1  0
  3  5  1  0
  5  6  1  0
  5  7  1  0
  7  8  1  0
  8  9  1  0
  9  2  1  0
  1 10  1  0
  1 11  1  0
  1 12  1  0
  4 13  1  0
  4 14  1  0
  4 15  1  0
  5 16  1  0
  6 17  1  0
  7 18  1  0
  7 19  1  0
  9 20  1  0
  9 21  1  0
M  END
