
     RDKit          3D

 19 20  0  0  0  0  0  0  0  0999 V2000
    2.5488   -0.2726   -0.1438 C   0  0  0  0  0  0  0  0  0  0  0  0
    1.0480   -0.1681   -0.2435 C   0  0  0  0  0  0  0  0  0  0  0  0
    0.3811   -1.3216   -0.1933 C   0  0  0  0  0  0  0  0  0  0  0  0
   -1.0748   -1.4080   -0.2758 C   0  0  0  0  0  0  0  0  0  0  0  0
   -1.9683   -1.7320    0.6341 O   0  0  0  0  0  0  0  0  0  0  0  0
   -1.5350   -0.4902    0.8795 C   0  0  0  0  0  0  0  0  0  0  0  0
   -1.9158    0.7855    0.2486 C   0  0  0  0  0  0  0  0  0  0  0  0
   -0.7035    1.5797   -0.1648 C   0  0  0  0  0  0  0  0  0  0  0  0
    0.5583    1.2029   -0.3795 C   0  0  0  0  0  0  0  0  0  0  0  0
    2.9769   -0.7550   -1.0297 H   0  0  0  0  0  0  0  0  0  0  0  0
    2.7158   -0.9542    0.7428 H   0  0  0  0  0  0  0  0  0  0  0  0
    2.9848    0.6874    0.1258 H   0  0  0  0  0  0  0  0  0  0  0  0
    0.9765   -2.2189   -0.0859 H   0  0  0  0  0  0  0  0  0  0  0  0
   -1.4576   -1.1646   -1.2950 H   0  0  0  0  0  0  0  0  0  0  0  0
   -0.8785   -0.3913    1.7662 H   0  0  0  0  0  0  0  0  0  0  0  0
   -2.4305    1.4287    1.0181 H   0  0  0  0  0  0  0  0  0  0  0  0
   -2.5673    0.5837   -0.6240 H   0  0  0  0  0  0  0  0  0  0  0  0
   -0.9227    2.6279   -0.3035 H   0  0  0  0  0  0  0  0  0  0  0  0
    1.2636    1.9807   -0.6764 H   0  0  0  0  0  0  0  0  0  0  0  0
  1  2  1  0
  2  3  2  0
  3  4  1  0
  4  5  1  0
  5  6  1  0
  6  7  1  0
  7  8  1  0
  8  9  2  0
  9  2  1  0
  6  4  1  0
  1 10  1  0
  1 11  1  0
  1 12  1  0
  3 13  1  0
  4 14  1  0
  6 15  1  0
  7 16  1  0
  7 17  1  0
  8 18  1  0
  9 19  1  0
M  END
