
     RDKit          3D

 19 21  0  0  0  0  0  0  0  0999 V2000
    2.6417    0.2182   -0.1838 C   0  0  0  0  0  0  0  0  0  0  0  0
    1.1865    0.2856    0.0588 C   0  0  0  0  0  0  0  0  0  0  0  0
    0.5964    0.8632    1.1202 C   0  0  0  0  0  0  0  0  0  0  0  0
   -0.8276    0.5862    0.9168 C   0  0  0  0  0  0  0  0  0  0  0  0
   -1.0417    0.8195   -0.5440 C   0  0  0  0  0  0  0  0  0  0  0  0
   -2.0101   -0.3276   -0.5029 C   0  0  0  0  0  0  0  0  0  0  0  0
   -0.8511   -0.8061    0.3370 C   0  0  0  0  0  0  0  0  0  0  0  0
   -0.7353   -1.8931    0.9420 O   0  0  0  0  0  0  0  0  0  0  0  0
    0.0304   -0.2163   -0.7207 C   0  0  0  0  0  0  0  0  0  0  0  0
    2.9477    1.1512   -0.6779 H   0  0  0  0  0  0  0  0  0  0  0  0
    2.9576   -0.6990   -0.7051 H   0  0  0  0  0  0  0  0  0  0  0  0
    3.1824    0.2045    0.8081 H   0  0  0  0  0  0  0  0  0  0  0  0
    1.0265    1.4106    1.9487 H   0  0  0  0  0  0  0  0  0  0  0  0
   -1.5591    0.8730    1.6284 H   0  0  0  0  0  0  0  0  0  0  0  0
   -1.1400    1.6883   -1.0287 H   0  0  0  0  0  0  0  0  0  0  0  0
   -2.1637   -0.8321   -1.4610 H   0  0  0  0  0  0  0  0  0  0  0  0
   -2.8883   -0.1226    0.1140 H   0  0  0  0  0  0  0  0  0  0  0  0
   -1.5234   -2.5028    0.9668 H   0  0  0  0  0  0  0  0  0  0  0  0
    0.1711   -0.7008   -1.6490 H   0  0  0  0  0  0  0  0  0  0  0  0
  1  2  1  0
  2  3  2  0
  3  4  1  0
  4  5  1  0
  5  6  1  0
  6  7  1  0
  7  8  1  0
  7  9  1  0
  9  2  1  0
  7  4  1  0
  9  5  1  0
  1 10  1  0
  1 11  1  0
  1 12  1  0
  3 13  1  0
  4 14  1  0
  5 15  1  0
  6 16  1  0
  6 17  1  0
  8 18  1  0
  9 19  1  0
M  END
