
     RDKit          3D

 21 21  0  0  0  0  0  0  0  0999 V2000
    2.3808    1.1112    0.2803 C   0  0  0  0  0  0  0  0  0  0  0  0
    1.0649    0.3734    0.2126 C   0  0  0  0  0  0  0  0  0  0  0  0
   -0.0576    0.9910    0.5226 C   0  0  0  0  0  0  0  0  0  0  0  0
   -1.4014    0.3644    0.4908 C   0  0  0  0  0  0  0  0  0  0  0  0
   -2.2109    0.9023   -0.6208 C   0  0  0  0  0  0  0  0  0  0  0  0
   -2.2262    2.0993   -0.8186 O   0  0  0  0  0  0  0  0  0  0  0  0
   -1.2356   -1.1383    0.3934 C   0  0  0  0  0  0  0  0  0  0  0  0
   -0.2633   -1.3882   -0.7603 C   0  0  0  0  0  0  0  0  0  0  0  0
    1.1168   -1.0579   -0.2155 C   0  0  0  0  0  0  0  0  0  0  0  0
    2.3549    1.7740    1.1869 H   0  0  0  0  0  0  0  0  0  0  0  0
    2.4772    1.7761   -0.6215 H   0  0  0  0  0  0  0  0  0  0  0  0
    3.2211    0.3897    0.3467 H   0  0  0  0  0  0  0  0  0  0  0  0
    0.0348    2.0464    0.8233 H   0  0  0  0  0  0  0  0  0  0  0  0
   -1.9395    0.5587    1.4591 H   0  0  0  0  0  0  0  0  0  0  0  0
   -2.7788    0.2553   -1.2481 H   0  0  0  0  0  0  0  0  0  0  0  0
   -2.1709   -1.6567    0.1815 H   0  0  0  0  0  0  0  0  0  0  0  0
   -0.7700   -1.4655    1.3535 H   0  0  0  0  0  0  0  0  0  0  0  0
   -0.4888   -0.6190   -1.5322 H   0  0  0  0  0  0  0  0  0  0  0  0
   -0.3300   -2.4117   -1.1360 H   0  0  0  0  0  0  0  0  0  0  0  0
    1.3355   -1.6690    0.6801 H   0  0  0  0  0  0  0  0  0  0  0  0
    1.8870   -1.2357   -0.9777 H   0  0  0  0  0  0  0  0  0  0  0  0
  1  2  1  0
  2  3  2  0
  3  4  1  0
  4  5  1  0
  5  6  2  0
  4  7  1  0
  7  8  1  0
  8  9  1  0
  9  2  1  0
  1 10  1  0
  1 11  1  0
  1 12  1  0
  3 13  1  0
  4 14  1  0
  5 15  1  0
  7 16  1  0
  7 17  1  0
  8 18  1  0
  8 19  1  0
  9 20  1  0
  9 21  1  0
M  END
