
     RDKit          3D

 17 17  0  0  0  0  0  0  0  0999 V2000
    1.8422   -1.0540   -0.1218 C   0  0  0  0  0  0  0  0  0  0  0  0
    0.4780   -0.5054    0.0024 C   0  0  0  0  0  0  0  0  0  0  0  0
    0.0965    0.7678    0.1135 C   0  0  0  0  0  0  0  0  0  0  0  0
    1.0332    1.8840    0.1299 C   0  0  0  0  0  0  0  0  0  0  0  0
    2.2760    1.7363    0.0404 O   0  0  0  0  0  0  0  0  0  0  0  0
   -1.3884    0.8533    0.2142 C   0  0  0  0  0  0  0  0  0  0  0  0
   -1.9052   -0.4901   -0.2124 C   0  0  0  0  0  0  0  0  0  0  0  0
   -0.7173   -1.3562    0.0197 C   0  0  0  0  0  0  0  0  0  0  0  0
   -0.7315   -2.5923    0.1984 O   0  0  0  0  0  0  0  0  0  0  0  0
    2.5864   -0.5266    0.5214 H   0  0  0  0  0  0  0  0  0  0  0  0
    2.1644   -0.9676   -1.1994 H   0  0  0  0  0  0  0  0  0  0  0  0
    1.8774   -2.1139    0.2042 H   0  0  0  0  0  0  0  0  0  0  0  0
    0.6792    2.8999    0.2218 H   0  0  0  0  0  0  0  0  0  0  0  0
   -1.7318    1.6676   -0.4403 H   0  0  0  0  0  0  0  0  0  0  0  0
   -1.7012    1.1259    1.2469 H   0  0  0  0  0  0  0  0  0  0  0  0
   -2.7758   -0.8406    0.3691 H   0  0  0  0  0  0  0  0  0  0  0  0
   -2.0822   -0.4880   -1.3080 H   0  0  0  0  0  0  0  0  0  0  0  0
  1  2  1  0
  2  3  2  0
  3  4  1  0
  4  5  2  0
  3  6  1  0
  6  7  1  0
  7  8  1  0
  8  9  2  0
  8  2  1  0
  1 10  1  0
  1 11  1  0
  1 12  1  0
  4 13  1  0
  6 14  1  0
  6 15  1  0
  7 16  1  0
  7 17  1  0
M  END
