
     RDKit          3D

 20 20  0  0  0  0  0  0  0  0999 V2000
    2.5984    0.1210    0.0398 C   0  0  0  0  0  0  0  0  0  0  0  0
    1.1200   -0.0011    0.1985 C   0  0  0  0  0  0  0  0  0  0  0  0
    0.3897    1.0992    0.2704 C   0  0  0  0  0  0  0  0  0  0  0  0
   -1.0787    1.2791    0.4263 C   0  0  0  0  0  0  0  0  0  0  0  0
   -1.7591    0.4998   -0.6859 C   0  0  0  0  0  0  0  0  0  0  0  0
   -1.6353   -0.9668   -0.3798 C   0  0  0  0  0  0  0  0  0  0  0  0
   -0.4021   -1.4969   -0.7556 O   0  0  0  0  0  0  0  0  0  0  0  0
    0.5469   -1.3955    0.2677 C   0  0  0  0  0  0  0  0  0  0  0  0
    3.1568   -0.6204    0.6361 H   0  0  0  0  0  0  0  0  0  0  0  0
    2.7933   -0.0077   -1.0547 H   0  0  0  0  0  0  0  0  0  0  0  0
    2.8565    1.1703    0.2794 H   0  0  0  0  0  0  0  0  0  0  0  0
    0.9455    2.0263    0.2057 H   0  0  0  0  0  0  0  0  0  0  0  0
   -1.3549    2.3301    0.3987 H   0  0  0  0  0  0  0  0  0  0  0  0
   -1.3581    0.7577    1.3770 H   0  0  0  0  0  0  0  0  0  0  0  0
   -1.1280    0.6841   -1.6021 H   0  0  0  0  0  0  0  0  0  0  0  0
   -2.7735    0.8340   -0.8827 H   0  0  0  0  0  0  0  0  0  0  0  0
   -2.4397   -1.5261   -0.9084 H   0  0  0  0  0  0  0  0  0  0  0  0
   -1.7588   -1.1169    0.7168 H   0  0  0  0  0  0  0  0  0  0  0  0
    1.3163   -2.1648    0.2303 H   0  0  0  0  0  0  0  0  0  0  0  0
   -0.0353   -1.5056    1.2225 H   0  0  0  0  0  0  0  0  0  0  0  0
  1  2  1  0
  2  3  2  0
  3  4  1  0
  4  5  1  0
  5  6  1  0
  6  7  1  0
  7  8  1  0
  8  2  1  0
  1  9  1  0
  1 10  1  0
  1 11  1  0
  3 12  1  0
  4 13  1  0
  4 14  1  0
  5 15  1  0
  5 16  1  0
  6 17  1  0
  6 18  1  0
  8 19  1  0
  8 20  1  0
M  END
