
     RDKit          3D

 21 21  0  0  0  0  0  0  0  0999 V2000
    2.7974   -0.0845   -0.0481 C   0  0  0  0  0  0  0  0  0  0  0  0
    1.3216   -0.1911    0.0603 C   0  0  0  0  0  0  0  0  0  0  0  0
    0.6586   -1.1864    0.6277 C   0  0  0  0  0  0  0  0  0  0  0  0
   -0.8020   -0.9804    0.5645 C   0  0  0  0  0  0  0  0  0  0  0  0
   -1.3689   -1.8326   -0.3518 O   0  0  0  0  0  0  0  0  0  0  0  0
   -0.9244    0.4734    0.2055 C   0  0  0  0  0  0  0  0  0  0  0  0
   -2.0333    0.7387   -0.7876 C   0  0  0  0  0  0  0  0  0  0  0  0
   -1.1284    1.1886    1.3869 O   0  0  0  0  0  0  0  0  0  0  0  0
    0.3767    0.8254   -0.4643 C   0  0  0  0  0  0  0  0  0  0  0  0
    3.0954    0.2672   -1.0671 H   0  0  0  0  0  0  0  0  0  0  0  0
    3.1841    0.6043    0.7264 H   0  0  0  0  0  0  0  0  0  0  0  0
    3.2976   -1.0772    0.1414 H   0  0  0  0  0  0  0  0  0  0  0  0
    1.1038   -2.0729    1.0980 H   0  0  0  0  0  0  0  0  0  0  0  0
   -1.2423   -1.1974    1.5700 H   0  0  0  0  0  0  0  0  0  0  0  0
   -1.4043   -2.7346    0.0574 H   0  0  0  0  0  0  0  0  0  0  0  0
   -2.9284    0.1352   -0.5691 H   0  0  0  0  0  0  0  0  0  0  0  0
   -1.6262    0.5223   -1.8184 H   0  0  0  0  0  0  0  0  0  0  0  0
   -2.2201    1.8333   -0.7840 H   0  0  0  0  0  0  0  0  0  0  0  0
   -1.0783    2.1585    1.1957 H   0  0  0  0  0  0  0  0  0  0  0  0
    0.2754    0.7542   -1.5851 H   0  0  0  0  0  0  0  0  0  0  0  0
    0.6461    1.8560   -0.1583 H   0  0  0  0  0  0  0  0  0  0  0  0
  1  2  1  0
  2  3  2  0
  3  4  1  0
  4  5  1  0
  4  6  1  0
  6  7  1  0
  6  8  1  0
  6  9  1  0
  9  2  1  0
  1 10  1  0
  1 11  1  0
  1 12  1  0
  3 13  1  0
  4 14  1  0
  5 15  1  0
  7 16  1  0
  7 17  1  0
  7 18  1  0
  8 19  1  0
  9 20  1  0
  9 21  1  0
M  END
