
     RDKit          3D

 21 21  0  0  0  0  0  0  0  0999 V2000
    3.0048    0.1703    0.3041 C   0  0  0  0  0  0  0  0  0  0  0  0
    1.5261    0.0772    0.1752 C   0  0  0  0  0  0  0  0  0  0  0  0
    0.9993   -0.8685   -0.5872 C   0  0  0  0  0  0  0  0  0  0  0  0
   -0.4638   -1.0268   -0.7667 C   0  0  0  0  0  0  0  0  0  0  0  0
   -1.2134    0.2592   -0.5071 C   0  0  0  0  0  0  0  0  0  0  0  0
   -2.6866   -0.1392   -0.3315 C   0  0  0  0  0  0  0  0  0  0  0  0
   -0.7784    0.7924    0.8411 C   0  0  0  0  0  0  0  0  0  0  0  0
    0.6858    1.0292    0.8909 C   0  0  0  0  0  0  0  0  0  0  0  0
    1.1295    2.0135    1.5305 O   0  0  0  0  0  0  0  0  0  0  0  0
    3.4599   -0.8450    0.1877 H   0  0  0  0  0  0  0  0  0  0  0  0
    3.4229    0.8212   -0.4969 H   0  0  0  0  0  0  0  0  0  0  0  0
    3.3000    0.5326    1.3034 H   0  0  0  0  0  0  0  0  0  0  0  0
    1.6330   -1.5699   -1.1140 H   0  0  0  0  0  0  0  0  0  0  0  0
   -0.8137   -1.7962   -0.0481 H   0  0  0  0  0  0  0  0  0  0  0  0
   -0.6712   -1.4255   -1.7808 H   0  0  0  0  0  0  0  0  0  0  0  0
   -1.1194    0.9848   -1.3176 H   0  0  0  0  0  0  0  0  0  0  0  0
   -3.1848   -0.3075   -1.2819 H   0  0  0  0  0  0  0  0  0  0  0  0
   -3.1385    0.6561    0.2907 H   0  0  0  0  0  0  0  0  0  0  0  0
   -2.6665   -1.0745    0.2561 H   0  0  0  0  0  0  0  0  0  0  0  0
   -1.3642    1.7139    1.0202 H   0  0  0  0  0  0  0  0  0  0  0  0
   -1.0609    0.0029    1.5930 H   0  0  0  0  0  0  0  0  0  0  0  0
  1  2  1  0
  2  3  2  0
  3  4  1  0
  4  5  1  0
  5  6  1  0
  5  7  1  0
  7  8  1  0
  8  9  2  0
  8  2  1  0
  1 10  1  0
  1 11  1  0
  1 12  1  0
  3 13  1  0
  4 14  1  0
  4 15  1  0
  5 16  1  0
  6 17  1  0
  6 18  1  0
  6 19  1  0
  7 20  1  0
  7 21  1  0
M  END
