
     RDKit          3D

 21 22  0  0  0  0  0  0  0  0999 V2000
   -2.4686   -0.0776    0.9503 C   0  0  0  0  0  0  0  0  0  0  0  0
   -0.9676   -0.2256    0.8145 C   0  0  0  0  0  0  0  0  0  0  0  0
   -0.1906   -1.0248    1.5253 C   0  0  0  0  0  0  0  0  0  0  0  0
    1.2251   -0.8830    1.0923 C   0  0  0  0  0  0  0  0  0  0  0  0
    1.3025   -1.5341   -0.2647 O   0  0  0  0  0  0  0  0  0  0  0  0
    1.2168   -0.1172   -0.0201 C   0  0  0  0  0  0  0  0  0  0  0  0
    2.3146    0.6086   -0.7525 C   0  0  0  0  0  0  0  0  0  0  0  0
   -0.1458    0.5119   -0.1371 C   0  0  0  0  0  0  0  0  0  0  0  0
   -0.6604    0.4469   -1.5585 C   0  0  0  0  0  0  0  0  0  0  0  0
   -2.8939   -0.8687    1.5720 H   0  0  0  0  0  0  0  0  0  0  0  0
   -2.8670   -0.2022   -0.0727 H   0  0  0  0  0  0  0  0  0  0  0  0
   -2.7220    0.9103    1.3886 H   0  0  0  0  0  0  0  0  0  0  0  0
   -0.5413   -1.6975    2.3220 H   0  0  0  0  0  0  0  0  0  0  0  0
    1.9885   -1.3293    1.7370 H   0  0  0  0  0  0  0  0  0  0  0  0
    2.0340    1.6831   -0.9605 H   0  0  0  0  0  0  0  0  0  0  0  0
    3.2859    0.5715   -0.2610 H   0  0  0  0  0  0  0  0  0  0  0  0
    2.3955    0.1489   -1.7673 H   0  0  0  0  0  0  0  0  0  0  0  0
   -0.0179    1.5849    0.1242 H   0  0  0  0  0  0  0  0  0  0  0  0
   -0.5320   -0.5254   -2.0326 H   0  0  0  0  0  0  0  0  0  0  0  0
   -0.0572    1.1888   -2.1418 H   0  0  0  0  0  0  0  0  0  0  0  0
   -1.6985    0.8304   -1.5573 H   0  0  0  0  0  0  0  0  0  0  0  0
  1  2  1  0
  2  3  2  0
  3  4  1  0
  4  5  1  0
  5  6  1  0
  6  7  1  0
  6  8  1  0
  8  9  1  0
  8  2  1  0
  6  4  1  0
  1 10  1  0
  1 11  1  0
  1 12  1  0
  3 13  1  0
  4 14  1  0
  7 15  1  0
  7 16  1  0
  7 17  1  0
  8 18  1  0
  9 19  1  0
  9 20  1  0
  9 21  1  0
M  END
