
     RDKit          3D

 20 20  0  0  0  0  0  0  0  0999 V2000
    2.3646    0.4121    0.0281 C   0  0  0  0  0  0  0  0  0  0  0  0
    0.8783    0.3211    0.0316 C   0  0  0  0  0  0  0  0  0  0  0  0
    0.0948    1.1778    0.6551 C   0  0  0  0  0  0  0  0  0  0  0  0
   -1.3821    1.1161    0.6783 C   0  0  0  0  0  0  0  0  0  0  0  0
   -1.9545   -0.0635   -0.0252 C   0  0  0  0  0  0  0  0  0  0  0  0
   -0.9578   -1.2193    0.1394 C   0  0  0  0  0  0  0  0  0  0  0  0
    0.2306   -0.7967   -0.7077 C   0  0  0  0  0  0  0  0  0  0  0  0
    1.0787   -1.8233   -1.0100 O   0  0  0  0  0  0  0  0  0  0  0  0
    2.6550    1.4518    0.2503 H   0  0  0  0  0  0  0  0  0  0  0  0
    2.7342    0.1338   -0.9779 H   0  0  0  0  0  0  0  0  0  0  0  0
    2.7727   -0.2159    0.8395 H   0  0  0  0  0  0  0  0  0  0  0  0
    0.5633    1.9924    1.1941 H   0  0  0  0  0  0  0  0  0  0  0  0
   -1.8091    2.0843    0.3298 H   0  0  0  0  0  0  0  0  0  0  0  0
   -1.6733    1.0455    1.7684 H   0  0  0  0  0  0  0  0  0  0  0  0
   -2.0152    0.1090   -1.1260 H   0  0  0  0  0  0  0  0  0  0  0  0
   -2.9262   -0.4018    0.4019 H   0  0  0  0  0  0  0  0  0  0  0  0
   -0.6894   -1.1946    1.2318 H   0  0  0  0  0  0  0  0  0  0  0  0
   -1.3729   -2.1762   -0.1550 H   0  0  0  0  0  0  0  0  0  0  0  0
   -0.1378   -0.3559   -1.6709 H   0  0  0  0  0  0  0  0  0  0  0  0
    1.5462   -1.5966   -1.8755 H   0  0  0  0  0  0  0  0  0  0  0  0
  1  2  1  0
  2  3  2  0
  3  4  1  0
  4  5  1  0
  5  6  1  0
  6  7  1  0
  7  8  1  0
  7  2  1  0
  1  9  1  0
  1 10  1  0
  1 11  1  0
  3 12  1  0
  4 13  1  0
  4 14  1  0
  5 15  1  0
  5 16  1  0
  6 17  1  0
  6 18  1  0
  7 19  1  0
  8 20  1  0
M  END
