
     RDKit          3D

 19 22  0  0  0  0  0  0  0  0999 V2000
    2.5542   -0.3988    0.0331 C   0  0  0  0  0  0  0  0  0  0  0  0
    1.1287    0.0364   -0.0505 C   0  0  0  0  0  0  0  0  0  0  0  0
    0.6757    1.1229    0.5506 C   0  0  0  0  0  0  0  0  0  0  0  0
   -0.7497    1.1823    0.8805 C   0  0  0  0  0  0  0  0  0  0  0  0
   -1.4274   -0.1233    0.9418 C   0  0  0  0  0  0  0  0  0  0  0  0
   -1.6418    0.8468   -0.2250 C   0  0  0  0  0  0  0  0  0  0  0  0
   -1.0774   -0.1107   -1.2037 C   0  0  0  0  0  0  0  0  0  0  0  0
    0.1684   -0.7698   -0.8344 C   0  0  0  0  0  0  0  0  0  0  0  0
   -0.9908   -1.1333   -0.0444 C   0  0  0  0  0  0  0  0  0  0  0  0
    2.5917   -1.5021    0.1424 H   0  0  0  0  0  0  0  0  0  0  0  0
    3.0855    0.0950    0.8724 H   0  0  0  0  0  0  0  0  0  0  0  0
    3.0250   -0.1216   -0.9435 H   0  0  0  0  0  0  0  0  0  0  0  0
    1.3245    1.9496    0.7971 H   0  0  0  0  0  0  0  0  0  0  0  0
   -1.1102    1.9435    1.5997 H   0  0  0  0  0  0  0  0  0  0  0  0
   -2.2162   -0.2827    1.6647 H   0  0  0  0  0  0  0  0  0  0  0  0
   -2.6770    1.1822   -0.3041 H   0  0  0  0  0  0  0  0  0  0  0  0
   -1.6104   -0.3970   -2.1083 H   0  0  0  0  0  0  0  0  0  0  0  0
    0.5757   -1.5049   -1.5471 H   0  0  0  0  0  0  0  0  0  0  0  0
   -1.6286   -2.0144   -0.2213 H   0  0  0  0  0  0  0  0  0  0  0  0
  1  2  1  0
  2  3  2  0
  3  4  1  0
  4  5  1  0
  5  6  1  0
  6  7  1  0
  7  8  1  0
  8  9  1  0
  8  2  1  0
  6  4  1  0
  9  7  1  0
  9  5  1  0
  1 10  1  0
  1 11  1  0
  1 12  1  0
  3 13  1  0
  4 14  1  0
  5 15  1  0
  6 16  1  0
  7 17  1  0
  8 18  1  0
  9 19  1  0
M  END
