
     RDKit          3D

 19 20  0  0  0  0  0  0  0  0999 V2000
    2.5603   -0.4113    0.2374 C   0  0  0  0  0  0  0  0  0  0  0  0
    1.1097   -0.1896    0.0166 C   0  0  0  0  0  0  0  0  0  0  0  0
    0.3012   -1.2438    0.1017 C   0  0  0  0  0  0  0  0  0  0  0  0
   -1.1612   -1.2259   -0.1741 C   0  0  0  0  0  0  0  0  0  0  0  0
   -1.7871   -0.1274    0.6822 C   0  0  0  0  0  0  0  0  0  0  0  0
   -1.7591    0.7718   -0.5482 C   0  0  0  0  0  0  0  0  0  0  0  0
   -0.5254    1.6226   -0.5582 C   0  0  0  0  0  0  0  0  0  0  0  0
    0.7133    1.2173   -0.2819 C   0  0  0  0  0  0  0  0  0  0  0  0
   -1.4356   -0.3876   -1.2801 O   0  0  0  0  0  0  0  0  0  0  0  0
    3.1834    0.3148   -0.3129 H   0  0  0  0  0  0  0  0  0  0  0  0
    2.8580   -1.4279   -0.0797 H   0  0  0  0  0  0  0  0  0  0  0  0
    2.7454   -0.2623    1.3187 H   0  0  0  0  0  0  0  0  0  0  0  0
    0.6937   -2.2038    0.3891 H   0  0  0  0  0  0  0  0  0  0  0  0
   -1.6666   -2.1824   -0.1706 H   0  0  0  0  0  0  0  0  0  0  0  0
   -2.8016   -0.3691    1.0490 H   0  0  0  0  0  0  0  0  0  0  0  0
   -1.1325    0.2295    1.5111 H   0  0  0  0  0  0  0  0  0  0  0  0
   -2.6742    1.2731   -0.8093 H   0  0  0  0  0  0  0  0  0  0  0  0
   -0.7087    2.6504   -0.8190 H   0  0  0  0  0  0  0  0  0  0  0  0
    1.4870    1.9516   -0.2718 H   0  0  0  0  0  0  0  0  0  0  0  0
  1  2  1  0
  2  3  2  0
  3  4  1  0
  4  5  1  0
  5  6  1  0
  6  7  1  0
  7  8  2  0
  6  9  1  0
  8  2  1  0
  9  4  1  0
  1 10  1  0
  1 11  1  0
  1 12  1  0
  3 13  1  0
  4 14  1  0
  5 15  1  0
  5 16  1  0
  6 17  1  0
  7 18  1  0
  8 19  1  0
M  END
