
     RDKit          3D

 17 19  0  0  0  0  0  0  0  0999 V2000
   -2.3158    0.2460   -0.2448 C   0  0  0  0  0  0  0  0  0  0  0  0
   -0.8400    0.1306   -0.1182 C   0  0  0  0  0  0  0  0  0  0  0  0
   -0.1374    1.2360    0.0760 C   0  0  0  0  0  0  0  0  0  0  0  0
    1.3370    1.1953    0.2113 C   0  0  0  0  0  0  0  0  0  0  0  0
    1.8940    0.6115    1.3436 O   0  0  0  0  0  0  0  0  0  0  0  0
    1.9622   -0.0836    0.0896 C   0  0  0  0  0  0  0  0  0  0  0  0
    1.1162   -1.2927   -0.0809 C   0  0  0  0  0  0  0  0  0  0  0  0
    0.2598   -1.6441    1.0677 O   0  0  0  0  0  0  0  0  0  0  0  0
   -0.2386   -1.2064   -0.2149 C   0  0  0  0  0  0  0  0  0  0  0  0
   -2.6566    1.2965   -0.3161 H   0  0  0  0  0  0  0  0  0  0  0  0
   -2.7436   -0.1575    0.7047 H   0  0  0  0  0  0  0  0  0  0  0  0
   -2.6700   -0.2913   -1.1255 H   0  0  0  0  0  0  0  0  0  0  0  0
   -0.6796    2.1699    0.1324 H   0  0  0  0  0  0  0  0  0  0  0  0
    1.8812    2.1039   -0.1197 H   0  0  0  0  0  0  0  0  0  0  0  0
    2.9943   -0.1172   -0.3617 H   0  0  0  0  0  0  0  0  0  0  0  0
    1.6908   -2.2301   -0.3385 H   0  0  0  0  0  0  0  0  0  0  0  0
   -0.8539   -1.9667   -0.7050 H   0  0  0  0  0  0  0  0  0  0  0  0
  1  2  1  0
  2  3  2  0
  3  4  1  0
  4  5  1  0
  5  6  1  0
  6  7  1  0
  7  8  1  0
  8  9  1  0
  9  2  1  0
  6  4  1  0
  9  7  1  0
  1 10  1  0
  1 11  1  0
  1 12  1  0
  3 13  1  0
  4 14  1  0
  6 15  1  0
  7 16  1  0
  9 17  1  0
M  END
