
     RDKit          3D

 21 23  0  0  0  0  0  0  0  0999 V2000
   -2.0356    1.6727   -0.4508 C   0  0  0  0  0  0  0  0  0  0  0  0
   -1.1869    0.5118   -0.0656 C   0  0  0  0  0  0  0  0  0  0  0  0
    0.1450    0.5142   -0.1137 C   0  0  0  0  0  0  0  0  0  0  0  0
    0.5620   -0.8641    0.3807 C   0  0  0  0  0  0  0  0  0  0  0  0
   -0.4670   -1.6761   -0.2888 C   0  0  0  0  0  0  0  0  0  0  0  0
   -1.6864   -0.8711    0.3218 C   0  0  0  0  0  0  0  0  0  0  0  0
    1.9246   -0.6126   -0.0911 C   0  0  0  0  0  0  0  0  0  0  0  0
    2.5827    0.5451    0.6819 C   0  0  0  0  0  0  0  0  0  0  0  0
    1.5729    0.8528   -0.3117 C   0  0  0  0  0  0  0  0  0  0  0  0
   -1.8053    2.5760    0.1581 H   0  0  0  0  0  0  0  0  0  0  0  0
   -1.8232    1.8971   -1.5007 H   0  0  0  0  0  0  0  0  0  0  0  0
   -3.1115    1.4097   -0.2868 H   0  0  0  0  0  0  0  0  0  0  0  0
    0.4301   -0.9252    1.5015 H   0  0  0  0  0  0  0  0  0  0  0  0
   -0.5831   -2.7045    0.0488 H   0  0  0  0  0  0  0  0  0  0  0  0
   -0.5601   -1.5188   -1.3732 H   0  0  0  0  0  0  0  0  0  0  0  0
   -2.6077   -1.1539   -0.1511 H   0  0  0  0  0  0  0  0  0  0  0  0
   -1.6295   -1.0246    1.4048 H   0  0  0  0  0  0  0  0  0  0  0  0
    2.4844   -1.1727   -0.8228 H   0  0  0  0  0  0  0  0  0  0  0  0
    2.2724    0.6773    1.7579 H   0  0  0  0  0  0  0  0  0  0  0  0
    3.6544    0.6586    0.5462 H   0  0  0  0  0  0  0  0  0  0  0  0
    1.8678    1.2082   -1.3453 H   0  0  0  0  0  0  0  0  0  0  0  0
  1  2  1  0
  2  3  2  0
  3  4  1  0
  4  5  1  0
  5  6  1  0
  4  7  1  0
  7  8  1  0
  8  9  1  0
  6  2  1  0
  9  7  1  0
  9  3  1  0
  1 10  1  0
  1 11  1  0
  1 12  1  0
  4 13  1  0
  5 14  1  0
  5 15  1  0
  6 16  1  0
  6 17  1  0
  7 18  1  0
  8 19  1  0
  8 20  1  0
  9 21  1  0
M  END
