
     RDKit          3D

 23 23  0  0  0  0  0  0  0  0999 V2000
    2.4428    1.1728    0.1253 C   0  0  0  0  0  0  0  0  0  0  0  0
    1.0302    0.7317   -0.1371 C   0  0  0  0  0  0  0  0  0  0  0  0
    0.1122    1.4302   -0.7691 C   0  0  0  0  0  0  0  0  0  0  0  0
   -1.1912    0.7236   -0.8708 C   0  0  0  0  0  0  0  0  0  0  0  0
   -1.0656   -0.3826    0.1447 C   0  0  0  0  0  0  0  0  0  0  0  0
   -1.7343   -0.0172    1.4233 C   0  0  0  0  0  0  0  0  0  0  0  0
   -1.6631   -1.5194   -0.3803 O   0  0  0  0  0  0  0  0  0  0  0  0
    0.4312   -0.5504    0.2650 C   0  0  0  0  0  0  0  0  0  0  0  0
    0.8758   -1.7117   -0.5799 C   0  0  0  0  0  0  0  0  0  0  0  0
    2.4973    2.2537    0.3633 H   0  0  0  0  0  0  0  0  0  0  0  0
    2.8374    0.6324    1.0049 H   0  0  0  0  0  0  0  0  0  0  0  0
    3.0866    1.0246   -0.7751 H   0  0  0  0  0  0  0  0  0  0  0  0
    0.3015    2.4361   -1.1775 H   0  0  0  0  0  0  0  0  0  0  0  0
   -1.9741    1.4216   -0.5077 H   0  0  0  0  0  0  0  0  0  0  0  0
   -1.3888    0.3408   -1.8923 H   0  0  0  0  0  0  0  0  0  0  0  0
   -2.3610    0.9009    1.3572 H   0  0  0  0  0  0  0  0  0  0  0  0
   -2.3742   -0.8236    1.8502 H   0  0  0  0  0  0  0  0  0  0  0  0
   -0.9353    0.1675    2.1976 H   0  0  0  0  0  0  0  0  0  0  0  0
   -2.5813   -1.2753   -0.6270 H   0  0  0  0  0  0  0  0  0  0  0  0
    0.6807   -0.7819    1.3142 H   0  0  0  0  0  0  0  0  0  0  0  0
    0.3701   -1.7854   -1.5482 H   0  0  0  0  0  0  0  0  0  0  0  0
    0.6407   -2.6573   -0.0229 H   0  0  0  0  0  0  0  0  0  0  0  0
    1.9624   -1.7311   -0.7577 H   0  0  0  0  0  0  0  0  0  0  0  0
  1  2  1  0
  2  3  2  0
  3  4  1  0
  4  5  1  0
  5  6  1  0
  5  7  1  0
  5  8  1  0
  8  9  1  0
  8  2  1  0
  1 10  1  0
  1 11  1  0
  1 12  1  0
  3 13  1  0
  4 14  1  0
  4 15  1  0
  6 16  1  0
  6 17  1  0
  6 18  1  0
  7 19  1  0
  8 20  1  0
  9 21  1  0
  9 22  1  0
  9 23  1  0
M  END
