
     RDKit          3D

 21 21  0  0  0  0  0  0  0  0999 V2000
    2.2832   -0.3889   -0.5640 C   0  0  0  0  0  0  0  0  0  0  0  0
    1.0186    0.1551   -0.0537 C   0  0  0  0  0  0  0  0  0  0  0  0
    0.5342    1.3569   -0.3254 C   0  0  0  0  0  0  0  0  0  0  0  0
   -0.7509    1.7467    0.2699 C   0  0  0  0  0  0  0  0  0  0  0  0
   -1.6689    0.7610    0.4574 O   0  0  0  0  0  0  0  0  0  0  0  0
   -1.2419   -0.5328    0.3637 C   0  0  0  0  0  0  0  0  0  0  0  0
   -1.4100   -0.9955   -1.0594 C   0  0  0  0  0  0  0  0  0  0  0  0
    0.1769   -0.6929    0.8536 C   0  0  0  0  0  0  0  0  0  0  0  0
    0.2468   -0.0829    2.1169 O   0  0  0  0  0  0  0  0  0  0  0  0
    2.8642    0.3686   -1.1200 H   0  0  0  0  0  0  0  0  0  0  0  0
    2.0248   -1.2663   -1.2227 H   0  0  0  0  0  0  0  0  0  0  0  0
    2.9456   -0.7849    0.2361 H   0  0  0  0  0  0  0  0  0  0  0  0
    1.1136    1.9891   -0.9739 H   0  0  0  0  0  0  0  0  0  0  0  0
   -1.2109    2.5030   -0.4294 H   0  0  0  0  0  0  0  0  0  0  0  0
   -0.5198    2.3350    1.1914 H   0  0  0  0  0  0  0  0  0  0  0  0
   -1.9016   -1.1706    0.9989 H   0  0  0  0  0  0  0  0  0  0  0  0
   -0.7271   -1.8117   -1.2914 H   0  0  0  0  0  0  0  0  0  0  0  0
   -1.2228   -0.1128   -1.7272 H   0  0  0  0  0  0  0  0  0  0  0  0
   -2.4559   -1.3590   -1.1905 H   0  0  0  0  0  0  0  0  0  0  0  0
    0.4971   -1.7310    0.8915 H   0  0  0  0  0  0  0  0  0  0  0  0
   -0.5949   -0.2860    2.5781 H   0  0  0  0  0  0  0  0  0  0  0  0
  1  2  1  0
  2  3  2  0
  3  4  1  0
  4  5  1  0
  5  6  1  0
  6  7  1  0
  6  8  1  0
  8  9  1  0
  8  2  1  0
  1 10  1  0
  1 11  1  0
  1 12  1  0
  3 13  1  0
  4 14  1  0
  4 15  1  0
  6 16  1  0
  7 17  1  0
  7 18  1  0
  7 19  1  0
  8 20  1  0
  9 21  1  0
M  END
