
     RDKit          3D

 19 20  0  0  0  0  0  0  0  0999 V2000
    2.4765   -0.2887   -0.2833 C   0  0  0  0  0  0  0  0  0  0  0  0
    1.0355   -0.0498   -0.0043 C   0  0  0  0  0  0  0  0  0  0  0  0
    0.2809   -0.7783    0.8197 C   0  0  0  0  0  0  0  0  0  0  0  0
   -1.1153   -0.2568    0.5770 C   0  0  0  0  0  0  0  0  0  0  0  0
   -2.0421   -0.6252    1.4440 O   0  0  0  0  0  0  0  0  0  0  0  0
   -1.3802   -0.4659   -0.8907 C   0  0  0  0  0  0  0  0  0  0  0  0
   -0.6478    0.5271   -1.5778 O   0  0  0  0  0  0  0  0  0  0  0  0
    0.2249    1.0453   -0.6104 C   0  0  0  0  0  0  0  0  0  0  0  0
   -0.7870    1.2471    0.5381 C   0  0  0  0  0  0  0  0  0  0  0  0
    3.1379    0.3144    0.4046 H   0  0  0  0  0  0  0  0  0  0  0  0
    2.7594   -1.3613   -0.1595 H   0  0  0  0  0  0  0  0  0  0  0  0
    2.7520    0.0754   -1.3092 H   0  0  0  0  0  0  0  0  0  0  0  0
    0.5505   -1.5576    1.5080 H   0  0  0  0  0  0  0  0  0  0  0  0
   -2.6910   -1.2751    1.0922 H   0  0  0  0  0  0  0  0  0  0  0  0
   -2.4531   -0.4368   -1.1492 H   0  0  0  0  0  0  0  0  0  0  0  0
   -0.9704   -1.4590   -1.1621 H   0  0  0  0  0  0  0  0  0  0  0  0
    0.7473    1.9269   -0.8869 H   0  0  0  0  0  0  0  0  0  0  0  0
   -1.6357    1.8456    0.2303 H   0  0  0  0  0  0  0  0  0  0  0  0
   -0.2424    1.5729    1.4193 H   0  0  0  0  0  0  0  0  0  0  0  0
  1  2  1  0
  2  3  2  0
  3  4  1  0
  4  5  1  0
  4  6  1  0
  6  7  1  0
  7  8  1  0
  8  9  1  0
  8  2  1  0
  9  4  1  0
  1 10  1  0
  1 11  1  0
  1 12  1  0
  3 13  1  0
  5 14  1  0
  6 15  1  0
  6 16  1  0
  8 17  1  0
  9 18  1  0
  9 19  1  0
M  END
