
     RDKit          3D

 21 22  0  0  0  0  0  0  0  0999 V2000
   -2.4927   -0.1421   -0.4723 C   0  0  0  0  0  0  0  0  0  0  0  0
   -1.0404   -0.1857   -0.2050 C   0  0  0  0  0  0  0  0  0  0  0  0
   -0.3068   -1.1145   -0.7747 C   0  0  0  0  0  0  0  0  0  0  0  0
    1.1439   -1.1135   -0.4572 C   0  0  0  0  0  0  0  0  0  0  0  0
    1.6035    0.3269   -0.7255 C   0  0  0  0  0  0  0  0  0  0  0  0
    1.0713    0.6522    0.6576 C   0  0  0  0  0  0  0  0  0  0  0  0
    1.3766   -0.7906    1.0134 C   0  0  0  0  0  0  0  0  0  0  0  0
   -0.4285    0.8108    0.6964 C   0  0  0  0  0  0  0  0  0  0  0  0
   -0.8340    2.1095    0.4385 O   0  0  0  0  0  0  0  0  0  0  0  0
   -3.0404   -0.8151    0.2535 H   0  0  0  0  0  0  0  0  0  0  0  0
   -2.7564   -0.4992   -1.4973 H   0  0  0  0  0  0  0  0  0  0  0  0
   -2.9333    0.8711   -0.2849 H   0  0  0  0  0  0  0  0  0  0  0  0
   -0.7021   -1.8471   -1.4367 H   0  0  0  0  0  0  0  0  0  0  0  0
    1.7587   -1.8922   -0.8891 H   0  0  0  0  0  0  0  0  0  0  0  0
    2.6970    0.3843   -0.7190 H   0  0  0  0  0  0  0  0  0  0  0  0
    1.0777    0.8162   -1.5608 H   0  0  0  0  0  0  0  0  0  0  0  0
    1.6513    1.4023    1.2217 H   0  0  0  0  0  0  0  0  0  0  0  0
    2.4226   -1.0063    1.2738 H   0  0  0  0  0  0  0  0  0  0  0  0
    0.6173   -1.2049    1.7010 H   0  0  0  0  0  0  0  0  0  0  0  0
   -0.7593    0.5670    1.7289 H   0  0  0  0  0  0  0  0  0  0  0  0
   -0.1260    2.6711    0.0379 H   0  0  0  0  0  0  0  0  0  0  0  0
  1  2  1  0
  2  3  2  0
  3  4  1  0
  4  5  1  0
  5  6  1  0
  6  7  1  0
  6  8  1  0
  8  9  1  0
  8  2  1  0
  7  4  1  0
  1 10  1  0
  1 11  1  0
  1 12  1  0
  3 13  1  0
  4 14  1  0
  5 15  1  0
  5 16  1  0
  6 17  1  0
  7 18  1  0
  7 19  1  0
  8 20  1  0
  9 21  1  0
M  END
