
     RDKit          3D

 21 23  0  0  0  0  0  0  0  0999 V2000
   -2.4857    0.9492   -0.9988 C   0  0  0  0  0  0  0  0  0  0  0  0
   -1.2022    0.4284   -0.3671 C   0  0  0  0  0  0  0  0  0  0  0  0
   -0.0049    0.9493   -0.4824 C   0  0  0  0  0  0  0  0  0  0  0  0
    0.9797    0.1838    0.2585 C   0  0  0  0  0  0  0  0  0  0  0  0
    1.9794    0.9729    1.0194 C   0  0  0  0  0  0  0  0  0  0  0  0
    2.3992    0.0918   -0.1507 C   0  0  0  0  0  0  0  0  0  0  0  0
    0.2516   -0.9549    0.8647 C   0  0  0  0  0  0  0  0  0  0  0  0
   -0.3648   -1.9353   -0.1229 C   0  0  0  0  0  0  0  0  0  0  0  0
   -1.1441   -0.7788    0.4892 C   0  0  0  0  0  0  0  0  0  0  0  0
   -3.2726    0.8059   -0.2117 H   0  0  0  0  0  0  0  0  0  0  0  0
   -2.7134    0.3002   -1.8634 H   0  0  0  0  0  0  0  0  0  0  0  0
   -2.3936    2.0058   -1.2669 H   0  0  0  0  0  0  0  0  0  0  0  0
    0.2462    1.8581   -1.0663 H   0  0  0  0  0  0  0  0  0  0  0  0
    1.9993    2.0648    0.8693 H   0  0  0  0  0  0  0  0  0  0  0  0
    2.1726    0.5883    2.0566 H   0  0  0  0  0  0  0  0  0  0  0  0
    2.7496    0.5903   -1.0749 H   0  0  0  0  0  0  0  0  0  0  0  0
    2.8904   -0.8806    0.0695 H   0  0  0  0  0  0  0  0  0  0  0  0
    0.5828   -1.4027    1.8212 H   0  0  0  0  0  0  0  0  0  0  0  0
   -0.0987   -1.8692   -1.1781 H   0  0  0  0  0  0  0  0  0  0  0  0
   -0.5709   -2.9491    0.2525 H   0  0  0  0  0  0  0  0  0  0  0  0
   -2.0001   -1.0182    1.1506 H   0  0  0  0  0  0  0  0  0  0  0  0
  1  2  1  0
  2  3  2  0
  3  4  1  0
  4  5  1  0
  5  6  1  0
  4  7  1  0
  7  8  1  0
  8  9  1  0
  9  2  1  0
  6  4  1  0
  9  7  1  0
  1 10  1  0
  1 11  1  0
  1 12  1  0
  3 13  1  0
  5 14  1  0
  5 15  1  0
  6 16  1  0
  6 17  1  0
  7 18  1  0
  8 19  1  0
  8 20  1  0
  9 21  1  0
M  END
