
     RDKit          3D

 21 22  0  0  0  0  0  0  0  0999 V2000
    2.6347    0.5095   -0.1723 C   0  0  0  0  0  0  0  0  0  0  0  0
    1.1637    0.2792   -0.1076 C   0  0  0  0  0  0  0  0  0  0  0  0
    0.2795    1.2602   -0.0555 C   0  0  0  0  0  0  0  0  0  0  0  0
   -1.1055    0.9587    0.3036 C   0  0  0  0  0  0  0  0  0  0  0  0
   -1.0255   -0.0081    1.4974 C   0  0  0  0  0  0  0  0  0  0  0  0
   -0.8024   -1.0990    0.4444 C   0  0  0  0  0  0  0  0  0  0  0  0
    0.5863   -1.1060   -0.0975 C   0  0  0  0  0  0  0  0  0  0  0  0
   -1.6711   -0.2184   -0.4661 C   0  0  0  0  0  0  0  0  0  0  0  0
   -1.3527   -0.2719   -1.7957 O   0  0  0  0  0  0  0  0  0  0  0  0
    3.1200   -0.4806   -0.2531 H   0  0  0  0  0  0  0  0  0  0  0  0
    3.0234    0.9653    0.7766 H   0  0  0  0  0  0  0  0  0  0  0  0
    2.9250    1.2036   -0.9818 H   0  0  0  0  0  0  0  0  0  0  0  0
    0.5851    2.2633   -0.2762 H   0  0  0  0  0  0  0  0  0  0  0  0
   -1.7858    1.7834    0.4953 H   0  0  0  0  0  0  0  0  0  0  0  0
   -2.0163   -0.0897    1.9406 H   0  0  0  0  0  0  0  0  0  0  0  0
   -0.1685    0.1563    2.1557 H   0  0  0  0  0  0  0  0  0  0  0  0
   -1.2464   -2.0633    0.6904 H   0  0  0  0  0  0  0  0  0  0  0  0
    0.5383   -1.4103   -1.1714 H   0  0  0  0  0  0  0  0  0  0  0  0
    1.2589   -1.8237    0.3936 H   0  0  0  0  0  0  0  0  0  0  0  0
   -2.7306   -0.3593   -0.1875 H   0  0  0  0  0  0  0  0  0  0  0  0
   -2.2100   -0.4493   -2.2985 H   0  0  0  0  0  0  0  0  0  0  0  0
  1  2  1  0
  2  3  2  0
  3  4  1  0
  4  5  1  0
  5  6  1  0
  6  7  1  0
  6  8  1  0
  8  9  1  0
  7  2  1  0
  8  4  1  0
  1 10  1  0
  1 11  1  0
  1 12  1  0
  3 13  1  0
  4 14  1  0
  5 15  1  0
  5 16  1  0
  6 17  1  0
  7 18  1  0
  7 19  1  0
  8 20  1  0
  9 21  1  0
M  END
