
     RDKit          3D

 20 20  0  0  0  0  0  0  0  0999 V2000
    2.4339   -0.3580    0.1520 C   0  0  0  0  0  0  0  0  0  0  0  0
    1.0266   -0.0051   -0.1905 C   0  0  0  0  0  0  0  0  0  0  0  0
    0.6180    1.2332    0.0159 C   0  0  0  0  0  0  0  0  0  0  0  0
   -0.7228    1.7896   -0.2512 C   0  0  0  0  0  0  0  0  0  0  0  0
   -1.7608    0.9815    0.4380 C   0  0  0  0  0  0  0  0  0  0  0  0
   -1.8039   -0.3201    0.5675 C   0  0  0  0  0  0  0  0  0  0  0  0
   -0.9622   -1.4461    0.1502 C   0  0  0  0  0  0  0  0  0  0  0  0
    0.1752   -1.1236   -0.7545 C   0  0  0  0  0  0  0  0  0  0  0  0
    2.6275    0.0950    1.1544 H   0  0  0  0  0  0  0  0  0  0  0  0
    2.5087   -1.4651    0.2526 H   0  0  0  0  0  0  0  0  0  0  0  0
    3.1276    0.0558   -0.6038 H   0  0  0  0  0  0  0  0  0  0  0  0
    1.3447    1.8996    0.4214 H   0  0  0  0  0  0  0  0  0  0  0  0
   -0.8005    2.8674   -0.0104 H   0  0  0  0  0  0  0  0  0  0  0  0
   -0.9054    1.6126   -1.3552 H   0  0  0  0  0  0  0  0  0  0  0  0
   -2.5762    1.5788    0.8816 H   0  0  0  0  0  0  0  0  0  0  0  0
   -2.7007   -0.6385    1.1322 H   0  0  0  0  0  0  0  0  0  0  0  0
   -0.5154   -1.9119    1.0667 H   0  0  0  0  0  0  0  0  0  0  0  0
   -1.6706   -2.1827   -0.3390 H   0  0  0  0  0  0  0  0  0  0  0  0
   -0.2503   -0.7004   -1.7017 H   0  0  0  0  0  0  0  0  0  0  0  0
    0.8067   -1.9619   -1.0263 H   0  0  0  0  0  0  0  0  0  0  0  0
  1  2  1  0
  2  3  2  0
  3  4  1  0
  4  5  1  0
  5  6  2  0
  6  7  1  0
  7  8  1  0
  8  2  1  0
  1  9  1  0
  1 10  1  0
  1 11  1  0
  3 12  1  0
  4 13  1  0
  4 14  1  0
  5 15  1  0
  6 16  1  0
  7 17  1  0
  7 18  1  0
  8 19  1  0
  8 20  1  0
M  END
