
     RDKit          3D

 17 17  0  0  0  0  0  0  0  0999 V2000
    2.4510    0.2169   -0.1464 C   0  0  0  0  0  0  0  0  0  0  0  0
    0.9544    0.1377   -0.0819 C   0  0  0  0  0  0  0  0  0  0  0  0
    0.3509   -1.0189   -0.0346 C   0  0  0  0  0  0  0  0  0  0  0  0
   -1.0891   -1.2611    0.0306 C   0  0  0  0  0  0  0  0  0  0  0  0
   -1.9330   -0.0769    0.2757 C   0  0  0  0  0  0  0  0  0  0  0  0
   -1.2825    1.2178   -0.0078 C   0  0  0  0  0  0  0  0  0  0  0  0
   -2.0277    2.2149   -0.1970 O   0  0  0  0  0  0  0  0  0  0  0  0
    0.1664    1.3634   -0.0718 C   0  0  0  0  0  0  0  0  0  0  0  0
    0.7212    2.4843   -0.1164 O   0  0  0  0  0  0  0  0  0  0  0  0
    2.9178   -0.6370    0.3913 H   0  0  0  0  0  0  0  0  0  0  0  0
    2.7857    1.1357    0.3757 H   0  0  0  0  0  0  0  0  0  0  0  0
    2.8109    0.1545   -1.1923 H   0  0  0  0  0  0  0  0  0  0  0  0
    0.9998   -1.9014   -0.0451 H   0  0  0  0  0  0  0  0  0  0  0  0
   -1.3880   -1.7801   -0.9260 H   0  0  0  0  0  0  0  0  0  0  0  0
   -1.2548   -2.0473    0.8245 H   0  0  0  0  0  0  0  0  0  0  0  0
   -2.8435   -0.1243   -0.3883 H   0  0  0  0  0  0  0  0  0  0  0  0
   -2.3394   -0.0782    1.3098 H   0  0  0  0  0  0  0  0  0  0  0  0
  1  2  1  0
  2  3  2  0
  3  4  1  0
  4  5  1  0
  5  6  1  0
  6  7  2  0
  6  8  1  0
  8  9  2  0
  8  2  1  0
  1 10  1  0
  1 11  1  0
  1 12  1  0
  3 13  1  0
  4 14  1  0
  4 15  1  0
  5 16  1  0
  5 17  1  0
M  END
