
     RDKit          3D

 19 20  0  0  0  0  0  0  0  0999 V2000
   -0.8674    1.4493    1.5432 C   0  0  0  0  0  0  0  0  0  0  0  0
   -0.7692    0.3898    0.4616 C   0  0  0  0  0  0  0  0  0  0  0  0
   -1.6879   -0.5161    0.1805 C   0  0  0  0  0  0  0  0  0  0  0  0
   -1.2987   -1.4115   -0.9304 C   0  0  0  0  0  0  0  0  0  0  0  0
   -0.1552   -2.1824   -0.8529 O   0  0  0  0  0  0  0  0  0  0  0  0
    0.0422   -0.9116   -1.3693 C   0  0  0  0  0  0  0  0  0  0  0  0
    0.3685    0.2064   -0.4445 C   0  0  0  0  0  0  0  0  0  0  0  0
    1.6506   -0.1438    0.2918 C   0  0  0  0  0  0  0  0  0  0  0  0
    2.6466   -0.2904   -0.6723 O   0  0  0  0  0  0  0  0  0  0  0  0
   -1.2851    2.3831    1.1411 H   0  0  0  0  0  0  0  0  0  0  0  0
   -1.5003    1.0600    2.3868 H   0  0  0  0  0  0  0  0  0  0  0  0
    0.1702    1.6562    1.8808 H   0  0  0  0  0  0  0  0  0  0  0  0
   -2.6378   -0.6070    0.7030 H   0  0  0  0  0  0  0  0  0  0  0  0
   -2.0141   -1.5688   -1.7651 H   0  0  0  0  0  0  0  0  0  0  0  0
    0.2615   -0.8013   -2.4501 H   0  0  0  0  0  0  0  0  0  0  0  0
    0.5680    1.1436   -1.0161 H   0  0  0  0  0  0  0  0  0  0  0  0
    1.9515    0.6628    0.9909 H   0  0  0  0  0  0  0  0  0  0  0  0
    1.5294   -1.0758    0.8816 H   0  0  0  0  0  0  0  0  0  0  0  0
    3.0272    0.5575   -0.9606 H   0  0  0  0  0  0  0  0  0  0  0  0
  1  2  1  0
  2  3  2  0
  3  4  1  0
  4  5  1  0
  5  6  1  0
  6  7  1  0
  7  8  1  0
  8  9  1  0
  7  2  1  0
  6  4  1  0
  1 10  1  0
  1 11  1  0
  1 12  1  0
  3 13  1  0
  4 14  1  0
  6 15  1  0
  7 16  1  0
  8 17  1  0
  8 18  1  0
  9 19  1  0
M  END
