
     RDKit          3D

 21 22  0  0  0  0  0  0  0  0999 V2000
    2.5539    0.7126    0.3712 C   0  0  0  0  0  0  0  0  0  0  0  0
    1.1901    0.1767    0.0709 C   0  0  0  0  0  0  0  0  0  0  0  0
    0.1026    0.8422   -0.2332 C   0  0  0  0  0  0  0  0  0  0  0  0
   -1.0044    1.7467   -0.5567 C   0  0  0  0  0  0  0  0  0  0  0  0
   -1.4764    0.6899   -1.4000 O   0  0  0  0  0  0  0  0  0  0  0  0
   -1.0333   -0.1435   -0.3900 C   0  0  0  0  0  0  0  0  0  0  0  0
   -1.9528   -0.2363    0.7724 C   0  0  0  0  0  0  0  0  0  0  0  0
   -0.3563   -1.4333   -0.7650 C   0  0  0  0  0  0  0  0  0  0  0  0
    0.9177   -1.3149    0.0626 C   0  0  0  0  0  0  0  0  0  0  0  0
    2.7143    1.7128   -0.1019 H   0  0  0  0  0  0  0  0  0  0  0  0
    2.6500    0.8586    1.4504 H   0  0  0  0  0  0  0  0  0  0  0  0
    3.3542    0.0607   -0.0651 H   0  0  0  0  0  0  0  0  0  0  0  0
   -0.7654    2.6675   -1.1116 H   0  0  0  0  0  0  0  0  0  0  0  0
   -1.6717    1.9636    0.2819 H   0  0  0  0  0  0  0  0  0  0  0  0
   -1.6940    0.4144    1.6271 H   0  0  0  0  0  0  0  0  0  0  0  0
   -1.9479   -1.3014    1.1443 H   0  0  0  0  0  0  0  0  0  0  0  0
   -2.9910   -0.0713    0.4100 H   0  0  0  0  0  0  0  0  0  0  0  0
   -0.9218   -2.3038   -0.3792 H   0  0  0  0  0  0  0  0  0  0  0  0
   -0.1692   -1.5268   -1.8300 H   0  0  0  0  0  0  0  0  0  0  0  0
    1.7163   -1.8706   -0.4576 H   0  0  0  0  0  0  0  0  0  0  0  0
    0.7850   -1.6438    1.0994 H   0  0  0  0  0  0  0  0  0  0  0  0
  1  2  1  0
  2  3  2  0
  3  4  1  0
  4  5  1  0
  5  6  1  0
  6  7  1  0
  6  8  1  0
  8  9  1  0
  9  2  1  0
  6  3  1  0
  1 10  1  0
  1 11  1  0
  1 12  1  0
  4 13  1  0
  4 14  1  0
  7 15  1  0
  7 16  1  0
  7 17  1  0
  8 18  1  0
  8 19  1  0
  9 20  1  0
  9 21  1  0
M  END
