
     RDKit          3D

 19 20  0  0  0  0  0  0  0  0999 V2000
    2.5390    0.3694    0.4615 C   0  0  0  0  0  0  0  0  0  0  0  0
    1.1441    0.0918    0.0166 C   0  0  0  0  0  0  0  0  0  0  0  0
    0.4799   -0.8581    0.6158 C   0  0  0  0  0  0  0  0  0  0  0  0
   -0.9081   -1.1634    0.2019 C   0  0  0  0  0  0  0  0  0  0  0  0
   -1.7837   -0.8159    1.2542 O   0  0  0  0  0  0  0  0  0  0  0  0
   -2.3814    0.1992    0.4968 C   0  0  0  0  0  0  0  0  0  0  0  0
   -1.5188   -0.1789   -0.6982 C   0  0  0  0  0  0  0  0  0  0  0  0
   -0.7971    0.8211   -1.1902 O   0  0  0  0  0  0  0  0  0  0  0  0
    0.5335    0.8705   -1.0712 C   0  0  0  0  0  0  0  0  0  0  0  0
    3.1451   -0.5720    0.5263 H   0  0  0  0  0  0  0  0  0  0  0  0
    3.0613    1.0256   -0.2363 H   0  0  0  0  0  0  0  0  0  0  0  0
    2.5156    0.7750    1.4983 H   0  0  0  0  0  0  0  0  0  0  0  0
    0.8997   -1.4511    1.4207 H   0  0  0  0  0  0  0  0  0  0  0  0
   -1.0304   -2.2134   -0.1255 H   0  0  0  0  0  0  0  0  0  0  0  0
   -2.1431    1.2269    0.8385 H   0  0  0  0  0  0  0  0  0  0  0  0
   -3.4561   -0.0193    0.3884 H   0  0  0  0  0  0  0  0  0  0  0  0
   -2.1830   -0.6547   -1.4755 H   0  0  0  0  0  0  0  0  0  0  0  0
    0.8209    1.9496   -0.8974 H   0  0  0  0  0  0  0  0  0  0  0  0
    1.0623    0.5979   -2.0248 H   0  0  0  0  0  0  0  0  0  0  0  0
  1  2  1  0
  2  3  2  0
  3  4  1  0
  4  5  1  0
  5  6  1  0
  6  7  1  0
  7  8  1  0
  8  9  1  0
  9  2  1  0
  7  4  1  0
  1 10  1  0
  1 11  1  0
  1 12  1  0
  3 13  1  0
  4 14  1  0
  6 15  1  0
  6 16  1  0
  7 17  1  0
  9 18  1  0
  9 19  1  0
M  END
