
     RDKit          3D

 18 18  0  0  0  0  0  0  0  0999 V2000
    2.4852    0.2388    0.0871 C   0  0  0  0  0  0  0  0  0  0  0  0
    1.0053    0.1292    0.0229 C   0  0  0  0  0  0  0  0  0  0  0  0
    0.2884    1.2428    0.0514 C   0  0  0  0  0  0  0  0  0  0  0  0
   -1.1718    1.4335    0.0033 C   0  0  0  0  0  0  0  0  0  0  0  0
   -2.1201    0.5113   -0.0825 C   0  0  0  0  0  0  0  0  0  0  0  0
   -1.8736   -0.9682   -0.1499 C   0  0  0  0  0  0  0  0  0  0  0  0
   -0.7111   -1.2592   -0.8398 O   0  0  0  0  0  0  0  0  0  0  0  0
    0.4264   -1.2388   -0.0697 C   0  0  0  0  0  0  0  0  0  0  0  0
    2.9322   -0.6816    0.5364 H   0  0  0  0  0  0  0  0  0  0  0  0
    2.9447    0.4718   -0.8821 H   0  0  0  0  0  0  0  0  0  0  0  0
    2.8070    1.0692    0.7806 H   0  0  0  0  0  0  0  0  0  0  0  0
    0.8944    2.1264    0.1204 H   0  0  0  0  0  0  0  0  0  0  0  0
   -1.5410    2.4344    0.0409 H   0  0  0  0  0  0  0  0  0  0  0  0
   -3.1431    0.8129   -0.1073 H   0  0  0  0  0  0  0  0  0  0  0  0
   -1.9296   -1.4422    0.8403 H   0  0  0  0  0  0  0  0  0  0  0  0
   -2.7155   -1.3824   -0.7487 H   0  0  0  0  0  0  0  0  0  0  0  0
    1.1713   -1.9180   -0.5798 H   0  0  0  0  0  0  0  0  0  0  0  0
    0.2508   -1.5800    0.9764 H   0  0  0  0  0  0  0  0  0  0  0  0
  1  2  1  0
  2  3  2  0
  3  4  1  0
  4  5  2  0
  5  6  1  0
  6  7  1  0
  7  8  1  0
  8  2  1  0
  1  9  1  0
  1 10  1  0
  1 11  1  0
  3 12  1  0
  4 13  1  0
  5 14  1  0
  6 15  1  0
  6 16  1  0
  8 17  1  0
  8 18  1  0
M  END
