
     RDKit          3D

 19 20  0  0  0  0  0  0  0  0999 V2000
    2.6269    0.1791    0.2604 C   0  0  0  0  0  0  0  0  0  0  0  0
    1.2162    0.1121   -0.1789 C   0  0  0  0  0  0  0  0  0  0  0  0
    0.4813    0.9778   -0.8680 C   0  0  0  0  0  0  0  0  0  0  0  0
   -0.8448    0.3367   -1.1052 C   0  0  0  0  0  0  0  0  0  0  0  0
   -1.8133    0.6168    0.0368 C   0  0  0  0  0  0  0  0  0  0  0  0
   -1.7161   -0.6123    0.9517 C   0  0  0  0  0  0  0  0  0  0  0  0
   -0.3667   -0.7345    1.2815 O   0  0  0  0  0  0  0  0  0  0  0  0
    0.3173   -1.0339    0.1050 C   0  0  0  0  0  0  0  0  0  0  0  0
   -0.5205   -1.0234   -1.0100 O   0  0  0  0  0  0  0  0  0  0  0  0
    2.6733   -0.2023    1.3008 H   0  0  0  0  0  0  0  0  0  0  0  0
    3.1975   -0.5361   -0.3927 H   0  0  0  0  0  0  0  0  0  0  0  0
    3.0680    1.1869    0.1492 H   0  0  0  0  0  0  0  0  0  0  0  0
    0.8345    1.9560   -1.1735 H   0  0  0  0  0  0  0  0  0  0  0  0
   -1.2684    0.5953   -2.0853 H   0  0  0  0  0  0  0  0  0  0  0  0
   -1.5235    1.4913    0.6315 H   0  0  0  0  0  0  0  0  0  0  0  0
   -2.8513    0.7068   -0.3165 H   0  0  0  0  0  0  0  0  0  0  0  0
   -2.3686   -0.5031    1.8276 H   0  0  0  0  0  0  0  0  0  0  0  0
   -1.9728   -1.5273    0.3536 H   0  0  0  0  0  0  0  0  0  0  0  0
    0.8311   -1.9859    0.2322 H   0  0  0  0  0  0  0  0  0  0  0  0
  1  2  1  0
  2  3  2  0
  3  4  1  0
  4  5  1  0
  5  6  1  0
  6  7  1  0
  7  8  1  0
  8  9  1  0
  8  2  1  0
  9  4  1  0
  1 10  1  0
  1 11  1  0
  1 12  1  0
  3 13  1  0
  4 14  1  0
  5 15  1  0
  5 16  1  0
  6 17  1  0
  6 18  1  0
  8 19  1  0
M  END
