
     RDKit          3D

 21 22  0  0  0  0  0  0  0  0999 V2000
   -2.4113    0.6328    0.8649 C   0  0  0  0  0  0  0  0  0  0  0  0
   -1.1422    0.0446    0.3812 C   0  0  0  0  0  0  0  0  0  0  0  0
   -0.4236   -0.9583    0.8743 C   0  0  0  0  0  0  0  0  0  0  0  0
    0.6962   -1.2837   -0.0502 C   0  0  0  0  0  0  0  0  0  0  0  0
    0.0317   -0.8651   -1.3796 C   0  0  0  0  0  0  0  0  0  0  0  0
   -0.4023    0.5082   -0.8243 C   0  0  0  0  0  0  0  0  0  0  0  0
    0.9488    1.0287   -0.3920 C   0  0  0  0  0  0  0  0  0  0  0  0
    1.7408   -0.2027    0.0449 C   0  0  0  0  0  0  0  0  0  0  0  0
    2.2792   -0.0676    1.2998 O   0  0  0  0  0  0  0  0  0  0  0  0
   -2.4999    1.6734    0.4973 H   0  0  0  0  0  0  0  0  0  0  0  0
   -3.3126    0.0972    0.4660 H   0  0  0  0  0  0  0  0  0  0  0  0
   -2.5126    0.5744    1.9754 H   0  0  0  0  0  0  0  0  0  0  0  0
   -0.6228   -1.4629    1.8084 H   0  0  0  0  0  0  0  0  0  0  0  0
    1.0418   -2.2906   -0.0401 H   0  0  0  0  0  0  0  0  0  0  0  0
   -0.8275   -1.4885   -1.6065 H   0  0  0  0  0  0  0  0  0  0  0  0
    0.7746   -0.7548   -2.1688 H   0  0  0  0  0  0  0  0  0  0  0  0
   -0.9456    1.1042   -1.5172 H   0  0  0  0  0  0  0  0  0  0  0  0
    1.4375    1.5518   -1.2392 H   0  0  0  0  0  0  0  0  0  0  0  0
    0.8637    1.7689    0.4282 H   0  0  0  0  0  0  0  0  0  0  0  0
    2.5045   -0.4081   -0.7360 H   0  0  0  0  0  0  0  0  0  0  0  0
    2.7817    0.7982    1.3134 H   0  0  0  0  0  0  0  0  0  0  0  0
  1  2  1  0
  2  3  2  0
  3  4  1  0
  4  5  1  0
  5  6  1  0
  6  7  1  0
  7  8  1  0
  8  9  1  0
  6  2  1  0
  8  4  1  0
  1 10  1  0
  1 11  1  0
  1 12  1  0
  3 13  1  0
  4 14  1  0
  5 15  1  0
  5 16  1  0
  6 17  1  0
  7 18  1  0
  7 19  1  0
  8 20  1  0
  9 21  1  0
M  END
