
     RDKit          3D

 21 21  0  0  0  0  0  0  0  0999 V2000
   -0.0908    2.2279    0.0854 C   0  0  0  0  0  0  0  0  0  0  0  0
   -0.3108    0.7464    0.1465 C   0  0  0  0  0  0  0  0  0  0  0  0
   -1.3937    0.3188   -0.4962 C   0  0  0  0  0  0  0  0  0  0  0  0
   -1.7417   -1.1273   -0.5231 C   0  0  0  0  0  0  0  0  0  0  0  0
   -1.0609   -1.7600    0.6723 C   0  0  0  0  0  0  0  0  0  0  0  0
    0.2977   -1.4798    0.5433 O   0  0  0  0  0  0  0  0  0  0  0  0
    0.6002   -0.1669    0.8620 C   0  0  0  0  0  0  0  0  0  0  0  0
    2.0529    0.0634    0.4990 C   0  0  0  0  0  0  0  0  0  0  0  0
    2.2140   -0.1674   -0.8736 O   0  0  0  0  0  0  0  0  0  0  0  0
   -0.9074    2.7120    0.6616 H   0  0  0  0  0  0  0  0  0  0  0  0
   -0.2392    2.5201   -0.9763 H   0  0  0  0  0  0  0  0  0  0  0  0
    0.9169    2.5041    0.4464 H   0  0  0  0  0  0  0  0  0  0  0  0
   -2.0655    1.0070   -1.0259 H   0  0  0  0  0  0  0  0  0  0  0  0
   -1.3431   -1.5891   -1.4634 H   0  0  0  0  0  0  0  0  0  0  0  0
   -2.8390   -1.2602   -0.4540 H   0  0  0  0  0  0  0  0  0  0  0  0
   -1.1746   -2.8551    0.6146 H   0  0  0  0  0  0  0  0  0  0  0  0
   -1.4747   -1.3197    1.5946 H   0  0  0  0  0  0  0  0  0  0  0  0
    0.4944   -0.0777    1.9756 H   0  0  0  0  0  0  0  0  0  0  0  0
    2.6900   -0.6593    1.0444 H   0  0  0  0  0  0  0  0  0  0  0  0
    2.3770    1.0961    0.7093 H   0  0  0  0  0  0  0  0  0  0  0  0
    2.9982   -0.7333   -1.0633 H   0  0  0  0  0  0  0  0  0  0  0  0
  1  2  1  0
  2  3  2  0
  3  4  1  0
  4  5  1  0
  5  6  1  0
  6  7  1  0
  7  8  1  0
  8  9  1  0
  7  2  1  0
  1 10  1  0
  1 11  1  0
  1 12  1  0
  3 13  1  0
  4 14  1  0
  4 15  1  0
  5 16  1  0
  5 17  1  0
  7 18  1  0
  8 19  1  0
  8 20  1  0
  9 21  1  0
M  END
