
     RDKit          3D

 21 22  0  0  0  0  0  0  0  0999 V2000
   -1.3031   -1.8591   -0.1269 C   0  0  0  0  0  0  0  0  0  0  0  0
   -0.8971   -0.4176   -0.0991 C   0  0  0  0  0  0  0  0  0  0  0  0
   -1.6984    0.5913   -0.4323 C   0  0  0  0  0  0  0  0  0  0  0  0
   -0.9885    1.8952   -0.2959 C   0  0  0  0  0  0  0  0  0  0  0  0
    0.0387    1.5265    0.7634 C   0  0  0  0  0  0  0  0  0  0  0  0
    0.4134    0.1402    0.2865 C   0  0  0  0  0  0  0  0  0  0  0  0
    1.4385   -0.5990    0.9975 C   0  0  0  0  0  0  0  0  0  0  0  0
    1.6573   -0.1522   -0.4060 C   0  0  0  0  0  0  0  0  0  0  0  0
    1.7106   -1.1728   -1.3632 O   0  0  0  0  0  0  0  0  0  0  0  0
   -1.3925   -2.2655    0.9041 H   0  0  0  0  0  0  0  0  0  0  0  0
   -0.5542   -2.3925   -0.7207 H   0  0  0  0  0  0  0  0  0  0  0  0
   -2.2748   -1.9796   -0.6209 H   0  0  0  0  0  0  0  0  0  0  0  0
   -2.7299    0.5045   -0.7612 H   0  0  0  0  0  0  0  0  0  0  0  0
   -0.4346    2.1332   -1.2507 H   0  0  0  0  0  0  0  0  0  0  0  0
   -1.6349    2.7174    0.0025 H   0  0  0  0  0  0  0  0  0  0  0  0
   -0.5021    1.3910    1.7258 H   0  0  0  0  0  0  0  0  0  0  0  0
    0.8762    2.2162    0.8061 H   0  0  0  0  0  0  0  0  0  0  0  0
    1.9631   -0.0657    1.8437 H   0  0  0  0  0  0  0  0  0  0  0  0
    1.3870   -1.6973    1.1917 H   0  0  0  0  0  0  0  0  0  0  0  0
    2.3278    0.6954   -0.6442 H   0  0  0  0  0  0  0  0  0  0  0  0
    2.5976   -1.2096   -1.8002 H   0  0  0  0  0  0  0  0  0  0  0  0
  1  2  1  0
  2  3  2  0
  3  4  1  0
  4  5  1  0
  5  6  1  0
  6  7  1  0
  7  8  1  0
  8  9  1  0
  6  2  1  0
  8  6  1  0
  1 10  1  0
  1 11  1  0
  1 12  1  0
  3 13  1  0
  4 14  1  0
  4 15  1  0
  5 16  1  0
  5 17  1  0
  7 18  1  0
  7 19  1  0
  8 20  1  0
  9 21  1  0
M  END
