
     RDKit          3D

 19 21  0  0  0  0  0  0  0  0999 V2000
    2.2528   -1.0096    0.6312 C   0  0  0  0  0  0  0  0  0  0  0  0
    1.0672   -0.2190    0.2277 C   0  0  0  0  0  0  0  0  0  0  0  0
   -0.2101   -0.4373    0.4436 C   0  0  0  0  0  0  0  0  0  0  0  0
   -1.5560   -0.9351    0.8317 C   0  0  0  0  0  0  0  0  0  0  0  0
   -2.0067   -0.2565   -0.5041 C   0  0  0  0  0  0  0  0  0  0  0  0
   -1.0010    0.7680   -0.0680 C   0  0  0  0  0  0  0  0  0  0  0  0
   -0.1301    1.4560   -1.0206 C   0  0  0  0  0  0  0  0  0  0  0  0
    0.6789    0.7865   -1.8870 O   0  0  0  0  0  0  0  0  0  0  0  0
    1.2209    1.0218   -0.6273 C   0  0  0  0  0  0  0  0  0  0  0  0
    1.9962   -1.9041    1.2200 H   0  0  0  0  0  0  0  0  0  0  0  0
    2.7814   -1.4015   -0.2872 H   0  0  0  0  0  0  0  0  0  0  0  0
    2.9787   -0.3760    1.2044 H   0  0  0  0  0  0  0  0  0  0  0  0
   -1.6995   -2.0135    0.8243 H   0  0  0  0  0  0  0  0  0  0  0  0
   -1.9488   -0.3681    1.6933 H   0  0  0  0  0  0  0  0  0  0  0  0
   -3.0587    0.0324   -0.4965 H   0  0  0  0  0  0  0  0  0  0  0  0
   -1.6380   -0.8272   -1.3637 H   0  0  0  0  0  0  0  0  0  0  0  0
   -1.4176    1.3676    0.7687 H   0  0  0  0  0  0  0  0  0  0  0  0
   -0.2956    2.5655   -1.1642 H   0  0  0  0  0  0  0  0  0  0  0  0
    1.9861    1.7500   -0.4262 H   0  0  0  0  0  0  0  0  0  0  0  0
  1  2  1  0
  2  3  2  0
  3  4  1  0
  4  5  1  0
  5  6  1  0
  6  7  1  0
  7  8  1  0
  8  9  1  0
  9  2  1  0
  6  3  1  0
  9  7  1  0
  1 10  1  0
  1 11  1  0
  1 12  1  0
  4 13  1  0
  4 14  1  0
  5 15  1  0
  5 16  1  0
  6 17  1  0
  7 18  1  0
  9 19  1  0
M  END
