
     RDKit          3D

 21 22  0  0  0  0  0  0  0  0999 V2000
    3.0013    0.1987   -0.5847 C   0  0  0  0  0  0  0  0  0  0  0  0
    1.5890    0.0604   -0.1939 C   0  0  0  0  0  0  0  0  0  0  0  0
    0.9717    0.9353    0.5945 C   0  0  0  0  0  0  0  0  0  0  0  0
   -0.4584    0.6598    0.9011 C   0  0  0  0  0  0  0  0  0  0  0  0
   -1.2023    0.0065   -0.2262 C   0  0  0  0  0  0  0  0  0  0  0  0
   -2.5733    0.5438   -0.6067 C   0  0  0  0  0  0  0  0  0  0  0  0
   -2.4074   -0.8168    0.0231 C   0  0  0  0  0  0  0  0  0  0  0  0
   -0.3869   -0.4446   -1.2606 O   0  0  0  0  0  0  0  0  0  0  0  0
    0.7204   -1.0876   -0.6570 C   0  0  0  0  0  0  0  0  0  0  0  0
    3.6961    0.1118    0.2936 H   0  0  0  0  0  0  0  0  0  0  0  0
    3.2527   -0.6889   -1.2270 H   0  0  0  0  0  0  0  0  0  0  0  0
    3.2175    1.0913   -1.1806 H   0  0  0  0  0  0  0  0  0  0  0  0
    1.5014    1.8016    0.9856 H   0  0  0  0  0  0  0  0  0  0  0  0
   -0.4638   -0.0431    1.7755 H   0  0  0  0  0  0  0  0  0  0  0  0
   -0.9751    1.6043    1.1646 H   0  0  0  0  0  0  0  0  0  0  0  0
   -2.7487    0.6135   -1.6995 H   0  0  0  0  0  0  0  0  0  0  0  0
   -2.9753    1.3585    0.0379 H   0  0  0  0  0  0  0  0  0  0  0  0
   -2.6211   -1.6745   -0.6441 H   0  0  0  0  0  0  0  0  0  0  0  0
   -2.7245   -0.9130    1.0846 H   0  0  0  0  0  0  0  0  0  0  0  0
    0.3408   -1.5717    0.2594 H   0  0  0  0  0  0  0  0  0  0  0  0
    1.2459   -1.7453   -1.3454 H   0  0  0  0  0  0  0  0  0  0  0  0
  1  2  1  0
  2  3  2  0
  3  4  1  0
  4  5  1  0
  5  6  1  0
  6  7  1  0
  5  8  1  0
  8  9  1  0
  9  2  1  0
  7  5  1  0
  1 10  1  0
  1 11  1  0
  1 12  1  0
  3 13  1  0
  4 14  1  0
  4 15  1  0
  6 16  1  0
  6 17  1  0
  7 18  1  0
  7 19  1  0
  9 20  1  0
  9 21  1  0
M  END
