
     RDKit          3D

 23 23  0  0  0  0  0  0  0  0999 V2000
    2.6759   -1.3805    0.1224 C   0  0  0  0  0  0  0  0  0  0  0  0
    1.3111   -0.8074   -0.0565 C   0  0  0  0  0  0  0  0  0  0  0  0
    0.1758   -1.4764    0.1261 C   0  0  0  0  0  0  0  0  0  0  0  0
   -0.9821   -0.5797   -0.1444 C   0  0  0  0  0  0  0  0  0  0  0  0
   -2.1522   -0.8648    0.7513 C   0  0  0  0  0  0  0  0  0  0  0  0
   -0.3675    0.7745    0.1497 C   0  0  0  0  0  0  0  0  0  0  0  0
   -1.1602    1.8533   -0.5369 C   0  0  0  0  0  0  0  0  0  0  0  0
   -0.5614    3.0749   -0.2397 O   0  0  0  0  0  0  0  0  0  0  0  0
    1.0123    0.5960   -0.4645 C   0  0  0  0  0  0  0  0  0  0  0  0
    2.8372   -2.2532   -0.5723 H   0  0  0  0  0  0  0  0  0  0  0  0
    2.8205   -1.7041    1.1838 H   0  0  0  0  0  0  0  0  0  0  0  0
    3.4591   -0.6302   -0.0890 H   0  0  0  0  0  0  0  0  0  0  0  0
    0.0763   -2.5155    0.4257 H   0  0  0  0  0  0  0  0  0  0  0  0
   -1.2671   -0.5795   -1.2157 H   0  0  0  0  0  0  0  0  0  0  0  0
   -1.8561   -0.5954    1.7939 H   0  0  0  0  0  0  0  0  0  0  0  0
   -2.9943   -0.2374    0.4117 H   0  0  0  0  0  0  0  0  0  0  0  0
   -2.4062   -1.9363    0.6487 H   0  0  0  0  0  0  0  0  0  0  0  0
   -0.3346    0.8954    1.2301 H   0  0  0  0  0  0  0  0  0  0  0  0
   -1.1499    1.6733   -1.6281 H   0  0  0  0  0  0  0  0  0  0  0  0
   -2.1632    1.8644   -0.0937 H   0  0  0  0  0  0  0  0  0  0  0  0
    0.4162    2.9076   -0.1344 H   0  0  0  0  0  0  0  0  0  0  0  0
    1.7410    1.3202   -0.1007 H   0  0  0  0  0  0  0  0  0  0  0  0
    0.8696    0.6010   -1.5674 H   0  0  0  0  0  0  0  0  0  0  0  0
  1  2  1  0
  2  3  2  0
  3  4  1  0
  4  5  1  0
  4  6  1  0
  6  7  1  0
  7  8  1  0
  6  9  1  0
  9  2  1  0
  1 10  1  0
  1 11  1  0
  1 12  1  0
  3 13  1  0
  4 14  1  0
  5 15  1  0
  5 16  1  0
  5 17  1  0
  6 18  1  0
  7 19  1  0
  7 20  1  0
  8 21  1  0
  9 22  1  0
  9 23  1  0
M  END
