
     RDKit          3D

 21 21  0  0  0  0  0  0  0  0999 V2000
    2.2887   -0.5461    0.5704 C   0  0  0  0  0  0  0  0  0  0  0  0
    0.9128   -0.3890    0.0188 C   0  0  0  0  0  0  0  0  0  0  0  0
    0.0190   -1.3701   -0.0213 C   0  0  0  0  0  0  0  0  0  0  0  0
   -1.2448   -0.8781   -0.6301 C   0  0  0  0  0  0  0  0  0  0  0  0
   -1.1522   -1.0404   -2.0238 O   0  0  0  0  0  0  0  0  0  0  0  0
   -1.1694    0.6003   -0.2895 C   0  0  0  0  0  0  0  0  0  0  0  0
   -1.3883    0.7898    1.1832 C   0  0  0  0  0  0  0  0  0  0  0  0
    0.2978    0.8592   -0.5740 C   0  0  0  0  0  0  0  0  0  0  0  0
    0.7620    1.9868    0.0712 O   0  0  0  0  0  0  0  0  0  0  0  0
    2.8431   -1.3688    0.0313 H   0  0  0  0  0  0  0  0  0  0  0  0
    2.2530   -0.7831    1.6554 H   0  0  0  0  0  0  0  0  0  0  0  0
    2.8796    0.3846    0.4235 H   0  0  0  0  0  0  0  0  0  0  0  0
    0.1739   -2.3780    0.3319 H   0  0  0  0  0  0  0  0  0  0  0  0
   -2.1428   -1.3590   -0.2102 H   0  0  0  0  0  0  0  0  0  0  0  0
   -0.5688   -1.8206   -2.1911 H   0  0  0  0  0  0  0  0  0  0  0  0
   -1.8380    1.2065   -0.9230 H   0  0  0  0  0  0  0  0  0  0  0  0
   -0.4949    1.1550    1.7215 H   0  0  0  0  0  0  0  0  0  0  0  0
   -2.2391    1.4854    1.4045 H   0  0  0  0  0  0  0  0  0  0  0  0
   -1.6672   -0.1799    1.6757 H   0  0  0  0  0  0  0  0  0  0  0  0
    0.5025    0.9236   -1.6459 H   0  0  0  0  0  0  0  0  0  0  0  0
    0.9730    2.7219   -0.5784 H   0  0  0  0  0  0  0  0  0  0  0  0
  1  2  1  0
  2  3  2  0
  3  4  1  0
  4  5  1  0
  4  6  1  0
  6  7  1  0
  6  8  1  0
  8  9  1  0
  8  2  1  0
  1 10  1  0
  1 11  1  0
  1 12  1  0
  3 13  1  0
  4 14  1  0
  5 15  1  0
  6 16  1  0
  7 17  1  0
  7 18  1  0
  7 19  1  0
  8 20  1  0
  9 21  1  0
M  END
