
     RDKit          3D

 23 23  0  0  0  0  0  0  0  0999 V2000
   -1.9467   -1.8860    0.0618 C   0  0  0  0  0  0  0  0  0  0  0  0
   -0.9750   -0.7565    0.1044 C   0  0  0  0  0  0  0  0  0  0  0  0
    0.2319   -0.9784   -0.3809 C   0  0  0  0  0  0  0  0  0  0  0  0
    1.4593   -0.1982   -0.5413 C   0  0  0  0  0  0  0  0  0  0  0  0
    2.5549   -0.6432    0.4318 C   0  0  0  0  0  0  0  0  0  0  0  0
    1.2912    1.2549   -0.4262 C   0  0  0  0  0  0  0  0  0  0  0  0
    0.2399    2.0345   -0.2971 C   0  0  0  0  0  0  0  0  0  0  0  0
   -1.1694    1.6807   -0.2232 C   0  0  0  0  0  0  0  0  0  0  0  0
   -1.4585    0.5163    0.6911 C   0  0  0  0  0  0  0  0  0  0  0  0
   -2.2946   -2.1156    1.1039 H   0  0  0  0  0  0  0  0  0  0  0  0
   -2.8707   -1.6159   -0.4978 H   0  0  0  0  0  0  0  0  0  0  0  0
   -1.5011   -2.7724   -0.3880 H   0  0  0  0  0  0  0  0  0  0  0  0
    0.3310   -2.0132   -0.7577 H   0  0  0  0  0  0  0  0  0  0  0  0
    1.8662   -0.4156   -1.5631 H   0  0  0  0  0  0  0  0  0  0  0  0
    3.4167    0.0382    0.2547 H   0  0  0  0  0  0  0  0  0  0  0  0
    2.2157   -0.5670    1.4837 H   0  0  0  0  0  0  0  0  0  0  0  0
    2.8751   -1.6481    0.1409 H   0  0  0  0  0  0  0  0  0  0  0  0
    2.2423    1.7958   -0.4545 H   0  0  0  0  0  0  0  0  0  0  0  0
    0.4771    3.1067   -0.2375 H   0  0  0  0  0  0  0  0  0  0  0  0
   -1.7500    2.5540    0.1958 H   0  0  0  0  0  0  0  0  0  0  0  0
   -1.6137    1.4544   -1.2162 H   0  0  0  0  0  0  0  0  0  0  0  0
   -2.5696    0.4716    0.8031 H   0  0  0  0  0  0  0  0  0  0  0  0
   -1.0521    0.7031    1.7122 H   0  0  0  0  0  0  0  0  0  0  0  0
  1  2  1  0
  2  3  2  0
  3  4  1  0
  4  5  1  0
  4  6  1  0
  6  7  2  0
  7  8  1  0
  8  9  1  0
  9  2  1  0
  1 10  1  0
  1 11  1  0
  1 12  1  0
  3 13  1  0
  4 14  1  0
  5 15  1  0
  5 16  1  0
  5 17  1  0
  6 18  1  0
  7 19  1  0
  8 20  1  0
  8 21  1  0
  9 22  1  0
  9 23  1  0
M  END
