
     RDKit          3D

 21 22  0  0  0  0  0  0  0  0999 V2000
   -1.8889   -1.4039    0.1423 C   0  0  0  0  0  0  0  0  0  0  0  0
   -0.5196   -0.7949    0.1106 C   0  0  0  0  0  0  0  0  0  0  0  0
    0.6375   -1.3399    0.3891 C   0  0  0  0  0  0  0  0  0  0  0  0
    1.7519   -0.3838    0.2309 C   0  0  0  0  0  0  0  0  0  0  0  0
    2.4181   -0.1397    1.4281 O   0  0  0  0  0  0  0  0  0  0  0  0
    1.1672    0.8691   -0.3264 C   0  0  0  0  0  0  0  0  0  0  0  0
    0.3576    0.8272   -1.5783 C   0  0  0  0  0  0  0  0  0  0  0  0
   -0.2900    0.6098   -0.2716 C   0  0  0  0  0  0  0  0  0  0  0  0
   -1.2136    1.6160    0.3471 C   0  0  0  0  0  0  0  0  0  0  0  0
   -2.2566   -1.6636   -0.8649 H   0  0  0  0  0  0  0  0  0  0  0  0
   -1.8037   -2.3262    0.7796 H   0  0  0  0  0  0  0  0  0  0  0  0
   -2.5685   -0.6585    0.5669 H   0  0  0  0  0  0  0  0  0  0  0  0
    0.7142   -2.3993    0.7018 H   0  0  0  0  0  0  0  0  0  0  0  0
    2.4759   -0.8658   -0.4691 H   0  0  0  0  0  0  0  0  0  0  0  0
    3.0405   -0.9121    1.5537 H   0  0  0  0  0  0  0  0  0  0  0  0
    1.5850    1.8316    0.0388 H   0  0  0  0  0  0  0  0  0  0  0  0
    0.2077    1.7408   -2.1720 H   0  0  0  0  0  0  0  0  0  0  0  0
    0.5675   -0.0640   -2.2205 H   0  0  0  0  0  0  0  0  0  0  0  0
   -0.8958    2.6561    0.2244 H   0  0  0  0  0  0  0  0  0  0  0  0
   -1.2525    1.3878    1.4517 H   0  0  0  0  0  0  0  0  0  0  0  0
   -2.2341    1.4137   -0.0623 H   0  0  0  0  0  0  0  0  0  0  0  0
  1  2  1  0
  2  3  2  0
  3  4  1  0
  4  5  1  0
  4  6  1  0
  6  7  1  0
  7  8  1  0
  8  9  1  0
  8  2  1  0
  8  6  1  0
  1 10  1  0
  1 11  1  0
  1 12  1  0
  3 13  1  0
  4 14  1  0
  5 15  1  0
  6 16  1  0
  7 17  1  0
  7 18  1  0
  9 19  1  0
  9 20  1  0
  9 21  1  0
M  END
