
     RDKit          3D

 21 22  0  0  0  0  0  0  0  0999 V2000
    2.0396   -1.2407   -0.2075 C   0  0  0  0  0  0  0  0  0  0  0  0
    0.6848   -0.6556   -0.0063 C   0  0  0  0  0  0  0  0  0  0  0  0
    0.3416    0.6229   -0.0618 C   0  0  0  0  0  0  0  0  0  0  0  0
    1.2616    1.7556   -0.3427 C   0  0  0  0  0  0  0  0  0  0  0  0
   -1.1110    0.8017    0.1961 C   0  0  0  0  0  0  0  0  0  0  0  0
   -1.5069    1.6738    1.1888 O   0  0  0  0  0  0  0  0  0  0  0  0
   -2.0223    0.2849   -0.8261 C   0  0  0  0  0  0  0  0  0  0  0  0
   -1.6893   -0.5872    0.3221 C   0  0  0  0  0  0  0  0  0  0  0  0
   -0.5048   -1.5006    0.2986 C   0  0  0  0  0  0  0  0  0  0  0  0
    2.8131   -0.4461   -0.3281 H   0  0  0  0  0  0  0  0  0  0  0  0
    2.0482   -1.9806   -1.0071 H   0  0  0  0  0  0  0  0  0  0  0  0
    2.3234   -1.7690    0.7488 H   0  0  0  0  0  0  0  0  0  0  0  0
    2.0520    1.4577   -1.0864 H   0  0  0  0  0  0  0  0  0  0  0  0
    0.7365    2.6431   -0.7229 H   0  0  0  0  0  0  0  0  0  0  0  0
    1.8037    2.0236    0.6013 H   0  0  0  0  0  0  0  0  0  0  0  0
   -1.1463    1.3151    2.0589 H   0  0  0  0  0  0  0  0  0  0  0  0
   -1.5975    0.0597   -1.8483 H   0  0  0  0  0  0  0  0  0  0  0  0
   -3.0863    0.6011   -0.8987 H   0  0  0  0  0  0  0  0  0  0  0  0
   -2.4656   -0.7800    1.0916 H   0  0  0  0  0  0  0  0  0  0  0  0
   -0.3914   -1.9789    1.2899 H   0  0  0  0  0  0  0  0  0  0  0  0
   -0.5832   -2.3005   -0.4601 H   0  0  0  0  0  0  0  0  0  0  0  0
  1  2  1  0
  2  3  2  0
  3  4  1  0
  3  5  1  0
  5  6  1  0
  5  7  1  0
  7  8  1  0
  8  9  1  0
  9  2  1  0
  8  5  1  0
  1 10  1  0
  1 11  1  0
  1 12  1  0
  4 13  1  0
  4 14  1  0
  4 15  1  0
  6 16  1  0
  7 17  1  0
  7 18  1  0
  8 19  1  0
  9 20  1  0
  9 21  1  0
M  END
