
     RDKit          3D

 19 20  0  0  0  0  0  0  0  0999 V2000
   -2.6865    0.1347    0.3255 C   0  0  0  0  0  0  0  0  0  0  0  0
   -1.2188   -0.0186    0.2146 C   0  0  0  0  0  0  0  0  0  0  0  0
   -0.3316    0.9819   -0.0073 C   0  0  0  0  0  0  0  0  0  0  0  0
    0.9597    0.2573   -0.0006 C   0  0  0  0  0  0  0  0  0  0  0  0
    2.2049    0.9260   -0.2173 C   0  0  0  0  0  0  0  0  0  0  0  0
    0.5996   -0.9630   -0.8639 C   0  0  0  0  0  0  0  0  0  0  0  0
   -0.3387   -1.2044    0.3028 C   0  0  0  0  0  0  0  0  0  0  0  0
    0.7740   -0.6683    1.1518 C   0  0  0  0  0  0  0  0  0  0  0  0
    1.2907   -0.8608    2.2291 O   0  0  0  0  0  0  0  0  0  0  0  0
   -3.1445   -0.5896    1.0151 H   0  0  0  0  0  0  0  0  0  0  0  0
   -3.1878    0.1137   -0.6756 H   0  0  0  0  0  0  0  0  0  0  0  0
   -2.8789    1.1478    0.7757 H   0  0  0  0  0  0  0  0  0  0  0  0
   -0.5280    2.0375   -0.1511 H   0  0  0  0  0  0  0  0  0  0  0  0
    2.1479    2.0022    0.0423 H   0  0  0  0  0  0  0  0  0  0  0  0
    3.0425    0.4133    0.3137 H   0  0  0  0  0  0  0  0  0  0  0  0
    2.4844    0.9104   -1.3121 H   0  0  0  0  0  0  0  0  0  0  0  0
    0.1322   -0.7239   -1.8171 H   0  0  0  0  0  0  0  0  0  0  0  0
    1.3990   -1.7324   -0.8628 H   0  0  0  0  0  0  0  0  0  0  0  0
   -0.7201   -2.1641    0.4876 H   0  0  0  0  0  0  0  0  0  0  0  0
  1  2  1  0
  2  3  2  0
  3  4  1  0
  4  5  1  0
  4  6  1  0
  6  7  1  0
  7  8  1  0
  8  9  2  0
  7  2  1  0
  8  4  1  0
  1 10  1  0
  1 11  1  0
  1 12  1  0
  3 13  1  0
  5 14  1  0
  5 15  1  0
  5 16  1  0
  6 17  1  0
  6 18  1  0
  7 19  1  0
M  END
