
     RDKit          3D

 21 21  0  0  0  0  0  0  0  0999 V2000
   -2.2195    1.3106    0.2153 C   0  0  0  0  0  0  0  0  0  0  0  0
   -0.9239    0.5337    0.3145 C   0  0  0  0  0  0  0  0  0  0  0  0
    0.2262    1.1592    0.4640 C   0  0  0  0  0  0  0  0  0  0  0  0
    1.3533    0.2021    0.5371 C   0  0  0  0  0  0  0  0  0  0  0  0
    2.1962    0.3295   -0.7079 C   0  0  0  0  0  0  0  0  0  0  0  0
    0.6846   -1.1162    0.6840 C   0  0  0  0  0  0  0  0  0  0  0  0
   -0.7407   -0.9193    0.2656 C   0  0  0  0  0  0  0  0  0  0  0  0
   -0.9605   -1.5186   -1.0585 C   0  0  0  0  0  0  0  0  0  0  0  0
   -1.7829   -2.3987   -1.2535 O   0  0  0  0  0  0  0  0  0  0  0  0
   -2.4366    1.7266    1.2216 H   0  0  0  0  0  0  0  0  0  0  0  0
   -2.1431    2.1055   -0.5564 H   0  0  0  0  0  0  0  0  0  0  0  0
   -3.0327    0.6292   -0.1362 H   0  0  0  0  0  0  0  0  0  0  0  0
    0.3872    2.2400    0.5314 H   0  0  0  0  0  0  0  0  0  0  0  0
    2.0293    0.4198    1.4026 H   0  0  0  0  0  0  0  0  0  0  0  0
    2.6951    1.3302   -0.6538 H   0  0  0  0  0  0  0  0  0  0  0  0
    3.0127   -0.4321   -0.6782 H   0  0  0  0  0  0  0  0  0  0  0  0
    1.6144    0.2680   -1.6377 H   0  0  0  0  0  0  0  0  0  0  0  0
    0.6887   -1.3691    1.7839 H   0  0  0  0  0  0  0  0  0  0  0  0
    1.1832   -1.9525    0.1622 H   0  0  0  0  0  0  0  0  0  0  0  0
   -1.4526   -1.3696    1.0076 H   0  0  0  0  0  0  0  0  0  0  0  0
   -0.3786   -1.1783   -1.9077 H   0  0  0  0  0  0  0  0  0  0  0  0
  1  2  1  0
  2  3  2  0
  3  4  1  0
  4  5  1  0
  4  6  1  0
  6  7  1  0
  7  8  1  0
  8  9  2  0
  7  2  1  0
  1 10  1  0
  1 11  1  0
  1 12  1  0
  3 13  1  0
  4 14  1  0
  5 15  1  0
  5 16  1  0
  5 17  1  0
  6 18  1  0
  6 19  1  0
  7 20  1  0
  8 21  1  0
M  END
