
     RDKit          3D

 23 24  0  0  0  0  0  0  0  0999 V2000
   -2.1338   -0.9478    0.1491 C   0  0  0  0  0  0  0  0  0  0  0  0
   -0.6592   -0.6868    0.1090 C   0  0  0  0  0  0  0  0  0  0  0  0
    0.1337   -1.7090    0.2420 C   0  0  0  0  0  0  0  0  0  0  0  0
    1.6146   -1.5743    0.2188 C   0  0  0  0  0  0  0  0  0  0  0  0
    2.0860   -0.3184   -0.4362 C   0  0  0  0  0  0  0  0  0  0  0  0
    1.2864    0.8864   -0.0232 C   0  0  0  0  0  0  0  0  0  0  0  0
   -0.1849    0.6914   -0.0764 C   0  0  0  0  0  0  0  0  0  0  0  0
   -0.9593    1.8096    0.6389 C   0  0  0  0  0  0  0  0  0  0  0  0
   -1.0612    1.6560   -0.8139 C   0  0  0  0  0  0  0  0  0  0  0  0
   -2.5276   -0.6685   -0.8511 H   0  0  0  0  0  0  0  0  0  0  0  0
   -2.6321   -0.3703    0.9449 H   0  0  0  0  0  0  0  0  0  0  0  0
   -2.3618   -2.0011    0.3049 H   0  0  0  0  0  0  0  0  0  0  0  0
   -0.2636   -2.7426    0.3806 H   0  0  0  0  0  0  0  0  0  0  0  0
    1.9654   -1.6517    1.2819 H   0  0  0  0  0  0  0  0  0  0  0  0
    2.0833   -2.4345   -0.3360 H   0  0  0  0  0  0  0  0  0  0  0  0
    3.1367   -0.1312   -0.1256 H   0  0  0  0  0  0  0  0  0  0  0  0
    2.0967   -0.4468   -1.5403 H   0  0  0  0  0  0  0  0  0  0  0  0
    1.5653    1.7392   -0.6843 H   0  0  0  0  0  0  0  0  0  0  0  0
    1.5642    1.1009    1.0426 H   0  0  0  0  0  0  0  0  0  0  0  0
   -0.4080    2.6852    1.0177 H   0  0  0  0  0  0  0  0  0  0  0  0
   -1.7521    1.4339    1.3075 H   0  0  0  0  0  0  0  0  0  0  0  0
   -1.9990    1.2590   -1.2579 H   0  0  0  0  0  0  0  0  0  0  0  0
   -0.5897    2.4213   -1.4929 H   0  0  0  0  0  0  0  0  0  0  0  0
  1  2  1  0
  2  3  2  0
  3  4  1  0
  4  5  1  0
  5  6  1  0
  6  7  1  0
  7  8  1  0
  8  9  1  0
  7  2  1  0
  9  7  1  0
  1 10  1  0
  1 11  1  0
  1 12  1  0
  3 13  1  0
  4 14  1  0
  4 15  1  0
  5 16  1  0
  5 17  1  0
  6 18  1  0
  6 19  1  0
  8 20  1  0
  8 21  1  0
  9 22  1  0
  9 23  1  0
M  END
