
     RDKit          3D

 21 22  0  0  0  0  0  0  0  0999 V2000
    2.6858   -0.4401   -0.1907 C   0  0  0  0  0  0  0  0  0  0  0  0
    1.1768   -0.4712   -0.2603 C   0  0  0  0  0  0  0  0  0  0  0  0
    0.4510   -1.5322   -0.5884 C   0  0  0  0  0  0  0  0  0  0  0  0
   -1.0106   -1.2368   -0.5641 C   0  0  0  0  0  0  0  0  0  0  0  0
   -1.0423    0.1508    0.0010 C   0  0  0  0  0  0  0  0  0  0  0  0
   -1.8936    0.3806    1.2195 C   0  0  0  0  0  0  0  0  0  0  0  0
   -0.6526    1.2358   -0.9069 C   0  0  0  0  0  0  0  0  0  0  0  0
    0.3235    0.6861    0.0314 C   0  0  0  0  0  0  0  0  0  0  0  0
    0.7521    1.5276    1.0678 O   0  0  0  0  0  0  0  0  0  0  0  0
    3.1316   -1.0141   -1.0179 H   0  0  0  0  0  0  0  0  0  0  0  0
    3.0581   -0.8621    0.7517 H   0  0  0  0  0  0  0  0  0  0  0  0
    3.0444    0.6055   -0.2866 H   0  0  0  0  0  0  0  0  0  0  0  0
    0.9176   -2.4900   -0.8394 H   0  0  0  0  0  0  0  0  0  0  0  0
   -1.5392   -1.9828    0.0296 H   0  0  0  0  0  0  0  0  0  0  0  0
   -1.3867   -1.1863   -1.6075 H   0  0  0  0  0  0  0  0  0  0  0  0
   -2.8817   -0.0757    1.0208 H   0  0  0  0  0  0  0  0  0  0  0  0
   -1.4763   -0.1600    2.1105 H   0  0  0  0  0  0  0  0  0  0  0  0
   -2.0259    1.4360    1.4596 H   0  0  0  0  0  0  0  0  0  0  0  0
   -0.6278    1.0015   -2.0036 H   0  0  0  0  0  0  0  0  0  0  0  0
   -1.0510    2.2369   -0.7027 H   0  0  0  0  0  0  0  0  0  0  0  0
    0.0469    2.1907    1.2762 H   0  0  0  0  0  0  0  0  0  0  0  0
  1  2  1  0
  2  3  2  0
  3  4  1  0
  4  5  1  0
  5  6  1  0
  5  7  1  0
  7  8  1  0
  8  9  1  0
  8  2  1  0
  8  5  1  0
  1 10  1  0
  1 11  1  0
  1 12  1  0
  3 13  1  0
  4 14  1  0
  4 15  1  0
  6 16  1  0
  6 17  1  0
  6 18  1  0
  7 19  1  0
  7 20  1  0
  9 21  1  0
M  END
