
     RDKit          3D

 20 21  0  0  0  0  0  0  0  0999 V2000
    2.7627   -0.4082    0.2406 C   0  0  0  0  0  0  0  0  0  0  0  0
    1.3070   -0.2170   -0.0017 C   0  0  0  0  0  0  0  0  0  0  0  0
    0.3800    0.0733    0.9031 C   0  0  0  0  0  0  0  0  0  0  0  0
   -0.9532    0.1836    0.2726 C   0  0  0  0  0  0  0  0  0  0  0  0
   -0.6052    0.4617   -1.1686 C   0  0  0  0  0  0  0  0  0  0  0  0
    0.6722   -0.3320   -1.3392 C   0  0  0  0  0  0  0  0  0  0  0  0
   -2.1170   -0.5812    0.6873 C   0  0  0  0  0  0  0  0  0  0  0  0
   -2.0670    0.9203    0.8604 C   0  0  0  0  0  0  0  0  0  0  0  0
    3.0606   -0.2193    1.2719 H   0  0  0  0  0  0  0  0  0  0  0  0
    3.0641   -1.4372   -0.0280 H   0  0  0  0  0  0  0  0  0  0  0  0
    3.3439    0.2664   -0.4331 H   0  0  0  0  0  0  0  0  0  0  0  0
    0.6381    0.2007    1.9601 H   0  0  0  0  0  0  0  0  0  0  0  0
   -1.3853    0.1174   -1.8690 H   0  0  0  0  0  0  0  0  0  0  0  0
   -0.3711    1.5446   -1.2909 H   0  0  0  0  0  0  0  0  0  0  0  0
    0.4618   -1.3869   -1.5901 H   0  0  0  0  0  0  0  0  0  0  0  0
    1.3006    0.0946   -2.1439 H   0  0  0  0  0  0  0  0  0  0  0  0
   -2.8860   -0.9404    0.0096 H   0  0  0  0  0  0  0  0  0  0  0  0
   -2.0155   -1.2186    1.6091 H   0  0  0  0  0  0  0  0  0  0  0  0
   -1.8983    1.3449    1.8783 H   0  0  0  0  0  0  0  0  0  0  0  0
   -2.6924    1.5333    0.1715 H   0  0  0  0  0  0  0  0  0  0  0  0
  1  2  1  0
  2  3  2  0
  3  4  1  0
  4  5  1  0
  5  6  1  0
  4  7  1  0
  7  8  1  0
  6  2  1  0
  8  4  1  0
  1  9  1  0
  1 10  1  0
  1 11  1  0
  3 12  1  0
  5 13  1  0
  5 14  1  0
  6 15  1  0
  6 16  1  0
  7 17  1  0
  7 18  1  0
  8 19  1  0
  8 20  1  0
M  END
