
     RDKit          3D

 23 23  0  0  0  0  0  0  0  0999 V2000
   -1.7105    1.6873    0.3056 C   0  0  0  0  0  0  0  0  0  0  0  0
   -0.6210    0.6865    0.1784 C   0  0  0  0  0  0  0  0  0  0  0  0
    0.6125    1.0346   -0.0672 C   0  0  0  0  0  0  0  0  0  0  0  0
    1.6949    0.0248   -0.1925 C   0  0  0  0  0  0  0  0  0  0  0  0
    3.0186    0.5369    0.3458 C   0  0  0  0  0  0  0  0  0  0  0  0
    1.3731   -1.0813    0.5685 O   0  0  0  0  0  0  0  0  0  0  0  0
    0.1761   -1.6695    0.2434 C   0  0  0  0  0  0  0  0  0  0  0  0
   -1.0127   -0.7610    0.3480 C   0  0  0  0  0  0  0  0  0  0  0  0
   -2.0393   -1.0510   -0.7222 C   0  0  0  0  0  0  0  0  0  0  0  0
   -1.5267    2.4707   -0.4456 H   0  0  0  0  0  0  0  0  0  0  0  0
   -2.7109    1.2303    0.1688 H   0  0  0  0  0  0  0  0  0  0  0  0
   -1.6815    2.0734    1.3468 H   0  0  0  0  0  0  0  0  0  0  0  0
    0.8462    2.0879   -0.1815 H   0  0  0  0  0  0  0  0  0  0  0  0
    1.8527   -0.2394   -1.2788 H   0  0  0  0  0  0  0  0  0  0  0  0
    2.8258    0.8710    1.3858 H   0  0  0  0  0  0  0  0  0  0  0  0
    3.6818   -0.3588    0.4250 H   0  0  0  0  0  0  0  0  0  0  0  0
    3.4490    1.3265   -0.2955 H   0  0  0  0  0  0  0  0  0  0  0  0
    0.2362   -2.1910   -0.7511 H   0  0  0  0  0  0  0  0  0  0  0  0
    0.0143   -2.4902    0.9910 H   0  0  0  0  0  0  0  0  0  0  0  0
   -1.5283   -0.8140    1.3304 H   0  0  0  0  0  0  0  0  0  0  0  0
   -1.9650   -0.3053   -1.5555 H   0  0  0  0  0  0  0  0  0  0  0  0
   -3.0803   -1.0170   -0.3225 H   0  0  0  0  0  0  0  0  0  0  0  0
   -1.9049   -2.0514   -1.1790 H   0  0  0  0  0  0  0  0  0  0  0  0
  1  2  1  0
  2  3  2  0
  3  4  1  0
  4  5  1  0
  4  6  1  0
  6  7  1  0
  7  8  1  0
  8  9  1  0
  8  2  1  0
  1 10  1  0
  1 11  1  0
  1 12  1  0
  3 13  1  0
  4 14  1  0
  5 15  1  0
  5 16  1  0
  5 17  1  0
  7 18  1  0
  7 19  1  0
  8 20  1  0
  9 21  1  0
  9 22  1  0
  9 23  1  0
M  END
