
     RDKit          3D

 21 21  0  0  0  0  0  0  0  0999 V2000
    2.6895   -0.7615    0.3195 C   0  0  0  0  0  0  0  0  0  0  0  0
    1.3776   -0.1342    0.0023 C   0  0  0  0  0  0  0  0  0  0  0  0
    1.4661    1.1648   -0.2361 C   0  0  0  0  0  0  0  0  0  0  0  0
    0.3653    2.0581   -0.5734 C   0  0  0  0  0  0  0  0  0  0  0  0
   -0.9073    1.8405   -0.3334 C   0  0  0  0  0  0  0  0  0  0  0  0
   -1.6634    0.7511    0.2929 C   0  0  0  0  0  0  0  0  0  0  0  0
   -1.0569   -0.5870    0.1115 C   0  0  0  0  0  0  0  0  0  0  0  0
   -2.0593   -1.7117    0.0570 C   0  0  0  0  0  0  0  0  0  0  0  0
    0.1930   -0.9778   -0.0108 C   0  0  0  0  0  0  0  0  0  0  0  0
    2.6741   -1.8527    0.1807 H   0  0  0  0  0  0  0  0  0  0  0  0
    3.4222   -0.3161   -0.4151 H   0  0  0  0  0  0  0  0  0  0  0  0
    3.0591   -0.4838    1.3256 H   0  0  0  0  0  0  0  0  0  0  0  0
    2.4700    1.6092   -0.1724 H   0  0  0  0  0  0  0  0  0  0  0  0
    0.6567    2.9813   -1.0685 H   0  0  0  0  0  0  0  0  0  0  0  0
   -1.5493    2.6674   -0.6828 H   0  0  0  0  0  0  0  0  0  0  0  0
   -1.8530    0.9531    1.3851 H   0  0  0  0  0  0  0  0  0  0  0  0
   -2.6711    0.7183   -0.1703 H   0  0  0  0  0  0  0  0  0  0  0  0
   -2.2191   -2.1342    1.0680 H   0  0  0  0  0  0  0  0  0  0  0  0
   -1.7605   -2.4525   -0.6850 H   0  0  0  0  0  0  0  0  0  0  0  0
   -3.0427   -1.2904   -0.2570 H   0  0  0  0  0  0  0  0  0  0  0  0
    0.4090   -2.0418   -0.1379 H   0  0  0  0  0  0  0  0  0  0  0  0
  1  2  1  0
  2  3  2  0
  3  4  1  0
  4  5  2  0
  5  6  1  0
  6  7  1  0
  7  8  1  0
  7  9  2  0
  9  2  1  0
  1 10  1  0
  1 11  1  0
  1 12  1  0
  3 13  1  0
  4 14  1  0
  5 15  1  0
  6 16  1  0
  6 17  1  0
  8 18  1  0
  8 19  1  0
  8 20  1  0
  9 21  1  0
M  END
