
     RDKit          3D

 21 22  0  0  0  0  0  0  0  0999 V2000
    2.5282    0.0714   -0.4720 C   0  0  0  0  0  0  0  0  0  0  0  0
    1.1478   -0.3954   -0.2452 C   0  0  0  0  0  0  0  0  0  0  0  0
    0.6158   -1.5205   -0.7115 C   0  0  0  0  0  0  0  0  0  0  0  0
   -0.7970   -1.6684   -0.2862 C   0  0  0  0  0  0  0  0  0  0  0  0
   -1.0754   -0.5404    0.6451 C   0  0  0  0  0  0  0  0  0  0  0  0
   -1.9042    0.5902    0.0980 C   0  0  0  0  0  0  0  0  0  0  0  0
   -0.6261    1.3132   -0.2910 C   0  0  0  0  0  0  0  0  0  0  0  0
   -0.5451    2.6152    0.2107 O   0  0  0  0  0  0  0  0  0  0  0  0
    0.1372    0.3413    0.5528 C   0  0  0  0  0  0  0  0  0  0  0  0
    3.2062   -0.8206   -0.3507 H   0  0  0  0  0  0  0  0  0  0  0  0
    2.8739    0.8010    0.2809 H   0  0  0  0  0  0  0  0  0  0  0  0
    2.6935    0.5179   -1.4644 H   0  0  0  0  0  0  0  0  0  0  0  0
    1.1694   -2.2239   -1.3243 H   0  0  0  0  0  0  0  0  0  0  0  0
   -1.4814   -1.7122   -1.1575 H   0  0  0  0  0  0  0  0  0  0  0  0
   -0.8781   -2.6256    0.3011 H   0  0  0  0  0  0  0  0  0  0  0  0
   -1.4002   -0.8136    1.6532 H   0  0  0  0  0  0  0  0  0  0  0  0
   -2.4371    1.1721    0.8782 H   0  0  0  0  0  0  0  0  0  0  0  0
   -2.5847    0.3564   -0.7243 H   0  0  0  0  0  0  0  0  0  0  0  0
   -0.4608    1.2727   -1.3713 H   0  0  0  0  0  0  0  0  0  0  0  0
   -0.6783    2.5505    1.1910 H   0  0  0  0  0  0  0  0  0  0  0  0
    0.4964    0.7188    1.5280 H   0  0  0  0  0  0  0  0  0  0  0  0
  1  2  1  0
  2  3  2  0
  3  4  1  0
  4  5  1  0
  5  6  1  0
  6  7  1  0
  7  8  1  0
  7  9  1  0
  9  2  1  0
  9  5  1  0
  1 10  1  0
  1 11  1  0
  1 12  1  0
  3 13  1  0
  4 14  1  0
  4 15  1  0
  5 16  1  0
  6 17  1  0
  6 18  1  0
  7 19  1  0
  8 20  1  0
  9 21  1  0
M  END
