
     RDKit          3D

 19 20  0  0  0  0  0  0  0  0999 V2000
   -2.8332   -0.3587    0.2043 C   0  0  0  0  0  0  0  0  0  0  0  0
   -1.3478   -0.2183    0.0218 C   0  0  0  0  0  0  0  0  0  0  0  0
   -0.4820   -1.1601   -0.2796 C   0  0  0  0  0  0  0  0  0  0  0  0
    0.9017   -0.7158   -0.3901 C   0  0  0  0  0  0  0  0  0  0  0  0
    1.6079   -0.0685    0.7276 C   0  0  0  0  0  0  0  0  0  0  0  0
    3.0555    0.1639    0.6158 C   0  0  0  0  0  0  0  0  0  0  0  0
    3.7113    0.2412    1.6391 O   0  0  0  0  0  0  0  0  0  0  0  0
    0.7717    0.7903   -0.2014 C   0  0  0  0  0  0  0  0  0  0  0  0
   -0.6332    1.0655    0.1682 C   0  0  0  0  0  0  0  0  0  0  0  0
   -3.2415   -1.1464   -0.4685 H   0  0  0  0  0  0  0  0  0  0  0  0
   -3.3191    0.5920   -0.0850 H   0  0  0  0  0  0  0  0  0  0  0  0
   -3.1063   -0.6134    1.2296 H   0  0  0  0  0  0  0  0  0  0  0  0
   -0.7913   -2.2113   -0.4363 H   0  0  0  0  0  0  0  0  0  0  0  0
    1.4418   -1.0718   -1.2947 H   0  0  0  0  0  0  0  0  0  0  0  0
    1.1732   -0.1635    1.7342 H   0  0  0  0  0  0  0  0  0  0  0  0
    3.5912    0.2732   -0.3179 H   0  0  0  0  0  0  0  0  0  0  0  0
    1.2767    1.3902   -0.9851 H   0  0  0  0  0  0  0  0  0  0  0  0
   -1.1096    1.8633   -0.4406 H   0  0  0  0  0  0  0  0  0  0  0  0
   -0.6668    1.3479    1.2563 H   0  0  0  0  0  0  0  0  0  0  0  0
  1  2  1  0
  2  3  2  0
  3  4  1  0
  4  5  1  0
  5  6  1  0
  6  7  2  0
  5  8  1  0
  8  9  1  0
  9  2  1  0
  8  4  1  0
  1 10  1  0
  1 11  1  0
  1 12  1  0
  3 13  1  0
  4 14  1  0
  5 15  1  0
  6 16  1  0
  8 17  1  0
  9 18  1  0
  9 19  1  0
M  END
