
     RDKit          3D

 18 19  0  0  0  0  0  0  0  0999 V2000
    2.2943    0.5762   -0.1549 C   0  0  0  0  0  0  0  0  0  0  0  0
    0.8826    0.1125   -0.1593 C   0  0  0  0  0  0  0  0  0  0  0  0
    0.1784   -0.1661   -1.2493 C   0  0  0  0  0  0  0  0  0  0  0  0
   -1.1927   -0.5180   -0.7931 C   0  0  0  0  0  0  0  0  0  0  0  0
   -1.7519    0.6777   -0.1414 C   0  0  0  0  0  0  0  0  0  0  0  0
   -1.0596    0.9106    0.9683 C   0  0  0  0  0  0  0  0  0  0  0  0
    0.0020   -0.1249    1.0275 C   0  0  0  0  0  0  0  0  0  0  0  0
   -0.8042   -1.3169    0.4721 C   0  0  0  0  0  0  0  0  0  0  0  0
    2.9684   -0.1652   -0.6738 H   0  0  0  0  0  0  0  0  0  0  0  0
    2.6623    0.7212    0.8664 H   0  0  0  0  0  0  0  0  0  0  0  0
    2.3759    1.5185   -0.7474 H   0  0  0  0  0  0  0  0  0  0  0  0
    0.4753   -0.1592   -2.2849 H   0  0  0  0  0  0  0  0  0  0  0  0
   -1.8032   -1.0504   -1.4716 H   0  0  0  0  0  0  0  0  0  0  0  0
   -2.5817    1.2516   -0.5172 H   0  0  0  0  0  0  0  0  0  0  0  0
   -1.2867    1.7188    1.6473 H   0  0  0  0  0  0  0  0  0  0  0  0
    0.4777   -0.2969    1.9511 H   0  0  0  0  0  0  0  0  0  0  0  0
   -1.6685   -1.5487    1.0864 H   0  0  0  0  0  0  0  0  0  0  0  0
   -0.1684   -2.1406    0.1736 H   0  0  0  0  0  0  0  0  0  0  0  0
  1  2  1  0
  2  3  2  0
  3  4  1  0
  4  5  1  0
  5  6  2  0
  6  7  1  0
  7  8  1  0
  7  2  1  0
  8  4  1  0
  1  9  1  0
  1 10  1  0
  1 11  1  0
  3 12  1  0
  4 13  1  0
  5 14  1  0
  6 15  1  0
  7 16  1  0
  8 17  1  0
  8 18  1  0
M  END
