
     RDKit          3D

 21 23  0  0  0  0  0  0  0  0999 V2000
    2.3313   -0.2480    0.1656 C   0  0  0  0  0  0  0  0  0  0  0  0
    0.9038   -0.4933   -0.1703 C   0  0  0  0  0  0  0  0  0  0  0  0
    0.3829   -1.5782   -0.7043 C   0  0  0  0  0  0  0  0  0  0  0  0
   -1.1073   -1.3938   -0.8724 C   0  0  0  0  0  0  0  0  0  0  0  0
   -1.7511   -0.8483    0.3685 C   0  0  0  0  0  0  0  0  0  0  0  0
   -0.9878    0.1011    1.2502 C   0  0  0  0  0  0  0  0  0  0  0  0
   -0.1789    0.5158    0.0645 C   0  0  0  0  0  0  0  0  0  0  0  0
    0.2091    1.9363   -0.0555 C   0  0  0  0  0  0  0  0  0  0  0  0
   -1.2893    0.0288   -0.8153 C   0  0  0  0  0  0  0  0  0  0  0  0
    2.9627   -0.9526   -0.4324 H   0  0  0  0  0  0  0  0  0  0  0  0
    2.5651   -0.4723    1.2283 H   0  0  0  0  0  0  0  0  0  0  0  0
    2.6605    0.7756   -0.0423 H   0  0  0  0  0  0  0  0  0  0  0  0
    0.9224   -2.4730   -0.9858 H   0  0  0  0  0  0  0  0  0  0  0  0
   -1.6693   -2.0589   -1.4983 H   0  0  0  0  0  0  0  0  0  0  0  0
   -2.8188   -1.0140    0.4963 H   0  0  0  0  0  0  0  0  0  0  0  0
   -0.4485   -0.4075    2.0724 H   0  0  0  0  0  0  0  0  0  0  0  0
   -1.6234    0.9580    1.5972 H   0  0  0  0  0  0  0  0  0  0  0  0
   -0.6500    2.5648   -0.4319 H   0  0  0  0  0  0  0  0  0  0  0  0
    0.9880    2.0287   -0.8438 H   0  0  0  0  0  0  0  0  0  0  0  0
    0.6343    2.3753    0.8599 H   0  0  0  0  0  0  0  0  0  0  0  0
   -2.0355    0.6554   -1.2505 H   0  0  0  0  0  0  0  0  0  0  0  0
  1  2  1  0
  2  3  2  0
  3  4  1  0
  4  5  1  0
  5  6  1  0
  6  7  1  0
  7  8  1  0
  7  9  1  0
  7  2  1  0
  9  4  1  0
  9  5  1  0
  1 10  1  0
  1 11  1  0
  1 12  1  0
  3 13  1  0
  4 14  1  0
  5 15  1  0
  6 16  1  0
  6 17  1  0
  8 18  1  0
  8 19  1  0
  8 20  1  0
  9 21  1  0
M  END
