
     RDKit          3D

 23 24  0  0  0  0  0  0  0  0999 V2000
    2.8551   -0.2023   -0.5346 C   0  0  0  0  0  0  0  0  0  0  0  0
    1.4641    0.0351   -0.0768 C   0  0  0  0  0  0  0  0  0  0  0  0
    1.0715    1.2385    0.3266 C   0  0  0  0  0  0  0  0  0  0  0  0
   -0.2803    1.5513    0.7913 C   0  0  0  0  0  0  0  0  0  0  0  0
   -1.2727    1.9669   -0.2107 C   0  0  0  0  0  0  0  0  0  0  0  0
   -1.3381    0.6104    0.4136 C   0  0  0  0  0  0  0  0  0  0  0  0
   -0.9318   -0.6099   -0.3187 C   0  0  0  0  0  0  0  0  0  0  0  0
   -1.8398   -1.7963    0.0374 C   0  0  0  0  0  0  0  0  0  0  0  0
    0.4730   -1.0753   -0.0592 C   0  0  0  0  0  0  0  0  0  0  0  0
    3.0153   -1.2927   -0.6748 H   0  0  0  0  0  0  0  0  0  0  0  0
    2.9997    0.3701   -1.4761 H   0  0  0  0  0  0  0  0  0  0  0  0
    3.5400    0.1797    0.2746 H   0  0  0  0  0  0  0  0  0  0  0  0
    1.8109    2.0294    0.3044 H   0  0  0  0  0  0  0  0  0  0  0  0
   -0.3140    2.0299    1.8012 H   0  0  0  0  0  0  0  0  0  0  0  0
   -0.9389    2.0915   -1.2624 H   0  0  0  0  0  0  0  0  0  0  0  0
   -2.0988    2.6711    0.0461 H   0  0  0  0  0  0  0  0  0  0  0  0
   -2.1411    0.4598    1.1840 H   0  0  0  0  0  0  0  0  0  0  0  0
   -1.0881   -0.4709   -1.4292 H   0  0  0  0  0  0  0  0  0  0  0  0
   -2.0622   -2.4216   -0.8243 H   0  0  0  0  0  0  0  0  0  0  0  0
   -1.3307   -2.4550    0.7951 H   0  0  0  0  0  0  0  0  0  0  0  0
   -2.7780   -1.4666    0.4984 H   0  0  0  0  0  0  0  0  0  0  0  0
    0.7101   -1.8523   -0.8169 H   0  0  0  0  0  0  0  0  0  0  0  0
    0.4749   -1.5907    0.9351 H   0  0  0  0  0  0  0  0  0  0  0  0
  1  2  1  0
  2  3  2  0
  3  4  1  0
  4  5  1  0
  5  6  1  0
  6  7  1  0
  7  8  1  0
  7  9  1  0
  9  2  1  0
  6  4  1  0
  1 10  1  0
  1 11  1  0
  1 12  1  0
  3 13  1  0
  4 14  1  0
  5 15  1  0
  5 16  1  0
  6 17  1  0
  7 18  1  0
  8 19  1  0
  8 20  1  0
  8 21  1  0
  9 22  1  0
  9 23  1  0
M  END
