
     RDKit          3D

 21 21  0  0  0  0  0  0  0  0999 V2000
   -1.1603    1.9366   -0.0990 C   0  0  0  0  0  0  0  0  0  0  0  0
   -0.0828    0.8805   -0.0638 C   0  0  0  0  0  0  0  0  0  0  0  0
    1.1911    1.1808    0.0338 C   0  0  0  0  0  0  0  0  0  0  0  0
    1.9978   -0.0851    0.0419 C   0  0  0  0  0  0  0  0  0  0  0  0
    1.0516   -1.0981   -0.5983 C   0  0  0  0  0  0  0  0  0  0  0  0
   -0.2775   -0.5782   -0.1224 C   0  0  0  0  0  0  0  0  0  0  0  0
   -0.6045   -1.0257    1.2829 C   0  0  0  0  0  0  0  0  0  0  0  0
   -1.3636   -0.9935   -1.0183 C   0  0  0  0  0  0  0  0  0  0  0  0
   -1.5398   -0.3839   -2.0477 O   0  0  0  0  0  0  0  0  0  0  0  0
   -2.1196    1.5167   -0.4372 H   0  0  0  0  0  0  0  0  0  0  0  0
   -0.8046    2.7122   -0.7849 H   0  0  0  0  0  0  0  0  0  0  0  0
   -1.2163    2.3722    0.9214 H   0  0  0  0  0  0  0  0  0  0  0  0
    1.6651    2.1774    0.1028 H   0  0  0  0  0  0  0  0  0  0  0  0
    2.1092   -0.3835    1.1018 H   0  0  0  0  0  0  0  0  0  0  0  0
    2.9415    0.0092   -0.5014 H   0  0  0  0  0  0  0  0  0  0  0  0
    1.2686   -2.1245   -0.3166 H   0  0  0  0  0  0  0  0  0  0  0  0
    1.1193   -0.9210   -1.6912 H   0  0  0  0  0  0  0  0  0  0  0  0
   -1.7108   -1.0155    1.3691 H   0  0  0  0  0  0  0  0  0  0  0  0
   -0.2662   -2.0344    1.5198 H   0  0  0  0  0  0  0  0  0  0  0  0
   -0.2130   -0.3100    2.0529 H   0  0  0  0  0  0  0  0  0  0  0  0
   -1.9851   -1.8324   -0.7457 H   0  0  0  0  0  0  0  0  0  0  0  0
  1  2  1  0
  2  3  2  0
  3  4  1  0
  4  5  1  0
  5  6  1  0
  6  7  1  0
  6  8  1  0
  8  9  2  0
  6  2  1  0
  1 10  1  0
  1 11  1  0
  1 12  1  0
  3 13  1  0
  4 14  1  0
  4 15  1  0
  5 16  1  0
  5 17  1  0
  7 18  1  0
  7 19  1  0
  7 20  1  0
  8 21  1  0
M  END
