
     RDKit          3D

 20 21  0  0  0  0  0  0  0  0999 V2000
    2.2745   -0.6335    0.4632 C   0  0  0  0  0  0  0  0  0  0  0  0
    1.0326    0.1362    0.1056 C   0  0  0  0  0  0  0  0  0  0  0  0
    0.6626    1.3159    0.5787 C   0  0  0  0  0  0  0  0  0  0  0  0
   -0.6266    1.7733   -0.0013 C   0  0  0  0  0  0  0  0  0  0  0  0
   -1.1468    0.5449   -0.6644 C   0  0  0  0  0  0  0  0  0  0  0  0
   -1.6572   -0.4446    0.3652 C   0  0  0  0  0  0  0  0  0  0  0  0
   -0.8291   -1.5011   -0.3623 C   0  0  0  0  0  0  0  0  0  0  0  0
    0.0378   -0.3680   -0.8615 C   0  0  0  0  0  0  0  0  0  0  0  0
    3.1265    0.0252    0.6768 H   0  0  0  0  0  0  0  0  0  0  0  0
    2.1090   -1.2890    1.3289 H   0  0  0  0  0  0  0  0  0  0  0  0
    2.5829   -1.2886   -0.3842 H   0  0  0  0  0  0  0  0  0  0  0  0
    1.2604    1.8583    1.3077 H   0  0  0  0  0  0  0  0  0  0  0  0
   -1.2516    2.1200    0.8473 H   0  0  0  0  0  0  0  0  0  0  0  0
   -0.3862    2.5904   -0.7104 H   0  0  0  0  0  0  0  0  0  0  0  0
   -1.7994    0.6794   -1.5406 H   0  0  0  0  0  0  0  0  0  0  0  0
   -2.7539   -0.5628    0.2448 H   0  0  0  0  0  0  0  0  0  0  0  0
   -1.2937   -0.2657    1.3896 H   0  0  0  0  0  0  0  0  0  0  0  0
   -1.4021   -1.9383   -1.2050 H   0  0  0  0  0  0  0  0  0  0  0  0
   -0.3288   -2.2292    0.2989 H   0  0  0  0  0  0  0  0  0  0  0  0
    0.3892   -0.5228   -1.8768 H   0  0  0  0  0  0  0  0  0  0  0  0
  1  2  1  0
  2  3  2  0
  3  4  1  0
  4  5  1  0
  5  6  1  0
  6  7  1  0
  7  8  1  0
  8  2  1  0
  8  5  1  0
  1  9  1  0
  1 10  1  0
  1 11  1  0
  3 12  1  0
  4 13  1  0
  4 14  1  0
  5 15  1  0
  6 16  1  0
  6 17  1  0
  7 18  1  0
  7 19  1  0
  8 20  1  0
M  END
