
     RDKit          3D

 15 16  0  0  0  0  0  0  0  0999 V2000
    2.1085    0.0693    0.2389 C   0  0  0  0  0  0  0  0  0  0  0  0
    0.6652   -0.1032   -0.0439 C   0  0  0  0  0  0  0  0  0  0  0  0
   -0.1124   -1.2035    0.1194 C   0  0  0  0  0  0  0  0  0  0  0  0
   -1.4254   -0.6677   -0.3564 C   0  0  0  0  0  0  0  0  0  0  0  0
   -1.4847    0.6578    0.3673 C   0  0  0  0  0  0  0  0  0  0  0  0
   -0.3407    0.8636   -0.5816 C   0  0  0  0  0  0  0  0  0  0  0  0
   -1.0330    0.0480   -1.4825 O   0  0  0  0  0  0  0  0  0  0  0  0
    2.3121   -0.2231    1.2899 H   0  0  0  0  0  0  0  0  0  0  0  0
    2.3770    1.0966   -0.0007 H   0  0  0  0  0  0  0  0  0  0  0  0
    2.6926   -0.6518   -0.4001 H   0  0  0  0  0  0  0  0  0  0  0  0
    0.1596   -2.1824    0.4904 H   0  0  0  0  0  0  0  0  0  0  0  0
   -2.2686   -1.2971   -0.3838 H   0  0  0  0  0  0  0  0  0  0  0  0
   -1.2199    0.5068    1.4322 H   0  0  0  0  0  0  0  0  0  0  0  0
   -2.3939    1.2576    0.1810 H   0  0  0  0  0  0  0  0  0  0  0  0
   -0.0363    1.8292   -0.8701 H   0  0  0  0  0  0  0  0  0  0  0  0
  1  2  1  0
  2  3  2  0
  3  4  1  0
  4  5  1  0
  5  6  1  0
  6  7  1  0
  6  2  1  0
  7  4  1  0
  1  8  1  0
  1  9  1  0
  1 10  1  0
  3 11  1  0
  4 12  1  0
  5 13  1  0
  5 14  1  0
  6 15  1  0
M  END
