
     RDKit          3D

 21 21  0  0  0  0  0  0  0  0999 V2000
   -0.4543    2.2038    0.1727 C   0  0  0  0  0  0  0  0  0  0  0  0
   -0.6747    0.7256   -0.0034 C   0  0  0  0  0  0  0  0  0  0  0  0
    0.3107   -0.0942   -0.3249 C   0  0  0  0  0  0  0  0  0  0  0  0
    1.7575    0.2846   -0.5606 C   0  0  0  0  0  0  0  0  0  0  0  0
    2.5843   -0.4473    0.4113 C   0  0  0  0  0  0  0  0  0  0  0  0
    2.6728   -0.0612    1.5502 O   0  0  0  0  0  0  0  0  0  0  0  0
   -0.1621   -1.4916   -0.4421 C   0  0  0  0  0  0  0  0  0  0  0  0
   -1.4817   -1.4559    0.2836 C   0  0  0  0  0  0  0  0  0  0  0  0
   -1.9516   -0.0089    0.1483 C   0  0  0  0  0  0  0  0  0  0  0  0
    0.2994    2.3820    0.9644 H   0  0  0  0  0  0  0  0  0  0  0  0
   -0.1496    2.6864   -0.7576 H   0  0  0  0  0  0  0  0  0  0  0  0
   -1.4036    2.6318    0.5209 H   0  0  0  0  0  0  0  0  0  0  0  0
    2.0339   -0.0481   -1.5793 H   0  0  0  0  0  0  0  0  0  0  0  0
    1.8622    1.3840   -0.4907 H   0  0  0  0  0  0  0  0  0  0  0  0
    3.1114   -1.3277    0.1095 H   0  0  0  0  0  0  0  0  0  0  0  0
   -0.3358   -1.7056   -1.5204 H   0  0  0  0  0  0  0  0  0  0  0  0
    0.5487   -2.2166    0.0032 H   0  0  0  0  0  0  0  0  0  0  0  0
   -1.3619   -1.7648    1.3261 H   0  0  0  0  0  0  0  0  0  0  0  0
   -2.1844   -2.0971   -0.2907 H   0  0  0  0  0  0  0  0  0  0  0  0
   -2.3665    0.2842    1.1481 H   0  0  0  0  0  0  0  0  0  0  0  0
   -2.6548    0.1366   -0.6686 H   0  0  0  0  0  0  0  0  0  0  0  0
  1  2  1  0
  2  3  2  0
  3  4  1  0
  4  5  1  0
  5  6  2  0
  3  7  1  0
  7  8  1  0
  8  9  1  0
  9  2  1  0
  1 10  1  0
  1 11  1  0
  1 12  1  0
  4 13  1  0
  4 14  1  0
  5 15  1  0
  7 16  1  0
  7 17  1  0
  8 18  1  0
  8 19  1  0
  9 20  1  0
  9 21  1  0
M  END
