
     RDKit          3D

 23 23  0  0  0  0  0  0  0  0999 V2000
   -1.2978    2.4567   -0.2450 C   0  0  0  0  0  0  0  0  0  0  0  0
   -0.6057    1.1668   -0.1184 C   0  0  0  0  0  0  0  0  0  0  0  0
   -1.1937    0.0712   -0.5165 C   0  0  0  0  0  0  0  0  0  0  0  0
   -0.4599   -1.2243   -0.3727 C   0  0  0  0  0  0  0  0  0  0  0  0
   -1.4820   -2.3174   -0.3392 C   0  0  0  0  0  0  0  0  0  0  0  0
    0.2468   -1.2122    0.8067 O   0  0  0  0  0  0  0  0  0  0  0  0
    1.1799   -0.2254    0.9236 C   0  0  0  0  0  0  0  0  0  0  0  0
    2.5171   -0.5778    0.2784 C   0  0  0  0  0  0  0  0  0  0  0  0
    0.7561    1.1242    0.4614 C   0  0  0  0  0  0  0  0  0  0  0  0
   -0.6059    3.3269   -0.1319 H   0  0  0  0  0  0  0  0  0  0  0  0
   -2.1383    2.4857    0.4789 H   0  0  0  0  0  0  0  0  0  0  0  0
   -1.7858    2.4943   -1.2634 H   0  0  0  0  0  0  0  0  0  0  0  0
   -2.1857    0.1344   -0.9346 H   0  0  0  0  0  0  0  0  0  0  0  0
    0.2069   -1.3629   -1.2412 H   0  0  0  0  0  0  0  0  0  0  0  0
   -2.0056   -2.3673   -1.3381 H   0  0  0  0  0  0  0  0  0  0  0  0
   -2.2796   -2.0036    0.3745 H   0  0  0  0  0  0  0  0  0  0  0  0
   -1.0760   -3.3104   -0.1323 H   0  0  0  0  0  0  0  0  0  0  0  0
    1.4074   -0.1316    2.0279 H   0  0  0  0  0  0  0  0  0  0  0  0
    2.3633   -1.3180   -0.5337 H   0  0  0  0  0  0  0  0  0  0  0  0
    3.2462   -0.9603    1.0205 H   0  0  0  0  0  0  0  0  0  0  0  0
    2.9926    0.3102   -0.1883 H   0  0  0  0  0  0  0  0  0  0  0  0
    0.7519    1.8949    1.2879 H   0  0  0  0  0  0  0  0  0  0  0  0
    1.4477    1.5457   -0.3047 H   0  0  0  0  0  0  0  0  0  0  0  0
  1  2  1  0
  2  3  2  0
  3  4  1  0
  4  5  1  0
  4  6  1  0
  6  7  1  0
  7  8  1  0
  7  9  1  0
  9  2  1  0
  1 10  1  0
  1 11  1  0
  1 12  1  0
  3 13  1  0
  4 14  1  0
  5 15  1  0
  5 16  1  0
  5 17  1  0
  7 18  1  0
  8 19  1  0
  8 20  1  0
  8 21  1  0
  9 22  1  0
  9 23  1  0
M  END
