
     RDKit          3D

 19 20  0  0  0  0  0  0  0  0999 V2000
    2.3685   -0.3547    0.7013 C   0  0  0  0  0  0  0  0  0  0  0  0
    0.9564   -0.3097    0.2867 C   0  0  0  0  0  0  0  0  0  0  0  0
   -0.0631   -1.1247    0.6375 C   0  0  0  0  0  0  0  0  0  0  0  0
   -1.2843   -0.7448   -0.1300 C   0  0  0  0  0  0  0  0  0  0  0  0
   -1.8136    0.5747    0.3905 C   0  0  0  0  0  0  0  0  0  0  0  0
   -0.6396    1.4526    0.1400 C   0  0  0  0  0  0  0  0  0  0  0  0
   -0.5138    2.5942    0.5052 O   0  0  0  0  0  0  0  0  0  0  0  0
    0.3588    0.6874   -0.6389 C   0  0  0  0  0  0  0  0  0  0  0  0
   -0.6013   -0.2349   -1.4149 C   0  0  0  0  0  0  0  0  0  0  0  0
    3.0351    0.0005   -0.1387 H   0  0  0  0  0  0  0  0  0  0  0  0
    2.5466    0.3541    1.5461 H   0  0  0  0  0  0  0  0  0  0  0  0
    2.6753   -1.3691    1.0286 H   0  0  0  0  0  0  0  0  0  0  0  0
    0.0786   -1.9017    1.3684 H   0  0  0  0  0  0  0  0  0  0  0  0
   -1.9978   -1.5165   -0.2918 H   0  0  0  0  0  0  0  0  0  0  0  0
   -2.6807    0.8431   -0.2684 H   0  0  0  0  0  0  0  0  0  0  0  0
   -2.0894    0.5296    1.4573 H   0  0  0  0  0  0  0  0  0  0  0  0
    1.0279    1.2370   -1.2501 H   0  0  0  0  0  0  0  0  0  0  0  0
   -0.0803   -1.0586   -1.8948 H   0  0  0  0  0  0  0  0  0  0  0  0
   -1.2833    0.3415   -2.0340 H   0  0  0  0  0  0  0  0  0  0  0  0
  1  2  1  0
  2  3  2  0
  3  4  1  0
  4  5  1  0
  5  6  1  0
  6  7  2  0
  6  8  1  0
  8  9  1  0
  8  2  1  0
  9  4  1  0
  1 10  1  0
  1 11  1  0
  1 12  1  0
  3 13  1  0
  4 14  1  0
  5 15  1  0
  5 16  1  0
  8 17  1  0
  9 18  1  0
  9 19  1  0
M  END
