
     RDKit          3D

 21 22  0  0  0  0  0  0  0  0999 V2000
    2.2856   -0.6386    0.2356 C   0  0  0  0  0  0  0  0  0  0  0  0
    0.8336   -0.5359   -0.0321 C   0  0  0  0  0  0  0  0  0  0  0  0
    0.2056    0.6221   -0.1658 C   0  0  0  0  0  0  0  0  0  0  0  0
    0.9016    1.9188   -0.0592 C   0  0  0  0  0  0  0  0  0  0  0  0
   -1.2482    0.5971   -0.4335 C   0  0  0  0  0  0  0  0  0  0  0  0
   -2.2520    0.5043    0.6389 C   0  0  0  0  0  0  0  0  0  0  0  0
   -1.8936   -0.7023   -0.1480 C   0  0  0  0  0  0  0  0  0  0  0  0
   -1.1295   -1.6375    0.5128 O   0  0  0  0  0  0  0  0  0  0  0  0
    0.0562   -1.8130   -0.1527 C   0  0  0  0  0  0  0  0  0  0  0  0
    2.6177    0.0906    1.0144 H   0  0  0  0  0  0  0  0  0  0  0  0
    2.5461   -1.6358    0.6242 H   0  0  0  0  0  0  0  0  0  0  0  0
    2.8126   -0.5013   -0.7209 H   0  0  0  0  0  0  0  0  0  0  0  0
    0.9201    2.3565   -1.0998 H   0  0  0  0  0  0  0  0  0  0  0  0
    1.9377    1.8617    0.2654 H   0  0  0  0  0  0  0  0  0  0  0  0
    0.3483    2.6586    0.5527 H   0  0  0  0  0  0  0  0  0  0  0  0
   -1.6125    1.1317   -1.3616 H   0  0  0  0  0  0  0  0  0  0  0  0
   -3.2675    0.8941    0.4716 H   0  0  0  0  0  0  0  0  0  0  0  0
   -1.9523    0.5403    1.7048 H   0  0  0  0  0  0  0  0  0  0  0  0
   -2.5602   -1.1178   -0.9134 H   0  0  0  0  0  0  0  0  0  0  0  0
    0.6135   -2.6341    0.2947 H   0  0  0  0  0  0  0  0  0  0  0  0
   -0.1627   -1.9596   -1.2282 H   0  0  0  0  0  0  0  0  0  0  0  0
  1  2  1  0
  2  3  2  0
  3  4  1  0
  3  5  1  0
  5  6  1  0
  6  7  1  0
  7  8  1  0
  8  9  1  0
  9  2  1  0
  7  5  1  0
  1 10  1  0
  1 11  1  0
  1 12  1  0
  4 13  1  0
  4 14  1  0
  4 15  1  0
  5 16  1  0
  6 17  1  0
  6 18  1  0
  7 19  1  0
  9 20  1  0
  9 21  1  0
M  END
