
     RDKit          3D

 21 22  0  0  0  0  0  0  0  0999 V2000
    3.0717   -0.3734    0.0140 C   0  0  0  0  0  0  0  0  0  0  0  0
    1.5998   -0.1167   -0.1734 C   0  0  0  0  0  0  0  0  0  0  0  0
    0.6836   -0.9383   -0.6279 C   0  0  0  0  0  0  0  0  0  0  0  0
   -0.6141   -0.2900   -0.6479 C   0  0  0  0  0  0  0  0  0  0  0  0
   -1.7372   -1.0418   -0.0091 C   0  0  0  0  0  0  0  0  0  0  0  0
   -2.6585    0.1553    0.3001 C   0  0  0  0  0  0  0  0  0  0  0  0
   -1.6349    1.1158    0.8281 C   0  0  0  0  0  0  0  0  0  0  0  0
   -0.4534    0.8663    0.2882 C   0  0  0  0  0  0  0  0  0  0  0  0
    1.0041    1.1947    0.1665 C   0  0  0  0  0  0  0  0  0  0  0  0
    3.3243   -0.1131    1.0714 H   0  0  0  0  0  0  0  0  0  0  0  0
    3.6782    0.3003   -0.6353 H   0  0  0  0  0  0  0  0  0  0  0  0
    3.2484   -1.4338   -0.1558 H   0  0  0  0  0  0  0  0  0  0  0  0
    0.8547   -1.9799   -0.9544 H   0  0  0  0  0  0  0  0  0  0  0  0
   -0.9104    0.0840   -1.6545 H   0  0  0  0  0  0  0  0  0  0  0  0
   -2.2263   -1.7776   -0.6448 H   0  0  0  0  0  0  0  0  0  0  0  0
   -1.4178   -1.4163    0.9809 H   0  0  0  0  0  0  0  0  0  0  0  0
   -3.1161    0.4968   -0.6368 H   0  0  0  0  0  0  0  0  0  0  0  0
   -3.3952   -0.1398    1.0488 H   0  0  0  0  0  0  0  0  0  0  0  0
   -1.8059    1.9135    1.5508 H   0  0  0  0  0  0  0  0  0  0  0  0
    1.0963    1.9211   -0.6436 H   0  0  0  0  0  0  0  0  0  0  0  0
    1.4085    1.5730    1.1303 H   0  0  0  0  0  0  0  0  0  0  0  0
  1  2  1  0
  2  3  2  0
  3  4  1  0
  4  5  1  0
  5  6  1  0
  6  7  1  0
  7  8  2  0
  8  9  1  0
  9  2  1  0
  8  4  1  0
  1 10  1  0
  1 11  1  0
  1 12  1  0
  3 13  1  0
  4 14  1  0
  5 15  1  0
  5 16  1  0
  6 17  1  0
  6 18  1  0
  7 19  1  0
  9 20  1  0
  9 21  1  0
M  END
