
     RDKit          3D

 19 21  0  0  0  0  0  0  0  0999 V2000
    2.6016    0.1000   -0.0427 C   0  0  0  0  0  0  0  0  0  0  0  0
    1.1239    0.1427   -0.2029 C   0  0  0  0  0  0  0  0  0  0  0  0
    0.3420    1.2051   -0.0856 C   0  0  0  0  0  0  0  0  0  0  0  0
   -1.0726    0.8667   -0.3127 C   0  0  0  0  0  0  0  0  0  0  0  0
   -1.7761    0.5889    0.9987 C   0  0  0  0  0  0  0  0  0  0  0  0
   -1.0764   -0.5276    1.4528 O   0  0  0  0  0  0  0  0  0  0  0  0
   -0.8632   -1.3617    0.3786 C   0  0  0  0  0  0  0  0  0  0  0  0
    0.3082   -1.0713   -0.5308 C   0  0  0  0  0  0  0  0  0  0  0  0
   -0.9939   -0.5235   -0.8783 C   0  0  0  0  0  0  0  0  0  0  0  0
    2.8489    0.0549    1.0354 H   0  0  0  0  0  0  0  0  0  0  0  0
    3.0335   -0.8014   -0.5210 H   0  0  0  0  0  0  0  0  0  0  0  0
    3.1104    0.9687   -0.5078 H   0  0  0  0  0  0  0  0  0  0  0  0
    0.7031    2.2112    0.1511 H   0  0  0  0  0  0  0  0  0  0  0  0
   -1.6112    1.5766   -0.9506 H   0  0  0  0  0  0  0  0  0  0  0  0
   -1.7160    1.4168    1.6971 H   0  0  0  0  0  0  0  0  0  0  0  0
   -2.8108    0.2609    0.7698 H   0  0  0  0  0  0  0  0  0  0  0  0
   -1.2709   -2.3848    0.3573 H   0  0  0  0  0  0  0  0  0  0  0  0
    0.7580   -1.8672   -1.1268 H   0  0  0  0  0  0  0  0  0  0  0  0
   -1.6383   -0.8549   -1.6815 H   0  0  0  0  0  0  0  0  0  0  0  0
  1  2  1  0
  2  3  2  0
  3  4  1  0
  4  5  1  0
  5  6  1  0
  6  7  1  0
  7  8  1  0
  8  9  1  0
  8  2  1  0
  9  4  1  0
  9  7  1  0
  1 10  1  0
  1 11  1  0
  1 12  1  0
  3 13  1  0
  4 14  1  0
  5 15  1  0
  5 16  1  0
  7 17  1  0
  8 18  1  0
  9 19  1  0
M  END
