
     RDKit          3D

 17 18  0  0  0  0  0  0  0  0999 V2000
    2.2306   -0.3420    0.3716 C   0  0  0  0  0  0  0  0  0  0  0  0
    0.8519    0.1584    0.1768 C   0  0  0  0  0  0  0  0  0  0  0  0
    0.0941    0.6951    1.1272 C   0  0  0  0  0  0  0  0  0  0  0  0
   -1.1994    1.0010    0.4913 C   0  0  0  0  0  0  0  0  0  0  0  0
   -0.7368    1.3683   -0.8031 O   0  0  0  0  0  0  0  0  0  0  0  0
    0.0074    0.1894   -1.0564 C   0  0  0  0  0  0  0  0  0  0  0  0
   -1.0896   -0.8520   -0.9351 C   0  0  0  0  0  0  0  0  0  0  0  0
   -1.9191   -0.2409    0.1305 C   0  0  0  0  0  0  0  0  0  0  0  0
   -2.9384   -0.6462    0.6011 O   0  0  0  0  0  0  0  0  0  0  0  0
    2.2407   -1.3228    0.8953 H   0  0  0  0  0  0  0  0  0  0  0  0
    2.6872   -0.4216   -0.6540 H   0  0  0  0  0  0  0  0  0  0  0  0
    2.8799    0.3838    0.9162 H   0  0  0  0  0  0  0  0  0  0  0  0
    0.3795    0.8670    2.1530 H   0  0  0  0  0  0  0  0  0  0  0  0
   -1.7902    1.7643    0.9555 H   0  0  0  0  0  0  0  0  0  0  0  0
    0.5427    0.1954   -1.9841 H   0  0  0  0  0  0  0  0  0  0  0  0
   -1.6117   -1.0327   -1.8703 H   0  0  0  0  0  0  0  0  0  0  0  0
   -0.6288   -1.7645   -0.5157 H   0  0  0  0  0  0  0  0  0  0  0  0
  1  2  1  0
  2  3  2  0
  3  4  1  0
  4  5  1  0
  5  6  1  0
  6  7  1  0
  7  8  1  0
  8  9  2  0
  6  2  1  0
  8  4  1  0
  1 10  1  0
  1 11  1  0
  1 12  1  0
  3 13  1  0
  4 14  1  0
  6 15  1  0
  7 16  1  0
  7 17  1  0
M  END
