
     RDKit          3D

 19 20  0  0  0  0  0  0  0  0999 V2000
    2.3594    0.1832    0.5599 C   0  0  0  0  0  0  0  0  0  0  0  0
    0.9525    0.2846    0.0835 C   0  0  0  0  0  0  0  0  0  0  0  0
    0.2811    1.4055   -0.0751 C   0  0  0  0  0  0  0  0  0  0  0  0
   -1.0905    1.1870   -0.5598 C   0  0  0  0  0  0  0  0  0  0  0  0
   -2.0963    1.2251    0.3921 O   0  0  0  0  0  0  0  0  0  0  0  0
   -2.0248   -0.1220    0.6755 C   0  0  0  0  0  0  0  0  0  0  0  0
   -1.2257   -0.3185   -0.5746 C   0  0  0  0  0  0  0  0  0  0  0  0
    0.1284   -0.8946   -0.2747 C   0  0  0  0  0  0  0  0  0  0  0  0
    0.6575   -1.6256   -1.3251 O   0  0  0  0  0  0  0  0  0  0  0  0
    2.8635   -0.6447    0.0430 H   0  0  0  0  0  0  0  0  0  0  0  0
    2.2834   -0.1061    1.6491 H   0  0  0  0  0  0  0  0  0  0  0  0
    2.8949    1.1508    0.4525 H   0  0  0  0  0  0  0  0  0  0  0  0
    0.6905    2.3879    0.1283 H   0  0  0  0  0  0  0  0  0  0  0  0
   -1.3451    1.6638   -1.5410 H   0  0  0  0  0  0  0  0  0  0  0  0
   -1.4600   -0.2921    1.6237 H   0  0  0  0  0  0  0  0  0  0  0  0
   -2.9617   -0.6955    0.6313 H   0  0  0  0  0  0  0  0  0  0  0  0
   -1.7442   -0.6758   -1.4592 H   0  0  0  0  0  0  0  0  0  0  0  0
    0.0658   -1.5405    0.6317 H   0  0  0  0  0  0  0  0  0  0  0  0
    0.7713   -2.5725   -1.0610 H   0  0  0  0  0  0  0  0  0  0  0  0
  1  2  1  0
  2  3  2  0
  3  4  1  0
  4  5  1  0
  5  6  1  0
  6  7  1  0
  7  8  1  0
  8  9  1  0
  8  2  1  0
  7  4  1  0
  1 10  1  0
  1 11  1  0
  1 12  1  0
  3 13  1  0
  4 14  1  0
  6 15  1  0
  6 16  1  0
  7 17  1  0
  8 18  1  0
  9 19  1  0
M  END
