
     RDKit          3D

 23 24  0  0  0  0  0  0  0  0999 V2000
   -1.5524   -1.6875    0.5958 C   0  0  0  0  0  0  0  0  0  0  0  0
   -0.7137   -0.6954   -0.1139 C   0  0  0  0  0  0  0  0  0  0  0  0
   -0.6752    0.6250   -0.0295 C   0  0  0  0  0  0  0  0  0  0  0  0
   -1.5212    1.4435    0.8591 C   0  0  0  0  0  0  0  0  0  0  0  0
    0.2957    1.1014   -0.9711 C   0  0  0  0  0  0  0  0  0  0  0  0
    1.6868    1.2463   -1.0394 C   0  0  0  0  0  0  0  0  0  0  0  0
    1.3371   -0.0416   -0.6466 C   0  0  0  0  0  0  0  0  0  0  0  0
    1.5523   -0.3208    0.8615 C   0  0  0  0  0  0  0  0  0  0  0  0
    0.3719   -1.0900   -1.1243 C   0  0  0  0  0  0  0  0  0  0  0  0
   -0.9742   -2.5195    1.0297 H   0  0  0  0  0  0  0  0  0  0  0  0
   -2.2808   -2.0841   -0.1501 H   0  0  0  0  0  0  0  0  0  0  0  0
   -2.0709   -1.1678    1.4272 H   0  0  0  0  0  0  0  0  0  0  0  0
   -1.9423    0.8881    1.7124 H   0  0  0  0  0  0  0  0  0  0  0  0
   -2.3302    1.8904    0.2252 H   0  0  0  0  0  0  0  0  0  0  0  0
   -0.9015    2.3166    1.1976 H   0  0  0  0  0  0  0  0  0  0  0  0
   -0.1854    1.0422   -2.0075 H   0  0  0  0  0  0  0  0  0  0  0  0
    2.2103    1.3850   -2.0257 H   0  0  0  0  0  0  0  0  0  0  0  0
    2.1643    1.9640   -0.3095 H   0  0  0  0  0  0  0  0  0  0  0  0
    1.9405   -1.3659    0.8879 H   0  0  0  0  0  0  0  0  0  0  0  0
    2.2810    0.3711    1.2965 H   0  0  0  0  0  0  0  0  0  0  0  0
    0.5820   -0.3018    1.3987 H   0  0  0  0  0  0  0  0  0  0  0  0
   -0.0054   -0.9035   -2.1477 H   0  0  0  0  0  0  0  0  0  0  0  0
    0.7312   -2.0955   -0.9264 H   0  0  0  0  0  0  0  0  0  0  0  0
  1  2  1  0
  2  3  2  0
  3  4  1  0
  3  5  1  0
  5  6  1  0
  6  7  1  0
  7  8  1  0
  7  9  1  0
  9  2  1  0
  7  5  1  0
  1 10  1  0
  1 11  1  0
  1 12  1  0
  4 13  1  0
  4 14  1  0
  4 15  1  0
  5 16  1  0
  6 17  1  0
  6 18  1  0
  8 19  1  0
  8 20  1  0
  8 21  1  0
  9 22  1  0
  9 23  1  0
M  END
