
     RDKit          3D

 25 25  0  0  0  0  0  0  0  0999 V2000
    3.4602    0.1587   -0.0523 C   0  0  0  0  0  0  0  0  0  0  0  0
    2.0384   -0.2591   -0.1954 C   0  0  0  0  0  0  0  0  0  0  0  0
    1.5577   -1.4861   -0.2245 C   0  0  0  0  0  0  0  0  0  0  0  0
    0.0866   -1.4647   -0.3807 C   0  0  0  0  0  0  0  0  0  0  0  0
   -0.2928   -0.0979    0.1108 C   0  0  0  0  0  0  0  0  0  0  0  0
   -1.5316    0.3478   -0.6246 C   0  0  0  0  0  0  0  0  0  0  0  0
   -1.9116    1.7127   -0.1348 C   0  0  0  0  0  0  0  0  0  0  0  0
   -2.6443   -0.6473   -0.3696 C   0  0  0  0  0  0  0  0  0  0  0  0
    0.9044    0.7286   -0.3317 C   0  0  0  0  0  0  0  0  0  0  0  0
    4.0156    0.0528   -1.0242 H   0  0  0  0  0  0  0  0  0  0  0  0
    3.9724   -0.4719    0.7222 H   0  0  0  0  0  0  0  0  0  0  0  0
    3.5674    1.1947    0.2776 H   0  0  0  0  0  0  0  0  0  0  0  0
    2.1404   -2.3854   -0.1467 H   0  0  0  0  0  0  0  0  0  0  0  0
   -0.1806   -1.5344   -1.4619 H   0  0  0  0  0  0  0  0  0  0  0  0
   -0.4093   -2.2802    0.2003 H   0  0  0  0  0  0  0  0  0  0  0  0
   -0.4005   -0.0344    1.2068 H   0  0  0  0  0  0  0  0  0  0  0  0
   -1.2743    0.3325   -1.7159 H   0  0  0  0  0  0  0  0  0  0  0  0
   -1.1082    2.1503    0.4896 H   0  0  0  0  0  0  0  0  0  0  0  0
   -2.2333    2.3955   -0.9531 H   0  0  0  0  0  0  0  0  0  0  0  0
   -2.8215    1.5959    0.5214 H   0  0  0  0  0  0  0  0  0  0  0  0
   -3.6232   -0.1630   -0.5884 H   0  0  0  0  0  0  0  0  0  0  0  0
   -2.6799   -0.9858    0.6805 H   0  0  0  0  0  0  0  0  0  0  0  0
   -2.5204   -1.5201   -1.0523 H   0  0  0  0  0  0  0  0  0  0  0  0
    0.8289    1.0558   -1.3811 H   0  0  0  0  0  0  0  0  0  0  0  0
    1.0595    1.6051    0.3267 H   0  0  0  0  0  0  0  0  0  0  0  0
  1  2  1  0
  2  3  2  0
  3  4  1  0
  4  5  1  0
  5  6  1  0
  6  7  1  0
  6  8  1  0
  5  9  1  0
  9  2  1  0
  1 10  1  0
  1 11  1  0
  1 12  1  0
  3 13  1  0
  4 14  1  0
  4 15  1  0
  5 16  1  0
  6 17  1  0
  7 18  1  0
  7 19  1  0
  7 20  1  0
  8 21  1  0
  8 22  1  0
  8 23  1  0
  9 24  1  0
  9 25  1  0
M  END
