
     RDKit          3D

 19 19  0  0  0  0  0  0  0  0999 V2000
    2.4675    0.1396   -0.0015 C   0  0  0  0  0  0  0  0  0  0  0  0
    0.9784    0.0461   -0.0637 C   0  0  0  0  0  0  0  0  0  0  0  0
    0.4822   -1.0956   -0.5196 C   0  0  0  0  0  0  0  0  0  0  0  0
   -0.9880   -1.3522   -0.6453 C   0  0  0  0  0  0  0  0  0  0  0  0
   -1.7089   -0.6866    0.4799 C   0  0  0  0  0  0  0  0  0  0  0  0
   -2.0330    0.5982    0.3787 O   0  0  0  0  0  0  0  0  0  0  0  0
   -1.1393    1.5463    0.0506 C   0  0  0  0  0  0  0  0  0  0  0  0
    0.2804    1.2603    0.3994 C   0  0  0  0  0  0  0  0  0  0  0  0
    0.9163    2.0754    1.1128 O   0  0  0  0  0  0  0  0  0  0  0  0
    2.9060   -0.8182   -0.3349 H   0  0  0  0  0  0  0  0  0  0  0  0
    2.7181    0.2662    1.0769 H   0  0  0  0  0  0  0  0  0  0  0  0
    2.8452    1.0129   -0.5685 H   0  0  0  0  0  0  0  0  0  0  0  0
    1.1729   -1.8746   -0.8130 H   0  0  0  0  0  0  0  0  0  0  0  0
   -1.3392   -0.8909   -1.6048 H   0  0  0  0  0  0  0  0  0  0  0  0
   -1.2166   -2.4215   -0.6337 H   0  0  0  0  0  0  0  0  0  0  0  0
   -2.6289   -1.2808    0.6930 H   0  0  0  0  0  0  0  0  0  0  0  0
   -1.0663   -0.8376    1.3986 H   0  0  0  0  0  0  0  0  0  0  0  0
   -1.2495    1.8252   -1.0194 H   0  0  0  0  0  0  0  0  0  0  0  0
   -1.3973    2.4878    0.6145 H   0  0  0  0  0  0  0  0  0  0  0  0
  1  2  1  0
  2  3  2  0
  3  4  1  0
  4  5  1  0
  5  6  1  0
  6  7  1  0
  7  8  1  0
  8  9  2  0
  8  2  1  0
  1 10  1  0
  1 11  1  0
  1 12  1  0
  3 13  1  0
  4 14  1  0
  4 15  1  0
  5 16  1  0
  5 17  1  0
  7 18  1  0
  7 19  1  0
M  END
