
     RDKit          3D

 21 21  0  0  0  0  0  0  0  0999 V2000
    2.6576   -0.5776   -0.6910 C   0  0  0  0  0  0  0  0  0  0  0  0
    1.3313   -0.2118   -0.1266 C   0  0  0  0  0  0  0  0  0  0  0  0
    0.2211   -0.1629   -0.8560 C   0  0  0  0  0  0  0  0  0  0  0  0
   -0.9427    0.2369    0.0072 C   0  0  0  0  0  0  0  0  0  0  0  0
   -1.8249    1.1980   -0.7331 C   0  0  0  0  0  0  0  0  0  0  0  0
   -1.6777   -1.0421    0.3480 C   0  0  0  0  0  0  0  0  0  0  0  0
   -0.2665    0.8300    1.1687 C   0  0  0  0  0  0  0  0  0  0  0  0
   -0.6836    1.7048    1.8896 O   0  0  0  0  0  0  0  0  0  0  0  0
    1.0410    0.1459    1.2933 C   0  0  0  0  0  0  0  0  0  0  0  0
    2.8449   -0.1125   -1.6815 H   0  0  0  0  0  0  0  0  0  0  0  0
    3.4765   -0.2301   -0.0285 H   0  0  0  0  0  0  0  0  0  0  0  0
    2.6625   -1.6888   -0.8094 H   0  0  0  0  0  0  0  0  0  0  0  0
    0.1047   -0.3688   -1.9178 H   0  0  0  0  0  0  0  0  0  0  0  0
   -2.8876    0.9043   -0.4892 H   0  0  0  0  0  0  0  0  0  0  0  0
   -1.6663    1.1799   -1.8221 H   0  0  0  0  0  0  0  0  0  0  0  0
   -1.6291    2.2147   -0.3771 H   0  0  0  0  0  0  0  0  0  0  0  0
   -2.3293   -1.2650   -0.5266 H   0  0  0  0  0  0  0  0  0  0  0  0
   -2.2693   -0.9208    1.2686 H   0  0  0  0  0  0  0  0  0  0  0  0
   -0.9315   -1.8595    0.4330 H   0  0  0  0  0  0  0  0  0  0  0  0
    1.8263    0.7921    1.7232 H   0  0  0  0  0  0  0  0  0  0  0  0
    0.9430   -0.7667    1.9275 H   0  0  0  0  0  0  0  0  0  0  0  0
  1  2  1  0
  2  3  2  0
  3  4  1  0
  4  5  1  0
  4  6  1  0
  4  7  1  0
  7  8  2  0
  7  9  1  0
  9  2  1  0
  1 10  1  0
  1 11  1  0
  1 12  1  0
  3 13  1  0
  5 14  1  0
  5 15  1  0
  5 16  1  0
  6 17  1  0
  6 18  1  0
  6 19  1  0
  9 20  1  0
  9 21  1  0
M  END
