
     RDKit          3D

 23 23  0  0  0  0  0  0  0  0999 V2000
   -2.4415   -0.7463    0.1009 C   0  0  0  0  0  0  0  0  0  0  0  0
   -0.9857   -0.5239   -0.0836 C   0  0  0  0  0  0  0  0  0  0  0  0
   -0.5444    0.7220   -0.1323 C   0  0  0  0  0  0  0  0  0  0  0  0
   -1.4913    1.8400   -0.0047 C   0  0  0  0  0  0  0  0  0  0  0  0
    0.8906    0.9924   -0.3138 C   0  0  0  0  0  0  0  0  0  0  0  0
    1.7342   -0.2004   -0.5456 C   0  0  0  0  0  0  0  0  0  0  0  0
    2.6096   -0.4357    0.6913 C   0  0  0  0  0  0  0  0  0  0  0  0
    1.0846   -1.3322   -0.9433 O   0  0  0  0  0  0  0  0  0  0  0  0
   -0.0375   -1.6540   -0.2115 C   0  0  0  0  0  0  0  0  0  0  0  0
   -2.5647   -1.6093    0.7895 H   0  0  0  0  0  0  0  0  0  0  0  0
   -2.8552   -0.9842   -0.9204 H   0  0  0  0  0  0  0  0  0  0  0  0
   -2.9490    0.1612    0.4606 H   0  0  0  0  0  0  0  0  0  0  0  0
   -2.3328    1.6881   -0.7434 H   0  0  0  0  0  0  0  0  0  0  0  0
   -1.0561    2.8176   -0.2576 H   0  0  0  0  0  0  0  0  0  0  0  0
   -1.9026    1.9460    1.0330 H   0  0  0  0  0  0  0  0  0  0  0  0
    0.9742    1.7458   -1.1483 H   0  0  0  0  0  0  0  0  0  0  0  0
    1.2309    1.5553    0.6009 H   0  0  0  0  0  0  0  0  0  0  0  0
    2.4711    0.0557   -1.3616 H   0  0  0  0  0  0  0  0  0  0  0  0
    2.0774   -1.1233    1.3605 H   0  0  0  0  0  0  0  0  0  0  0  0
    3.6118   -0.8215    0.3894 H   0  0  0  0  0  0  0  0  0  0  0  0
    2.7812    0.5219    1.2246 H   0  0  0  0  0  0  0  0  0  0  0  0
    0.2215   -2.1085    0.7858 H   0  0  0  0  0  0  0  0  0  0  0  0
   -0.5260   -2.5066   -0.7705 H   0  0  0  0  0  0  0  0  0  0  0  0
  1  2  1  0
  2  3  2  0
  3  4  1  0
  3  5  1  0
  5  6  1  0
  6  7  1  0
  6  8  1  0
  8  9  1  0
  9  2  1  0
  1 10  1  0
  1 11  1  0
  1 12  1  0
  4 13  1  0
  4 14  1  0
  4 15  1  0
  5 16  1  0
  5 17  1  0
  6 18  1  0
  7 19  1  0
  7 20  1  0
  7 21  1  0
  9 22  1  0
  9 23  1  0
M  END
