
     RDKit          3D

 23 23  0  0  0  0  0  0  0  0999 V2000
   -1.8119    1.6083    0.4409 C   0  0  0  0  0  0  0  0  0  0  0  0
   -0.7575    0.6949   -0.0925 C   0  0  0  0  0  0  0  0  0  0  0  0
    0.4924    1.1361   -0.1040 C   0  0  0  0  0  0  0  0  0  0  0  0
    1.5448    0.2292   -0.6344 C   0  0  0  0  0  0  0  0  0  0  0  0
    2.8464    0.3716    0.1660 C   0  0  0  0  0  0  0  0  0  0  0  0
    1.0749   -1.1817   -0.4310 C   0  0  0  0  0  0  0  0  0  0  0  0
   -0.1611   -1.4405   -0.9879 O   0  0  0  0  0  0  0  0  0  0  0  0
   -1.1785   -0.6387   -0.5714 C   0  0  0  0  0  0  0  0  0  0  0  0
   -2.0133   -1.3514    0.4887 C   0  0  0  0  0  0  0  0  0  0  0  0
   -1.5240    2.6885    0.3025 H   0  0  0  0  0  0  0  0  0  0  0  0
   -2.7680    1.4025   -0.1187 H   0  0  0  0  0  0  0  0  0  0  0  0
   -1.9528    1.3551    1.5089 H   0  0  0  0  0  0  0  0  0  0  0  0
    0.7090    2.1362    0.2703 H   0  0  0  0  0  0  0  0  0  0  0  0
    1.7257    0.4120   -1.7086 H   0  0  0  0  0  0  0  0  0  0  0  0
    2.6182   -0.0571    1.1637 H   0  0  0  0  0  0  0  0  0  0  0  0
    3.2007    1.4078    0.1937 H   0  0  0  0  0  0  0  0  0  0  0  0
    3.5624   -0.3348   -0.3183 H   0  0  0  0  0  0  0  0  0  0  0  0
    1.1569   -1.4737    0.6201 H   0  0  0  0  0  0  0  0  0  0  0  0
    1.8103   -1.8362   -0.9867 H   0  0  0  0  0  0  0  0  0  0  0  0
   -1.8648   -0.4737   -1.4307 H   0  0  0  0  0  0  0  0  0  0  0  0
   -2.6641   -2.1015   -0.0078 H   0  0  0  0  0  0  0  0  0  0  0  0
   -1.3762   -1.9218    1.1983 H   0  0  0  0  0  0  0  0  0  0  0  0
   -2.6697   -0.6310    1.0391 H   0  0  0  0  0  0  0  0  0  0  0  0
  1  2  1  0
  2  3  2  0
  3  4  1  0
  4  5  1  0
  4  6  1  0
  6  7  1  0
  7  8  1  0
  8  9  1  0
  8  2  1  0
  1 10  1  0
  1 11  1  0
  1 12  1  0
  3 13  1  0
  4 14  1  0
  5 15  1  0
  5 16  1  0
  5 17  1  0
  6 18  1  0
  6 19  1  0
  8 20  1  0
  9 21  1  0
  9 22  1  0
  9 23  1  0
M  END
