
     RDKit          3D

 21 21  0  0  0  0  0  0  0  0999 V2000
    2.5008    0.0211   -0.5367 C   0  0  0  0  0  0  0  0  0  0  0  0
    1.0459    0.1147   -0.3083 C   0  0  0  0  0  0  0  0  0  0  0  0
    0.4661    1.2995   -0.2945 C   0  0  0  0  0  0  0  0  0  0  0  0
   -0.9793    1.5322   -0.0770 C   0  0  0  0  0  0  0  0  0  0  0  0
   -1.6925    0.2064   -0.2405 C   0  0  0  0  0  0  0  0  0  0  0  0
   -3.0369    0.2886    0.0682 O   0  0  0  0  0  0  0  0  0  0  0  0
   -0.9665   -0.7859    0.6715 C   0  0  0  0  0  0  0  0  0  0  0  0
    0.3018   -1.1681   -0.1019 C   0  0  0  0  0  0  0  0  0  0  0  0
    1.0400   -2.1252    0.5398 O   0  0  0  0  0  0  0  0  0  0  0  0
    2.8118    0.8672   -1.1997 H   0  0  0  0  0  0  0  0  0  0  0  0
    2.8304   -0.9226   -0.9800 H   0  0  0  0  0  0  0  0  0  0  0  0
    2.9894    0.2181    0.4626 H   0  0  0  0  0  0  0  0  0  0  0  0
    1.0884    2.1706   -0.4535 H   0  0  0  0  0  0  0  0  0  0  0  0
   -1.1839    1.8737    0.9692 H   0  0  0  0  0  0  0  0  0  0  0  0
   -1.3894    2.2776   -0.8114 H   0  0  0  0  0  0  0  0  0  0  0  0
   -1.6219   -0.1080   -1.3085 H   0  0  0  0  0  0  0  0  0  0  0  0
   -3.3340   -0.3377    0.7525 H   0  0  0  0  0  0  0  0  0  0  0  0
   -1.5847   -1.6594    0.9022 H   0  0  0  0  0  0  0  0  0  0  0  0
   -0.6085   -0.2750    1.5891 H   0  0  0  0  0  0  0  0  0  0  0  0
   -0.0607   -1.5960   -1.0596 H   0  0  0  0  0  0  0  0  0  0  0  0
    1.3837   -1.8918    1.4165 H   0  0  0  0  0  0  0  0  0  0  0  0
  1  2  1  0
  2  3  2  0
  3  4  1  0
  4  5  1  0
  5  6  1  0
  5  7  1  0
  7  8  1  0
  8  9  1  0
  8  2  1  0
  1 10  1  0
  1 11  1  0
  1 12  1  0
  3 13  1  0
  4 14  1  0
  4 15  1  0
  5 16  1  0
  6 17  1  0
  7 18  1  0
  7 19  1  0
  8 20  1  0
  9 21  1  0
M  END
