
     RDKit          3D

 23 24  0  0  0  0  0  0  0  0999 V2000
    2.5206   -0.8501    0.4106 C   0  0  0  0  0  0  0  0  0  0  0  0
    1.1730   -0.3069    0.2294 C   0  0  0  0  0  0  0  0  0  0  0  0
    0.1797   -1.1466   -0.1470 C   0  0  0  0  0  0  0  0  0  0  0  0
   -1.2162   -0.7152   -0.3603 C   0  0  0  0  0  0  0  0  0  0  0  0
   -2.1165   -1.2641    0.7158 C   0  0  0  0  0  0  0  0  0  0  0  0
   -1.3812    0.7880   -0.5350 C   0  0  0  0  0  0  0  0  0  0  0  0
   -0.0637    1.3011   -0.9185 C   0  0  0  0  0  0  0  0  0  0  0  0
    0.8433    2.2312   -0.3742 C   0  0  0  0  0  0  0  0  0  0  0  0
    0.7455    1.0615    0.4052 C   0  0  0  0  0  0  0  0  0  0  0  0
    2.5277   -1.9520    0.4487 H   0  0  0  0  0  0  0  0  0  0  0  0
    2.9044   -0.5168    1.4165 H   0  0  0  0  0  0  0  0  0  0  0  0
    3.2265   -0.5465   -0.3899 H   0  0  0  0  0  0  0  0  0  0  0  0
    0.3700   -2.2095   -0.3150 H   0  0  0  0  0  0  0  0  0  0  0  0
   -1.5451   -1.1715   -1.3293 H   0  0  0  0  0  0  0  0  0  0  0  0
   -1.6809   -2.2639    0.9942 H   0  0  0  0  0  0  0  0  0  0  0  0
   -2.1818   -0.6132    1.6084 H   0  0  0  0  0  0  0  0  0  0  0  0
   -3.1065   -1.4923    0.2687 H   0  0  0  0  0  0  0  0  0  0  0  0
   -1.7492    1.1570    0.4615 H   0  0  0  0  0  0  0  0  0  0  0  0
   -2.2028    0.9769   -1.2389 H   0  0  0  0  0  0  0  0  0  0  0  0
    0.3016    0.7441   -1.8360 H   0  0  0  0  0  0  0  0  0  0  0  0
    1.8182    2.4271   -0.9107 H   0  0  0  0  0  0  0  0  0  0  0  0
    0.4638    3.1965    0.0225 H   0  0  0  0  0  0  0  0  0  0  0  0
    0.1697    1.1652    1.3732 H   0  0  0  0  0  0  0  0  0  0  0  0
  1  2  1  0
  2  3  2  0
  3  4  1  0
  4  5  1  0
  4  6  1  0
  6  7  1  0
  7  8  1  0
  8  9  1  0
  9  2  1  0
  9  7  1  0
  1 10  1  0
  1 11  1  0
  1 12  1  0
  3 13  1  0
  4 14  1  0
  5 15  1  0
  5 16  1  0
  5 17  1  0
  6 18  1  0
  6 19  1  0
  7 20  1  0
  8 21  1  0
  8 22  1  0
  9 23  1  0
M  END
