
     RDKit          3D

 19 20  0  0  0  0  0  0  0  0999 V2000
   -2.5076    0.4025    0.5891 C   0  0  0  0  0  0  0  0  0  0  0  0
   -1.0830    0.2293    0.3007 C   0  0  0  0  0  0  0  0  0  0  0  0
   -0.0018    0.9546    0.6261 C   0  0  0  0  0  0  0  0  0  0  0  0
    1.1061    0.2097   -0.0133 C   0  0  0  0  0  0  0  0  0  0  0  0
    2.4451    0.6028    0.1024 C   0  0  0  0  0  0  0  0  0  0  0  0
    2.7940    1.7532    0.2160 O   0  0  0  0  0  0  0  0  0  0  0  0
    0.7168   -1.2312    0.3502 C   0  0  0  0  0  0  0  0  0  0  0  0
   -0.4904   -0.8918   -0.4859 C   0  0  0  0  0  0  0  0  0  0  0  0
    0.4954   -0.1119   -1.3681 C   0  0  0  0  0  0  0  0  0  0  0  0
   -2.7831    1.4239    0.9024 H   0  0  0  0  0  0  0  0  0  0  0  0
   -3.0907    0.1209   -0.3358 H   0  0  0  0  0  0  0  0  0  0  0  0
   -2.8223   -0.3572    1.3619 H   0  0  0  0  0  0  0  0  0  0  0  0
    0.0871    1.8623    1.2073 H   0  0  0  0  0  0  0  0  0  0  0  0
    3.2643   -0.1390    0.0950 H   0  0  0  0  0  0  0  0  0  0  0  0
    0.4676   -1.2598    1.4193 H   0  0  0  0  0  0  0  0  0  0  0  0
    1.3934   -1.9889   -0.0446 H   0  0  0  0  0  0  0  0  0  0  0  0
   -1.0891   -1.6303   -0.9171 H   0  0  0  0  0  0  0  0  0  0  0  0
    0.0007    0.7749   -1.7776 H   0  0  0  0  0  0  0  0  0  0  0  0
    1.0975   -0.7240   -2.0293 H   0  0  0  0  0  0  0  0  0  0  0  0
  1  2  1  0
  2  3  2  0
  3  4  1  0
  4  5  1  0
  5  6  2  0
  4  7  1  0
  7  8  1  0
  8  9  1  0
  8  2  1  0
  9  4  1  0
  1 10  1  0
  1 11  1  0
  1 12  1  0
  3 13  1  0
  5 14  1  0
  7 15  1  0
  7 16  1  0
  8 17  1  0
  9 18  1  0
  9 19  1  0
M  END
