
     RDKit          3D

 19 19  0  0  0  0  0  0  0  0999 V2000
    1.8248   -1.1719    0.0547 C   0  0  0  0  0  0  0  0  0  0  0  0
    0.8314   -0.0767   -0.0368 C   0  0  0  0  0  0  0  0  0  0  0  0
   -0.4904   -0.1366   -0.1731 C   0  0  0  0  0  0  0  0  0  0  0  0
   -1.2890   -1.4118   -0.2672 C   0  0  0  0  0  0  0  0  0  0  0  0
   -2.1836   -1.3863    0.8221 O   0  0  0  0  0  0  0  0  0  0  0  0
   -1.0439    1.2460   -0.2170 C   0  0  0  0  0  0  0  0  0  0  0  0
    0.0139    1.9955    0.4695 C   0  0  0  0  0  0  0  0  0  0  0  0
   -0.1273    2.9039    1.2192 O   0  0  0  0  0  0  0  0  0  0  0  0
    1.2617    1.3720    0.0215 C   0  0  0  0  0  0  0  0  0  0  0  0
    2.4065   -0.9914    0.9976 H   0  0  0  0  0  0  0  0  0  0  0  0
    2.5746   -0.9882   -0.7664 H   0  0  0  0  0  0  0  0  0  0  0  0
    1.3757   -2.1680    0.0060 H   0  0  0  0  0  0  0  0  0  0  0  0
   -0.6542   -2.2914   -0.1579 H   0  0  0  0  0  0  0  0  0  0  0  0
   -1.8992   -1.4496   -1.1774 H   0  0  0  0  0  0  0  0  0  0  0  0
   -3.1062   -1.5053    0.5407 H   0  0  0  0  0  0  0  0  0  0  0  0
   -2.0347    1.3175    0.2635 H   0  0  0  0  0  0  0  0  0  0  0  0
   -1.0571    1.5769   -1.2730 H   0  0  0  0  0  0  0  0  0  0  0  0
    2.1139    1.5054    0.6996 H   0  0  0  0  0  0  0  0  0  0  0  0
    1.4830    1.6600   -1.0256 H   0  0  0  0  0  0  0  0  0  0  0  0
  1  2  1  0
  2  3  2  0
  3  4  1  0
  4  5  1  0
  3  6  1  0
  6  7  1  0
  7  8  2  0
  7  9  1  0
  9  2  1  0
  1 10  1  0
  1 11  1  0
  1 12  1  0
  4 13  1  0
  4 14  1  0
  5 15  1  0
  6 16  1  0
  6 17  1  0
  9 18  1  0
  9 19  1  0
M  END
