
     RDKit          3D

 21 21  0  0  0  0  0  0  0  0999 V2000
   -2.0192    1.1205    0.0247 C   0  0  0  0  0  0  0  0  0  0  0  0
   -0.6451    0.6389    0.2052 C   0  0  0  0  0  0  0  0  0  0  0  0
   -0.3937   -0.6439    0.0105 C   0  0  0  0  0  0  0  0  0  0  0  0
   -1.6076   -1.4215   -0.3785 C   0  0  0  0  0  0  0  0  0  0  0  0
    0.8348   -1.4494    0.1033 C   0  0  0  0  0  0  0  0  0  0  0  0
    2.0602   -0.7961   -0.3492 C   0  0  0  0  0  0  0  0  0  0  0  0
    2.4256    0.4624   -0.2338 C   0  0  0  0  0  0  0  0  0  0  0  0
    1.6736    1.5415    0.3920 C   0  0  0  0  0  0  0  0  0  0  0  0
    0.3455    1.6380    0.5918 C   0  0  0  0  0  0  0  0  0  0  0  0
   -2.4870    0.7720   -0.9175 H   0  0  0  0  0  0  0  0  0  0  0  0
   -2.6391    0.8567    0.9163 H   0  0  0  0  0  0  0  0  0  0  0  0
   -2.0027    2.2273   -0.0319 H   0  0  0  0  0  0  0  0  0  0  0  0
   -1.4804   -2.4337    0.0611 H   0  0  0  0  0  0  0  0  0  0  0  0
   -2.5243   -1.0032    0.0858 H   0  0  0  0  0  0  0  0  0  0  0  0
   -1.6888   -1.5583   -1.4668 H   0  0  0  0  0  0  0  0  0  0  0  0
    1.0188   -1.8182    1.1539 H   0  0  0  0  0  0  0  0  0  0  0  0
    0.7116   -2.3926   -0.4983 H   0  0  0  0  0  0  0  0  0  0  0  0
    2.7972   -1.4289   -0.8628 H   0  0  0  0  0  0  0  0  0  0  0  0
    3.3927    0.7527   -0.6438 H   0  0  0  0  0  0  0  0  0  0  0  0
    2.2394    2.4014    0.7578 H   0  0  0  0  0  0  0  0  0  0  0  0
   -0.0113    2.5343    1.0802 H   0  0  0  0  0  0  0  0  0  0  0  0
  1  2  1  0
  2  3  2  0
  3  4  1  0
  3  5  1  0
  5  6  1  0
  6  7  2  0
  7  8  1  0
  8  9  2  0
  9  2  1  0
  1 10  1  0
  1 11  1  0
  1 12  1  0
  4 13  1  0
  4 14  1  0
  4 15  1  0
  5 16  1  0
  5 17  1  0
  6 18  1  0
  7 19  1  0
  8 20  1  0
  9 21  1  0
M  END
