
     RDKit          3D

 18 18  0  0  0  0  0  0  0  0999 V2000
    2.4802    0.0856   -0.0910 C   0  0  0  0  0  0  0  0  0  0  0  0
    1.0067    0.0590    0.1461 C   0  0  0  0  0  0  0  0  0  0  0  0
    0.4292   -1.1250    0.0851 C   0  0  0  0  0  0  0  0  0  0  0  0
   -0.9948   -1.4858    0.2721 C   0  0  0  0  0  0  0  0  0  0  0  0
   -1.9335   -0.5762   -0.4189 C   0  0  0  0  0  0  0  0  0  0  0  0
   -1.9176    0.7442   -0.4925 C   0  0  0  0  0  0  0  0  0  0  0  0
   -0.9209    1.6199    0.1215 C   0  0  0  0  0  0  0  0  0  0  0  0
    0.3633    1.3475    0.4121 C   0  0  0  0  0  0  0  0  0  0  0  0
    2.7664   -0.7499   -0.7606 H   0  0  0  0  0  0  0  0  0  0  0  0
    3.0067    0.0024    0.8825 H   0  0  0  0  0  0  0  0  0  0  0  0
    2.7938    1.0148   -0.6063 H   0  0  0  0  0  0  0  0  0  0  0  0
    1.1249   -1.9447   -0.1376 H   0  0  0  0  0  0  0  0  0  0  0  0
   -1.1797   -1.3327    1.3801 H   0  0  0  0  0  0  0  0  0  0  0  0
   -1.1846   -2.5473    0.0031 H   0  0  0  0  0  0  0  0  0  0  0  0
   -2.7775   -1.0724   -0.9562 H   0  0  0  0  0  0  0  0  0  0  0  0
   -2.7094    1.2413   -1.0533 H   0  0  0  0  0  0  0  0  0  0  0  0
   -1.2952    2.6007    0.3552 H   0  0  0  0  0  0  0  0  0  0  0  0
    0.9419    2.1186    0.8584 H   0  0  0  0  0  0  0  0  0  0  0  0
  1  2  1  0
  2  3  2  0
  3  4  1  0
  4  5  1  0
  5  6  2  0
  6  7  1  0
  7  8  2  0
  8  2  1  0
  1  9  1  0
  1 10  1  0
  1 11  1  0
  3 12  1  0
  4 13  1  0
  4 14  1  0
  5 15  1  0
  6 16  1  0
  7 17  1  0
  8 18  1  0
M  END
