
     RDKit          3D

 21 21  0  0  0  0  0  0  0  0999 V2000
    2.4590    0.1984   -0.3714 C   0  0  0  0  0  0  0  0  0  0  0  0
    1.0571   -0.2323   -0.1023 C   0  0  0  0  0  0  0  0  0  0  0  0
    0.7344   -1.4099    0.3917 C   0  0  0  0  0  0  0  0  0  0  0  0
   -0.7323   -1.4816    0.5227 C   0  0  0  0  0  0  0  0  0  0  0  0
   -1.2180   -0.5199   -0.5347 C   0  0  0  0  0  0  0  0  0  0  0  0
   -2.5061   -0.0570   -0.2900 O   0  0  0  0  0  0  0  0  0  0  0  0
   -0.1846    0.5913   -0.3573 C   0  0  0  0  0  0  0  0  0  0  0  0
   -0.5039    1.4961    0.7845 C   0  0  0  0  0  0  0  0  0  0  0  0
   -0.0916    1.2816   -1.5458 O   0  0  0  0  0  0  0  0  0  0  0  0
    2.7376   -0.1537   -1.3666 H   0  0  0  0  0  0  0  0  0  0  0  0
    3.1705   -0.2291    0.3641 H   0  0  0  0  0  0  0  0  0  0  0  0
    2.5373    1.3053   -0.2612 H   0  0  0  0  0  0  0  0  0  0  0  0
    1.4213   -2.2277    0.6712 H   0  0  0  0  0  0  0  0  0  0  0  0
   -0.9715   -1.1028    1.5560 H   0  0  0  0  0  0  0  0  0  0  0  0
   -1.1375   -2.5003    0.3677 H   0  0  0  0  0  0  0  0  0  0  0  0
   -1.1120   -0.9891   -1.5141 H   0  0  0  0  0  0  0  0  0  0  0  0
   -2.9591   -0.6090    0.3980 H   0  0  0  0  0  0  0  0  0  0  0  0
    0.4401    1.7194    1.3411 H   0  0  0  0  0  0  0  0  0  0  0  0
   -0.8574    2.5042    0.4224 H   0  0  0  0  0  0  0  0  0  0  0  0
   -1.2764    1.1088    1.4662 H   0  0  0  0  0  0  0  0  0  0  0  0
   -1.0069    1.3075   -1.9420 H   0  0  0  0  0  0  0  0  0  0  0  0
  1  2  1  0
  2  3  2  0
  3  4  1  0
  4  5  1  0
  5  6  1  0
  5  7  1  0
  7  8  1  0
  7  9  1  0
  7  2  1  0
  1 10  1  0
  1 11  1  0
  1 12  1  0
  3 13  1  0
  4 14  1  0
  4 15  1  0
  5 16  1  0
  6 17  1  0
  8 18  1  0
  8 19  1  0
  8 20  1  0
  9 21  1  0
M  END
