
     RDKit          3D

 19 19  0  0  0  0  0  0  0  0999 V2000
   -2.0810   -0.9064    0.1196 C   0  0  0  0  0  0  0  0  0  0  0  0
   -0.6578   -0.4853    0.2043 C   0  0  0  0  0  0  0  0  0  0  0  0
   -0.3115    0.8004    0.0548 C   0  0  0  0  0  0  0  0  0  0  0  0
   -1.1794    1.9358   -0.1971 C   0  0  0  0  0  0  0  0  0  0  0  0
   -2.4220    1.7268   -0.2939 O   0  0  0  0  0  0  0  0  0  0  0  0
    1.1666    0.9229    0.1881 C   0  0  0  0  0  0  0  0  0  0  0  0
    1.6817   -0.4606    0.0031 C   0  0  0  0  0  0  0  0  0  0  0  0
    2.0790   -0.7394   -1.3085 O   0  0  0  0  0  0  0  0  0  0  0  0
    0.5342   -1.3218    0.4464 C   0  0  0  0  0  0  0  0  0  0  0  0
   -2.4573   -0.6015   -0.8858 H   0  0  0  0  0  0  0  0  0  0  0  0
   -2.6932   -0.3433    0.8536 H   0  0  0  0  0  0  0  0  0  0  0  0
   -2.1684   -1.9998    0.2369 H   0  0  0  0  0  0  0  0  0  0  0  0
   -0.7640    2.9118   -0.2951 H   0  0  0  0  0  0  0  0  0  0  0  0
    1.3852    1.3235    1.1989 H   0  0  0  0  0  0  0  0  0  0  0  0
    1.5464    1.6368   -0.5946 H   0  0  0  0  0  0  0  0  0  0  0  0
    2.5827   -0.6044    0.6512 H   0  0  0  0  0  0  0  0  0  0  0  0
    2.5576    0.0240   -1.7078 H   0  0  0  0  0  0  0  0  0  0  0  0
    0.6510   -1.5826    1.5203 H   0  0  0  0  0  0  0  0  0  0  0  0
    0.5502   -2.2367   -0.1943 H   0  0  0  0  0  0  0  0  0  0  0  0
  1  2  1  0
  2  3  2  0
  3  4  1  0
  4  5  2  0
  3  6  1  0
  6  7  1  0
  7  8  1  0
  7  9  1  0
  9  2  1  0
  1 10  1  0
  1 11  1  0
  1 12  1  0
  4 13  1  0
  6 14  1  0
  6 15  1  0
  7 16  1  0
  8 17  1  0
  9 18  1  0
  9 19  1  0
M  END
