
     RDKit          3D

 19 20  0  0  0  0  0  0  0  0999 V2000
   -1.8018   -1.1867    0.1979 C   0  0  0  0  0  0  0  0  0  0  0  0
   -0.4383   -0.6356    0.0613 C   0  0  0  0  0  0  0  0  0  0  0  0
    0.5840   -1.4058    0.3571 C   0  0  0  0  0  0  0  0  0  0  0  0
    1.9663   -0.8961    0.2351 C   0  0  0  0  0  0  0  0  0  0  0  0
    2.0014    0.0290   -0.8276 O   0  0  0  0  0  0  0  0  0  0  0  0
    1.2081    1.1309   -0.5514 C   0  0  0  0  0  0  0  0  0  0  0  0
   -0.2201    0.7423   -0.3944 C   0  0  0  0  0  0  0  0  0  0  0  0
   -1.1744    1.7557    0.0936 C   0  0  0  0  0  0  0  0  0  0  0  0
   -1.0814    1.3153   -1.3241 O   0  0  0  0  0  0  0  0  0  0  0  0
   -1.7731   -2.3043    0.1875 H   0  0  0  0  0  0  0  0  0  0  0  0
   -2.4385   -0.9014   -0.6679 H   0  0  0  0  0  0  0  0  0  0  0  0
   -2.2791   -0.9049    1.1683 H   0  0  0  0  0  0  0  0  0  0  0  0
    0.4132   -2.4185    0.6918 H   0  0  0  0  0  0  0  0  0  0  0  0
    2.3039   -0.3692    1.1578 H   0  0  0  0  0  0  0  0  0  0  0  0
    2.6924   -1.6985   -0.0622 H   0  0  0  0  0  0  0  0  0  0  0  0
    1.3676    1.8504   -1.3921 H   0  0  0  0  0  0  0  0  0  0  0  0
    1.6194    1.6554    0.3596 H   0  0  0  0  0  0  0  0  0  0  0  0
   -2.1704    1.4733    0.4631 H   0  0  0  0  0  0  0  0  0  0  0  0
   -0.7792    2.7688    0.2464 H   0  0  0  0  0  0  0  0  0  0  0  0
  1  2  1  0
  2  3  2  0
  3  4  1  0
  4  5  1  0
  5  6  1  0
  6  7  1  0
  7  8  1  0
  8  9  1  0
  7  2  1  0
  9  7  1  0
  1 10  1  0
  1 11  1  0
  1 12  1  0
  3 13  1  0
  4 14  1  0
  4 15  1  0
  6 16  1  0
  6 17  1  0
  8 18  1  0
  8 19  1  0
M  END
