
     RDKit          3D

 23 23  0  0  0  0  0  0  0  0999 V2000
    2.8296   -1.1409   -0.0354 C   0  0  0  0  0  0  0  0  0  0  0  0
    1.5806   -0.3101    0.1311 C   0  0  0  0  0  0  0  0  0  0  0  0
    0.4985   -0.5947    0.8003 C   0  0  0  0  0  0  0  0  0  0  0  0
   -0.4738    0.4942    0.6999 C   0  0  0  0  0  0  0  0  0  0  0  0
   -1.5336    0.2842   -0.3398 C   0  0  0  0  0  0  0  0  0  0  0  0
   -2.3511   -0.9633   -0.0775 C   0  0  0  0  0  0  0  0  0  0  0  0
   -3.2976   -1.0624   -1.0928 O   0  0  0  0  0  0  0  0  0  0  0  0
    0.3605    1.6906    0.2690 C   0  0  0  0  0  0  0  0  0  0  0  0
    1.4552    1.0092   -0.5078 C   0  0  0  0  0  0  0  0  0  0  0  0
    2.9892   -1.3788   -1.1034 H   0  0  0  0  0  0  0  0  0  0  0  0
    3.6691   -0.4843    0.2763 H   0  0  0  0  0  0  0  0  0  0  0  0
    2.8384   -2.0109    0.6275 H   0  0  0  0  0  0  0  0  0  0  0  0
    0.3244   -1.5230    1.3688 H   0  0  0  0  0  0  0  0  0  0  0  0
   -0.9746    0.6707    1.6707 H   0  0  0  0  0  0  0  0  0  0  0  0
   -2.2536    1.1442   -0.2364 H   0  0  0  0  0  0  0  0  0  0  0  0
   -1.1625    0.3143   -1.3708 H   0  0  0  0  0  0  0  0  0  0  0  0
   -2.8322   -0.8073    0.9294 H   0  0  0  0  0  0  0  0  0  0  0  0
   -1.7365   -1.8808   -0.1033 H   0  0  0  0  0  0  0  0  0  0  0  0
   -4.0842   -0.4708   -0.9335 H   0  0  0  0  0  0  0  0  0  0  0  0
    0.7862    2.2250    1.1321 H   0  0  0  0  0  0  0  0  0  0  0  0
   -0.1924    2.3523   -0.4338 H   0  0  0  0  0  0  0  0  0  0  0  0
    2.3877    1.6001   -0.4161 H   0  0  0  0  0  0  0  0  0  0  0  0
    1.1728    0.8426   -1.5751 H   0  0  0  0  0  0  0  0  0  0  0  0
  1  2  1  0
  2  3  2  0
  3  4  1  0
  4  5  1  0
  5  6  1  0
  6  7  1  0
  4  8  1  0
  8  9  1  0
  9  2  1  0
  1 10  1  0
  1 11  1  0
  1 12  1  0
  3 13  1  0
  4 14  1  0
  5 15  1  0
  5 16  1  0
  6 17  1  0
  6 18  1  0
  7 19  1  0
  8 20  1  0
  8 21  1  0
  9 22  1  0
  9 23  1  0
M  END
