
     RDKit          3D

 23 23  0  0  0  0  0  0  0  0999 V2000
    2.6172   -0.7737   -0.2344 C   0  0  0  0  0  0  0  0  0  0  0  0
    1.3253   -0.1174    0.1146 C   0  0  0  0  0  0  0  0  0  0  0  0
    0.2642   -0.9005    0.1757 C   0  0  0  0  0  0  0  0  0  0  0  0
   -1.1533   -0.5029    0.5036 C   0  0  0  0  0  0  0  0  0  0  0  0
   -2.0289   -1.7234    0.5249 C   0  0  0  0  0  0  0  0  0  0  0  0
   -1.6168    0.4128   -0.5642 C   0  0  0  0  0  0  0  0  0  0  0  0
   -0.8804    1.6640   -0.7067 C   0  0  0  0  0  0  0  0  0  0  0  0
    0.3142    2.0922   -0.3552 C   0  0  0  0  0  0  0  0  0  0  0  0
    1.3576    1.3477    0.3588 C   0  0  0  0  0  0  0  0  0  0  0  0
    3.2663   -0.6724    0.6842 H   0  0  0  0  0  0  0  0  0  0  0  0
    2.4580   -1.8454   -0.3979 H   0  0  0  0  0  0  0  0  0  0  0  0
    3.0848   -0.3006   -1.1118 H   0  0  0  0  0  0  0  0  0  0  0  0
    0.4588   -1.9290   -0.0355 H   0  0  0  0  0  0  0  0  0  0  0  0
   -1.1823    0.0187    1.4719 H   0  0  0  0  0  0  0  0  0  0  0  0
   -1.8969   -2.2132    1.5316 H   0  0  0  0  0  0  0  0  0  0  0  0
   -3.0891   -1.4760    0.4360 H   0  0  0  0  0  0  0  0  0  0  0  0
   -1.6767   -2.4831   -0.2091 H   0  0  0  0  0  0  0  0  0  0  0  0
   -1.6174   -0.1046   -1.5592 H   0  0  0  0  0  0  0  0  0  0  0  0
   -2.6931    0.6784   -0.3536 H   0  0  0  0  0  0  0  0  0  0  0  0
   -1.4537    2.4476   -1.2352 H   0  0  0  0  0  0  0  0  0  0  0  0
    0.5891    3.1128   -0.6098 H   0  0  0  0  0  0  0  0  0  0  0  0
    1.1863    1.4913    1.4569 H   0  0  0  0  0  0  0  0  0  0  0  0
    2.3669    1.7768    0.1143 H   0  0  0  0  0  0  0  0  0  0  0  0
  1  2  1  0
  2  3  2  0
  3  4  1  0
  4  5  1  0
  4  6  1  0
  6  7  1  0
  7  8  2  0
  8  9  1  0
  9  2  1  0
  1 10  1  0
  1 11  1  0
  1 12  1  0
  3 13  1  0
  4 14  1  0
  5 15  1  0
  5 16  1  0
  5 17  1  0
  6 18  1  0
  6 19  1  0
  7 20  1  0
  8 21  1  0
  9 22  1  0
  9 23  1  0
M  END
