
     RDKit          3D

 21 21  0  0  0  0  0  0  0  0999 V2000
   -0.9047    1.9003    0.3746 C   0  0  0  0  0  0  0  0  0  0  0  0
   -0.7159    0.4378    0.1523 C   0  0  0  0  0  0  0  0  0  0  0  0
   -1.6704   -0.4345    0.4476 C   0  0  0  0  0  0  0  0  0  0  0  0
   -1.2170   -1.8300    0.1266 C   0  0  0  0  0  0  0  0  0  0  0  0
    0.2932   -1.6444    0.2932 C   0  0  0  0  0  0  0  0  0  0  0  0
    0.4310   -0.2981   -0.3861 C   0  0  0  0  0  0  0  0  0  0  0  0
    0.2139   -0.4828   -1.7558 O   0  0  0  0  0  0  0  0  0  0  0  0
    1.7593    0.3319   -0.1001 C   0  0  0  0  0  0  0  0  0  0  0  0
    1.9271    1.5695   -0.6666 O   0  0  0  0  0  0  0  0  0  0  0  0
   -1.9652    2.1862    0.2593 H   0  0  0  0  0  0  0  0  0  0  0  0
   -0.6123    2.0988    1.4300 H   0  0  0  0  0  0  0  0  0  0  0  0
   -0.3118    2.5094   -0.3180 H   0  0  0  0  0  0  0  0  0  0  0  0
   -2.6557   -0.2389    0.8620 H   0  0  0  0  0  0  0  0  0  0  0  0
   -1.3717   -2.0682   -0.9522 H   0  0  0  0  0  0  0  0  0  0  0  0
   -1.6286   -2.5682    0.8073 H   0  0  0  0  0  0  0  0  0  0  0  0
    0.5795   -1.5243    1.3414 H   0  0  0  0  0  0  0  0  0  0  0  0
    0.8541   -2.4451   -0.2257 H   0  0  0  0  0  0  0  0  0  0  0  0
   -0.0243    0.4020   -2.1393 H   0  0  0  0  0  0  0  0  0  0  0  0
    1.8651    0.4414    0.9980 H   0  0  0  0  0  0  0  0  0  0  0  0
    2.5436   -0.4012   -0.4181 H   0  0  0  0  0  0  0  0  0  0  0  0
    2.6107    2.0581   -0.1306 H   0  0  0  0  0  0  0  0  0  0  0  0
  1  2  1  0
  2  3  2  0
  3  4  1  0
  4  5  1  0
  5  6  1  0
  6  7  1  0
  6  8  1  0
  8  9  1  0
  6  2  1  0
  1 10  1  0
  1 11  1  0
  1 12  1  0
  3 13  1  0
  4 14  1  0
  4 15  1  0
  5 16  1  0
  5 17  1  0
  7 18  1  0
  8 19  1  0
  8 20  1  0
  9 21  1  0
M  END
