
     RDKit          3D

 19 21  0  0  0  0  0  0  0  0999 V2000
   -2.5150    0.4849    0.0430 C   0  0  0  0  0  0  0  0  0  0  0  0
   -1.1571   -0.0594   -0.0490 C   0  0  0  0  0  0  0  0  0  0  0  0
   -0.1082    0.6986   -0.0297 C   0  0  0  0  0  0  0  0  0  0  0  0
    0.8184    1.8080    0.0311 C   0  0  0  0  0  0  0  0  0  0  0  0
    2.0064    1.2282    0.3450 C   0  0  0  0  0  0  0  0  0  0  0  0
    1.8203   -0.2610    0.4601 C   0  0  0  0  0  0  0  0  0  0  0  0
    0.8594   -1.2722    0.3596 C   0  0  0  0  0  0  0  0  0  0  0  0
   -0.6448   -1.4852    0.1274 C   0  0  0  0  0  0  0  0  0  0  0  0
    0.9378   -0.3242   -0.7258 C   0  0  0  0  0  0  0  0  0  0  0  0
   -2.5617    1.5560    0.2306 H   0  0  0  0  0  0  0  0  0  0  0  0
   -3.0854   -0.0085    0.8564 H   0  0  0  0  0  0  0  0  0  0  0  0
   -3.0631    0.2832   -0.9190 H   0  0  0  0  0  0  0  0  0  0  0  0
    0.5035    2.8082   -0.1387 H   0  0  0  0  0  0  0  0  0  0  0  0
    2.9009    1.7977    0.4805 H   0  0  0  0  0  0  0  0  0  0  0  0
    2.8972   -0.6761    0.2140 H   0  0  0  0  0  0  0  0  0  0  0  0
    1.2913   -2.3369    0.3128 H   0  0  0  0  0  0  0  0  0  0  0  0
   -1.1509   -1.9718    0.9467 H   0  0  0  0  0  0  0  0  0  0  0  0
   -0.8211   -1.9825   -0.8190 H   0  0  0  0  0  0  0  0  0  0  0  0
    1.0721   -0.2870   -1.7258 H   0  0  0  0  0  0  0  0  0  0  0  0
  1  2  1  0
  2  3  2  0
  3  4  1  0
  4  5  2  0
  5  6  1  0
  6  7  1  0
  7  8  1  0
  7  9  1  0
  8  2  1  0
  9  3  1  0
  9  6  1  0
  1 10  1  0
  1 11  1  0
  1 12  1  0
  4 13  1  0
  5 14  1  0
  6 15  1  0
  7 16  1  0
  8 17  1  0
  8 18  1  0
  9 19  1  0
M  END
