
     RDKit          3D

 19 20  0  0  0  0  0  0  0  0999 V2000
   -2.7297    0.3714   -0.3569 C   0  0  0  0  0  0  0  0  0  0  0  0
   -1.3387   -0.0842   -0.3875 C   0  0  0  0  0  0  0  0  0  0  0  0
   -0.3850    0.2145   -1.2902 C   0  0  0  0  0  0  0  0  0  0  0  0
    0.7695   -0.6076   -0.9162 C   0  0  0  0  0  0  0  0  0  0  0  0
    0.1178   -1.7326   -0.3488 O   0  0  0  0  0  0  0  0  0  0  0  0
   -0.6562   -0.9887    0.5800 C   0  0  0  0  0  0  0  0  0  0  0  0
    0.3972   -0.2133    1.2530 C   0  0  0  0  0  0  0  0  0  0  0  0
    1.3469   -0.0231    0.3376 C   0  0  0  0  0  0  0  0  0  0  0  0
    2.6537    0.6157    0.5335 C   0  0  0  0  0  0  0  0  0  0  0  0
   -2.9405    0.8561    0.6303 H   0  0  0  0  0  0  0  0  0  0  0  0
   -3.3861   -0.5064   -0.4954 H   0  0  0  0  0  0  0  0  0  0  0  0
   -2.8904    1.1657   -1.1139 H   0  0  0  0  0  0  0  0  0  0  0  0
   -0.4566    0.9134   -2.1162 H   0  0  0  0  0  0  0  0  0  0  0  0
    1.4787   -0.8478   -1.6748 H   0  0  0  0  0  0  0  0  0  0  0  0
   -1.2940   -1.5830    1.1904 H   0  0  0  0  0  0  0  0  0  0  0  0
    0.3674    0.1164    2.2861 H   0  0  0  0  0  0  0  0  0  0  0  0
    3.2968   -0.0526    1.1422 H   0  0  0  0  0  0  0  0  0  0  0  0
    3.1267    0.8235   -0.4636 H   0  0  0  0  0  0  0  0  0  0  0  0
    2.5224    1.5628    1.1009 H   0  0  0  0  0  0  0  0  0  0  0  0
  1  2  1  0
  2  3  2  0
  3  4  1  0
  4  5  1  0
  5  6  1  0
  6  7  1  0
  7  8  2  0
  8  9  1  0
  6  2  1  0
  8  4  1  0
  1 10  1  0
  1 11  1  0
  1 12  1  0
  3 13  1  0
  4 14  1  0
  6 15  1  0
  7 16  1  0
  9 17  1  0
  9 18  1  0
  9 19  1  0
M  END
