
     RDKit          3D

 16 16  0  0  0  0  0  0  0  0999 V2000
    2.1691    0.2945    0.0532 C   0  0  0  0  0  0  0  0  0  0  0  0
    0.6899    0.1348   -0.0680 C   0  0  0  0  0  0  0  0  0  0  0  0
   -0.1732    1.1334    0.0774 C   0  0  0  0  0  0  0  0  0  0  0  0
   -1.5831    0.6220   -0.1076 C   0  0  0  0  0  0  0  0  0  0  0  0
   -1.3588   -0.8130    0.4027 C   0  0  0  0  0  0  0  0  0  0  0  0
   -0.0890   -1.0891   -0.3694 C   0  0  0  0  0  0  0  0  0  0  0  0
    2.6568   -0.6865    0.0064 H   0  0  0  0  0  0  0  0  0  0  0  0
    2.4271    0.7853    1.0267 H   0  0  0  0  0  0  0  0  0  0  0  0
    2.4775    0.9963   -0.7426 H   0  0  0  0  0  0  0  0  0  0  0  0
    0.1084    2.1655    0.2978 H   0  0  0  0  0  0  0  0  0  0  0  0
   -2.3089    1.1656    0.4863 H   0  0  0  0  0  0  0  0  0  0  0  0
   -1.7938    0.5638   -1.1897 H   0  0  0  0  0  0  0  0  0  0  0  0
   -1.1289   -0.7228    1.4821 H   0  0  0  0  0  0  0  0  0  0  0  0
   -2.1849   -1.4723    0.1582 H   0  0  0  0  0  0  0  0  0  0  0  0
    0.4075   -2.0179   -0.0573 H   0  0  0  0  0  0  0  0  0  0  0  0
   -0.3158   -1.0595   -1.4563 H   0  0  0  0  0  0  0  0  0  0  0  0
  1  2  1  0
  2  3  2  0
  3  4  1  0
  4  5  1  0
  5  6  1  0
  6  2  1  0
  1  7  1  0
  1  8  1  0
  1  9  1  0
  3 10  1  0
  4 11  1  0
  4 12  1  0
  5 13  1  0
  5 14  1  0
  6 15  1  0
  6 16  1  0
M  END
