
     RDKit          3D

 21 23  0  0  0  0  0  0  0  0999 V2000
    2.5067    0.0938    0.3149 C   0  0  0  0  0  0  0  0  0  0  0  0
    1.0674   -0.2510    0.1824 C   0  0  0  0  0  0  0  0  0  0  0  0
    0.2831   -0.6923    1.1922 C   0  0  0  0  0  0  0  0  0  0  0  0
   -1.0844   -0.8916    0.6267 C   0  0  0  0  0  0  0  0  0  0  0  0
   -0.6883   -1.3861   -0.7771 C   0  0  0  0  0  0  0  0  0  0  0  0
    0.2360   -0.1812   -1.0421 C   0  0  0  0  0  0  0  0  0  0  0  0
   -0.7925    0.9266   -0.9175 C   0  0  0  0  0  0  0  0  0  0  0  0
   -0.8995    1.6850    0.3477 C   0  0  0  0  0  0  0  0  0  0  0  0
   -1.6873    0.4375    0.2660 C   0  0  0  0  0  0  0  0  0  0  0  0
    2.8332    0.0117    1.3609 H   0  0  0  0  0  0  0  0  0  0  0  0
    2.6877    1.1528   -0.0061 H   0  0  0  0  0  0  0  0  0  0  0  0
    3.0981   -0.5844   -0.3329 H   0  0  0  0  0  0  0  0  0  0  0  0
    0.6544   -0.8465    2.1956 H   0  0  0  0  0  0  0  0  0  0  0  0
   -1.7114   -1.5724    1.1612 H   0  0  0  0  0  0  0  0  0  0  0  0
   -0.1444   -2.3230   -0.7457 H   0  0  0  0  0  0  0  0  0  0  0  0
   -1.5332   -1.3351   -1.4624 H   0  0  0  0  0  0  0  0  0  0  0  0
    0.7507   -0.2314   -1.9754 H   0  0  0  0  0  0  0  0  0  0  0  0
   -1.3630    1.1733   -1.8168 H   0  0  0  0  0  0  0  0  0  0  0  0
   -1.4501    2.6324    0.3025 H   0  0  0  0  0  0  0  0  0  0  0  0
    0.0089    1.6912    1.0108 H   0  0  0  0  0  0  0  0  0  0  0  0
   -2.7722    0.4906    0.1151 H   0  0  0  0  0  0  0  0  0  0  0  0
  1  2  1  0
  2  3  2  0
  3  4  1  0
  4  5  1  0
  5  6  1  0
  6  7  1  0
  7  8  1  0
  8  9  1  0
  6  2  1  0
  9  7  1  0
  9  4  1  0
  1 10  1  0
  1 11  1  0
  1 12  1  0
  3 13  1  0
  4 14  1  0
  5 15  1  0
  5 16  1  0
  6 17  1  0
  7 18  1  0
  8 19  1  0
  8 20  1  0
  9 21  1  0
M  END
