
     RDKit          3D

 23 24  0  0  0  0  0  0  0  0999 V2000
   -1.1980    2.2899   -0.1088 C   0  0  0  0  0  0  0  0  0  0  0  0
   -1.0774    0.8238    0.0160 C   0  0  0  0  0  0  0  0  0  0  0  0
   -1.9263   -0.0271   -0.5383 C   0  0  0  0  0  0  0  0  0  0  0  0
   -1.5585   -1.4249   -0.2478 C   0  0  0  0  0  0  0  0  0  0  0  0
   -0.6823   -1.2932    0.9728 C   0  0  0  0  0  0  0  0  0  0  0  0
   -0.0461    0.0901    0.7484 C   0  0  0  0  0  0  0  0  0  0  0  0
    1.2053   -0.1571   -0.0616 C   0  0  0  0  0  0  0  0  0  0  0  0
    2.2955   -0.9255    0.6932 C   0  0  0  0  0  0  0  0  0  0  0  0
    2.4708    0.5135    0.2105 C   0  0  0  0  0  0  0  0  0  0  0  0
   -1.4839    2.5775   -1.1560 H   0  0  0  0  0  0  0  0  0  0  0  0
   -2.0665    2.6381    0.5226 H   0  0  0  0  0  0  0  0  0  0  0  0
   -0.3085    2.8331    0.2472 H   0  0  0  0  0  0  0  0  0  0  0  0
   -2.8137    0.2190   -1.1502 H   0  0  0  0  0  0  0  0  0  0  0  0
   -2.4627   -2.0444   -0.0425 H   0  0  0  0  0  0  0  0  0  0  0  0
   -0.9855   -1.8049   -1.1182 H   0  0  0  0  0  0  0  0  0  0  0  0
   -1.3339   -1.2621    1.8682 H   0  0  0  0  0  0  0  0  0  0  0  0
    0.0734   -2.0845    0.9959 H   0  0  0  0  0  0  0  0  0  0  0  0
    0.1488    0.5156    1.7403 H   0  0  0  0  0  0  0  0  0  0  0  0
    0.9956   -0.5768   -1.0659 H   0  0  0  0  0  0  0  0  0  0  0  0
    2.1397   -1.0711    1.7999 H   0  0  0  0  0  0  0  0  0  0  0  0
    2.8400   -1.7154    0.1598 H   0  0  0  0  0  0  0  0  0  0  0  0
    2.5908    1.2726    0.9791 H   0  0  0  0  0  0  0  0  0  0  0  0
    3.1836    0.6137   -0.6443 H   0  0  0  0  0  0  0  0  0  0  0  0
  1  2  1  0
  2  3  2  0
  3  4  1  0
  4  5  1  0
  5  6  1  0
  6  7  1  0
  7  8  1  0
  8  9  1  0
  6  2  1  0
  9  7  1  0
  1 10  1  0
  1 11  1  0
  1 12  1  0
  3 13  1  0
  4 14  1  0
  4 15  1  0
  5 16  1  0
  5 17  1  0
  6 18  1  0
  7 19  1  0
  8 20  1  0
  8 21  1  0
  9 22  1  0
  9 23  1  0
M  END
