
     RDKit          3D

 21 22  0  0  0  0  0  0  0  0999 V2000
    2.5432    1.0301   -0.2684 C   0  0  0  0  0  0  0  0  0  0  0  0
    1.1960    0.4382   -0.1638 C   0  0  0  0  0  0  0  0  0  0  0  0
    0.0284    1.0501   -0.3548 C   0  0  0  0  0  0  0  0  0  0  0  0
   -1.0473    0.0848   -0.0724 C   0  0  0  0  0  0  0  0  0  0  0  0
   -2.3588    0.6122    0.2576 C   0  0  0  0  0  0  0  0  0  0  0  0
   -0.9911   -0.9495   -1.1406 C   0  0  0  0  0  0  0  0  0  0  0  0
    0.1983   -1.5607   -1.0096 C   0  0  0  0  0  0  0  0  0  0  0  0
    0.8637   -0.9873    0.1823 C   0  0  0  0  0  0  0  0  0  0  0  0
   -0.3735   -0.7174    1.0616 C   0  0  0  0  0  0  0  0  0  0  0  0
    2.7090    1.8583    0.4472 H   0  0  0  0  0  0  0  0  0  0  0  0
    3.3075    0.2624   -0.0576 H   0  0  0  0  0  0  0  0  0  0  0  0
    2.6798    1.4335   -1.2745 H   0  0  0  0  0  0  0  0  0  0  0  0
   -0.1126    2.0761   -0.6633 H   0  0  0  0  0  0  0  0  0  0  0  0
   -2.4233    0.8576    1.3356 H   0  0  0  0  0  0  0  0  0  0  0  0
   -3.1312   -0.1727    0.0688 H   0  0  0  0  0  0  0  0  0  0  0  0
   -2.5826    1.4952   -0.3719 H   0  0  0  0  0  0  0  0  0  0  0  0
   -1.7086   -1.2163   -1.8989 H   0  0  0  0  0  0  0  0  0  0  0  0
    0.6333   -2.3359   -1.6359 H   0  0  0  0  0  0  0  0  0  0  0  0
    1.6285   -1.5466    0.6456 H   0  0  0  0  0  0  0  0  0  0  0  0
   -0.9230   -1.6303    1.2722 H   0  0  0  0  0  0  0  0  0  0  0  0
   -0.1358   -0.0819    1.9148 H   0  0  0  0  0  0  0  0  0  0  0  0
  1  2  1  0
  2  3  2  0
  3  4  1  0
  4  5  1  0
  4  6  1  0
  6  7  2  0
  7  8  1  0
  8  9  1  0
  8  2  1  0
  9  4  1  0
  1 10  1  0
  1 11  1  0
  1 12  1  0
  3 13  1  0
  5 14  1  0
  5 15  1  0
  5 16  1  0
  6 17  1  0
  7 18  1  0
  8 19  1  0
  9 20  1  0
  9 21  1  0
M  END
