
     RDKit          3D

 19 19  0  0  0  0  0  0  0  0999 V2000
    2.5346    0.4552    0.1105 C   0  0  0  0  0  0  0  0  0  0  0  0
    1.1334   -0.0780    0.1068 C   0  0  0  0  0  0  0  0  0  0  0  0
    0.7889   -1.3547    0.0231 C   0  0  0  0  0  0  0  0  0  0  0  0
   -0.7141   -1.5079    0.0479 C   0  0  0  0  0  0  0  0  0  0  0  0
   -1.1324   -0.1384   -0.4652 C   0  0  0  0  0  0  0  0  0  0  0  0
   -2.4701    0.2575   -0.0268 C   0  0  0  0  0  0  0  0  0  0  0  0
   -2.6715    0.7447    1.0656 O   0  0  0  0  0  0  0  0  0  0  0  0
   -0.1001    0.7232    0.2069 C   0  0  0  0  0  0  0  0  0  0  0  0
   -0.0043    1.9044   -0.5169 O   0  0  0  0  0  0  0  0  0  0  0  0
    2.9410    0.2776    1.1249 H   0  0  0  0  0  0  0  0  0  0  0  0
    3.1503   -0.0084   -0.6926 H   0  0  0  0  0  0  0  0  0  0  0  0
    2.4988    1.5336   -0.0887 H   0  0  0  0  0  0  0  0  0  0  0  0
    1.5162   -2.1640   -0.0525 H   0  0  0  0  0  0  0  0  0  0  0  0
   -0.9647   -2.3032   -0.6821 H   0  0  0  0  0  0  0  0  0  0  0  0
   -1.0932   -1.7262    1.0444 H   0  0  0  0  0  0  0  0  0  0  0  0
   -0.9892   -0.1291   -1.5609 H   0  0  0  0  0  0  0  0  0  0  0  0
   -3.3116    0.1172   -0.6856 H   0  0  0  0  0  0  0  0  0  0  0  0
   -0.3742    0.9021    1.2692 H   0  0  0  0  0  0  0  0  0  0  0  0
   -0.7378    2.4943   -0.2278 H   0  0  0  0  0  0  0  0  0  0  0  0
  1  2  1  0
  2  3  2  0
  3  4  1  0
  4  5  1  0
  5  6  1  0
  6  7  2  0
  5  8  1  0
  8  9  1  0
  8  2  1  0
  1 10  1  0
  1 11  1  0
  1 12  1  0
  3 13  1  0
  4 14  1  0
  4 15  1  0
  5 16  1  0
  6 17  1  0
  8 18  1  0
  9 19  1  0
M  END
