
     RDKit          3D

 21 22  0  0  0  0  0  0  0  0999 V2000
   -1.3587    1.7412   -0.5875 C   0  0  0  0  0  0  0  0  0  0  0  0
   -1.0583    0.3038   -0.2402 C   0  0  0  0  0  0  0  0  0  0  0  0
   -1.8363   -0.7501   -0.4486 C   0  0  0  0  0  0  0  0  0  0  0  0
   -1.0671   -1.9390    0.0812 C   0  0  0  0  0  0  0  0  0  0  0  0
   -0.2526   -1.3274    1.0677 O   0  0  0  0  0  0  0  0  0  0  0  0
    0.1608   -0.2144    0.3933 C   0  0  0  0  0  0  0  0  0  0  0  0
    1.2948   -0.5554   -0.5463 C   0  0  0  0  0  0  0  0  0  0  0  0
    2.2199    0.2067    0.3793 C   0  0  0  0  0  0  0  0  0  0  0  0
    1.0138    0.7711    1.1263 C   0  0  0  0  0  0  0  0  0  0  0  0
   -1.0550    2.3634    0.2767 H   0  0  0  0  0  0  0  0  0  0  0  0
   -0.8722    2.0403   -1.5172 H   0  0  0  0  0  0  0  0  0  0  0  0
   -2.4485    1.8991   -0.7145 H   0  0  0  0  0  0  0  0  0  0  0  0
   -2.8080   -0.7242   -0.9038 H   0  0  0  0  0  0  0  0  0  0  0  0
   -1.7903   -2.5601    0.6106 H   0  0  0  0  0  0  0  0  0  0  0  0
   -0.4766   -2.4287   -0.6884 H   0  0  0  0  0  0  0  0  0  0  0  0
    1.5778   -1.6456   -0.5569 H   0  0  0  0  0  0  0  0  0  0  0  0
    1.2171   -0.1891   -1.5665 H   0  0  0  0  0  0  0  0  0  0  0  0
    2.7863    0.9712   -0.1943 H   0  0  0  0  0  0  0  0  0  0  0  0
    2.8635   -0.4368    1.0062 H   0  0  0  0  0  0  0  0  0  0  0  0
    1.0522    0.6553    2.2139 H   0  0  0  0  0  0  0  0  0  0  0  0
    0.8375    1.8187    0.8088 H   0  0  0  0  0  0  0  0  0  0  0  0
  1  2  1  0
  2  3  2  0
  3  4  1  0
  4  5  1  0
  5  6  1  0
  6  7  1  0
  7  8  1  0
  8  9  1  0
  6  2  1  0
  9  6  1  0
  1 10  1  0
  1 11  1  0
  1 12  1  0
  3 13  1  0
  4 14  1  0
  4 15  1  0
  7 16  1  0
  7 17  1  0
  8 18  1  0
  8 19  1  0
  9 20  1  0
  9 21  1  0
M  END
