
     RDKit          3D

 21 22  0  0  0  0  0  0  0  0999 V2000
    2.3072   -0.3701   -0.1193 C   0  0  0  0  0  0  0  0  0  0  0  0
    0.8223   -0.3936   -0.1981 C   0  0  0  0  0  0  0  0  0  0  0  0
    0.1189   -1.3845   -0.7429 C   0  0  0  0  0  0  0  0  0  0  0  0
   -1.2961   -1.0645   -0.5180 C   0  0  0  0  0  0  0  0  0  0  0  0
   -1.4943   -1.0129    0.9845 C   0  0  0  0  0  0  0  0  0  0  0  0
   -0.7641    0.1063    1.4098 O   0  0  0  0  0  0  0  0  0  0  0  0
   -0.1343    0.6380    0.2934 C   0  0  0  0  0  0  0  0  0  0  0  0
    0.3719    1.9948    0.4131 C   0  0  0  0  0  0  0  0  0  0  0  0
   -1.2518    0.4615   -0.7568 C   0  0  0  0  0  0  0  0  0  0  0  0
    2.6604   -0.7672    0.8697 H   0  0  0  0  0  0  0  0  0  0  0  0
    2.7350   -1.0442   -0.8909 H   0  0  0  0  0  0  0  0  0  0  0  0
    2.7177    0.6628   -0.1989 H   0  0  0  0  0  0  0  0  0  0  0  0
    0.5477   -2.2402   -1.2443 H   0  0  0  0  0  0  0  0  0  0  0  0
   -2.0308   -1.5742   -1.0794 H   0  0  0  0  0  0  0  0  0  0  0  0
   -2.5541   -0.7996    1.2235 H   0  0  0  0  0  0  0  0  0  0  0  0
   -1.1572   -1.9391    1.4871 H   0  0  0  0  0  0  0  0  0  0  0  0
   -0.2188    2.5808    1.1212 H   0  0  0  0  0  0  0  0  0  0  0  0
    1.4349    1.9895    0.7244 H   0  0  0  0  0  0  0  0  0  0  0  0
    0.2700    2.5190   -0.5837 H   0  0  0  0  0  0  0  0  0  0  0  0
   -0.9072    0.7002   -1.7602 H   0  0  0  0  0  0  0  0  0  0  0  0
   -2.1772    0.9373   -0.4341 H   0  0  0  0  0  0  0  0  0  0  0  0
  1  2  1  0
  2  3  2  0
  3  4  1  0
  4  5  1  0
  5  6  1  0
  6  7  1  0
  7  8  1  0
  7  9  1  0
  7  2  1  0
  9  4  1  0
  1 10  1  0
  1 11  1  0
  1 12  1  0
  3 13  1  0
  4 14  1  0
  5 15  1  0
  5 16  1  0
  8 17  1  0
  8 18  1  0
  8 19  1  0
  9 20  1  0
  9 21  1  0
M  END
