
     RDKit          3D

 21 22  0  0  0  0  0  0  0  0999 V2000
    2.4282   -0.0056    0.6694 C   0  0  0  0  0  0  0  0  0  0  0  0
    1.0559   -0.3274    0.1685 C   0  0  0  0  0  0  0  0  0  0  0  0
    0.5708   -1.5482    0.1351 C   0  0  0  0  0  0  0  0  0  0  0  0
   -0.8121   -1.5688   -0.4090 C   0  0  0  0  0  0  0  0  0  0  0  0
   -1.0751   -0.1461   -0.7890 C   0  0  0  0  0  0  0  0  0  0  0  0
   -1.9167    0.5367    0.2612 C   0  0  0  0  0  0  0  0  0  0  0  0
   -0.7476    1.3736    0.6714 C   0  0  0  0  0  0  0  0  0  0  0  0
    0.1077    0.6750   -0.3366 C   0  0  0  0  0  0  0  0  0  0  0  0
    0.6072    1.5355   -1.3248 O   0  0  0  0  0  0  0  0  0  0  0  0
    3.0891   -0.9083    0.6344 H   0  0  0  0  0  0  0  0  0  0  0  0
    2.9125    0.7472    0.0159 H   0  0  0  0  0  0  0  0  0  0  0  0
    2.4191    0.3727    1.6969 H   0  0  0  0  0  0  0  0  0  0  0  0
    1.0814   -2.4511    0.4542 H   0  0  0  0  0  0  0  0  0  0  0  0
   -1.4712   -1.9040    0.4434 H   0  0  0  0  0  0  0  0  0  0  0  0
   -0.9499   -2.2945   -1.2180 H   0  0  0  0  0  0  0  0  0  0  0  0
   -1.3287    0.0679   -1.8271 H   0  0  0  0  0  0  0  0  0  0  0  0
   -2.2519   -0.1181    1.0858 H   0  0  0  0  0  0  0  0  0  0  0  0
   -2.7598    1.0522   -0.2057 H   0  0  0  0  0  0  0  0  0  0  0  0
   -0.8989    2.4771    0.4944 H   0  0  0  0  0  0  0  0  0  0  0  0
   -0.4074    1.2537    1.7239 H   0  0  0  0  0  0  0  0  0  0  0  0
    0.3474    1.1805   -2.2259 H   0  0  0  0  0  0  0  0  0  0  0  0
  1  2  1  0
  2  3  2  0
  3  4  1  0
  4  5  1  0
  5  6  1  0
  6  7  1  0
  7  8  1  0
  8  9  1  0
  8  2  1  0
  8  5  1  0
  1 10  1  0
  1 11  1  0
  1 12  1  0
  3 13  1  0
  4 14  1  0
  4 15  1  0
  5 16  1  0
  6 17  1  0
  6 18  1  0
  7 19  1  0
  7 20  1  0
  9 21  1  0
M  END
