
     RDKit          3D

 21 22  0  0  0  0  0  0  0  0999 V2000
    2.4962   -1.0733   -0.0728 C   0  0  0  0  0  0  0  0  0  0  0  0
    1.1377   -0.5131    0.1061 C   0  0  0  0  0  0  0  0  0  0  0  0
    0.0519   -1.2225    0.3567 C   0  0  0  0  0  0  0  0  0  0  0  0
   -1.1002   -0.2325    0.4558 C   0  0  0  0  0  0  0  0  0  0  0  0
   -2.4127   -0.8753    0.2303 C   0  0  0  0  0  0  0  0  0  0  0  0
   -0.6125    0.6286   -0.6707 C   0  0  0  0  0  0  0  0  0  0  0  0
    0.1624    1.7815   -0.8061 C   0  0  0  0  0  0  0  0  0  0  0  0
   -0.3935    2.9958   -0.3383 O   0  0  0  0  0  0  0  0  0  0  0  0
    0.7558    0.8761    0.0780 C   0  0  0  0  0  0  0  0  0  0  0  0
    2.5767   -1.7522   -0.9486 H   0  0  0  0  0  0  0  0  0  0  0  0
    3.2653   -0.2882   -0.2185 H   0  0  0  0  0  0  0  0  0  0  0  0
    2.8298   -1.6490    0.8375 H   0  0  0  0  0  0  0  0  0  0  0  0
   -0.0495   -2.2753    0.4746 H   0  0  0  0  0  0  0  0  0  0  0  0
   -1.0280    0.3502    1.3966 H   0  0  0  0  0  0  0  0  0  0  0  0
   -2.8734   -0.5754   -0.7208 H   0  0  0  0  0  0  0  0  0  0  0  0
   -3.1163   -0.5064    1.0336 H   0  0  0  0  0  0  0  0  0  0  0  0
   -2.3963   -1.9851    0.3741 H   0  0  0  0  0  0  0  0  0  0  0  0
   -0.5496   -0.0567   -1.5779 H   0  0  0  0  0  0  0  0  0  0  0  0
    0.7164    2.0072   -1.7589 H   0  0  0  0  0  0  0  0  0  0  0  0
   -0.1125    3.1561    0.6006 H   0  0  0  0  0  0  0  0  0  0  0  0
    0.6525    1.2093    1.1686 H   0  0  0  0  0  0  0  0  0  0  0  0
  1  2  1  0
  2  3  2  0
  3  4  1  0
  4  5  1  0
  4  6  1  0
  6  7  1  0
  7  8  1  0
  7  9  1  0
  9  2  1  0
  9  6  1  0
  1 10  1  0
  1 11  1  0
  1 12  1  0
  3 13  1  0
  4 14  1  0
  5 15  1  0
  5 16  1  0
  5 17  1  0
  6 18  1  0
  7 19  1  0
  8 20  1  0
  9 21  1  0
M  END
