
     RDKit          3D

 19 20  0  0  0  0  0  0  0  0999 V2000
   -1.0488   -1.8071   -0.5970 C   0  0  0  0  0  0  0  0  0  0  0  0
   -0.6980   -0.4147   -0.2012 C   0  0  0  0  0  0  0  0  0  0  0  0
    0.5177    0.0202   -0.0111 C   0  0  0  0  0  0  0  0  0  0  0  0
    1.8008   -0.7558   -0.1429 C   0  0  0  0  0  0  0  0  0  0  0  0
    2.4215   -0.7250    1.0781 O   0  0  0  0  0  0  0  0  0  0  0  0
    0.5046    1.4500    0.3729 C   0  0  0  0  0  0  0  0  0  0  0  0
    0.1135    2.3048   -0.6444 O   0  0  0  0  0  0  0  0  0  0  0  0
   -0.8659    1.9093    0.2563 C   0  0  0  0  0  0  0  0  0  0  0  0
   -1.6599    0.6691    0.0327 C   0  0  0  0  0  0  0  0  0  0  0  0
   -1.9336   -2.0871    0.0430 H   0  0  0  0  0  0  0  0  0  0  0  0
   -0.2253   -2.5114   -0.4599 H   0  0  0  0  0  0  0  0  0  0  0  0
   -1.4390   -1.7672   -1.6435 H   0  0  0  0  0  0  0  0  0  0  0  0
    1.6585   -1.7391   -0.5833 H   0  0  0  0  0  0  0  0  0  0  0  0
    2.4550   -0.1805   -0.8603 H   0  0  0  0  0  0  0  0  0  0  0  0
    3.1791   -0.0775    1.1341 H   0  0  0  0  0  0  0  0  0  0  0  0
    1.1570    1.8039    1.1890 H   0  0  0  0  0  0  0  0  0  0  0  0
   -1.3244    2.7150    0.8378 H   0  0  0  0  0  0  0  0  0  0  0  0
   -2.2108    0.4479    0.9831 H   0  0  0  0  0  0  0  0  0  0  0  0
   -2.4020    0.7453   -0.7835 H   0  0  0  0  0  0  0  0  0  0  0  0
  1  2  1  0
  2  3  2  0
  3  4  1  0
  4  5  1  0
  3  6  1  0
  6  7  1  0
  7  8  1  0
  8  9  1  0
  9  2  1  0
  8  6  1  0
  1 10  1  0
  1 11  1  0
  1 12  1  0
  4 13  1  0
  4 14  1  0
  5 15  1  0
  6 16  1  0
  8 17  1  0
  9 18  1  0
  9 19  1  0
M  END
