
     RDKit          3D

 17 18  0  0  0  0  0  0  0  0999 V2000
    2.4240    0.0356    0.1562 C   0  0  0  0  0  0  0  0  0  0  0  0
    0.9560   -0.0082   -0.0618 C   0  0  0  0  0  0  0  0  0  0  0  0
    0.2639   -1.1367   -0.1361 C   0  0  0  0  0  0  0  0  0  0  0  0
   -1.1903   -1.0028   -0.3704 C   0  0  0  0  0  0  0  0  0  0  0  0
   -1.7419   -0.0332    0.6425 C   0  0  0  0  0  0  0  0  0  0  0  0
   -1.3114    0.9517   -0.4161 C   0  0  0  0  0  0  0  0  0  0  0  0
   -1.4887   -0.0661   -1.3587 O   0  0  0  0  0  0  0  0  0  0  0  0
    0.1403    1.2004   -0.2147 C   0  0  0  0  0  0  0  0  0  0  0  0
    0.5819    2.3675   -0.1856 O   0  0  0  0  0  0  0  0  0  0  0  0
    2.9575    0.1596   -0.8317 H   0  0  0  0  0  0  0  0  0  0  0  0
    2.6845    0.8574    0.8528 H   0  0  0  0  0  0  0  0  0  0  0  0
    2.7241   -0.9538    0.6085 H   0  0  0  0  0  0  0  0  0  0  0  0
    0.6643   -2.1293   -0.0417 H   0  0  0  0  0  0  0  0  0  0  0  0
   -1.7533   -1.9534   -0.4678 H   0  0  0  0  0  0  0  0  0  0  0  0
   -2.8266   -0.1301    0.7891 H   0  0  0  0  0  0  0  0  0  0  0  0
   -1.1448    0.0082    1.5838 H   0  0  0  0  0  0  0  0  0  0  0  0
   -1.9395    1.8334   -0.5485 H   0  0  0  0  0  0  0  0  0  0  0  0
  1  2  1  0
  2  3  2  0
  3  4  1  0
  4  5  1  0
  5  6  1  0
  6  7  1  0
  6  8  1  0
  8  9  2  0
  8  2  1  0
  7  4  1  0
  1 10  1  0
  1 11  1  0
  1 12  1  0
  3 13  1  0
  4 14  1  0
  5 15  1  0
  5 16  1  0
  6 17  1  0
M  END
