
     RDKit          3D

 19 20  0  0  0  0  0  0  0  0999 V2000
    2.6096   -0.7271    0.4790 C   0  0  0  0  0  0  0  0  0  0  0  0
    1.3193   -0.1560    0.0412 C   0  0  0  0  0  0  0  0  0  0  0  0
    0.1347   -0.7154    0.2337 C   0  0  0  0  0  0  0  0  0  0  0  0
   -0.8854    0.2328   -0.3800 C   0  0  0  0  0  0  0  0  0  0  0  0
   -2.2428    0.0329    0.1590 C   0  0  0  0  0  0  0  0  0  0  0  0
   -2.6926   -1.2671   -0.0862 O   0  0  0  0  0  0  0  0  0  0  0  0
   -0.1887    1.4791    0.0665 C   0  0  0  0  0  0  0  0  0  0  0  0
    0.7083    2.2752   -0.4340 O   0  0  0  0  0  0  0  0  0  0  0  0
    1.1199    1.0703   -0.6868 C   0  0  0  0  0  0  0  0  0  0  0  0
    2.5137   -1.1045    1.5169 H   0  0  0  0  0  0  0  0  0  0  0  0
    2.9504   -1.5723   -0.1682 H   0  0  0  0  0  0  0  0  0  0  0  0
    3.4234    0.0417    0.4125 H   0  0  0  0  0  0  0  0  0  0  0  0
   -0.0628   -1.6511    0.7251 H   0  0  0  0  0  0  0  0  0  0  0  0
   -0.7956    0.1268   -1.4645 H   0  0  0  0  0  0  0  0  0  0  0  0
   -2.9364    0.7008   -0.3953 H   0  0  0  0  0  0  0  0  0  0  0  0
   -2.3501    0.2714    1.2212 H   0  0  0  0  0  0  0  0  0  0  0  0
   -3.4923   -1.3056   -0.6489 H   0  0  0  0  0  0  0  0  0  0  0  0
   -0.0997    1.4469    1.2020 H   0  0  0  0  0  0  0  0  0  0  0  0
    0.9671    0.8212   -1.7931 H   0  0  0  0  0  0  0  0  0  0  0  0
  1  2  1  0
  2  3  2  0
  3  4  1  0
  4  5  1  0
  5  6  1  0
  4  7  1  0
  7  8  1  0
  8  9  1  0
  9  2  1  0
  9  7  1  0
  1 10  1  0
  1 11  1  0
  1 12  1  0
  3 13  1  0
  4 14  1  0
  5 15  1  0
  5 16  1  0
  6 17  1  0
  7 18  1  0
  9 19  1  0
M  END
