
     RDKit          3D

 17 18  0  0  0  0  0  0  0  0999 V2000
    2.6574   -0.1014   -0.4378 C   0  0  0  0  0  0  0  0  0  0  0  0
    1.2487    0.1886   -0.0885 C   0  0  0  0  0  0  0  0  0  0  0  0
    0.2464   -0.6534   -0.2650 C   0  0  0  0  0  0  0  0  0  0  0  0
   -0.9629    0.0235    0.2083 C   0  0  0  0  0  0  0  0  0  0  0  0
   -2.2341   -0.0170   -0.5564 C   0  0  0  0  0  0  0  0  0  0  0  0
   -2.1245   -0.6963    0.7470 C   0  0  0  0  0  0  0  0  0  0  0  0
   -0.5939    1.3050    0.6671 O   0  0  0  0  0  0  0  0  0  0  0  0
    0.7755    1.4359    0.4949 C   0  0  0  0  0  0  0  0  0  0  0  0
    1.5027    2.4472    0.7852 O   0  0  0  0  0  0  0  0  0  0  0  0
    3.1766    0.8465   -0.7277 H   0  0  0  0  0  0  0  0  0  0  0  0
    3.2009   -0.5357    0.4327 H   0  0  0  0  0  0  0  0  0  0  0  0
    2.6804   -0.8491   -1.2536 H   0  0  0  0  0  0  0  0  0  0  0  0
    0.2588   -1.6533   -0.6723 H   0  0  0  0  0  0  0  0  0  0  0  0
   -2.2718   -0.6078   -1.5151 H   0  0  0  0  0  0  0  0  0  0  0  0
   -2.8525    0.9093   -0.6474 H   0  0  0  0  0  0  0  0  0  0  0  0
   -2.0838   -1.7968    0.7297 H   0  0  0  0  0  0  0  0  0  0  0  0
   -2.6240   -0.2451    1.6323 H   0  0  0  0  0  0  0  0  0  0  0  0
  1  2  1  0
  2  3  2  0
  3  4  1  0
  4  5  1  0
  5  6  1  0
  4  7  1  0
  7  8  1  0
  8  9  2  0
  8  2  1  0
  6  4  1  0
  1 10  1  0
  1 11  1  0
  1 12  1  0
  3 13  1  0
  5 14  1  0
  5 15  1  0
  6 16  1  0
  6 17  1  0
M  END
