
     RDKit          3D

 21 21  0  0  0  0  0  0  0  0999 V2000
   -2.3058   -1.0796   -0.2124 C   0  0  0  0  0  0  0  0  0  0  0  0
   -0.9879   -0.3972   -0.1418 C   0  0  0  0  0  0  0  0  0  0  0  0
   -0.7087    0.8923   -0.2272 C   0  0  0  0  0  0  0  0  0  0  0  0
   -1.6994    1.9331   -0.4164 C   0  0  0  0  0  0  0  0  0  0  0  0
   -1.3642    3.1290   -0.4879 O   0  0  0  0  0  0  0  0  0  0  0  0
    0.7451    1.1517   -0.1060 C   0  0  0  0  0  0  0  0  0  0  0  0
    1.3981   -0.1974   -0.2577 C   0  0  0  0  0  0  0  0  0  0  0  0
    2.5407   -0.4047    0.7054 C   0  0  0  0  0  0  0  0  0  0  0  0
    0.2895   -1.1445    0.0501 C   0  0  0  0  0  0  0  0  0  0  0  0
   -2.3928   -1.8869    0.5600 H   0  0  0  0  0  0  0  0  0  0  0  0
   -2.4105   -1.5589   -1.2077 H   0  0  0  0  0  0  0  0  0  0  0  0
   -3.1536   -0.3883   -0.0060 H   0  0  0  0  0  0  0  0  0  0  0  0
   -2.7635    1.6981   -0.5011 H   0  0  0  0  0  0  0  0  0  0  0  0
    1.0874    1.8835   -0.8575 H   0  0  0  0  0  0  0  0  0  0  0  0
    0.8982    1.5514    0.9362 H   0  0  0  0  0  0  0  0  0  0  0  0
    1.7180   -0.3163   -1.3227 H   0  0  0  0  0  0  0  0  0  0  0  0
    2.3636   -1.3369    1.2822 H   0  0  0  0  0  0  0  0  0  0  0  0
    2.5844    0.4483    1.4153 H   0  0  0  0  0  0  0  0  0  0  0  0
    3.5141   -0.4845    0.1628 H   0  0  0  0  0  0  0  0  0  0  0  0
    0.3204   -1.4088    1.1373 H   0  0  0  0  0  0  0  0  0  0  0  0
    0.3270   -2.0833   -0.5051 H   0  0  0  0  0  0  0  0  0  0  0  0
  1  2  1  0
  2  3  2  0
  3  4  1  0
  4  5  2  0
  3  6  1  0
  6  7  1  0
  7  8  1  0
  7  9  1  0
  9  2  1  0
  1 10  1  0
  1 11  1  0
  1 12  1  0
  4 13  1  0
  6 14  1  0
  6 15  1  0
  7 16  1  0
  8 17  1  0
  8 18  1  0
  8 19  1  0
  9 20  1  0
  9 21  1  0
M  END
