
     RDKit          3D

 21 22  0  0  0  0  0  0  0  0999 V2000
   -2.2499   -1.2012   -0.2785 C   0  0  0  0  0  0  0  0  0  0  0  0
   -0.9307   -0.5396   -0.0853 C   0  0  0  0  0  0  0  0  0  0  0  0
    0.0458   -1.0339    0.6537 C   0  0  0  0  0  0  0  0  0  0  0  0
    1.2268   -0.1596    0.6559 C   0  0  0  0  0  0  0  0  0  0  0  0
    2.4322   -0.8111   -0.0285 C   0  0  0  0  0  0  0  0  0  0  0  0
    0.7857    1.0835   -0.0436 C   0  0  0  0  0  0  0  0  0  0  0  0
    0.2056    2.0043    0.7988 O   0  0  0  0  0  0  0  0  0  0  0  0
   -0.9666    1.9815    0.0340 C   0  0  0  0  0  0  0  0  0  0  0  0
   -0.5197    0.7289   -0.6686 C   0  0  0  0  0  0  0  0  0  0  0  0
   -2.1223   -2.2709   -0.6074 H   0  0  0  0  0  0  0  0  0  0  0  0
   -2.9053   -1.1383    0.5912 H   0  0  0  0  0  0  0  0  0  0  0  0
   -2.8164   -0.7266   -1.1312 H   0  0  0  0  0  0  0  0  0  0  0  0
    0.0299   -1.9904    1.2260 H   0  0  0  0  0  0  0  0  0  0  0  0
    1.5248    0.0173    1.7091 H   0  0  0  0  0  0  0  0  0  0  0  0
    2.2108   -1.1053   -1.0582 H   0  0  0  0  0  0  0  0  0  0  0  0
    3.2596   -0.0884    0.0616 H   0  0  0  0  0  0  0  0  0  0  0  0
    2.6812   -1.7058    0.6030 H   0  0  0  0  0  0  0  0  0  0  0  0
    1.5687    1.4819   -0.7143 H   0  0  0  0  0  0  0  0  0  0  0  0
   -1.8664    1.8734    0.6854 H   0  0  0  0  0  0  0  0  0  0  0  0
   -1.0233    2.8489   -0.6301 H   0  0  0  0  0  0  0  0  0  0  0  0
   -0.5705    0.7515   -1.7731 H   0  0  0  0  0  0  0  0  0  0  0  0
  1  2  1  0
  2  3  2  0
  3  4  1  0
  4  5  1  0
  4  6  1  0
  6  7  1  0
  7  8  1  0
  8  9  1  0
  9  2  1  0
  9  6  1  0
  1 10  1  0
  1 11  1  0
  1 12  1  0
  3 13  1  0
  4 14  1  0
  5 15  1  0
  5 16  1  0
  5 17  1  0
  6 18  1  0
  8 19  1  0
  8 20  1  0
  9 21  1  0
M  END
