
     RDKit          3D

 17 18  0  0  0  0  0  0  0  0999 V2000
    2.0780    1.0168   -0.2027 C   0  0  0  0  0  0  0  0  0  0  0  0
    0.7227    0.3742   -0.1614 C   0  0  0  0  0  0  0  0  0  0  0  0
   -0.3341    1.1356    0.0027 C   0  0  0  0  0  0  0  0  0  0  0  0
   -1.7260    0.6071    0.0589 C   0  0  0  0  0  0  0  0  0  0  0  0
   -1.6671   -0.7930    0.5415 C   0  0  0  0  0  0  0  0  0  0  0  0
   -2.5933   -1.2156    1.1981 O   0  0  0  0  0  0  0  0  0  0  0  0
   -0.5330   -1.6616    0.2468 C   0  0  0  0  0  0  0  0  0  0  0  0
   -0.2722   -1.6469   -1.2144 O   0  0  0  0  0  0  0  0  0  0  0  0
    0.6430   -1.0919   -0.3086 C   0  0  0  0  0  0  0  0  0  0  0  0
    2.4531    1.1711    0.8449 H   0  0  0  0  0  0  0  0  0  0  0  0
    2.8190    0.3328   -0.6788 H   0  0  0  0  0  0  0  0  0  0  0  0
    2.0412    1.9979   -0.7351 H   0  0  0  0  0  0  0  0  0  0  0  0
   -0.1914    2.2124    0.1037 H   0  0  0  0  0  0  0  0  0  0  0  0
   -2.2684    1.2112    0.8366 H   0  0  0  0  0  0  0  0  0  0  0  0
   -2.2380    0.6896   -0.9291 H   0  0  0  0  0  0  0  0  0  0  0  0
   -0.5182   -2.6790    0.6671 H   0  0  0  0  0  0  0  0  0  0  0  0
    1.5846   -1.6608   -0.2702 H   0  0  0  0  0  0  0  0  0  0  0  0
  1  2  1  0
  2  3  2  0
  3  4  1  0
  4  5  1  0
  5  6  2  0
  5  7  1  0
  7  8  1  0
  8  9  1  0
  9  2  1  0
  9  7  1  0
  1 10  1  0
  1 11  1  0
  1 12  1  0
  3 13  1  0
  4 14  1  0
  4 15  1  0
  7 16  1  0
  9 17  1  0
M  END
