
     RDKit          3D

 25 25  0  0  0  0  0  0  0  0999 V2000
    3.1087   -0.6719    0.1956 C   0  0  0  0  0  0  0  0  0  0  0  0
    1.6375   -0.5058    0.0538 C   0  0  0  0  0  0  0  0  0  0  0  0
    0.9796   -1.4338   -0.6310 C   0  0  0  0  0  0  0  0  0  0  0  0
   -0.4896   -1.4057   -0.8580 C   0  0  0  0  0  0  0  0  0  0  0  0
   -1.1135   -0.3976    0.1099 C   0  0  0  0  0  0  0  0  0  0  0  0
   -2.5749   -0.1943   -0.2010 C   0  0  0  0  0  0  0  0  0  0  0  0
   -0.3269    0.8885   -0.0485 C   0  0  0  0  0  0  0  0  0  0  0  0
   -1.0709    2.0803    0.4536 C   0  0  0  0  0  0  0  0  0  0  0  0
    0.9918    0.6798    0.6815 C   0  0  0  0  0  0  0  0  0  0  0  0
    3.6126   -0.1746   -0.6827 H   0  0  0  0  0  0  0  0  0  0  0  0
    3.5018   -0.3104    1.1532 H   0  0  0  0  0  0  0  0  0  0  0  0
    3.3846   -1.7563    0.0822 H   0  0  0  0  0  0  0  0  0  0  0  0
    1.5264   -2.2828   -1.0664 H   0  0  0  0  0  0  0  0  0  0  0  0
   -0.9411   -2.4138   -0.6891 H   0  0  0  0  0  0  0  0  0  0  0  0
   -0.7617   -1.0711   -1.8801 H   0  0  0  0  0  0  0  0  0  0  0  0
   -0.9920   -0.8044    1.1525 H   0  0  0  0  0  0  0  0  0  0  0  0
   -2.7164    0.6529   -0.9312 H   0  0  0  0  0  0  0  0  0  0  0  0
   -3.0456   -1.1233   -0.5526 H   0  0  0  0  0  0  0  0  0  0  0  0
   -3.0753    0.0780    0.7588 H   0  0  0  0  0  0  0  0  0  0  0  0
   -0.0601    1.0442   -1.1218 H   0  0  0  0  0  0  0  0  0  0  0  0
   -0.4335    2.8844    0.8347 H   0  0  0  0  0  0  0  0  0  0  0  0
   -1.8589    1.7849    1.1937 H   0  0  0  0  0  0  0  0  0  0  0  0
   -1.6417    2.5080   -0.4180 H   0  0  0  0  0  0  0  0  0  0  0  0
    0.7322    0.3770    1.7365 H   0  0  0  0  0  0  0  0  0  0  0  0
    1.6268    1.5681    0.6744 H   0  0  0  0  0  0  0  0  0  0  0  0
  1  2  1  0
  2  3  2  0
  3  4  1  0
  4  5  1  0
  5  6  1  0
  5  7  1  0
  7  8  1  0
  7  9  1  0
  9  2  1  0
  1 10  1  0
  1 11  1  0
  1 12  1  0
  3 13  1  0
  4 14  1  0
  4 15  1  0
  5 16  1  0
  6 17  1  0
  6 18  1  0
  6 19  1  0
  7 20  1  0
  8 21  1  0
  8 22  1  0
  8 23  1  0
  9 24  1  0
  9 25  1  0
M  END
