
     RDKit          3D

 21 21  0  0  0  0  0  0  0  0999 V2000
   -2.5938    0.2398    0.5257 C   0  0  0  0  0  0  0  0  0  0  0  0
   -1.1725    0.2178    0.1245 C   0  0  0  0  0  0  0  0  0  0  0  0
   -0.1619    0.6652    0.8557 C   0  0  0  0  0  0  0  0  0  0  0  0
    1.0962    0.4667    0.1076 C   0  0  0  0  0  0  0  0  0  0  0  0
    2.1117   -0.1317    1.0653 C   0  0  0  0  0  0  0  0  0  0  0  0
    1.6294    1.6663   -0.3742 O   0  0  0  0  0  0  0  0  0  0  0  0
    0.8104   -0.4181   -1.0535 C   0  0  0  0  0  0  0  0  0  0  0  0
   -0.6893   -0.3232   -1.1822 C   0  0  0  0  0  0  0  0  0  0  0  0
   -1.1766   -1.6171   -1.4051 O   0  0  0  0  0  0  0  0  0  0  0  0
   -3.2696    0.3175   -0.3461 H   0  0  0  0  0  0  0  0  0  0  0  0
   -2.7547    1.0425    1.2511 H   0  0  0  0  0  0  0  0  0  0  0  0
   -2.8107   -0.7194    1.0411 H   0  0  0  0  0  0  0  0  0  0  0  0
   -0.2604    1.1031    1.8422 H   0  0  0  0  0  0  0  0  0  0  0  0
    3.0491   -0.3974    0.5323 H   0  0  0  0  0  0  0  0  0  0  0  0
    2.2782    0.6305    1.8573 H   0  0  0  0  0  0  0  0  0  0  0  0
    1.6554   -1.0077    1.5477 H   0  0  0  0  0  0  0  0  0  0  0  0
    2.4543    1.4180   -0.8651 H   0  0  0  0  0  0  0  0  0  0  0  0
    1.1448   -1.4622   -0.9305 H   0  0  0  0  0  0  0  0  0  0  0  0
    1.2603   -0.0441   -2.0096 H   0  0  0  0  0  0  0  0  0  0  0  0
   -0.9989    0.3210   -2.0042 H   0  0  0  0  0  0  0  0  0  0  0  0
   -1.6013   -1.9676   -0.5800 H   0  0  0  0  0  0  0  0  0  0  0  0
  1  2  1  0
  2  3  2  0
  3  4  1  0
  4  5  1  0
  4  6  1  0
  4  7  1  0
  7  8  1  0
  8  9  1  0
  8  2  1  0
  1 10  1  0
  1 11  1  0
  1 12  1  0
  3 13  1  0
  5 14  1  0
  5 15  1  0
  5 16  1  0
  6 17  1  0
  7 18  1  0
  7 19  1  0
  8 20  1  0
  9 21  1  0
M  END
